data_functionalizedCrystal
_audit_creation_method	'MofGen! by Chris Wilmer'
_symmetry_space_group_name_H-M	'P1'
_symmetry_Int_Tables_number	1
_symmetry_cell_setting	triclinic
loop_
_symmetry_equiv_pos_as_xyz
  x,y,z
_cell_length_a	14.044220
_cell_length_b	15.944493
_cell_length_c	13.101039
_cell_angle_alpha	93.367629
_cell_angle_beta	86.340132
_cell_angle_gamma	88.331960
loop_
_atom_site_label
_atom_site_type_symbol
_atom_site_fract_x
_atom_site_fract_y
_atom_site_fract_z
O1	O	1.262879	0.198269	-0.085081
O2	O	1.596212	0.531603	0.248253
O3	O	1.929546	0.864936	0.581586
O4	O	0.986913	0.190960	-0.085107
O5	O	1.320246	0.524294	0.248226
O6	O	1.653579	0.857627	0.581559
O7	O	1.132461	0.072903	-0.085102
O8	O	1.465794	0.406236	0.248232
O9	O	1.799128	0.739569	0.581565
O10	O	1.117331	0.316327	-0.085086
O11	O	1.450664	0.649660	0.248247
O12	O	1.783997	0.982994	0.581580
O13	O	1.122018	0.081388	0.085328
O14	O	1.455351	0.414722	0.418661
O15	O	1.788685	0.748055	0.751994
O16	O	0.976470	0.199446	0.085322
O17	O	1.309803	0.532779	0.418655
O18	O	1.643136	0.866113	0.751989
O19	O	1.252436	0.206755	0.085349
O20	O	1.585769	0.540088	0.418682
O21	O	1.919103	0.873422	0.752016
Zn22	Zn	1.112795	0.204448	0.112395
Zn23	Zn	1.446128	0.537781	0.445728
Zn24	Zn	1.779461	0.871115	0.779061
Zn25	Zn	1.126554	0.193267	-0.112153
Zn26	Zn	1.459887	0.526601	0.221180
Zn27	Zn	1.793220	0.859934	0.554513
O28	O	1.106888	0.324813	0.085343
O29	O	1.440221	0.658146	0.418677
O30	O	1.773554	0.991479	0.752010
C31	C	0.946377	0.192004	0.000104
C32	C	1.279711	0.525338	0.333437
C33	C	1.613044	0.858671	0.666770
C34	C	0.841154	0.182462	0.000093
C35	C	1.174487	0.515796	0.333426
C36	C	1.507821	0.849129	0.666759
C37	C	0.648494	0.165020	0.000112
C38	C	0.981828	0.498353	0.333445
C39	C	1.315161	0.831686	0.666779
C40	C	0.590849	0.232692	0.000121
C41	C	0.924182	0.566025	0.333454
C42	C	1.257516	0.899358	0.666787
C43	C	0.483647	0.222986	0.000131
C44	C	0.816980	0.556319	0.333465
C45	C	1.150313	0.889653	0.666798
C46	C	0.755707	0.174724	0.000101
C47	C	1.089040	0.508057	0.333435
C48	C	1.422374	0.841390	0.666768
C49	C	1.126621	0.045804	0.000109
C50	C	1.459955	0.379138	0.333442
C51	C	1.793288	0.712471	0.666775
C52	C	1.124768	-0.047584	0.000095
C53	C	1.458102	0.285750	0.333429
C54	C	1.791435	0.619083	0.666762
C55	C	1.210440	-0.276927	0.000123
C56	C	1.543773	0.056406	0.333456
C57	C	1.877107	0.389739	0.666790
C58	C	1.169389	-0.335139	-0.083912
C59	C	1.502722	-0.001805	0.249422
C60	C	1.836055	0.331528	0.582755
C61	C	1.121332	-0.218561	0.000108
C62	C	1.454666	0.114772	0.333441
C63	C	1.787999	0.448105	0.666774
C64	C	1.159072	-0.326750	0.084119
C65	C	1.492405	0.006583	0.417452
C66	C	1.825739	0.339917	0.750785
C67	C	1.118020	-0.383718	0.000124
C68	C	1.451353	-0.050385	0.333457
C69	C	1.784687	0.282948	0.666790
C70	C	1.080309	-0.275546	-0.083996
C71	C	1.413643	0.057787	0.249337
C72	C	1.746976	0.391120	0.582670
C73	C	1.070001	-0.267150	0.084109
C74	C	1.403335	0.066184	0.417442
C75	C	1.736668	0.399517	0.750776
C76	C	1.028886	-0.325334	0.000054
C77	C	1.362219	0.007999	0.333387
C78	C	1.695552	0.341332	0.666721
C79	C	1.123243	-0.123419	0.000097
C80	C	1.456577	0.209914	0.333431
C81	C	1.789910	0.543248	0.666764
C82	C	1.116103	-0.478859	0.000127
C83	C	1.449436	-0.145525	0.333460
C84	C	1.782769	0.187808	0.666793
C85	C	1.292971	0.205711	0.000136
C86	C	1.626305	0.539044	0.333469
C87	C	1.959638	0.872378	0.666802
C88	C	1.398195	0.215253	0.000140
C89	C	1.731528	0.548586	0.333473
C90	C	2.064862	0.881919	0.666806
C91	C	1.112727	0.351911	0.000131
C92	C	1.446061	0.685244	0.333464
C93	C	1.779394	1.018578	0.666797
C94	C	1.114581	0.445299	0.000137
C95	C	1.447914	0.778632	0.333471
C96	C	1.781248	1.111965	0.666804
N97	N	1.103412	0.212078	0.265643
N98	N	1.436745	0.545412	0.598976
N99	N	1.770078	0.878745	0.932310
N100	N	1.135945	0.185631	-0.265402
N101	N	1.469278	0.518964	0.067932
N102	N	1.802611	0.852298	0.401265
C103	C	1.090645	0.222467	0.474685
C104	C	1.423979	0.555801	0.808018
C105	C	1.757312	0.889134	1.141352
C106	C	1.148708	0.175245	0.525563
C107	C	1.482041	0.508578	0.858896
C108	C	1.815374	0.841911	1.192230
C109	C	1.141604	0.181025	0.641881
C110	C	1.474938	0.514358	0.975214
C111	C	1.808271	0.847692	1.308548
C112	C	1.097747	0.216688	0.358356
C113	C	1.431081	0.550021	0.691690
C114	C	1.764414	0.883354	1.025023
H115	H	0.622009	0.297916	0.000120
H116	H	0.955342	0.631250	0.333453
H117	H	1.288676	0.964583	0.666786
H118	H	1.028049	-0.237467	0.155150
H119	H	1.361382	0.095866	0.488483
H120	H	1.694716	0.429200	0.821817
H121	H	1.035606	0.267235	0.518480
H122	H	1.368939	0.600568	0.851813
H123	H	1.702273	0.933902	1.185147
H124	H	0.617336	0.099800	0.000113
H125	H	0.950670	0.433134	0.333447
H126	H	1.284003	0.766467	0.666780
H127	H	1.211373	-0.364804	-0.154950
H128	H	1.544706	-0.031470	0.178383
H129	H	1.878040	0.301863	0.511717
Cl130	Cl	1.328949	-0.243926	0.000009
Cl131	Cl	1.662282	0.089407	0.333342
Cl132	Cl	1.995615	0.422740	0.666675
Cl133	Cl	1.028975	-0.240872	-0.193805
Cl134	Cl	1.362308	0.092461	0.139528
Cl135	Cl	1.695641	0.425795	0.472861
H136	H	1.203752	0.130475	0.481763
H137	H	1.537085	0.463808	0.815096
H138	H	1.870419	0.797142	1.148429
H139	H	0.952074	-0.346555	0.000001
H140	H	1.285407	-0.013221	0.333334
H141	H	1.618741	0.320112	0.666667
H142	H	1.192369	-0.349325	0.155159
H143	H	1.525703	-0.015991	0.488492
H144	H	1.859036	0.317342	0.821825
