data_functionalizedCrystal
_audit_creation_method	'MofGen! by Chris Wilmer'
_symmetry_space_group_name_H-M	'P1'
_symmetry_Int_Tables_number	1
_symmetry_cell_setting	triclinic
loop_
_symmetry_equiv_pos_as_xyz
  x,y,z
_cell_length_a	8.559649
_cell_length_b	13.101039
_cell_length_c	8.559649
_cell_angle_alpha	92.890696
_cell_angle_beta	110.221336
_cell_angle_gamma	92.882768
loop_
_atom_site_label
_atom_site_type_symbol
_atom_site_fract_x
_atom_site_fract_y
_atom_site_fract_z
O1	O	2.136903	0.085199	0.065082
O2	O	2.636903	0.585199	0.565082
O3	O	1.661418	0.085203	-0.018699
O4	O	2.161418	0.585203	0.481301
O5	O	1.941051	0.085199	0.260934
O6	O	2.441051	0.585199	0.760934
O7	O	1.857270	0.085202	-0.214551
O8	O	2.357270	0.585202	0.285449
O9	O	1.920984	-0.085230	0.240841
O10	O	2.420984	0.414770	0.740841
O11	O	1.641351	-0.085227	-0.038792
O12	O	2.141351	0.414773	0.461208
O13	O	2.116836	-0.085231	0.044989
O14	O	2.616836	0.414769	0.544989
Zn15	Zn	1.875908	-0.112288	-0.000091
Zn16	Zn	2.375908	0.387712	0.499909
Zn17	Zn	1.902347	0.112260	0.026382
Zn18	Zn	2.402347	0.612260	0.526382
O19	O	1.837203	-0.085228	-0.234643
O20	O	2.337203	0.414772	0.265357
C21	C	1.591076	-0.000012	-0.035094
C22	C	2.091076	0.499988	0.464906
C23	C	1.411377	-0.000010	-0.053993
C24	C	1.911377	0.499990	0.446007
N25	N	1.857876	-0.265537	-0.018156
N26	N	2.357876	0.234463	0.481844
C27	C	1.833340	-0.474579	-0.042749
C28	C	2.333340	0.025421	0.457251
C29	C	1.944922	-0.525456	0.069048
C30	C	2.444922	-0.025456	0.569048
C31	C	1.931271	-0.641774	0.055364
C32	C	2.431271	-0.141774	0.555364
C33	C	1.846990	-0.358250	-0.029068
C34	C	2.346990	0.141750	0.470932
C35	C	2.187178	-0.000014	0.061385
C36	C	2.687178	0.499986	0.561385
C37	C	2.366878	-0.000009	0.080285
C38	C	2.866878	0.499991	0.580285
C39	C	1.937367	-0.000014	0.311197
C40	C	2.437367	0.499986	0.811197
C41	C	1.956267	-0.000008	0.490897
C42	C	2.456267	0.499992	0.990897
N43	N	1.920393	0.265508	0.044461
N44	N	2.420393	0.765508	0.544461
C45	C	1.840888	-0.000012	-0.284906
C46	C	2.340888	0.499988	0.215094
C47	C	1.821989	-0.000011	-0.464605
C48	C	2.321989	0.499989	0.035395
H49	H	1.311989	-0.000004	-0.183420
H50	H	1.811989	0.499996	0.316580
H51	H	2.050704	-0.481655	0.175036
H52	H	2.550704	0.018345	0.675036
N53	N	2.127712	-0.000008	0.622535
N54	N	2.627712	0.499992	1.122535
H55	H	2.214632	-0.000004	0.567311
H56	H	2.714632	0.499996	1.067311
H57	H	2.134094	-0.063193	0.686749
H58	H	2.634094	0.436807	1.186749
N59	N	1.650544	-0.000001	0.403782
N60	N	2.150544	0.499999	0.903782
H61	H	1.580504	-0.063181	0.409245
H62	H	2.080504	0.436819	0.909245
H63	H	1.661022	0.000043	0.289827
H64	H	2.161022	0.500043	0.789827
N65	N	1.693234	-0.532594	-0.183135
N66	N	2.193234	-0.032594	0.316865
H67	H	1.741429	-0.577104	-0.252397
H68	H	2.241429	-0.077104	0.247603
H69	H	1.620710	-0.482375	-0.255731
H70	H	2.120710	0.017625	0.244269
N71	N	1.498494	-0.000012	0.251729
N72	N	1.998494	0.499988	0.751729
H73	H	1.577645	0.063165	0.273153
H74	H	2.077645	0.563165	0.773153
H75	H	1.562640	-0.063234	0.258141
H76	H	2.062640	0.436766	0.758141
