data_functionalizedCrystal
_audit_creation_method	'MofGen! by Chris Wilmer'
_symmetry_space_group_name_H-M	'P1'
_symmetry_Int_Tables_number	1
_symmetry_cell_setting	triclinic
loop_
_symmetry_equiv_pos_as_xyz
  x,y,z
_cell_length_a	21.295411
_cell_length_b	21.295418
_cell_length_c	21.295417
_cell_angle_alpha	90.046319
_cell_angle_beta	90.021644
_cell_angle_gamma	90.043738
loop_
_atom_site_label
_atom_site_type_symbol
_atom_site_fract_x
_atom_site_fract_y
_atom_site_fract_z
Zn1	Zn	-0.356234	-0.962356	0.250415
Zn2	Zn	-0.106234	-0.712356	0.500415
Zn3	Zn	0.143766	-0.462356	0.750415
Zn4	Zn	0.393766	-0.212356	1.000415
Zn5	Zn	-0.250959	-0.962258	0.355667
Zn6	Zn	-0.000959	-0.712258	0.605667
Zn7	Zn	0.249041	-0.462258	0.855667
Zn8	Zn	0.499041	-0.212258	1.105667
Zn9	Zn	-0.250943	-0.857079	0.250445
Zn10	Zn	-0.000943	-0.607079	0.500445
Zn11	Zn	0.249057	-0.357079	0.750445
Zn12	Zn	0.499057	-0.107079	1.000445
Zn13	Zn	-0.356155	-0.857048	0.355680
Zn14	Zn	-0.106155	-0.607048	0.605680
Zn15	Zn	0.143845	-0.357048	0.855680
Zn16	Zn	0.393845	-0.107048	1.105680
O17	O	-0.303573	-0.909685	0.303052
O18	O	-0.053573	-0.659685	0.553052
O19	O	0.196427	-0.409685	0.803052
O20	O	0.446427	-0.159685	1.053052
O21	O	-0.342308	-1.050432	0.264360
O22	O	-0.092308	-0.800432	0.514360
O23	O	0.157692	-0.550432	0.764360
O24	O	0.407692	-0.300432	1.014360
O25	O	-0.162867	-0.948278	0.341716
O26	O	0.087133	-0.698278	0.591716
O27	O	0.337133	-0.448278	0.841716
O28	O	0.587133	-0.198278	1.091716
O29	O	-0.264937	-0.871098	0.162351
O30	O	-0.014937	-0.621098	0.412351
O31	O	0.235063	-0.371098	0.662351
O32	O	0.485063	-0.121098	0.912351
O33	O	-0.264963	-1.050361	0.341688
O34	O	-0.014963	-0.800361	0.591688
O35	O	0.235037	-0.550361	0.841688
O36	O	0.485037	-0.300361	1.091688
O37	O	-0.342293	-0.948444	0.162330
O38	O	-0.092293	-0.698444	0.412330
O39	O	0.157707	-0.448444	0.662330
O40	O	0.407707	-0.198444	0.912330
O41	O	-0.162856	-0.871003	0.264410
O42	O	0.087144	-0.621003	0.514410
O43	O	0.337144	-0.371003	0.764410
O44	O	0.587144	-0.121003	1.014410
O45	O	-0.264861	-0.768985	0.264422
O46	O	-0.014861	-0.518985	0.514422
O47	O	0.235139	-0.268985	0.764422
O48	O	0.485139	-0.018985	1.014422
O49	O	-0.444255	-0.871046	0.341709
O50	O	-0.194255	-0.621046	0.591709
O51	O	0.055745	-0.371046	0.841709
O52	O	0.305745	-0.121046	1.091709
O53	O	-0.342160	-0.768963	0.341738
O54	O	-0.092160	-0.518963	0.591738
O55	O	0.157840	-0.268963	0.841738
O56	O	0.407840	-0.018963	1.091738
O57	O	-0.444313	-0.948415	0.264372
O58	O	-0.194313	-0.698415	0.514372
O59	O	0.055687	-0.448415	0.764372
O60	O	0.305687	-0.198415	1.014372
O61	O	-0.264887	-0.948248	0.443758
O62	O	-0.014887	-0.698248	0.693758
O63	O	0.235113	-0.448248	0.943758
O64	O	0.485113	-0.198248	1.193758
O65	O	-0.342175	-0.870951	0.443767
O66	O	-0.092175	-0.620951	0.693767
O67	O	0.157825	-0.370951	0.943767
O68	O	0.407825	-0.120951	1.193767
C69	C	-0.303500	-0.746134	0.303085
C70	C	-0.053500	-0.496134	0.553085
C71	C	0.196500	-0.246134	0.803085
C72	C	0.446500	0.003866	1.053085
C73	C	-0.303484	-0.676166	0.303114
C74	C	-0.053484	-0.426166	0.553114
C75	C	0.196516	-0.176166	0.803114
C76	C	0.446516	0.073834	1.053114
C77	C	-0.303538	-0.909603	0.466603
C78	C	-0.053538	-0.659603	0.716603
C79	C	0.196462	-0.409603	0.966603
C80	C	0.446462	-0.159603	1.216603
C81	C	-0.303544	-0.909625	0.536571
C82	C	-0.053544	-0.659625	0.786571
C83	C	0.196456	-0.409625	1.036571
C84	C	0.446456	-0.159625	1.286571
C85	C	-0.467763	-0.909738	0.303038
C86	C	-0.217763	-0.659738	0.553038
C87	C	0.032237	-0.409738	0.803038
C88	C	0.282237	-0.159738	1.053038
C89	C	-0.537731	-0.909760	0.303033
C90	C	-0.287731	-0.659760	0.553033
C91	C	-0.037731	-0.409760	0.803033
C92	C	0.212269	-0.159760	1.053033
C93	C	-0.570629	-0.950044	0.262761
C94	C	-0.320629	-0.700044	0.512761
C95	C	-0.070629	-0.450044	0.762761
C96	C	0.179371	-0.200044	1.012761
C97	C	-0.636371	-0.950043	0.262734
C98	C	-0.386371	-0.700043	0.512734
C99	C	-0.136371	-0.450043	0.762734
C100	C	0.113629	-0.200043	1.012734
C101	C	-0.669214	-0.909765	0.302989
C102	C	-0.419214	-0.659765	0.552989
C103	C	-0.169214	-0.409765	0.802989
C104	C	0.080786	-0.159765	1.052989
C105	C	-0.636308	-0.869473	0.343263
C106	C	-0.386308	-0.619473	0.593263
C107	C	-0.136308	-0.369473	0.843263
C108	C	0.113692	-0.119473	1.093263
C109	C	-0.570567	-0.869470	0.343285
C110	C	-0.320567	-0.619470	0.593285
C111	C	-0.070567	-0.369470	0.843285
C112	C	0.179433	-0.119470	1.093285
N113	N	-0.772428	-0.904908	0.358058
N114	N	-0.522428	-0.654908	0.608058
N115	N	-0.272428	-0.404908	0.858058
N116	N	-0.022428	-0.154908	1.108058
N117	N	-0.834879	-0.904914	0.358036
N118	N	-0.584879	-0.654914	0.608036
N119	N	-0.334879	-0.404914	0.858036
N120	N	-0.084879	-0.154914	1.108036
C121	C	-0.867289	-0.909769	0.302926
C122	C	-0.617289	-0.659769	0.552926
C123	C	-0.367289	-0.409769	0.802926
C124	C	-0.117289	-0.159769	1.052926
N125	N	-0.834888	-0.914629	0.247837
N126	N	-0.584888	-0.664629	0.497837
N127	N	-0.334888	-0.414629	0.747837
N128	N	-0.084888	-0.164629	0.997837
N129	N	-0.772430	-0.914627	0.247860
N130	N	-0.522430	-0.664627	0.497860
N131	N	-0.272430	-0.414627	0.747860
N132	N	-0.022430	-0.164627	0.997860
C133	C	-0.740499	-0.909763	0.302970
C134	C	-0.490499	-0.659763	0.552970
C135	C	-0.240499	-0.409763	0.802970
C136	C	0.009501	-0.159763	1.052970
C137	C	-0.971472	-0.950054	0.262621
C138	C	-0.721472	-0.700054	0.512621
C139	C	-0.471472	-0.450054	0.762621
C140	C	-0.221472	-0.200054	1.012621
C141	C	-1.037216	-0.950049	0.262593
C142	C	-0.787216	-0.700049	0.512593
C143	C	-0.537216	-0.450049	0.762593
C144	C	-0.287216	-0.200049	1.012593
C145	C	-1.037151	-0.869482	0.343128
C146	C	-0.787151	-0.619482	0.593128
C147	C	-0.537151	-0.369482	0.843128
C148	C	-0.287151	-0.119482	1.093128
C149	C	-0.971409	-0.869484	0.343151
C150	C	-0.721409	-0.619484	0.593151
C151	C	-0.471409	-0.369484	0.843151
C152	C	-0.221409	-0.119484	1.093151
C153	C	-0.938573	-0.909773	0.302898
C154	C	-0.688573	-0.659773	0.552898
C155	C	-0.438573	-0.409773	0.802898
C156	C	-0.188573	-0.159773	1.052898
C157	C	-0.140021	-0.909670	0.303019
C158	C	0.109979	-0.659670	0.553019
C159	C	0.359979	-0.409670	0.803019
C160	C	0.609979	-0.159670	1.053019
C161	C	-0.070054	-0.909769	0.302848
C162	C	0.179946	-0.659769	0.552848
C163	C	0.429946	-0.409769	0.802848
C164	C	0.679946	-0.159769	1.052848
C165	C	-0.303646	-1.073876	0.303019
C166	C	-0.053646	-0.823876	0.553019
C167	C	0.196354	-0.573876	0.803019
C168	C	0.446354	-0.323876	1.053019
C169	C	-0.303677	-1.143844	0.303005
C170	C	-0.053677	-0.893844	0.553005
C171	C	0.196323	-0.643844	0.803005
C172	C	0.446323	-0.393844	1.053005
C173	C	-0.343674	-0.643304	0.343426
C174	C	-0.093674	-0.393304	0.593426
C175	C	0.156326	-0.143304	0.843426
C176	C	0.406326	0.106696	1.093426
C177	C	-0.343702	-0.577561	0.343410
C178	C	-0.093702	-0.327561	0.593410
C179	C	0.156298	-0.077561	0.843410
C180	C	0.406298	0.172439	1.093410
C181	C	-0.303530	-0.544683	0.303090
C182	C	-0.053530	-0.294683	0.553090
C183	C	0.196470	-0.044683	0.803090
C184	C	0.446470	0.205317	1.053090
C185	C	-0.263337	-0.577553	0.262770
C186	C	-0.013337	-0.327553	0.512770
C187	C	0.236663	-0.077553	0.762770
C188	C	0.486663	0.172447	1.012770
C189	C	-0.263315	-0.643294	0.262783
C190	C	-0.013315	-0.393294	0.512783
C191	C	0.236685	-0.143294	0.762783
C192	C	0.486685	0.106706	1.012783
N193	N	-0.248472	-0.441407	0.298163
N194	N	0.001528	-0.191407	0.548163
N195	N	0.251528	0.058593	0.798163
N196	N	0.501528	0.308593	1.048163
N197	N	-0.248495	-0.378956	0.298155
N198	N	0.001505	-0.128956	0.548155
N199	N	0.251505	0.121044	0.798155
N200	N	0.501505	0.371044	1.048155
C201	C	-0.303596	-0.346608	0.303050
C202	C	-0.053596	-0.096608	0.553050
C203	C	0.196404	0.153392	0.803050
C204	C	0.446404	0.403392	1.053050
N205	N	-0.358675	-0.379072	0.307965
N206	N	-0.108675	-0.129072	0.557965
N207	N	0.141325	0.120928	0.807965
N208	N	0.391325	0.370928	1.057965
N209	N	-0.358650	-0.441529	0.307976
N210	N	-0.108650	-0.191529	0.557976
N211	N	0.141350	0.058471	0.807976
N212	N	0.391350	0.308471	1.057976
C213	C	-0.303550	-0.473398	0.303072
C214	C	-0.053550	-0.223398	0.553072
C215	C	0.196450	0.026602	0.803072
C216	C	0.446450	0.276602	1.053072
C217	C	-0.343820	-0.242461	0.343346
C218	C	-0.093820	0.007539	0.593346
C219	C	0.156180	0.257539	0.843346
C220	C	0.406180	0.507539	1.093346
C221	C	-0.343849	-0.176717	0.343326
C222	C	-0.093849	0.073283	0.593326
C223	C	0.156151	0.323283	0.843326
C224	C	0.406151	0.573283	1.093326
C225	C	-0.263479	-0.176710	0.262690
C226	C	-0.013479	0.073290	0.512690
C227	C	0.236521	0.323290	0.762690
C228	C	0.486521	0.573290	1.012690
C229	C	-0.263455	-0.242453	0.262707
C230	C	-0.013455	0.007547	0.512707
C231	C	0.236545	0.257547	0.762707
C232	C	0.486545	0.507547	1.012707
C233	C	-0.303625	-0.275324	0.303038
C234	C	-0.053625	-0.025324	0.553038
C235	C	0.196375	0.224676	0.803038
C236	C	0.446375	0.474676	1.053038
C237	C	-0.303622	-0.909785	0.138861
C238	C	-0.053622	-0.659785	0.388861
C239	C	0.196378	-0.409785	0.638861
C240	C	0.446378	-0.159785	0.888861
C241	C	-0.303642	-0.909828	0.068893
C242	C	-0.053642	-0.659828	0.318893
C243	C	0.196358	-0.409828	0.568893
C244	C	0.446358	-0.159828	0.818893
C245	C	-0.263342	-0.949910	0.569412
C246	C	-0.013342	-0.699910	0.819412
C247	C	0.236658	-0.449910	1.069412
C248	C	0.486658	-0.199910	1.319412
C249	C	-0.263356	-0.949939	0.635155
C250	C	-0.013356	-0.699939	0.885155
C251	C	0.236644	-0.449939	1.135155
C252	C	0.486644	-0.199939	1.385155
C253	C	-0.303566	-0.909673	0.668054
C254	C	-0.053566	-0.659673	0.918054
C255	C	0.196434	-0.409673	1.168054
C256	C	0.446434	-0.159673	1.418054
C257	C	-0.343776	-0.869386	0.635205
C258	C	-0.093776	-0.619386	0.885205
C259	C	0.156224	-0.369386	1.135205
C260	C	0.406224	-0.119386	1.385205
C261	C	-0.343765	-0.869362	0.569464
C262	C	-0.093765	-0.619362	0.819464
C263	C	0.156235	-0.369362	1.069464
C264	C	0.406235	-0.119362	1.319464
N265	N	-0.308340	-0.854606	0.771336
N266	N	-0.058340	-0.604606	1.021336
N267	N	0.191660	-0.354606	1.271336
N268	N	0.441660	-0.104606	1.521336
N269	N	-0.308347	-0.854630	0.833787
N270	N	-0.058347	-0.604630	1.083787
N271	N	0.191653	-0.354630	1.333787
N272	N	0.441653	-0.104630	1.583787
C273	C	-0.303602	-0.909743	0.866129
C274	C	-0.053602	-0.659743	1.116129
C275	C	0.196398	-0.409743	1.366129
C276	C	0.446398	-0.159743	1.616129
N277	N	-0.298838	-0.964832	0.833659
N278	N	-0.048838	-0.714832	1.083659
N279	N	0.201162	-0.464832	1.333659
N280	N	0.451162	-0.214832	1.583659
N281	N	-0.298828	-0.964807	0.771202
N282	N	-0.048828	-0.714807	1.021202
N283	N	0.201172	-0.464807	1.271202
N284	N	0.451172	-0.214807	1.521202
C285	C	-0.303582	-0.909695	0.739339
C286	C	-0.053582	-0.659695	0.989339
C287	C	0.196418	-0.409695	1.239339
C288	C	0.446418	-0.159695	1.489339
C289	C	-0.263413	-0.950063	0.970255
C290	C	-0.013413	-0.700063	1.220255
C291	C	0.236587	-0.450063	1.470255
C292	C	0.486587	-0.200063	1.720255
C293	C	-0.263431	-0.950094	1.035999
C294	C	-0.013431	-0.700094	1.285999
C295	C	0.236569	-0.450094	1.535999
C296	C	0.486569	-0.200094	1.785999
C297	C	-0.343848	-0.869535	1.036048
C298	C	-0.093848	-0.619535	1.286048
C299	C	0.156152	-0.369535	1.536048
C300	C	0.406152	-0.119535	1.786048
C301	C	-0.343833	-0.869510	0.970305
C302	C	-0.093833	-0.619510	1.220305
C303	C	0.156167	-0.369510	1.470305
C304	C	0.406167	-0.119510	1.720305
C305	C	-0.303612	-0.909773	0.937413
C306	C	-0.053612	-0.659773	1.187413
C307	C	0.196388	-0.409773	1.437413
C308	C	0.446388	-0.159773	1.687413
H309	H	-0.663162	-0.982846	0.229937
H310	H	-0.413162	-0.732846	0.479937
H311	H	-0.163162	-0.482846	0.729937
H312	H	0.086838	-0.232846	0.979937
O313	O	-0.387119	-0.825897	0.534042
O314	O	-0.137119	-0.575897	0.784042
O315	O	0.112881	-0.325897	1.034042
O316	O	0.362881	-0.075897	1.284042
H317	H	-0.436542	-0.836665	0.546621
H318	H	-0.186542	-0.586665	0.796621
H319	H	0.063458	-0.336665	1.046621
H320	H	0.313458	-0.086665	1.296621
H321	H	-0.230664	-0.982850	0.943473
H322	H	0.019336	-0.732850	1.193473
H323	H	0.269336	-0.482850	1.443473
H324	H	0.519336	-0.232850	1.693473
H325	H	-0.376431	-0.550800	0.376236
H326	H	-0.126431	-0.300800	0.626236
H327	H	0.123569	-0.050800	0.876236
H328	H	0.373569	0.199200	1.126236
O329	O	-0.535087	-0.826004	0.386714
O330	O	-0.285087	-0.576004	0.636714
O331	O	-0.035087	-0.326004	0.886714
O332	O	0.214913	-0.076004	1.136714
H333	H	-0.547705	-0.836759	0.436117
H334	H	-0.297705	-0.586759	0.686117
H335	H	-0.047705	-0.336759	0.936117
H336	H	0.202295	-0.086759	1.186117
O337	O	-0.220067	-0.993544	1.071425
O338	O	0.029933	-0.743544	1.321425
O339	O	0.279933	-0.493544	1.571425
O340	O	0.529933	-0.243544	1.821425
H341	H	-0.192095	-1.021531	1.037506
H342	H	0.057905	-0.771531	1.287506
H343	H	0.307905	-0.521531	1.537506
H344	H	0.557905	-0.271531	1.787506
H345	H	-0.376516	-0.836602	0.661996
H346	H	-0.126516	-0.586602	0.911996
H347	H	0.123484	-0.336602	1.161996
H348	H	0.373484	-0.086602	1.411996
H349	H	-0.663053	-0.836676	0.376038
H350	H	-0.413053	-0.586676	0.626038
H351	H	-0.163053	-0.336676	0.876038
H352	H	0.086947	-0.086676	1.126038
O353	O	-0.387215	-0.826100	1.071524
O354	O	-0.137215	-0.576100	1.321524
O355	O	0.112785	-0.326100	1.571524
O356	O	0.362785	-0.076100	1.821524
H357	H	-0.419279	-0.854268	1.101429
H358	H	-0.169279	-0.604268	1.351429
H359	H	0.080721	-0.354268	1.601429
H360	H	0.330721	-0.104268	1.851429
O361	O	-0.535211	-0.993495	0.219346
O362	O	-0.285211	-0.743495	0.469346
O363	O	-0.035211	-0.493495	0.719346
O364	O	0.214789	-0.243495	0.969346
H365	H	-0.569137	-1.021504	0.191335
H366	H	-0.319137	-0.771504	0.441335
H367	H	-0.069137	-0.521504	0.691335
H368	H	0.180863	-0.271504	0.941335
O369	O	-0.936048	-0.993499	0.219202
O370	O	-0.686048	-0.743499	0.469202
O371	O	-0.436048	-0.493499	0.719202
O372	O	-0.186048	-0.243499	0.969202
H373	H	-0.969972	-1.021504	0.191185
H374	H	-0.719972	-0.771504	0.441185
H375	H	-0.469972	-0.521504	0.691185
H376	H	-0.219972	-0.271504	0.941185
O377	O	-0.387192	-0.826054	0.934882
O378	O	-0.137192	-0.576054	1.184882
O379	O	0.112808	-0.326054	1.434882
O380	O	0.362808	-0.076054	1.684882
H381	H	-0.380433	-0.832805	0.883642
H382	H	-0.130433	-0.582805	1.133642
H383	H	0.119567	-0.332805	1.383642
H384	H	0.369567	-0.082805	1.633642
O385	O	-0.219964	-0.993340	0.533939
O386	O	0.030036	-0.743340	0.783939
O387	O	0.280036	-0.493340	1.033939
O388	O	0.530036	-0.243340	1.283939
H389	H	-0.226705	-0.986554	0.482707
H390	H	0.023295	-0.736554	0.732707
H391	H	0.273295	-0.486554	0.982707
H392	H	0.523295	-0.236554	1.232707
H393	H	-0.376384	-0.670063	0.376266
H394	H	-0.126384	-0.420063	0.626266
H395	H	0.123616	-0.170063	0.876266
H396	H	0.373616	0.079937	1.126266
O397	O	-1.072569	-0.826034	0.386542
O398	O	-0.822569	-0.576034	0.636542
O399	O	-0.572569	-0.326034	0.886542
O400	O	-0.322569	-0.076034	1.136542
H401	H	-1.038644	-0.798018	0.414547
H402	H	-0.788644	-0.548018	0.664547
H403	H	-0.538644	-0.298018	0.914547
H404	H	-0.288644	-0.048018	1.164547
O405	O	-0.219995	-0.993402	0.670575
O406	O	0.030005	-0.743402	0.920575
O407	O	0.280005	-0.493402	1.170575
O408	O	0.530005	-0.243402	1.420575
H409	H	-0.248219	-1.025431	0.700465
H410	H	0.001781	-0.775431	0.950465
H411	H	0.251781	-0.525431	1.200465
H412	H	0.501781	-0.275431	1.450465
H413	H	-0.230773	-0.149942	0.229857
H414	H	0.019227	0.100058	0.479857
H415	H	0.269227	0.350058	0.729857
H416	H	0.519227	0.600058	0.979857
H417	H	-0.944623	-0.836683	0.375948
H418	H	-0.694623	-0.586683	0.625948
H419	H	-0.444623	-0.336683	0.875948
H420	H	-0.194623	-0.086683	1.125948
O421	O	-1.072703	-0.993501	0.219157
O422	O	-0.822703	-0.743501	0.469157
O423	O	-0.572703	-0.493501	0.719157
O424	O	-0.322703	-0.243501	0.969157
H425	H	-1.038823	-1.021519	0.191177
H426	H	-0.788823	-0.771519	0.441177
H427	H	-0.538823	-0.521519	0.691177
H428	H	-0.288823	-0.271519	0.941177
H429	H	-0.230630	-0.550779	0.229940
H430	H	0.019370	-0.300779	0.479940
H431	H	0.269370	-0.050779	0.729940
H432	H	0.519370	0.199221	0.979940
H433	H	-0.230726	-0.269209	0.229884
H434	H	0.019274	-0.019209	0.479884
H435	H	0.269274	0.230791	0.729884
H436	H	0.519274	0.480791	0.979884
O437	O	-0.219954	-0.678745	0.219314
O438	O	0.030046	-0.428745	0.469314
O439	O	0.280046	-0.178745	0.719314
O440	O	0.530046	0.071255	0.969314
H441	H	-0.192019	-0.644841	0.191277
H442	H	0.057981	-0.394841	0.441277
H443	H	0.307981	-0.144841	0.691277
H444	H	0.557981	0.105159	0.941277
O445	O	-0.387153	-0.277929	0.386827
O446	O	-0.137153	-0.027929	0.636827
O447	O	0.112847	0.222071	0.886827
O448	O	0.362847	0.472071	1.136827
H449	H	-0.376285	-0.265253	0.436218
H450	H	-0.126285	-0.015253	0.686218
H451	H	0.123715	0.234747	0.936218
H452	H	0.373715	0.484747	1.186218
O453	O	-0.387115	-0.141268	0.386890
O454	O	-0.137115	0.108732	0.636890
O455	O	0.112885	0.358732	0.886890
O456	O	0.362885	0.608732	1.136890
H457	H	-0.415006	-0.175173	0.414970
H458	H	-0.165006	0.074827	0.664970
H459	H	0.084994	0.324827	0.914970
H460	H	0.334994	0.574827	1.164970
