data_functionalizedCrystal
_audit_creation_method	'MofGen! by Chris Wilmer'
_symmetry_space_group_name_H-M	'P1'
_symmetry_Int_Tables_number	1
_symmetry_cell_setting	triclinic
loop_
_symmetry_equiv_pos_as_xyz
  x,y,z
_cell_length_a	12.837942
_cell_length_b	16.109302
_cell_length_c	14.586319
_cell_angle_alpha	89.994552
_cell_angle_beta	89.996741
_cell_angle_gamma	89.145360
loop_
_atom_site_label
_atom_site_type_symbol
_atom_site_fract_x
_atom_site_fract_y
_atom_site_fract_z
O1	O	0.133244	1.113716	-0.076281
O2	O	0.633244	1.613716	0.423719
O3	O	0.149825	0.872971	-0.076274
O4	O	0.649825	1.372971	0.423726
O5	O	-0.009367	0.988005	-0.076272
O6	O	0.490633	1.488005	0.423728
O7	O	0.292435	0.998681	-0.076284
O8	O	0.792435	1.498681	0.423716
O9	O	-0.009369	0.987996	0.076209
O10	O	0.490631	1.487996	0.576209
O11	O	0.149822	0.872962	0.076207
O12	O	0.649822	1.372962	0.576207
O13	O	0.133242	1.113707	0.076199
O14	O	0.633242	1.613707	0.576199
Cu15	Cu	0.141532	0.993333	0.090126
Cu16	Cu	0.641532	1.493333	0.590126
Cu17	Cu	0.141535	0.993344	-0.090201
Cu18	Cu	0.641535	1.493344	0.409799
O19	O	0.292433	0.998672	0.076197
O20	O	0.792433	1.498672	0.576197
C21	C	0.149152	0.841938	-0.000033
C22	C	0.649152	1.341938	0.499967
C23	C	0.147138	0.749483	-0.000030
C24	C	0.647138	1.249483	0.499970
C25	C	0.142479	0.536767	0.083078
C26	C	0.642479	1.036767	0.583078
C27	C	0.140576	0.449896	0.083075
C28	C	0.640576	0.949896	0.583075
C29	C	0.140584	0.449917	-0.083168
C30	C	0.640584	0.949917	0.416832
C31	C	0.142480	0.536786	-0.083164
C32	C	0.642480	1.036786	0.416836
C33	C	0.143433	0.580209	-0.000038
C34	C	0.643433	1.080209	0.499962
C35	C	0.139633	0.406468	-0.000045
C36	C	0.639633	0.906468	0.499955
C37	C	0.137569	0.312278	-0.000049
C38	C	0.637569	0.812278	0.499951
C39	C	0.145495	0.674405	-0.000034
C40	C	0.645495	1.174405	0.499966
C41	C	-0.047987	0.984394	-0.000032
C42	C	0.452013	1.484394	0.499968
C43	C	-0.163061	0.973637	-0.000033
C44	C	0.336939	1.473637	0.499967
C45	C	-0.404062	1.102954	-0.000056
C46	C	0.095938	1.602954	0.499944
C47	C	-0.512185	1.092851	-0.000057
C48	C	-0.012185	1.592851	0.499943
C49	C	-0.487430	0.943328	-0.000044
C50	C	0.012570	1.443328	0.499956
C51	C	-0.379308	0.953431	-0.000042
C52	C	0.120692	1.453431	0.499958
C53	C	-0.337628	1.033247	-0.000047
C54	C	0.162372	1.533247	0.499953
C55	C	-0.229504	1.043349	-0.000039
C56	C	0.270496	1.543349	0.499961
C57	C	-0.204751	0.893827	-0.000032
C58	C	0.295249	1.393827	0.499968
C59	C	-0.312873	0.883724	-0.000033
C60	C	0.187127	1.383724	0.499967
C61	C	0.331054	1.002284	-0.000045
C62	C	0.831054	1.502284	0.499955
C63	C	0.446127	1.013040	-0.000050
C64	C	0.946127	1.513040	0.499950
N65	N	0.141529	0.993332	0.216957
N66	N	0.641529	1.493332	0.716957
C67	C	0.133914	1.144739	-0.000044
C68	C	0.633914	1.644739	0.499956
C69	C	0.135929	1.237195	-0.000053
C70	C	0.635929	1.737195	0.499947
N71	N	0.141529	0.993352	-0.217032
N72	N	0.641529	1.493352	0.282968
C73	C	0.071063	1.044290	0.451965
C74	C	0.571063	1.544290	0.951965
C75	C	0.071060	1.044292	0.547946
C76	C	0.571060	1.544292	1.047946
C77	C	0.211999	0.942388	0.547954
C78	C	0.711999	1.442388	1.047954
C79	C	0.211995	0.942382	0.451974
C80	C	0.711995	1.442382	0.951974
C81	C	0.141529	0.993338	0.403982
C82	C	0.641529	1.493338	0.903982
C83	C	0.141529	0.993346	0.595943
C84	C	0.641529	1.493346	1.095943
C85	C	0.141527	0.993348	0.700010
C86	C	0.641527	1.493348	1.200010
C87	C	0.141529	0.993335	0.299908
C88	C	0.641529	1.493335	0.799908
H89	H	0.139809	0.414551	-0.150846
H90	H	0.639809	0.914551	0.349154
O91	O	0.143451	0.578862	-0.163990
O92	O	0.643451	1.078862	0.336010
C93	C	0.143195	0.569724	-0.328881
C94	C	0.643195	1.069724	0.171119
C95	C	0.142123	0.521970	-0.237419
C96	C	0.642123	1.021970	0.262581
H97	H	0.142100	0.523749	-0.388272
H98	H	0.642100	1.023749	0.111728
H99	H	0.216599	0.608507	-0.333097
H100	H	0.716599	1.108507	0.166903
H101	H	0.071599	0.612283	-0.332981
H102	H	0.571599	1.112283	0.167019
H103	H	0.213669	0.479368	-0.233258
H104	H	0.713669	0.979368	0.266742
H105	H	0.068672	0.483241	-0.233241
H106	H	0.568672	0.983241	0.266759
H107	H	0.013679	1.085780	0.587011
H108	H	0.513679	1.585780	1.087011
H109	H	0.139800	0.414529	0.150757
H110	H	0.639800	0.914529	0.650757
H111	H	0.143255	0.572119	0.150765
H112	H	0.643255	1.072119	0.650765
H113	H	-0.195570	1.108339	-0.000040
H114	H	0.304430	1.608339	0.499960
H115	H	-0.566273	1.149614	-0.000068
H116	H	-0.066273	1.649614	0.499932
H117	H	0.013683	1.085779	0.412892
H118	H	0.513683	1.585779	0.912892
H119	H	-0.370127	1.167943	-0.000051
H120	H	0.129873	1.667943	0.499949
O121	O	-0.528101	0.865861	-0.000001
O122	O	-0.028101	1.365861	0.499999
C123	C	-0.683707	0.784040	-0.000061
C124	C	-0.183707	1.284040	0.499939
C125	C	-0.637787	0.871819	-0.000089
C126	C	-0.137787	1.371819	0.499911
H127	H	-0.772393	0.788827	-0.000153
H128	H	-0.272393	1.288827	0.499847
H129	H	-0.656434	0.749138	0.063772
H130	H	-0.156434	1.249138	0.563772
H131	H	-0.656276	0.749165	-0.063854
H132	H	-0.156276	1.249165	0.436146
H133	H	-0.665197	0.906763	0.063661
H134	H	-0.165197	1.406763	0.563661
H135	H	-0.665054	0.906658	-0.063964
H136	H	-0.165054	1.406658	0.436036
O137	O	0.280355	0.892912	0.405216
O138	O	0.780355	1.392912	0.905216
C139	C	0.342852	0.847787	0.257353
C140	C	0.842852	1.347787	0.757353
C141	C	0.265370	0.903835	0.310192
C142	C	0.765370	1.403835	0.810192
H143	H	0.330779	0.856613	0.180517
H144	H	0.830779	1.356613	0.680517
H145	H	0.329327	0.780109	0.276165
H146	H	0.829327	1.280109	0.776165
H147	H	0.425873	0.865191	0.276268
H148	H	0.925873	1.365191	0.776268
H149	H	0.182320	0.886505	0.291305
H150	H	0.682320	1.386505	0.791305
H151	H	0.278987	0.971500	0.291376
H152	H	0.778987	1.471500	0.791376
H153	H	-0.346824	0.818741	-0.000033
H154	H	0.153176	1.318741	0.499967
O155	O	-0.140174	0.826133	-0.000188
O156	O	0.359826	1.326133	0.499812
C157	C	-0.003684	0.750785	-0.079141
C158	C	0.496316	1.250785	0.420859
C159	C	-0.076772	0.827471	-0.079093
C160	C	0.423228	1.327471	0.420907
H161	H	0.047611	0.751851	-0.142918
H162	H	0.547611	1.251851	0.357082
H163	H	-0.052002	0.691980	-0.079196
H164	H	0.447998	1.191980	0.420804
H165	H	0.047498	0.751781	-0.015296
H166	H	0.547498	1.251781	0.484704
H167	H	-0.127969	0.826555	-0.142927
H168	H	0.372031	1.326555	0.357073
H169	H	-0.028392	0.886242	-0.078989
H170	H	0.471608	1.386242	0.421011
O171	O	0.280414	0.892976	0.594717
O172	O	0.780414	1.392976	1.094717
C173	C	0.342846	0.847790	0.742581
C174	C	0.842846	1.347790	1.242581
C175	C	0.265322	0.903802	0.689740
C176	C	0.765322	1.403802	1.189740
H177	H	0.330657	0.856510	0.819416
H178	H	0.830657	1.356510	1.319416
H179	H	0.425898	0.865202	0.723767
H180	H	0.925898	1.365202	1.223767
H181	H	0.329327	0.780137	0.723670
H182	H	0.829327	1.280137	1.223670
H183	H	0.278746	0.971471	0.708622
H184	H	0.778746	1.471471	1.208622
H185	H	0.182297	0.886319	0.708559
H186	H	0.682297	1.386319	1.208559
