data_functionalizedCrystal
_audit_creation_method	'MofGen! by Chris Wilmer'
_symmetry_space_group_name_H-M	'P1'
_symmetry_Int_Tables_number	1
_symmetry_cell_setting	triclinic
loop_
_symmetry_equiv_pos_as_xyz
  x,y,z
_cell_length_a	18.050591
_cell_length_b	18.050589
_cell_length_c	18.215399
_cell_angle_alpha	89.973988
_cell_angle_beta	89.978472
_cell_angle_gamma	90.024669
loop_
_atom_site_label
_atom_site_type_symbol
_atom_site_fract_x
_atom_site_fract_y
_atom_site_fract_z
Zn1	Zn	1.135306	-0.295720	-0.416230
Zn2	Zn	1.385306	-0.045720	-0.166230
Zn3	Zn	1.635306	0.204280	0.083770
Zn4	Zn	1.885306	0.454280	0.333770
Zn5	Zn	1.135212	-0.419920	-0.293173
Zn6	Zn	1.385212	-0.169920	-0.043173
Zn7	Zn	1.635212	0.080080	0.206827
Zn8	Zn	1.885212	0.330080	0.456827
Zn9	Zn	1.011121	-0.295741	-0.293168
Zn10	Zn	1.261121	-0.045741	-0.043168
Zn11	Zn	1.511121	0.204259	0.206832
Zn12	Zn	1.761121	0.454259	0.456832
Zn13	Zn	1.011073	-0.419865	-0.416188
Zn14	Zn	1.261073	-0.169865	-0.166188
Zn15	Zn	1.511073	0.080135	0.083812
Zn16	Zn	1.761073	0.330135	0.333812
O17	O	1.073178	-0.357811	-0.354690
O18	O	1.323178	-0.107811	-0.104690
O19	O	1.573178	0.142189	0.145310
O20	O	1.823178	0.392189	0.395310
O21	O	1.239218	-0.312210	-0.399927
O22	O	1.489218	-0.062210	-0.149927
O23	O	1.739218	0.187790	0.100073
O24	O	1.989218	0.437790	0.350073
O25	O	1.118733	-0.403479	-0.190188
O26	O	1.368733	-0.153479	0.059812
O27	O	1.618733	0.096521	0.309812
O28	O	1.868733	0.346521	0.559812
O29	O	1.027653	-0.191813	-0.309507
O30	O	1.277653	0.058187	-0.059507
O31	O	1.527653	0.308187	0.190493
O32	O	1.777653	0.558187	0.440493
O33	O	1.239149	-0.403459	-0.309517
O34	O	1.489149	-0.153459	-0.059517
O35	O	1.739149	0.096541	0.190483
O36	O	1.989149	0.346541	0.440483
O37	O	1.118891	-0.191798	-0.399921
O38	O	1.368891	0.058202	-0.149921
O39	O	1.618891	0.308202	0.100079
O40	O	1.868891	0.558202	0.350079
O41	O	1.027563	-0.312245	-0.190184
O42	O	1.277563	-0.062245	0.059816
O43	O	1.527563	0.187755	0.309816
O44	O	1.777563	0.437755	0.559816
O45	O	0.907190	-0.312192	-0.309467
O46	O	1.157190	-0.062192	-0.059467
O47	O	1.407190	0.187808	0.190533
O48	O	1.657190	0.437808	0.440533
O49	O	1.027571	-0.403365	-0.519178
O50	O	1.277571	-0.153365	-0.269178
O51	O	1.527571	0.096635	-0.019178
O52	O	1.777571	0.346635	0.230822
O53	O	0.907155	-0.403385	-0.399849
O54	O	1.157155	-0.153385	-0.149849
O55	O	1.407155	0.096615	0.100151
O56	O	1.657155	0.346615	0.350151
O57	O	1.118845	-0.312156	-0.519209
O58	O	1.368845	-0.062156	-0.269209
O59	O	1.618845	0.187844	-0.019209
O60	O	1.868845	0.437844	0.230791
O61	O	1.118686	-0.523837	-0.309476
O62	O	1.368686	-0.273837	-0.059476
O63	O	1.618686	-0.023837	0.190524
O64	O	1.868686	0.226163	0.440524
O65	O	1.027481	-0.523797	-0.399855
O66	O	1.277481	-0.273797	-0.149855
O67	O	1.527481	-0.023797	0.100145
O68	O	1.777481	0.226203	0.350145
C69	C	0.880226	-0.357785	-0.354653
C70	C	1.130226	-0.107785	-0.104653
C71	C	1.380226	0.142215	0.145347
C72	C	1.630226	0.392215	0.395347
C73	C	0.797680	-0.357792	-0.354655
C74	C	1.047680	-0.107792	-0.104655
C75	C	1.297680	0.142208	0.145345
C76	C	1.547680	0.392208	0.395345
C77	C	0.548852	-0.308149	-0.305621
C78	C	0.798852	-0.058149	-0.055621
C79	C	1.048852	0.191851	0.194379
C80	C	1.298852	0.441851	0.444379
C81	C	0.598286	-0.290059	-0.372783
C82	C	0.848286	-0.040059	-0.122783
C83	C	1.098286	0.209941	0.127217
C84	C	1.348286	0.459941	0.377217
C85	C	0.500560	-0.357830	-0.354715
C86	C	0.750560	-0.107830	-0.104715
C87	C	1.000560	0.142170	0.145285
C88	C	1.250560	0.392170	0.395285
C89	C	0.598207	-0.375866	-0.287528
C90	C	0.848207	-0.125866	-0.037528
C91	C	1.098207	0.124134	0.212472
C92	C	1.348207	0.374134	0.462472
C93	C	0.646545	-0.357809	-0.354682
C94	C	0.896545	-0.107809	-0.104682
C95	C	1.146545	0.142191	0.145318
C96	C	1.396545	0.392191	0.395318
C97	C	0.548906	-0.339705	-0.421912
C98	C	0.798906	-0.089705	-0.171912
C99	C	1.048906	0.160295	0.078088
C100	C	1.298906	0.410295	0.328088
C101	C	0.548823	-0.425543	-0.336612
C102	C	0.798823	-0.175543	-0.086612
C103	C	1.048823	0.074457	0.163388
C104	C	1.298823	0.324457	0.413388
C105	C	0.598235	-0.407479	-0.403820
C106	C	0.848235	-0.157479	-0.153820
C107	C	1.098235	0.092521	0.096180
C108	C	1.348235	0.342521	0.346180
C109	C	0.416461	-0.357840	-0.354733
C110	C	0.666461	-0.107840	-0.104733
C111	C	0.916461	0.142160	0.145267
C112	C	1.166461	0.392160	0.395267
C113	C	0.730641	-0.357799	-0.354671
C114	C	0.980641	-0.107799	-0.104671
C115	C	1.230641	0.142201	0.145329
C116	C	1.480641	0.392201	0.395329
C117	C	1.073088	-0.550763	-0.354678
C118	C	1.323088	-0.300763	-0.104678
C119	C	1.573088	-0.050763	0.145322
C120	C	1.823088	0.199237	0.395322
C121	C	1.073118	-0.633309	-0.354697
C122	C	1.323118	-0.383309	-0.104697
C123	C	1.573118	-0.133309	0.145303
C124	C	1.823118	0.116691	0.395303
C125	C	1.023569	-0.832765	-0.403828
C126	C	1.273569	-0.582765	-0.153828
C127	C	1.523569	-0.332765	0.096172
C128	C	1.773569	-0.082765	0.346172
C129	C	1.005469	-0.882207	-0.336672
C130	C	1.255469	-0.632207	-0.086672
C131	C	1.505469	-0.382207	0.163328
C132	C	1.755469	-0.132207	0.413328
C133	C	1.073191	-0.784440	-0.354707
C134	C	1.323191	-0.534440	-0.104707
C135	C	1.573191	-0.284440	0.145293
C136	C	1.823191	-0.034440	0.395293
C137	C	1.091327	-0.882079	-0.421870
C138	C	1.341327	-0.632079	-0.171870
C139	C	1.591327	-0.382079	0.078130
C140	C	1.841327	-0.132079	0.328130
C141	C	1.073260	-0.930425	-0.354722
C142	C	1.323260	-0.680425	-0.104722
C143	C	1.573260	-0.430425	0.145278
C144	C	1.823260	-0.180425	0.395278
C145	C	1.055055	-0.832794	-0.287515
C146	C	1.305055	-0.582794	-0.037515
C147	C	1.555055	-0.332794	0.212485
C148	C	1.805055	-0.082794	0.462485
C149	C	1.140944	-0.832662	-0.372759
C150	C	1.390944	-0.582662	-0.122759
C151	C	1.640944	-0.332662	0.127241
C152	C	1.890944	-0.082662	0.377241
C153	C	1.122870	-0.882082	-0.305557
C154	C	1.372870	-0.632082	-0.055557
C155	C	1.622870	-0.382082	0.194443
C156	C	1.872870	-0.132082	0.444443
C157	C	1.073149	-0.700341	-0.354699
C158	C	1.323149	-0.450341	-0.104699
C159	C	1.573149	-0.200341	0.145301
C160	C	1.823149	0.049659	0.395301
C161	C	1.073302	-1.014521	-0.354722
C162	C	1.323302	-0.764521	-0.104722
C163	C	1.573302	-0.514521	0.145278
C164	C	1.823302	-0.264521	0.395278
C165	C	1.266883	-0.357838	-0.354727
C166	C	1.516883	-0.107838	-0.104727
C167	C	1.766883	0.142162	0.145273
C168	C	2.016883	0.392162	0.395273
C169	C	1.349429	-0.357850	-0.354743
C170	C	1.599429	-0.107850	-0.104743
C171	C	1.849429	0.142150	0.145257
C172	C	2.099429	0.392150	0.395257
C173	C	1.073213	-0.357752	-0.546643
C174	C	1.323213	-0.107752	-0.296643
C175	C	1.573213	0.142248	-0.046643
C176	C	1.823213	0.392248	0.203357
C177	C	1.073228	-0.357727	-0.628442
C178	C	1.323228	-0.107727	-0.378442
C179	C	1.573228	0.142273	-0.128442
C180	C	1.823228	0.392273	0.121558
C181	C	1.073288	-0.164106	-0.354718
C182	C	1.323288	0.085894	-0.104718
C183	C	1.573288	0.335894	0.145282
C184	C	1.823288	0.585894	0.395282
C185	C	1.073335	-0.081560	-0.354730
C186	C	1.323335	0.168440	-0.104730
C187	C	1.573335	0.418440	0.145270
C188	C	1.823335	0.668440	0.395270
C189	C	1.025796	-0.310189	-0.816635
C190	C	1.275796	-0.060189	-0.566635
C191	C	1.525796	0.189811	-0.316635
C192	C	1.775796	0.439811	-0.066635
C193	C	1.025809	-0.310174	-0.893493
C194	C	1.275809	-0.060174	-0.643493
C195	C	1.525809	0.189826	-0.393493
C196	C	1.775809	0.439826	-0.143493
C197	C	1.120749	-0.405176	-0.893487
C198	C	1.370749	-0.155176	-0.643487
C199	C	1.620749	0.094824	-0.393487
C200	C	1.870749	0.344824	-0.143487
C201	C	1.120731	-0.405194	-0.816630
C202	C	1.370731	-0.155194	-0.566630
C203	C	1.620731	0.094806	-0.316630
C204	C	1.870731	0.344806	-0.066630
C205	C	1.073256	-0.357696	-0.778205
C206	C	1.323256	-0.107696	-0.528205
C207	C	1.573256	0.142304	-0.278205
C208	C	1.823256	0.392304	-0.028205
C209	C	1.073286	-0.357663	-0.931922
C210	C	1.323286	-0.107663	-0.681922
C211	C	1.573286	0.142337	-0.431922
C212	C	1.823286	0.392337	-0.181922
C213	C	1.073301	-0.357647	-1.015255
C214	C	1.323301	-0.107647	-0.765255
C215	C	1.573301	0.142353	-0.515255
C216	C	1.823301	0.392353	-0.265255
C217	C	1.073241	-0.357713	-0.694866
C218	C	1.323241	-0.107713	-0.444866
C219	C	1.573241	0.142287	-0.194866
C220	C	1.823241	0.392287	0.055134
C221	C	1.073186	-0.357817	-0.163484
C222	C	1.323186	-0.107817	0.086516
C223	C	1.573186	0.142183	0.336516
C224	C	1.823186	0.392183	0.586516
C225	C	1.073315	-0.357633	-0.081685
C226	C	1.323315	-0.107633	0.168315
C227	C	1.573315	0.142367	0.418315
C228	C	1.823315	0.392367	0.668315
H229	H	0.619780	-0.449483	-0.445371
H230	H	0.869780	-0.199483	-0.195371
H231	H	1.119780	0.050517	0.054629
H232	H	1.369780	0.300517	0.304629
Cl233	Cl	1.114968	-0.915507	-0.509553
Cl234	Cl	1.364968	-0.665507	-0.259553
Cl235	Cl	1.614968	-0.415507	-0.009553
Cl236	Cl	1.864968	-0.165507	0.240447
Cl237	Cl	0.966110	-0.250481	-0.768332
Cl238	Cl	1.216110	-0.000481	-0.518332
Cl239	Cl	1.466110	0.249519	-0.268332
Cl240	Cl	1.716110	0.499519	-0.018332
H241	H	0.619999	-0.232784	-0.388094
H242	H	0.869999	0.017216	-0.138094
H243	H	1.119999	0.267216	0.111906
H244	H	1.369999	0.517216	0.361906
Cl245	Cl	0.917053	-0.915805	-0.313100
Cl246	Cl	1.167053	-0.665805	-0.063100
Cl247	Cl	1.417053	-0.415805	0.186900
Cl248	Cl	1.667053	-0.165805	0.436900
Cl249	Cl	1.031313	-0.799513	-0.199806
Cl250	Cl	1.281313	-0.549513	0.050194
Cl251	Cl	1.531313	-0.299513	0.300194
Cl252	Cl	1.781313	-0.049513	0.550194
Cl253	Cl	0.515615	-0.316033	-0.509642
Cl254	Cl	0.765615	-0.066033	-0.259642
Cl255	Cl	1.015615	0.183967	-0.009642
Cl256	Cl	1.265615	0.433967	0.240358
Cl257	Cl	0.631646	-0.399434	-0.199826
Cl258	Cl	0.881646	-0.149434	0.050174
Cl259	Cl	1.131646	0.100566	0.300174
Cl260	Cl	1.381646	0.350566	0.550174
H261	H	0.987162	-0.271490	-0.924779
H262	H	1.237162	-0.021490	-0.674779
H263	H	1.487162	0.228510	-0.424779
H264	H	1.737162	0.478510	-0.174779
Cl265	Cl	1.180430	-0.464881	-0.941797
Cl266	Cl	1.430430	-0.214881	-0.691797
Cl267	Cl	1.680430	0.035119	-0.441797
Cl268	Cl	1.930430	0.285119	-0.191797
H269	H	0.527081	-0.482799	-0.321290
H270	H	0.777081	-0.232799	-0.071290
H271	H	1.027081	0.017201	0.178710
H272	H	1.277081	0.267201	0.428710
H273	H	0.981544	-0.811109	-0.445309
H274	H	1.231544	-0.561109	-0.195309
H275	H	1.481544	-0.311109	0.054691
H276	H	1.731544	-0.061109	0.304691
H277	H	1.164863	-0.903600	-0.263975
H278	H	1.414863	-0.653600	-0.013975
H279	H	1.664863	-0.403600	0.236025
H280	H	1.914863	-0.153600	0.486025
H281	H	1.159381	-0.443883	-0.785340
H282	H	1.409381	-0.193883	-0.535340
H283	H	1.659381	0.056117	-0.285340
H284	H	1.909381	0.306117	-0.035340
H285	H	0.527171	-0.266113	-0.264169
H286	H	0.777171	-0.016113	-0.014169
H287	H	1.027171	0.233887	0.235831
H288	H	1.277171	0.483887	0.485831
Cl289	Cl	1.229337	-0.799037	-0.396361
Cl290	Cl	1.479337	-0.549037	-0.146361
Cl291	Cl	1.729337	-0.299037	0.103639
Cl292	Cl	1.979337	-0.049037	0.353639
