data_functionalizedCrystal
_audit_creation_method	'MofGen! by Chris Wilmer'
_symmetry_space_group_name_H-M	'P1'
_symmetry_Int_Tables_number	1
_symmetry_cell_setting	triclinic
loop_
_symmetry_equiv_pos_as_xyz
  x,y,z
_cell_length_a	17.038272
_cell_length_b	16.098538
_cell_length_c	17.038272
_cell_angle_alpha	92.920305
_cell_angle_beta	88.888444
_cell_angle_gamma	92.930266
loop_
_atom_site_label
_atom_site_type_symbol
_atom_site_fract_x
_atom_site_fract_y
_atom_site_fract_z
O1	O	1.052033	0.069152	-0.167266
O2	O	1.552033	0.569152	0.332734
O3	O	0.824222	0.069177	-0.164557
O4	O	1.324222	0.569177	0.335443
O5	O	0.936773	0.069158	-0.052006
O6	O	1.436773	0.569158	0.447994
O7	O	0.939482	0.069171	-0.279817
O8	O	1.439482	0.569171	0.220183
O9	O	0.930197	-0.069354	-0.058553
O10	O	1.430197	0.430646	0.441447
O11	O	0.817646	-0.069335	-0.171104
O12	O	1.317646	0.430665	0.328896
O13	O	1.045456	-0.069359	-0.173813
O14	O	1.545456	0.430641	0.326187
Zn15	Zn	0.930507	-0.091339	-0.173498
Zn16	Zn	1.430507	0.408661	0.326502
Zn17	Zn	0.939172	0.091156	-0.164872
Zn18	Zn	1.439172	0.591156	0.335128
O19	O	0.932905	-0.069341	-0.286364
O20	O	1.432905	0.430659	0.213636
C21	C	0.791641	-0.000076	-0.165367
C22	C	1.291641	0.499924	0.334633
C23	C	0.704358	-0.000067	-0.158019
C24	C	1.204358	0.499933	0.341981
N25	N	0.924599	-0.215887	-0.179385
N26	N	1.424599	0.284113	0.320615
C27	C	0.658749	-0.000064	-0.225482
C28	C	1.158749	0.499936	0.274518
C29	C	0.576737	-0.000075	-0.218574
C30	C	1.076737	0.499925	0.281426
C31	C	0.540335	-0.000085	-0.144201
C32	C	1.040335	0.499915	0.355799
C33	C	0.585950	-0.000090	-0.076733
C34	C	1.085950	0.499910	0.423267
C35	C	0.667961	-0.000084	-0.083642
C36	C	1.167961	0.499916	0.416358
C37	C	0.292946	-0.000108	-0.119792
C38	C	0.792946	0.499892	0.380208
C39	C	0.210929	-0.000112	-0.112887
C40	C	0.710929	0.499888	0.387113
C41	C	0.201722	-0.000098	-0.254729
C42	C	0.701722	0.499902	0.245271
C43	C	0.283734	-0.000088	-0.261632
C44	C	0.783734	0.499912	0.238368
C45	C	0.329342	-0.000098	-0.194164
C46	C	0.829342	0.499902	0.305836
C47	C	0.456505	-0.000094	-0.137138
C48	C	0.956505	0.499906	0.362862
C49	C	0.413170	-0.000094	-0.201228
C50	C	0.913170	0.499906	0.298772
C51	C	0.972390	-0.259480	-0.131633
C52	C	1.472390	0.240520	0.368367
C53	C	0.968265	-0.346668	-0.135759
C54	C	1.468265	0.153332	0.364241
C55	C	0.916352	-0.390262	-0.187642
C56	C	1.416352	0.109738	0.312358
C57	C	0.868556	-0.346663	-0.235395
C58	C	1.368556	0.153337	0.264605
C59	C	0.872678	-0.259476	-0.231265
C60	C	1.372678	0.240524	0.268735
C61	C	0.901410	-0.653510	-0.202602
C62	C	1.401410	-0.153510	0.297398
C63	C	0.897294	-0.740702	-0.206731
C64	C	1.397294	-0.240702	0.293269
C65	C	0.997003	-0.740702	-0.107093
C66	C	1.497003	-0.240702	0.392907
C67	C	1.001123	-0.653513	-0.102971
C68	C	1.501123	-0.153513	0.397029
C69	C	0.953324	-0.609922	-0.150721
C70	C	1.453324	-0.109922	0.349279
C71	C	0.912136	-0.479383	-0.191862
C72	C	1.412136	0.020617	0.308138
C73	C	0.957536	-0.520803	-0.146496
C74	C	1.457536	-0.020803	0.353504
C75	C	1.078037	-0.000105	-0.173002
C76	C	1.578037	0.499895	0.326998
C77	C	1.165320	-0.000108	-0.180351
C78	C	1.665320	0.499892	0.319649
C79	C	0.931022	-0.000097	-0.025987
C80	C	1.431022	0.499903	0.474013
C81	C	0.923674	-0.000096	0.061297
C82	C	1.423674	0.499904	0.561297
N83	N	0.945085	0.215705	-0.158979
N84	N	1.445085	0.715705	0.341021
C85	C	0.938656	-0.000083	-0.312383
C86	C	1.438656	0.499917	0.187617
C87	C	0.946005	-0.000079	-0.399666
C88	C	1.446005	0.499921	0.100334
C89	C	0.991137	-0.000104	0.106906
C90	C	1.491137	0.499896	0.606906
C91	C	0.984229	-0.000096	0.188918
C92	C	1.484229	0.499904	0.688918
C93	C	0.909856	-0.000085	0.225320
C94	C	1.409856	0.499915	0.725320
C95	C	0.842388	-0.000074	0.179705
C96	C	1.342388	0.499926	0.679705
C97	C	0.849297	-0.000077	0.097694
C98	C	1.349297	0.499923	0.597694
C99	C	0.885446	-0.000071	0.472708
C100	C	1.385446	0.499929	0.972708
C101	C	0.878541	-0.000071	0.554725
C102	C	1.378541	0.499929	1.054725
C103	C	1.020383	-0.000091	0.563932
C104	C	1.520383	0.499909	1.063932
C105	C	1.027286	-0.000098	0.481920
C106	C	1.527286	0.499902	0.981920
C107	C	0.959818	-0.000083	0.436312
C108	C	1.459818	0.499917	0.936312
C109	C	0.902792	-0.000079	0.309149
C110	C	1.402792	0.499921	0.809149
C111	C	0.966882	-0.000084	0.352485
C112	C	1.466882	0.499916	0.852485
H113	H	0.688381	-0.000056	-0.286045
H114	H	1.188381	0.499944	0.213955
H115	H	0.705095	-0.000086	-0.028706
H116	H	1.205095	0.499914	0.471294
H117	H	1.087848	-0.000107	0.452287
H118	H	1.587848	0.499893	0.952287
H119	H	0.826283	-0.382162	-0.277636
H120	H	1.326283	0.117838	0.222364
H121	H	1.007180	-0.382161	-0.096876
H122	H	1.507180	0.117839	0.403124
H123	H	1.043394	-0.618021	-0.060724
H124	H	1.543394	-0.118021	0.439276
H125	H	0.862492	-0.618024	-0.241484
H126	H	1.362492	-0.118024	0.258516
H127	H	0.999800	-0.485307	-0.104250
H128	H	1.499800	0.014693	0.395750
H129	H	0.869870	-0.514884	-0.234107
H130	H	1.369870	-0.014884	0.265893
H131	H	0.833760	-0.223984	-0.270148
H132	H	1.333760	0.276016	0.229852
H133	H	1.075312	-0.000101	0.601075
H134	H	1.575312	0.499899	1.101075
H135	H	0.330070	-0.000117	-0.064854
H136	H	0.830070	0.499883	0.435146
H137	H	0.781832	-0.000060	0.209350
H138	H	1.281832	0.499940	0.709350
H139	H	0.426857	-0.000125	-0.076584
H140	H	0.926857	0.499875	0.423416
H141	H	0.539605	-0.000072	-0.273510
H142	H	1.039605	0.499928	0.226490
H143	H	1.051699	-0.000118	0.077274
H144	H	1.551699	0.499882	0.577274
H145	H	1.039165	-0.000104	0.226050
H146	H	1.539165	0.499896	0.726050
H147	H	0.817975	-0.000075	0.584359
H148	H	1.317975	0.499925	1.084359
H149	H	0.794361	-0.000070	0.060560
H150	H	1.294361	0.499930	0.560560
H151	H	0.181294	-0.000118	-0.052321
H152	H	0.681294	0.499882	0.447679
H153	H	0.830508	-0.000059	0.435584
H154	H	1.330508	0.499941	0.935584
H155	H	1.027437	-0.000074	0.322844
H156	H	1.527437	0.499926	0.822844
H157	H	0.313367	-0.000070	-0.322194
H158	H	0.813367	0.499930	0.177806
H159	H	0.164579	-0.000092	-0.309658
H160	H	0.664579	0.499908	0.190342
H161	H	0.842238	-0.000072	0.338796
H162	H	1.342238	0.499928	0.838796
H163	H	0.556305	-0.000110	-0.016177
H164	H	1.056305	0.499890	0.483823
H165	H	0.442811	-0.000091	-0.261782
H166	H	0.942811	0.499909	0.238218
H167	H	1.014666	-0.223992	-0.089389
H168	H	1.514666	0.276008	0.410611
H169	H	0.855019	-0.776192	-0.248983
H170	H	1.355019	-0.276192	0.251017
H171	H	1.035918	-0.776202	-0.068216
H172	H	1.535918	-0.276202	0.431784
