data_functionalizedCrystal
_audit_creation_method	'MofGen! by Chris Wilmer'
_symmetry_space_group_name_H-M	'P1'
_symmetry_Int_Tables_number	1
_symmetry_cell_setting	triclinic
loop_
_symmetry_equiv_pos_as_xyz
  x,y,z
_cell_length_a	16.120530
_cell_length_b	16.959454
_cell_length_c	16.959447
_cell_angle_alpha	89.973264
_cell_angle_beta	87.087433
_cell_angle_gamma	87.115788
loop_
_atom_site_label
_atom_site_type_symbol
_atom_site_fract_x
_atom_site_fract_y
_atom_site_fract_z
Zn1	Zn	1.274530	-0.376020	-0.508156
Zn2	Zn	1.274449	-0.508208	-0.375981
Zn3	Zn	1.135124	-0.369341	-0.369296
Zn4	Zn	1.135086	-0.501448	-0.501425
O5	O	1.204797	-0.438754	-0.438715
O6	O	1.391185	-0.399180	-0.496237
O7	O	1.255948	-0.489822	-0.264483
O8	O	1.153666	-0.259618	-0.387735
O9	O	1.391125	-0.496298	-0.399129
O10	O	1.256088	-0.264525	-0.489755
O11	O	1.153587	-0.387796	-0.259571
O12	O	1.018453	-0.381241	-0.381209
O13	O	1.153603	-0.484775	-0.612930
O14	O	1.018426	-0.478299	-0.478283
O15	O	1.256051	-0.392624	-0.617875
O16	O	1.255912	-0.617920	-0.392603
O17	O	1.153523	-0.612953	-0.484766
C18	C	1.204727	-0.644117	-0.438698
C19	C	1.204774	-0.731976	-0.438721
C20	C	0.988189	-0.428312	-0.428291
C21	C	0.895523	-0.423864	-0.423850
C22	C	1.151561	-1.100900	-0.486702
C23	C	1.258266	-1.106016	-0.390819
C24	C	1.258237	-1.023469	-0.390810
C25	C	1.204868	-0.979633	-0.438747
C26	C	1.151528	-1.018345	-0.486693
C27	C	1.311570	-0.984751	-0.342859
C28	C	1.311542	-0.902199	-0.342848
C29	C	1.258177	-0.858362	-0.390790
C30	C	1.204835	-0.897078	-0.438738
C31	C	1.151467	-0.853243	-0.486676
C32	C	1.098129	-0.891958	-0.534629
C33	C	1.098163	-0.974508	-0.534635
C34	C	1.258143	-0.775812	-0.390783
C35	C	1.151434	-0.770687	-0.486667
C36	C	0.725862	-0.415724	-0.415750
C37	C	0.684573	-0.461843	-0.461737
C38	C	0.590168	-0.457314	-0.457230
C39	C	0.820276	-0.420252	-0.420256
C40	C	1.422251	-0.449238	-0.449180
C41	C	1.514917	-0.453705	-0.453639
C42	C	1.204832	-0.438690	-0.644885
C43	C	1.204847	-0.438663	-0.732742
C44	C	1.204890	-0.232590	-0.438750
C45	C	1.204930	-0.144736	-0.438765
C46	C	1.151606	-0.486564	-1.101650
C47	C	1.258287	-0.390606	-1.106795
C48	C	1.258265	-0.390622	-1.024248
C49	C	1.204913	-0.438610	-0.980398
C50	C	1.151584	-0.486583	-1.019096
C51	C	1.311599	-0.342656	-0.985544
C52	C	1.311579	-0.342670	-0.902992
C53	C	1.258223	-0.390655	-0.859141
C54	C	1.204891	-0.438629	-0.897844
C55	C	1.151540	-0.486617	-0.853994
C56	C	1.098203	-0.534587	-0.892695
C57	C	1.098228	-0.534567	-0.975245
C58	C	1.258198	-0.390675	-0.776591
C59	C	1.151517	-0.486636	-0.771440
C60	C	1.204811	-0.438763	-0.233349
C61	C	1.204957	-0.438575	-0.145500
H62	H	1.054672	-0.856257	-0.573656
H63	H	0.720125	-0.504727	-0.504494
O64	O	0.683418	-0.364680	-0.364655
C65	C	0.632995	-0.407256	-0.311187
H66	H	0.659286	-0.470738	-0.307433
H67	H	0.567053	-0.406911	-0.332540
C68	C	0.599189	-0.290503	-0.233618
C69	C	0.631483	-0.368472	-0.229002
H70	H	0.598252	-0.266579	-0.182924
H71	H	0.633157	-0.261818	-0.269642
H72	H	0.544239	-0.290227	-0.251416
H73	H	0.686435	-0.368747	-0.211215
H74	H	0.597524	-0.397157	-0.192973
H75	H	1.355040	-0.303591	-1.021252
H76	H	1.108064	-0.525707	-0.735742
H77	H	1.355013	-1.020448	-0.303825
H78	H	1.355009	-0.303609	-0.871489
H79	H	1.301627	-0.351621	-0.745085
O80	O	1.363237	-0.864555	-0.296183
C81	C	1.315795	-0.814563	-0.242819
H82	H	1.250144	-0.836322	-0.234726
H83	H	1.312886	-0.751849	-0.267112
C84	C	1.437218	-0.788553	-0.172584
C85	C	1.356586	-0.815281	-0.162639
H86	H	1.462381	-0.788992	-0.123126
H87	H	1.469182	-0.822231	-0.208538
H88	H	1.434783	-0.736293	-0.192830
H89	H	1.359023	-0.867543	-0.142402
H90	H	1.324624	-0.781612	-0.126680
O91	O	1.310230	-0.344083	-1.149355
C92	C	1.393308	-0.365351	-1.133152
H93	H	1.397484	-0.428703	-1.110643
H94	H	1.415103	-0.324034	-1.086292
C95	C	1.443846	-0.281009	-1.236802
C96	C	1.448976	-0.358822	-1.209163
H97	H	1.478186	-0.276978	-1.283687
H98	H	1.387875	-0.266678	-1.247717
H99	H	1.462007	-0.246587	-1.197745
H100	H	1.430805	-0.393241	-1.248215
H101	H	1.504945	-0.373159	-1.198256
O102	O	1.309988	-0.738120	-0.344318
C103	C	1.363806	-0.692917	-0.391943
H104	H	1.334362	-0.679118	-0.450406
H105	H	1.425594	-0.727660	-0.403646
C106	C	1.415062	-0.632192	-0.277377
C107	C	1.378896	-0.615239	-0.349180
H108	H	1.424374	-0.584278	-0.250998
H109	H	1.378807	-0.662649	-0.245290
H110	H	1.466549	-0.661147	-0.287140
H111	H	1.327406	-0.586293	-0.339416
H112	H	1.415143	-0.584775	-0.381264
O113	O	1.099633	-0.728196	-0.533347
C114	C	1.117826	-0.749169	-0.613019
H115	H	1.149899	-0.810626	-0.616231
H116	H	1.160653	-0.704725	-0.641728
C117	C	0.997130	-0.673617	-0.652984
C118	C	1.036517	-0.749102	-0.656929
H119	H	0.946976	-0.673572	-0.680071
H120	H	0.984874	-0.659484	-0.599308
H121	H	1.032828	-0.636588	-0.676906
H122	H	1.000823	-0.786127	-0.632998
H123	H	1.048765	-0.763241	-0.710602
O124	O	1.046476	-0.581325	-0.850132
C125	C	1.064657	-0.660974	-0.871175
H126	H	1.131257	-0.668164	-0.897084
H127	H	1.019951	-0.679476	-0.916926
C128	C	0.973141	-0.704444	-0.765539
C129	C	1.054943	-0.713275	-0.797355
H130	H	0.967145	-0.736707	-0.720005
H131	H	0.960889	-0.650783	-0.751363
H132	H	0.935895	-0.719861	-0.803672
H133	H	1.092186	-0.697849	-0.759225
H134	H	1.067200	-0.766935	-0.811523
O135	O	1.046543	-0.581253	-1.012882
C136	C	1.094002	-0.634567	-1.062912
H137	H	1.159652	-0.642623	-1.041182
H138	H	1.096908	-0.610250	-1.125618
C139	C	0.972601	-0.704878	-1.088901
C140	C	1.053232	-0.714777	-1.062207
H141	H	0.947451	-0.754354	-1.088470
H142	H	0.940626	-0.668958	-1.055197
H143	H	0.975034	-0.684611	-1.141154
H144	H	1.050797	-0.735034	-1.009952
H145	H	1.085206	-0.750703	-1.095903
O146	O	1.046466	-1.012209	-0.581252
C147	C	1.093914	-1.062173	-0.634638
H148	H	1.157120	-1.077550	-0.609854
H149	H	1.103017	-1.030765	-0.693661
C150	C	0.970433	-1.119518	-0.677143
C151	C	1.048062	-1.138410	-0.646700
H152	H	0.942149	-1.166544	-0.684587
H153	H	0.938466	-1.085855	-0.641178
H154	H	0.978030	-1.093344	-0.726326
H155	H	1.040464	-1.164575	-0.597514
H156	H	1.080027	-1.172080	-0.682657
O157	O	1.099777	-1.138626	-0.533208
C158	C	1.111263	-1.220888	-0.522959
H159	H	1.138613	-1.233500	-0.463298
H160	H	1.155637	-1.246390	-0.572017
C161	C	0.993328	-1.243774	-0.599362
C162	C	1.026914	-1.259263	-0.526083
H163	H	0.941299	-1.267447	-0.601293
H164	H	0.985591	-1.188353	-0.606270
H165	H	1.030314	-1.265026	-0.640236
H166	H	0.989933	-1.238003	-0.485211
H167	H	1.034643	-1.314683	-0.519168
O168	O	1.099876	-0.533139	-1.139365
C169	C	1.111312	-0.522818	-1.221628
H170	H	1.175666	-0.500031	-1.236005
H171	H	1.061885	-0.478335	-1.242685
C172	C	1.024602	-0.630400	-1.245966
C173	C	1.103645	-0.602420	-1.263624
H174	H	1.019869	-0.679501	-1.271872
H175	H	1.016894	-0.637352	-1.190543
H176	H	0.983421	-0.593324	-1.263514
H177	H	1.144823	-0.639491	-1.246067
H178	H	1.111360	-0.595476	-1.319045
H179	H	1.301711	-1.141712	-0.351785
