data_functionalizedCrystal
_audit_creation_method	'MofGen! by Chris Wilmer'
_symmetry_space_group_name_H-M	'P1'
_symmetry_Int_Tables_number	1
_symmetry_cell_setting	triclinic
loop_
_symmetry_equiv_pos_as_xyz
  x,y,z
_cell_length_a	14.750779
_cell_length_b	16.992694
_cell_length_c	16.992695
_cell_angle_alpha	90.668223
_cell_angle_beta	76.479349
_cell_angle_gamma	103.524918
loop_
_atom_site_label
_atom_site_type_symbol
_atom_site_fract_x
_atom_site_fract_y
_atom_site_fract_z
O1	O	0.079709	-1.034856	-0.182901
O2	O	0.079737	-0.806451	-0.181076
O3	O	0.079715	-0.919739	-0.067787
O4	O	0.079730	-0.921568	-0.296190
O5	O	-0.079941	-0.951765	-0.035765
O6	O	-0.079919	-0.838476	-0.149054
O7	O	-0.079948	-1.066882	-0.150880
Zn8	Zn	-0.105282	-0.957764	-0.144883
Zn9	Zn	0.105072	-0.915569	-0.187073
O10	O	-0.079926	-0.953593	-0.264168
C11	C	-0.000088	-0.793103	-0.162710
C12	C	-0.000077	-0.705616	-0.155683
N13	N	-0.248844	-0.986567	-0.116089
C14	C	-0.000112	-0.933396	-0.022416
C15	C	-0.000111	-0.926367	0.065068
C16	C	-0.600627	-0.806328	-0.296242
C17	C	-0.701130	-0.826517	-0.276071
C18	C	-0.701112	-0.926859	-0.175794
C19	C	-0.600607	-0.906675	-0.195954
C20	C	-0.550373	-0.846410	-0.256179
C21	C	-0.550353	-0.946757	-0.155892
C22	C	-0.449856	-0.926578	-0.176053
C23	C	-0.399615	-0.866317	-0.236278
C24	C	-0.449877	-0.826230	-0.276341
C25	C	-0.600589	-1.007026	-0.095671
C26	C	-0.550334	-1.047108	-0.055609
C27	C	-0.449836	-1.026925	-0.075766
C28	C	-0.399595	-0.966664	-0.135990
C29	C	-0.399574	-1.067011	-0.035703
C30	C	-0.299078	-1.046832	-0.055864
C31	C	-0.299098	-0.946485	-0.156152
N32	N	0.248633	-0.886772	-0.215860
C33	C	-0.000121	-1.080230	-0.169246
C34	C	-0.000125	-1.167715	-0.176274
C35	C	-0.000073	-0.659624	-0.223502
C36	C	-0.000087	-0.577426	-0.216890
C37	C	-0.000098	-0.541220	-0.142461
C38	C	-0.000104	-0.587218	-0.074636
C39	C	-0.000097	-0.669416	-0.081247
C40	C	-0.000125	-0.295911	-0.115060
C41	C	-0.000129	-0.213707	-0.108455
C42	C	-0.000114	-0.203921	-0.250710
C43	C	-0.000101	-0.286119	-0.257315
C44	C	-0.000113	-0.332111	-0.189490
N45	N	-0.000108	-0.457200	-0.135701
N46	N	-0.000109	-0.416131	-0.196249
C47	C	-0.000096	-0.939936	-0.309540
C48	C	-0.000091	-0.946964	-0.397025
C49	C	-0.000121	-0.994187	0.111061
C50	C	-0.000111	-0.987576	0.193260
C51	C	-0.000098	-0.913146	0.229466
C52	C	-0.000086	-0.845321	0.183466
C53	C	-0.000089	-0.851931	0.101268
C54	C	-0.000082	-0.885748	0.474777
C55	C	-0.000082	-0.879144	0.556982
C56	C	-0.000104	-1.021400	0.566770
C57	C	-0.000113	-1.028005	0.484570
C58	C	-0.000096	-0.960178	0.438577
N59	N	-0.000091	-0.906388	0.313486
N60	N	-0.000096	-0.966936	0.354556
H61	H	-0.258195	-0.897405	-0.205187
Cl62	Cl	-0.000054	-0.705131	-0.317077
Cl63	Cl	-0.000123	-0.541703	0.018935
Cl64	Cl	-0.000125	-1.072841	0.251077
H65	H	-0.000070	-0.784717	0.212950
H66	H	-0.742025	-0.975930	-0.126761
H67	H	-0.000068	-0.830519	0.437339
Cl68	Cl	-0.000076	-0.519610	-0.302154
H69	H	-0.000087	-0.818534	0.586461
H70	H	-0.000081	-0.796705	0.063821
H71	H	-0.000117	-1.076620	0.604226
Cl72	Cl	-0.726929	-1.032395	-0.070332
H73	H	-0.317784	-0.849890	-0.252695
H74	H	-0.000137	-1.054797	0.081590
H75	H	-0.000124	-1.088613	0.455097
H76	H	-0.408974	-0.777150	-0.325376
H77	H	-0.559725	-0.757248	-0.345277
H78	H	-0.591247	-1.096179	-0.006575
H79	H	-0.258160	-1.079472	-0.023241
H80	H	-0.000081	-0.315590	-0.317926
H81	H	-0.000106	-0.166466	-0.305928
H82	H	-0.000136	-0.184231	-0.047843
H83	H	-0.742043	-0.793873	-0.308701
Cl84	Cl	-0.462736	-1.142779	0.039998
Cl85	Cl	-0.000139	-0.353719	-0.029793
H86	H	-0.000100	-0.706862	-0.026022
