data_functionalizedCrystal
_audit_creation_method	'MofGen! by Chris Wilmer'
_symmetry_space_group_name_H-M	'P1'
_symmetry_Int_Tables_number	1
_symmetry_cell_setting	triclinic
loop_
_symmetry_equiv_pos_as_xyz
  x,y,z
_cell_length_a	14.853567
_cell_length_b	14.853568
_cell_length_c	13.930277
_cell_angle_alpha	90.006322
_cell_angle_beta	90.013053
_cell_angle_gamma	83.635059
loop_
_atom_site_label
_atom_site_type_symbol
_atom_site_fract_x
_atom_site_fract_y
_atom_site_fract_z
O1	O	-1.196347	-0.117698	0.079755
O2	O	-0.696347	0.382302	0.579755
O3	O	-0.933887	-0.131719	0.079770
O4	O	-0.433887	0.368281	0.579770
O5	O	-1.072127	0.006521	0.079767
O6	O	-0.572127	0.506521	0.579767
O7	O	-1.058107	-0.255938	0.079758
O8	O	-0.558107	0.244062	0.579758
O9	O	-1.072152	0.006513	-0.079895
O10	O	-0.572152	0.506513	0.420105
O11	O	-0.933912	-0.131728	-0.079892
O12	O	-0.433912	0.368272	0.420108
O13	O	-1.196371	-0.117706	-0.079907
O14	O	-0.696371	0.382294	0.420093
Zn15	Zn	-1.065146	-0.124718	-0.105249
Zn16	Zn	-0.565146	0.375282	0.394751
Zn17	Zn	-1.065113	-0.124707	0.105112
Zn18	Zn	-0.565113	0.375293	0.605112
O19	O	-1.058131	-0.255947	-0.079904
O20	O	-0.558131	0.244053	0.420096
C21	C	-0.900311	-0.131088	-0.000059
C22	C	-0.400311	0.368912	0.499941
C23	C	-0.800227	-0.129184	-0.000053
C24	C	-0.300227	0.370816	0.499947
C25	C	-1.071504	0.040106	-0.000061
C26	C	-0.571504	0.540106	0.499939
C27	C	-1.069600	0.140189	-0.000051
C28	C	-0.569600	0.640189	0.499949
N29	N	-1.065174	-0.124726	-0.248815
N30	N	-0.565174	0.375274	0.251185
C31	C	-1.229948	-0.118337	-0.000076
C32	C	-0.729948	0.381663	0.499924
C33	C	-1.330031	-0.120241	-0.000076
C34	C	-0.830031	0.379759	0.499924
C35	C	-0.387693	-0.039019	-0.000071
C36	C	0.112307	0.460981	0.499929
C37	C	-0.366413	-0.203251	-0.000076
C38	C	0.133587	0.296749	0.499924
C39	C	-0.460446	-0.205041	-0.000073
C40	C	0.039554	0.294959	0.499927
C41	C	-0.518108	-0.123819	-0.000067
C42	C	-0.018108	0.376181	0.499933
C43	C	-0.481736	-0.040806	-0.000065
C44	C	0.018264	0.459194	0.499935
C45	C	-0.496826	-0.288053	-0.000065
C46	C	0.003174	0.211947	0.499935
C47	C	-0.590865	-0.289846	-0.000061
C48	C	-0.090865	0.210154	0.499939
C49	C	-0.648528	-0.208623	-0.000063
C50	C	-0.148528	0.291377	0.499937
C51	C	-0.612151	-0.125607	-0.000061
C52	C	-0.112151	0.374393	0.499939
C53	C	-0.669812	-0.044384	-0.000056
C54	C	-0.169812	0.455616	0.499944
C55	C	-0.633437	0.038633	-0.000062
C56	C	-0.133437	0.538633	0.499938
C57	C	-0.539399	0.040417	-0.000067
C58	C	-0.039399	0.540417	0.499933
C59	C	-0.742566	-0.210407	-0.000058
C60	C	-0.242566	0.289593	0.499942
C61	C	-0.763855	-0.046172	-0.000050
C62	C	-0.263855	0.453828	0.499950
C63	C	-0.979434	0.552723	-0.000058
C64	C	-0.479434	1.052723	0.499942
C65	C	-1.143666	0.574004	-0.000067
C66	C	-0.643666	1.074004	0.499933
C67	C	-1.145457	0.479970	-0.000063
C68	C	-0.645457	0.979970	0.499937
C69	C	-1.064234	0.422309	-0.000058
C70	C	-0.564234	0.922309	0.499942
C71	C	-0.981222	0.458680	-0.000057
C72	C	-0.481222	0.958680	0.499943
C73	C	-1.228468	0.443591	-0.000074
C74	C	-0.728468	0.943591	0.499926
C75	C	-1.230262	0.349552	-0.000071
C76	C	-0.730262	0.849552	0.499929
C77	C	-1.149038	0.291889	-0.000059
C78	C	-0.649038	0.791889	0.499941
C79	C	-1.066022	0.328266	-0.000056
C80	C	-0.566022	0.828266	0.499944
C81	C	-0.984800	0.270604	-0.000051
C82	C	-0.484800	0.770604	0.499949
C83	C	-0.901783	0.306979	-0.000042
C84	C	-0.401783	0.806979	0.499958
C85	C	-0.899998	0.401017	-0.000044
C86	C	-0.399998	0.901017	0.499956
C87	C	-1.150823	0.197851	-0.000056
C88	C	-0.650823	0.697851	0.499944
C89	C	-0.986588	0.176561	-0.000050
C90	C	-0.486588	0.676561	0.499950
C91	C	-1.058754	0.710469	-0.000071
C92	C	-0.558754	1.210469	0.499929
C93	C	-1.060656	0.610385	-0.000063
C94	C	-0.560656	1.110385	0.499937
N95	N	-1.065091	-0.124693	0.248678
N96	N	-0.565091	0.375307	0.748678
C97	C	-1.003835	-0.185812	0.700949
C98	C	-0.503835	0.314188	1.200949
C99	C	-1.126496	-0.063633	0.700915
C100	C	-0.626496	0.436367	1.200915
C101	C	-1.126481	-0.063626	0.600420
C102	C	-0.626481	0.436374	1.100420
C103	C	-1.065142	-0.124712	0.550184
C104	C	-0.565142	0.375288	1.050184
C105	C	-1.003817	-0.185805	0.600444
C106	C	-0.503817	0.314195	1.100444
C107	C	-1.187799	-0.002529	0.550152
C108	C	-0.687799	0.497471	1.050152
C109	C	-1.187786	-0.002519	0.449650
C110	C	-0.687786	0.497481	0.949650
C111	C	-1.126450	-0.063610	0.399413
C112	C	-0.626450	0.436390	0.899413
C113	C	-1.065124	-0.124706	0.449679
C114	C	-0.565124	0.375294	0.949679
C115	C	-1.003785	-0.185792	0.399443
C116	C	-0.503785	0.314208	0.899443
C117	C	-0.942462	-0.246893	0.449707
C118	C	-0.442462	0.253107	0.949707
C119	C	-0.942481	-0.246896	0.550206
C120	C	-0.442481	0.253104	1.050206
C121	C	-1.126431	-0.063607	0.298914
C122	C	-0.626431	0.436393	0.798914
C123	C	-1.003767	-0.185785	0.298938
C124	C	-0.503767	0.314215	0.798938
H125	H	-0.810798	0.019971	-0.000050
H126	H	-0.310798	0.519971	0.499950
H127	H	-1.218414	0.168238	-0.000070
H128	H	-0.718414	0.668238	0.499930
H129	H	-0.680397	0.104764	-0.000051
H130	H	-0.180397	0.604764	0.499949
Br131	Br	-0.490027	0.153073	-0.000071
Br132	Br	0.009973	0.653073	0.499929
H133	H	-0.920445	0.129618	-0.000041
H134	H	-0.420445	0.629618	0.499959
H135	H	-0.358072	0.028572	-0.000079
H136	H	0.141928	0.528572	0.499921
H137	H	-0.892515	-0.296626	0.408794
H138	H	-0.392515	0.203374	0.908794
H139	H	-0.319459	-0.269379	-0.000072
H140	H	0.180541	0.230621	0.499928
Br141	Br	-0.418569	-0.398276	-0.000052
Br142	Br	0.081431	0.101724	0.499948
H143	H	-0.953820	-0.235533	0.258042
H144	H	-0.453820	0.264467	0.758042
H145	H	-0.832410	0.430642	-0.000038
H146	H	-0.332410	0.930642	0.499962
H147	H	-0.911843	0.582344	-0.000047
H148	H	-0.411843	1.082344	0.499953
Br149	Br	-0.640224	-0.402509	-0.000054
Br150	Br	-0.140224	0.097491	0.499946
H151	H	-1.209794	0.620957	-0.000079
H152	H	-0.709794	1.120957	0.499921
H153	H	-1.294595	0.490546	-0.000087
H154	H	-0.794595	0.990546	0.499913
Br155	Br	-1.209640	0.019317	0.230704
Br156	Br	-0.709640	0.519317	0.730704
Br157	Br	-0.791930	-0.323063	-0.000039
Br158	Br	-0.291930	0.176937	0.499961
Br159	Br	-1.210206	0.018791	0.769091
Br160	Br	-0.710206	0.518791	1.269091
H161	H	-1.237719	0.047232	0.408731
H162	H	-0.737719	0.547232	0.908731
Br163	Br	-0.791557	0.228713	-0.000047
Br164	Br	-0.291557	0.728713	0.499953
H165	H	-1.297859	0.319944	-0.000077
H166	H	-0.797859	0.819944	0.499923
H167	H	-0.892554	-0.296642	0.591138
H168	H	-0.392554	0.203358	1.091138
H169	H	-0.953909	-0.235562	0.741876
H170	H	-0.453909	0.264438	1.241876
Br171	Br	-1.271848	0.079547	0.618328
Br172	Br	-0.771848	0.579547	1.118328
