data_functionalizedCrystal
_audit_creation_method	'MofGen! by Chris Wilmer'
_symmetry_space_group_name_H-M	'P1'
_symmetry_Int_Tables_number	1
_symmetry_cell_setting	triclinic
loop_
_symmetry_equiv_pos_as_xyz
  x,y,z
_cell_length_a	10.654550
_cell_length_b	15.995350
_cell_length_c	9.730223
_cell_angle_alpha	89.997832
_cell_angle_beta	89.999957
_cell_angle_gamma	83.988653
loop_
_atom_site_label
_atom_site_type_symbol
_atom_site_fract_x
_atom_site_fract_y
_atom_site_fract_z
O1	O	1.666303	0.117602	-0.114180
O2	O	1.300678	0.128807	-0.114204
O3	O	1.493485	0.001375	-0.114190
O4	O	1.473496	0.245034	-0.114194
O5	O	1.493473	0.001371	0.114390
O6	O	1.300666	0.128803	0.114375
O7	O	1.666290	0.117599	0.114400
Zn8	Zn	1.483476	0.123201	0.150680
Zn9	Zn	1.483492	0.123205	-0.150484
O10	O	1.473483	0.245031	0.114386
C11	C	1.253884	0.127982	0.000082
C12	C	1.114473	0.125521	0.000073
C13	C	1.492652	-0.029826	0.000097
C14	C	1.490175	-0.122791	0.000089
C15	C	1.034008	0.200551	0.000075
C16	C	0.903017	0.198233	0.000099
C17	C	0.932971	0.045849	0.000112
C18	C	1.063959	0.048168	0.000098
C19	C	1.481277	-0.460590	0.000093
C20	C	1.343964	-0.413954	-0.000429
C21	C	1.346442	-0.317249	0.000087
C22	C	1.485691	-0.293004	0.000090
C23	C	1.553412	-0.333690	0.130623
C24	C	1.549962	-0.430346	0.130732
C25	C	1.552813	-0.430684	-0.129206
C26	C	1.552780	-0.333739	-0.130931
C27	C	1.488192	-0.198292	0.000093
C28	C	1.478780	-0.555303	0.000099
C29	C	1.713084	0.118423	0.000110
C30	C	1.852495	0.120885	0.000111
C31	C	1.474316	0.276232	0.000095
C32	C	1.476793	0.369197	0.000094
N33	N	1.483474	0.123197	0.356216
N34	N	1.483504	0.123202	-0.356021
C35	C	1.568878	0.066794	0.428148
C36	C	1.568890	0.066794	0.572031
C37	C	1.398091	0.179608	0.572037
C38	C	1.398074	0.179603	0.428157
H39	H	0.837506	0.259330	0.000104
H40	H	1.289086	-0.432803	-0.094036
H41	H	0.891826	-0.017129	0.000141
H42	H	1.500570	-0.448936	0.228304
H43	H	1.638414	0.020864	0.369578
H44	H	1.650775	-0.462009	0.136657
H45	H	1.293208	-0.289135	-0.093484
N46	N	1.150759	-0.032761	0.000111
H47	H	1.098885	-0.082116	0.000122
H48	H	1.205758	-0.035120	-0.084627
N49	N	1.275462	-0.280744	0.124242
H50	H	1.202380	-0.239727	0.093345
H51	H	1.242526	-0.327532	0.178800
N52	N	1.088484	0.283981	0.000051
H53	H	1.059149	0.316886	0.084788
H54	H	1.183666	0.274001	-0.000016
N55	N	1.271569	-0.440317	0.122863
H56	H	1.266630	-0.503000	0.119651
H57	H	1.316155	-0.425491	0.209735
N58	N	1.688938	-0.314227	0.137042
H59	H	1.707783	-0.278758	0.055205
H60	H	1.702913	-0.282498	0.224515
N61	N	1.491120	-0.296455	0.259297
H62	H	1.419045	-0.253242	0.233334
H63	H	1.457782	-0.342511	0.315247
N64	N	1.305945	0.240433	0.350560
H65	H	1.251852	0.276169	0.417964
H66	H	1.354003	0.277747	0.290843
H67	H	1.507924	-0.451483	-0.228142
H68	H	1.503268	-0.306776	-0.227495
N69	N	1.687294	-0.312616	-0.141378
H70	H	1.706738	-0.276182	-0.060964
H71	H	1.746529	-0.366211	-0.140255
N72	N	1.686918	-0.471970	-0.130375
H73	H	1.701320	-0.509865	-0.047602
H74	H	1.701922	-0.506325	-0.217025
N75	N	1.661021	0.005972	0.649617
H76	H	1.715121	-0.029755	0.582206
H77	H	1.716528	0.038390	0.709291
H78	H	1.328562	0.225533	0.630626
