data_functionalizedCrystal
_audit_creation_method	'MofGen! by Chris Wilmer'
_symmetry_space_group_name_H-M	'P1'
_symmetry_Int_Tables_number	1
_symmetry_cell_setting	triclinic
loop_
_symmetry_equiv_pos_as_xyz
  x,y,z
_cell_length_a	18.215407
_cell_length_b	18.050589
_cell_length_c	18.215399
_cell_angle_alpha	90.023603
_cell_angle_beta	90.017368
_cell_angle_gamma	90.025664
loop_
_atom_site_label
_atom_site_type_symbol
_atom_site_fract_x
_atom_site_fract_y
_atom_site_fract_z
Zn1	Zn	1.125055	-0.295718	0.416090
Zn2	Zn	1.625055	0.204282	0.916090
Zn3	Zn	1.124956	-0.419913	0.293033
Zn4	Zn	1.624956	0.080087	0.793033
Zn5	Zn	1.001987	-0.295736	0.293042
Zn6	Zn	1.501987	0.204264	0.793042
Zn7	Zn	1.001946	-0.419865	0.416063
Zn8	Zn	1.501946	0.080135	0.916063
O9	O	1.063486	-0.357808	0.354557
O10	O	1.563486	0.142192	0.854557
O11	O	1.228026	-0.312205	0.399773
O12	O	1.728026	0.187795	0.899773
O13	O	1.108620	-0.403468	0.190050
O14	O	1.608620	0.096532	0.690050
O15	O	1.018371	-0.191809	0.309380
O16	O	1.518371	0.308191	0.809380
O17	O	1.227953	-0.403451	0.309364
O18	O	1.727953	0.096549	0.809364
O19	O	1.108788	-0.191796	0.399782
O20	O	1.608788	0.308204	0.899782
O21	O	1.018275	-0.312235	0.190057
O22	O	1.518275	0.187765	0.690057
O23	O	0.898998	-0.312189	0.309354
O24	O	1.398998	0.187811	0.809354
O25	O	1.018301	-0.403369	0.519051
O26	O	1.518301	0.096631	1.019051
O27	O	0.898967	-0.403386	0.399737
O28	O	1.398967	0.096614	0.899737
O29	O	1.108748	-0.312159	0.519070
O30	O	1.608748	0.187841	1.019070
O31	O	1.108580	-0.523831	0.309338
O32	O	1.608580	-0.023831	0.809338
O33	O	1.018205	-0.523796	0.399727
O34	O	1.518205	-0.023796	0.899727
C35	C	0.872280	-0.357785	0.354544
C36	C	1.372280	0.142215	0.854544
C37	C	0.790481	-0.357793	0.354556
C38	C	1.290481	0.142207	0.854556
C39	C	1.063397	-0.550760	0.354545
C40	C	1.563397	-0.050760	0.854545
C41	C	1.063427	-0.633306	0.354564
C42	C	1.563427	-0.133306	0.854564
C43	C	0.602324	-0.310379	0.401707
C44	C	1.102324	0.189621	0.901707
C45	C	0.525465	-0.310386	0.401709
C46	C	1.025465	0.189614	0.901709
C47	C	0.525400	-0.405257	0.307420
C48	C	1.025400	0.094743	0.807420
C49	C	0.602258	-0.405246	0.307415
C50	C	1.102258	0.094754	0.807415
C51	C	0.640717	-0.357809	0.354562
C52	C	1.140717	0.142191	0.854562
C53	C	0.487001	-0.357826	0.354570
C54	C	0.987001	0.142174	0.854570
C55	C	0.403668	-0.357833	0.354572
C56	C	0.903668	0.142167	0.854572
C57	C	0.724056	-0.357800	0.354559
C58	C	1.224056	0.142200	0.854559
C59	C	1.014329	-0.832764	0.403701
C60	C	1.514329	-0.332764	0.903701
C61	C	0.996389	-0.882204	0.336547
C62	C	1.496389	-0.382204	0.836547
C63	C	1.063499	-0.784436	0.354574
C64	C	1.563499	-0.284436	0.854574
C65	C	1.081475	-0.882078	0.421735
C66	C	1.581475	-0.382078	0.921735
C67	C	1.063567	-0.930421	0.354589
C68	C	1.563567	-0.430421	0.854589
C69	C	1.045524	-0.832788	0.287385
C70	C	1.545524	-0.332788	0.787385
C71	C	1.130641	-0.832658	0.372617
C72	C	1.630641	-0.332658	0.872617
C73	C	1.112726	-0.882076	0.305418
C74	C	1.612726	-0.382076	0.805418
C75	C	1.063458	-0.700338	0.354566
C76	C	1.563458	-0.200338	0.854566
C77	C	1.063609	-1.014518	0.354589
C78	C	1.563609	-0.514518	0.854589
C79	C	1.255439	-0.357831	0.354570
C80	C	1.755439	0.142169	0.854570
C81	C	1.337238	-0.357841	0.354576
C82	C	1.837238	0.142159	0.854576
C83	C	1.063531	-0.357757	0.546510
C84	C	1.563531	0.142243	1.046510
C85	C	1.063550	-0.357735	0.628309
C86	C	1.563550	0.142265	1.128309
C87	C	1.063595	-0.164102	0.354585
C88	C	1.563595	0.335898	0.854585
C89	C	1.063642	-0.081556	0.354597
C90	C	1.563642	0.418444	0.854597
C91	C	1.063484	-0.357805	0.163351
C92	C	1.563484	0.142195	0.663351
C93	C	1.063607	-0.357618	0.081552
C94	C	1.563607	0.142382	0.581552
C95	C	1.110663	-0.310197	0.816514
C96	C	1.610663	0.189803	1.316514
C97	C	1.110672	-0.310175	0.893373
C98	C	1.610672	0.189825	1.393373
C99	C	1.016489	-0.405158	0.893341
C100	C	1.516489	0.094842	1.393341
C101	C	1.016477	-0.405175	0.816484
C102	C	1.516477	0.094825	1.316484
C103	C	1.063568	-0.357696	0.778072
C104	C	1.563568	0.142304	1.278072
C105	C	1.063589	-0.357657	0.931789
C106	C	1.563589	0.142343	1.431789
C107	C	1.063598	-0.357634	1.015122
C108	C	1.563598	0.142366	1.515122
C109	C	1.063558	-0.357718	0.694733
C110	C	1.563558	0.142282	1.194733
H111	H	0.633635	-0.271750	0.440095
H112	H	1.133635	0.228250	0.940095
H113	H	0.494077	-0.443880	0.269035
H114	H	0.994077	0.056120	0.769035
O115	O	0.639639	-0.451360	0.261719
O116	O	1.139639	0.048640	0.761719
C117	C	0.684084	-0.499384	0.303538
C118	C	1.184084	0.000616	0.803538
H119	H	0.695625	-0.473259	0.359352
H120	H	1.195625	0.026741	0.859352
H121	H	0.738118	-0.509288	0.273543
H122	H	1.238118	-0.009288	0.773543
H123	H	0.654453	-0.554435	0.311534
H124	H	1.154453	-0.054435	0.811534
H125	H	0.972687	-0.811111	0.445187
H126	H	1.472687	-0.311111	0.945187
O127	O	0.970830	-0.451356	0.779055
O128	O	1.470830	0.048644	1.279055
C129	C	1.012699	-0.499345	0.734608
C130	C	1.512699	0.000655	1.234608
H131	H	1.068483	-0.473160	0.723110
H132	H	1.568483	0.026840	1.223110
H133	H	0.982711	-0.509304	0.680553
H134	H	1.482711	-0.009304	1.180553
H135	H	1.020759	-0.554377	0.764216
H136	H	1.520759	-0.054377	1.264216
H137	H	1.149006	-0.271534	0.785242
H138	H	1.649006	0.228466	1.285242
O139	O	0.928644	-0.908135	0.318462
O140	O	1.428644	-0.408135	0.818462
C141	C	0.876929	-0.883000	0.370374
C142	C	1.376929	-0.383000	0.870374
H143	H	0.906157	-0.869086	0.423985
H144	H	1.406157	-0.369086	0.923985
H145	H	0.834461	-0.928227	0.380658
H146	H	1.334461	-0.428227	0.880658
H147	H	0.848351	-0.831365	0.348457
H148	H	1.348351	-0.331365	0.848457
H149	H	1.030282	-0.811227	0.230578
H150	H	1.530282	-0.311227	0.730578
O151	O	1.162285	-0.907716	0.255709
O152	O	1.662285	-0.407716	0.755709
C153	C	1.143106	-0.882451	0.185030
C154	C	1.643106	-0.382451	0.685030
H155	H	1.082043	-0.868719	0.183575
H156	H	1.582043	-0.368719	0.683575
H157	H	1.155503	-0.927527	0.142975
H158	H	1.655503	-0.427527	0.642975
H159	H	1.176263	-0.830677	0.171385
H160	H	1.676263	-0.330677	0.671385
O161	O	1.156385	-0.263932	0.930632
O162	O	1.656385	0.236068	1.430632
C163	C	1.140327	-0.189918	0.911870
C164	C	1.640327	0.310082	1.411870
H165	H	1.112028	-0.188393	0.856063
H166	H	1.612028	0.311607	1.356063
H167	H	1.193458	-0.156624	0.909251
H168	H	1.693458	0.343376	1.409251
H169	H	1.102513	-0.164887	0.955124
H170	H	1.602513	0.335113	1.455124
H171	H	0.978151	-0.443815	0.924625
H172	H	1.478151	0.056185	1.424625
O173	O	0.488203	-0.264394	0.447613
O174	O	0.988203	0.235606	0.947613
C175	C	0.507020	-0.280707	0.520931
C176	C	1.007020	0.219293	1.020931
H177	H	0.528127	-0.340039	0.524545
H178	H	1.028127	0.159961	1.024545
H179	H	0.456491	-0.274361	0.557304
H180	H	0.956491	0.225639	1.057304
H181	H	0.551654	-0.240912	0.540232
H182	H	1.051654	0.259088	1.040232
O183	O	1.198301	-0.806706	0.390972
O184	O	1.698301	-0.306706	0.890972
C185	C	1.217014	-0.831789	0.461840
C186	C	1.717014	-0.331789	0.961840
H187	H	1.164852	-0.845694	0.493545
H188	H	1.664852	-0.345694	0.993545
H189	H	1.248577	-0.786535	0.492048
H190	H	1.748577	-0.286535	0.992048
H191	H	1.252744	-0.883420	0.457232
H192	H	1.752744	-0.383420	0.957232
H193	H	1.096652	-0.903729	0.478526
H194	H	1.596652	-0.403729	0.978526
