data_functionalizedCrystal
_audit_creation_method	'MofGen! by Chris Wilmer'
_symmetry_space_group_name_H-M	'P1'
_symmetry_Int_Tables_number	1
_symmetry_cell_setting	triclinic
loop_
_symmetry_equiv_pos_as_xyz
  x,y,z
_cell_length_a	15.944499
_cell_length_b	9.065218
_cell_length_c	8.140239
_cell_angle_alpha	90.001686
_cell_angle_beta	89.994688
_cell_angle_gamma	95.753253
loop_
_atom_site_label
_atom_site_type_symbol
_atom_site_fract_x
_atom_site_fract_y
_atom_site_fract_z
O1	O	1.115988	-0.189906	-0.136705
O2	O	0.871611	-0.213444	-0.136686
O3	O	0.998851	0.013087	-0.136693
O4	O	0.988748	-0.416437	-0.136699
O5	O	0.998843	0.013090	0.136534
O6	O	0.871604	-0.213441	0.136541
O7	O	1.115981	-0.189903	0.136522
Zn8	Zn	0.993791	-0.201672	0.179912
Zn9	Zn	0.993800	-0.201675	-0.180077
O10	O	0.988741	-0.416434	0.136528
C11	C	0.997876	0.068052	-0.000082
C12	C	0.994973	0.231826	-0.000090
C13	C	0.840305	-0.212479	-0.000070
C14	C	0.747035	-0.209590	-0.000063
C15	C	0.456496	-0.341199	-0.000090
C16	C	0.517010	-0.272786	-0.134807
C17	C	0.411319	-0.199093	-0.000101
C18	C	0.516989	-0.272746	0.134574
C19	C	0.576267	-0.204258	-0.000080
C20	C	0.470605	-0.130642	-0.134930
C21	C	0.470577	-0.130621	0.134572
C22	C	0.531073	-0.062105	-0.000178
C23	C	0.316296	-0.196122	-0.000115
C24	C	0.671288	-0.207219	-0.000078
C25	C	1.147286	-0.190868	-0.000098
C26	C	1.240557	-0.193757	-0.000116
C27	C	0.989715	-0.471399	-0.000086
C28	C	0.992618	-0.635173	-0.000089
N29	N	0.993791	-0.201669	0.425595
N30	N	0.993807	-0.201667	-0.425759
H31	H	0.424059	-0.459131	-0.000222
H32	H	0.537567	-0.332897	-0.248694
O33	O	0.541592	-0.344263	0.270497
C34	C	0.624487	-0.327752	0.518525
C35	C	0.596712	-0.246580	0.364653
H36	H	0.669042	-0.248802	0.594710
H37	H	0.658228	-0.427242	0.479757
H38	H	0.566693	-0.367287	0.595082
H39	H	0.654461	-0.206948	0.288028
H40	H	0.562941	-0.147159	0.403534
O41	O	0.569561	0.078731	-0.000550
C42	C	0.589513	0.312698	-0.142863
C43	C	0.545887	0.153233	-0.142659
H44	H	0.570375	0.372989	-0.257729
H45	H	0.660808	0.309527	-0.141878
H46	H	0.569605	0.373666	-0.029051
H47	H	0.565727	0.092172	-0.256453
H48	H	0.474600	0.156511	-0.143559
O49	O	0.446091	-0.059103	-0.270910
C50	C	0.330142	0.024003	-0.423423
C51	C	0.357788	-0.057066	-0.269377
H52	H	0.258749	0.025704	-0.422218
H53	H	0.349598	-0.036171	-0.538142
H54	H	0.361628	0.142597	-0.423896
H55	H	0.326314	-0.175662	-0.268745
H56	H	0.338346	0.003223	-0.154728
H57	H	0.450002	-0.070564	0.248470
