data_functionalizedCrystal
_audit_creation_method	'MofGen! by Chris Wilmer'
_symmetry_space_group_name_H-M	'P1'
_symmetry_Int_Tables_number	1
_symmetry_cell_setting	triclinic
loop_
_symmetry_equiv_pos_as_xyz
  x,y,z
_cell_length_a	14.908783
_cell_length_b	16.120444
_cell_length_c	16.120297
_cell_angle_alpha	95.615117
_cell_angle_beta	89.410993
_cell_angle_gamma	96.376156
loop_
_atom_site_label
_atom_site_type_symbol
_atom_site_fract_x
_atom_site_fract_y
_atom_site_fract_z
Zn1	Zn	1.332777	-0.289213	-0.557211
Zn2	Zn	1.332661	-0.421910	-0.424517
Zn3	Zn	1.189966	-0.289386	-0.410197
Zn4	Zn	1.173810	-0.437000	-0.556164
O5	O	1.257303	-0.359377	-0.487022
O6	O	1.459008	-0.300428	-0.546039
O7	O	1.320444	-0.398087	-0.305997
O8	O	1.215720	-0.172052	-0.424143
O9	O	1.458923	-0.397919	-0.448550
O10	O	1.320643	-0.171925	-0.532154
O11	O	1.215607	-0.300722	-0.295476
O12	O	1.061576	-0.315355	-0.423129
O13	O	1.188184	-0.423639	-0.672924
O14	O	1.049706	-0.423807	-0.530370
O15	O	1.304977	-0.315061	-0.673692
O16	O	1.304779	-0.541222	-0.447535
O17	O	1.188071	-0.552309	-0.544256
C18	C	1.022906	-0.371238	-0.475083
C19	C	0.922628	-0.376333	-0.469995
C20	C	0.734264	-0.284545	-0.562122
C21	C	0.640043	-0.289330	-0.557345
C22	C	0.639966	-0.390682	-0.455660
C23	C	0.734186	-0.385897	-0.460437
C24	C	0.781332	-0.332828	-0.513671
C25	C	0.875553	-0.328049	-0.518452
C26	C	0.875474	-0.429396	-0.416763
C27	C	0.781254	-0.434180	-0.411986
C28	C	1.244683	-0.577183	-0.497355
C29	C	1.239364	-0.670358	-0.501808
C30	C	1.285102	-0.876951	-0.464114
C31	C	1.229671	-0.840945	-0.509947
C32	C	1.235066	-0.746022	-0.505417
C33	C	1.279708	-0.971882	-0.468643
C34	C	1.492615	-0.347471	-0.499009
C35	C	1.592891	-0.342397	-0.504117
C36	C	1.244791	-0.371014	-0.704392
C37	C	1.239460	-0.375973	-0.797022
C38	C	1.269996	-0.140721	-0.476668
C39	C	1.275406	-0.047543	-0.472255
C40	C	1.229693	-0.385010	-0.966616
C41	C	1.285105	-0.333485	-1.008277
C42	C	1.279671	-0.338513	-1.102645
C43	C	1.235126	-0.379983	-0.872240
C44	C	1.269822	-0.347723	-0.270498
C45	C	1.275342	-0.342519	-0.177866
H46	H	0.913806	-0.468718	-0.377318
H47	H	1.178177	-0.432895	-1.001819
Cl48	Cl	1.364619	-0.814481	-0.398280
Cl49	Cl	0.934821	-0.261336	-0.585375
Cl50	Cl	1.364670	-0.259566	-0.953929
H51	H	0.601725	-0.250011	-0.596797
Cl52	Cl	0.793535	-0.217840	-0.629050
H53	H	0.601565	-0.433878	-0.412310
Cl54	Cl	0.721977	-0.500889	-0.345066
H55	H	1.178163	-0.881409	-0.552589
