data_functionalizedCrystal
_audit_creation_method	'MofGen! by Chris Wilmer'
_symmetry_space_group_name_H-M	'P1'
_symmetry_Int_Tables_number	1
_symmetry_cell_setting	triclinic
loop_
_symmetry_equiv_pos_as_xyz
  x,y,z
_cell_length_a	6.817900
_cell_length_b	17.284672
_cell_length_c	10.992410
_cell_angle_alpha	90.609702
_cell_angle_beta	108.764651
_cell_angle_gamma	103.040903
loop_
_atom_site_label
_atom_site_type_symbol
_atom_site_fract_x
_atom_site_fract_y
_atom_site_fract_z
V1	V	-4.078770	-0.109058	-0.389642
O2	O	-4.074081	0.005241	-0.393494
O3	O	-4.021480	-0.216244	-0.376138
O4	O	-4.056908	-0.107381	-0.564523
O5	O	-4.038408	-0.104376	-0.203805
V6	V	-4.560111	-0.095387	-0.368731
O7	O	-4.344814	-0.139048	-0.435511
O8	O	-4.744264	-0.065397	-0.322861
O9	O	-4.394195	0.011799	-0.382234
O10	O	-4.682197	-0.209685	-0.364879
O11	O	-4.717871	-0.100068	-0.554567
O12	O	-4.358767	-0.097064	-0.193850
C13	C	-3.863459	-0.242373	-0.367195
C14	C	-3.898081	-0.329999	-0.357320
C15	C	-3.971496	-0.382425	-0.469205
C16	C	-4.004003	-0.464757	-0.459914
C17	C	-3.963108	-0.494662	-0.338739
C18	C	-3.889681	-0.442230	-0.226845
C19	C	-3.857161	-0.359899	-0.236136
C20	C	-4.054227	-0.739687	-0.298454
C21	C	-4.086759	-0.822025	-0.289172
C22	C	-4.201075	-0.844546	-0.522242
C23	C	-4.168561	-0.762213	-0.531523
C24	C	-4.095127	-0.709788	-0.419629
N25	N	-3.996341	-0.578819	-0.329239
N26	N	-4.061881	-0.625632	-0.429129
C27	C	-3.908650	-0.103506	-0.607496
C28	C	-3.972000	-0.102844	-0.750391
C29	C	-3.841086	-0.096809	-0.946120
C30	C	-3.775206	-0.097825	-0.797535
C31	C	-4.144733	-0.180564	-0.819691
C32	C	-4.209270	-0.179876	-0.968326
C33	C	-4.135993	-0.029383	-0.945407
C34	C	-4.065404	-0.029015	-0.796431
C35	C	-4.215557	0.037925	-0.391173
C36	C	-4.160174	0.125550	-0.401056
C37	C	-4.170366	-0.100941	-0.150869
C38	C	-4.086254	-0.101599	-0.007974
H39	H	-4.053447	-0.846369	-0.190491
H40	H	-4.293001	-0.187043	-0.790237
H41	H	-3.994451	-0.697012	-0.207343
F42	F	-3.846148	-0.474059	-0.097880
F43	F	-4.368734	-0.033072	-0.998421
F44	F	-4.251535	-0.027815	-0.754046
H45	H	-4.260862	-0.887239	-0.613339
F46	F	-4.212084	-0.730392	-0.660495
F47	F	-4.165681	-0.251348	-1.021632
H48	H	-3.644930	-0.041941	-0.749806
H49	H	-4.389073	-0.186635	-1.010279
F50	F	-3.711803	-0.023201	-0.977951
H51	H	-4.063782	-0.507440	-0.551023
H52	H	-4.081139	-0.235379	-0.788581
F53	F	-3.779016	-0.304103	-0.117053
H54	H	-4.052279	0.029635	-0.971692
H55	H	-3.799269	-0.148697	-0.988902
F56	F	-4.015041	-0.350606	-0.598179
H57	H	-3.700911	-0.150433	-0.767438
F58	F	-3.902606	0.046136	-0.735551
