data_functionalizedCrystal
_audit_creation_method	'MofGen! by Chris Wilmer'
_symmetry_space_group_name_H-M	'P1'
_symmetry_Int_Tables_number	1
_symmetry_cell_setting	triclinic
loop_
_symmetry_equiv_pos_as_xyz
  x,y,z
_cell_length_a	27.440280
_cell_length_b	14.560438
_cell_length_c	14.560438
_cell_angle_alpha	59.999258
_cell_angle_beta	90.003396
_cell_angle_gamma	59.995614
loop_
_atom_site_label
_atom_site_type_symbol
_atom_site_fract_x
_atom_site_fract_y
_atom_site_fract_z
Zr1	Zr	0.469469	1.005224	-0.120434
O2	O	0.391644	1.196854	-0.267104
O3	O	0.493331	0.813607	-0.075469
O4	O	0.493324	1.005221	-0.267077
O5	O	0.391650	1.005237	0.075644
O6	O	0.573527	1.005203	-0.267058
O7	O	0.391650	1.005240	-0.075497
O8	O	0.573539	0.662441	0.075694
O9	O	0.391639	1.347999	-0.267107
O10	O	0.563357	0.892403	-0.056281
O11	O	0.503503	0.892415	0.056500
O12	O	0.503495	1.118015	-0.169094
O13	O	0.443641	1.118026	-0.056313
Zr14	Zr	0.597383	1.005191	0.120649
Zr15	Zr	0.597383	1.005195	-0.120404
Zr16	Zr	0.469469	1.005219	0.120618
Zr17	Zr	0.469461	1.246283	-0.120438
Zr18	Zr	0.597391	0.764131	0.120653
O19	O	0.573521	1.196807	0.075684
O20	O	0.573521	1.196813	-0.267062
O21	O	0.391644	1.196848	0.075641
O22	O	0.675209	0.813561	0.267319
O23	O	0.675208	0.813567	-0.075426
O24	O	0.493331	0.813601	0.267276
O25	O	0.675202	1.005177	-0.075430
O26	O	0.573528	1.005194	0.267292
O27	O	0.493325	1.005211	0.267273
O28	O	0.675202	1.005175	0.075711
O29	O	0.493313	1.347977	-0.267083
O30	O	0.573539	0.662438	0.267298
O31	O	0.675213	0.662415	0.267322
O32	O	0.675213	0.662419	0.075718
O33	O	0.391639	1.347996	-0.075503
O34	O	0.493314	1.347973	-0.075479
O35	O	0.563357	0.892399	0.169309
O36	O	0.623211	0.892388	0.056528
O37	O	0.563350	1.118000	-0.056285
O38	O	0.503495	1.118011	0.056496
C39	C	0.533436	0.703678	0.000113
C40	C	0.533439	0.601342	0.000115
C41	C	0.577607	0.373839	0.083382
C42	C	0.577622	0.469974	0.083388
C43	C	0.489242	0.636575	-0.083176
C44	C	0.489231	0.540441	-0.083185
C45	C	0.373425	1.005243	0.000070
C46	C	0.319122	1.005255	0.000057
C47	C	0.013671	0.887419	0.059026
C48	C	-0.037347	0.887412	0.059036
O49	O	-0.037160	0.787256	0.109151
N50	N	-0.094111	1.005177	0.000147
C51	C	-0.099856	1.122958	-0.058746
O52	O	-0.152823	1.223126	-0.108833
C53	C	-0.048838	1.122964	-0.058748
C54	C	0.007925	1.005190	0.000135
C55	C	0.070432	0.769655	0.117905
C56	C	0.121447	0.769663	0.117893
C57	C	0.115701	0.887434	0.059002
C58	C	0.058940	1.005198	0.000123
C59	C	-0.054583	1.240743	-0.117634
C60	C	-0.003559	1.240739	-0.117631
C61	C	0.053204	1.122965	-0.058748
C62	C	0.104209	1.122977	-0.058780
N63	N	0.160973	1.005211	0.000108
C64	C	0.166719	0.887440	0.058999
C65	C	-0.206994	1.122937	-0.058734
C66	C	-0.258012	1.122932	-0.058738
C67	C	-0.195499	0.887386	0.059045
C68	C	-0.144481	0.887391	0.059042
C69	C	-0.150230	1.005171	0.000155
C70	C	0.273851	0.887465	0.058969
C71	C	0.324868	0.887483	0.058948
C72	C	0.262351	1.123029	-0.058830
C73	C	0.211339	1.123012	-0.058814
C74	C	0.217093	1.005219	0.000093
O75	O	0.104068	1.223082	-0.108867
O76	O	0.219688	0.787289	0.109090
C77	C	0.693427	1.005172	0.000145
C78	C	0.747730	1.005160	0.000158
C79	C	0.533426	1.005213	-0.301412
C80	C	0.533426	1.005214	-0.403745
C81	C	0.533416	1.306736	0.000102
C82	C	0.533413	1.409072	0.000100
C83	C	0.577610	1.005206	-0.451811
C84	C	0.577612	1.005194	-0.547957
C85	C	0.489240	1.005205	-0.547966
C86	C	0.489241	1.005207	-0.451817
C87	C	0.533426	1.005202	0.301627
C88	C	0.533426	1.005200	0.403960
C89	C	0.693437	0.703643	0.000151
C90	C	0.747743	0.601295	0.000165
C91	C	0.533436	0.703673	0.301633
C92	C	0.533439	0.601335	0.403967
C93	C	0.693437	0.703638	0.301670
C94	C	0.747743	0.601288	0.404018
C95	C	0.373415	1.306777	-0.301456
C96	C	0.319109	1.409127	-0.403803
C97	C	0.373415	1.306772	0.000064
C98	C	0.319109	1.409120	0.000049
C99	C	0.533416	1.306742	-0.301418
C100	C	0.533413	1.409080	-0.403753
C101	C	0.742002	0.553239	-0.058723
C102	C	0.793024	0.457085	-0.058732
C103	C	0.849786	0.408983	0.000155
C104	C	0.855525	0.457048	0.059045
C105	C	0.804504	0.553207	0.059047
C106	C	0.804495	0.553217	0.393211
C107	C	0.855526	0.457062	0.489369
C108	C	0.849805	0.408972	0.596332
C109	C	0.793047	0.457052	0.607136
C110	C	0.742017	0.553212	0.510980
C111	C	0.262357	1.457209	-0.392997
C112	C	0.211326	1.553394	-0.489154
C113	C	0.217047	1.601489	-0.596117
C114	C	0.273805	1.553403	-0.606921
C115	C	0.324835	1.457226	-0.510765
C116	C	0.324850	1.457186	0.058927
C117	C	0.273828	1.553366	0.058910
C118	C	0.217066	1.601472	0.000019
C119	C	0.211327	1.553402	-0.058866
C120	C	0.262348	1.457230	-0.058854
C121	C	0.564684	0.553247	0.510930
C122	C	0.564680	0.457098	0.607080
C123	C	0.502187	0.457132	0.489293
C124	C	0.502187	0.553285	0.393145
H125	H	0.453241	0.569141	-0.151011
H126	H	-0.304227	1.218835	-0.106701
H127	H	0.901736	0.417925	0.480551
H128	H	0.371087	0.791574	0.106901
O129	O	0.598387	0.605078	0.522604
H130	H	0.632926	0.586600	0.481638
O131	O	0.680786	0.605117	-0.122257
H132	H	0.646265	0.680055	-0.112369
O133	O	0.162005	1.705237	-0.699826
H134	H	0.121583	1.730582	-0.674330
H135	H	0.788339	0.417962	-0.106687
O136	O	0.150115	1.605218	-0.477478
H137	H	0.144931	1.648987	-0.430759
O138	O	0.279973	1.605271	-0.722291
H139	H	0.234950	1.680213	-0.787329
O140	O	0.598387	0.405213	0.722450
H141	H	0.620123	0.454772	0.713816
H142	H	0.257687	1.418056	-0.305911
H143	H	0.075121	0.673746	0.165867
H144	H	0.371063	1.418025	0.106890
H145	H	0.165119	1.218912	-0.106776
H146	H	0.891325	0.330683	0.000146
H147	H	0.453265	1.005202	-0.587117
H148	H	0.476744	0.417995	0.480495
O149	O	0.468574	0.604997	0.277765
H150	H	0.446882	0.555359	0.286390
H151	H	0.613589	1.005209	-0.412672
O152	O	-0.115798	1.367777	-0.181143
H153	H	-0.150317	1.348012	-0.171264
O154	O	0.441581	1.005223	-0.399967
H155	H	0.410851	1.005239	-0.449556
O156	O	0.680810	0.605027	0.522658
H157	H	0.656053	0.711102	0.481680
O158	O	0.625266	0.232149	0.173192
H159	H	0.656004	0.223805	0.231094
H160	H	0.613591	1.005185	-0.587088
H161	H	0.613610	0.441275	0.151204
H162	H	0.278545	0.791547	0.106938
O163	O	0.256158	1.250052	-0.122483
H164	H	0.301172	1.230260	-0.112632
O165	O	0.441586	0.778262	-0.172997
H166	H	0.449014	0.839194	-0.158994
O167	O	0.280025	1.605186	0.122440
H168	H	0.328067	1.555552	0.163409
O169	O	0.182668	0.642636	0.181410
H170	H	0.178083	0.560753	0.222364
O171	O	0.786887	0.405157	0.722512
H172	H	0.762116	0.485854	0.732316
H173	H	0.165105	1.592585	-0.106813
H174	H	-0.098265	0.791490	0.107000
O175	O	-0.189304	0.760353	0.122578
H176	H	-0.234318	0.780145	0.112693
H177	H	-0.211684	1.218853	-0.106693
H178	H	0.901747	0.417869	0.106989
H179	H	-0.008247	1.336651	-0.165571
O180	O	0.386046	1.405351	-0.522426
H181	H	0.381445	1.454947	-0.612961
O182	O	0.810699	0.605017	0.122584
H183	H	0.858742	0.555394	0.163539
H184	H	0.809165	0.592358	0.306125
O185	O	0.904847	0.305242	0.700041
H186	H	0.945269	0.279890	0.674545
H187	H	0.257665	1.418097	-0.106797
O188	O	0.162038	1.705164	0.000047
H189	H	0.175572	1.730477	0.050907
