data_functionalizedCrystal
_audit_creation_method	'MofGen! by Chris Wilmer'
_symmetry_space_group_name_H-M	'P1'
_symmetry_Int_Tables_number	1
_symmetry_cell_setting	triclinic
loop_
_symmetry_equiv_pos_as_xyz
  x,y,z
_cell_length_a	6.817900
_cell_length_b	14.125369
_cell_length_c	16.255661
_cell_angle_alpha	95.868413
_cell_angle_beta	103.488922
_cell_angle_gamma	100.397648
loop_
_atom_site_label
_atom_site_type_symbol
_atom_site_fract_x
_atom_site_fract_y
_atom_site_fract_z
V1	V	-4.010926	-0.133890	-0.263536
O2	O	-4.014855	0.005634	-0.258862
O3	O	-3.947054	-0.264711	-0.261405
O4	O	-3.962690	-0.132181	-0.378624
O5	O	-3.999111	-0.127814	-0.140831
V6	V	-4.496538	-0.117159	-0.248900
O7	O	-4.267603	-0.170588	-0.295643
O8	O	-4.690058	-0.080461	-0.216794
O9	O	-4.337204	0.013662	-0.251032
O10	O	-4.610006	-0.256683	-0.253574
O11	O	-4.625750	-0.123235	-0.371605
O12	O	-4.321568	-0.118868	-0.133812
C13	C	-3.788285	-0.296592	-0.257162
C14	C	-3.817350	-0.403543	-0.256187
C15	C	-4.056172	-0.651689	-0.258007
C16	C	-3.870671	-0.599360	-0.254432
C17	C	-3.841004	-0.490397	-0.255409
C18	C	-4.085847	-0.760662	-0.257031
C19	C	-3.808229	-0.127535	-0.406686
C20	C	-3.849972	-0.127004	-0.500769
C21	C	-3.761277	-0.120657	-0.723603
C22	C	-3.908035	-0.202573	-0.792875
C23	C	-3.926474	-0.126008	-0.673020
C24	C	-3.854117	-0.043154	-0.771388
C25	C	-4.000356	-0.125041	-0.839406
C26	C	-4.072705	-0.207997	-0.741061
C27	C	-4.018734	-0.048505	-0.719559
C28	C	-4.165625	-0.130445	-0.788811
C29	C	-3.883907	-0.126565	-0.577169
C30	C	-4.042939	-0.124490	-0.935256
C31	C	-4.159313	0.045538	-0.255272
C32	C	-4.109487	0.152488	-0.256253
C33	C	-4.139370	-0.123517	-0.105746
C34	C	-4.076866	-0.124044	-0.011663
H35	H	-3.589998	-0.116625	-0.695133
C36	C	-4.081237	0.039498	-0.676393
N37	N	-4.128293	0.105790	-0.643877
H38	H	-3.734138	-0.636394	-0.250638
H39	H	-4.192693	-0.614657	-0.261800
C40	C	-3.845412	-0.290564	-0.836011
N41	N	-3.798229	-0.356834	-0.868499
C42	C	-4.196979	-0.302218	-0.722636
N43	N	-4.290571	-0.373185	-0.708755
H44	H	-4.337007	-0.134605	-0.817147
C45	C	-3.729805	0.050966	-0.789964
N46	N	-3.636159	0.121855	-0.803952
