data_functionalizedCrystal
_audit_creation_method	'MofGen! by Chris Wilmer'
_symmetry_space_group_name_H-M	'P1'
_symmetry_Int_Tables_number	1
_symmetry_cell_setting	triclinic
loop_
_symmetry_equiv_pos_as_xyz
  x,y,z
_cell_length_a	10.908878
_cell_length_b	10.723024
_cell_length_c	9.798715
_cell_angle_alpha	90.001978
_cell_angle_beta	89.996659
_cell_angle_gamma	107.723670
loop_
_atom_site_label
_atom_site_type_symbol
_atom_site_fract_x
_atom_site_fract_y
_atom_site_fract_z
O1	O	1.702158	0.192380	-0.113468
O2	O	1.329151	0.095114	-0.113474
O3	O	1.524259	0.327180	-0.113466
O4	O	1.507051	-0.039686	-0.113476
O5	O	1.524244	0.327178	0.113516
O6	O	1.329136	0.095112	0.113508
O7	O	1.702144	0.192377	0.113514
Zn8	Zn	1.515638	0.143744	0.149549
Zn9	Zn	1.515657	0.143747	-0.149509
O10	O	1.507036	-0.039689	0.113506
C11	C	1.281382	0.086023	0.000016
C12	C	1.139068	0.058953	0.000013
C13	C	1.089189	0.157727	0.000015
C14	C	0.942100	0.129751	0.000013
C15	C	1.522999	0.373408	0.000024
C16	C	1.519252	0.511154	0.000019
C17	C	1.749912	0.201468	0.000021
C18	C	1.892227	0.228539	0.000015
C19	C	1.508296	-0.085917	0.000013
C20	C	1.512042	-0.223663	0.000009
N21	N	1.515634	0.143744	0.353649
C22	C	1.628424	0.609701	0.000019
C23	C	1.624555	0.752069	0.000014
N24	N	1.515671	0.143759	-0.353609
C25	C	1.597554	0.241534	0.421430
C26	C	1.597575	0.241543	0.578592
H27	H	0.958412	0.333822	0.000008
H28	H	1.667671	0.325253	0.363110
H29	H	1.422921	0.532183	0.000008
H30	H	1.072877	-0.046323	0.000004
H31	H	1.724755	0.588671	0.000029
C32	C	1.692329	0.354652	0.657325
C33	C	1.692256	0.354469	0.814481
C34	C	1.787014	0.467583	0.893217
C35	C	1.881845	0.580881	0.814797
C36	C	1.881922	0.581068	0.657631
C37	C	1.787164	0.467954	0.578896
H38	H	1.622053	0.270596	0.872541
H39	H	1.786956	0.467444	1.009562
H40	H	1.951991	0.664614	0.873082
H41	H	1.952125	0.664941	0.599572
H42	H	1.787222	0.468094	0.462551
C43	C	1.420913	0.030645	0.567667
C44	C	1.323054	0.058941	0.468598
C45	C	1.228296	-0.054173	0.389862
C46	C	1.231397	-0.195583	0.410195
C47	C	1.329259	-0.223886	0.509269
C48	C	1.424017	-0.110772	0.588005
H49	H	1.320755	0.163627	0.453542
H50	H	1.155852	-0.033221	0.316521
H51	H	1.161251	-0.279317	0.351911
H52	H	1.331558	-0.328572	0.524325
H53	H	1.496462	-0.131724	0.661346
H54	H	1.155380	0.263002	0.000012
H55	H	0.875913	0.024468	0.000003
H56	H	1.718014	0.836674	0.000020
H57	H	1.418578	0.691738	0.000019
H58	H	1.445509	0.060033	0.411971
