data_functionalizedCrystal
_audit_creation_method	'MofGen! by Chris Wilmer'
_symmetry_space_group_name_H-M	'P1'
_symmetry_Int_Tables_number	1
_symmetry_cell_setting	triclinic
loop_
_symmetry_equiv_pos_as_xyz
  x,y,z
_cell_length_a	11.792241
_cell_length_b	10.868271
_cell_length_c	11.792254
_cell_angle_alpha	89.994692
_cell_angle_beta	95.803993
_cell_angle_gamma	90.000107
loop_
_atom_site_label
_atom_site_type_symbol
_atom_site_fract_x
_atom_site_fract_y
_atom_site_fract_z
O1	O	-1.506915	-0.102203	0.155568
O2	O	-1.006915	0.397797	0.655568
O3	O	-1.176575	-0.102232	0.171600
O4	O	-0.676575	0.397768	0.671600
O5	O	-1.349754	-0.102208	-0.001586
O6	O	-0.849754	0.397792	0.498414
O7	O	-1.333736	-0.102227	0.328754
O8	O	-0.833736	0.397773	0.828754
O9	O	-1.349740	0.102436	-0.001592
O10	O	-0.849740	0.602436	0.498408
O11	O	-1.176561	0.102413	0.171594
O12	O	-0.676561	0.602413	0.671594
O13	O	-1.506901	0.102441	0.155561
O14	O	-1.006901	0.602441	0.655561
Zn15	Zn	-1.341729	0.134919	0.163576
Zn16	Zn	-0.841729	0.634919	0.663576
Zn17	Zn	-1.341748	-0.134709	0.163585
Zn18	Zn	-0.841748	0.365291	0.663585
O19	O	-1.333722	0.102418	0.328747
O20	O	-0.833722	0.602418	0.828747
C21	C	-1.134277	0.000087	0.170590
C22	C	-0.634277	0.500087	0.670590
C23	C	-1.008263	0.000076	0.167576
C24	C	-0.508263	0.500076	0.667576
C25	C	-1.348738	0.000114	-0.043880
C26	C	-0.848738	0.500114	0.456120
C27	C	-1.345718	0.000112	-0.169893
C28	C	-0.845718	0.500112	0.330107
C29	C	-1.549199	0.000120	0.156571
C30	C	-1.049199	0.500120	0.656571
C31	C	-1.675213	0.000123	0.159586
C32	C	-1.175213	0.500123	0.659586
N33	N	-1.341724	0.318933	0.163569
N34	N	-0.841724	0.818933	0.663569
C35	C	-0.777551	0.000112	0.162033
C36	C	-0.277551	0.500112	0.662033
C37	C	-0.905936	0.000092	0.165112
C38	C	-0.405936	0.500092	0.665112
N39	N	-1.341761	-0.318724	0.163583
N40	N	-0.841761	0.181276	0.663583
C41	C	-1.341742	0.569939	0.163583
C42	C	-0.841742	1.069939	0.663583
C43	C	-1.341728	0.430261	0.163579
C44	C	-0.841728	0.930261	0.663579
C45	C	-1.343264	0.000108	-0.272229
C46	C	-0.843264	0.500108	0.227771
C47	C	-1.340196	0.000096	-0.400616
C48	C	-0.840196	0.500096	0.099384
C49	C	-1.334738	0.000093	0.371041
C50	C	-0.834738	0.500093	0.871041
C51	C	-1.337758	0.000086	0.497054
C52	C	-0.837758	0.500086	0.997054
