data_functionalizedCrystal
_audit_creation_method	'MofGen! by Chris Wilmer'
_symmetry_space_group_name_H-M	'P1'
_symmetry_Int_Tables_number	1
_symmetry_cell_setting	triclinic
loop_
_symmetry_equiv_pos_as_xyz
  x,y,z
_cell_length_a	13.032721
_cell_length_b	13.032891
_cell_length_c	12.759393
_cell_angle_alpha	82.806273
_cell_angle_beta	97.148028
_cell_angle_gamma	90.903621
loop_
_atom_site_label
_atom_site_type_symbol
_atom_site_fract_x
_atom_site_fract_y
_atom_site_fract_z
Zn1	Zn	-0.609302	1.520288	-0.865593
Zn2	Zn	-0.781290	1.498321	-0.709060
Zn3	Zn	-0.587484	1.348295	-0.665217
Zn4	Zn	-0.759352	1.326437	-0.859984
O5	O	-0.684357	1.423335	-0.774963
O6	O	-0.650428	1.661288	-0.865524
O7	O	-0.755632	1.478374	-0.556223
O8	O	-0.446474	1.389451	-0.675796
O9	O	-0.776787	1.645148	-0.750520
O10	O	-0.462503	1.515814	-0.823012
O11	O	-0.613244	1.368150	-0.524012
O12	O	-0.591971	1.201481	-0.670357
O13	O	-0.739396	1.352197	-1.007748
O14	O	-0.718241	1.185422	-0.813452
O15	O	-0.629155	1.494619	-1.011869
O16	O	-0.922285	1.457179	-0.745081
O17	O	-0.906166	1.330896	-0.855964
C18	C	-0.650359	1.156137	-0.736539
C19	C	-0.635839	1.041825	-0.720129
C20	C	-0.676934	0.864783	-0.766577
C21	C	-0.691946	0.982929	-0.783537
C22	C	-0.951542	1.389310	-0.804699
C23	C	-1.065857	1.374848	-0.817468
C24	C	-1.124769	1.430937	-0.768354
C25	C	-1.242920	1.415992	-0.781551
C26	C	-0.416132	1.457521	-0.745139
C27	C	-0.301831	1.472089	-0.732430
C28	C	-0.684262	1.423420	-1.048996
C29	C	-0.684222	1.423456	-1.165772
C30	C	-0.718489	1.691577	-0.813538
C31	C	-0.733034	1.805885	-0.829977
C32	C	-0.626814	1.497625	-1.222782
C33	C	-0.626780	1.497654	-1.332505
C34	C	-0.741570	1.349342	-1.328200
C35	C	-0.741598	1.349309	-1.218477
C36	C	-0.560545	1.583255	-1.225270
C37	C	-0.560511	1.583284	-1.334993
C38	C	-0.684385	1.423319	-0.501997
C39	C	-0.684160	1.423518	-0.385218
H40	H	-0.576687	1.004788	-0.653294
H41	H	-0.617788	0.827740	-0.699747
O42	O	-1.291961	1.337711	-0.850185
H43	H	-1.346686	1.377569	-0.915706
O44	O	-1.252800	1.550367	-0.663786
H45	H	-1.167694	1.549822	-0.664187
O46	O	-0.811365	0.854939	-0.918525
H47	H	-0.810861	0.940038	-0.917952
H48	H	-1.102890	1.315767	-0.869291
O49	O	-0.803449	1.269369	-1.385045
H50	H	-0.861620	1.308734	-1.447466
O51	O	-1.075734	1.509229	-0.699736
H52	H	-0.990629	1.508689	-0.700146
O53	O	-0.803455	1.269268	-1.156968
H54	H	-0.843333	1.217708	-1.212051
H55	H	-0.478192	1.572070	-1.183578
H56	H	-0.598715	1.655265	-1.205287
H57	H	-0.481213	1.564405	-1.356514
O58	O	-0.602193	1.685189	-1.392767
H59	H	-0.622637	1.735051	-1.334036
H60	H	-0.751088	1.019968	-0.850380
