data_functionalizedCrystal
_audit_creation_method	'MofGen! by Chris Wilmer'
_symmetry_space_group_name_H-M	'P1'
_symmetry_Int_Tables_number	1
_symmetry_cell_setting	triclinic
loop_
_symmetry_equiv_pos_as_xyz
  x,y,z
_cell_length_a	18.215407
_cell_length_b	19.805405
_cell_length_c	19.805399
_cell_angle_alpha	90.030709
_cell_angle_beta	90.016085
_cell_angle_gamma	90.026858
loop_
_atom_site_label
_atom_site_type_symbol
_atom_site_fract_x
_atom_site_fract_y
_atom_site_fract_z
Zn1	Zn	1.125037	-0.269461	0.382697
Zn2	Zn	1.124950	-0.382653	0.269505
Zn3	Zn	1.001978	-0.269484	0.269523
Zn4	Zn	1.001932	-0.382615	0.382654
O5	O	1.063474	-0.326053	0.326095
O6	O	1.228010	-0.284483	0.367693
O7	O	1.108620	-0.367666	0.174791
O8	O	1.018357	-0.174764	0.284562
O9	O	1.227946	-0.367644	0.284531
O10	O	1.108768	-0.174748	0.367710
O11	O	1.018273	-0.284521	0.174804
O12	O	0.898987	-0.284484	0.284520
O13	O	1.018280	-0.367579	0.477376
O14	O	0.898954	-0.367601	0.367636
O15	O	1.108724	-0.284446	0.477408
O16	O	1.108576	-0.477364	0.284489
O17	O	1.018195	-0.477336	0.367619
C18	C	0.872268	-0.326042	0.326075
C19	C	0.790469	-0.326053	0.326083
C20	C	1.063391	-0.501909	0.326062
C21	C	1.063423	-0.577141	0.326071
C22	C	0.602277	-0.369400	0.369308
C23	C	0.525418	-0.369402	0.369316
C24	C	0.525423	-0.282719	0.282897
C25	C	0.602281	-0.282714	0.282892
C26	C	0.640706	-0.326058	0.326097
C27	C	0.486989	-0.326065	0.326110
C28	C	0.403656	-0.326067	0.326119
C29	C	0.724044	-0.326055	0.326089
C30	C	1.110530	-0.612477	0.282831
C31	C	1.110562	-0.683166	0.282845
C32	C	1.063482	-0.718517	0.326098
C33	C	1.016372	-0.683176	0.369343
C34	C	1.016345	-0.612488	0.369331
C35	C	1.016481	-0.968249	0.369393
C36	C	1.016510	-1.038941	0.369400
C37	C	1.110697	-1.038926	0.282908
C38	C	1.110670	-0.968239	0.282896
C39	C	1.063564	-0.932904	0.326143
C40	C	1.063532	-0.856256	0.326127
C41	C	1.063510	-0.795164	0.326111
C42	C	1.255427	-0.326065	0.326115
C43	C	1.337226	-0.326070	0.326123
C44	C	1.063506	-0.326006	0.502638
C45	C	1.063520	-0.325986	0.577870
C46	C	1.063577	-0.149510	0.326143
C47	C	1.063621	-0.074278	0.326163
C48	C	1.063484	-0.326051	0.150239
C49	C	1.063613	-0.325880	0.075007
C50	C	1.016490	-0.282689	0.613220
C51	C	1.016500	-0.282675	0.683909
C52	C	1.063545	-0.325957	0.719245
C53	C	1.110577	-0.369259	0.683890
C54	C	1.110563	-0.369275	0.613203
C55	C	1.110636	-0.369196	0.968963
C56	C	1.110648	-0.369175	1.039656
C57	C	1.016573	-0.282596	1.039669
C58	C	1.016558	-0.282612	0.968982
C59	C	1.063588	-0.325917	0.933633
C60	C	1.063575	-0.325931	0.856984
C61	C	1.063562	-0.325939	0.795893
H62	H	0.494133	-0.404694	0.404504
H63	H	0.978200	-0.247421	0.712688
C64	C	0.407608	-0.244236	0.244532
C65	C	0.483184	-0.235079	0.235406
H66	H	0.381534	-0.214827	0.215208
H67	H	0.395038	-0.234389	0.290022
H68	H	0.394996	-0.289704	0.234542
H69	H	0.495797	-0.189613	0.245400
H70	H	0.495759	-0.244922	0.189905
H71	H	1.149056	-1.067704	0.247696
H72	H	0.977987	-0.583718	0.404542
C73	C	0.923364	-0.975374	0.454873
C74	C	0.964688	-0.929415	0.416916
H75	H	0.891383	-0.951396	0.484207
H76	H	0.955418	-1.002897	0.480800
H77	H	0.895257	-1.002991	0.425351
H78	H	0.992800	-0.901801	0.446438
H79	H	0.932630	-0.901880	0.390987
C80	C	1.006298	-0.191654	0.533758
C81	C	0.964775	-0.235111	0.574383
H82	H	0.974368	-0.162280	0.509787
H83	H	1.034298	-0.217441	0.502588
H84	H	1.038381	-0.165762	0.561352
H85	H	0.932696	-0.261006	0.546788
H86	H	0.936763	-0.209321	0.605557
C87	C	0.594572	-0.197033	0.197462
C88	C	0.644527	-0.235071	0.235389
H89	H	0.620655	-0.167625	0.168135
H90	H	0.564619	-0.171181	0.226998
H91	H	0.564571	-0.226499	0.171521
H92	H	0.674525	-0.205604	0.261333
H93	H	0.674493	-0.260924	0.205849
H94	H	0.978173	-1.067722	0.404627
C95	C	1.152611	-0.791517	0.244627
C96	C	1.162466	-0.722008	0.235429
H97	H	1.184698	-0.815495	0.215390
H98	H	1.103225	-0.803205	0.234573
H99	H	1.163240	-0.802992	0.290156
H100	H	1.151833	-0.710532	0.189901
H101	H	1.211864	-0.710315	0.245478
C102	C	1.203631	-0.454776	1.032546
C103	C	1.162358	-0.416759	1.078499
H104	H	1.235549	-0.484152	1.056528
H105	H	1.231797	-0.425300	1.004987
H106	H	1.171536	-0.480667	1.004964
H107	H	1.194453	-0.390863	1.106078
H108	H	1.134190	-0.446239	1.106069
C109	C	0.625971	-0.402504	0.483860
C110	C	0.644516	-0.417035	0.416804
H111	H	0.652051	-0.431909	0.513183
H112	H	0.574704	-0.408712	0.490042
H113	H	0.638594	-0.357036	0.493834
H114	H	0.631888	-0.462502	0.406828
H115	H	0.695795	-0.410833	0.410619
C116	C	1.146336	-0.483894	0.591410
C117	C	1.162259	-0.416870	0.574342
H118	H	1.178253	-0.513278	0.567422
H119	H	1.096886	-0.493791	0.579817
H120	H	1.153081	-0.490069	0.638567
H121	H	1.155508	-0.410693	0.527186
H122	H	1.211721	-0.406969	0.585931
C123	C	1.235177	-0.402237	0.705651
C124	C	1.162291	-0.416836	0.722730
H125	H	1.267103	-0.431613	0.729626
H126	H	1.245972	-0.356764	0.717253
H127	H	1.241889	-0.408446	0.658492
H128	H	1.155578	-0.410622	0.769889
H129	H	1.151493	-0.462320	0.711132
C130	C	1.152386	-0.407676	0.860605
C131	C	1.162332	-0.416792	0.930113
H132	H	1.184300	-0.437065	0.836620
H133	H	1.163183	-0.362209	0.849036
H134	H	1.102928	-0.417582	0.849021
H135	H	1.211788	-0.406881	0.941698
H136	H	1.151540	-0.462270	0.941687
C137	C	1.203638	-0.619570	0.197337
C138	C	1.162283	-0.573623	0.235285
H139	H	1.235592	-0.595583	0.167988
H140	H	1.171603	-0.647182	0.171426
H141	H	1.231777	-0.647099	0.226864
H142	H	1.134140	-0.546097	0.205758
H143	H	1.194322	-0.546000	0.261198
C144	C	0.974585	-0.791539	0.407762
C145	C	0.964619	-0.722032	0.416885
H146	H	0.942628	-0.815525	0.437110
H147	H	1.024022	-0.803077	0.417715
H148	H	0.963850	-0.803155	0.362275
H149	H	0.975358	-0.710415	0.462372
H150	H	0.915170	-0.710489	0.406938
C151	C	1.146597	-0.946529	0.168310
C152	C	1.162424	-0.929384	0.235352
H153	H	1.178553	-0.922545	0.138961
H154	H	1.097160	-0.934984	0.158363
H155	H	1.153356	-0.993686	0.162137
H156	H	1.155659	-0.882227	0.241526
H157	H	1.211873	-0.940924	0.245302
H158	H	0.978252	-0.247366	0.940214
C159	C	0.974804	-0.244129	1.148034
C160	C	0.964866	-0.235002	1.078527
H161	H	0.942880	-0.214749	1.172021
H162	H	1.024252	-0.234222	1.159626
H163	H	0.964007	-0.289605	1.159596
H164	H	0.975668	-0.189527	1.066965
H165	H	0.915407	-0.244904	1.066931
