data_functionalizedCrystal
_audit_creation_method	'MofGen! by Chris Wilmer'
_symmetry_space_group_name_H-M	'P1'
_symmetry_Int_Tables_number	1
_symmetry_cell_setting	triclinic
loop_
_symmetry_equiv_pos_as_xyz
  x,y,z
_cell_length_a	12.837943
_cell_length_b	16.109301
_cell_length_c	14.586319
_cell_angle_alpha	90.005214
_cell_angle_beta	90.002400
_cell_angle_gamma	89.145210
loop_
_atom_site_label
_atom_site_type_symbol
_atom_site_fract_x
_atom_site_fract_y
_atom_site_fract_z
O1	O	-1.375379	-0.216129	-0.076230
O2	O	-1.073577	-0.205453	-0.076235
O3	O	-1.232769	-0.090419	-0.076223
O4	O	-1.216188	-0.331163	-0.076242
O5	O	-1.232758	-0.090416	0.076257
O6	O	-1.073566	-0.205450	0.076245
O7	O	-1.375368	-0.216126	0.076251
Cu8	Cu	-1.224466	-0.210788	0.090171
Cu9	Cu	-1.224479	-0.210791	-0.090156
O10	O	-1.216177	-0.331161	0.076239
C11	C	-1.034953	-0.201845	0.000005
C12	C	-0.919879	-0.191088	0.000003
C13	C	-1.232092	-0.059389	0.000018
C14	C	-1.230078	0.033066	0.000019
C15	C	-1.413993	-0.219735	0.000009
C16	C	-1.529067	-0.230491	0.000004
C17	C	-0.678877	-0.320405	0.000006
C18	C	-0.570755	-0.310302	0.000005
C19	C	-0.595510	-0.160779	0.000007
C20	C	-0.703632	-0.170882	0.000008
C21	C	-0.745312	-0.250698	0.000006
C22	C	-0.853436	-0.260800	0.000000
C23	C	-0.878189	-0.111278	0.000009
C24	C	-0.770067	-0.101175	0.000008
C25	C	-1.216854	-0.362190	-0.000004
C26	C	-1.218868	-0.454645	-0.000012
N27	N	-1.224465	-0.210786	0.217002
C28	C	-1.319857	0.248206	0.000006
C29	C	-1.317957	0.335078	-0.000002
C30	C	-1.129081	0.330208	-0.000001
C31	C	-1.130983	0.243338	-0.000000
C32	C	-1.226374	0.202340	0.000008
C33	C	-1.222572	0.376081	-0.000001
C34	C	-1.220511	0.470271	-0.000009
C35	C	-1.228435	0.108144	0.000014
N36	N	-1.224489	-0.210787	-0.216987
C37	C	-1.294978	-0.159869	0.452014
C38	C	-1.294981	-0.159868	0.547995
C39	C	-1.153968	-0.261706	0.547994
C40	C	-1.153961	-0.261703	0.452015
C41	C	-1.224472	-0.210786	0.404027
C42	C	-1.224482	-0.210787	0.595988
C43	C	-1.224485	-0.210786	0.700055
C44	C	-1.224468	-0.210786	0.299953
H45	H	-0.887369	-0.325790	0.000000
F46	F	-0.723238	-0.405349	-0.000007
H47	H	-1.352391	-0.118409	0.412945
H48	H	-0.516666	-0.367065	0.000007
H49	H	-1.394081	0.372419	-0.000005
H50	H	-0.561555	-0.095797	0.000084
H51	H	-1.051417	0.363600	-0.000006
H52	H	-1.352392	-0.118406	0.587064
F53	F	-1.078911	-0.315894	0.400939
H54	H	-1.096561	-0.303163	0.587075
F55	F	-1.421380	0.204576	0.000013
F56	F	-0.725697	-0.016234	0.000013
H57	H	-0.932293	-0.054518	0.000003
H58	H	-1.054852	0.205992	-0.000001
