data_functionalizedCrystal
_audit_creation_method	'MofGen! by Chris Wilmer'
_symmetry_space_group_name_H-M	'P1'
_symmetry_Int_Tables_number	1
_symmetry_cell_setting	triclinic
loop_
_symmetry_equiv_pos_as_xyz
  x,y,z
_cell_length_a	19.188925
_cell_length_b	19.188930
_cell_length_c	16.776229
_cell_angle_alpha	90.011775
_cell_angle_beta	90.008094
_cell_angle_gamma	83.143665
loop_
_atom_site_label
_atom_site_type_symbol
_atom_site_fract_x
_atom_site_fract_y
_atom_site_fract_z
O1	O	0.926150	0.087151	0.066314
O2	O	0.722838	0.098889	0.066313
O3	O	0.830361	-0.008636	0.066298
O4	O	0.818627	0.194676	0.066329
O5	O	0.830347	-0.008642	-0.066278
O6	O	0.722824	0.098883	-0.066263
O7	O	0.926135	0.087145	-0.066262
Zn8	Zn	0.824477	0.093013	-0.087312
Zn9	Zn	0.824496	0.093021	0.087363
O10	O	0.818612	0.194669	-0.066247
C11	C	0.696820	0.098507	0.000025
C12	C	0.619315	0.097367	0.000024
C13	C	0.057545	0.152831	0.000034
C14	C	0.130368	0.153908	0.000038
C15	C	0.175302	0.090816	0.000027
C16	C	0.147408	0.026642	0.000032
C17	C	0.074586	0.025568	0.000036
N18	N	0.295975	0.045137	-0.045110
N19	N	0.365152	0.046163	-0.045115
C20	C	0.394712	0.094050	0.000018
N21	N	0.352479	0.140884	0.045147
N22	N	0.283295	0.139861	0.045148
C23	C	0.254267	0.091974	0.000024
C24	C	0.501561	0.159386	0.000024
C25	C	0.574385	0.160460	0.000033
C26	C	0.591425	0.033193	0.000019
C27	C	0.518601	0.032121	0.000018
C28	C	0.473673	0.095220	0.000016
C29	C	0.829974	-0.034650	0.000008
C30	C	0.828833	-0.112154	0.000001
C31	C	0.891924	-0.157079	-0.000003
C32	C	0.890852	-0.229903	0.000010
C33	C	0.826686	-0.257799	0.000010
C34	C	0.763587	-0.212864	0.000018
C35	C	0.764660	-0.140041	0.000014
N36	N	0.777634	-0.365805	-0.045108
N37	N	0.776618	-0.434983	-0.045105
C38	C	0.823448	-0.477207	0.000026
N39	N	0.871342	-0.447640	0.045145
N40	N	0.872360	-0.378456	0.045139
C41	C	0.825515	-0.336761	0.000016
C42	C	0.885381	-0.601097	0.000038
C43	C	0.884307	-0.673922	0.000056
C44	C	0.757040	-0.656880	0.000056
C45	C	0.758116	-0.584057	0.000046
C46	C	0.822289	-0.556170	0.000033
C47	C	0.952154	0.087527	0.000028
C48	C	1.029658	0.088666	0.000034
C49	C	0.819000	0.220684	0.000045
C50	C	0.820140	0.298188	0.000057
N51	N	0.824470	0.093006	-0.206523
C52	C	0.872095	0.045414	-0.248247
C53	C	0.872099	0.045413	-0.331699
C54	C	0.824480	0.093009	-0.373426
C55	C	0.776849	0.140604	-0.331697
C56	C	0.776843	0.140601	-0.248246
C57	C	0.776875	0.140617	-0.668244
C58	C	0.776886	0.140618	-0.751700
C59	C	0.872131	0.045430	-0.751697
C60	C	0.872124	0.045427	-0.668246
C61	C	0.824492	0.093019	-0.626524
C62	C	0.824487	0.093018	-0.536036
C63	C	0.824487	0.093014	-0.463913
N64	N	0.824509	0.093022	0.206574
H65	H	0.051883	-0.026685	0.000036
H66	H	0.597088	0.212713	0.000040
O67	O	0.488524	-0.037090	0.000003
H68	H	0.455766	-0.040626	0.054043
O69	O	0.725463	0.191924	-0.203244
H70	H	0.733448	0.183917	-0.138206
H71	H	0.944179	-0.134379	-0.000010
H72	H	0.910914	0.006676	-0.785676
H73	H	0.937635	-0.578390	0.000031
O74	O	0.725509	0.191952	-0.623247
H75	H	0.692405	0.225054	-0.666285
H76	H	0.935686	-0.710500	0.000057
O77	O	0.690063	-0.535602	0.000035
H78	H	0.687507	-0.502007	0.054071
H79	H	0.020968	0.204211	0.000037
H80	H	0.183999	-0.024728	0.000026
O81	O	0.958903	-0.278371	-0.000008
H82	H	0.989641	-0.268473	0.054018
O83	O	0.160459	0.223116	0.000026
H84	H	0.116984	0.266811	0.000019
H85	H	0.464978	0.210765	0.000024
O86	O	0.694376	-0.242944	0.000010
H87	H	0.704229	-0.301130	0.000001
O88	O	0.923469	-0.005921	-0.376698
H89	H	0.915469	0.002069	-0.441736
H90	H	0.738074	0.179355	-0.365676
O91	O	0.923453	-0.005925	-0.203242
H92	H	0.956565	-0.039024	-0.246279
O93	O	0.923480	-0.005912	-0.623239
H94	H	0.956594	-0.039013	-0.666273
O95	O	0.725535	0.191966	-0.796711
H96	H	0.692411	0.225061	-0.753680
O97	O	0.687830	-0.686957	0.000050
H98	H	0.684302	-0.719720	0.054085
O99	O	0.639880	-0.034859	0.000001
H100	H	0.673478	-0.037410	0.054031
O101	O	0.696610	-0.091579	0.000004
H102	H	0.651809	-0.123207	0.000000
