data_functionalizedCrystal
_audit_creation_method	'MofGen! by Chris Wilmer'
_symmetry_space_group_name_H-M	'P1'
_symmetry_Int_Tables_number	1
_symmetry_cell_setting	triclinic
loop_
_symmetry_equiv_pos_as_xyz
  x,y,z
_cell_length_a	14.184680
_cell_length_b	15.625164
_cell_length_c	10.723024
_cell_angle_alpha	95.649778
_cell_angle_beta	76.720931
_cell_angle_gamma	94.288107
loop_
_atom_site_label
_atom_site_type_symbol
_atom_site_fract_x
_atom_site_fract_y
_atom_site_fract_z
O1	O	-0.323573	-1.118521	0.272640
O2	O	-0.235868	-0.877496	0.262312
O3	O	-0.281747	-1.003567	0.086526
O4	O	-0.277694	-0.992450	0.448426
O5	O	-0.435037	-0.966278	0.138456
O6	O	-0.389158	-0.840207	0.314243
O7	O	-0.476862	-1.081232	0.324571
Cu8	Cu	-0.447007	-0.957315	0.324148
Cu9	Cu	-0.265724	-1.001413	0.262734
O10	O	-0.430984	-0.955161	0.500357
C11	C	-0.301283	-0.827989	0.283590
C12	C	-0.267821	-0.736031	0.269610
N13	N	-0.574514	-0.926304	0.367344
C14	C	-0.358096	-0.984114	0.065900
C15	C	-0.357212	-0.981694	-0.072927
C16	C	-0.698959	-0.835286	0.494183
C17	C	-0.602460	-0.858748	0.461484
C18	C	-0.643065	-0.970427	0.305872
C19	C	-0.739571	-0.946976	0.338563
C20	C	-0.767509	-0.879405	0.432718
C21	C	-0.808120	-0.991095	0.277098
C22	C	-0.904616	-0.967643	0.309782
C23	C	-0.932562	-0.900073	0.403931
C24	C	-0.864005	-0.855953	0.465403
C25	C	-0.780179	-1.058663	0.182936
C26	C	-0.848729	-1.102782	0.121471
C27	C	-0.945228	-1.079334	0.154161
C28	C	-0.973174	-1.011763	0.248311
C29	C	-1.013785	-1.123454	0.092690
C30	C	-1.110281	-1.100002	0.125374
C31	C	-1.069670	-0.988311	0.280995
N32	N	-0.138220	-1.032430	0.219530
C33	C	-0.137106	-0.626742	0.221601
C34	C	-0.168558	-0.713149	0.234741
C35	C	-0.335671	-0.672506	0.291360
C36	C	-0.304233	-0.586093	0.278232
C37	C	-0.204949	-0.563219	0.243351
C38	C	-0.372076	-0.522570	0.299981
C39	C	-0.340639	-0.436165	0.286847
C40	C	-0.241360	-0.413284	0.251963
C41	C	-0.173513	-0.476814	0.230216
C42	C	-0.471359	-0.545446	0.334853
C43	C	-0.539202	-0.481923	0.356602
C44	C	-0.507766	-0.395516	0.343477
C45	C	-0.408487	-0.372634	0.308593
C46	C	-0.575614	-0.331985	0.365223
C47	C	-0.544177	-0.245581	0.352089
C48	C	-0.377051	-0.286230	0.295459
C49	C	-0.411444	-0.130741	0.303276
C50	C	-0.444894	-0.222707	0.317208
C51	C	-0.382880	-1.052237	-0.139984
C52	C	-0.381967	-1.049738	-0.283470
C53	C	-0.354633	-0.974615	0.520982
C54	C	-0.355511	-0.977036	0.659807
H55	H	-1.092419	-0.933294	0.357675
C56	C	-0.505937	-0.640493	0.349324
N57	N	-0.531979	-0.712082	0.360235
C58	C	-0.411655	-1.131326	-0.361345
N59	N	-0.434015	-1.192782	-0.420004
H60	H	-0.056259	-0.608116	0.193213
C61	C	-1.038712	-0.874276	0.439887
N62	N	-1.118665	-0.854848	0.466970
H63	H	-0.092666	-0.458189	0.201828
H64	H	-0.334556	-0.919449	-0.121746
H65	H	-0.333542	-0.916641	-0.282551
C66	C	-0.206779	-0.318235	0.237517
N67	N	-0.180733	-0.246644	0.226639
C68	C	-0.648410	-0.507091	0.395026
N69	N	-0.730667	-0.526044	0.423992
C70	C	-0.894743	-0.781624	0.568985
N71	N	-0.917895	-0.725641	0.646999
H72	H	-0.296204	-0.267604	0.267071
H73	H	-0.721708	-0.780268	0.570864
H74	H	-0.991023	-1.178466	0.016019
C75	C	-0.527043	-0.810175	0.529054
N76	N	-0.470235	-0.773576	0.579925
C77	C	-0.093916	-0.783024	0.210826
N78	N	-0.037697	-0.835653	0.192817
H79	H	-0.620305	-1.025443	0.229205
C80	C	-0.684822	-0.357157	0.403631
N81	N	-0.767078	-0.376114	0.432579
H82	H	-0.416509	-0.691143	0.319756
C83	C	-1.185693	-1.148542	0.057771
N84	N	-1.242494	-1.185105	0.006852
H85	H	-0.599422	-0.193855	0.369823
C86	C	-0.674033	-1.084469	0.147002
N87	N	-0.594085	-1.103911	0.119945
C88	C	-0.413487	-1.136331	-0.074040
N89	N	-0.436545	-1.199671	-0.024371
H90	H	-0.825969	-1.157797	0.044805
