data_functionalizedCrystal
_audit_creation_method	'MofGen! by Chris Wilmer'
_symmetry_space_group_name_H-M	'P1'
_symmetry_Int_Tables_number	1
_symmetry_cell_setting	triclinic
loop_
_symmetry_equiv_pos_as_xyz
  x,y,z
_cell_length_a	6.817900
_cell_length_b	17.078472
_cell_length_c	14.125465
_cell_angle_alpha	96.559241
_cell_angle_beta	100.398878
_cell_angle_gamma	99.306020
loop_
_atom_site_label
_atom_site_type_symbol
_atom_site_fract_x
_atom_site_fract_y
_atom_site_fract_z
V1	V	-3.970629	-0.109086	-0.299880
O2	O	-3.980635	0.005943	-0.294271
O3	O	-3.901925	-0.216974	-0.297734
O4	O	-3.907148	-0.107100	-0.430712
O5	O	-3.975376	-0.104691	-0.160372
V6	V	-4.458842	-0.095363	-0.283206
O7	O	-4.221600	-0.139187	-0.336458
O8	O	-4.658069	-0.065262	-0.246628
O9	O	-4.304340	0.012524	-0.285352
O10	O	-4.566233	-0.210393	-0.288815
O11	O	-4.571492	-0.099759	-0.422714
O12	O	-4.299117	-0.097349	-0.152374
C13	C	-3.742474	-0.243284	-0.292978
C14	C	-3.767487	-0.331482	-0.292095
C15	C	-3.749136	-0.103129	-0.462604
C16	C	-3.778382	-0.102219	-0.569559
C17	C	-3.960014	-0.376947	-0.296476
C18	C	-3.983506	-0.459818	-0.295652
C19	C	-3.814466	-0.497222	-0.290440
C20	C	-3.621925	-0.451751	-0.286062
C21	C	-3.598437	-0.368882	-0.286893
C22	C	-3.865328	-0.744633	-0.287447
C23	C	-3.888830	-0.827508	-0.286614
C24	C	-4.250411	-0.835569	-0.296205
C25	C	-4.226904	-0.752698	-0.297030
C26	C	-4.034368	-0.707235	-0.292657
N27	N	-3.838473	-0.581930	-0.289595
N28	N	-4.010365	-0.622530	-0.293509
C29	C	-3.831989	-0.100551	-0.765384
C30	C	-4.016852	-0.103897	-0.817702
C31	C	-4.046681	-0.102969	-0.926666
C32	C	-3.802152	-0.101479	-0.656410
C33	C	-4.127132	0.038830	-0.290105
C34	C	-4.081357	0.127027	-0.290994
C35	C	-4.120471	-0.101324	-0.120477
C36	C	-4.070464	-0.102229	-0.013521
H37	H	-4.097666	-0.346498	-0.300710
H38	H	-3.696137	-0.096990	-0.802425
H39	H	-4.152718	-0.107467	-0.780661
H40	H	-4.140279	-0.496833	-0.299221
H41	H	-4.407168	-0.872594	-0.299765
Cl42	Cl	-4.439412	-0.705677	-0.303545
H43	H	-3.441665	-0.331865	-0.283330
Cl44	Cl	-3.623281	-0.687489	-0.281941
Cl45	Cl	-3.676309	-0.874530	-0.280076
H46	H	-3.484293	-0.482212	-0.281825
