data_functionalizedCrystal
_audit_creation_method	'MofGen! by Chris Wilmer'
_symmetry_space_group_name_H-M	'P1'
_symmetry_Int_Tables_number	1
_symmetry_cell_setting	triclinic
loop_
_symmetry_equiv_pos_as_xyz
  x,y,z
_cell_length_a	13.032831
_cell_length_b	21.295417
_cell_length_c	13.033109
_cell_angle_alpha	82.851023
_cell_angle_beta	103.334486
_cell_angle_gamma	82.834379
loop_
_atom_site_label
_atom_site_type_symbol
_atom_site_fract_x
_atom_site_fract_y
_atom_site_fract_z
Zn1	Zn	1.699936	-0.442513	0.806304
Zn2	Zn	2.199936	0.057487	1.306304
Zn3	Zn	1.677232	-0.532462	0.628666
Zn4	Zn	2.177232	-0.032462	1.128666
Zn5	Zn	1.499773	-0.411896	0.606204
Zn6	Zn	1.999773	0.088104	1.106204
Zn7	Zn	1.522247	-0.532406	0.783710
Zn8	Zn	2.022247	-0.032406	1.283710
O9	O	1.599797	-0.479819	0.706221
O10	O	2.099797	0.020181	1.206221
O11	O	1.845556	-0.467281	0.801596
O12	O	2.345556	0.032719	1.301596
O13	O	1.634785	-0.503679	0.477057
O14	O	2.134785	-0.003679	0.977057
O15	O	1.526421	-0.327880	0.632804
O16	O	2.026421	0.172120	1.132804
O17	O	1.828875	-0.533366	0.671086
O18	O	2.328875	-0.033366	1.171086
O19	O	1.673480	-0.350374	0.779816
O20	O	2.173480	0.149626	1.279816
O21	O	1.504406	-0.415100	0.460555
O22	O	2.004406	0.084900	0.960555
O23	O	1.354123	-0.415046	0.610895
O24	O	1.854123	0.084954	1.110895
O25	O	1.564725	-0.533272	0.935336
O26	O	2.064725	-0.033272	1.435336
O27	O	1.370635	-0.503584	0.741307
O28	O	1.870635	-0.003584	1.241307
O29	O	1.695273	-0.467227	0.951935
O30	O	2.195273	0.032773	1.451935
O31	O	1.656577	-0.620532	0.649177
O32	O	2.156577	-0.120532	1.149177
O33	O	1.542710	-0.620491	0.763087
O34	O	2.042710	-0.120491	1.263087
C35	C	1.323841	-0.455987	0.671213
C36	C	1.823841	0.044013	1.171213
C37	C	1.205789	-0.445809	0.656261
C38	C	1.705789	0.054191	1.156261
C39	C	1.599650	-0.643354	0.706144
C40	C	2.099650	-0.143354	1.206144
C41	C	1.599689	-0.713326	0.706159
C42	C	2.099689	-0.213326	1.206159
C43	C	1.161342	-0.485131	0.714024
C44	C	1.661342	0.014869	1.214024
C45	C	1.039329	-0.474613	0.698572
C46	C	1.539329	0.025387	1.198572
C47	C	1.659049	-0.746204	0.646924
C48	C	2.159049	-0.246204	1.146924
C49	C	1.659102	-0.811953	0.646954
C50	C	2.159102	-0.311953	1.146954
C51	C	1.599775	-0.844819	0.706206
C52	C	2.099775	-0.344819	1.206206
C53	C	1.540412	-0.811933	0.765455
C54	C	2.040412	-0.311933	1.265455
C55	C	1.540369	-0.746187	0.765431
C56	C	2.040369	-0.246187	1.265431
N57	N	1.507889	-0.940762	0.702516
N58	N	2.007889	-0.440762	1.202516
N59	N	1.507932	-1.003218	0.702532
N60	N	2.007932	-0.503218	1.202532
C61	C	1.599901	-1.042909	0.706282
C62	C	2.099901	-0.542909	1.206282
N63	N	1.691826	-1.017783	0.709995
N64	N	2.191826	-0.517783	1.209995
N65	N	1.691782	-0.955320	0.709973
N66	N	2.191782	-0.455320	1.209973
C67	C	1.599815	-0.916110	0.706239
C68	C	2.099815	-0.416110	1.206239
C69	C	1.659324	-1.147080	0.647076
C70	C	2.159324	-0.647080	1.147076
C71	C	1.659379	-1.212830	0.647114
C72	C	2.159379	-0.712830	1.147114
C73	C	1.540679	-1.212808	0.765608
C74	C	2.040679	-0.712808	1.265608
C75	C	1.540634	-1.147060	0.765577
C76	C	2.040634	-0.647060	1.265577
C77	C	1.599954	-1.114199	0.706305
C78	C	2.099954	-0.614199	1.206305
C79	C	1.876831	-0.503745	0.741366
C80	C	2.376831	-0.003745	1.241366
C81	C	1.994887	-0.513941	0.756343
C82	C	2.494887	-0.013941	1.256343
C83	C	1.635039	-0.503658	0.983251
C84	C	2.135039	-0.003658	1.483251
C85	C	1.650057	-0.513817	1.101304
C86	C	2.150057	-0.013817	1.601304
C87	C	1.599976	-0.315651	0.706324
C88	C	2.099976	0.184349	1.206324
C89	C	1.600053	-0.245692	0.706369
C90	C	2.100053	0.254308	1.206369
C91	C	1.564754	-0.456033	0.430276
C92	C	2.064754	0.043967	0.930276
C93	C	1.549942	-0.445714	0.312249
C94	C	2.049942	0.054286	0.812249
C95	C	1.592243	-0.474519	1.145772
C96	C	2.092243	0.025481	1.645772
C97	C	1.607763	-0.485018	1.267786
C98	C	2.107763	0.014982	1.767786
H99	H	1.213620	-0.526582	0.774920
H100	H	1.713620	-0.026582	1.274920
Br101	Br	1.460174	-1.257406	0.846036
Br102	Br	1.960174	-0.757406	1.346036
H103	H	1.492292	-1.120288	0.813807
H104	H	1.992292	-0.620288	1.313807
H105	H	1.153512	-0.404355	0.595373
H106	H	1.653512	0.095645	1.095373
Br107	Br	1.709411	-0.554059	1.354876
Br108	Br	2.209411	-0.054059	1.854876
Br109	Br	1.448253	-0.376693	1.225157
Br110	Br	1.948253	0.123307	1.725157
H111	H	1.711042	-0.555235	1.153565
H112	H	2.211042	-0.055235	1.653565
H113	H	1.531253	-0.433105	1.093510
H114	H	2.031253	0.066895	1.593510
Br115	Br	0.952212	-0.405512	0.597081
Br116	Br	1.452212	0.094488	1.097081
H117	H	1.707354	-0.719451	0.598664
H118	H	2.207354	-0.219451	1.098664
Br119	Br	1.082005	-0.583027	0.857865
Br120	Br	1.582005	-0.083027	1.357865
Br121	Br	1.459905	-0.856536	0.845879
Br122	Br	1.959905	-0.356536	1.345879
Br123	Br	1.739668	-0.856584	0.566557
Br124	Br	2.239668	-0.356584	1.066557
Br125	Br	1.459805	-0.701564	0.845831
Br126	Br	1.959805	-0.201564	1.345831
Br127	Br	1.739823	-1.102478	0.566635
Br128	Br	2.239823	-0.602478	1.066635
Br129	Br	1.739959	-1.257454	0.566728
Br130	Br	2.239959	-0.757454	1.066728
