data_functionalizedCrystal
_audit_creation_method	'MofGen! by Chris Wilmer'
_symmetry_space_group_name_H-M	'P1'
_symmetry_Int_Tables_number	1
_symmetry_cell_setting	triclinic
loop_
_symmetry_equiv_pos_as_xyz
  x,y,z
_cell_length_a	13.635800
_cell_length_b	9.582860
_cell_length_c	17.982626
_cell_angle_alpha	77.459061
_cell_angle_beta	77.554083
_cell_angle_gamma	68.793233
loop_
_atom_site_label
_atom_site_type_symbol
_atom_site_fract_x
_atom_site_fract_y
_atom_site_fract_z
V1	V	1.892675	-0.208494	0.237410
O2	O	1.868094	0.008538	0.233034
O3	O	1.889104	-0.411984	0.235648
O4	O	1.806776	-0.205936	0.341015
O5	O	1.950993	-0.198936	0.126937
V6	V	2.139810	-0.182457	0.224213
O7	O	2.011515	-0.265606	0.266358
O8	O	2.246068	-0.125345	0.195265
O9	O	2.031777	0.021033	0.225975
O10	O	2.223089	-0.399489	0.228589
O11	O	2.140191	-0.192015	0.334686
O12	O	2.114106	-0.185015	0.120608
V13	V	2.392675	-0.208494	0.237410
O14	O	2.368094	0.008538	0.233034
O15	O	2.389104	-0.411984	0.235648
O16	O	2.306776	-0.205936	0.341015
O17	O	2.450993	-0.198936	0.126937
V18	V	2.639810	-0.182457	0.224213
O19	O	2.511515	-0.265606	0.266358
O20	O	2.746068	-0.125345	0.195265
O21	O	2.531777	0.021033	0.225975
O22	O	2.723089	-0.399489	0.228589
O23	O	2.640191	-0.192015	0.334686
O24	O	2.614106	-0.185015	0.120608
C25	C	1.818620	-0.461570	0.231867
C26	C	1.855933	-0.627930	0.231117
C27	C	1.713602	-0.198734	0.366273
C28	C	1.684148	-0.197990	0.450970
C29	C	1.697249	-0.334765	0.501539
C30	C	1.669593	-0.334089	0.581124
C31	C	1.628829	-0.196635	0.610137
C32	C	1.615732	-0.059849	0.559562
C33	C	1.643395	-0.060527	0.479979
C34	C	1.933935	0.070611	0.229754
C35	C	1.886238	0.236970	0.230509
C36	C	2.038954	-0.192222	0.095346
C37	C	2.058026	-0.192959	0.010648
C38	C	1.979118	-0.200808	-0.025271
C39	C	1.997049	-0.201516	-0.104853
C40	C	2.093891	-0.194385	-0.148513
C41	C	2.172803	-0.186531	-0.112589
C42	C	2.154869	-0.185812	-0.033009
C43	C	2.245130	-0.189427	-0.433524
C44	C	2.263060	-0.190151	-0.513108
C45	C	2.087310	-0.205131	-0.505368
C46	C	2.069376	-0.204412	-0.425788
C47	C	2.148287	-0.196550	-0.389871
C48	C	2.128843	-0.195779	-0.303580
C49	C	2.113338	-0.195167	-0.234802
C50	C	2.213602	-0.198734	0.366273
C51	C	2.184148	-0.197990	0.450970
C52	C	2.318620	-0.461570	0.231867
C53	C	2.355933	-0.627930	0.231117
C54	C	2.433935	0.070611	0.229754
C55	C	2.386238	0.236970	0.230509
C56	C	2.538954	-0.192222	0.095346
C57	C	2.558026	-0.192959	0.010648
C58	C	2.479099	-0.200786	-0.025259
C59	C	2.497001	-0.201460	-0.104843
C60	C	2.593833	-0.194319	-0.148517
C61	C	2.672764	-0.186487	-0.112604
C62	C	2.654859	-0.185801	-0.033023
H63	H	1.730435	-0.446702	0.477928
H64	H	2.400247	-0.206600	0.010290
F65	F	2.329128	-0.181103	-0.395305
H66	H	2.719138	-0.179437	-0.003793
H67	H	1.606304	-0.196104	0.674940
F68	F	1.683536	-0.479681	0.634936
H69	H	1.582539	0.052062	0.583197
F70	F	1.966308	-0.212010	-0.379325
F71	F	2.366136	-0.182560	-0.559574
H72	H	2.251651	-0.180714	-0.148144
F73	F	2.238850	-0.177445	0.005217
H74	H	2.432720	-0.207837	-0.134071
H75	H	1.900262	-0.206621	0.010272
H76	H	1.632717	0.050856	0.438810
H77	H	2.751603	-0.180668	-0.148176
F78	F	1.913068	-0.209890	-0.143076
F79	F	2.612875	-0.195053	-0.233214
F80	F	2.003324	-0.213492	-0.543600
