data_functionalizedCrystal
_audit_creation_method	'MofGen! by Chris Wilmer'
_symmetry_space_group_name_H-M	'P1'
_symmetry_Int_Tables_number	1
_symmetry_cell_setting	triclinic
loop_
_symmetry_equiv_pos_as_xyz
  x,y,z
_cell_length_a	29.839131
_cell_length_b	18.050591
_cell_length_c	18.050582
_cell_angle_alpha	89.977259
_cell_angle_beta	90.025477
_cell_angle_gamma	89.965147
loop_
_atom_site_label
_atom_site_type_symbol
_atom_site_fract_x
_atom_site_fract_y
_atom_site_fract_z
Zn1	Zn	-0.178961	-1.135224	0.420052
Zn2	Zn	0.154373	-0.801891	0.753386
Zn3	Zn	0.487706	-0.468558	1.086719
Zn4	Zn	-0.254083	-1.135106	0.295856
Zn5	Zn	0.079251	-0.801773	0.629189
Zn6	Zn	0.412584	-0.468440	0.962523
Zn7	Zn	-0.178959	-1.011044	0.295860
Zn8	Zn	0.154374	-0.677710	0.629193
Zn9	Zn	0.487708	-0.344377	0.962526
Zn10	Zn	-0.254056	-1.010963	0.419988
Zn11	Zn	0.079278	-0.677630	0.753321
Zn12	Zn	0.412611	-0.344296	1.086654
O13	O	-0.216514	-1.073084	0.357939
O14	O	0.116819	-0.739751	0.691272
O15	O	0.450152	-0.406418	1.024606
O16	O	-0.188938	-1.239133	0.403603
O17	O	0.144396	-0.905800	0.736936
O18	O	0.477729	-0.572467	1.070270
O19	O	-0.244128	-1.118634	0.191932
O20	O	0.089205	-0.785300	0.525265
O21	O	0.422539	-0.451967	0.858599
O22	O	-0.116092	-1.027599	0.312363
O23	O	0.217241	-0.694266	0.645696
O24	O	0.550575	-0.360933	0.979029
O25	O	-0.244130	-1.239047	0.312357
O26	O	0.089204	-0.905713	0.645690
O27	O	0.422537	-0.572380	0.979023
O28	O	-0.116093	-1.118835	0.403607
O29	O	0.217240	-0.785501	0.736940
O30	O	0.550573	-0.452168	1.070273
O31	O	-0.188935	-1.027485	0.191934
O32	O	0.144398	-0.694152	0.525268
O33	O	0.477732	-0.360818	0.858601
O34	O	-0.188909	-0.907108	0.312300
O35	O	0.144425	-0.573775	0.645633
O36	O	0.477758	-0.240442	0.978966
O37	O	-0.244083	-1.027462	0.523921
O38	O	0.089250	-0.694129	0.857254
O39	O	0.422583	-0.360795	1.190588
O40	O	-0.244082	-0.907049	0.403496
O41	O	0.089251	-0.573716	0.736829
O42	O	0.422585	-0.240382	1.070163
O43	O	-0.188911	-1.118756	0.523968
O44	O	0.144422	-0.785423	0.857302
O45	O	0.477755	-0.452090	1.190635
O46	O	-0.316946	-1.118555	0.312294
O47	O	0.016387	-0.785222	0.645627
O48	O	0.349720	-0.451889	0.978960
O49	O	-0.316926	-1.027348	0.403493
O50	O	0.016407	-0.694014	0.736826
O51	O	0.349740	-0.360681	1.070159
C52	C	-0.216493	-0.880132	0.357892
C53	C	0.116841	-0.546799	0.691225
C54	C	0.450174	-0.213466	1.024558
C55	C	-0.216494	-0.797586	0.357889
C56	C	0.116839	-0.464253	0.691223
C57	C	0.450173	-0.130920	1.024556
C58	C	-0.186452	-0.548772	0.308401
C59	C	0.146882	-0.215438	0.641734
C60	C	0.480215	0.117895	0.975068
C61	C	-0.175516	-0.598208	0.376181
C62	C	0.157818	-0.264874	0.709514
C63	C	0.491151	0.068459	1.042847
C64	C	-0.216507	-0.500466	0.357934
C65	C	0.116826	-0.167133	0.691268
C66	C	0.450159	0.166201	1.024601
C67	C	-0.227416	-0.598112	0.290137
C68	C	0.105917	-0.264778	0.623470
C69	C	0.439251	0.068555	0.956803
C70	C	-0.216500	-0.646451	0.357909
C71	C	0.116834	-0.313118	0.691242
C72	C	0.450167	0.020216	1.024575
C73	C	-0.205550	-0.548815	0.425750
C74	C	0.127783	-0.215482	0.759083
C75	C	0.461117	0.117852	1.092417
C76	C	-0.257469	-0.548715	0.339660
C77	C	0.075864	-0.215381	0.672994
C78	C	0.409197	0.117952	1.006327
C79	C	-0.246549	-0.598128	0.407487
C80	C	0.086785	-0.264795	0.740820
C81	C	0.420118	0.068538	1.074153
C82	C	-0.216511	-0.416368	0.357948
C83	C	0.116823	-0.083034	0.691282
C84	C	0.450156	0.250299	1.024615
C85	C	-0.216496	-0.730548	0.357902
C86	C	0.116837	-0.397214	0.691236
C87	C	0.450170	-0.063881	1.024569
C88	C	-0.333237	-1.072950	0.357902
C89	C	0.000096	-0.739617	0.691235
C90	C	0.333430	-0.406284	1.024569
C91	C	-0.383172	-1.072961	0.357911
C92	C	-0.049838	-0.739627	0.691244
C93	C	0.283495	-0.406294	1.024578
C94	C	-0.692813	-1.120663	0.310521
C95	C	-0.359479	-0.787329	0.643854
C96	C	-0.026146	-0.453996	0.977188
C97	C	-0.880486	-1.120754	0.310550
C98	C	-0.547152	-0.787421	0.643883
C99	C	-0.213819	-0.454088	0.977217
O100	O	-0.904749	-1.161205	0.270229
O101	O	-0.571415	-0.827872	0.603562
O102	O	-0.238082	-0.494539	0.936895
N103	N	-0.903957	-1.073238	0.357995
N104	N	-0.570623	-0.739905	0.691328
N105	N	-0.237290	-0.406572	1.024662
C106	C	-0.880506	-1.025700	0.405440
C107	C	-0.547173	-0.692366	0.738773
C108	C	-0.213840	-0.359033	1.072106
O109	O	-0.904776	-0.985292	0.445801
O110	O	-0.571443	-0.651959	0.779134
O111	O	-0.238109	-0.318625	1.112467
C112	C	-0.692834	-1.025612	0.405414
C113	C	-0.359501	-0.692279	0.738747
C114	C	-0.026167	-0.358946	1.072081
C115	C	-0.669366	-1.073126	0.357960
C116	C	-0.336032	-0.739793	0.691294
C117	C	-0.002699	-0.406459	1.024627
C118	C	-0.669344	-1.168173	0.263072
C119	C	-0.336011	-0.834840	0.596405
C120	C	-0.002677	-0.501506	0.929739
C121	C	-0.622429	-1.168147	0.263062
C122	C	-0.289095	-0.834813	0.596396
C123	C	0.044238	-0.501480	0.929729
C124	C	-0.598982	-1.120610	0.310502
C125	C	-0.265648	-0.787277	0.643835
C126	C	0.067685	-0.453943	0.977169
C127	C	-0.622450	-1.073100	0.357951
C128	C	-0.289117	-0.739766	0.691284
C129	C	0.044216	-0.406433	1.024618
C130	C	-0.669385	-0.978078	0.452862
C131	C	-0.336051	-0.644744	0.786195
C132	C	-0.002718	-0.311411	1.119529
C133	C	-0.622464	-0.978062	0.452853
C134	C	-0.289130	-0.644728	0.786186
C135	C	0.044203	-0.311395	1.119519
C136	C	-0.598995	-1.025575	0.405399
C137	C	-0.265662	-0.692242	0.738732
C138	C	0.067671	-0.358908	1.072066
C139	C	-0.552088	-1.025537	0.405381
C140	C	-0.218754	-0.692203	0.738714
C141	C	0.114579	-0.358870	1.072047
N142	N	-0.528617	-1.073053	0.357936
N143	N	-0.195284	-0.739719	0.691269
N144	N	0.138050	-0.406386	1.024602
C145	C	-0.552064	-1.120589	0.310496
C146	C	-0.218731	-0.787256	0.643830
C147	C	0.114603	-0.453923	0.977163
C148	C	-0.979037	-1.025748	0.405449
C149	C	-0.645704	-0.692414	0.738782
C150	C	-0.312370	-0.359081	1.072115
C151	C	-1.025955	-1.025769	0.405454
C152	C	-0.692621	-0.692435	0.738788
C153	C	-0.359288	-0.359102	1.072121
C154	C	-1.025931	-1.120824	0.310565
C155	C	-0.692598	-0.787491	0.643899
C156	C	-0.359264	-0.454158	0.977232
C157	C	-0.979012	-1.120799	0.310557
C158	C	-0.645679	-0.787466	0.643890
C159	C	-0.312345	-0.454133	0.977223
C160	C	-0.955566	-1.073264	0.358004
C161	C	-0.622233	-0.739930	0.691337
C162	C	-0.288899	-0.406597	1.024670
C163	C	-0.453538	-1.120530	0.310479
C164	C	-0.120205	-0.787197	0.643813
C165	C	0.213129	-0.453863	0.977146
C166	C	-0.406618	-1.120497	0.310472
C167	C	-0.073285	-0.787164	0.643805
C168	C	0.260048	-0.453831	0.977138
C169	C	-0.406646	-1.025445	0.405363
C170	C	-0.073313	-0.692111	0.738696
C171	C	0.260020	-0.358778	1.072030
C172	C	-0.453562	-1.025474	0.405368
C173	C	-0.120229	-0.692141	0.738702
C174	C	0.213105	-0.358808	1.072035
C175	C	-0.477007	-1.073023	0.357924
C176	C	-0.143673	-0.739690	0.691257
C177	C	0.189660	-0.406356	1.024590
O178	O	-0.527796	-0.985113	0.445687
O179	O	-0.194463	-0.651779	0.779020
O180	O	0.138871	-0.318446	1.112353
O181	O	-0.527786	-1.161002	0.270153
O182	O	-0.194453	-0.827669	0.603486
O183	O	0.138881	-0.494336	0.936820
C184	C	-0.739728	-1.120689	0.310531
C185	C	-0.406395	-0.787355	0.643864
C186	C	-0.073061	-0.454022	0.977197
C187	C	-0.763197	-1.073178	0.357980
C188	C	-0.429863	-0.739845	0.691313
C189	C	-0.096530	-0.406512	1.024646
C190	C	-0.739750	-1.025642	0.405419
C191	C	-0.406416	-0.692308	0.738752
C192	C	-0.073083	-0.358975	1.072086
C193	C	-0.810114	-1.073199	0.357985
C194	C	-0.476781	-0.739866	0.691319
C195	C	-0.143448	-0.406532	1.024652
C196	C	-0.833561	-1.120736	0.310546
C197	C	-0.500228	-0.787402	0.643879
C198	C	-0.166895	-0.454069	0.977213
C199	C	-0.810090	-1.168252	0.263101
C200	C	-0.476757	-0.834918	0.596434
C201	C	-0.143424	-0.501585	0.929767
C202	C	-0.763175	-1.168225	0.263091
C203	C	-0.429842	-0.834892	0.596425
C204	C	-0.096508	-0.501559	0.929758
C205	C	-0.763220	-0.978126	0.452864
C206	C	-0.429887	-0.644793	0.786198
C207	C	-0.096554	-0.311459	1.119531
C208	C	-0.810136	-0.978155	0.452869
C209	C	-0.476803	-0.644822	0.786203
C210	C	-0.143469	-0.311489	1.119536
C211	C	-0.833583	-1.025692	0.405430
C212	C	-0.500250	-0.692359	0.738763
C213	C	-0.166916	-0.359025	1.072097
C214	C	-0.099336	-1.073239	0.357992
C215	C	0.233997	-0.739906	0.691326
C216	C	0.567331	-0.406573	1.024659
C217	C	-0.049402	-1.073305	0.358015
C218	C	0.283932	-0.739972	0.691348
C219	C	0.617265	-0.406639	1.024682
C220	C	-0.216495	-1.073113	0.551645
C221	C	0.116839	-0.739780	0.884978
C222	C	0.450172	-0.406447	1.218311
C223	C	-0.216486	-1.073126	0.634190
C224	C	0.116847	-0.739792	0.967524
C225	C	0.450181	-0.406459	1.300857
C226	C	-0.216529	-0.266790	0.357974
C227	C	0.116804	0.066543	0.691307
C228	C	0.450138	0.399877	1.024640
C229	C	-0.216515	-0.349336	0.357955
C230	C	0.116819	-0.016002	0.691288
C231	C	0.450152	0.317331	1.024622
C232	C	-0.216502	-1.073098	0.164987
C233	C	0.116831	-0.739765	0.498320
C234	C	0.450165	-0.406431	0.831653
C235	C	-0.216384	-1.073230	0.082441
C236	C	0.116949	-0.739896	0.415775
C237	C	0.450283	-0.406563	0.749108
C238	C	-0.246448	-1.023518	0.833615
C239	C	0.086886	-0.690185	1.166949
C240	C	0.420219	-0.356851	1.500282
C241	C	-0.257434	-1.091269	0.883015
C242	C	0.075899	-0.757936	1.216348
C243	C	0.409233	-0.424602	1.549682
C244	C	-0.216452	-1.073162	0.785321
C245	C	0.116882	-0.739829	1.118654
C246	C	0.450215	-0.406496	1.451988
C247	C	-0.205453	-1.005449	0.883003
C248	C	0.127880	-0.672115	1.216336
C249	C	0.461214	-0.338782	1.549670
C250	C	-0.216420	-1.073192	0.931306
C251	C	0.116914	-0.739859	1.264639
C252	C	0.450247	-0.406525	1.597973
C253	C	-0.227460	-1.140949	0.833633
C254	C	0.105874	-0.807616	1.166967
C255	C	0.439207	-0.474282	1.500300
C256	C	-0.175460	-1.055083	0.833617
C257	C	0.157874	-0.721750	1.166950
C258	C	0.491207	-0.388416	1.500284
C259	C	-0.186430	-1.122881	0.882994
C260	C	0.146903	-0.789548	1.216328
C261	C	0.480236	-0.456214	1.549661
C262	C	-0.216472	-1.073145	0.701223
C263	C	0.116862	-0.739811	1.034556
C264	C	0.450195	-0.406478	1.367889
C265	C	-0.216400	-1.073217	1.015403
C266	C	0.116934	-0.739884	1.348736
C267	C	0.450267	-0.406551	1.682069
H268	H	-0.271963	-0.619663	0.449413
H269	H	0.061371	-0.286329	0.782746
H270	H	0.394704	0.047004	1.116080
H271	H	-0.292103	-0.526960	0.324190
H272	H	0.041230	-0.193626	0.657523
H273	H	0.374563	0.139707	0.990857
F274	F	-0.193311	-0.930584	0.911350
F275	F	0.140023	-0.597251	1.244683
F276	F	0.473356	-0.263918	1.578017
H277	H	-0.387512	-1.159189	0.271827
H278	H	-0.054179	-0.825855	0.605160
H279	H	0.279155	-0.492522	0.938493
F280	F	-0.153257	-1.177833	0.911158
F281	F	0.180077	-0.844500	1.244492
F282	F	0.513410	-0.511166	1.577825
F283	F	-0.597458	-1.218726	0.212564
F284	F	-0.264124	-0.885393	0.545897
F285	F	0.069209	-0.552060	0.879231
H286	H	-0.387549	-0.986739	0.443986
H287	H	-0.054215	-0.653405	0.777319
H288	H	0.279118	-0.320072	1.110652
F289	F	-0.193433	-0.520632	0.500700
F290	F	0.139900	-0.187298	0.834034
F291	F	0.473234	0.146035	1.167367
F292	F	-0.694291	-1.218774	0.212577
F293	F	-0.360958	-0.885440	0.545910
F294	F	-0.027624	-0.552107	0.879244
H295	H	-0.161019	-0.527101	0.266575
H296	H	0.172315	-0.193768	0.599908
H297	H	0.505648	0.139565	0.933241
H298	H	-0.829240	-0.939458	0.491511
H299	H	-0.495907	-0.606124	0.824844
H300	H	-0.162573	-0.272791	1.158178
F301	F	-0.130179	-1.035047	0.805233
F302	F	0.203154	-0.701714	1.138566
F303	F	0.536488	-0.368380	1.471899
H304	H	-0.140870	-0.619933	0.391640
H305	H	0.192463	-0.286600	0.724973
H306	H	0.525797	0.046733	1.058306
F307	F	-0.478483	-1.171136	0.259983
F308	F	-0.145150	-0.837803	0.593317
F309	F	0.188184	-0.504470	0.926650
H310	H	-0.292086	-1.106579	0.904713
H311	H	0.041247	-0.773245	1.238047
H312	H	0.374580	-0.439912	1.571380
F313	F	-0.239480	-0.626419	0.215209
F314	F	0.093853	-0.293085	0.548543
F315	F	0.427187	0.040248	0.881876
F316	F	-0.954039	-1.171370	0.260051
F317	F	-0.620706	-0.838036	0.593384
F318	F	-0.287373	-0.504703	0.926718
H319	H	-0.271847	-0.981575	0.811935
H320	H	0.061486	-0.648241	1.145268
H321	H	0.394819	-0.314908	1.478602
H322	H	-1.045029	-1.159531	0.271938
H323	H	-0.711696	-0.826197	0.605272
H324	H	-0.378363	-0.492864	0.938605
H325	H	-1.045059	-0.987071	0.444089
H326	H	-0.711725	-0.653738	0.777422
H327	H	-0.378392	-0.320405	1.110755
H328	H	-0.959950	-0.987037	0.444087
H329	H	-0.626617	-0.653703	0.777420
H330	H	-0.293284	-0.320370	1.110753
F331	F	-0.694352	-0.927513	0.503376
F332	F	-0.361018	-0.594179	0.836709
F333	F	-0.027685	-0.260846	1.170042
H334	H	-0.603376	-0.939353	0.491492
H335	H	-0.270043	-0.606020	0.824825
H336	H	0.063291	-0.272686	1.158159
F337	F	-0.738204	-1.218799	0.212586
F338	F	-0.404871	-0.885465	0.545920
F339	F	-0.071537	-0.552132	0.879253
F340	F	-0.478540	-0.974892	0.455859
F341	F	-0.145206	-0.641558	0.789193
F342	F	0.188127	-0.308225	1.122526
H343	H	-0.744134	-0.939417	0.491496
H344	H	-0.410800	-0.606083	0.824829
H345	H	-0.077467	-0.272750	1.158163
F346	F	-0.835053	-1.218842	0.212610
F347	F	-0.501719	-0.885508	0.545943
F348	F	-0.168386	-0.552175	0.879277
H349	H	-0.236788	-1.198243	0.812038
H350	H	0.096545	-0.864909	1.145371
H351	H	0.429878	-0.531576	1.478705
