data_functionalizedCrystal
_audit_creation_method	'MofGen! by Chris Wilmer'
_symmetry_space_group_name_H-M	'P1'
_symmetry_Int_Tables_number	1
_symmetry_cell_setting	triclinic
loop_
_symmetry_equiv_pos_as_xyz
  x,y,z
_cell_length_a	6.817900
_cell_length_b	17.982783
_cell_length_c	16.255661
_cell_angle_alpha	95.649221
_cell_angle_beta	103.488922
_cell_angle_gamma	102.448572
loop_
_atom_site_label
_atom_site_type_symbol
_atom_site_fract_x
_atom_site_fract_y
_atom_site_fract_z
V1	V	-4.021529	-0.106028	-0.264224
V2	V	-3.521529	0.393972	0.235776
O3	O	-4.014408	0.004462	-0.258833
O4	O	-3.514408	0.504462	0.241167
O5	O	-3.968017	-0.209627	-0.262765
O6	O	-3.468017	0.290373	0.237235
O7	O	-3.973157	-0.104675	-0.379303
O8	O	-3.473157	0.395325	0.120697
O9	O	-4.009233	-0.101217	-0.141488
O10	O	-3.509233	0.398783	0.358512
V11	V	-4.505816	-0.092779	-0.249502
V12	V	-4.005816	0.407221	0.250498
O13	O	-4.281112	-0.135090	-0.296519
O14	O	-3.781112	0.364910	0.203481
O15	O	-4.696430	-0.063717	-0.217207
O16	O	-4.196430	0.436283	0.282793
O17	O	-4.336122	0.010819	-0.250961
O18	O	-3.836122	0.510819	0.249039
O19	O	-4.630334	-0.203269	-0.254893
O20	O	-4.130334	0.296731	0.245107
O21	O	-4.635509	-0.097591	-0.372238
O22	O	-4.135509	0.402409	0.127762
O23	O	-4.330981	-0.094133	-0.134423
O24	O	-3.830981	0.405867	0.365577
C25	C	-3.811773	-0.234874	-0.258686
C26	C	-3.311773	0.265126	0.241314
C27	C	-3.849308	-0.319569	-0.258260
C28	C	-3.349308	0.180431	0.241740
C29	C	-3.827256	-0.348297	-0.180521
C30	C	-3.327256	0.151703	0.319479
C31	C	-3.862543	-0.427878	-0.180124
C32	C	-3.362543	0.072122	0.319876
C33	C	-3.919868	-0.478729	-0.257466
C34	C	-3.419868	0.021271	0.242534
C35	C	-3.941927	-0.449995	-0.335211
C36	C	-3.441927	0.050005	0.164789
C37	C	-3.906654	-0.370416	-0.335608
C38	C	-3.406654	0.129584	0.164392
C39	C	-4.084182	-0.770930	-0.333612
C40	C	-3.584182	-0.270930	0.166388
C41	C	-4.119448	-0.850514	-0.333209
C42	C	-3.619448	-0.350514	0.166791
C43	C	-4.040071	-0.828392	-0.178128
C44	C	-3.540071	-0.328392	0.321872
C45	C	-4.004798	-0.748812	-0.178525
C46	C	-3.504798	-0.248812	0.321475
C47	C	-4.026870	-0.720086	-0.256270
C48	C	-3.526870	-0.220086	0.243730
C49	C	-3.988611	-0.633796	-0.256700
C50	C	-3.488611	-0.133796	0.243300
C51	C	-3.958113	-0.565018	-0.257036
C52	C	-3.458113	-0.065018	0.242964
C53	C	-3.818329	-0.100996	-0.407341
C54	C	-3.318329	0.399004	0.092659
C55	C	-3.860030	-0.100575	-0.501421
C56	C	-3.360030	0.399425	-0.001421
C57	C	-3.770832	-0.095549	-0.724223
C58	C	-3.270832	0.404451	-0.224223
C59	C	-3.924077	-0.160419	-0.793915
C60	C	-3.424077	0.339581	-0.293915
C61	C	-3.936453	-0.099786	-0.673667
C62	C	-3.436453	0.400214	-0.173667
C63	C	-3.857534	-0.034174	-0.771610
C64	C	-3.357534	0.465826	-0.271610
C65	C	-4.010258	-0.099021	-0.840048
C66	C	-3.510258	0.400979	-0.340048
C67	C	-4.089177	-0.164714	-0.742130
C68	C	-3.589177	0.335286	-0.242130
C69	C	-4.022575	-0.038412	-0.719808
C70	C	-3.522575	0.461588	-0.219808
C71	C	-4.175956	-0.103300	-0.789481
C72	C	-3.675956	0.396700	-0.289481
C73	C	-3.893930	-0.100228	-0.577819
C74	C	-3.393930	0.399772	-0.077819
C75	C	-4.052798	-0.098585	-0.935895
C76	C	-3.552798	0.401415	-0.435895
C77	C	-4.155707	0.036062	-0.255038
C78	C	-3.655707	0.536062	0.244962
C79	C	-4.097411	0.120756	-0.255469
C80	C	-3.597411	0.620756	0.244531
C81	C	-4.149151	-0.097814	-0.106381
C82	C	-3.649151	0.402186	0.393619
C83	C	-4.086690	-0.098231	-0.012300
C84	C	-3.586690	0.401769	0.487700
H85	H	-3.844589	-0.451265	-0.116821
H86	H	-3.344589	0.048735	0.383179
Cl87	Cl	-3.706950	0.051004	-0.792293
Cl88	Cl	-3.206950	0.551004	-0.292293
Cl89	Cl	-4.111912	-0.734827	-0.431348
Cl90	Cl	-3.611912	-0.234827	0.068652
Cl91	Cl	-4.012338	-0.864509	-0.080390
Cl92	Cl	-3.512338	-0.364509	0.419610
H93	H	-3.924633	-0.347028	-0.398911
H94	H	-3.424633	0.152972	0.101089
Cl95	Cl	-3.505902	-0.090617	-0.680229
Cl96	Cl	-3.005902	0.409383	-0.180229
H97	H	-4.166130	-0.891916	-0.396194
H98	H	-3.666130	-0.391916	0.103806
H99	H	-3.988618	-0.491405	-0.398184
H100	H	-3.488618	0.008595	0.101816
H101	H	-3.882883	-0.212002	-0.826173
H102	H	-3.382883	0.287998	-0.326173
Cl103	Cl	-4.086051	0.041232	-0.669964
Cl104	Cl	-3.586051	0.541232	-0.169964
Cl105	Cl	-4.239741	-0.249984	-0.721628
Cl106	Cl	-3.739741	0.250016	-0.221628
H107	H	-3.780562	-0.306899	-0.117540
H108	H	-3.280562	0.193101	0.382460
Cl109	Cl	-3.932724	-0.684890	-0.081291
Cl110	Cl	-3.432724	-0.184890	0.418709
Cl111	Cl	-4.441061	-0.108383	-0.833266
Cl112	Cl	-3.941061	0.391617	-0.333266
