data_functionalizedCrystal
_audit_creation_method	'MofGen! by Chris Wilmer'
_symmetry_space_group_name_H-M	'P1'
_symmetry_Int_Tables_number	1
_symmetry_cell_setting	triclinic
loop_
_symmetry_equiv_pos_as_xyz
  x,y,z
_cell_length_a	6.817900
_cell_length_b	11.102193
_cell_length_c	10.943624
_cell_angle_alpha	91.863696
_cell_angle_beta	108.838799
_cell_angle_gamma	108.604125
loop_
_atom_site_label
_atom_site_type_symbol
_atom_site_fract_x
_atom_site_fract_y
_atom_site_fract_z
V1	V	-4.114277	-0.175806	-0.402556
O2	O	-4.073263	0.008482	-0.394888
O3	O	-4.091030	-0.348627	-0.399807
O4	O	-4.092258	-0.173087	-0.578122
O5	O	-4.072026	-0.168273	-0.215339
V6	V	-4.591227	-0.153765	-0.380163
O7	O	-4.389953	-0.224156	-0.451677
O8	O	-4.765748	-0.105416	-0.331041
O9	O	-4.391268	0.019056	-0.382911
O10	O	-4.749638	-0.338054	-0.387831
O11	O	-4.750875	-0.161298	-0.567380
O12	O	-4.390039	-0.156484	-0.204596
C13	C	-3.941296	-0.390758	-0.393458
C14	C	-4.003751	-0.532041	-0.392381
C15	C	-3.999138	-0.761243	-0.153864
C16	C	-3.908811	-0.676722	-0.036134
C17	C	-3.850131	-0.543975	-0.037149
C18	C	-3.881777	-0.495747	-0.155907
C19	C	-3.972104	-0.580268	-0.273636
C20	C	-4.030785	-0.713016	-0.272609
C21	C	-4.094079	-0.616562	-0.510111
C22	C	-4.152775	-0.749310	-0.509100
C23	C	-4.125725	-0.568334	-0.628868
C24	C	-4.216068	-0.652856	-0.746602
C25	C	-4.274752	-0.785610	-0.745582
C26	C	-4.243102	-0.833831	-0.626829
C27	C	-3.942862	-0.166837	-0.620915
C28	C	-4.006309	-0.165757	-0.764441
C29	C	-3.851189	-0.158486	-0.841589
C30	C	-4.039800	-0.266417	-0.947582
C31	C	-3.930777	-0.055914	-0.914189
C32	C	-4.194130	-0.273790	-0.868558
C33	C	-4.085027	-0.063191	-0.835142
C34	C	-4.273774	-0.171154	-0.941105
C35	C	-4.204344	0.061180	-0.389257
C36	C	-4.121128	0.202462	-0.390342
C37	C	-4.202778	-0.162738	-0.161797
C38	C	-4.118568	-0.163812	-0.018269
H39	H	-4.077932	-0.460243	-0.629686
Br40	Br	-4.258974	-0.587396	-0.907753
Br41	Br	-4.378724	-0.427432	-0.834330
H42	H	-4.348287	-0.854421	-0.841452
H43	H	-4.046932	-0.869332	-0.153027
Br44	Br	-4.572575	-0.180113	-1.013184
Br45	Br	-3.865854	-0.742179	0.125029
Br46	Br	-3.727517	-0.429262	0.122627
Br47	Br	-3.746244	0.097561	-0.948721
Br48	Br	-4.322753	-1.013988	-0.625437
Br49	Br	-3.802086	-0.315587	-0.157280
H50	H	-3.672025	-0.153274	-0.798140
H51	H	-4.103400	0.022729	-0.786156
H52	H	-4.021343	-0.352334	-0.996533
