data_functionalizedCrystal
_audit_creation_method	'MofGen! by Chris Wilmer'
_symmetry_space_group_name_H-M	'P1'
_symmetry_Int_Tables_number	1
_symmetry_cell_setting	triclinic
loop_
_symmetry_equiv_pos_as_xyz
  x,y,z
_cell_length_a	18.050590
_cell_length_b	18.050589
_cell_length_c	18.050582
_cell_angle_alpha	89.981795
_cell_angle_beta	89.999233
_cell_angle_gamma	89.982614
loop_
_atom_site_label
_atom_site_type_symbol
_atom_site_fract_x
_atom_site_fract_y
_atom_site_fract_z
Zn1	Zn	1.135292	0.295921	0.419624
Zn2	Zn	1.635292	0.795921	0.919624
Zn3	Zn	1.135203	0.420105	0.295444
Zn4	Zn	1.635203	0.920105	0.795444
Zn5	Zn	1.011112	0.295910	0.295482
Zn6	Zn	1.511112	0.795910	0.795482
Zn7	Zn	1.011060	0.420051	0.419626
Zn8	Zn	1.511060	0.920051	0.919626
O9	O	1.073167	0.357997	0.357544
O10	O	1.573167	0.857997	0.857544
O11	O	1.239205	0.312422	0.403134
O12	O	1.739205	0.812422	0.903134
O13	O	1.118727	0.403648	0.191524
O14	O	1.618727	0.903648	0.691524
O15	O	1.027644	0.191987	0.311965
O16	O	1.527644	0.691987	0.811965
O17	O	1.239140	0.403659	0.311899
O18	O	1.739140	0.903659	0.811899
O19	O	1.118879	0.191995	0.403172
O20	O	1.618879	0.691995	0.903172
O21	O	1.027557	0.312402	0.191553
O22	O	1.527557	0.812402	0.691553
O23	O	0.907180	0.312350	0.311967
O24	O	1.407180	0.812350	0.811967
O25	O	1.027555	0.403567	0.523550
O26	O	1.527555	0.903567	1.023550
O27	O	0.907142	0.403555	0.403175
O28	O	1.407142	0.903555	0.903175
O29	O	1.118828	0.312370	0.523549
O30	O	1.618828	0.812370	1.023549
O31	O	1.118676	0.524022	0.311901
O32	O	1.618676	1.024022	0.811901
O33	O	1.027468	0.523982	0.403138
O34	O	1.527468	1.023982	0.903138
C35	C	0.880215	0.357946	0.357576
C36	C	1.380215	0.857946	0.857576
C37	C	0.797669	0.357942	0.357607
C38	C	1.297669	0.857942	0.857607
C39	C	0.598219	0.407682	0.407088
C40	C	1.098219	0.907682	0.907088
C41	C	0.548826	0.339967	0.425358
C42	C	1.048826	0.839967	0.925358
C43	C	0.646538	0.357984	0.357571
C44	C	1.146538	0.857984	0.857571
C45	C	0.548850	0.425737	0.339300
C46	C	1.048850	0.925737	0.839300
C47	C	0.500553	0.358030	0.357537
C48	C	1.000553	0.858030	0.857537
C49	C	0.598233	0.290233	0.375876
C50	C	1.098233	0.790233	0.875876
C51	C	0.598261	0.376049	0.289787
C52	C	1.098261	0.876049	0.789787
C53	C	0.548890	0.308287	0.308031
C54	C	1.048890	0.808287	0.808031
C55	C	0.730637	0.357958	0.357592
C56	C	1.230637	0.857958	0.857592
C57	C	0.416457	0.358047	0.357516
C58	C	0.916457	0.858047	0.857516
C59	C	1.073077	0.550949	0.357532
C60	C	1.573077	1.050949	0.857532
C61	C	1.073107	0.633494	0.357551
C62	C	1.573107	1.133494	0.857551
C63	C	1.073196	0.357964	0.551250
C64	C	1.573196	0.857964	1.051250
C65	C	1.073208	0.357950	0.633796
C66	C	1.573208	0.857950	1.133796
C67	C	1.266872	0.358048	0.357512
C68	C	1.766872	0.858048	0.857512
C69	C	1.349418	0.358070	0.357499
C70	C	1.849418	0.858070	0.857499
C71	C	1.073277	0.164291	0.357573
C72	C	1.573277	0.664291	0.857573
C73	C	1.073324	0.081745	0.357585
C74	C	1.573324	0.581745	0.857585
C75	C	1.023557	0.832950	0.407148
C76	C	1.523557	1.332950	0.907148
C77	C	1.005459	0.882381	0.339386
C78	C	1.505459	1.382381	0.839386
C79	C	1.073180	0.784625	0.357561
C80	C	1.573180	1.284625	0.857561
C81	C	1.091314	0.882276	0.425331
C82	C	1.591314	1.382276	0.925331
C83	C	1.073249	0.930610	0.357576
C84	C	1.573249	1.430610	0.857576
C85	C	1.055046	0.832968	0.289763
C86	C	1.555046	1.332968	0.789763
C87	C	1.140933	0.832859	0.375754
C88	C	1.640933	1.332859	0.875754
C89	C	1.122861	0.882267	0.307945
C90	C	1.622861	1.382267	0.807945
C91	C	1.073138	0.700527	0.357553
C92	C	1.573138	1.200527	0.857553
C93	C	1.073290	1.014706	0.357576
C94	C	1.573290	1.514706	0.857576
C95	C	1.073180	0.357976	0.164592
C96	C	1.573180	0.857976	0.664592
C97	C	1.073312	0.357781	0.082047
C98	C	1.573312	0.857781	0.582047
C99	C	1.023612	0.407475	0.833247
C100	C	1.523612	0.907475	1.333247
C101	C	1.091367	0.425641	0.882621
C102	C	1.591367	0.925641	1.382621
C103	C	1.073245	0.357893	0.784926
C104	C	1.573245	0.857893	1.284926
C105	C	1.005527	0.339706	0.882634
C106	C	1.505527	0.839706	1.382634
C107	C	1.073274	0.357840	0.930911
C108	C	1.573274	0.857840	1.430911
C109	C	1.141036	0.376095	0.833213
C110	C	1.641036	0.876095	1.333213
C111	C	1.055150	0.290128	0.833221
C112	C	1.555150	0.790128	1.333221
C113	C	1.122952	0.308269	0.882573
C114	C	1.622952	0.808269	1.382573
C115	C	1.073227	0.357926	0.700828
C116	C	1.573227	0.857926	1.200828
C117	C	1.073300	0.357807	1.015008
C118	C	1.573300	0.857807	1.515008
H119	H	0.981530	0.811296	0.449023
H120	H	1.481530	1.311296	0.949023
H121	H	0.981678	0.449460	0.811589
H122	H	1.481678	0.949460	1.311589
N123	N	0.933624	0.909672	0.320067
N124	N	1.433624	1.409672	0.820067
N125	N	0.905514	0.893005	0.259023
N126	N	1.405514	1.393005	0.759023
H127	H	0.854779	0.912277	0.245382
H128	H	1.354779	1.412277	0.745382
H129	H	1.198184	0.811091	0.391160
H130	H	1.698184	1.311091	0.891160
H131	H	0.527154	0.483016	0.323863
H132	H	1.027154	0.983016	0.823863
H133	H	1.106625	0.903935	0.482637
H134	H	1.606625	1.403935	0.982637
N135	N	1.035755	0.805924	0.217849
N136	N	1.535755	1.305924	0.717849
N137	N	1.074857	0.822230	0.163070
N138	N	1.574857	1.322230	0.663070
H139	H	1.061230	0.803127	0.112282
H140	H	1.561230	1.303127	0.612282
H141	H	1.106690	0.482926	0.904320
H142	H	1.606690	0.982926	1.404320
N143	N	1.212914	0.395439	0.806089
N144	N	1.712914	0.895439	1.306089
N145	N	1.224495	0.398605	0.737889
N146	N	1.724495	0.898605	1.237889
H147	H	1.275257	0.412266	0.718730
H148	H	1.775257	0.912266	1.218730
H149	H	0.527367	0.266230	0.266142
H150	H	1.027367	0.766230	0.766142
N151	N	1.175539	0.909257	0.255282
N152	N	1.675539	1.409257	0.755282
N153	N	1.168776	0.893307	0.188241
N154	N	1.668776	1.393307	0.688241
H155	H	1.205978	0.912369	0.151046
H156	H	1.705978	1.412369	0.651046
H157	H	0.619834	0.232937	0.391380
H158	H	1.119834	0.732937	0.891380
H159	H	1.164986	0.266316	0.904094
H160	H	1.664986	0.766316	1.404094
N161	N	1.035899	0.218294	0.805959
N162	N	1.535899	0.718294	1.305959
N163	N	1.033350	0.206706	0.737738
N164	N	1.533350	0.706706	1.237738
H165	H	1.019746	0.155973	0.718482
H166	H	1.519746	0.655973	1.218482
N167	N	0.625516	0.395229	0.217912
N168	N	1.125516	0.895229	0.717912
N169	N	0.609727	0.456686	0.190150
N170	N	1.109727	0.956686	0.690150
H171	H	0.628976	0.470240	0.139388
H172	H	1.128976	0.970240	0.639388
N173	N	0.521566	0.320827	0.497247
N174	N	1.021566	0.820827	0.997247
N175	N	0.453346	0.317254	0.508586
N176	N	0.953346	0.817254	1.008586
H177	H	0.434094	0.303742	0.559358
H178	H	0.934094	0.803742	1.059358
N179	N	0.933668	0.320445	0.909866
N180	N	1.433668	0.820445	1.409866
N181	N	0.878945	0.359848	0.894060
N182	N	1.378945	0.859848	1.394060
H183	H	0.828192	0.346251	0.913291
H184	H	1.328192	0.846251	1.413291
H185	H	0.619881	0.449636	0.449011
H186	H	1.119881	0.949636	0.949011
