data_functionalizedCrystal
_audit_creation_method	'MofGen! by Chris Wilmer'
_symmetry_space_group_name_H-M	'P1'
_symmetry_Int_Tables_number	1
_symmetry_cell_setting	triclinic
loop_
_symmetry_equiv_pos_as_xyz
  x,y,z
_cell_length_a	15.995280
_cell_length_b	14.971506
_cell_length_c	13.448316
_cell_angle_alpha	89.994233
_cell_angle_beta	90.007482
_cell_angle_gamma	96.457007
loop_
_atom_site_label
_atom_site_type_symbol
_atom_site_fract_x
_atom_site_fract_y
_atom_site_fract_z
O1	O	-1.111148	0.114995	-0.082706
O2	O	-0.867380	0.129297	-0.082705
O3	O	-0.995789	-0.008062	-0.082701
O4	O	-0.982739	0.252354	-0.082710
O5	O	-0.995772	-0.008071	0.082683
O6	O	-0.867364	0.129289	0.082679
O7	O	-1.111132	0.114986	0.082677
Cu8	Cu	-0.989246	0.122137	0.097779
Cu9	Cu	-0.989265	0.122147	-0.097806
O10	O	-0.982723	0.252346	0.082674
C11	C	-0.836175	0.128713	-0.000012
C12	C	-0.743220	0.126974	-0.000012
C13	C	-0.405473	0.120579	-0.000026
C14	C	-0.428891	0.219716	-0.000398
C15	C	-0.525569	0.221595	-0.000020
C16	C	-0.573033	0.123752	-0.000019
C17	C	-0.543869	0.074184	0.094421
C18	C	-0.447076	0.072995	0.094495
C19	C	-0.447237	0.070980	-0.093577
C20	C	-0.543734	0.074650	-0.094821
C21	C	-0.667732	0.125540	-0.000012
C22	C	-0.310774	0.118788	-0.000026
C23	C	-0.142335	0.115582	-0.000019
C24	C	-0.235286	0.117357	-0.000034
C25	C	-0.995194	-0.041390	-0.000010
C26	C	-0.993436	-0.140684	-0.000013
C27	C	-0.983317	0.285673	-0.000019
C28	C	-0.985075	0.384967	-0.000023
N29	N	-0.989239	0.122129	0.235343
C30	C	-0.916346	0.823347	-0.000011
C31	C	-0.914701	0.730049	-0.000007
C32	C	-0.990146	0.672722	-0.000012
C33	C	-1.067242	0.708698	-0.000011
C34	C	-1.068886	0.801994	-0.000008
C35	C	-1.063809	0.514240	-0.000020
C36	C	-1.062165	0.420937	-0.000025
C37	C	-0.909624	0.442294	-0.000019
C38	C	-0.911268	0.535591	-0.000016
C39	C	-0.988364	0.571560	-0.000017
N40	N	-0.989279	0.122147	-0.235371
C41	C	-1.046116	0.061331	0.287385
C42	C	-1.046121	0.061331	0.391489
C43	C	-0.989253	0.122133	0.443548
C44	C	-0.932369	0.182933	0.391499
C45	C	-0.932361	0.182929	0.287397
C46	C	-0.932393	0.182939	0.608479
C47	C	-0.932402	0.182945	0.712587
C48	C	-1.046153	0.061341	0.712570
C49	C	-1.046144	0.061337	0.608469
C50	C	-0.989262	0.122139	0.556427
H51	H	-0.418950	0.101972	-0.165158
O52	O	-0.834973	0.885177	0.000002
H53	H	-0.781092	0.844486	0.000017
O54	O	-0.390521	0.270053	0.088817
H55	H	-0.354844	0.224770	0.133423
O56	O	-0.411597	0.118460	0.188009
H57	H	-0.378816	0.070255	0.232078
H58	H	-0.544008	0.260642	0.067791
H59	H	-0.849834	0.582264	-0.000020
O60	O	-1.152033	0.840795	-0.000011
H61	H	-1.156431	0.882805	-0.067412
H62	H	-0.562349	0.110740	-0.164687
H63	H	-1.123599	0.374263	-0.000034
O64	O	-0.587304	-0.019949	-0.102394
H65	H	-0.539573	-0.068326	-0.101476
O66	O	-1.146962	0.553037	-0.000021
H67	H	-1.151355	0.595045	-0.067426
O68	O	-1.107481	-0.004242	0.552318
H69	H	-1.072182	-0.047721	0.504903
O70	O	-0.871000	0.248493	0.231267
H71	H	-0.880536	0.238264	0.150133
H72	H	-1.092434	0.011824	0.433861
H73	H	-1.092468	0.011834	0.754949
O74	O	-0.871036	0.248523	0.447641
H75	H	-0.830310	0.210865	0.495099
O76	O	-0.871050	0.248504	0.768744
H77	H	-0.831482	0.290768	0.715069
H78	H	-0.846850	0.413004	-0.000017
O79	O	-1.148615	0.646868	-0.000006
H80	H	-1.185514	0.659667	-0.067409
H81	H	-1.092428	0.011823	0.245005
O82	O	-0.428599	-0.025678	-0.094437
H83	H	-0.389783	-0.038375	-0.028597
H84	H	-0.544644	0.260410	-0.067721
H85	H	-0.432448	0.000307	0.098785
O86	O	-0.391855	0.270348	-0.090101
H87	H	-0.416847	0.236046	-0.158842
O88	O	-0.585993	-0.021182	0.099089
H89	H	-0.569299	-0.058292	0.031818
O90	O	-0.570466	0.119767	0.187526
H91	H	-0.604446	0.177717	0.166775
O92	O	-0.831556	0.691249	-0.000003
H93	H	-0.779371	0.746785	-0.000010
H94	H	-0.886070	0.232448	0.566110
