data_functionalizedCrystal
_audit_creation_method	'MofGen! by Chris Wilmer'
_symmetry_space_group_name_H-M	'P1'
_symmetry_Int_Tables_number	1
_symmetry_cell_setting	triclinic
loop_
_symmetry_equiv_pos_as_xyz
  x,y,z
_cell_length_a	19.805407
_cell_length_b	12.594516
_cell_length_c	19.805399
_cell_angle_alpha	90.022473
_cell_angle_beta	90.020409
_cell_angle_gamma	90.013756
loop_
_atom_site_label
_atom_site_type_symbol
_atom_site_fract_x
_atom_site_fract_y
_atom_site_fract_z
Zn1	Zn	1.034804	-0.423712	0.382759
Zn2	Zn	1.534804	0.076288	0.882759
Zn3	Zn	1.034748	-0.601705	0.269581
Zn4	Zn	1.534748	-0.101705	0.769581
Zn5	Zn	0.921619	-0.423747	0.269582
Zn6	Zn	1.421619	0.076253	0.769582
Zn7	Zn	0.921611	-0.601655	0.382726
Zn8	Zn	1.421611	-0.101655	0.882726
O9	O	0.978196	-0.512705	0.326162
O10	O	1.478196	-0.012705	0.826162
O11	O	1.129513	-0.447329	0.367759
O12	O	1.629513	0.052671	0.867759
O13	O	1.019721	-0.578135	0.174864
O14	O	1.519721	-0.078135	0.674864
O15	O	0.936660	-0.274797	0.284609
O16	O	1.436660	0.225203	0.784609
O17	O	1.129472	-0.578100	0.284607
O18	O	1.629472	-0.078100	0.784607
O19	O	1.019817	-0.274771	0.367760
O20	O	1.519817	0.225229	0.867760
O21	O	0.936605	-0.447390	0.174865
O22	O	1.436605	0.052610	0.674865
O23	O	0.826901	-0.447340	0.284577
O24	O	1.326901	0.052660	0.784577
O25	O	0.936647	-0.578014	0.477447
O26	O	1.436647	-0.078014	0.977447
O27	O	0.826896	-0.578048	0.367704
O28	O	1.326896	-0.078048	0.867704
O29	O	1.019809	-0.447280	0.477471
O30	O	1.519809	0.052720	0.977471
O31	O	1.019713	-0.750644	0.284575
O32	O	1.519713	-0.250644	0.784575
O33	O	0.936592	-0.750607	0.367703
O34	O	1.436592	-0.250607	0.867703
C35	C	0.802340	-0.512694	0.326137
C36	C	1.302340	-0.012694	0.826137
C37	C	0.727108	-0.512714	0.326143
C38	C	1.227108	-0.012714	0.826143
C39	C	0.265342	-0.444739	0.369551
C40	C	0.765342	0.055261	0.869551
C41	C	0.336030	-0.444741	0.369546
C42	C	0.836030	0.055259	0.869546
C43	C	0.371346	-0.512721	0.326184
C44	C	0.871346	-0.012721	0.826184
C45	C	0.335970	-0.580710	0.282828
C46	C	0.835970	-0.080710	0.782828
C47	C	0.265283	-0.580713	0.282837
C48	C	0.765283	-0.080713	0.782837
C49	C	0.621043	-0.580702	0.282792
C50	C	1.121043	-0.080702	0.782792
C51	C	0.691735	-0.580692	0.282785
C52	C	1.191735	-0.080692	0.782785
C53	C	0.691791	-0.444731	0.369502
C54	C	1.191791	0.055269	0.869502
C55	C	0.621103	-0.444733	0.369511
C56	C	1.121103	0.055267	0.869511
C57	C	0.585733	-0.512726	0.326158
C58	C	1.085733	-0.012726	0.826158
C59	C	0.509085	-0.512725	0.326164
C60	C	1.009085	-0.012725	0.826164
C61	C	0.447993	-0.512718	0.326173
C62	C	0.947993	-0.012718	0.826173
C63	C	0.978164	-0.789246	0.326150
C64	C	1.478164	-0.289246	0.826150
C65	C	0.978213	-0.907551	0.326168
C66	C	1.478213	-0.407551	0.826168
C67	C	1.023475	-0.976786	0.281003
C68	C	1.523475	-0.476786	0.781003
C69	C	1.040013	-1.047490	0.342782
C70	C	1.540013	-0.547490	0.842782
C71	C	0.961760	-1.047645	0.264428
C72	C	1.461760	-0.547645	0.764428
C73	C	0.994782	-0.976697	0.387979
C74	C	1.494782	-0.476697	0.887979
C75	C	0.916500	-0.976846	0.309583
C76	C	1.416500	-0.476846	0.809583
C77	C	0.933015	-1.047519	0.371405
C78	C	1.433015	-0.547519	0.871405
C79	C	1.154738	-0.512716	0.326187
C80	C	1.654738	-0.012716	0.826187
C81	C	1.229970	-0.512721	0.326197
C82	C	1.729970	-0.012721	0.826197
C83	C	0.978234	-0.512638	0.502705
C84	C	1.478234	-0.012638	1.002705
C85	C	0.978250	-0.512609	0.577937
C86	C	1.478250	-0.012609	1.077937
C87	C	0.978246	-0.235084	0.326188
C88	C	1.478246	0.264916	0.826188
C89	C	0.978267	-0.116778	0.326200
C90	C	1.478267	0.383222	0.826200
C91	C	0.978197	-0.512695	0.150306
C92	C	1.478197	-0.012695	0.650306
C93	C	0.978312	-0.512423	0.075074
C94	C	1.478312	-0.012423	0.575074
C95	C	1.021553	-0.444532	0.613294
C96	C	1.521553	0.055468	1.113294
C97	C	1.021560	-0.444502	0.683983
C98	C	1.521560	0.055498	1.183983
C99	C	0.978267	-0.512553	0.719312
C100	C	1.478267	-0.012553	1.219312
C101	C	0.934958	-0.580633	0.683949
C102	C	1.434958	-0.080633	1.183949
C103	C	0.934948	-0.580658	0.613262
C104	C	1.434948	-0.080658	1.113262
C105	C	0.934996	-0.580534	0.969023
C106	C	1.434996	-0.080534	1.469023
C107	C	0.935011	-0.580506	1.039715
C108	C	1.435011	-0.080506	1.539715
C109	C	1.021608	-0.444378	1.039744
C110	C	1.521608	0.055622	1.539744
C111	C	1.021599	-0.444402	0.969056
C112	C	1.521599	0.055598	1.469056
C113	C	0.978288	-0.512477	0.933700
C114	C	1.478288	-0.012477	1.433700
C115	C	0.978280	-0.512509	0.857051
C116	C	1.478280	-0.012509	1.357051
C117	C	0.978277	-0.512528	0.795959
C118	C	1.478277	-0.012528	1.295959
H119	H	0.720597	-0.389370	0.404804
H120	H	1.220597	0.110630	0.904804
H121	H	0.592253	-0.636063	0.247489
H122	H	1.092253	-0.136063	0.747489
N123	N	0.583015	-0.371420	0.416286
N124	N	1.083015	0.128580	0.916286
H125	H	0.532868	-0.381738	0.409713
H126	H	1.032868	0.118262	0.909713
H127	H	0.595374	-0.295380	0.405835
H128	H	1.095374	0.204620	0.905835
H129	H	0.364826	-0.389387	0.404852
H130	H	0.864826	0.110613	0.904852
H131	H	0.899679	-0.636082	0.584475
H132	H	1.399679	-0.136082	1.084475
N133	N	0.888265	-0.654023	0.722063
N134	N	1.388265	-0.154023	1.222063
H135	H	0.898757	-0.730080	0.709759
H136	H	1.398757	-0.230080	1.209759
H137	H	0.839923	-0.637401	0.709743
H138	H	1.339923	-0.137401	1.209743
H139	H	0.236593	-0.389376	0.404858
H140	H	0.736593	0.110624	0.904858
N141	N	0.729831	-0.654023	0.236020
N142	N	1.229831	-0.154023	0.736020
H143	H	0.759148	-0.610702	0.204695
H144	H	1.259148	-0.110702	0.704695
H145	H	0.696658	-0.697087	0.208603
H146	H	1.196658	-0.197087	0.708603
H147	H	0.864303	-0.945789	0.295520
H148	H	1.364303	-0.445789	0.795520
H149	H	0.236484	-0.636073	0.247535
H150	H	0.736484	-0.136073	0.747535
N151	N	0.374054	-0.654032	0.236055
N152	N	0.874054	-0.154032	0.736055
H153	H	0.403392	-0.703411	0.263502
H154	H	0.903392	-0.203411	0.763502
H155	H	0.403331	-0.610632	0.204740
H156	H	0.903331	-0.110632	0.704740
N157	N	1.074178	-0.935638	0.230453
N158	N	1.574178	-0.435638	0.730453
H159	H	1.120803	-0.961334	0.243085
H160	H	1.620803	-0.461334	0.743085
H161	H	1.073436	-0.855456	0.230515
H162	H	1.573436	-0.355456	0.730515
H163	H	1.092225	-1.078524	0.356827
H164	H	1.592225	-0.578524	0.856827
H165	H	1.008669	-0.945666	0.440250
H166	H	1.508669	-0.445666	0.940250
H167	H	1.056824	-0.389069	0.712768
H168	H	1.556824	0.110931	1.212768
N169	N	0.882333	-1.088387	0.422065
N170	N	1.382333	-0.588387	0.922065
H171	H	0.894865	-1.062429	0.468672
H172	H	1.394865	-0.562429	0.968672
H173	H	0.882361	-1.168572	0.421474
H174	H	1.382361	-0.668572	0.921474
H175	H	0.947821	-1.078808	0.212202
H176	H	1.447821	-0.578808	0.712202
N177	N	1.068292	-0.370999	0.930954
N178	N	1.568292	0.129001	1.430954
H179	H	1.061715	-0.381346	0.880808
H180	H	1.561715	0.118654	1.380808
H181	H	1.116631	-0.387564	0.943318
H182	H	1.616631	0.112436	1.443318
N183	N	0.888263	-0.653942	0.930911
N184	N	1.388263	-0.153942	1.430911
H185	H	0.898750	-0.729992	0.943205
H186	H	1.398750	-0.229992	1.443205
H187	H	0.894824	-0.643552	0.880779
H188	H	1.394824	-0.143552	1.380779
N189	N	1.068322	-0.370948	1.077878
N190	N	1.568322	0.129052	1.577878
H191	H	1.061760	-0.381251	1.128019
H192	H	1.561760	0.118749	1.628019
H193	H	1.057802	-0.294935	1.065525
H194	H	1.557802	0.205065	1.565525
H195	H	1.056810	-0.389120	0.584534
H196	H	1.556810	0.110880	1.084534
N197	N	0.888314	-0.653908	1.077823
N198	N	1.388314	-0.153908	1.577823
H199	H	0.860873	-0.697036	1.044699
H200	H	1.360873	-0.197036	1.544699
H201	H	0.857008	-0.610563	1.107152
H202	H	1.357008	-0.110563	1.607152
