data_functionalizedCrystal
_audit_creation_method	'MofGen! by Chris Wilmer'
_symmetry_space_group_name_H-M	'P1'
_symmetry_Int_Tables_number	1
_symmetry_cell_setting	triclinic
loop_
_symmetry_equiv_pos_as_xyz
  x,y,z
_cell_length_a	29.839126
_cell_length_b	15.297475
_cell_length_c	15.297327
_cell_angle_alpha	91.625546
_cell_angle_beta	80.345031
_cell_angle_gamma	99.683563
loop_
_atom_site_label
_atom_site_type_symbol
_atom_site_fract_x
_atom_site_fract_y
_atom_site_fract_z
Zn1	Zn	-0.414055	-1.278661	0.580903
Zn2	Zn	-0.349353	-1.253200	0.727347
Zn3	Zn	-0.324150	-1.132187	0.555522
Zn4	Zn	-0.409671	-1.106804	0.701935
O5	O	-0.374307	-1.192713	0.641426
O6	O	-0.417854	-1.397851	0.621586
O7	O	-0.283141	-1.237115	0.704567
O8	O	-0.327364	-1.172896	0.436327
O9	O	-0.370318	-1.379145	0.729177
O10	O	-0.393417	-1.280509	0.454975
O11	O	-0.264625	-1.148208	0.578328
O12	O	-0.323113	-1.006253	0.553687
O13	O	-0.473121	-1.129633	0.685866
O14	O	-0.385944	-0.987604	0.661256
O15	O	-0.476342	-1.255896	0.596945
O16	O	-0.366066	-1.212502	0.846537
O17	O	-0.410381	-1.104945	0.827867
C18	C	-0.351318	-0.965148	0.601960
C19	C	-0.341495	-0.867791	0.585097
C20	C	-0.390495	-1.153230	0.868985
C21	C	-0.397443	-1.136419	0.966349
C22	C	-0.491489	-1.192773	0.641402
C23	C	-0.541424	-1.192799	0.641392
C24	C	-0.841425	-1.146537	0.575575
C25	C	-1.029096	-1.146572	0.575518
O26	O	-1.045164	-1.107180	0.519638
N27	N	-1.062202	-1.192869	0.641235
C28	C	-1.048388	-1.239155	0.706974
O29	O	-1.080852	-1.278526	0.762873
C30	C	-0.860717	-1.239113	0.707033
C31	C	-0.827613	-1.192821	0.641307
C32	C	-0.808322	-1.100248	0.509855
C33	C	-0.761407	-1.100243	0.509867
C34	C	-0.747595	-1.146528	0.575599
C35	C	-0.780698	-1.192817	0.641319
C36	C	-0.846903	-1.285394	0.772775
C37	C	-0.799982	-1.285378	0.772785
C38	C	-0.766878	-1.239086	0.707059
C39	C	-0.719972	-1.239097	0.707063
N40	N	-0.686866	-1.192801	0.641346
C41	C	-0.700678	-1.146516	0.575614
C42	C	-1.146917	-1.239174	0.706937
C43	C	-1.193835	-1.239186	0.706921
C44	C	-1.174540	-1.146602	0.575467
C45	C	-1.127622	-1.146596	0.575479
C46	C	-1.113811	-1.192878	0.641220
C47	C	-0.602154	-1.146511	0.575644
C48	C	-0.555236	-1.146514	0.575660
C49	C	-0.574535	-1.239094	0.707117
C50	C	-0.621449	-1.239095	0.707099
C51	C	-0.635256	-1.192797	0.641358
O52	O	-0.703871	-1.278461	0.762920
O53	O	-0.668206	-1.107135	0.519734
C54	C	-0.888340	-1.146541	0.575563
C55	C	-0.921443	-1.192830	0.641283
C56	C	-0.907631	-1.239115	0.707015
C57	C	-0.968360	-1.192842	0.641267
C58	C	-0.982172	-1.146557	0.575535
C59	C	-0.949066	-1.100261	0.509819
C60	C	-0.902152	-1.100257	0.509831
C61	C	-0.940737	-1.285411	0.772732
C62	C	-0.987651	-1.285413	0.772714
C63	C	-1.001463	-1.239128	0.706981
C64	C	-0.257582	-1.192714	0.641396
C65	C	-0.207646	-1.192901	0.641189
C66	C	-0.397386	-1.421167	0.681048
C67	C	-0.407221	-1.518520	0.697932
C68	C	-0.444513	-0.554555	0.761954
C69	C	-0.453741	-0.646026	0.777804
C70	C	-0.425681	-0.701471	0.729628
C71	C	-0.388390	-0.665437	0.665601
C72	C	-0.379159	-0.573957	0.649754
C73	C	-0.360327	-0.720873	0.617428
C74	C	-0.323036	-0.684839	0.553401
C75	C	-0.313807	-0.593368	0.537557
C76	C	-0.341867	-0.537922	0.585732
C77	C	-0.369558	-0.812354	0.633275
C78	C	-0.304204	-0.831756	0.521075
C79	C	-0.294975	-0.740285	0.505225
C80	C	-0.358068	-1.232374	0.412984
C81	C	-0.351148	-1.249275	0.315635
C82	C	-0.324836	-1.313223	1.279594
C83	C	-0.318305	-1.329017	1.188115
C84	C	-0.338089	-1.280870	1.132669
C85	C	-0.364405	-1.216924	1.168711
C86	C	-0.370933	-1.201124	1.260198
C87	C	-0.384187	-1.168770	1.113273
C88	C	-0.410502	-1.104825	1.149315
C89	C	-0.417030	-1.089027	1.240793
C90	C	-0.397246	-1.137175	1.296239
C91	C	-0.377658	-1.184571	1.021786
C92	C	-0.423756	-1.072471	1.002390
C93	C	-0.430286	-1.056677	1.093869
H94	H	-0.528284	-1.108818	0.522134
O95	O	-1.133560	-1.284079	0.770912
C96	C	-1.149291	-1.249776	0.854878
H97	H	-1.180077	-1.215789	0.850836
H98	H	-1.120430	-1.199627	0.876589
C99	C	-1.126062	-1.367703	0.927694
C100	C	-1.163877	-1.325966	0.922732
H101	H	-1.135058	-1.414699	0.969551
H102	H	-1.115463	-1.390813	0.871125
H103	H	-1.102015	-1.325904	0.945784
H104	H	-1.187921	-1.367762	0.904632
H105	H	-1.174481	-1.302865	0.979300
O106	O	-0.405727	-0.847375	0.695562
C107	C	-0.389463	-0.890490	0.761214
H108	H	-0.351668	-0.861976	0.761747
H109	H	-0.393009	-0.964513	0.746140
C110	C	-0.464380	-0.911131	0.851916
C111	C	-0.417961	-0.876104	0.852576
H112	H	-0.481960	-0.902261	0.908273
H113	H	-0.475339	-0.882087	0.807684
H114	H	-0.467329	-0.972814	0.839350
H115	H	-0.415012	-0.814420	0.865131
H116	H	-0.407002	-0.905138	0.896813
O117	O	-0.434636	-0.790354	0.744858
C118	C	-0.443375	-0.835472	0.666249
H119	H	-0.426832	-0.791502	0.606645
H120	H	-0.482169	-0.852034	0.667317
C121	C	-0.443180	-0.975785	0.732659
C122	C	-0.422858	-0.921783	0.659451
H123	H	-0.430526	-1.029028	0.728466
H124	H	-0.437294	-0.945390	0.785620
H125	H	-0.475507	-0.989577	0.733541
H126	H	-0.390532	-0.907984	0.658576
H127	H	-0.428738	-0.952179	0.606489
H128	H	-0.438451	-1.036949	1.270133
H129	H	-0.451712	-1.004611	1.123227
O130	O	-1.226008	-1.284283	0.770651
C131	C	-1.255327	-1.349507	0.730590
H132	H	-1.236833	-1.366882	0.662548
H133	H	-1.287937	-1.322967	0.722876
C134	C	-1.291001	-1.411795	0.872736
C135	C	-1.268285	-1.433141	0.789168
H136	H	-1.298996	-1.463383	0.908870
H137	H	-1.271250	-1.367850	0.899726
H138	H	-1.318173	-1.389677	0.866295
H139	H	-1.241111	-1.455248	0.795609
H140	H	-1.288032	-1.477091	0.762180
H141	H	-0.734457	-1.062544	0.456349
O142	O	-0.870012	-1.055141	0.446059
C143	C	-0.874024	-0.964531	0.450049
H144	H	-0.891446	-0.947969	0.519251
H145	H	-0.895610	-0.949799	0.399122
C146	C	-0.804317	-0.928169	0.344726
C147	C	-0.825711	-0.907826	0.429724
H148	H	-0.774516	-0.893190	0.332185
H149	H	-0.801614	-0.989215	0.342035
H150	H	-0.822310	-0.915892	0.302297
H151	H	-0.807721	-0.920114	0.472152
H152	H	-0.828409	-0.846780	0.432421
O153	O	-0.332813	-0.449065	0.570335
C154	C	-0.288245	-0.414595	0.587432
H155	H	-0.266634	-0.469904	0.581532
H156	H	-0.290763	-0.385756	0.657289
C157	C	-0.291898	-0.273254	0.526958
C158	C	-0.265353	-0.341184	0.519705
H159	H	-0.277777	-0.227968	0.485184
H160	H	-0.321925	-0.296475	0.515443
H161	H	-0.293994	-0.249232	0.585175
H162	H	-0.263262	-0.365212	0.461492
H163	H	-0.235325	-0.317965	0.531209
H164	H	-0.402563	-1.124321	1.370730
H165	H	-0.648404	-1.276801	0.760610
O166	O	-0.471837	-0.500797	0.808712
C167	C	-0.517532	-0.526466	0.793550
H168	H	-0.522802	-0.598725	0.771399
H169	H	-0.524302	-0.482801	0.739637
C170	C	-0.544711	-0.427129	0.906948
C171	C	-0.551184	-0.515881	0.879748
H172	H	-0.565470	-0.420596	0.960117
H173	H	-0.513925	-0.409832	0.917160
H174	H	-0.550352	-0.390752	0.862013
H175	H	-0.545538	-0.552255	0.924678
H176	H	-0.581970	-0.533183	0.869545
H177	H	-0.283438	-0.564031	0.485430
H178	H	-0.873850	-1.323089	0.826296
H179	H	-0.484102	-0.675357	0.829937
H180	H	-0.439864	-1.033263	0.957246
O181	O	-0.258707	-0.705216	0.443154
C182	C	-0.227857	-0.643627	0.483769
H183	H	-0.232711	-0.659234	0.557518
H184	H	-0.234970	-0.573783	0.474820
C185	C	-0.172027	-0.630450	0.350019
C186	C	-0.177987	-0.649623	0.440597
H187	H	-0.141266	-0.634144	0.323387
H188	H	-0.192812	-0.671940	0.322654
H189	H	-0.177958	-0.572247	0.342574
H190	H	-0.172063	-0.707828	0.448041
H191	H	-0.157200	-0.608142	0.467962
O192	O	-0.786647	-1.330413	0.836691
C193	C	-0.825929	-1.371248	0.894707
H194	H	-0.857128	-1.380516	0.859346
H195	H	-0.832404	-1.327618	0.955655
C196	C	-0.779625	-1.450887	0.966947
C197	C	-0.817944	-1.462277	0.923514
H198	H	-0.774700	-1.507036	0.984721
H199	H	-0.753160	-1.423373	0.927864
H200	H	-0.785026	-1.414525	1.017732
H201	H	-0.812541	-1.498628	0.872725
H202	H	-0.844409	-1.489798	0.962590
H203	H	-0.281354	-0.876900	0.481848
O204	O	-0.962506	-1.055181	0.446076
C205	C	-0.987480	-0.989978	0.486137
H206	H	-0.977693	-0.972595	0.554181
H207	H	-1.025990	-1.016544	0.493849
C208	C	-0.987978	-0.927698	0.343994
C209	C	-0.975955	-0.906343	0.427563
H210	H	-0.980871	-0.876109	0.307861
H211	H	-0.971155	-0.971628	0.317003
H212	H	-1.020070	-0.949838	0.350432
H213	H	-0.943863	-0.884214	0.421124
H214	H	-0.992773	-0.862407	0.454551
O215	O	-1.019745	-1.330399	0.836652
C216	C	-0.997488	-1.371263	0.894654
H217	H	-0.960630	-1.334857	0.891460
H218	H	-0.996947	-1.443354	0.874126
C219	C	-1.068963	-1.412411	0.993981
C220	C	-1.023695	-1.367691	0.990064
H221	H	-1.085129	-1.410212	1.052834
H222	H	-1.083959	-1.384883	0.954903
H223	H	-1.068506	-1.472482	0.976870
H224	H	-1.024152	-1.307619	1.007165
H225	H	-1.008699	-1.395209	1.029148
O226	O	-0.292742	-1.391071	1.152957
C227	C	-0.291230	-1.394705	1.060327
H228	H	-0.298199	-1.329246	1.036153
H229	H	-0.318562	-1.451130	1.043299
C230	C	-0.234684	-1.491278	1.044491
C231	C	-0.243240	-1.410877	1.014799
H232	H	-0.205083	-1.501257	1.016407
H233	H	-0.235704	-1.488832	1.106898
H234	H	-0.257464	-1.538289	1.030299
H235	H	-0.220464	-1.363866	1.029001
H236	H	-0.242215	-1.413315	0.952393
H237	H	-0.613390	-1.108812	0.522111
H238	H	-0.308728	-1.352413	1.324744
H239	H	-0.819561	-1.062553	0.456326
H240	H	-1.100671	-1.108902	0.521959
H241	H	-1.185793	-1.108918	0.521943
H242	H	-0.563281	-1.276780	0.760632
H243	H	-0.356232	-1.236635	0.992450
H244	H	-0.929498	-1.323099	0.826262
H245	H	-0.332770	-1.293732	1.058183
