data_functionalizedCrystal
_audit_creation_method	'MofGen! by Chris Wilmer'
_symmetry_space_group_name_H-M	'P1'
_symmetry_Int_Tables_number	1
_symmetry_cell_setting	triclinic
loop_
_symmetry_equiv_pos_as_xyz
  x,y,z
_cell_length_a	16.098538
_cell_length_b	11.026607
_cell_length_c	11.026607
_cell_angle_alpha	71.413983
_cell_angle_beta	86.668643
_cell_angle_gamma	86.664064
loop_
_atom_site_label
_atom_site_type_symbol
_atom_site_fract_x
_atom_site_fract_y
_atom_site_fract_z
O1	O	-0.069254	-1.722260	0.538069
O2	O	0.430746	-1.222260	1.038069
O3	O	-0.069256	-1.355680	0.477305
O4	O	0.430744	-0.855680	0.977305
O5	O	-0.069252	-1.508588	0.324397
O6	O	0.430748	-1.008588	0.824397
O7	O	-0.069258	-1.569352	0.690977
O8	O	0.430742	-1.069352	1.190977
O9	O	0.069261	-1.517517	0.315496
O10	O	0.569261	-1.017517	0.815496
O11	O	0.069257	-1.364609	0.468405
O12	O	0.569257	-0.864609	0.968405
O13	O	0.069259	-1.731189	0.529168
O14	O	0.569259	-1.231189	1.029168
Zn15	Zn	0.091250	-1.549316	0.497373
Zn16	Zn	0.591250	-1.049316	0.997373
Zn17	Zn	-0.091247	-1.537552	0.509100
Zn18	Zn	0.408753	-1.037552	1.009100
O19	O	0.069255	-1.578280	0.682077
O20	O	0.569255	-1.078280	1.182077
C21	C	0.000001	-1.312485	0.461645
C22	C	0.500001	-0.812485	0.961645
C23	C	0.000000	-1.170471	0.428228
C24	C	0.500000	-0.670471	0.928228
N25	N	-0.215796	-1.529522	0.517094
N26	N	0.284204	-1.029522	1.017094
C27	C	0.000003	-1.501843	0.272287
C28	C	0.500003	-1.001843	0.772287
C29	C	0.000000	-1.468426	0.130273
C30	C	0.500000	-0.968426	0.630273
C31	C	-0.259380	-1.594617	0.452387
C32	C	0.240620	-1.094617	0.952387
C33	C	-0.346569	-1.588996	0.457976
C34	C	0.153431	-1.088996	0.957976
C35	C	-0.390173	-1.518273	0.528266
C36	C	0.109827	-1.018273	1.028266
C37	C	-0.346583	-1.453177	0.592981
C38	C	0.153417	-0.953177	1.092981
C39	C	-0.259396	-1.458806	0.587398
C40	C	0.240604	-0.958806	1.087398
C41	C	-0.653424	-1.497887	0.548504
C42	C	-0.153424	-0.997887	1.048504
C43	C	-0.740617	-1.492260	0.554078
C44	C	-0.240617	-0.992260	1.054078
C45	C	-0.740597	-1.628082	0.419075
C46	C	-0.240597	-1.128082	0.919075
C47	C	-0.653408	-1.633698	0.413493
C48	C	-0.153408	-1.133698	0.913493
C49	C	-0.609826	-1.568607	0.478214
C50	C	-0.109826	-1.068607	0.978214
C51	C	-0.479294	-1.512523	0.533977
C52	C	0.020706	-1.012523	1.033977
C53	C	-0.520706	-1.574366	0.472509
C54	C	-0.020706	-1.074366	0.972509
N55	N	0.215799	-1.557354	0.489371
N56	N	0.715799	-1.057354	0.989371
C57	C	0.000000	-1.774384	0.544828
C58	C	0.500000	-1.274384	1.044828
C59	C	-0.000004	-1.916398	0.578246
C60	C	0.499996	-1.416398	1.078246
C61	C	-0.000002	-1.116821	0.520498
C62	C	0.499998	-0.616821	1.020498
C63	C	-0.000003	-0.970043	0.485962
C64	C	0.499997	-0.470043	0.985962
C65	C	-0.000001	-1.560695	0.076624
C66	C	0.499999	-1.060695	0.576624
C67	C	-0.000004	-1.526159	-0.070154
C68	C	0.499996	-1.026159	0.429846
C69	C	-0.000002	-1.585026	0.734187
C70	C	0.499998	-1.085026	1.234187
C71	C	-0.000005	-1.618442	0.876201
C72	C	0.499995	-1.118442	1.376201
H73	H	-0.223883	-1.652201	0.395144
H74	H	0.276117	-1.152201	0.895144
H75	H	-0.000010	-1.421589	-0.132883
H76	H	0.499990	-0.921589	0.367117
H77	H	0.000005	-1.665259	0.139357
H78	H	0.500005	-1.165259	0.639357
H79	H	0.000001	-1.179555	0.625061
H80	H	0.500001	-0.679555	1.125061
H81	H	-0.000067	-1.723009	-0.061068
H82	H	0.499933	-1.223009	0.438932
H83	H	-0.382054	-1.642002	0.405288
H84	H	0.117946	-1.142002	0.905288
H85	H	-0.000006	-1.363863	0.067541
H86	H	0.499994	-0.863863	0.567541
H87	H	-0.617907	-1.691287	0.356258
H88	H	-0.117907	-1.191287	0.856258
H89	H	-0.776089	-1.681077	0.366385
H90	H	-0.276089	-1.181077	0.866385
H91	H	-0.000022	-0.907312	0.381394
H92	H	0.499978	-0.407312	0.881394
H93	H	-0.000001	-0.979125	0.682816
H94	H	0.499999	-0.479125	1.182816
H95	H	-0.776116	-1.434664	0.611319
H96	H	-0.276116	-0.934664	1.111319
H97	H	-0.000020	-1.107736	0.323667
H98	H	0.499980	-0.607736	0.823667
H99	H	-0.617946	-1.444884	0.601199
H100	H	-0.117946	-0.944884	1.101199
H101	H	-0.223911	-1.405801	0.640091
H102	H	0.276089	-0.905801	1.140091
H103	H	-0.485201	-1.631954	0.415285
H104	H	0.014799	-1.131954	0.915285
H105	H	-0.382091	-1.395598	0.650219
H106	H	0.117909	-0.895598	1.150219
H107	H	-0.514804	-1.454936	0.591205
H108	H	-0.014804	-0.954936	1.091205
