data_functionalizedCrystal
_audit_creation_method	'MofGen! by Chris Wilmer'
_symmetry_space_group_name_H-M	'P1'
_symmetry_Int_Tables_number	1
_symmetry_cell_setting	triclinic
loop_
_symmetry_equiv_pos_as_xyz
  x,y,z
_cell_length_a	31.640172
_cell_length_b	21.606444
_cell_length_c	21.606444
_cell_angle_alpha	90.003734
_cell_angle_beta	59.997833
_cell_angle_gamma	60.006392
loop_
_atom_site_label
_atom_site_type_symbol
_atom_site_fract_x
_atom_site_fract_y
_atom_site_fract_z
Zr1	Zr	0.462571	0.596336	-0.081181
O2	O	0.550744	0.497522	-0.180012
O3	O	0.374403	0.626615	-0.050885
O4	O	0.462573	0.626626	-0.180006
O5	O	0.462570	0.497516	0.050963
O6	O	0.462570	0.728480	-0.180000
O7	O	0.462573	0.497510	-0.050891
O8	O	0.304849	0.728460	0.050974
O9	O	0.620291	0.497536	-0.180011
O10	O	0.410664	0.715556	-0.037958
O11	O	0.410664	0.639548	0.038050
O12	O	0.514473	0.639561	-0.113974
O13	O	0.514473	0.563552	-0.037965
Zr14	Zr	0.462562	0.758789	0.081274
Zr15	Zr	0.462566	0.758781	-0.081172
Zr16	Zr	0.462566	0.596344	0.081265
Zr17	Zr	0.573491	0.596358	-0.081179
Zr18	Zr	0.351641	0.758767	0.081272
O19	O	0.550730	0.728510	0.050978
O20	O	0.550737	0.728498	-0.179999
O21	O	0.550737	0.497533	0.050965
O22	O	0.374389	0.857604	0.180105
O23	O	0.374396	0.857592	-0.050872
O24	O	0.374396	0.626627	0.180092
O25	O	0.462562	0.857610	-0.050870
O26	O	0.462560	0.728499	0.180099
O27	O	0.462562	0.626645	0.180093
O28	O	0.462560	0.857615	0.050984
O29	O	0.620287	0.626658	-0.180003
O30	O	0.304845	0.728467	0.180096
O31	O	0.304841	0.857590	0.180104
O32	O	0.304845	0.857583	0.050981
O33	O	0.620287	0.497542	-0.050888
O34	O	0.620284	0.626665	-0.050881
O35	O	0.410659	0.715564	0.114067
O36	O	0.410659	0.791573	0.038058
O37	O	0.514469	0.715577	-0.037957
O38	O	0.514469	0.639569	0.038051
C39	C	0.323822	0.677535	0.000044
C40	C	0.276733	0.677525	0.000043
C41	C	-0.015308	0.717254	-0.039622
C42	C	-0.192304	0.717269	-0.039622
O43	O	-0.215209	0.751040	-0.073337
N44	N	-0.214433	0.677592	0.000052
C45	C	-0.192314	0.637913	0.039733
O46	O	-0.215201	0.604172	0.073485
C47	C	-0.015322	0.637902	0.039737
C48	C	0.006809	0.677575	0.000054
C49	C	0.006822	0.756924	-0.079301
C50	C	0.051071	0.756916	-0.079304
C51	C	0.073189	0.717238	-0.039628
C52	C	0.051058	0.677568	0.000051
C53	C	0.006794	0.598228	0.079421
C54	C	0.051044	0.598230	0.079420
C55	C	0.073175	0.637903	0.039738
C56	C	0.117425	0.637882	0.039724
N57	N	0.139554	0.677559	0.000050
C58	C	0.117436	0.717237	-0.039626
C59	C	-0.285236	0.637920	0.039727
C60	C	-0.329483	0.637922	0.039725
C61	C	-0.329471	0.717279	-0.039628
C62	C	-0.285221	0.717273	-0.039630
C63	C	-0.263107	0.677597	0.000053
C64	C	0.210361	0.717217	-0.039630
C65	C	0.254616	0.717203	-0.039632
C66	C	0.254598	0.637850	0.039724
C67	C	0.210350	0.637860	0.039723
C68	C	0.188231	0.677549	0.000045
O69	O	0.140352	0.604136	0.073428
O70	O	0.140322	0.750986	-0.073359
C71	C	-0.059557	0.717261	-0.039619
C72	C	-0.081688	0.677591	0.000060
C73	C	-0.059570	0.637913	0.039736
C74	C	-0.125935	0.677592	0.000058
C75	C	-0.148053	0.717270	-0.039618
C76	C	-0.125924	0.756947	-0.079292
C77	C	-0.081675	0.756939	-0.079295
C78	C	-0.081699	0.598236	0.079410
C79	C	-0.125947	0.598246	0.079409
C80	C	-0.148065	0.637924	0.039733
C81	C	0.462572	0.474368	0.000035
C82	C	0.462574	0.405406	0.000031
C83	C	0.408371	0.021787	0.039741
C84	C	0.408373	0.086582	0.039734
C85	C	0.462562	0.079308	0.000052
C86	C	0.516753	0.007232	-0.039632
C87	C	0.516751	-0.057561	-0.039629
C88	C	0.516764	0.268535	-0.039646
C89	C	0.516762	0.333336	-0.039644
C90	C	0.408386	0.412678	0.039717
C91	C	0.408383	0.347885	0.039720
C92	C	0.462574	0.275816	0.000033
C93	C	0.462572	0.205558	0.000040
C94	C	0.462565	0.149564	0.000049
C95	C	0.601311	0.677590	0.000049
C96	C	0.648399	0.677600	0.000050
C97	C	0.462572	0.677552	-0.203148
C98	C	0.462574	0.677549	-0.272110
C99	C	0.462560	0.880757	0.000058
C100	C	0.462558	0.949720	0.000062
C101	C	0.516761	0.637879	-0.344188
C102	C	0.516760	0.637886	-0.408983
C103	C	0.462570	0.677558	-0.401699
C104	C	0.408379	0.717232	-0.329613
C105	C	0.408381	0.717229	-0.264820
C106	C	0.408369	0.717244	-0.590916
C107	C	0.408371	0.717242	-0.655717
C108	C	0.516747	0.637901	-0.735079
C109	C	0.516749	0.637898	-0.670286
C110	C	0.462558	0.677575	-0.598207
C111	C	0.462561	0.677569	-0.527949
C112	C	0.462567	0.677560	-0.471954
C113	C	0.462560	0.677573	0.203241
C114	C	0.462558	0.677576	0.272204
C115	C	0.323816	0.880729	0.000056
C116	C	0.276725	0.949682	0.000059
C117	C	0.323816	0.677545	0.203239
C118	C	0.276725	0.677539	0.272200
C119	C	0.323810	0.880740	0.203251
C120	C	0.276718	0.949696	0.272216
C121	C	0.601322	0.474386	-0.203157
C122	C	0.648415	0.405429	-0.272123
C123	C	0.601317	0.474396	0.000037
C124	C	0.648407	0.405443	0.000034
C125	C	0.601317	0.677580	-0.203146
C126	C	0.648407	0.677586	-0.272107
C127	C	0.254614	0.942383	-0.039626
C128	C	0.210373	1.007166	-0.039638
C129	C	0.188242	1.079246	0.000040
C130	C	0.210359	1.086544	0.039726
C131	C	0.254601	1.021762	0.039733
C132	C	0.254609	0.717216	0.344272
C133	C	0.210369	0.717207	0.409075
C134	C	0.188243	0.677526	0.401805
C135	C	0.210363	0.637844	0.329725
C136	C	0.254606	0.637849	0.264924
C137	C	0.254602	1.021761	0.264928
C138	C	0.210360	1.086559	0.329722
C139	C	0.188231	1.079291	0.401804
C140	C	0.210350	1.007218	0.409091
C141	C	0.254595	0.942421	0.344297
C142	C	0.670536	0.333364	-0.264835
C143	C	0.714792	0.268566	-0.329629
C144	C	0.736923	0.275835	-0.401711
C145	C	0.714801	0.347907	-0.408998
C146	C	0.670549	0.412704	-0.344204
C147	C	0.670524	0.412742	0.039713
C148	C	0.714776	0.347959	0.039707
C149	C	0.736909	0.275879	0.000027
C150	C	0.714790	0.268582	-0.039657
C151	C	0.670541	0.333363	-0.039655
C152	C	0.670519	0.717275	-0.264812
C153	C	0.714760	0.717296	-0.329603
C154	C	0.736891	0.677622	-0.401688
C155	C	0.714774	0.637932	-0.408981
C156	C	0.670531	0.637916	-0.344191
H157	H	0.272634	0.749509	-0.071950
H158	H	0.272599	1.027715	0.072054
Br159	Br	0.640499	0.510557	0.093568
H160	H	0.560876	0.605590	-0.676225
H161	H	0.732778	0.353916	0.072025
H162	H	0.732796	0.209887	-0.323681
Br163	Br	0.640532	0.584040	-0.354106
H164	H	0.152217	0.677528	0.454576
Br165	Br	0.180356	0.771067	0.506888
Br166	Br	0.180328	0.583994	0.319871
H167	H	0.272616	0.605542	0.072025
H168	H	0.192371	1.001209	-0.071956
Br169	Br	0.590310	0.323460	-0.093502
H170	H	0.192333	1.145240	0.072030
Br171	Br	0.334830	0.184388	0.093585
Br172	Br	0.284600	0.844621	0.354203
Br173	Br	-0.359502	0.584063	0.093568
Br174	Br	0.284640	0.844568	-0.093484
H175	H	0.732826	0.353817	-0.467695
Br176	Br	0.590293	0.584052	-0.832906
Br177	Br	0.284624	0.771080	0.354161
Br178	Br	0.590303	0.584047	-0.506803
H179	H	-0.063659	0.789245	-0.111608
H180	H	0.152217	1.131989	0.000028
Br181	Br	0.640508	0.323478	-0.167017
H182	H	0.364261	0.471367	0.072030
H183	H	0.732762	0.749615	-0.323650
Br184	Br	-0.255232	0.584071	0.093591
H185	H	0.364243	0.749552	-0.532234
Br186	Br	0.284614	0.583999	0.167114
H187	H	0.364240	0.749550	-0.649777
H188	H	0.364257	0.749532	-0.206131
H189	H	0.272614	1.027694	0.206240
Br190	Br	0.796936	0.677650	-0.489610
H191	H	0.192357	0.749537	-0.071939
Br192	Br	0.590309	0.170735	-0.093497
Br193	Br	0.180311	0.997366	0.506923
H194	H	0.772956	0.223067	-0.454464
H195	H	0.192355	1.145238	0.323775
Br196	Br	0.128184	1.167237	0.489732
Br197	Br	0.640530	0.510504	-0.354110
H198	H	0.772939	0.223136	0.000031
Br199	Br	0.744832	0.170752	-0.093503
H200	H	0.652535	0.327410	-0.071964
H201	H	0.364257	0.353815	0.072037
Br202	Br	0.640494	0.771124	-0.166991
Br203	Br	-0.155947	0.810791	-0.133142
H204	H	0.732800	0.605630	-0.467681
H205	H	0.069086	0.789224	-0.111615
H206	H	0.560876	-0.116241	-0.071942
Br207	Br	-0.023184	0.810776	-0.133158
H208	H	-0.267204	0.749578	-0.071943
Br209	Br	-0.023230	0.544384	0.133282
Br210	Br	-0.359497	0.771128	-0.093474
H211	H	-0.063696	0.565926	0.111721
Br212	Br	0.081051	0.544384	0.133283
Br213	Br	0.180323	0.584004	0.093566
H214	H	0.560875	0.001314	-0.071946
Br215	Br	-0.155973	0.544393	0.133264
H216	H	0.364257	0.749538	-0.323687
Br217	Br	0.334824	0.031669	0.093605
H218	H	0.560889	0.605569	-0.350129
