data_functionalizedCrystal
_audit_creation_method	'MofGen! by Chris Wilmer'
_symmetry_space_group_name_H-M	'P1'
_symmetry_Int_Tables_number	1
_symmetry_cell_setting	triclinic
loop_
_symmetry_equiv_pos_as_xyz
  x,y,z
_cell_length_a	19.076808
_cell_length_b	19.077367
_cell_length_c	29.839126
_cell_angle_alpha	92.273034
_cell_angle_beta	92.321597
_cell_angle_gamma	85.289352
loop_
_atom_site_label
_atom_site_type_symbol
_atom_site_fract_x
_atom_site_fract_y
_atom_site_fract_z
Zn1	Zn	-0.237441	-1.066430	0.220654
Zn2	Zn	-0.355329	-1.061605	0.142625
Zn3	Zn	-0.242184	-0.948543	0.148429
Zn4	Zn	-0.360034	-0.943775	0.220618
O5	O	-0.298747	-1.005088	0.183082
O6	O	-0.249125	-1.164438	0.207890
O7	O	-0.340335	-1.046583	0.080528
O8	O	-0.142897	-0.968195	0.160454
O9	O	-0.335736	-1.160893	0.150562
O10	O	-0.139413	-1.054807	0.213517
O11	O	-0.257208	-0.963516	0.084792
O12	O	-0.261771	-0.849261	0.160419
O13	O	-0.343757	-0.960069	0.283490
O14	O	-0.348355	-0.845759	0.213456
O15	O	-0.253688	-1.050183	0.283516
O16	O	-0.454610	-1.041959	0.150527
O17	O	-0.458067	-0.955390	0.207829
C18	C	-0.306089	-0.821932	0.187564
C19	C	-0.309247	-0.743576	0.189492
C20	C	-0.265583	-0.708570	0.162833
C21	C	-0.268556	-0.634946	0.164644
C22	C	-0.315191	-0.596330	0.193116
C23	C	-0.358860	-0.631340	0.219776
C24	C	-0.355889	-0.704963	0.217963
C25	C	-0.328919	-0.375948	0.201494
C26	C	-0.331884	-0.302321	0.203307
C27	C	-0.241581	-0.305932	0.148173
C28	C	-0.238612	-0.379555	0.146364
C29	C	-0.282284	-0.414560	0.173022
N30	N	-0.318230	-0.521074	0.194969
N31	N	-0.279248	-0.489814	0.171167
C32	C	-0.481919	-0.997653	0.178554
C33	C	-0.560278	-0.994537	0.176630
C34	C	-0.595218	-1.038133	0.203377
C35	C	-0.668844	-1.035202	0.201571
C36	C	-0.707530	-0.988678	0.173014
C37	C	-0.672585	-0.945077	0.146265
C38	C	-0.598960	-0.948005	0.148074
C39	C	-0.927927	-0.975087	0.164639
C40	C	-1.001557	-0.972164	0.162831
C41	C	-0.997812	-1.062288	0.218137
C42	C	-0.924185	-1.065215	0.219942
C43	C	-0.889247	-1.021611	0.193195
N44	N	-0.782788	-0.985683	0.171165
N45	N	-0.813990	-1.024603	0.195046
C46	C	-0.114859	-1.012571	0.187637
C47	C	-0.036497	-1.015760	0.189578
C48	C	-0.298718	-1.005133	0.300260
C49	C	-0.298706	-1.005152	0.350194
C50	C	-0.291373	-0.188960	0.178578
C51	C	-0.288220	-0.267315	0.176648
C52	C	-0.298723	-1.005086	0.066360
C53	C	-0.298531	-1.005211	0.016427
C54	C	-0.255351	-0.961916	0.662062
C55	C	-0.255301	-0.961938	0.849736
O56	O	-0.218510	-0.925139	0.875891
N57	N	-0.298572	-1.005190	0.870982
C58	C	-0.341863	-1.048437	0.845306
O59	O	-0.378672	-1.085221	0.867683
C60	C	-0.341916	-1.048411	0.657633
C61	C	-0.298636	-1.005161	0.636390
C62	C	-0.212075	-0.918669	0.640819
C63	C	-0.212085	-0.918667	0.593903
C64	C	-0.255371	-0.961912	0.568231
C65	C	-0.298646	-1.005159	0.589474
C66	C	-0.385209	-1.091653	0.631958
C67	C	-0.385220	-1.091642	0.585037
C68	C	-0.341940	-1.048392	0.563794
C69	C	-0.341942	-1.048401	0.516886
N70	N	-0.298670	-1.005149	0.495641
C71	C	-0.255385	-0.961904	0.521313
C72	C	-0.341831	-1.048449	0.943837
C73	C	-0.341817	-1.048456	0.990755
C74	C	-0.255256	-0.961956	0.995182
C75	C	-0.255267	-0.961953	0.948263
C76	C	-0.298559	-1.005196	0.922591
C77	C	-0.255409	-0.961903	0.422786
C78	C	-0.255420	-0.961907	0.375866
C79	C	-0.341984	-1.048404	0.371444
C80	C	-0.341970	-1.048403	0.418360
C81	C	-0.298680	-1.005147	0.444030
O82	O	-0.378719	-1.085175	0.490703
O83	O	-0.218592	-0.925114	0.498927
C84	C	-0.255341	-0.961918	0.708978
C85	C	-0.298616	-1.005165	0.730221
C86	C	-0.341901	-1.048410	0.704549
C87	C	-0.298602	-1.005173	0.777139
C88	C	-0.255316	-0.961928	0.802812
C89	C	-0.212045	-0.918676	0.781566
C90	C	-0.212055	-0.918673	0.734650
C91	C	-0.385173	-1.091663	0.725795
C92	C	-0.385159	-1.091662	0.772711
C93	C	-0.341873	-1.048417	0.798383
H94	H	-0.563724	-1.076021	0.226629
H95	H	-0.892689	-1.103098	0.243195
C96	C	-0.187333	-0.422031	0.115030
C97	C	-0.139317	-0.383525	0.085695
C98	C	-0.088044	-0.426000	0.054356
C99	C	-0.084787	-0.506982	0.052353
C100	C	-0.132805	-0.545492	0.081689
C101	C	-0.184078	-0.503017	0.113028
H102	H	-0.141726	-0.323574	0.087177
H103	H	-0.052498	-0.397492	0.032639
H104	H	-0.046832	-0.538424	0.029154
H105	H	-0.130396	-0.605443	0.080208
H106	H	-0.219625	-0.531525	0.134745
H107	H	-0.176845	-0.883445	0.576611
H108	H	-0.364479	-0.404440	0.223202
C109	C	-0.389612	-1.095956	0.343199
C110	C	-0.389634	-1.095932	0.291591
C111	C	-0.437274	-1.143473	0.263344
C112	C	-0.484893	-1.191037	0.286706
C113	C	-0.484873	-1.191063	0.338316
C114	C	-0.437233	-1.143522	0.366563
H115	H	-0.354382	-1.060720	0.274295
H116	H	-0.437288	-1.143454	0.225139
H117	H	-0.520159	-1.226230	0.265796
H118	H	-0.520125	-1.226274	0.355612
H119	H	-0.437219	-1.143541	0.404768
C120	C	-0.207786	-0.914326	0.451019
C121	C	-0.151200	-0.947126	0.483899
C122	C	-0.103574	-0.899553	0.512131
C123	C	-0.112534	-0.819180	0.507483
C124	C	-0.169122	-0.786375	0.474601
C125	C	-0.216749	-0.833948	0.446369
H126	H	-0.144565	-1.006627	0.487341
H127	H	-0.061683	-0.923838	0.536472
H128	H	-0.077278	-0.783964	0.528382
H129	H	-0.175757	-0.726875	0.471159
H130	H	-0.258639	-0.809664	0.422028
H131	H	-0.233004	-0.606448	0.142932
C132	C	-0.193551	-0.267424	0.118848
C133	C	-0.140285	-0.219061	0.140985
C134	C	-0.092255	-0.180553	0.111657
C135	C	-0.097489	-0.190409	0.060192
C136	C	-0.150756	-0.238774	0.038052
C137	C	-0.198787	-0.277282	0.067380
H138	H	-0.136409	-0.211763	0.179085
H139	H	-0.052823	-0.144750	0.128047
H140	H	-0.061934	-0.161903	0.038481
H141	H	-0.154633	-0.246072	-0.000048
H142	H	-0.238219	-0.313085	0.050990
C143	C	-0.432814	-1.139226	0.655324
C144	C	-0.400041	-1.195821	0.686987
C145	C	-0.447647	-1.243396	0.710355
C146	C	-0.528026	-1.234375	0.702061
C147	C	-0.560803	-1.177778	0.670397
C148	C	-0.513197	-1.130203	0.647029
H149	H	-0.340536	-1.202501	0.693128
H150	H	-0.423382	-1.285293	0.733795
H151	H	-0.563266	-1.269593	0.719360
H152	H	-0.620308	-1.171098	0.664256
H153	H	-0.537462	-1.088306	0.623589
H154	H	-0.570512	-0.912504	0.126294
H155	H	-0.220174	-0.926688	0.358573
H156	H	-0.176827	-0.883450	0.661716
H157	H	-0.391446	-0.733463	0.239671
H158	H	-0.220024	-0.926735	0.930970
H159	H	-0.420401	-1.126888	0.790002
H160	H	-0.697289	-1.070708	0.223348
C161	C	-0.889505	-0.927129	0.135212
C162	C	-0.899438	-0.932530	0.083753
C163	C	-0.861015	-0.884570	0.054323
C164	C	-0.812660	-0.831208	0.076353
C165	C	-0.802726	-0.825805	0.127815
C166	C	-0.841148	-0.873765	0.157245
H167	H	-0.935235	-0.972034	0.067443
H168	H	-0.868369	-0.888571	0.016227
H169	H	-0.784217	-0.795705	0.054567
H170	H	-0.766929	-0.786301	0.144125
H171	H	-0.833794	-0.869764	0.195341
H172	H	-1.026266	-1.097787	0.239914
H173	H	-0.396834	-0.599893	0.242957
H174	H	-0.369859	-0.270881	0.226496
C175	C	-0.164450	-0.871092	0.711287
C176	C	-0.084073	-0.880104	0.719589
C177	C	-0.036467	-0.832519	0.696230
C178	C	-0.069238	-0.775921	0.664569
C179	C	-0.149620	-0.766907	0.656266
C180	C	-0.197226	-0.814492	0.679625
H181	H	-0.059810	-0.922004	0.743028
H182	H	0.023038	-0.839193	0.702377
H183	H	-0.033997	-0.740696	0.647278
H184	H	-0.173883	-0.725007	0.632827
H185	H	-0.256730	-0.807818	0.673478
H186	H	-1.033053	-0.934275	0.139576
H187	H	-0.704089	-0.907194	0.123015
H188	H	-0.220009	-0.926746	1.016092
H189	H	-0.377051	-1.083683	1.008047
C190	C	-0.389451	-1.096032	0.915606
C191	C	-0.380469	-1.176404	0.920259
C192	C	-0.428086	-1.223994	0.892033
C193	C	-0.484685	-1.191212	0.859154
C194	C	-0.493669	-1.110836	0.854500
C195	C	-0.446052	-1.063246	0.882726
H196	H	-0.338569	-1.200675	0.944600
H197	H	-0.421434	-1.283493	0.895479
H198	H	-0.519933	-1.226440	0.838259
H199	H	-0.535569	-1.086565	0.830159
H200	H	-0.452704	-1.003746	0.879280
C201	C	-0.432842	-1.139212	0.556798
C202	C	-0.423880	-1.219586	0.561439
C203	C	-0.471500	-1.267156	0.533200
C204	C	-0.528082	-1.234352	0.500319
C205	C	-0.537047	-1.153973	0.495675
C206	C	-0.489427	-1.106403	0.523915
H207	H	-0.381992	-1.243874	0.585781
H208	H	-0.464863	-1.326658	0.536638
H209	H	-0.563333	-1.269566	0.479414
H210	H	-0.578935	-1.129685	0.471333
H211	H	-0.496064	-1.046902	0.520477
H212	H	-0.377203	-1.083629	0.435657
C213	C	-0.164432	-0.871104	0.809811
C214	C	-0.197202	-0.814524	0.842657
C215	C	-0.149595	-0.766952	0.870905
C216	C	-0.069217	-0.775960	0.866307
C217	C	-0.036443	-0.832543	0.833460
C218	C	-0.084050	-0.880115	0.805212
H219	H	-0.256706	-0.807853	0.846062
H220	H	-0.173857	-0.725065	0.895221
H221	H	-0.033976	-0.740744	0.887218
H222	H	0.023061	-0.839213	0.830055
H223	H	-0.059788	-0.922001	0.780896
H224	H	-0.420425	-1.126876	0.704897
C225	C	-0.214283	-0.751044	0.131512
C226	C	-0.242712	-0.800398	0.094209
C227	C	-0.191412	-0.842869	0.062886
C228	C	-0.111683	-0.835986	0.068865
C229	C	-0.083250	-0.786630	0.106169
C230	C	-0.134550	-0.744158	0.137492
H231	H	-0.301735	-0.805496	0.089782
H232	H	-0.212460	-0.879406	0.035271
H233	H	-0.073707	-0.867426	0.045678
H234	H	-0.024226	-0.781532	0.110596
H235	H	-0.113502	-0.707621	0.165107
