data_functionalizedCrystal
_audit_creation_method	'MofGen! by Chris Wilmer'
_symmetry_space_group_name_H-M	'P1'
_symmetry_Int_Tables_number	1
_symmetry_cell_setting	triclinic
loop_
_symmetry_equiv_pos_as_xyz
  x,y,z
_cell_length_a	11.169417
_cell_length_b	10.686285
_cell_length_c	11.169409
_cell_angle_alpha	85.599660
_cell_angle_beta	89.980487
_cell_angle_gamma	85.633103
loop_
_atom_site_label
_atom_site_type_symbol
_atom_site_fract_x
_atom_site_fract_y
_atom_site_fract_z
Zn1	Zn	1.871632	-0.502207	-0.641950
Zn2	Zn	2.204965	-0.168874	-0.308616
Zn3	Zn	2.538299	0.164460	0.024717
Zn4	Zn	1.886932	-0.713259	-0.425893
Zn5	Zn	2.220265	-0.379926	-0.092559
Zn6	Zn	2.553598	-0.046593	0.240774
Zn7	Zn	1.670924	-0.502285	-0.441279
Zn8	Zn	2.004257	-0.168952	-0.107946
Zn9	Zn	2.337590	0.164381	0.225387
Zn10	Zn	1.686328	-0.713158	-0.626546
Zn11	Zn	2.019662	-0.379825	-0.293213
Zn12	Zn	2.352995	-0.046491	0.040121
O13	O	1.778954	-0.607727	-0.533917
O14	O	2.112287	-0.274394	-0.200584
O15	O	2.445621	0.058939	0.132750
O16	O	2.041612	-0.530213	-0.613296
O17	O	2.374945	-0.196880	-0.279963
O18	O	2.708279	0.136453	0.053370
O19	O	1.858234	-0.685348	-0.259978
O20	O	2.191567	-0.352015	0.073355
O21	O	2.524900	-0.018682	0.406688
O22	O	1.684698	-0.325698	-0.480785
O23	O	2.018031	0.007635	-0.147451
O24	O	2.351365	0.340969	0.185882
O25	O	2.052853	-0.685272	-0.454560
O26	O	2.386186	-0.351939	-0.121227
O27	O	2.719519	-0.018606	0.212107
O28	O	1.832158	-0.325640	-0.628216
O29	O	2.165491	0.007693	-0.294883
O30	O	2.498824	0.341026	0.038450
O31	O	1.699534	-0.530347	-0.271283
O32	O	2.032867	-0.197013	0.062050
O33	O	2.366200	0.136320	0.395384
O34	O	1.505017	-0.530248	-0.465848
O35	O	1.838350	-0.196915	-0.132515
O36	O	2.171683	0.136418	0.200818
O37	O	1.710953	-0.685100	-0.796545
O38	O	2.044287	-0.351766	-0.463211
O39	O	2.377620	-0.018433	-0.129878
O40	O	1.516334	-0.685176	-0.601963
O41	O	1.849668	-0.351842	-0.268630
O42	O	2.183001	-0.018509	0.064704
O43	O	1.847095	-0.530115	-0.807862
O44	O	2.180428	-0.196782	-0.474528
O45	O	2.513762	0.136552	-0.141195
O46	O	1.873171	-0.889823	-0.439624
O47	O	2.206505	-0.556490	-0.106290
O48	O	2.539838	-0.223156	0.227043
O49	O	1.725789	-0.889748	-0.587043
O50	O	2.059122	-0.556415	-0.253710
O51	O	2.392455	-0.223082	0.079624
C52	C	1.467128	-0.607710	-0.533904
C53	C	1.800461	-0.274377	-0.200571
C54	C	2.133795	0.058956	0.132762
C55	C	1.333730	-0.607734	-0.533925
C56	C	1.667063	-0.274400	-0.200592
C57	C	2.000396	0.058933	0.132741
C58	C	1.802844	-0.935570	-0.510018
C59	C	2.136178	-0.602237	-0.176685
C60	C	2.469511	-0.268903	0.156648
C61	C	1.813175	-1.075823	-0.499834
C62	C	2.146508	-0.742489	-0.166501
C63	C	2.479841	-0.409156	0.166832
C64	C	2.091998	-0.607745	-0.533930
C65	C	2.425331	-0.274412	-0.200597
C66	C	2.758664	0.058921	0.132737
C67	C	2.225398	-0.607753	-0.533936
C68	C	2.558731	-0.274420	-0.200602
C69	C	2.892065	0.058914	0.132731
C70	C	1.779036	-0.607587	-0.846970
C71	C	2.112369	-0.274254	-0.513636
C72	C	2.445702	0.059079	-0.180303
C73	C	1.779071	-0.607528	-0.980374
C74	C	2.112404	-0.274194	-0.647041
C75	C	2.445737	0.059139	-0.313708
C76	C	1.755003	-0.278605	-0.557935
C77	C	2.088336	0.054729	-0.224602
C78	C	2.421669	0.388062	0.108731
C79	C	1.744796	-0.138352	-0.568170
C80	C	2.078130	0.194981	-0.234837
C81	C	2.411463	0.528315	0.098496
C82	C	1.778935	-0.607776	-0.222089
C83	C	2.112268	-0.274443	0.111245
C84	C	2.445601	0.058891	0.444578
C85	C	1.779106	-0.607480	-0.088711
C86	C	2.112440	-0.274147	0.244623
C87	C	2.445773	0.059186	0.577956
H88	H	1.678352	-1.084590	-0.634468
H89	H	2.011686	-0.751257	-0.301135
H90	H	2.345019	-0.417923	0.032198
O91	O	1.901212	-1.147029	-0.412020
O92	O	2.234545	-0.813695	-0.078687
O93	O	2.567879	-0.480362	0.254647
H94	H	1.895797	-1.249710	-0.417539
H95	H	2.229131	-0.916377	-0.084205
H96	H	2.562464	-0.583043	0.249128
