data_functionalizedCrystal
_audit_creation_method	'MofGen! by Chris Wilmer'
_symmetry_space_group_name_H-M	'P1'
_symmetry_Int_Tables_number	1
_symmetry_cell_setting	triclinic
loop_
_symmetry_equiv_pos_as_xyz
  x,y,z
_cell_length_a	12.645331
_cell_length_b	16.994747
_cell_length_c	12.645323
_cell_angle_alpha	90.006372
_cell_angle_beta	90.022676
_cell_angle_gamma	90.010038
loop_
_atom_site_label
_atom_site_type_symbol
_atom_site_fract_x
_atom_site_fract_y
_atom_site_fract_z
Zn1	Zn	1.620780	-0.314043	0.599583
Zn2	Zn	1.620682	-0.445958	0.422380
Zn3	Zn	1.443495	-0.314070	0.422327
Zn4	Zn	1.443497	-0.445907	0.599595
O5	O	1.532114	-0.379995	0.510971
O6	O	1.769114	-0.331552	0.576093
O7	O	1.597136	-0.428496	0.274026
O8	O	1.467052	-0.203685	0.445813
O9	O	1.769043	-0.428470	0.445903
O10	O	1.597303	-0.203666	0.576042
O11	O	1.466957	-0.331598	0.273987
O12	O	1.295148	-0.331548	0.445825
O13	O	1.467056	-0.428382	0.747941
O14	O	1.295149	-0.428408	0.576063
O15	O	1.597305	-0.331503	0.747932
O16	O	1.597138	-0.556333	0.445915
O17	O	1.466961	-0.556295	0.576115
C18	C	1.256684	-0.379976	0.510941
C19	C	1.138854	-0.379987	0.510953
C20	C	1.532052	-0.584934	0.511019
C21	C	1.532060	-0.674257	0.511016
Zn22	Zn	1.443525	-0.945156	0.422297
Zn23	Zn	1.620827	-0.945108	0.599536
Zn24	Zn	1.443533	-0.813299	0.599577
Zn25	Zn	1.620702	-0.813214	0.422345
O26	O	1.532147	-0.879194	0.510939
O27	O	1.467094	-1.055531	0.445771
O28	O	1.597365	-0.927639	0.747889
O29	O	1.295185	-0.830846	0.576058
O30	O	1.597357	-1.055496	0.575987
O31	O	1.295179	-0.927721	0.445811
O32	O	1.467108	-0.830800	0.747919
O33	O	1.466986	-0.702907	0.576105
O34	O	1.597143	-0.830700	0.273992
O35	O	1.597151	-0.702844	0.445893
O36	O	1.466972	-0.927638	0.273956
O37	O	1.769158	-0.927556	0.576034
O38	O	1.769066	-0.830654	0.445853
C39	C	0.971253	-0.318772	0.429471
C40	C	1.093813	-0.318930	0.429113
C41	C	1.094346	-0.463080	0.480474
C42	C	0.971748	-0.462746	0.479918
C43	C	0.971701	-0.358899	0.623227
C44	C	1.094307	-0.357043	0.622603
C45	C	1.808619	-0.380014	0.511003
C46	C	1.926449	-0.380022	0.511016
C47	C	1.532192	-0.379934	0.787477
C48	C	1.532225	-0.379908	0.905307
C49	C	1.532180	-0.174254	0.510917
C50	C	1.532213	-0.084932	0.510895
C51	C	1.532097	-0.379998	0.235541
C52	C	1.532269	-0.379802	0.117712
C53	C	1.450032	-0.440567	1.072877
C54	C	1.450248	-0.440868	0.950317
C55	C	1.643928	-0.402468	0.949836
C56	C	1.643477	-0.402849	1.072435
C57	C	1.503771	-0.296348	1.072468
C58	C	1.501279	-0.296849	0.949862
C59	C	1.807577	-0.879092	0.510947
C60	C	1.925407	-0.879072	0.510981
C61	C	1.532043	-0.879165	0.234434
C62	C	1.531998	-0.879153	0.116603
C63	C	1.255642	-0.879299	0.510934
C64	C	1.137812	-0.879343	0.510932
C65	C	1.532175	-0.879268	0.786369
C66	C	1.531924	-0.879431	0.904198
C67	C	2.092957	-0.818263	0.428924
C68	C	1.970397	-0.818025	0.429121
C69	C	1.969907	-0.856576	0.622732
C70	C	2.092505	-0.856133	0.622301
C71	C	2.092617	-0.962524	0.482403
C72	C	1.970011	-0.962084	0.479892
C73	C	1.613524	-0.817954	-0.050938
C74	C	1.613912	-0.818134	0.071622
C75	C	1.562351	-0.962256	0.072094
C76	C	1.562878	-0.961900	-0.050504
C77	C	1.419713	-0.857974	-0.050607
C78	C	1.420369	-0.856139	0.072000
H79	H	0.941780	-0.256969	0.448366
H80	H	1.504763	-1.009085	0.101230
H81	H	1.123401	-0.295895	0.645586
H82	H	1.643469	-0.980537	0.102819
H83	H	1.706828	-0.360512	1.102095
C84	C	1.584679	-0.235184	1.111641
C85	C	1.547593	-0.164368	1.177934
C86	C	1.628504	-0.103212	1.217114
C87	C	1.746501	-0.112874	1.190002
C88	C	1.783593	-0.183693	1.123705
C89	C	1.702682	-0.244849	1.084525
H90	H	1.460239	-0.157213	1.198007
H91	H	1.601046	-0.050787	1.266191
H92	H	1.806397	-0.067603	1.219005
H93	H	1.870947	-0.190848	1.103632
H94	H	1.730140	-0.297274	1.035448
C95	C	1.133380	-0.337802	0.316782
C96	C	1.053422	-0.352781	0.227126
C97	C	1.092988	-0.371659	0.114792
C98	C	1.212512	-0.375559	0.092114
C99	C	1.292477	-0.360580	0.181773
C100	C	1.252911	-0.341702	0.294107
H101	H	0.964937	-0.349894	0.243911
H102	H	1.033792	-0.382747	0.048421
H103	H	1.241801	-0.389533	0.008958
H104	H	1.380963	-0.363467	0.164987
H105	H	1.312107	-0.330614	0.360478
H106	H	0.943105	-0.480659	0.397887
H107	H	2.123770	-0.756781	0.447668
C108	C	1.395643	-0.268564	1.114193
C109	C	1.305286	-0.250600	1.036173
C110	C	1.197154	-0.222826	1.077898
C111	C	1.179380	-0.213015	1.197643
C112	C	1.269740	-0.230979	1.275670
C113	C	1.377872	-0.258754	1.233945
H114	H	1.318441	-0.257862	0.947523
H115	H	1.130264	-0.209527	1.020136
H116	H	1.099335	-0.192455	1.228530
H117	H	1.256585	-0.223717	1.364319
H118	H	1.444762	-0.272052	1.291707
H119	H	1.706844	-0.359610	0.920682
H120	H	1.123904	-0.257313	0.448212
C121	C	1.135743	-0.412902	0.709078
C122	C	1.211087	-0.480634	0.679692
C123	C	1.252533	-0.536495	0.766166
C124	C	1.218634	-0.524624	0.882026
C125	C	1.143286	-0.456889	0.911417
C126	C	1.101840	-0.401028	0.824943
H127	H	1.236185	-0.489424	0.593921
H128	H	1.308311	-0.586637	0.744408
H129	H	1.249315	-0.565975	0.946039
H130	H	1.118188	-0.448099	0.997189
H131	H	1.046062	-0.350886	0.846701
C132	C	1.929747	-0.837032	0.317181
C133	C	1.959346	-0.783290	0.223723
C134	C	1.918705	-0.802294	0.111777
C135	C	1.848465	-0.875040	0.093289
C136	C	1.818862	-0.928786	0.186749
C137	C	1.859503	-0.909782	0.298695
H138	H	2.011345	-0.729435	0.237407
H139	H	1.940619	-0.762507	0.042591
H140	H	1.818380	-0.889108	0.010419
H141	H	1.766863	-0.982641	0.173066
H142	H	1.837589	-0.949569	0.367881
H143	H	2.121617	-1.007827	0.542229
H144	H	1.392052	-0.798427	-0.081533
C145	C	1.389435	-0.773523	0.111301
C146	C	1.465147	-0.727150	0.183555
C147	C	1.434216	-0.644533	0.222865
C148	C	1.327573	-0.608290	0.189920
C149	C	1.251855	-0.654663	0.117662
C150	C	1.282786	-0.737279	0.078353
H151	H	1.544096	-0.753979	0.207947
H152	H	1.490268	-0.610205	0.276355
H153	H	1.304677	-0.547132	0.219018
H154	H	1.172906	-0.627833	0.093270
H155	H	1.226733	-0.771607	0.024862
H156	H	1.668496	-0.462836	0.919174
H157	H	1.356316	-0.897467	0.102618
H158	H	1.556799	-0.249182	0.919220
C159	C	1.390228	-0.273857	0.910544
C160	C	1.327906	-0.330211	0.838319
C161	C	1.216855	-0.307222	0.798995
C162	C	1.168125	-0.227878	0.831895
C163	C	1.230448	-0.171519	0.904124
C164	C	1.341499	-0.194508	0.943448
H165	H	1.363979	-0.388950	0.813961
H166	H	1.170720	-0.348943	0.745527
H167	H	1.085919	-0.210860	0.802786
H168	H	1.194376	-0.112780	0.928482
H169	H	1.387634	-0.152787	0.996916
C170	C	1.588163	-0.734447	-0.090814
C171	C	1.657976	-0.664592	-0.056942
C172	C	1.632635	-0.581086	-0.096855
C173	C	1.537482	-0.567436	-0.170639
C174	C	1.467664	-0.637294	-0.204514
C175	C	1.493004	-0.720799	-0.164602
H176	H	1.728419	-0.674694	-0.002320
H177	H	1.684320	-0.529373	-0.071778
H178	H	1.518723	-0.505621	-0.200185
H179	H	1.397220	-0.627191	-0.259137
H180	H	1.441320	-0.772512	-0.189679
H181	H	1.667632	-0.463855	1.101072
C182	C	0.929555	-0.337399	0.317799
C183	C	0.962326	-0.285497	0.223526
C184	C	0.920615	-0.304120	0.111858
C185	C	0.846132	-0.374644	0.094463
C186	C	0.813357	-0.426551	0.188739
C187	C	0.855068	-0.407928	0.300407
H188	H	1.017467	-0.233286	0.236401
H189	H	0.944878	-0.265695	0.042069
H190	H	0.815255	-0.388430	0.011799
H191	H	0.758217	-0.478762	0.175864
H192	H	0.830806	-0.446353	0.370196
C193	C	2.132800	-0.837048	0.316666
C194	C	2.252273	-0.837212	0.293133
C195	C	2.292133	-0.856002	0.180876
C196	C	2.212519	-0.874628	0.092152
C197	C	2.093038	-0.874464	0.115683
C198	C	2.053178	-0.855675	0.227940
H199	H	2.311215	-0.823424	0.358814
H200	H	2.380581	-0.856123	0.163457
H201	H	2.242026	-0.888537	0.009053
H202	H	2.034097	-0.888253	0.050003
H203	H	1.964730	-0.855554	0.245359
C204	C	1.337532	-0.918181	-0.089807
C205	C	1.317878	-0.928533	-0.209191
C206	C	1.235707	-0.988742	-0.248398
C207	C	1.173190	-1.038599	-0.168221
C208	C	1.192842	-1.028248	-0.048830
C209	C	1.275013	-0.968039	-0.009622
H210	H	1.364158	-0.891625	-0.268549
H211	H	1.221159	-0.996404	-0.336780
H212	H	1.112362	-1.083169	-0.197245
H213	H	1.146562	-1.065156	0.010529
H214	H	1.289561	-0.960378	0.078759
H215	H	1.594893	-0.756513	0.101716
C216	C	0.931700	-0.526493	0.556638
C217	C	1.011278	-0.577544	0.618211
C218	C	0.971236	-0.641295	0.694921
C219	C	0.851616	-0.653997	0.710057
C220	C	0.772032	-0.602945	0.648482
C221	C	0.812074	-0.539193	0.571773
H222	H	1.099834	-0.568143	0.607008
H223	H	1.030150	-0.679087	0.740503
H224	H	0.821975	-0.701190	0.766842
H225	H	0.683475	-0.612346	0.659685
H226	H	0.753159	-0.501401	0.526191
H227	H	1.941074	-0.756192	0.448076
H228	H	1.696160	-0.831796	-0.081752
H229	H	2.121106	-0.795131	0.646569
C230	C	1.673656	-0.986143	-0.089149
C231	C	1.738988	-0.929384	-0.157995
C232	C	1.849772	-0.953623	-0.196632
C233	C	1.895224	-1.034622	-0.166422
C234	C	1.829891	-1.091386	-0.097571
C235	C	1.719108	-1.067147	-0.058935
H236	H	1.705343	-0.869419	-0.180362
H237	H	1.898135	-0.911602	-0.247600
H238	H	1.977232	-1.052565	-0.195023
H239	H	1.863536	-1.151351	-0.075205
H240	H	1.670744	-1.109168	-0.007967
H241	H	1.697053	-0.832148	0.100944
C242	C	0.932565	-0.419160	0.705316
C243	C	1.012794	-0.469035	0.767779
C244	C	0.973654	-0.529297	0.849859
C245	C	0.854285	-0.539685	0.869476
C246	C	0.774049	-0.489809	0.807012
C247	C	0.813189	-0.429546	0.724932
H248	H	1.101165	-0.461346	0.753259
H249	H	1.033051	-0.566219	0.896099
H250	H	0.825311	-0.584295	0.930236
H251	H	0.685678	-0.497497	0.821532
H252	H	0.753792	-0.392625	0.678692
H253	H	2.122177	-0.898498	0.685589
C254	C	0.929953	-0.278473	0.660690
C255	C	0.854223	-0.230948	0.589859
C256	C	0.812473	-0.150520	0.627308
C257	C	0.846452	-0.117616	0.735588
C258	C	0.922186	-0.165142	0.806425
C259	C	0.963937	-0.245570	0.768976
H260	H	0.829066	-0.255305	0.509698
H261	H	0.756409	-0.115338	0.574869
H262	H	0.815546	-0.058078	0.763310
H263	H	0.947344	-0.140785	0.886586
H264	H	1.020000	-0.280752	0.821415
C265	C	2.134371	-0.990203	0.374231
C266	C	2.056373	-1.008135	0.283831
C267	C	2.098127	-1.035803	0.175655
C268	C	2.217879	-1.045539	0.157879
C269	C	2.295885	-1.027607	0.248283
C270	C	2.254131	-0.999939	0.356458
H271	H	1.967718	-1.000927	0.296987
H272	H	2.040381	-1.049077	0.108733
H273	H	2.248788	-1.066021	0.077801
H274	H	2.384540	-1.034814	0.235126
H275	H	2.311877	-0.986664	0.423381
H276	H	1.123523	-0.509936	0.538005
H277	H	1.125005	-0.481301	0.399323
H278	H	1.367416	-0.426750	0.920209
H279	H	1.366956	-0.426585	1.102344
H280	H	1.469062	-0.502736	0.921029
H281	H	1.468663	-0.502049	1.103722
H282	H	1.940765	-0.899498	0.685566
H283	H	1.939209	-0.796243	0.647403
H284	H	1.940928	-0.979048	0.397653
H285	H	1.939377	-1.009811	0.535315
H286	H	1.505982	-1.009033	-0.080183
