data_functionalizedCrystal
_audit_creation_method	'MofGen! by Chris Wilmer'
_symmetry_space_group_name_H-M	'P1'
_symmetry_Int_Tables_number	1
_symmetry_cell_setting	triclinic
loop_
_symmetry_equiv_pos_as_xyz
  x,y,z
_cell_length_a	27.732048
_cell_length_b	27.732048
_cell_length_c	15.186229
_cell_angle_alpha	89.991324
_cell_angle_beta	90.002148
_cell_angle_gamma	82.642655
loop_
_atom_site_label
_atom_site_type_symbol
_atom_site_fract_x
_atom_site_fract_y
_atom_site_fract_z
O1	O	0.640926	0.057516	-0.073124
O2	O	0.890926	0.307516	0.176876
O3	O	1.140926	0.557516	0.426876
O4	O	1.390926	0.807516	0.676876
O5	O	0.500133	0.066262	-0.073152
O6	O	0.750133	0.316262	0.176848
O7	O	1.000133	0.566262	0.426848
O8	O	1.250133	0.816262	0.676848
O9	O	0.574902	-0.008508	-0.073121
O10	O	0.824902	0.241492	0.176879
O11	O	1.074902	0.491492	0.426879
O12	O	1.324902	0.741492	0.676879
O13	O	0.566157	0.132286	-0.073156
O14	O	0.816157	0.382286	0.176844
O15	O	1.066157	0.632286	0.426844
O16	O	1.316157	0.882286	0.676844
O17	O	0.574897	-0.008509	0.073336
O18	O	0.824897	0.241491	0.323336
O19	O	1.074897	0.491491	0.573336
O20	O	1.324897	0.741491	0.823336
O21	O	0.500128	0.066261	0.073305
O22	O	0.750128	0.316261	0.323305
O23	O	1.000128	0.566261	0.573305
O24	O	1.250128	0.816261	0.823305
O25	O	0.640921	0.057515	0.073333
O26	O	0.890921	0.307515	0.323333
O27	O	1.140921	0.557515	0.573333
O28	O	1.390921	0.807515	0.823333
Zn29	Zn	0.570524	0.061888	0.096572
Zn30	Zn	0.820524	0.311888	0.346572
Zn31	Zn	1.070524	0.561888	0.596572
Zn32	Zn	1.320524	0.811888	0.846572
Zn33	Zn	0.570530	0.061889	-0.096392
Zn34	Zn	0.820530	0.311889	0.153608
Zn35	Zn	1.070530	0.561889	0.403608
Zn36	Zn	1.320530	0.811889	0.653608
O37	O	0.566152	0.132285	0.073301
O38	O	0.816152	0.382285	0.323301
O39	O	1.066152	0.632285	0.573301
O40	O	1.316152	0.882285	0.823301
C41	C	0.574716	-0.026515	0.000110
C42	C	0.824716	0.223485	0.250110
C43	C	1.074716	0.473485	0.500110
C44	C	1.324716	0.723485	0.750110
C45	C	0.574164	-0.080170	0.000117
C46	C	0.824164	0.169830	0.250117
C47	C	1.074164	0.419830	0.500117
C48	C	1.324164	0.669830	0.750117
C49	C	0.482124	0.066078	0.000073
C50	C	0.732124	0.316078	0.250073
C51	C	0.982124	0.566078	0.500073
C52	C	1.232124	0.816078	0.750073
C53	C	0.428469	0.065525	0.000063
C54	C	0.678469	0.315525	0.250063
C55	C	0.928469	0.565525	0.500063
C56	C	1.178469	0.815525	0.750063
C57	C	0.614867	-0.418985	0.000080
C58	C	0.864867	-0.168985	0.250080
C59	C	1.114867	0.081015	0.500080
C60	C	1.364867	0.331015	0.750080
C61	C	0.612816	-0.620645	0.000068
C62	C	0.862816	-0.370645	0.250068
C63	C	1.112816	-0.120645	0.500068
C64	C	1.362816	0.129355	0.750068
O65	O	0.650037	-0.651900	0.000036
O66	O	0.900037	-0.401900	0.250036
O67	O	1.150037	-0.151900	0.500036
O68	O	1.400037	0.098100	0.750036
N69	N	0.568481	-0.639768	0.000060
N70	N	0.818481	-0.389768	0.250060
N71	N	1.068481	-0.139768	0.500060
N72	N	1.318481	0.110232	0.750060
C73	C	0.524656	-0.608474	0.000049
C74	C	0.774656	-0.358474	0.250049
C75	C	1.024656	-0.108474	0.500049
C76	C	1.274656	0.141526	0.750049
O77	O	0.486899	-0.629367	0.000033
O78	O	0.736899	-0.379367	0.250033
O79	O	0.986899	-0.129367	0.500033
O80	O	1.236899	0.120633	0.750033
C81	C	0.526707	-0.406815	0.000055
C82	C	0.776707	-0.156815	0.250055
C83	C	1.026707	0.093185	0.500055
C84	C	1.276707	0.343185	0.750055
C85	C	0.571045	-0.387694	0.000072
C86	C	0.821045	-0.137694	0.250072
C87	C	1.071045	0.112306	0.500072
C88	C	1.321045	0.362306	0.750072
C89	C	0.659202	-0.399864	0.000096
C90	C	0.909202	-0.149864	0.250096
C91	C	1.159202	0.100136	0.500096
C92	C	1.409202	0.350136	0.750096
C93	C	0.659714	-0.349452	0.000104
C94	C	0.909714	-0.099452	0.250104
C95	C	1.159714	0.150548	0.500104
C96	C	1.409714	0.400548	0.750104
C97	C	0.615892	-0.318161	0.000096
C98	C	0.865892	-0.068161	0.250096
C99	C	1.115892	0.181839	0.500096
C100	C	1.365892	0.431839	0.750096
C101	C	0.571557	-0.337282	0.000080
C102	C	0.821557	-0.087282	0.250080
C103	C	1.071557	0.162718	0.500080
C104	C	1.321557	0.412718	0.750080
C105	C	0.482882	-0.375521	0.000038
C106	C	0.732882	-0.125521	0.250038
C107	C	0.982882	0.124479	0.500038
C108	C	1.232882	0.374479	0.750038
C109	C	0.483399	-0.325104	0.000038
C110	C	0.733399	-0.075104	0.250038
C111	C	0.983399	0.174896	0.500038
C112	C	1.233399	0.424896	0.750038
C113	C	0.527737	-0.305983	0.000055
C114	C	0.777737	-0.055983	0.250055
C115	C	1.027737	0.194017	0.500055
C116	C	1.277737	0.444017	0.750055
C117	C	0.528247	-0.255580	0.000080
C118	C	0.778247	-0.005580	0.250080
C119	C	1.028247	0.244420	0.500080
C120	C	1.278247	0.494420	0.750080
N121	N	0.572583	-0.236456	0.000088
N122	N	0.822583	0.013544	0.250088
N123	N	1.072583	0.263544	0.500088
N124	N	1.322583	0.513544	0.750088
C125	C	0.616405	-0.267747	0.000096
C126	C	0.866405	-0.017747	0.250096
C127	C	1.116405	0.232253	0.500096
C128	C	1.366405	0.482253	0.750096
C129	C	0.523582	-0.714348	0.000047
C130	C	0.773582	-0.464348	0.250047
C131	C	1.023582	-0.214348	0.500047
C132	C	1.273582	0.035652	0.750047
C133	C	0.523069	-0.764762	0.000047
C134	C	0.773069	-0.514762	0.250047
C135	C	1.023069	-0.264762	0.500047
C136	C	1.273069	-0.014762	0.750047
C137	C	0.611230	-0.776930	0.000064
C138	C	0.861230	-0.526930	0.250064
C139	C	1.111230	-0.276930	0.500064
C140	C	1.361230	-0.026930	0.750064
C141	C	0.611742	-0.726514	0.000071
C142	C	0.861742	-0.476514	0.250071
C143	C	1.111742	-0.226514	0.500071
C144	C	1.361742	0.023486	0.750071
C145	C	0.567917	-0.695224	0.000055
C146	C	0.817917	-0.445224	0.250055
C147	C	1.067917	-0.195224	0.500055
C148	C	1.317917	0.054776	0.750055
C149	C	0.617477	-0.161878	0.000114
C150	C	0.867477	0.088122	0.250114
C151	C	1.117477	0.338122	0.500114
C152	C	1.367477	0.588122	0.750114
C153	C	0.617986	-0.111461	0.000125
C154	C	0.867986	0.138539	0.250125
C155	C	1.117986	0.388539	0.500125
C156	C	1.367986	0.638539	0.750125
C157	C	0.529825	-0.099298	0.000104
C158	C	0.779825	0.150702	0.250104
C159	C	1.029825	0.400702	0.500104
C160	C	1.279825	0.650702	0.750104
C161	C	0.529316	-0.149710	0.000097
C162	C	0.779316	0.100290	0.250097
C163	C	1.029316	0.350290	0.500097
C164	C	1.279316	0.600290	0.750097
C165	C	0.573147	-0.180999	0.000099
C166	C	0.823147	0.069001	0.250099
C167	C	1.073147	0.319001	0.500099
C168	C	1.323147	0.569001	0.750099
O169	O	0.491047	-0.224296	0.000101
O170	O	0.741047	0.025704	0.250101
O171	O	0.991047	0.275704	0.500101
O172	O	1.241047	0.525704	0.750101
O173	O	0.654156	-0.246844	0.000093
O174	O	0.904156	0.003156	0.250093
O175	O	1.154156	0.253156	0.500093
O176	O	1.404156	0.503156	0.750093
C177	C	0.614355	-0.469397	0.000072
C178	C	0.864355	-0.219397	0.250072
C179	C	1.114355	0.030603	0.500072
C180	C	1.364355	0.280603	0.750072
C181	C	0.570021	-0.488518	0.000056
C182	C	0.820021	-0.238518	0.250056
C183	C	1.070021	0.011482	0.500056
C184	C	1.320021	0.261482	0.750056
C185	C	0.526198	-0.457228	0.000048
C186	C	0.776198	-0.207228	0.250048
C187	C	1.026198	0.042772	0.500048
C188	C	1.276198	0.292772	0.750048
C189	C	0.569508	-0.538933	0.000056
C190	C	0.819508	-0.288933	0.250056
C191	C	1.069508	-0.038933	0.500056
C192	C	1.319508	0.211067	0.750056
C193	C	0.613330	-0.570223	0.000064
C194	C	0.863330	-0.320223	0.250064
C195	C	1.113330	-0.070223	0.500064
C196	C	1.363330	0.179777	0.750064
C197	C	0.657665	-0.551100	0.000072
C198	C	0.907665	-0.301100	0.250072
C199	C	1.157665	-0.051100	0.500072
C200	C	1.407665	0.198900	0.750072
C201	C	0.658177	-0.500688	0.000080
C202	C	0.908177	-0.250688	0.250080
C203	C	1.158177	-0.000688	0.500080
C204	C	1.408177	0.249312	0.750080
C205	C	0.481863	-0.476351	0.000040
C206	C	0.731863	-0.226351	0.250040
C207	C	0.981863	0.023649	0.500040
C208	C	1.231863	0.273649	0.750040
C209	C	0.481355	-0.526764	0.000033
C210	C	0.731355	-0.276764	0.250033
C211	C	0.981355	-0.026764	0.500033
C212	C	1.231355	0.223236	0.750033
C213	C	0.525177	-0.558054	0.000041
C214	C	0.775177	-0.308054	0.250041
C215	C	1.025177	-0.058054	0.500041
C216	C	1.275177	0.191946	0.750041
C217	C	0.089654	0.106229	0.000091
C218	C	0.339654	0.356229	0.250091
C219	C	0.589654	0.606229	0.500091
C220	C	0.839654	0.856229	0.750091
C221	C	-0.112006	0.104178	0.000099
C222	C	0.137994	0.354178	0.250099
C223	C	0.387994	0.604178	0.500099
C224	C	0.637994	0.854178	0.750099
O225	O	-0.143262	0.141398	0.000128
O226	O	0.106738	0.391398	0.250128
O227	O	0.356738	0.641398	0.500128
O228	O	0.606738	0.891398	0.750128
N229	N	-0.131130	0.059843	0.000109
N230	N	0.118870	0.309843	0.250109
N231	N	0.368870	0.559843	0.500109
N232	N	0.618870	0.809843	0.750109
C233	C	-0.099835	0.016017	0.000122
C234	C	0.150165	0.266017	0.250122
C235	C	0.400165	0.516017	0.500122
C236	C	0.650165	0.766017	0.750122
O237	O	-0.120728	-0.021740	0.000139
O238	O	0.129272	0.228260	0.250139
O239	O	0.379272	0.478260	0.500139
O240	O	0.629272	0.728260	0.750139
C241	C	0.101824	0.018068	0.000120
C242	C	0.351824	0.268068	0.250120
C243	C	0.601824	0.518068	0.500120
C244	C	0.851824	0.768068	0.750120
C245	C	0.120944	0.062407	0.000101
C246	C	0.370944	0.312407	0.250101
C247	C	0.620944	0.562407	0.500101
C248	C	0.870944	0.812407	0.750101
C249	C	0.108775	0.150563	0.000073
C250	C	0.358775	0.400563	0.250073
C251	C	0.608775	0.650563	0.500073
C252	C	0.858775	0.900563	0.750073
C253	C	0.159187	0.151075	0.000066
C254	C	0.409187	0.401075	0.250066
C255	C	0.659187	0.651075	0.500066
C256	C	0.909187	0.901075	0.750066
C257	C	0.190477	0.107253	0.000077
C258	C	0.440477	0.357253	0.250077
C259	C	0.690477	0.607253	0.500077
C260	C	0.940477	0.857253	0.750077
C261	C	0.171356	0.062919	0.000095
C262	C	0.421356	0.312919	0.250095
C263	C	0.671356	0.562919	0.500095
C264	C	0.921356	0.812919	0.750095
C265	C	0.133117	-0.025757	0.000139
C266	C	0.383117	0.224243	0.250139
C267	C	0.633117	0.474243	0.500139
C268	C	0.883117	0.724243	0.750139
C269	C	0.183535	-0.025240	0.000141
C270	C	0.433535	0.224760	0.250141
C271	C	0.683535	0.474760	0.500141
C272	C	0.933535	0.724760	0.750141
C273	C	0.202655	0.019098	0.000123
C274	C	0.452655	0.269098	0.250123
C275	C	0.702655	0.519098	0.500123
C276	C	0.952655	0.769098	0.750123
C277	C	0.253059	0.019609	0.000098
C278	C	0.503059	0.269609	0.250098
C279	C	0.753059	0.519609	0.500098
C280	C	1.003059	0.769609	0.750098
N281	N	0.272183	0.063944	0.000089
N282	N	0.522183	0.313944	0.250089
N283	N	0.772183	0.563944	0.500089
N284	N	1.022183	0.813944	0.750089
C285	C	0.240892	0.107766	0.000078
C286	C	0.490892	0.357766	0.250078
C287	C	0.740892	0.607766	0.500078
C288	C	0.990892	0.857766	0.750078
C289	C	-0.205709	0.014943	0.000121
C290	C	0.044291	0.264943	0.250121
C291	C	0.294291	0.514943	0.500121
C292	C	0.544291	0.764943	0.750121
C293	C	-0.256124	0.014430	0.000120
C294	C	-0.006124	0.264430	0.250120
C295	C	0.243876	0.514430	0.500120
C296	C	0.493876	0.764430	0.750120
C297	C	-0.268291	0.102591	0.000099
C298	C	-0.018291	0.352591	0.250099
C299	C	0.231709	0.602591	0.500099
C300	C	0.481709	0.852591	0.750099
C301	C	-0.217876	0.103104	0.000094
C302	C	0.032124	0.353104	0.250094
C303	C	0.282124	0.603104	0.500094
C304	C	0.532124	0.853104	0.750094
C305	C	-0.186585	0.059278	0.000112
C306	C	0.063415	0.309278	0.250112
C307	C	0.313415	0.559278	0.500112
C308	C	0.563415	0.809278	0.750112
C309	C	0.346761	0.108839	0.000063
C310	C	0.596761	0.358839	0.250063
C311	C	0.846761	0.608839	0.500063
C312	C	1.096761	0.858839	0.750063
C313	C	0.397178	0.109347	0.000052
C314	C	0.647178	0.359347	0.250052
C315	C	0.897178	0.609347	0.500052
C316	C	1.147178	0.859347	0.750052
C317	C	0.409341	0.021186	0.000078
C318	C	0.659341	0.271186	0.250078
C319	C	0.909341	0.521186	0.500078
C320	C	1.159341	0.771186	0.750078
C321	C	0.358929	0.020678	0.000084
C322	C	0.608929	0.270678	0.250084
C323	C	0.858929	0.520678	0.500084
C324	C	1.108929	0.770678	0.750084
C325	C	0.327639	0.064508	0.000079
C326	C	0.577639	0.314508	0.250079
C327	C	0.827639	0.564508	0.500079
C328	C	1.077639	0.814508	0.750079
O329	O	0.284343	-0.017592	0.000079
O330	O	0.534343	0.232408	0.250079
O331	O	0.784343	0.482408	0.500079
O332	O	1.034343	0.732408	0.750079
O333	O	0.261794	0.145518	0.000080
O334	O	0.511794	0.395518	0.250080
O335	O	0.761794	0.645518	0.500080
O336	O	1.011794	0.895518	0.750080
C337	C	0.039242	0.105716	0.000098
C338	C	0.289242	0.355716	0.250098
C339	C	0.539242	0.605716	0.500098
C340	C	0.789242	0.855716	0.750098
C341	C	0.020120	0.061382	0.000115
C342	C	0.270120	0.311382	0.250115
C343	C	0.520120	0.561382	0.500115
C344	C	0.770120	0.811382	0.750115
C345	C	0.051411	0.017560	0.000126
C346	C	0.301411	0.267560	0.250126
C347	C	0.551411	0.517560	0.500126
C348	C	0.801411	0.767560	0.750126
C349	C	-0.030294	0.060869	0.000114
C350	C	0.219706	0.310869	0.250114
C351	C	0.469706	0.560869	0.500114
C352	C	0.719706	0.810869	0.750114
C353	C	-0.061585	0.104691	0.000104
C354	C	0.188415	0.354691	0.250104
C355	C	0.438415	0.604691	0.500104
C356	C	0.688415	0.854691	0.750104
C357	C	-0.042461	0.149026	0.000094
C358	C	0.207539	0.399026	0.250094
C359	C	0.457539	0.649026	0.500094
C360	C	0.707539	0.899026	0.750094
C361	C	0.007951	0.149539	0.000087
C362	C	0.257951	0.399539	0.250087
C363	C	0.507951	0.649539	0.500087
C364	C	0.757951	0.899539	0.750087
C365	C	0.032287	-0.026775	0.000135
C366	C	0.282287	0.223225	0.250135
C367	C	0.532287	0.473225	0.500135
C368	C	0.782287	0.723225	0.750135
C369	C	-0.018125	-0.027284	0.000141
C370	C	0.231875	0.222716	0.250141
C371	C	0.481875	0.472716	0.500141
C372	C	0.731875	0.722716	0.750141
C373	C	-0.049416	0.016538	0.000131
C374	C	0.200584	0.266538	0.250131
C375	C	0.450584	0.516538	0.500131
C376	C	0.700584	0.766538	0.750131
C377	C	0.658931	0.057699	0.000106
C378	C	0.908931	0.307699	0.250106
C379	C	1.158931	0.557699	0.500106
C380	C	1.408931	0.807699	0.750106
C381	C	0.712586	0.058252	0.000110
C382	C	0.962586	0.308252	0.250110
C383	C	1.212586	0.558252	0.500110
C384	C	1.462586	0.808252	0.750110
C385	C	0.566338	0.150292	0.000068
C386	C	0.816338	0.400292	0.250068
C387	C	1.066338	0.650292	0.500068
C388	C	1.316338	0.900292	0.750068
C389	C	0.566891	0.203947	0.000055
C390	C	0.816891	0.453947	0.250055
C391	C	1.066891	0.703947	0.500055
C392	C	1.316891	0.953947	0.750055
N393	N	0.570523	0.061887	0.228265
N394	N	0.820523	0.311887	0.478265
N395	N	1.070523	0.561887	0.728265
N396	N	1.320523	0.811887	0.978265
N397	N	0.570535	0.061887	-0.228084
N398	N	0.820535	0.311887	0.021916
N399	N	1.070535	0.561887	0.271916
N400	N	1.320535	0.811887	0.521916
C401	C	0.603642	0.028790	0.454002
C402	C	0.853642	0.278790	0.704002
C403	C	1.103642	0.528790	0.954002
C404	C	1.353642	0.778790	1.204002
C405	C	0.603644	0.028789	0.546191
C406	C	0.853644	0.278789	0.796191
C407	C	1.103644	0.528789	1.046191
C408	C	1.353644	0.778789	1.296191
C409	C	0.537413	0.094985	0.546172
C410	C	0.787413	0.344985	0.796172
C411	C	1.037413	0.594985	1.046172
C412	C	1.287413	0.844985	1.296172
C413	C	0.537409	0.094984	0.453984
C414	C	0.787409	0.344984	0.703984
C415	C	1.037409	0.594984	0.953984
C416	C	1.287409	0.844984	1.203984
C417	C	0.570527	0.061886	0.407901
C418	C	0.820527	0.311886	0.657901
C419	C	1.070527	0.561886	0.907901
C420	C	1.320527	0.811886	1.157901
C421	C	0.570532	0.061887	0.592279
C422	C	0.820532	0.311887	0.842279
C423	C	1.070532	0.561887	1.092279
C424	C	1.320532	0.811887	1.342279
C425	C	0.570533	0.061886	0.692235
C426	C	0.820533	0.311886	0.942235
C427	C	1.070533	0.561886	1.192235
C428	C	1.320533	0.811886	1.442235
C429	C	0.570525	0.061887	0.307939
C430	C	0.820525	0.311887	0.557939
C431	C	1.070525	0.561887	0.807939
C432	C	1.320525	0.811887	1.057939
H433	H	0.654093	-0.095896	0.000141
H434	H	0.904093	0.154104	0.250141
H435	H	1.154093	0.404104	0.500141
H436	H	1.404093	0.654104	0.750141
H437	H	0.510440	0.121935	0.416447
H438	H	0.760440	0.371935	0.666447
H439	H	1.010440	0.621935	0.916447
H440	H	1.260440	0.871935	1.166447
C441	C	0.706953	-0.479662	0.000093
C442	C	0.956953	-0.229662	0.250093
C443	C	1.206953	0.020338	0.500093
C444	C	1.456953	0.270338	0.750093
N445	N	0.743694	-0.463829	0.000100
N446	N	0.993694	-0.213829	0.250100
N447	N	1.243694	0.036171	0.500100
N448	N	1.493694	0.286171	0.750100
H449	H	-0.202311	0.139207	0.000084
H450	H	0.047689	0.389207	0.250084
H451	H	0.297689	0.639207	0.500084
H452	H	0.547689	0.889207	0.750084
C453	C	0.337895	-0.028096	0.000093
C454	C	0.587895	0.221904	0.250093
C455	C	0.837895	0.471904	0.500093
C456	C	1.087895	0.721904	0.750093
N457	N	0.322056	-0.064833	0.000107
N458	N	0.572056	0.185167	0.250107
N459	N	0.822056	0.435167	0.500107
N460	N	1.072056	0.685167	0.750107
H461	H	0.653168	-0.187348	0.000112
H462	H	0.903168	0.062652	0.250112
H463	H	1.153168	0.312652	0.500112
H464	H	1.403168	0.562652	0.750112
H465	H	0.209009	-0.060929	0.000156
H466	H	0.459009	0.189071	0.250156
H467	H	0.709009	0.439071	0.500156
H468	H	0.959009	0.689071	0.750156
H469	H	0.412743	0.145454	0.000037
H470	H	0.662743	0.395454	0.250037
H471	H	0.912743	0.645454	0.500037
H472	H	1.162743	0.895454	0.750037
H473	H	-0.293777	0.138273	0.000091
H474	H	-0.043777	0.388273	0.250091
H475	H	0.206223	0.638273	0.500091
H476	H	0.456223	0.888273	0.750091
C477	C	0.312350	0.157054	0.000053
C478	C	0.562350	0.407054	0.250053
C479	C	0.812350	0.657054	0.500053
C480	C	1.062350	0.907054	0.750053
N481	N	0.286432	0.193370	0.000039
N482	N	0.536432	0.443370	0.250039
N483	N	0.786432	0.693370	0.500039
N484	N	1.036432	0.943370	0.750039
H485	H	0.434827	-0.014492	0.000083
H486	H	0.684827	0.235508	0.250083
H487	H	0.934827	0.485508	0.500083
H488	H	1.184827	0.735508	0.750083
H489	H	0.695819	-0.333889	0.000114
H490	H	0.945819	-0.083889	0.250114
H491	H	1.195819	0.166111	0.500114
H492	H	1.445819	0.416111	0.750114
C493	C	0.066701	-0.074986	0.000143
C494	C	0.316701	0.175014	0.250143
C495	C	0.566701	0.425014	0.500143
C496	C	0.816701	0.675014	0.750143
N497	N	0.092620	-0.111302	0.000143
N498	N	0.342620	0.138698	0.250143
N499	N	0.592620	0.388698	0.500143
N500	N	0.842620	0.638698	0.750143
H501	H	-0.271687	-0.021674	0.000122
H502	H	-0.021687	0.228326	0.250122
H503	H	0.228313	0.478326	0.500122
H504	H	0.478313	0.728326	0.750122
H505	H	0.694889	-0.425336	0.000099
H506	H	0.944889	-0.175336	0.250099
H507	H	1.194889	0.074664	0.500099
H508	H	1.444889	0.324664	0.750099
H509	H	0.494146	-0.073812	0.000100
H510	H	0.744146	0.176188	0.250100
H511	H	0.994146	0.426188	0.500100
H512	H	1.244146	0.676188	0.750100
H513	H	0.647846	-0.710950	0.000084
H514	H	0.897846	-0.460950	0.250084
H515	H	1.147846	-0.210950	0.500084
H516	H	1.397846	0.039050	0.750084
C517	C	0.028977	0.198314	0.000077
C518	C	0.278977	0.448314	0.250077
C519	C	0.528977	0.698314	0.500077
C520	C	0.778977	0.948314	0.750077
N521	N	0.044810	0.235055	0.000074
N522	N	0.294810	0.485055	0.250074
N523	N	0.544810	0.735055	0.500074
N524	N	0.794810	0.985055	0.750074
C525	C	0.180212	0.199851	0.000065
C526	C	0.430212	0.449851	0.250065
C527	C	0.680212	0.699851	0.500065
C528	C	0.930212	0.949851	0.750065
N529	N	0.196046	0.236592	0.000071
N530	N	0.446046	0.486592	0.250071
N531	N	0.696046	0.736592	0.500071
N532	N	0.946046	0.986592	0.750071
H533	H	0.630609	0.001838	0.583724
H534	H	0.880609	0.251838	0.833724
H535	H	1.130609	0.501838	1.083724
H536	H	1.380609	0.751838	1.333724
C537	C	0.500985	0.131389	0.596872
C538	C	0.750985	0.381389	0.846872
C539	C	1.000985	0.631389	1.096872
C540	C	1.250985	0.881389	1.346872
N541	N	0.473546	0.158809	0.635058
N542	N	0.723546	0.408809	0.885058
N543	N	0.973546	0.658809	1.135058
N544	N	1.223546	0.908809	1.385058
C545	C	-0.076890	0.197231	0.000086
C546	C	0.173110	0.447231	0.250086
C547	C	0.423110	0.697231	0.500086
C548	C	0.673110	0.947231	0.750086
N549	N	-0.102825	0.233536	0.000086
N550	N	0.147175	0.483536	0.250086
N551	N	0.397175	0.733536	0.500086
N552	N	0.647175	0.983536	0.750086
C553	C	0.474293	-0.785789	0.000040
C554	C	0.724293	-0.535789	0.250040
C555	C	0.974293	-0.285789	0.500040
C556	C	1.224293	-0.035789	0.750040
N557	N	0.437554	-0.801624	0.000028
N558	N	0.687554	-0.551624	0.250028
N559	N	0.937554	-0.301624	0.500028
N560	N	1.187554	-0.051624	0.750028
H561	H	0.646911	-0.802415	0.000071
H562	H	0.896911	-0.552415	0.250071
H563	H	1.146911	-0.302415	0.500071
H564	H	1.396911	-0.052415	0.750071
H565	H	0.630608	0.001839	0.416483
H566	H	0.880608	0.251839	0.666483
H567	H	1.130608	0.501839	0.916483
H568	H	1.380608	0.751839	1.166483
H569	H	0.083302	0.186251	0.000068
H570	H	0.333302	0.436251	0.250068
H571	H	0.583302	0.686251	0.500068
H572	H	0.833302	0.936251	0.750068
H573	H	-0.180236	-0.020747	0.000136
H574	H	0.069764	0.229253	0.250136
H575	H	0.319764	0.479253	0.500136
H576	H	0.569764	0.729253	0.750136
C577	C	0.705870	-0.585529	0.000079
C578	C	0.955870	-0.335529	0.250079
C579	C	1.205870	-0.085529	0.500079
C580	C	1.455870	0.164471	0.750079
N581	N	0.742175	-0.611464	0.000079
N582	N	0.992175	-0.361464	0.250079
N583	N	1.242175	-0.111464	0.500079
N584	N	1.492175	0.138536	0.750079
H585	H	0.446777	-0.391080	0.000019
H586	H	0.696777	-0.141080	0.250019
H587	H	0.946777	0.108920	0.500019
H588	H	1.196777	0.358920	0.750019
C589	C	0.475367	-0.679934	0.000031
C590	C	0.725367	-0.429934	0.250031
C591	C	0.975367	-0.179934	0.500031
C592	C	1.225367	0.070066	0.750031
N593	N	0.439051	-0.654016	0.000022
N594	N	0.689051	-0.404016	0.250022
N595	N	0.939051	-0.154016	0.500022
N596	N	1.189051	0.095984	0.750022
C597	C	0.480543	-0.170743	0.000084
C598	C	0.730543	0.079257	0.250084
C599	C	0.980543	0.329257	0.500084
C600	C	1.230543	0.579257	0.750084
N601	N	0.443805	-0.186582	0.000065
N602	N	0.693805	0.063418	0.250065
N603	N	0.943805	0.313418	0.500065
N604	N	1.193805	0.563418	0.750065
C605	C	0.435186	-0.290687	0.000024
C606	C	0.685186	-0.040687	0.250024
C607	C	0.935186	0.209313	0.500024
C608	C	1.185186	0.459313	0.750024
N609	N	0.398872	-0.264766	0.000017
N610	N	0.648872	-0.014766	0.250017
N611	N	0.898872	0.235234	0.500017
N612	N	1.148872	0.485234	0.750017
H613	H	0.445246	-0.542327	0.000027
H614	H	0.695246	-0.292327	0.250027
H615	H	0.945246	-0.042327	0.500027
H616	H	1.195246	0.207673	0.750027
H617	H	0.446177	-0.450879	0.000032
H618	H	0.696177	-0.200879	0.250032
H619	H	0.946177	0.049121	0.500032
H620	H	1.196177	0.299121	0.750032
C621	C	-0.039151	-0.076063	0.000167
C622	C	0.210849	0.173937	0.250167
C623	C	0.460849	0.423937	0.500167
C624	C	0.710849	0.673937	0.750167
N625	N	-0.054987	-0.112802	0.000196
N626	N	0.195013	0.137198	0.250196
N627	N	0.445013	0.387198	0.500196
N628	N	0.695013	0.637198	0.750196
H629	H	0.117558	-0.061861	0.000155
H630	H	0.367558	0.188139	0.250155
H631	H	0.617558	0.438139	0.500155
H632	H	0.867558	0.688139	0.750155
