data_functionalizedCrystal
_audit_creation_method	'MofGen! by Chris Wilmer'
_symmetry_space_group_name_H-M	'P1'
_symmetry_Int_Tables_number	1
_symmetry_cell_setting	triclinic
loop_
_symmetry_equiv_pos_as_xyz
  x,y,z
_cell_length_a	16.793024
_cell_length_b	16.793047
_cell_length_c	33.586455
_cell_angle_alpha	113.253857
_cell_angle_beta	66.219990
_cell_angle_gamma	112.758327
loop_
_atom_site_label
_atom_site_type_symbol
_atom_site_fract_x
_atom_site_fract_y
_atom_site_fract_z
O1	O	0.005016	-0.570216	-0.583573
O2	O	-0.034529	-0.474528	-0.453458
O3	O	0.114723	-0.474535	-0.528082
O4	O	-0.144235	-0.570209	-0.508949
O5	O	0.108729	-0.346329	-0.530229
O6	O	-0.040523	-0.346322	-0.455605
O7	O	-0.000977	-0.442010	-0.585721
Cu8	Cu	-0.021297	-0.382459	-0.520859
Cu9	Cu	-0.014209	-0.534079	-0.518320
O10	O	-0.150229	-0.442003	-0.511097
C11	C	0.005100	-0.790970	-0.238461
C12	C	0.009223	-0.693065	-0.217557
C13	C	0.003804	-0.645758	-0.241627
C14	C	-0.075059	-0.538459	-0.266316
C15	C	0.049838	-0.422849	-0.250165
C16	C	-0.040584	-0.395375	-0.435637
C17	C	-0.044693	-0.353446	-0.386631
C18	C	-0.039275	-0.401741	-0.363054
C19	C	-0.040566	-0.125547	-0.300731
C20	C	-0.044689	-0.223451	-0.321635
C21	C	-0.039266	-0.270752	-0.297563
C22	C	0.039597	-0.378051	-0.272874
C23	C	-0.085304	-0.493667	-0.289026
C24	C	0.005118	-0.521142	-0.103554
C25	C	0.009231	-0.563064	-0.152559
C26	C	0.003809	-0.514775	-0.176138
C27	C	0.010758	-0.652581	-0.172822
C28	C	0.001010	-0.556371	-0.220792
C29	C	-0.008251	-0.506059	-0.245823
C30	C	-0.046224	-0.263935	-0.366370
C31	C	-0.036476	-0.360146	-0.318399
C32	C	-0.027211	-0.410451	-0.293367
C33	C	0.815184	-0.521162	-0.508596
C34	C	0.415541	-0.125553	-0.528781
C35	C	0.375032	-0.223457	-0.531493
C36	C	0.423813	-0.270761	-0.529101
C37	C	0.149318	-0.395376	-0.530584
C38	C	0.246774	-0.353455	-0.532364
C39	C	0.294574	-0.401748	-0.529976
C40	C	0.548961	-0.790984	-0.510398
C41	C	0.286104	-0.263940	-0.532530
C42	C	0.383336	-0.360149	-0.528302
C43	C	0.432207	-0.407971	-0.525810
C44	C	0.392316	-0.497392	-0.524993
C45	C	0.303554	-0.538991	-0.526667
C46	C	0.254683	-0.491169	-0.529159
C47	C	0.263666	-0.628421	-0.525851
C48	C	0.312537	-0.676243	-0.523359
C49	C	0.401299	-0.634644	-0.521685
C50	C	0.441190	-0.545223	-0.522502
C51	C	0.529952	-0.503624	-0.520828
C52	C	0.578823	-0.551446	-0.518336
C53	C	0.538939	-0.640864	-0.517520
C54	C	0.450177	-0.682463	-0.519194
C55	C	0.587810	-0.688687	-0.515028
C56	C	0.676572	-0.647088	-0.513354
C57	C	0.716463	-0.557666	-0.514172
C58	C	0.667586	-0.509847	-0.516662
C59	C	0.569840	-0.414195	-0.521644
C60	C	0.658602	-0.372596	-0.519970
C61	C	0.707476	-0.420426	-0.517480
C62	C	0.698493	-0.283174	-0.520788
C63	C	0.649622	-0.235352	-0.523280
C64	C	0.560860	-0.276951	-0.524954
C65	C	0.520969	-0.366372	-0.524136
C66	C	0.511989	-0.229129	-0.527446
C67	C	-0.040530	-0.395407	-0.935652
C68	C	0.005063	-0.791004	-0.738448
C69	C	0.009186	-0.693099	-0.717543
C70	C	0.003779	-0.645796	-0.741620
C71	C	0.005077	-0.521171	-0.603544
C72	C	0.009198	-0.563096	-0.652550
C73	C	0.003786	-0.514804	-0.676131
C74	C	-0.040516	-0.125574	-0.800747
C75	C	0.010719	-0.652613	-0.672809
C76	C	0.000994	-0.556406	-0.720789
C77	C	-0.004621	-0.508585	-0.744908
C78	C	-0.007444	-0.419162	-0.724369
C79	C	-0.004651	-0.377560	-0.679711
C80	C	0.000964	-0.425381	-0.655592
C81	C	-0.007471	-0.288129	-0.659174
C82	C	-0.013086	-0.240308	-0.683293
C83	C	-0.015878	-0.281910	-0.727951
C84	C	-0.013056	-0.371333	-0.748490
C85	C	-0.015848	-0.412935	-0.793148
C86	C	-0.021463	-0.365114	-0.817267
C87	C	-0.024282	-0.275694	-0.796731
C88	C	-0.021490	-0.234092	-0.752073
C89	C	-0.029897	-0.227873	-0.820850
C90	C	-0.032690	-0.269476	-0.865508
C91	C	-0.029867	-0.358899	-0.886047
C92	C	-0.024255	-0.406717	-0.861925
C93	C	-0.013028	-0.502367	-0.813685
C94	C	-0.015821	-0.543969	-0.858343
C95	C	-0.021433	-0.496140	-0.882464
C96	C	-0.012998	-0.633392	-0.878882
C97	C	-0.007383	-0.681213	-0.854763
C98	C	-0.004591	-0.639611	-0.810105
C99	C	-0.007414	-0.550188	-0.789566
C100	C	0.001024	-0.687432	-0.785986
O101	O	-0.000965	0.173549	-0.277957
O102	O	-0.040516	-0.085616	-0.325254
O103	O	0.108737	0.059592	-0.327284
O104	O	-0.150219	0.028341	-0.275927
O105	O	0.114753	0.055151	-0.263265
O106	O	-0.034500	-0.090057	-0.261234
O107	O	0.005051	0.169108	-0.213937
Cu108	Cu	-0.014175	0.039120	-0.231740
Cu109	Cu	-0.021290	0.044372	-0.307451
O110	O	-0.144202	0.023900	-0.211907
O111	O	-0.034458	-0.474571	0.046517
O112	O	0.005076	-0.570190	-0.083599
O113	O	-0.144170	-0.570237	-0.008972
O114	O	0.114787	-0.474523	-0.028110
O115	O	-0.150200	-0.442024	-0.011093
O116	O	-0.000954	-0.441976	-0.085720
O117	O	-0.040488	-0.346357	0.044396
Cu118	Cu	-0.021272	-0.382460	-0.020856
Cu119	Cu	-0.014141	-0.534087	-0.018347
O120	O	0.108757	-0.346309	-0.030231
C121	C	-0.850734	0.086244	-0.289716
C122	C	-0.753280	0.087165	-0.312001
C123	C	-0.705462	0.081107	-0.288506
C124	C	-0.599592	0.000085	-0.264184
C125	C	-0.481080	0.121287	-0.283645
C126	C	-0.450996	0.035117	-0.097351
C127	C	-0.410501	0.028587	-0.146852
C128	C	-0.459292	0.034683	-0.169840
C129	C	-0.184802	0.024283	-0.235878
C130	C	-0.282257	0.023363	-0.213592
C131	C	-0.330068	0.029423	-0.237088
C132	C	-0.435938	0.110445	-0.261411
C133	C	-0.554456	-0.010759	-0.241948
C134	C	-0.584541	0.075410	-0.428242
C135	C	-0.625029	0.081943	-0.378743
C136	C	-0.576244	0.075844	-0.355753
C137	C	-0.713963	0.086424	-0.357292
C138	C	-0.616708	0.075351	-0.310510
C139	C	-0.565963	0.065400	-0.286043
C140	C	-0.321573	0.024104	-0.168302
C141	C	-0.418828	0.035176	-0.215083
C142	C	-0.469568	0.045131	-0.239552
O143	O	0.585213	0.169090	-0.504004
O144	O	0.494056	-0.090076	-0.525516
O145	O	0.488081	0.055124	-0.449918
O146	O	0.591189	0.023889	-0.579602
O147	O	0.359978	0.059584	-0.452885
O148	O	0.365953	-0.085616	-0.528483
O149	O	0.457110	0.173550	-0.506971
Cu150	Cu	0.399835	0.044374	-0.517998
Cu151	Cu	0.551332	0.039099	-0.514489
O152	O	0.463086	0.028349	-0.582569
C153	C	0.815354	-0.521094	-0.008709
C154	C	0.717898	-0.563028	-0.006927
C155	C	0.670072	-0.514739	-0.009298
C156	C	0.564182	-0.463204	-0.048354
C157	C	0.445681	-0.498945	0.013847
C158	C	0.415547	-0.125494	-0.028771
C159	C	0.375059	-0.223405	-0.031498
C160	C	0.423859	-0.270708	-0.029121
C161	C	0.149365	-0.395355	-0.030599
C162	C	0.246820	-0.353421	-0.032381
C163	C	0.294640	-0.401713	-0.030008
C164	C	0.400530	-0.453248	0.009048
C165	C	0.519038	-0.417504	-0.053155
C166	C	0.549171	-0.790955	-0.010537
C167	C	0.589653	-0.693047	-0.007809
C168	C	0.540859	-0.645741	-0.010187
C169	C	0.678588	-0.652551	-0.006775
C170	C	0.581317	-0.556344	-0.010973
C171	C	0.530562	-0.506029	-0.015250
C172	C	0.286131	-0.263897	-0.032533
C173	C	0.383402	-0.360104	-0.028335
C174	C	0.434150	-0.410423	-0.024057
O175	O	-0.620614	0.089309	0.052274
O176	O	-0.529507	0.043784	-0.078544
O177	O	-0.523494	0.194833	-0.006033
O178	O	-0.626628	-0.061740	-0.020236
O179	O	-0.395386	0.185419	-0.005549
O180	O	-0.401400	0.034370	-0.078059
O181	O	-0.492507	0.079895	0.052758
Cu182	Cu	-0.435256	0.056273	-0.012607
Cu183	Cu	-0.586758	0.067406	-0.013179
O184	O	-0.498521	-0.071154	-0.019752
C185	C	-0.437537	0.048335	0.402491
C186	C	-0.397043	0.041789	0.352989
C187	C	-0.445822	0.047883	0.329994
C188	C	-0.496646	0.126653	0.277022
C189	C	-0.465894	-0.000633	0.218811
C190	C	-0.837226	0.099430	0.210091
C191	C	-0.739773	0.100339	0.187806
C192	C	-0.691967	0.094287	0.211308
C193	C	-0.571027	0.088563	0.071568
C194	C	-0.611521	0.095108	0.121070
C195	C	-0.562739	0.089011	0.144061
C196	C	-0.511915	0.010241	0.197033
C197	C	-0.542670	0.137531	0.255247
C198	C	-0.171338	0.037467	0.263967
C199	C	-0.268788	0.036555	0.286249
C200	C	-0.316597	0.042611	0.262750
C201	C	-0.308112	0.037305	0.331542
C202	C	-0.405351	0.048369	0.284750
C203	C	-0.456092	0.058317	0.260279
C204	C	-0.700452	0.099593	0.142516
C205	C	-0.603213	0.088528	0.189308
C206	C	-0.552469	0.078578	0.213776
O207	O	-0.040608	-1.085661	-0.825229
O208	O	-0.001018	-0.826491	-0.777938
O209	O	-0.150287	-0.971682	-0.775894
O210	O	0.108661	-0.940470	-0.827272
O211	O	-0.144253	-0.976123	-0.711878
O212	O	0.005016	-0.830932	-0.713922
O213	O	-0.034575	-1.090102	-0.761213
Cu214	Cu	-0.014228	-0.960923	-0.731722
Cu215	Cu	-0.021364	-0.955670	-0.807428
O216	O	0.114695	-0.944911	-0.763256
O217	O	-0.036862	-0.230384	-0.253947
C218	C	-0.115987	-0.202041	-0.227222
H219	H	-0.171766	-0.243574	-0.244184
H220	H	-0.101653	-0.127812	-0.223676
C221	C	-0.077925	-0.164236	-0.159072
C222	C	-0.146436	-0.215253	-0.179904
H223	H	-0.096706	-0.172381	-0.129884
H224	H	-0.024615	-0.183328	-0.177078
H225	H	-0.065986	-0.102383	-0.156122
H226	H	-0.158365	-0.277105	-0.182860
H227	H	-0.199749	-0.196172	-0.161898
O228	O	0.003839	-0.384804	-0.612057
C229	C	0.084807	-0.385262	-0.608836
H230	H	0.137458	-0.391746	-0.643622
H231	H	0.071502	-0.444629	-0.596396
C232	C	0.055436	-0.288841	-0.532408
C233	C	0.120106	-0.296798	-0.575132
H234	H	0.077209	-0.234276	-0.511617
H235	H	0.000884	-0.288535	-0.534577
H236	H	0.044354	-0.338320	-0.522048
H237	H	0.131178	-0.247327	-0.585494
H238	H	0.174660	-0.297094	-0.572964
O239	O	-0.153742	-0.530497	-0.308182
C240	C	-0.144437	-0.613729	-0.340419
H241	H	-0.102758	-0.641645	-0.332163
H242	H	-0.108881	-0.603665	-0.375715
C243	C	-0.289796	-0.646243	-0.349246
C244	C	-0.238611	-0.680534	-0.339104
H245	H	-0.347886	-0.687451	-0.348437
H246	H	-0.296064	-0.590167	-0.327529
H247	H	-0.260155	-0.637858	-0.378659
H248	H	-0.268246	-0.688908	-0.309690
H249	H	-0.232350	-0.736614	-0.360817
O250	O	0.168155	-0.531881	-0.530852
C251	C	0.166688	-0.607027	-0.569530
H252	H	0.229298	-0.630990	-0.580600
H253	H	0.166107	-0.587273	-0.598200
C254	C	0.004397	-0.653996	-0.544498
C255	C	0.081292	-0.683432	-0.558093
H256	H	-0.048281	-0.701125	-0.537444
H257	H	0.005384	-0.603367	-0.518441
H258	H	0.003925	-0.637534	-0.568392
H259	H	0.081769	-0.699882	-0.534197
H260	H	0.080303	-0.734066	-0.584145
O261	O	0.013784	-0.700318	-0.149087
C262	C	-0.063016	-0.775013	-0.146611
H263	H	-0.090882	-0.792545	-0.175763
H264	H	-0.116876	-0.757841	-0.112937
C265	C	-0.002286	-0.834590	-0.114212
C266	C	-0.036506	-0.856127	-0.150019
H267	H	0.014064	-0.884624	-0.116312
H268	H	0.049455	-0.784265	-0.115879
H269	H	-0.047175	-0.820279	-0.086154
H270	H	0.008386	-0.870426	-0.178076
H271	H	-0.088239	-0.906456	-0.148357
O272	O	-0.259993	0.033634	0.354759
C273	C	-0.254035	0.111284	0.392018
H274	H	-0.312110	0.140947	0.401570
H275	H	-0.186919	0.163096	0.382514
C276	C	-0.188411	0.049611	0.420921
C277	C	-0.259745	0.086040	0.432656
H278	H	-0.191928	0.034042	0.445988
H279	H	-0.192421	-0.002702	0.395818
H280	H	-0.132488	0.092794	0.413001
H281	H	-0.315666	0.042854	0.440570
H282	H	-0.255744	0.138345	0.457761
O283	O	0.407592	-0.539193	0.047764
C284	C	0.325452	-0.603393	0.042693
H285	H	0.326257	-0.625473	0.005814
H286	H	0.266860	-0.572335	0.065408
C287	C	0.312799	-0.658532	0.101580
C288	C	0.313791	-0.685657	0.056284
H289	H	0.305603	-0.709275	0.109965
H290	H	0.368137	-0.615277	0.104998
H291	H	0.263972	-0.632650	0.120504
H292	H	0.362624	-0.711528	0.037361
H293	H	0.258461	-0.728918	0.052863
O294	O	0.709189	-0.427460	-0.009969
C295	C	0.647071	-0.393526	-0.012461
H296	H	0.575297	-0.434767	0.001051
H297	H	0.660233	-0.398190	-0.049267
C298	C	0.746543	-0.243795	-0.000314
C299	C	0.658389	-0.294443	0.016285
H300	H	0.753527	-0.182675	0.017416
H301	H	0.788396	-0.266656	0.001364
H302	H	0.757502	-0.247692	-0.030985
H303	H	0.647436	-0.290555	0.046954
H304	H	0.616535	-0.271579	0.014614
O305	O	-0.290821	0.029578	-0.281271
C306	C	-0.265315	-0.050930	-0.307266
H307	H	-0.307875	-0.105068	-0.288962
H308	H	-0.190794	-0.038714	-0.312025
C309	C	-0.228357	-0.015746	-0.376438
C310	C	-0.280635	-0.082243	-0.353959
H311	H	-0.237803	-0.035060	-0.405242
H312	H	-0.245537	0.038495	-0.358926
H313	H	-0.166260	-0.005573	-0.380400
H314	H	-0.342731	-0.092407	-0.349993
H315	H	-0.263466	-0.136487	-0.371472
O316	O	-0.273486	0.020146	-0.145156
C317	C	-0.317285	-0.057100	-0.129515
H318	H	-0.362102	-0.109026	-0.151405
H319	H	-0.360601	-0.037855	-0.092769
C320	C	-0.191033	-0.033557	-0.105615
C321	C	-0.246072	-0.097336	-0.132503
H322	H	-0.147106	-0.058375	-0.107455
H323	H	-0.161525	0.018488	-0.116150
H324	H	-0.227139	-0.017524	-0.074996
H325	H	-0.209967	-0.113359	-0.163122
H326	H	-0.275572	-0.149384	-0.121972
O327	O	-0.352442	0.166107	-0.259836
C328	C	-0.354020	0.211978	-0.214277
H329	H	-0.412235	0.171897	-0.191239
H330	H	-0.363671	0.281354	-0.205021
C331	C	-0.192571	0.271741	-0.236428
C332	C	-0.264066	0.222509	-0.208133
H333	H	-0.137081	0.278242	-0.232638
H334	H	-0.191507	0.240840	-0.267123
H335	H	-0.200625	0.329549	-0.228712
H336	H	-0.256016	0.164699	-0.215853
H337	H	-0.265126	0.253401	-0.177439
O338	O	0.001421	-0.427474	-0.155928
C339	C	0.080557	-0.376168	-0.142837
H340	H	0.136327	-0.411615	-0.164359
H341	H	0.066236	-0.368673	-0.105528
C342	C	0.042514	-0.238830	-0.123428
C343	C	0.111014	-0.282363	-0.149865
H344	H	0.061300	-0.180965	-0.127761
H345	H	-0.010803	-0.273395	-0.132246
H346	H	0.030586	-0.232594	-0.092340
H347	H	0.122933	-0.288609	-0.180952
H348	H	0.164334	-0.247797	-0.141052
O349	O	0.647726	-0.468341	-0.077346
C350	C	0.672445	-0.421340	-0.109113
H351	H	0.632638	-0.369310	-0.094464
H352	H	0.656812	-0.470806	-0.141661
C353	C	0.823227	-0.437364	-0.137625
C354	C	0.774341	-0.373454	-0.119631
H355	H	0.886082	-0.407829	-0.144116
H356	H	0.806573	-0.469033	-0.116225
H357	H	0.810190	-0.478581	-0.164747
H358	H	0.787370	-0.332246	-0.092508
H359	H	0.791000	-0.341777	-0.141028
O360	O	-0.545867	0.040332	-0.148438
C361	C	-0.547526	0.117730	-0.110850
H362	H	-0.478221	0.168579	-0.116200
H363	H	-0.565275	0.098262	-0.078779
C364	C	-0.704101	0.097431	-0.099314
C365	C	-0.618982	0.159887	-0.105887
H366	H	-0.748181	0.123434	-0.096250
H367	H	-0.702985	0.045284	-0.124637
H368	H	-0.718879	0.081212	-0.072589
H369	H	-0.604200	0.176096	-0.132614
H370	H	-0.620097	0.212038	-0.080568
O371	O	0.785018	-0.242512	-0.519077
C372	C	0.786491	-0.167335	-0.480414
H373	H	0.717155	-0.176259	-0.454082
H374	H	0.804121	-0.103740	-0.490421
C375	C	0.943108	-0.148106	-0.492573
C376	C	0.857950	-0.159071	-0.460230
H377	H	0.987190	-0.143005	-0.480124
H378	H	0.942117	-0.198752	-0.518623
H379	H	0.957787	-0.095111	-0.500910
H380	H	0.843268	-0.212070	-0.451899
H381	H	0.858940	-0.108433	-0.434179
H382	H	-0.015274	-0.667410	-0.915397
O383	O	-0.024357	-0.146906	-0.731970
C384	C	-0.100731	-0.142029	-0.693389
H385	H	-0.122547	-0.203399	-0.680856
H386	H	-0.158329	-0.140516	-0.702625
C387	C	-0.050085	0.019533	-0.671089
C388	C	-0.076875	-0.055840	-0.655695
H389	H	-0.035373	0.072700	-0.647838
H390	H	0.001367	0.016248	-0.697083
H391	H	-0.098089	0.020781	-0.678786
H392	H	-0.028868	-0.057093	-0.648003
H393	H	-0.128320	-0.052553	-0.629699
H394	H	0.544602	-0.156012	-0.528109
H395	H	-0.449229	0.177371	-0.300885
H396	H	0.780052	-0.386407	-0.516111
O397	O	0.001369	-0.686192	-0.285236
C398	C	0.080518	-0.714488	-0.311964
H399	H	0.110377	-0.723022	-0.289320
H400	H	0.131857	-0.661849	-0.329902
C401	C	0.020619	-0.794497	-0.375328
C402	C	0.057288	-0.804986	-0.347517
H403	H	0.006291	-0.850318	-0.397261
H404	H	-0.032705	-0.775431	-0.357322
H405	H	0.063407	-0.750628	-0.390273
H406	H	0.014496	-0.848846	-0.332569
H407	H	0.110604	-0.824062	-0.365522
H408	H	-0.005182	-0.254109	-0.622664
O409	O	0.013727	-0.700348	-0.649069
C410	C	-0.063082	-0.775036	-0.646594
H411	H	-0.090933	-0.792567	-0.675750
H412	H	-0.116947	-0.757853	-0.612923
C413	C	-0.002389	-0.834616	-0.614178
C414	C	-0.036592	-0.856153	-0.649991
H415	H	0.013949	-0.884652	-0.616271
H416	H	0.049357	-0.784296	-0.615844
H417	H	-0.047282	-0.820296	-0.586123
H418	H	0.008304	-0.870462	-0.678045
H419	H	-0.088331	-0.906478	-0.648330
O420	O	0.255244	-0.488930	-0.029260
C421	C	0.178119	-0.493726	0.008885
H422	H	0.152540	-0.432125	0.020290
H423	H	0.196455	-0.495631	0.037630
C424	C	0.135071	-0.655261	-0.017692
C425	C	0.103650	-0.579606	-0.003686
H426	H	0.089136	-0.708237	-0.025445
H427	H	0.187034	-0.652031	-0.043390
H428	H	0.150351	-0.656837	0.006265
H429	H	0.088382	-0.578025	-0.027644
H430	H	0.051683	-0.582837	0.022008
H431	H	0.088092	-0.309407	-0.275738
O432	O	-0.015787	-0.153079	-0.663199
C433	C	-0.012128	-0.126511	-0.618423
H434	H	0.020308	-0.171467	-0.615416
H435	H	-0.083536	-0.133073	-0.593966
C436	C	0.004674	0.027319	-0.610304
C437	C	0.044519	-0.027892	-0.606612
H438	H	0.039613	0.088153	-0.603017
H439	H	0.002205	0.009420	-0.640469
H440	H	-0.054831	0.021840	-0.589923
H441	H	0.104018	-0.022421	-0.626997
H442	H	0.046999	-0.009990	-0.576449
H443	H	0.330510	-0.448858	0.033327
H444	H	-0.518563	-0.039000	0.162804
H445	H	0.710767	-0.684484	-0.506030
O446	O	0.726878	-0.700118	-0.005592
C447	C	0.803693	-0.702979	-0.044010
H448	H	0.821201	-0.643902	-0.057536
H449	H	0.788855	-0.768856	-0.071387
C450	C	0.862492	-0.769480	-0.014108
C451	C	0.884000	-0.696916	-0.030719
H452	H	0.912028	-0.765744	-0.005910
H453	H	0.810738	-0.767555	0.011774
H454	H	0.850126	-0.824369	-0.036925
H455	H	0.896354	-0.642028	-0.007900
H456	H	0.935757	-0.698831	-0.056597
O457	O	0.454259	-0.686250	-0.011792
C458	C	0.452553	-0.761368	-0.050473
H459	H	0.515085	-0.785509	-0.061628
H460	H	0.451928	-0.741504	-0.079097
C461	C	0.290259	-0.807997	-0.025290
C462	C	0.367058	-0.837651	-0.038988
H463	H	0.237521	-0.855051	-0.018207
H464	H	0.291408	-0.757387	0.000770
H465	H	0.289751	-0.791443	-0.049145
H466	H	0.367571	-0.854193	-0.015131
H467	H	0.365908	-0.888266	-0.065044
H468	H	0.682238	-0.162236	-0.523943
O469	O	0.557047	-0.377216	-0.087054
C470	C	0.566524	-0.283868	-0.068232
H471	H	0.568054	-0.262737	-0.031796
H472	H	0.506990	-0.267536	-0.068600
C473	C	0.653352	-0.258462	-0.141144
C474	C	0.655239	-0.232507	-0.096394
H475	H	0.708072	-0.226779	-0.158517
H476	H	0.646964	-0.321352	-0.153826
H477	H	0.603736	-0.244850	-0.141445
H478	H	0.704847	-0.246129	-0.096094
H479	H	0.661637	-0.169618	-0.083714
O480	O	0.237853	-0.216284	-0.033688
C481	C	0.160920	-0.213656	0.004674
H482	H	0.173282	-0.225156	0.032713
H483	H	0.100006	-0.268589	-0.004818
C484	C	0.127287	-0.106922	-0.012916
C485	C	0.142473	-0.121038	0.021524
H486	H	0.115905	-0.049793	-0.002523
H487	H	0.179117	-0.108695	-0.038763
H488	H	0.076527	-0.152706	-0.020823
H489	H	0.193239	-0.075262	0.029426
H490	H	0.090652	-0.119256	0.047372
H491	H	-0.503619	0.071273	-0.373665
H492	H	-0.434254	-0.059305	0.203012
O493	O	-0.476052	0.083671	0.122766
C494	C	-0.418150	0.157331	0.145654
H495	H	-0.458419	0.184405	0.182221
H496	H	-0.387114	0.212612	0.127928
C497	C	-0.292968	0.093295	0.100292
C498	C	-0.342426	0.126543	0.145206
H499	H	-0.246256	0.074306	0.100015
H500	H	-0.331977	0.043671	0.084871
H501	H	-0.267114	0.139368	0.085526
H502	H	-0.368289	0.080467	0.159970
H503	H	-0.303420	0.176159	0.160630
O504	O	-0.277352	0.042750	0.218566
C505	C	-0.251860	-0.037766	0.192576
H506	H	-0.294428	-0.091897	0.210885
H507	H	-0.177340	-0.025560	0.187816
C508	C	-0.214895	-0.002599	0.123398
C509	C	-0.267183	-0.069086	0.145883
H510	H	-0.224342	-0.021918	0.094595
H511	H	-0.232066	0.051647	0.140907
H512	H	-0.152799	0.007566	0.119436
H513	H	-0.329277	-0.079242	0.149850
H514	H	-0.250023	-0.123335	0.128373
H515	H	-0.047834	-0.232081	-0.882358
H516	H	-0.023718	-0.530163	-0.918978
O517	O	-0.004604	-0.768422	-0.874869
C518	C	-0.008315	-0.795004	-0.919635
H519	H	0.016077	-0.732936	-0.931969
H520	H	-0.080913	-0.831803	-0.920456
C521	C	0.022792	-0.934409	-0.935619
C522	C	0.052758	-0.858177	-0.950769
H523	H	0.060461	-0.973380	-0.954824
H524	H	0.025289	-0.916503	-0.905459
H525	H	-0.037706	-0.965064	-0.936303
H526	H	0.113251	-0.827518	-0.950080
H527	H	0.050273	-0.876080	-0.980931
O528	O	0.118427	-0.386126	-0.231117
C529	C	0.201870	-0.372679	-0.265140
H530	H	0.191097	-0.368029	-0.295479
H531	H	0.231257	-0.431596	-0.276232
C532	C	0.281106	-0.290394	-0.209075
C533	C	0.267876	-0.284675	-0.246337
H534	H	0.321823	-0.236111	-0.197477
H535	H	0.224889	-0.299456	-0.186153
H536	H	0.305591	-0.339495	-0.218324
H537	H	0.243381	-0.235581	-0.237087
H538	H	0.324090	-0.275603	-0.269257
O539	O	-0.488534	0.185465	0.317821
C540	C	-0.396288	0.227472	0.314554
H541	H	-0.355865	0.224505	0.277632
H542	H	-0.370913	0.191121	0.327432
C543	C	-0.434055	0.330113	0.388811
C544	C	-0.384407	0.326476	0.343464
H545	H	-0.426725	0.391183	0.406645
H546	H	-0.496203	0.301811	0.391013
H547	H	-0.412904	0.299816	0.399537
H548	H	-0.405567	0.356764	0.332737
H549	H	-0.322262	0.354786	0.341260
O550	O	0.003648	-0.774690	-0.806042
C551	C	-0.075459	-0.826391	-0.819104
H552	H	-0.105470	-0.780632	-0.823134
H553	H	-0.126717	-0.860679	-0.792000
C554	C	-0.015231	-0.954567	-0.859595
C555	C	-0.052087	-0.898365	-0.864547
H556	H	-0.000816	-0.998966	-0.887625
H557	H	0.038064	-0.919736	-0.850793
H558	H	-0.057952	-0.983130	-0.837006
H559	H	-0.009362	-0.869793	-0.887132
H560	H	-0.105374	-0.933192	-0.873354
O561	O	-0.580570	0.207418	0.274116
C562	C	-0.674756	0.173789	0.281267
H563	H	-0.697844	0.101870	0.283471
H564	H	-0.691869	0.174438	0.251838
C565	C	-0.694978	0.321656	0.323150
C566	C	-0.723336	0.233327	0.325861
H567	H	-0.724945	0.358384	0.350656
H568	H	-0.631523	0.344315	0.318330
H569	H	-0.709240	0.322185	0.298624
H570	H	-0.709064	0.232798	0.350383
H571	H	-0.786790	0.210670	0.330685
O572	O	0.510451	-0.230250	-0.027496
C573	C	0.512170	-0.155105	0.011173
H574	H	0.442897	-0.163917	0.037561
H575	H	0.529884	-0.091451	0.001199
C576	C	0.668777	-0.136281	-0.001171
C577	C	0.583697	-0.147108	0.031241
H578	H	0.712900	-0.131344	0.011207
H579	H	0.667620	-0.186905	-0.027224
H580	H	0.683526	-0.083237	-0.009480
H581	H	0.568944	-0.200157	0.039544
H582	H	0.584853	-0.096492	0.057295
H583	H	-0.754334	0.089615	-0.376700
O584	O	-0.744826	0.080623	-0.244372
C585	C	-0.821987	0.006453	-0.240933
H586	H	-0.815525	-0.047521	-0.275000
H587	H	-0.884827	0.029211	-0.231080
C588	C	-0.838053	0.033894	-0.162627
C589	C	-0.830112	-0.032401	-0.204468
H590	H	-0.843068	0.009929	-0.140132
H591	H	-0.786070	0.083866	-0.164943
H592	H	-0.890419	0.052853	-0.154422
H593	H	-0.777741	-0.051350	-0.212675
H594	H	-0.882086	-0.082377	-0.202153
O595	O	-0.532399	0.053523	0.351399
C596	C	-0.534069	0.130920	0.388987
H597	H	-0.464774	0.181784	0.383635
H598	H	-0.551799	0.111456	0.421057
C599	C	-0.690658	0.110576	0.400531
C600	C	-0.605550	0.173051	0.393955
H601	H	-0.734753	0.136563	0.403597
H602	H	-0.689535	0.058430	0.375208
H603	H	-0.705420	0.094362	0.427255
H604	H	-0.590784	0.189256	0.367229
H605	H	-0.606672	0.225201	0.419274
O606	O	-0.731326	0.093816	0.255445
C607	C	-0.808492	0.019653	0.258888
H608	H	-0.802039	-0.034327	0.224823
H609	H	-0.871329	0.042417	0.268743
C610	C	-0.824546	0.047106	0.337194
C611	C	-0.816616	-0.019196	0.295356
H612	H	-0.829561	0.023143	0.359690
H613	H	-0.772560	0.097073	0.334875
H614	H	-0.876910	0.066070	0.345400
H615	H	-0.764248	-0.038151	0.287148
H616	H	-0.868594	-0.069168	0.297674
H617	H	-0.740818	0.102779	0.123104
O618	O	0.177141	-0.669141	-0.527545
C619	C	0.175696	-0.744286	-0.566224
H620	H	0.238316	-0.768230	-0.577290
H621	H	0.175112	-0.724540	-0.594896
C622	C	0.013406	-0.791294	-0.541202
C623	C	0.090313	-0.820707	-0.554792
H624	H	-0.039264	-0.838433	-0.534151
H625	H	0.014379	-0.740665	-0.515144
H626	H	0.012932	-0.774838	-0.565098
H627	H	0.090792	-0.837151	-0.530894
H628	H	0.089339	-0.871340	-0.580845
O629	O	-0.683118	-0.055521	-0.265747
C630	C	-0.715851	-0.030927	-0.290607
H631	H	-0.656539	0.006909	-0.314303
H632	H	-0.761997	0.014259	-0.266205
C633	C	-0.842240	-0.162680	-0.289611
C634	C	-0.769392	-0.116216	-0.318718
H635	H	-0.875270	-0.215289	-0.306949
H636	H	-0.820190	-0.179248	-0.272861
H637	H	-0.880685	-0.125016	-0.269278
H638	H	-0.730943	-0.153876	-0.339046
H639	H	-0.791437	-0.099656	-0.335472
H640	H	-0.123560	-0.607102	-0.263443
H641	H	-0.037138	-0.474881	-0.380005
H642	H	-0.048864	-0.224020	-0.386283
H643	H	0.245727	-0.224039	-0.533582
H644	H	0.279916	-0.749353	-0.522691
H645	H	0.417564	-0.755580	-0.518528
H646	H	-0.586315	-0.066836	-0.224702
