data_functionalizedCrystal
_audit_creation_method	'MofGen! by Chris Wilmer'
_symmetry_space_group_name_H-M	'P1'
_symmetry_Int_Tables_number	1
_symmetry_cell_setting	triclinic
loop_
_symmetry_equiv_pos_as_xyz
  x,y,z
_cell_length_a	6.817900
_cell_length_b	11.168121
_cell_length_c	11.102182
_cell_angle_alpha	91.986452
_cell_angle_beta	108.603774
_cell_angle_gamma	108.508496
loop_
_atom_site_label
_atom_site_type_symbol
_atom_site_fract_x
_atom_site_fract_y
_atom_site_fract_z
V1	V	-4.111008	-0.174718	-0.396268
O2	O	-4.070571	0.008382	-0.388714
O3	O	-4.087288	-0.346423	-0.393569
O4	O	-4.087789	-0.172036	-0.569090
O5	O	-4.070066	-0.167212	-0.211978
V6	V	-4.588175	-0.152816	-0.374224
O7	O	-4.386208	-0.222761	-0.444623
O8	O	-4.763171	-0.104773	-0.325869
O9	O	-4.388688	0.018889	-0.376924
O10	O	-4.746008	-0.335916	-0.381779
O11	O	-4.746514	-0.160322	-0.558515
O12	O	-4.388187	-0.155498	-0.201403
C13	C	-3.937478	-0.388281	-0.387320
C14	C	-3.999538	-0.528652	-0.386265
C15	C	-4.202063	-0.597345	-0.391822
C16	C	-4.266210	-0.742426	-0.390731
C17	C	-3.938116	-0.165831	-0.611213
C18	C	-4.000579	-0.164775	-0.752496
C19	C	-4.089759	-0.279907	-0.837038
C20	C	-4.148466	-0.278898	-0.969787
C21	C	-4.028793	-0.047616	-0.933436
C22	C	-3.970103	-0.048627	-0.800691
C23	C	-4.120235	-0.396055	-0.788843
C24	C	-4.209418	-0.511196	-0.873387
C25	C	-4.268125	-0.510188	-1.006135
C26	C	-4.237648	-0.394038	-1.054340
C27	C	-4.201841	0.060740	-0.383169
C28	C	-4.119020	0.201110	-0.384233
C29	C	-4.201202	-0.161707	-0.159273
C30	C	-4.117976	-0.162756	-0.017989
H31	H	-4.072433	-0.396889	-0.680755
N32	N	-3.873843	0.075538	-0.709475
H33	H	-3.971928	0.075994	-0.657973
H34	H	-3.863389	0.149216	-0.760215
N35	N	-4.368859	-0.532991	-0.399207
H36	H	-4.299393	-0.438472	-0.398944
H37	H	-4.418542	-0.546521	-0.322654
N38	N	-4.242319	-0.636467	-0.821405
H39	H	-4.191598	-0.619639	-0.724483
H40	H	-4.153587	-0.682503	-0.848152
N41	N	-4.495958	-0.820609	-0.396889
H42	H	-4.509182	-0.913157	-0.395171
H43	H	-4.607222	-0.812747	-0.478947
N44	N	-3.995918	0.077652	-0.985422
H45	H	-4.046626	0.060821	-1.082344
H46	H	-3.834398	0.132260	-0.949883
H47	H	-4.340758	-0.603941	-1.074969
N48	N	-3.889189	-0.720700	-0.377931
H49	H	-3.816016	-0.653424	-0.298913
H50	H	-3.897958	-0.678040	-0.457270
N51	N	-3.832754	-0.593013	-0.378885
H52	H	-3.701270	-0.555043	-0.297130
H53	H	-3.783194	-0.579563	-0.455488
N54	N	-4.300973	-0.392936	-1.197516
H55	H	-4.463732	-0.442380	-1.241022
H56	H	-4.213345	-0.433778	-1.232130
