data_functionalizedCrystal
_audit_creation_method	'MofGen! by Chris Wilmer'
_symmetry_space_group_name_H-M	'P1'
_symmetry_Int_Tables_number	1
_symmetry_cell_setting	triclinic
loop_
_symmetry_equiv_pos_as_xyz
  x,y,z
_cell_length_a	14.971482
_cell_length_b	15.995350
_cell_length_c	13.448316
_cell_angle_alpha	89.995627
_cell_angle_beta	89.993798
_cell_angle_gamma	83.552491
loop_
_atom_site_label
_atom_site_type_symbol
_atom_site_fract_x
_atom_site_fract_y
_atom_site_fract_z
O1	O	1.186825	0.109102	-0.082674
O2	O	0.926409	0.122172	-0.082678
O3	O	1.063736	-0.006244	-0.082675
O4	O	1.049498	0.237517	-0.082677
O5	O	1.063718	-0.006252	0.082709
O6	O	0.926392	0.122164	0.082706
O7	O	1.186808	0.109094	0.082710
Cu8	Cu	1.056598	0.115628	0.097809
Cu9	Cu	1.056619	0.115637	-0.097777
O10	O	1.049481	0.237509	0.082707
C11	C	0.893077	0.121584	0.000013
C12	C	0.793781	0.119834	0.000011
C13	C	0.747128	0.119005	0.090163
C14	C	0.653832	0.117348	0.090164
C15	C	0.607189	0.116525	0.000013
C16	C	0.653849	0.117351	-0.090146
C17	C	0.747145	0.119002	-0.090146
C18	C	0.459391	0.113910	-0.090140
C19	C	0.366089	0.112260	-0.090140
C20	C	0.366078	0.112256	0.090171
C21	C	0.459374	0.113907	0.090171
C22	C	0.506027	0.114735	0.000012
C23	C	1.063138	-0.037443	0.000015
C24	C	1.061374	-0.130395	0.000009
C25	C	1.055037	-0.468149	0.000013
C26	C	0.957235	-0.420812	-0.000360
C27	C	0.959000	-0.324120	0.000013
C28	C	1.058180	-0.300585	0.000010
C29	C	1.106409	-0.341620	0.094452
C30	C	1.103952	-0.438258	0.094531
C31	C	1.105992	-0.438605	-0.093542
C32	C	1.105969	-0.341660	-0.094790
C33	C	1.059962	-0.205886	0.000013
C34	C	1.053258	-0.562849	0.000017
C35	C	1.220140	0.109682	0.000016
C36	C	1.319436	0.111432	0.000012
C37	C	1.050078	0.268709	0.000015
C38	C	1.051843	0.361661	0.000014
N39	N	1.056590	0.115621	0.235373
N40	N	1.056634	0.115638	-0.235341
C41	C	1.117417	0.058782	0.287415
C42	C	1.117423	0.058781	0.391518
C43	C	1.056605	0.115624	0.443577
C44	C	0.995772	0.172466	0.391528
C45	C	0.995763	0.172462	0.287427
C46	C	0.995797	0.172472	0.608509
C47	C	0.995807	0.172477	0.712617
C48	C	1.117457	0.058791	0.712599
C49	C	1.117448	0.058787	0.608498
C50	C	1.056615	0.115630	0.556456
H51	H	0.918152	-0.439379	-0.068086
C52	C	1.169918	-0.086098	0.255429
C53	C	1.184269	-0.003723	0.230220
H54	H	1.211186	-0.124692	0.220124
H55	H	1.178615	-0.094203	0.324873
H56	H	1.110222	-0.095265	0.238370
H57	H	1.243964	0.005446	0.247287
H58	H	1.175579	0.004385	0.160761
H59	H	0.918312	-0.440447	0.066987
H60	H	0.497347	0.114583	0.163580
H61	H	1.070708	-0.314442	-0.164655
H62	H	0.946248	0.218746	0.433921
H63	H	0.328088	0.111582	0.163582
H64	H	1.166974	0.012505	0.566111
H65	H	1.175756	-0.470435	0.098814
C66	C	0.327308	0.183674	-0.243830
C67	C	0.314812	0.111355	-0.189233
H68	H	0.295654	0.183113	-0.305007
H69	H	0.305197	0.232184	-0.206788
H70	H	0.389551	0.184762	-0.256737
H71	H	0.252570	0.110271	-0.176320
H72	H	0.336920	0.062833	-0.226283
H73	H	1.068769	-0.456598	0.165129
H74	H	1.166988	0.012507	0.754978
C75	C	1.136870	-0.055150	0.508584
C76	C	1.184292	-0.003698	0.448715
H77	H	1.178156	-0.093727	0.543887
H78	H	1.100660	-0.021303	0.554489
H79	H	1.099641	-0.085325	0.467975
H80	H	1.221516	0.026482	0.489325
H81	H	1.220517	-0.037549	0.402805
C82	C	0.875529	0.284824	0.702184
C83	C	0.928939	0.234943	0.769844
H84	H	0.834241	0.323381	0.737516
H85	H	0.912741	0.315014	0.661575
H86	H	0.843371	0.249902	0.661586
H87	H	0.961102	0.269864	0.810437
H88	H	0.891721	0.204751	0.810470
C89	C	0.976369	0.286388	0.491420
C90	C	0.928931	0.234954	0.551298
H91	H	0.935091	0.324957	0.456096
H92	H	1.013592	0.316564	0.532019
H93	H	1.012585	0.252521	0.445525
H94	H	0.892720	0.268819	0.597198
H95	H	0.891693	0.204775	0.510695
H96	H	0.946230	0.218745	0.245056
C97	C	0.765830	0.191448	-0.243829
C98	C	0.798432	0.119921	-0.189242
H99	H	0.797498	0.192015	-0.305004
H100	H	0.703601	0.190341	-0.256732
H101	H	0.774296	0.240500	-0.206774
H102	H	0.789960	0.070869	-0.226294
H103	H	0.860676	0.121021	-0.176341
C104	C	1.248209	-0.454701	-0.177977
C105	C	1.203336	-0.481383	-0.094410
H106	H	1.308303	-0.481110	-0.178502
H107	H	1.218225	-0.469513	-0.236552
H108	H	1.248542	-0.395383	-0.175541
H109	H	1.202997	-0.540700	-0.096849
H110	H	1.233327	-0.466577	-0.035820
H111	H	0.785097	0.119683	0.163575
H112	H	0.497373	0.114584	-0.163557
C113	C	0.909337	-0.198420	-0.091227
C114	C	0.907836	-0.285791	-0.091386
H115	H	0.877757	-0.174763	-0.147662
H116	H	0.881440	-0.175362	-0.032380
H117	H	0.969837	-0.185882	-0.093550
H118	H	0.847336	-0.298329	-0.089057
H119	H	0.935731	-0.308857	-0.150249
C120	C	0.538883	0.187426	-0.194748
C121	C	0.602580	0.116449	-0.189244
H122	H	0.507237	0.186872	-0.255931
H123	H	0.497750	0.186690	-0.141063
H124	H	0.568467	0.236852	-0.191000
H125	H	0.572995	0.067023	-0.192985
H126	H	0.643719	0.117178	-0.242944
C127	C	0.558992	0.043547	0.194778
C128	C	0.602560	0.116428	0.189268
H129	H	0.527348	0.042975	0.255968
H130	H	0.517858	0.042827	0.141101
H131	H	0.602228	-0.004586	0.191018
H132	H	0.559324	0.164562	0.193020
H133	H	0.643698	0.117156	0.242959
H134	H	1.072898	-0.313275	0.164733
C135	C	0.874897	-0.351161	0.146301
C136	C	0.907475	-0.286553	0.091569
H137	H	0.843094	-0.327967	0.202832
H138	H	0.835654	-0.379244	0.105857
H139	H	0.923852	-0.390080	0.167348
H140	H	0.858519	-0.247636	0.070516
H141	H	0.946719	-0.258456	0.132020
C142	C	1.222746	-0.270464	-0.021806
C143	C	1.203612	-0.320834	-0.102493
H144	H	1.283032	-0.257614	-0.026555
H145	H	1.183035	-0.219798	-0.022609
H146	H	1.215162	-0.299828	0.038465
H147	H	1.211190	-0.291468	-0.162765
H148	H	1.243335	-0.371509	-0.101699
C149	C	0.989857	-0.510403	-0.166909
C150	C	1.062835	-0.466362	-0.190177
H151	H	0.963205	-0.527533	-0.226564
H152	H	1.010164	-0.558572	-0.128362
H153	H	0.946704	-0.474965	-0.130032
H154	H	1.105992	-0.501802	-0.227047
H155	H	1.042530	-0.418186	-0.228739
H156	H	1.179274	-0.327422	0.097962
