data_functionalizedCrystal
_audit_creation_method	'MofGen! by Chris Wilmer'
_symmetry_space_group_name_H-M	'P1'
_symmetry_Int_Tables_number	1
_symmetry_cell_setting	triclinic
loop_
_symmetry_equiv_pos_as_xyz
  x,y,z
_cell_length_a	13.032831
_cell_length_b	12.594516
_cell_length_c	13.033352
_cell_angle_alpha	82.825519
_cell_angle_beta	89.095163
_cell_angle_gamma	82.821304
loop_
_atom_site_label
_atom_site_type_symbol
_atom_site_fract_x
_atom_site_fract_y
_atom_site_fract_z
Zn1	Zn	1.498287	-0.719108	0.780845
Zn2	Zn	1.520079	-0.877630	0.608879
Zn3	Zn	1.348196	-0.674573	0.587090
Zn4	Zn	1.326287	-0.871930	0.758999
O5	O	1.423212	-0.785810	0.683953
O6	O	1.645094	-0.761160	0.776295
O7	O	1.515568	-0.834441	0.462076
O8	O	1.368155	-0.531544	0.612816
O9	O	1.661104	-0.877625	0.649952
O10	O	1.478426	-0.564264	0.755167
O11	O	1.389286	-0.685256	0.446068
O12	O	1.201374	-0.679729	0.591633
O13	O	1.330813	-0.867911	0.905809
O14	O	1.185277	-0.824727	0.717933
O15	O	1.457181	-0.755633	0.921860
O16	O	1.494323	-1.025810	0.628769
O17	O	1.351944	-1.021622	0.739061
C18	C	1.156009	-0.746778	0.650049
C19	C	1.041695	-0.730108	0.635569
C20	C	0.982806	-0.794511	0.691510
C21	C	0.864657	-0.777283	0.676546
C22	C	1.423146	-1.062340	0.683935
C23	C	1.423207	-1.180659	0.683973
C24	C	1.345767	-1.247666	0.743912
C25	C	1.332659	-1.304247	0.646897
C26	C	1.436407	-1.334893	0.781016
C27	C	1.410056	-1.235668	0.586902
C28	C	1.513839	-1.266321	0.721090
C29	C	1.500775	-1.322868	0.624015
C30	C	1.691458	-0.824996	0.717991
C31	C	1.805769	-0.841695	0.732495
C32	C	1.389123	-0.816104	0.952193
C33	C	1.374596	-0.829013	1.066500
C34	C	1.423304	-0.508207	0.683998
C35	C	1.423343	-0.389909	0.684017
C36	C	1.430643	-0.779216	1.125404
C37	C	1.415631	-0.792557	1.243547
C38	C	1.457161	-0.755659	1.416756
C39	C	1.471686	-0.742753	1.302448
H40	H	0.842814	-0.909586	0.791478
H41	H	1.004643	-0.662212	0.576601
H42	H	1.280186	-1.214700	0.794502
Cl43	Cl	1.324373	-0.873629	1.300712
Cl44	Cl	1.040002	-0.899339	0.782558
H45	H	1.489739	-0.726702	1.088368
H46	H	1.530784	-0.690232	1.265418
Cl47	Cl	1.283342	-0.910081	1.123670
Cl48	Cl	1.214418	-1.330805	0.598447
H49	H	1.398856	-1.192671	0.504819
Cl50	Cl	1.601990	-1.373431	0.545687
Cl51	Cl	0.807464	-0.672449	0.585495
Cl52	Cl	1.453562	-1.401454	0.907692
Cl53	Cl	1.632043	-1.239723	0.769577
