data_functionalizedCrystal
_audit_creation_method	'MofGen! by Chris Wilmer'
_symmetry_space_group_name_H-M	'P1'
_symmetry_Int_Tables_number	1
_symmetry_cell_setting	triclinic
loop_
_symmetry_equiv_pos_as_xyz
  x,y,z
_cell_length_a	16.625548
_cell_length_b	21.295417
_cell_length_c	21.295420
_cell_angle_alpha	90.006945
_cell_angle_beta	90.016944
_cell_angle_gamma	90.031575
loop_
_atom_site_label
_atom_site_type_symbol
_atom_site_fract_x
_atom_site_fract_y
_atom_site_fract_z
Zn1	Zn	1.232606	-0.250754	0.355911
Zn2	Zn	1.732606	0.249246	0.855911
Zn3	Zn	1.232499	-0.355979	0.250636
Zn4	Zn	1.732499	0.144021	0.750636
Zn5	Zn	1.097777	-0.250730	0.250656
Zn6	Zn	1.597777	0.249270	0.750656
Zn7	Zn	1.097720	-0.355992	0.355868
Zn8	Zn	1.597720	0.144008	0.855868
O9	O	1.165151	-0.303364	0.303268
O10	O	1.665151	0.196636	0.803268
O11	O	1.345425	-0.264718	0.341955
O12	O	1.845425	0.235282	0.841955
O13	O	1.214607	-0.342002	0.162549
O14	O	1.714607	0.157998	0.662549
O15	O	1.115731	-0.162644	0.264644
O16	O	1.615731	0.337356	0.764644
O17	O	1.345346	-0.342026	0.264611
O18	O	1.845346	0.157974	0.764611
O19	O	1.214790	-0.162662	0.341974
O20	O	1.714790	0.337338	0.841974
O21	O	1.115627	-0.264676	0.162564
O22	O	1.615627	0.235324	0.662564
O23	O	0.984937	-0.264688	0.264603
O24	O	1.484937	0.235312	0.764603
O25	O	1.115634	-0.342047	0.443963
O26	O	1.615634	0.157953	0.943963
O27	O	0.984895	-0.342023	0.341901
O28	O	1.484895	0.157977	0.841901
O29	O	1.214734	-0.264730	0.443994
O30	O	1.714734	0.235270	0.943994
O31	O	1.214552	-0.444070	0.264569
O32	O	1.714552	0.055930	0.764569
O33	O	1.115530	-0.444079	0.341882
O34	O	1.615530	0.055921	0.841882
C35	C	0.955660	-0.303355	0.303250
C36	C	1.455660	0.196645	0.803250
C37	C	0.866039	-0.303366	0.303257
C38	C	1.366039	0.196634	0.803257
C39	C	0.537863	-0.303370	0.303284
C40	C	1.037863	0.196630	0.803284
C41	C	0.629171	-0.303367	0.303275
C42	C	1.129171	0.196633	0.803275
C43	C	0.701948	-0.303368	0.303270
C44	C	1.201948	0.196632	0.803270
C45	C	0.793262	-0.303365	0.303262
C46	C	1.293262	0.196635	0.803262
C47	C	1.165045	-0.466915	0.303233
C48	C	1.665045	0.033085	0.803233
C49	C	1.165073	-0.536883	0.303239
C50	C	1.665073	-0.036883	0.803239
C51	C	1.216680	-0.569724	0.263023
C52	C	1.716680	-0.069724	0.763023
C53	C	1.216718	-0.635467	0.263037
C54	C	1.716718	-0.135467	0.763037
C55	C	1.165135	-0.668366	0.303261
C56	C	1.665135	-0.168366	0.803261
C57	C	1.113524	-0.635517	0.343484
C58	C	1.613524	-0.135517	0.843484
C59	C	1.113494	-0.569776	0.343473
C60	C	1.613494	-0.069776	0.843473
N61	N	1.094599	-0.771635	0.308054
N62	N	1.594599	-0.271635	0.808054
N63	N	1.094631	-0.834086	0.308060
N64	N	1.594631	-0.334086	0.808060
C65	C	1.165225	-0.866441	0.303297
C66	C	1.665225	-0.366441	0.803297
N67	N	1.235788	-0.833984	0.298514
N68	N	1.735788	-0.333984	0.798514
N69	N	1.235756	-0.771527	0.298504
N70	N	1.735756	-0.271527	0.798504
C71	C	1.165162	-0.739651	0.303277
C72	C	1.665162	-0.239651	0.803277
C73	C	1.216877	-0.970567	0.263094
C74	C	1.716877	-0.470567	0.763094
C75	C	1.216916	-1.036311	0.263113
C76	C	1.716916	-0.536311	0.763113
C77	C	1.113715	-1.036360	0.343556
C78	C	1.613715	-0.536360	0.843556
C79	C	1.113684	-0.970617	0.343541
C80	C	1.613684	-0.470617	0.843541
C81	C	1.165263	-0.937725	0.303307
C82	C	1.665263	-0.437725	0.803307
C83	C	1.375459	-0.303373	0.303286
C84	C	1.875459	0.196627	0.803286
C85	C	1.465081	-0.303377	0.303293
C86	C	1.965081	0.196623	0.803293
C87	C	1.165190	-0.303393	0.467458
C88	C	1.665190	0.196607	0.967458
C89	C	1.165206	-0.303405	0.537426
C90	C	1.665206	0.196595	1.037426
C91	C	1.165279	-0.139173	0.303316
C92	C	1.665279	0.360827	0.803316
C93	C	1.165333	-0.069205	0.303337
C94	C	1.665333	0.430795	0.803337
C95	C	1.216800	-0.263152	0.570310
C96	C	1.716800	0.236848	1.070310
C97	C	1.216788	-0.263142	0.636052
C98	C	1.716788	0.236858	1.136052
C99	C	1.165190	-0.303395	0.668908
C100	C	1.665190	0.196605	1.168908
C101	C	1.113586	-0.343651	0.636016
C102	C	1.613586	0.156349	1.136016
C103	C	1.113594	-0.343655	0.570275
C104	C	1.613594	0.156345	1.070275
N105	N	1.158952	-0.358490	0.772124
N106	N	1.658952	0.141510	1.272124
N107	N	1.158949	-0.358483	0.834575
N108	N	1.658949	0.141517	1.334575
C109	C	1.165162	-0.303382	0.866983
C110	C	1.665162	0.196618	1.366983
N111	N	1.171393	-0.248287	0.834580
N112	N	1.671393	0.251713	1.334580
N113	N	1.171400	-0.248294	0.772123
N114	N	1.671400	0.251706	1.272123
C115	C	1.165176	-0.303394	0.740194
C116	C	1.665176	0.196606	1.240194
C117	C	1.216745	-0.263115	0.971153
C118	C	1.716745	0.236885	1.471153
C119	C	1.216727	-0.263104	1.036896
C120	C	1.716727	0.236896	1.536896
C121	C	1.113530	-0.343618	1.036859
C122	C	1.613530	0.156382	1.536859
C123	C	1.113544	-0.343624	0.971117
C124	C	1.613544	0.156376	1.471117
C125	C	1.165156	-0.303373	0.938267
C126	C	1.665156	0.196627	1.438267
C127	C	1.165115	-0.303354	1.139716
C128	C	1.665115	0.196646	1.639716
C129	C	1.165128	-0.303357	1.069748
C130	C	1.665128	0.196643	1.569748
H131	H	1.258745	-0.662211	0.230289
H132	H	1.758745	-0.162211	0.730289
N133	N	1.272520	-0.935087	0.219711
N134	N	1.772520	-0.435087	0.719711
H135	H	1.264668	-0.888456	0.225804
H136	H	1.764668	-0.388456	0.725804
H137	H	1.260018	-0.946601	0.174746
H138	H	1.760018	-0.446601	0.674746
H139	H	1.071719	-1.063145	0.376310
H140	H	1.571719	-0.563145	0.876310
H141	H	1.258826	-0.230376	0.543568
H142	H	1.758826	0.269624	1.043568
H143	H	1.071577	-0.376433	0.543501
H144	H	1.571577	0.123567	1.043501
N145	N	1.057894	-0.387049	0.935656
N146	N	1.557894	0.112951	1.435656
H147	H	1.090636	-0.416227	0.908388
H148	H	1.590636	0.083773	1.408388
H149	H	1.020558	-0.361425	0.908408
H150	H	1.520558	0.138575	1.408408
H151	H	1.258740	-0.230321	1.063669
H152	H	1.758740	0.269679	1.563669
N153	N	1.272584	-1.071736	0.219738
N154	N	1.772584	-0.571736	0.719738
H155	H	1.305251	-1.040920	0.194249
H156	H	1.805251	-0.540920	0.694249
H157	H	1.239797	-1.099046	0.190592
H158	H	1.739797	-0.599046	0.690592
H159	H	1.258681	-0.542945	0.230263
H160	H	1.758681	-0.042945	0.730263
H161	H	1.071657	-0.943876	0.376286
H162	H	1.571657	-0.443876	0.876286
H163	H	1.071527	-0.662308	0.376235
H164	H	1.571527	-0.162308	0.876235
H165	H	1.258766	-0.230337	0.944405
H166	H	1.758766	0.269663	1.444405
N167	N	1.057870	-0.387030	1.072287
N168	N	1.557870	0.112970	1.572287
H169	H	1.065691	-0.380918	1.118924
H170	H	1.565691	0.119082	1.618924
H171	H	1.070384	-0.431990	1.060799
H172	H	1.570384	0.068010	1.560799
H173	H	1.258800	-0.230360	0.662832
H174	H	1.758800	0.269640	1.162832
N175	N	1.057921	-0.387057	0.671449
N176	N	1.557921	0.112943	1.171449
H177	H	1.065742	-0.380945	0.718086
H178	H	1.565742	0.119055	1.218086
H179	H	1.070424	-0.432019	0.659963
H180	H	1.570424	0.067981	1.159963
N181	N	1.057829	-0.534350	0.386849
N182	N	1.557829	-0.034350	0.886849
H183	H	1.025157	-0.565164	0.412335
H184	H	1.525157	-0.065164	0.912335
H185	H	1.020522	-0.507110	0.361192
H186	H	1.520522	-0.007110	0.861192
