data_functionalizedCrystal
_audit_creation_method	'MofGen! by Chris Wilmer'
_symmetry_space_group_name_H-M	'P1'
_symmetry_Int_Tables_number	1
_symmetry_cell_setting	triclinic
loop_
_symmetry_equiv_pos_as_xyz
  x,y,z
_cell_length_a	29.839134
_cell_length_b	29.839131
_cell_length_c	18.215398
_cell_angle_alpha	89.971652
_cell_angle_beta	89.970953
_cell_angle_gamma	90.036281
loop_
_atom_site_label
_atom_site_type_symbol
_atom_site_fract_x
_atom_site_fract_y
_atom_site_fract_z
Zn1	Zn	0.686751	-0.178931	-0.416289
Zn2	Zn	1.186751	0.321069	0.083711
Zn3	Zn	0.686674	-0.254057	-0.293216
Zn4	Zn	1.186674	0.245943	0.206784
Zn5	Zn	0.611624	-0.178935	-0.293216
Zn6	Zn	1.111624	0.321065	0.206784
Zn7	Zn	0.611581	-0.254028	-0.416221
Zn8	Zn	1.111581	0.245972	0.083779
O9	O	0.649158	-0.216487	-0.354735
O10	O	1.149158	0.283513	0.145265
O11	O	0.749608	-0.188907	-0.399992
O12	O	1.249608	0.311093	0.100008
O13	O	0.676704	-0.244105	-0.190232
O14	O	1.176704	0.255895	0.309768
O15	O	0.621640	-0.116067	-0.309570
O16	O	1.121640	0.383933	0.190430
O17	O	0.749551	-0.244101	-0.309571
O18	O	1.249551	0.255899	0.190429
O19	O	0.676836	-0.116064	-0.399991
O20	O	1.176836	0.383936	0.100009
O21	O	0.621566	-0.188914	-0.190232
O22	O	1.121566	0.311086	0.309768
O23	O	0.548752	-0.188886	-0.309504
O24	O	1.048752	0.311114	0.190496
O25	O	0.621567	-0.244052	-0.519214
O26	O	1.121567	0.255948	-0.019214
O27	O	0.548720	-0.244056	-0.399875
O28	O	1.048720	0.255944	0.100125
O29	O	0.676794	-0.188879	-0.519264
O30	O	1.176794	0.311121	-0.019264
O31	O	0.676662	-0.316920	-0.309505
O32	O	1.176662	0.183080	0.190495
O33	O	0.621492	-0.316899	-0.399876
O34	O	1.121492	0.183101	0.100124
C35	C	0.532435	-0.216468	-0.354682
C36	C	1.032435	0.283532	0.145318
C37	C	0.482501	-0.216471	-0.354677
C38	C	0.982501	0.283529	0.145323
C39	C	0.172850	-0.245257	-0.401734
C40	C	0.672850	0.254743	0.098266
C41	C	-0.014823	-0.245270	-0.401767
C42	C	0.485177	0.254730	0.098233
O43	O	-0.039093	-0.269724	-0.441745
O44	O	0.460907	0.230276	0.058255
N45	N	-0.038284	-0.216504	-0.354791
N46	N	0.461716	0.283496	0.145209
C47	C	-0.014825	-0.187731	-0.307807
C48	C	0.485175	0.312269	0.192193
O49	O	-0.039087	-0.163261	-0.267857
O50	O	0.460913	0.336739	0.232143
C51	C	0.172847	-0.187716	-0.307778
C52	C	0.672847	0.312284	0.192222
C53	C	0.196307	-0.216487	-0.354752
C54	C	0.696307	0.283513	0.145248
C55	C	0.196310	-0.274025	-0.448705
C56	C	0.696310	0.225975	0.051295
C57	C	0.243225	-0.274024	-0.448693
C58	C	0.743225	0.225976	0.051307
C59	C	0.266681	-0.245254	-0.401711
C60	C	0.766681	0.254746	0.098289
C61	C	0.243222	-0.216485	-0.354741
C62	C	0.743222	0.283515	0.145259
C63	C	0.196306	-0.158941	-0.260799
C64	C	0.696306	0.341059	0.239201
C65	C	0.243227	-0.158939	-0.260797
C66	C	0.743227	0.341061	0.239203
C67	C	0.266686	-0.187710	-0.307771
C68	C	0.766686	0.312290	0.192229
C69	C	0.313594	-0.187714	-0.307747
C70	C	0.813594	0.312286	0.192253
N71	N	0.337055	-0.216480	-0.354723
N72	N	0.837055	0.283520	0.145277
C73	C	0.313599	-0.245250	-0.401705
C74	C	0.813599	0.254750	0.098295
C75	C	-0.113356	-0.187741	-0.307824
C76	C	0.386644	0.312259	0.192176
C77	C	-0.160273	-0.187745	-0.307830
C78	C	0.339727	0.312255	0.192170
C79	C	-0.160268	-0.245284	-0.401791
C80	C	0.339732	0.254716	0.098209
C81	C	-0.113349	-0.245282	-0.401781
C82	C	0.386651	0.254718	0.098219
C83	C	-0.089894	-0.216507	-0.354800
C84	C	0.410106	0.283493	0.145200
C85	C	0.412125	-0.245244	-0.401677
C86	C	0.912125	0.254756	0.098323
C87	C	0.459045	-0.245241	-0.401659
C88	C	0.959045	0.254759	0.098341
C89	C	0.459035	-0.187701	-0.307701
C90	C	0.959035	0.312299	0.192299
C91	C	0.412120	-0.187705	-0.307716
C92	C	0.912120	0.312295	0.192284
C93	C	0.388666	-0.216478	-0.354710
C94	C	0.888666	0.283522	0.145290
O95	O	0.337893	-0.163269	-0.267796
O96	O	0.837893	0.336731	0.232204
O97	O	0.337869	-0.269709	-0.441660
O98	O	0.837869	0.230291	0.058340
C99	C	0.125935	-0.245259	-0.401746
C100	C	0.625935	0.254741	0.098254
C101	C	0.102476	-0.216491	-0.354775
C102	C	0.602476	0.283509	0.145225
C103	C	0.125932	-0.187721	-0.307793
C104	C	0.625932	0.312279	0.192207
C105	C	0.055558	-0.216495	-0.354781
C106	C	0.555558	0.283505	0.145219
C107	C	0.032102	-0.245265	-0.401763
C108	C	0.532102	0.254735	0.098237
C109	C	0.055563	-0.274031	-0.448739
C110	C	0.555563	0.225969	0.051261
C111	C	0.102479	-0.274029	-0.448728
C112	C	0.602479	0.225971	0.051272
C113	C	0.102470	-0.158955	-0.260817
C114	C	0.602470	0.341045	0.239183
C115	C	0.055555	-0.158959	-0.260832
C116	C	0.555555	0.341041	0.239168
C117	C	0.032098	-0.187729	-0.307814
C118	C	0.532098	0.312271	0.192186
C119	C	0.649077	-0.333210	-0.354699
C120	C	1.149077	0.166790	0.145301
C121	C	0.649083	-0.383144	-0.354708
C122	C	1.149083	0.116856	0.145292
C123	C	0.677937	-0.692786	-0.307748
C124	C	1.177937	-0.192786	0.192252
C125	C	0.677992	-0.880459	-0.307777
C126	C	1.177992	-0.380459	0.192223
O127	O	0.702461	-0.904723	-0.267822
O128	O	1.202461	-0.404723	0.232178
N129	N	0.649251	-0.903929	-0.354791
N130	N	1.149251	-0.403929	0.145209
C131	C	0.620495	-0.880479	-0.401805
C132	C	1.120495	-0.380479	0.098195
O133	O	0.596054	-0.904748	-0.441799
O134	O	1.096054	-0.404748	0.058201
C135	C	0.620443	-0.692806	-0.401779
C136	C	1.120443	-0.192806	0.098221
C137	C	0.649183	-0.669339	-0.354757
C138	C	1.149183	-0.169339	0.145243
C139	C	0.706675	-0.669318	-0.260730
C140	C	1.206675	-0.169318	0.239270
C141	C	0.706659	-0.622403	-0.260721
C142	C	1.206659	-0.122403	0.239279
C143	C	0.677905	-0.598955	-0.307729
C144	C	1.177905	-0.098955	0.192271
C145	C	0.649167	-0.622423	-0.354747
C146	C	1.149167	-0.122423	0.145253
C147	C	0.591690	-0.669356	-0.448796
C148	C	1.091690	-0.169356	0.051204
C149	C	0.591680	-0.622435	-0.448787
C150	C	1.091680	-0.122435	0.051213
C151	C	0.620420	-0.598967	-0.401765
C152	C	1.120420	-0.098967	0.098235
C153	C	0.620397	-0.552060	-0.401746
C154	C	1.120397	-0.052060	0.098254
N155	N	0.649139	-0.528590	-0.354732
N156	N	1.149139	-0.028590	0.145268
C157	C	0.677893	-0.552038	-0.307724
C158	C	1.177893	-0.052038	0.192276
C159	C	0.620525	-0.979009	-0.401814
C160	C	1.120525	-0.479009	0.098186
C161	C	0.620537	-1.025927	-0.401819
C162	C	1.120537	-0.525927	0.098181
C163	C	0.678035	-1.025905	-0.307792
C164	C	1.178035	-0.525905	0.192208
C165	C	0.678020	-0.978986	-0.307783
C166	C	1.178020	-0.478986	0.192217
C167	C	0.649266	-0.955539	-0.354800
C168	C	1.149266	-0.455539	0.145200
C169	C	0.677857	-0.453512	-0.307707
C170	C	1.177857	0.046488	0.192293
C171	C	0.677837	-0.406592	-0.307699
C172	C	1.177837	0.093408	0.192301
C173	C	0.620341	-0.406619	-0.401729
C174	C	1.120341	0.093381	0.098271
C175	C	0.620359	-0.453534	-0.401734
C176	C	1.120359	0.046466	0.098266
C177	C	0.649121	-0.476980	-0.354721
C178	C	1.149121	0.023020	0.145279
O179	O	0.595945	-0.527768	-0.441686
O180	O	1.095945	-0.027768	0.058314
O181	O	0.702338	-0.527760	-0.267747
O182	O	1.202338	-0.027760	0.232253
C183	C	0.677953	-0.739702	-0.307758
C184	C	1.177953	-0.239702	0.192242
C185	C	0.649215	-0.763169	-0.354776
C186	C	1.149215	-0.263169	0.145224
C187	C	0.620460	-0.739722	-0.401785
C188	C	1.120460	-0.239722	0.098215
C189	C	0.649227	-0.810087	-0.354781
C190	C	1.149227	-0.310087	0.145219
C191	C	0.677981	-0.833535	-0.307773
C192	C	1.177981	-0.333535	0.192227
C193	C	0.706723	-0.810065	-0.260759
C194	C	1.206723	-0.310065	0.239241
C195	C	0.706707	-0.763149	-0.260749
C196	C	1.206707	-0.263149	0.239251
C197	C	0.591719	-0.763192	-0.448799
C198	C	1.091719	-0.263192	0.051201
C199	C	0.591737	-0.810107	-0.448804
C200	C	1.091737	-0.310107	0.051196
C201	C	0.620491	-0.833555	-0.401795
C202	C	1.120491	-0.333555	0.098205
C203	C	0.766336	-0.216507	-0.354789
C204	C	1.266336	0.283493	0.145211
C205	C	0.816270	-0.216515	-0.354812
C206	C	1.316270	0.283485	0.145188
C207	C	0.649184	-0.216462	-0.546688
C208	C	1.149184	0.283538	-0.046688
C209	C	0.649196	-0.216451	-0.628487
C210	C	1.149196	0.283549	-0.128487
C211	C	0.649251	-0.099309	-0.354788
C212	C	1.149251	0.400691	0.145212
C213	C	0.649291	-0.049375	-0.354811
C214	C	1.149291	0.450625	0.145189
C215	C	0.677927	-0.245134	-0.893550
C216	C	1.177927	0.254866	-0.393550
C217	C	0.677920	-0.245149	-0.816691
C218	C	1.177920	0.254851	-0.316691
C219	C	0.620499	-0.187681	-0.816674
C220	C	1.120499	0.312319	-0.316674
C221	C	0.620503	-0.187668	-0.893531
C222	C	1.120503	0.312332	-0.393531
C223	C	0.649220	-0.216394	-0.931967
C224	C	1.149220	0.283606	-0.431967
C225	C	0.649208	-0.216422	-0.778251
C226	C	1.149208	0.283578	-0.278251
C227	C	0.649201	-0.216439	-0.694917
C228	C	1.149201	0.283561	-0.194917
C229	C	0.649227	-0.216378	-1.015306
C230	C	1.149227	0.283622	-0.515306
C231	C	0.649157	-0.216481	-0.163529
C232	C	1.149157	0.283519	0.336471
C233	C	0.649233	-0.216365	-0.081731
C234	C	1.149233	0.283635	0.418269
H235	H	0.262321	-0.297451	-0.486945
H236	H	0.762321	0.202549	0.013055
Cl237	Cl	0.714014	-0.482979	-0.248602
Cl238	Cl	1.214014	0.017021	0.251398
H239	H	0.568284	-0.688456	-0.487084
H240	H	1.068284	-0.188456	0.012916
Cl241	Cl	0.742870	-0.839551	-0.201661
Cl242	Cl	1.242870	-0.339551	0.298339
H243	H	0.701423	-0.959881	-0.269494
H244	H	1.201423	-0.459881	0.230506
H245	H	0.597109	-0.959922	-0.440101
H246	H	1.097109	-0.459922	0.059899
Cl247	Cl	0.742799	-0.592908	-0.201614
Cl248	Cl	1.242799	-0.092908	0.298386
H249	H	0.036457	-0.297458	-0.486991
H250	H	0.536457	0.202542	0.013009
Cl251	Cl	0.714026	-0.281247	-0.941867
Cl252	Cl	1.214026	0.218753	-0.441867
Cl253	Cl	0.714009	-0.281282	-0.768398
Cl254	Cl	1.214009	0.218718	-0.268398
H255	H	0.478143	-0.268672	-0.439911
H256	H	0.978143	0.231328	0.060089
H257	H	0.701448	-1.045004	-0.269516
H258	H	1.201448	-0.545004	0.230484
Cl259	Cl	0.584400	-1.055423	-0.460927
Cl260	Cl	1.084400	-0.555423	0.039073
H261	H	0.121575	-0.297457	-0.486979
H262	H	0.621575	0.202543	0.013021
H263	H	0.597119	-0.164293	-0.785370
H264	H	1.097119	0.335707	-0.285370
H265	H	0.597125	-0.164264	-0.924811
H266	H	1.097125	0.335736	-0.424811
H267	H	0.393034	-0.268673	-0.439946
H268	H	0.893034	0.231327	0.060054
H269	H	0.568329	-0.829211	-0.487095
H270	H	1.068329	-0.329211	0.012905
Cl271	Cl	0.131951	-0.122782	-0.201749
Cl272	Cl	0.631951	0.377218	0.298251
H273	H	0.177217	-0.297454	-0.486967
H274	H	0.677217	0.202546	0.013033
H275	H	0.701241	-0.387486	-0.269405
H276	H	1.201241	0.112514	0.230595
H277	H	0.568304	-0.744105	-0.487080
H278	H	1.068304	-0.244105	0.012920
Cl279	Cl	0.555531	-0.592962	-0.507898
Cl280	Cl	1.055531	-0.092962	-0.007898
H281	H	-0.094252	-0.268709	-0.440032
H282	H	0.405748	0.231291	0.059968
H283	H	-0.179374	-0.268710	-0.440046
H284	H	0.320626	0.231290	0.059954
Cl285	Cl	0.382627	-0.151543	-0.248651
Cl286	Cl	0.882627	0.348457	0.251349
H287	H	-0.179370	-0.164321	-0.269572
H288	H	0.320630	0.335679	0.230428
H289	H	0.036458	-0.135531	-0.222574
H290	H	0.536458	0.364469	0.277426
Cl291	Cl	0.584219	-0.483037	-0.460834
Cl292	Cl	1.084219	0.016963	0.039166
H293	H	-0.094262	-0.164309	-0.269563
H294	H	0.405738	0.335691	0.230437
Cl295	Cl	0.742842	-0.733654	-0.201635
Cl296	Cl	1.242842	-0.233654	0.298365
Cl297	Cl	0.166826	-0.122766	-0.201747
Cl298	Cl	0.666826	0.377234	0.298253
Cl299	Cl	0.272711	-0.122762	-0.201732
Cl300	Cl	0.772711	0.377238	0.298268
Cl301	Cl	0.742828	-0.698787	-0.201625
Cl302	Cl	1.242828	-0.198787	0.298375
H303	H	0.596929	-0.387520	-0.440001
H304	H	1.096929	0.112480	0.059999
Cl305	Cl	0.488532	-0.151534	-0.248642
Cl306	Cl	0.988532	0.348466	0.251358
