data_functionalizedCrystal
_audit_creation_method	'MofGen! by Chris Wilmer'
_symmetry_space_group_name_H-M	'P1'
_symmetry_Int_Tables_number	1
_symmetry_cell_setting	triclinic
loop_
_symmetry_equiv_pos_as_xyz
  x,y,z
_cell_length_a	19.805407
_cell_length_b	19.077068
_cell_length_c	19.805398
_cell_angle_alpha	92.268147
_cell_angle_beta	89.986879
_cell_angle_gamma	92.327086
loop_
_atom_site_label
_atom_site_type_symbol
_atom_site_fract_x
_atom_site_fract_y
_atom_site_fract_z
Zn1	Zn	1.023860	-0.280211	-0.393534
Zn2	Zn	1.273860	-0.030211	-0.143534
Zn3	Zn	1.523860	0.219789	0.106466
Zn4	Zn	1.773860	0.469789	0.356466
Zn5	Zn	1.019237	-0.397912	-0.284888
Zn6	Zn	1.269237	-0.147912	-0.034888
Zn7	Zn	1.519237	0.102088	0.215112
Zn8	Zn	1.769237	0.352088	0.465112
Zn9	Zn	0.910687	-0.280232	-0.280359
Zn10	Zn	1.160687	-0.030232	-0.030359
Zn11	Zn	1.410687	0.219768	0.219641
Zn12	Zn	1.660687	0.469768	0.469641
Zn13	Zn	0.906089	-0.397872	-0.398033
Zn14	Zn	1.156089	-0.147872	-0.148033
Zn15	Zn	1.406089	0.102128	0.101967
Zn16	Zn	1.656089	0.352128	0.351967
O17	O	0.964968	-0.339057	-0.339203
O18	O	1.214968	-0.089057	-0.089203
O19	O	1.464968	0.160943	0.160797
O20	O	1.714968	0.410943	0.410797
O21	O	1.117963	-0.295832	-0.379134
O22	O	1.367963	-0.045832	-0.129134
O23	O	1.617963	0.204168	0.120866
O24	O	1.867963	0.454168	0.370866
O25	O	1.004827	-0.382327	-0.189571
O26	O	1.254827	-0.132327	0.060429
O27	O	1.504827	0.117673	0.310429
O28	O	1.754827	0.367673	0.560429
O29	O	0.929558	-0.181738	-0.291594
O30	O	1.179558	0.068262	-0.041594
O31	O	1.429558	0.318262	0.208406
O32	O	1.679558	0.568262	0.458406
O33	O	1.114567	-0.382306	-0.299312
O34	O	1.364567	-0.132306	-0.049312
O35	O	1.614567	0.117694	0.200688
O36	O	1.864567	0.367694	0.450688
O37	O	1.012706	-0.181722	-0.374742
O38	O	1.262706	0.068278	-0.124742
O39	O	1.512706	0.318278	0.125258
O40	O	1.762706	0.568278	0.375258
O41	O	0.925075	-0.295868	-0.186244
O42	O	1.175075	-0.045868	0.063756
O43	O	1.425075	0.204132	0.313756
O44	O	1.675075	0.454132	0.563756
O45	O	0.815360	-0.295830	-0.295956
O46	O	1.065360	-0.045830	-0.045956
O47	O	1.315360	0.204170	0.204044
O48	O	1.565360	0.454170	0.454044
O49	O	0.921723	-0.382239	-0.492152
O50	O	1.171723	-0.132239	-0.242152
O51	O	1.421723	0.117761	0.007848
O52	O	1.671723	0.367761	0.257848
O53	O	0.811983	-0.382260	-0.382411
O54	O	1.061983	-0.132260	-0.132411
O55	O	1.311983	0.117740	0.117589
O56	O	1.561983	0.367740	0.367589
O57	O	1.008248	-0.295793	-0.488846
O58	O	1.258248	-0.045793	-0.238846
O59	O	1.508248	0.204207	0.011154
O60	O	1.758248	0.454207	0.261154
O61	O	1.000370	-0.496398	-0.303675
O62	O	1.250370	-0.246398	-0.053675
O63	O	1.500370	0.003602	0.196325
O64	O	1.750370	0.253602	0.446325
O65	O	0.917240	-0.496369	-0.386802
O66	O	1.167240	-0.246369	-0.136802
O67	O	1.417240	0.003631	0.113198
O68	O	1.667240	0.253631	0.363198
C69	C	0.789113	-0.339043	-0.339181
C70	C	1.039113	-0.089043	-0.089181
C71	C	1.289113	0.160957	0.160819
C72	C	1.539113	0.410957	0.410819
C73	C	0.713880	-0.339055	-0.339188
C74	C	0.963880	-0.089055	-0.089188
C75	C	1.213880	0.160945	0.160812
C76	C	1.463880	0.410945	0.410812
C77	C	0.676793	-0.384126	-0.384137
C78	C	0.926793	-0.134126	-0.134137
C79	C	1.176793	0.115874	0.115863
C80	C	1.426793	0.365874	0.365863
C81	C	0.606104	-0.384127	-0.384147
C82	C	0.856104	-0.134127	-0.134147
C83	C	1.106104	0.115873	0.115853
C84	C	1.356104	0.365873	0.365853
C85	C	0.572505	-0.339060	-0.339203
C86	C	0.822505	-0.089060	-0.089203
C87	C	1.072505	0.160940	0.160797
C88	C	1.322505	0.410940	0.410797
C89	C	0.609597	-0.293983	-0.294252
C90	C	0.859597	-0.043983	-0.044252
C91	C	1.109597	0.206017	0.205748
C92	C	1.359597	0.456017	0.455748
C93	C	0.680285	-0.293979	-0.294246
C94	C	0.930285	-0.043979	-0.044246
C95	C	1.180285	0.206021	0.205754
C96	C	1.430285	0.456021	0.455754
C97	C	0.324524	-0.293999	-0.294275
C98	C	0.574524	-0.043999	-0.044275
C99	C	0.824524	0.206001	0.205725
C100	C	1.074524	0.456001	0.455725
C101	C	0.253831	-0.294008	-0.294283
C102	C	0.503831	-0.044008	-0.044283
C103	C	0.753831	0.205992	0.205717
C104	C	1.003831	0.455992	0.455717
C105	C	0.250343	-0.384147	-0.384176
C106	C	0.500343	-0.134147	-0.134176
C107	C	0.750343	0.115853	0.115824
C108	C	1.000343	0.365853	0.365824
C109	C	0.321030	-0.384143	-0.384170
C110	C	0.571030	-0.134143	-0.134170
C111	C	0.821030	0.115857	0.115830
C112	C	1.071030	0.365857	0.365830
C113	C	0.358117	-0.339064	-0.339221
C114	C	0.608117	-0.089064	-0.089221
C115	C	0.858117	0.160936	0.160779
C116	C	1.108117	0.410936	0.410779
C117	C	0.434766	-0.339062	-0.339212
C118	C	0.684766	-0.089062	-0.089212
C119	C	0.934766	0.160938	0.160788
C120	C	1.184766	0.410938	0.410788
C121	C	0.495857	-0.339065	-0.339209
C122	C	0.745857	-0.089065	-0.089209
C123	C	0.995857	0.160935	0.160791
C124	C	1.245857	0.410935	0.410791
C125	C	0.957823	-0.521921	-0.346233
C126	C	1.207823	-0.271921	-0.096233
C127	C	1.457823	-0.021921	0.153767
C128	C	1.707823	0.228079	0.403767
C129	C	0.954828	-0.600151	-0.349263
C130	C	1.204828	-0.350151	-0.099263
C131	C	1.454828	-0.100151	0.150737
C132	C	1.704828	0.149849	0.400737
C133	C	0.996735	-0.636895	-0.307442
C134	C	1.246735	-0.386895	-0.057442
C135	C	1.496735	-0.136895	0.192558
C136	C	1.746735	0.113105	0.442558
C137	C	0.993923	-0.710401	-0.310296
C138	C	1.243923	-0.460401	-0.060296
C139	C	1.493923	-0.210401	0.189704
C140	C	1.743923	0.039599	0.439704
C141	C	0.949198	-0.747160	-0.354968
C142	C	1.199198	-0.497160	-0.104968
C143	C	1.449198	-0.247160	0.145032
C144	C	1.699198	0.002840	0.395032
C145	C	0.907289	-0.710411	-0.396793
C146	C	1.157289	-0.460411	-0.146793
C147	C	1.407289	-0.210411	0.103207
C148	C	1.657289	0.039589	0.353207
C149	C	0.910106	-0.636907	-0.393942
C150	C	1.160106	-0.386907	-0.143942
C151	C	1.410106	-0.136907	0.106058
C152	C	1.660106	0.113093	0.356058
C153	C	0.936132	-0.966995	-0.368134
C154	C	1.186132	-0.716995	-0.118134
C155	C	1.436132	-0.466995	0.131866
C156	C	1.686132	-0.216995	0.381866
C157	C	0.933317	-1.040504	-0.370981
C158	C	1.183317	-0.790504	-0.120981
C159	C	1.433317	-0.540504	0.129019
C160	C	1.683317	-0.290504	0.379019
C161	C	1.019952	-1.040489	-0.284485
C162	C	1.269952	-0.790489	-0.034485
C163	C	1.519952	-0.540489	0.215515
C164	C	1.769952	-0.290489	0.465515
C165	C	1.022762	-0.966983	-0.281635
C166	C	1.272762	-0.716983	-0.031635
C167	C	1.522762	-0.466983	0.218365
C168	C	1.772762	-0.216983	0.468365
C169	C	0.980855	-0.930240	-0.323462
C170	C	1.230855	-0.680240	-0.073462
C171	C	1.480855	-0.430240	0.176538
C172	C	1.730855	-0.180240	0.426538
N173	N	0.946320	-0.822295	-0.357884
N174	N	1.196320	-0.572295	-0.107884
N175	N	1.446320	-0.322295	0.142116
N176	N	1.696320	-0.072295	0.392116
N177	N	0.983737	-0.855107	-0.320549
N178	N	1.233737	-0.605107	-0.070549
N179	N	1.483737	-0.355107	0.179451
N180	N	1.733737	-0.105107	0.429451
C181	C	1.141510	-0.339071	-0.339226
C182	C	1.391510	-0.089071	-0.089226
C183	C	1.641510	0.160929	0.160774
C184	C	1.891510	0.410929	0.410774
C185	C	1.216742	-0.339077	-0.339236
C186	C	1.466742	-0.089077	-0.089236
C187	C	1.716742	0.160923	0.160764
C188	C	1.966742	0.410923	0.410764
C189	C	0.964988	-0.339009	-0.515744
C190	C	1.214988	-0.089009	-0.265744
C191	C	1.464988	0.160991	-0.015744
C192	C	1.714988	0.410991	0.234256
C193	C	0.964997	-0.338989	-0.590975
C194	C	1.214997	-0.088989	-0.340975
C195	C	1.464997	0.161011	-0.090975
C196	C	1.714997	0.411011	0.159025
C197	C	0.972160	-0.155479	-0.332161
C198	C	1.222160	0.094521	-0.082161
C199	C	1.472160	0.344521	0.167839
C200	C	1.722160	0.594521	0.417839
C201	C	0.975225	-0.077249	-0.329160
C202	C	1.225225	0.172751	-0.079160
C203	C	1.475225	0.422751	0.170840
C204	C	1.725225	0.672751	0.420840
C205	C	1.006635	-0.383896	-1.054492
C206	C	1.256635	-0.133896	-0.804492
C207	C	1.506635	0.116104	-0.554492
C208	C	1.756635	0.366104	-0.304492
C209	C	1.006615	-0.383915	-0.983805
C210	C	1.256615	-0.133915	-0.733805
C211	C	1.506615	0.116085	-0.483805
C212	C	1.756615	0.366085	-0.233805
C213	C	0.965084	-0.338910	-0.946734
C214	C	1.215084	-0.088910	-0.696734
C215	C	1.465084	0.161090	-0.446734
C216	C	1.715084	0.411090	-0.196734
C217	C	0.923564	-0.293887	-0.980355
C218	C	1.173564	-0.043887	-0.730355
C219	C	1.423564	0.206113	-0.480355
C220	C	1.673564	0.456113	-0.230355
C221	C	0.923581	-0.293872	-1.051042
C222	C	1.173581	-0.043872	-0.801042
C223	C	1.423581	0.206128	-0.551042
C224	C	1.673581	0.456128	-0.301042
C225	C	0.923497	-0.293947	-0.695284
C226	C	1.173497	-0.043947	-0.445284
C227	C	1.423497	0.206053	-0.195284
C228	C	1.673497	0.456053	0.054716
C229	C	0.923485	-0.293964	-0.624593
C230	C	1.173485	-0.043964	-0.374593
C231	C	1.423485	0.206036	-0.124593
C232	C	1.673485	0.456036	0.125407
C233	C	1.006531	-0.383990	-0.628047
C234	C	1.256531	-0.133990	-0.378047
C235	C	1.506531	0.116010	-0.128047
C236	C	1.756531	0.366010	0.121953
C237	C	1.006547	-0.383975	-0.698734
C238	C	1.256547	-0.133975	-0.448734
C239	C	1.506547	0.116025	-0.198734
C240	C	1.756547	0.366025	0.051266
C241	C	0.965026	-0.338956	-0.732349
C242	C	1.215026	-0.088956	-0.482349
C243	C	1.465026	0.161044	-0.232349
C244	C	1.715026	0.411044	0.017651
C245	C	0.965046	-0.338937	-0.808996
C246	C	1.215046	-0.088937	-0.558996
C247	C	1.465046	0.161063	-0.308996
C248	C	1.715046	0.411063	-0.058996
C249	C	0.965066	-0.338925	-0.870088
C250	C	1.215066	-0.088925	-0.620088
C251	C	1.465066	0.161075	-0.370088
C252	C	1.715066	0.411075	-0.120088
C253	C	0.964989	-0.339053	-0.163347
C254	C	1.214989	-0.089053	0.086653
C255	C	1.464989	0.160947	0.336653
C256	C	1.714989	0.410947	0.586653
C257	C	0.965120	-0.338875	-0.088109
C258	C	1.215120	-0.088875	0.161891
C259	C	1.465120	0.161125	0.411891
C260	C	1.715120	0.411125	0.661891
H261	H	0.575910	-0.420830	-0.420749
H262	H	0.825910	-0.170830	-0.170749
H263	H	1.075910	0.079170	0.079251
H264	H	1.325910	0.329170	0.329251
F265	F	0.865504	-0.597801	-0.438455
F266	F	1.115504	-0.347801	-0.188455
F267	F	1.365504	-0.097801	0.061545
F268	F	1.615504	0.152199	0.311545
F269	F	0.879280	-0.246058	-0.731052
F270	F	1.129280	0.003942	-0.481052
F271	F	1.379280	0.253942	-0.231052
F272	F	1.629280	0.503942	0.018948
H273	H	1.054071	-1.070413	-0.250432
H274	H	1.304071	-0.820413	-0.000432
H275	H	1.554071	-0.570413	0.249568
H276	H	1.804071	-0.320413	0.499568
F277	F	0.363985	-0.246020	-0.246438
F278	F	0.613985	0.003980	0.003562
F279	F	0.863985	0.253980	0.253562
F280	F	1.113985	0.503980	0.503562
F281	F	0.210867	-0.432124	-0.432015
F282	F	0.460867	-0.182124	-0.182015
F283	F	0.710867	0.067876	0.067985
F284	F	0.960867	0.317876	0.317985
H285	H	1.059180	-0.937055	-0.245260
H286	H	1.309180	-0.687055	0.004740
H287	H	1.559180	-0.437055	0.254740
H288	H	1.809180	-0.187055	0.504740
F289	F	0.573837	-0.246015	-0.246423
F290	F	0.823837	0.003985	0.003577
F291	F	1.073837	0.253985	0.253577
F292	F	1.323837	0.503985	0.503577
H293	H	1.040338	-0.420650	-0.600669
H294	H	1.290338	-0.170650	-0.350669
H295	H	1.540338	0.079350	-0.100669
H296	H	1.790338	0.329350	0.149331
F297	F	1.050843	-0.431794	-1.093939
F298	F	1.300843	-0.181794	-0.843939
F299	F	1.550843	0.068206	-0.593939
F300	F	1.800843	0.318206	-0.343939
H301	H	0.889746	-0.257246	-0.950167
H302	H	1.139746	-0.007246	-0.700167
H303	H	1.389746	0.242754	-0.450167
H304	H	1.639746	0.492754	-0.200167
F305	F	1.038529	-0.749504	-0.265787
F306	F	1.288529	-0.499504	-0.015787
F307	F	1.538529	-0.249504	0.234213
F308	F	1.788529	0.000496	0.484213
F309	F	1.050752	-0.431875	-0.738183
F310	F	1.300752	-0.181875	-0.488183
F311	F	1.550752	0.068125	-0.238183
F312	F	1.800752	0.318125	0.011817
F313	F	0.218073	-0.246038	-0.246446
F314	F	0.468073	0.003962	0.003554
F315	F	0.718073	0.253962	0.253554
F316	F	0.968073	0.503962	0.503554
H317	H	0.710481	-0.257273	-0.257647
H318	H	0.960481	-0.007273	-0.007647
H319	H	1.210481	0.242727	0.242353
H320	H	1.460481	0.492727	0.492353
H321	H	1.033152	-0.606970	-0.271063
H322	H	1.283152	-0.356970	-0.021063
H323	H	1.533152	-0.106970	0.228937
H324	H	1.783152	0.143030	0.478937
F325	F	1.050802	-0.431831	-0.948031
F326	F	1.300802	-0.181831	-0.698031
F327	F	1.550802	0.068169	-0.448031
F328	F	1.800802	0.318169	-0.198031
F329	F	0.885706	-1.079625	-0.418521
F330	F	1.135706	-0.829625	-0.168521
F331	F	1.385706	-0.579625	0.081479
F332	F	1.635706	-0.329625	0.331479
F333	F	0.891530	-0.927900	-0.412651
F334	F	1.141530	-0.677900	-0.162651
F335	F	1.391530	-0.427900	0.087349
F336	F	1.641530	-0.177900	0.337349
F337	F	0.859694	-0.749535	-0.444339
F338	F	1.109694	-0.499535	-0.194339
F339	F	1.359694	-0.249535	0.055661
F340	F	1.609694	0.000465	0.305661
F341	F	0.879279	-0.246061	-0.585141
F342	F	1.129279	0.003939	-0.335141
F343	F	1.379279	0.253939	-0.085141
F344	F	1.629279	0.503939	0.164859
H345	H	0.889776	-0.257211	-1.078411
H346	H	1.139776	-0.007211	-0.828411
H347	H	1.389776	0.242789	-0.578411
H348	H	1.639776	0.492789	-0.328411
H349	H	0.348383	-0.420844	-0.420766
H350	H	0.598383	-0.170844	-0.170766
H351	H	0.848383	0.079156	0.079234
H352	H	1.098383	0.329156	0.329234
F353	F	0.712545	-0.432097	-0.431970
F354	F	0.962545	-0.182097	-0.181970
F355	F	1.212545	0.067903	0.068030
F356	F	1.462545	0.317903	0.318030
