data_functionalizedCrystal
_audit_creation_method	'MofGen! by Chris Wilmer'
_symmetry_space_group_name_H-M	'P1'
_symmetry_Int_Tables_number	1
_symmetry_cell_setting	triclinic
loop_
_symmetry_equiv_pos_as_xyz
  x,y,z
_cell_length_a	17.077404
_cell_length_b	19.120900
_cell_length_c	17.077396
_cell_angle_alpha	92.471365
_cell_angle_beta	90.021457
_cell_angle_gamma	92.472284
loop_
_atom_site_label
_atom_site_type_symbol
_atom_site_fract_x
_atom_site_fract_y
_atom_site_fract_z
Zn1	Zn	-1.186663	0.279647	-0.430533
Zn2	Zn	-0.686663	0.779647	0.069467
Zn3	Zn	-1.180945	0.397111	-0.293659
Zn4	Zn	-0.680945	0.897111	0.206341
Zn5	Zn	-1.055394	0.279669	-0.299275
Zn6	Zn	-0.555394	0.779669	0.200725
Zn7	Zn	-1.049740	0.397067	-0.424880
Zn8	Zn	-0.549740	0.897067	0.075120
O9	O	-1.118186	0.338374	-0.362087
O10	O	-0.618186	0.838374	0.137913
O11	O	-1.295751	0.295238	-0.412391
O12	O	-0.795751	0.795238	0.087609
O13	O	-1.164264	0.381560	-0.184555
O14	O	-0.664264	0.881560	0.315445
O15	O	-1.077566	0.181376	-0.321403
O16	O	-0.577566	0.681376	0.178597
O17	O	-1.291550	0.381538	-0.311831
O18	O	-0.791550	0.881538	0.188169
O19	O	-1.174009	0.181360	-0.417837
O20	O	-0.674009	0.681360	0.082163
O21	O	-1.072022	0.295276	-0.188682
O22	O	-0.572022	0.795276	0.311318
O23	O	-0.944798	0.295233	-0.315922
O24	O	-0.444798	0.795233	0.184078
O25	O	-1.067930	0.381463	-0.535478
O26	O	-0.567930	0.881463	-0.035478
O27	O	-0.940644	0.381485	-0.408203
O28	O	-0.440644	0.881485	0.091797
O29	O	-1.168527	0.295195	-0.539631
O30	O	-0.668527	0.795195	-0.039631
O31	O	-1.158782	0.495396	-0.306349
O32	O	-0.658782	0.995396	0.193651
O33	O	-1.062386	0.495363	-0.402757
O34	O	-0.562386	0.995363	0.097243
C35	C	-0.914239	0.338357	-0.362059
C36	C	-0.414239	0.838357	0.137941
C37	C	-0.826988	0.338367	-0.362065
C38	C	-0.326988	0.838367	0.137935
C39	C	-0.783853	0.383346	-0.410030
C40	C	-0.283853	0.883346	0.089970
C41	C	-0.701872	0.383346	-0.410040
C42	C	-0.201872	0.883346	0.089960
C43	C	-0.663029	0.338371	-0.362079
C44	C	-0.163029	0.838371	0.137921
C45	C	-0.706170	0.293387	-0.314112
C46	C	-0.206170	0.793387	0.185888
C47	C	-0.788150	0.293384	-0.314107
C48	C	-0.288150	0.793384	0.185893
C49	C	-0.535300	0.293398	-0.314124
C50	C	-0.035300	0.793398	0.185876
C51	C	-0.453315	0.293402	-0.314128
C52	C	0.046685	0.793402	0.185872
C53	C	-0.449022	0.383360	-0.410058
C54	C	0.050978	0.883360	0.089942
C55	C	-0.531002	0.383356	-0.410053
C56	C	-0.031002	0.883356	0.089947
C57	C	-0.574138	0.338374	-0.362084
C58	C	-0.074138	0.838374	0.137916
C59	C	-1.109371	0.520865	-0.353347
C60	C	-0.609371	1.020865	0.146653
C61	C	-1.105672	0.598936	-0.349635
C62	C	-0.605672	1.098936	0.150365
C63	C	-1.118236	0.338322	-0.566833
C64	C	-0.618236	0.838322	-0.066833
C65	C	-1.118257	0.338300	-0.654084
C66	C	-0.618257	0.838300	-0.154084
C67	C	-0.322929	0.338386	-0.362107
C68	C	0.177071	0.838386	0.137893
C69	C	-0.410179	0.338380	-0.362094
C70	C	0.089821	0.838380	0.137906
C71	C	-1.082213	1.040491	-0.326144
C72	C	-0.582213	1.540491	0.173856
C73	C	-1.085690	0.967135	-0.329632
C74	C	-0.585690	1.467135	0.170368
C75	C	-1.137608	0.930389	-0.381624
C76	C	-0.637608	1.430389	0.118376
C77	C	-1.186045	0.967003	-0.430136
C78	C	-0.686045	1.467003	0.069864
C79	C	-1.182563	1.040357	-0.426651
C80	C	-0.682563	1.540357	0.073349
C81	C	-1.150627	0.708904	-0.394663
C82	C	-0.650627	1.208904	0.105337
C83	C	-1.154107	0.635544	-0.398142
C84	C	-0.654107	1.135544	0.101858
C85	C	-1.053751	0.635681	-0.297638
C86	C	-0.553751	1.135681	0.202362
C87	C	-1.050277	0.709037	-0.294155
C88	C	-0.550277	1.209037	0.205845
C89	C	-1.098712	0.745644	-0.342670
C90	C	-0.598712	1.245644	0.157330
C91	C	-1.141165	0.855408	-0.385188
C92	C	-0.641165	1.355408	0.114812
C93	C	-1.095150	0.820624	-0.339109
C94	C	-0.595150	1.320624	0.160891
C95	C	-1.127009	1.155170	-0.370884
C96	C	-0.627009	1.655170	0.129116
C97	C	-1.130648	1.077099	-0.374651
C98	C	-0.630648	1.577099	0.125349
C99	C	-1.170640	0.293376	-0.697238
C100	C	-0.670640	0.793376	-0.197238
C101	C	-1.170650	0.293353	-0.779220
C102	C	-0.670650	0.793353	-0.279220
C103	C	-1.118281	0.338257	-0.818046
C104	C	-0.618281	0.838257	-0.318046
C105	C	-1.065893	0.383183	-0.774886
C106	C	-0.565893	0.883183	-0.274886
C107	C	-1.065879	0.383202	-0.692906
C108	C	-0.565879	0.883202	-0.192906
C109	C	-1.065927	0.383140	-0.945758
C110	C	-0.565927	0.883140	-0.445758
C111	C	-1.065941	0.383122	-1.027744
C112	C	-0.565941	0.883122	-0.527744
C113	C	-1.170698	0.293292	-1.032072
C114	C	-0.670698	0.793292	-0.532072
C115	C	-1.170684	0.293311	-0.950092
C116	C	-0.670684	0.793311	-0.450092
C117	C	-1.118296	0.338237	-0.906938
C118	C	-0.618296	0.838237	-0.406938
C119	C	-1.118184	0.338375	-0.158139
C120	C	-0.618184	0.838375	0.341861
C121	C	-1.118324	0.338199	-0.070898
C122	C	-0.618324	0.838199	0.429102
H123	H	-1.039939	1.070404	-0.283804
H124	H	-0.539939	1.570404	0.216196
O125	O	-1.033462	0.927647	-0.277302
O126	O	-0.533462	1.427647	0.222698
H127	H	-0.996788	0.965522	-0.240552
H128	H	-0.496788	1.465522	0.259448
H129	H	-1.008002	0.738950	-0.251816
H130	H	-0.508002	1.238950	0.248184
O131	O	-1.001506	0.596200	-0.245319
O132	O	-0.501506	1.096200	0.254681
H133	H	-1.012642	0.539019	-0.256478
H134	H	-0.512642	1.039019	0.243522
O135	O	-0.664288	0.244874	-0.262377
O136	O	-0.164288	0.744874	0.237623
H137	H	-0.679434	0.256851	-0.200177
H138	H	-0.179434	0.756851	0.299823
H139	H	-0.666754	0.419972	-0.449098
H140	H	-0.166754	0.919972	0.050902
H141	H	-1.228314	0.937081	-0.472473
H142	H	-0.728314	1.437081	0.027527
H143	H	-0.413897	0.419984	-0.449118
H144	H	0.086103	0.919984	0.050882
O145	O	-1.210098	0.595907	-0.454229
O146	O	-0.710098	1.095907	0.045771
H147	H	-1.243186	0.633685	-0.487387
H148	H	-0.743186	1.133685	0.012613
H149	H	-1.023255	0.419713	-0.910625
H150	H	-0.523255	0.919713	-0.410625
O151	O	-0.411398	0.244903	-0.262405
O152	O	0.088602	0.744903	0.237595
H153	H	-0.429775	0.189786	-0.278609
H154	H	0.070225	0.689786	0.221391
H155	H	-0.570419	0.256762	-0.275070
H156	H	-0.070419	0.756762	0.224930
O157	O	-0.834681	0.244873	-0.262373
O158	O	-0.334681	0.744873	0.237627
H159	H	-0.870504	0.276264	-0.220879
H160	H	-0.370504	0.776264	0.279121
H161	H	-1.221998	1.070163	-0.466157
H162	H	-0.721998	1.570163	0.033843
H163	H	-1.023250	0.419742	-0.806504
H164	H	-0.523250	0.919742	-0.306504
H165	H	-1.190075	0.738700	-0.434158
H166	H	-0.690075	1.238700	0.065842
O167	O	-1.009368	0.431647	-0.646362
O168	O	-0.509368	0.931647	-0.146362
H169	H	-1.020157	0.486775	-0.659443
H170	H	-0.520157	0.986775	-0.159443
O171	O	-0.825748	0.431852	-0.461763
O172	O	-0.325748	0.931852	0.038237
H173	H	-0.781976	0.463122	-0.495125
H174	H	-0.281976	0.963122	0.004875
O175	O	-0.572902	0.431861	-0.461783
O176	O	-0.072902	0.931861	0.038217
H177	H	-0.529137	0.463135	-0.495146
H178	H	-0.029137	0.963135	0.004854
O179	O	-1.039165	0.860257	-0.283025
O180	O	-0.539165	1.360257	0.216975
H181	H	-0.997626	0.893690	-0.316530
H182	H	-0.497626	1.393690	0.183470
H183	H	-1.213307	0.256774	-0.814353
H184	H	-0.713307	0.756774	-0.314353
H185	H	-1.183439	0.825484	-0.427520
H186	H	-0.683439	1.325484	0.072480
H187	H	-1.213287	0.256812	-0.665632
H188	H	-0.713287	0.756812	-0.165632
H189	H	-1.213332	0.256750	-0.918482
H190	H	-0.713332	0.756750	-0.418482
H191	H	-1.213352	0.256710	-1.067212
H192	H	-0.713352	0.756710	-0.567212
H193	H	-1.023296	0.419686	-1.059353
H194	H	-0.523296	0.919686	-0.559353
