data_functionalizedCrystal
_audit_creation_method	'MofGen! by Chris Wilmer'
_symmetry_space_group_name_H-M	'P1'
_symmetry_Int_Tables_number	1
_symmetry_cell_setting	triclinic
loop_
_symmetry_equiv_pos_as_xyz
  x,y,z
_cell_length_a	12.645330
_cell_length_b	12.645331
_cell_length_c	12.645323
_cell_angle_alpha	90.018047
_cell_angle_beta	89.975130
_cell_angle_gamma	89.981279
loop_
_atom_site_label
_atom_site_type_symbol
_atom_site_fract_x
_atom_site_fract_y
_atom_site_fract_z
Zn1	Zn	-0.422002	-1.620731	-0.599315
Zn2	Zn	-0.599290	-1.620613	-0.422055
Zn3	Zn	-0.422044	-1.443446	-0.422074
Zn4	Zn	-0.599227	-1.443428	-0.599285
O5	O	-0.510641	-1.532054	-0.510683
O6	O	-0.445528	-1.769063	-0.575806
O7	O	-0.575822	-1.597069	-0.273711
O8	O	-0.273691	-1.467020	-0.445606
O9	O	-0.575781	-1.768976	-0.445574
O10	O	-0.273660	-1.597271	-0.575824
O11	O	-0.445600	-1.466905	-0.273724
O12	O	-0.445539	-1.295096	-0.445577
O13	O	-0.575674	-1.466989	-0.747637
O14	O	-0.575715	-1.295083	-0.575773
O15	O	-0.445467	-1.597253	-0.747659
O16	O	-0.747629	-1.597052	-0.445545
O17	O	-0.747583	-1.466874	-0.575755
C18	C	-0.510625	-1.256625	-0.510674
C19	C	-0.510644	-1.138795	-0.510696
C20	C	-0.786070	-1.531977	-0.510668
C21	C	-0.903900	-1.532041	-0.510697
C22	C	-0.592678	-1.093940	-0.592482
C23	C	-0.593016	-0.971380	-0.592239
C24	C	-0.540485	-0.970841	-0.398839
C25	C	-0.541063	-1.093439	-0.399313
C26	C	-0.398599	-1.093648	-0.539788
C27	C	-0.399220	-0.971043	-0.542251
C28	C	-1.071479	-1.450484	-0.592864
C29	C	-0.948920	-1.450067	-0.592600
C30	C	-0.948495	-1.501796	-0.398977
C31	C	-1.071094	-1.501298	-0.399476
C32	C	-1.070988	-1.644342	-0.539343
C33	C	-0.948381	-1.643654	-0.541786
C34	C	-0.234135	-1.532161	-0.510721
C35	C	-0.116305	-1.532206	-0.510737
C36	C	-0.510559	-1.532132	-0.787188
C37	C	-0.510524	-1.532166	-0.905018
C38	C	-0.510660	-0.808560	-0.510691
C39	C	-0.510675	-0.926390	-0.510695
C40	C	-0.592051	-1.449964	-1.072568
C41	C	-0.592454	-1.450179	-0.950008
C42	C	-0.540840	-1.643865	-0.949529
C43	C	-0.541352	-1.643414	-1.072127
C44	C	-0.398225	-1.503724	-1.072218
C45	C	-0.398897	-1.501232	-0.949612
C46	C	-0.510646	-1.532038	-0.235253
C47	C	-0.510382	-1.532210	-0.117423
H48	H	-0.574420	-0.941327	-0.675165
H49	H	-0.483238	-1.706788	-0.920389
Br50	Br	-1.120502	-1.481727	-0.731395
H51	H	-0.337378	-1.563628	-1.101227
Br52	Br	-0.675484	-0.919618	-0.357146
H53	H	-0.376034	-1.419031	-0.920519
Br54	Br	-1.119322	-1.745827	-0.439662
Br55	Br	-0.353198	-1.145240	-0.673445
Br56	Br	-0.292115	-1.593793	-0.898585
H57	H	-0.370590	-1.423691	-1.103129
Br58	Br	-0.900186	-1.311505	-0.561023
Br59	Br	-0.899799	-1.681675	-0.678826
Br60	Br	-1.118923	-1.364674	-0.359083
H61	H	-0.376731	-0.941995	-0.624571
Br62	Br	-1.120529	-1.596188	-0.294003
H63	H	-0.334876	-0.940419	-0.487071
H64	H	-0.919336	-1.559431	-0.336114
H65	H	-0.675602	-1.468983	-0.920693
Br66	Br	-0.445772	-1.142899	-0.294232
H67	H	-0.573262	-1.366889	-1.102049
H68	H	-0.482570	-0.941698	-0.336228
Br69	Br	-0.296740	-1.141988	-0.440509
H70	H	-0.917885	-1.420678	-0.374305
H71	H	-0.574295	-1.123458	-0.675666
H72	H	-0.623341	-1.667559	-1.100736
H73	H	-0.918766	-1.468990	-0.675440
H74	H	-1.101831	-1.671932	-0.619423
H75	H	-0.917729	-1.707747	-0.486324
H76	H	-0.484450	-1.706772	-1.101801
Br77	Br	-1.123012	-1.312794	-0.561711
Br78	Br	-0.729754	-1.480926	-1.124020
Br79	Br	-0.560827	-1.312127	-0.899841
H80	H	-0.675232	-1.124717	-0.573415
Br81	Br	-0.731421	-0.922437	-0.560105
Br82	Br	-0.677556	-1.141055	-0.358354
H83	H	-0.621970	-1.668424	-0.918838
