data_functionalizedCrystal
_audit_creation_method	'MofGen! by Chris Wilmer'
_symmetry_space_group_name_H-M	'P1'
_symmetry_Int_Tables_number	1
_symmetry_cell_setting	triclinic
loop_
_symmetry_equiv_pos_as_xyz
  x,y,z
_cell_length_a	14.044202
_cell_length_b	14.519709
_cell_length_c	12.996460
_cell_angle_alpha	90.007122
_cell_angle_beta	90.001683
_cell_angle_gamma	91.563577
loop_
_atom_site_label
_atom_site_type_symbol
_atom_site_fract_x
_atom_site_fract_y
_atom_site_fract_z
O1	O	-1.258079	0.222411	0.085519
O2	O	-0.758079	0.722411	0.585519
O3	O	-0.982096	0.214378	0.085532
O4	O	-0.482096	0.714378	0.585532
O5	O	-1.127405	0.084746	0.085516
O6	O	-0.627405	0.584746	0.585516
O7	O	-1.112770	0.352042	0.085535
O8	O	-0.612770	0.852042	0.585535
O9	O	-1.127402	0.084737	-0.085618
O10	O	-0.627402	0.584737	0.414382
O11	O	-0.982094	0.214368	-0.085602
O12	O	-0.482094	0.714368	0.414398
O13	O	-1.258077	0.222401	-0.085615
O14	O	-0.758077	0.722401	0.414385
Cu15	Cu	-1.120085	0.218384	-0.101234
Cu16	Cu	-0.620085	0.718384	0.398766
Cu17	Cu	-1.120088	0.218395	0.101151
Cu18	Cu	-0.620088	0.718395	0.601151
O19	O	-1.112768	0.352033	-0.085599
O20	O	-0.612768	0.852033	0.414401
C21	C	-0.946774	0.210859	-0.000033
C22	C	-0.446774	0.710859	0.499967
C23	C	-0.841531	0.200379	-0.000028
C24	C	-0.341531	0.700379	0.499972
C25	C	-1.126722	0.050327	-0.000051
C26	C	-0.626722	0.550327	0.499949
C27	C	-1.124678	-0.052219	-0.000052
C28	C	-0.624678	0.447781	0.499948
C29	C	-0.591338	0.255542	-0.000034
C30	C	-0.091338	0.755542	0.499966
C31	C	-0.648841	0.181233	-0.000038
C32	C	-0.148841	0.681233	0.499962
C33	C	-0.756063	0.191888	-0.000032
C34	C	-0.256063	0.691888	0.499968
C35	C	-0.484106	0.244889	-0.000039
C36	C	0.015894	0.744889	0.499961
C37	C	-1.117154	-0.427722	-0.000024
C38	C	-0.617154	0.072278	0.499976
C39	C	-1.119243	-0.323246	-0.000032
C40	C	-0.619243	0.176754	0.499968
C41	C	-1.120916	-0.239974	-0.000039
C42	C	-0.620916	0.260026	0.499961
C43	C	-1.123005	-0.135491	-0.000045
C44	C	-0.623005	0.364509	0.499955
C45	C	-0.293398	0.225918	-0.000047
C46	C	0.206602	0.725918	0.499953
C47	C	-0.398643	0.236393	-0.000044
C48	C	0.101357	0.736393	0.499956
C49	C	-1.113451	0.386452	-0.000029
C50	C	-0.613451	0.886452	0.499971
C51	C	-1.115495	0.488999	-0.000022
C52	C	-0.615495	0.988999	0.499978
N53	N	-1.120090	0.218396	0.243499
N54	N	-0.620090	0.718396	0.743499
N55	N	-1.120090	0.218376	-0.243581
N56	N	-0.620090	0.718376	0.256419
C57	C	-1.120086	0.218387	0.663313
C58	C	-0.620086	0.718387	1.163313
C59	C	-1.120084	0.218392	0.546508
C60	C	-0.620084	0.718392	1.046508
C61	C	-1.120087	0.218391	0.453409
C62	C	-0.620087	0.718391	0.953409
C63	C	-1.120087	0.218397	0.336597
C64	C	-0.620087	0.718397	0.836597
H65	H	-0.617544	0.109613	0.000030
H66	H	-0.117544	0.609613	0.500030
O67	O	-0.628823	0.340914	0.000027
O68	O	-0.128823	0.840914	0.500027
C69	C	-0.729087	0.332679	0.000006
C70	C	-0.229087	0.832679	0.500006
H71	H	-0.752056	0.262574	0.032392
H72	H	-0.252056	0.762574	0.532392
H73	H	-0.759641	0.389435	0.049703
H74	H	-0.259641	0.889435	0.549703
H75	H	-0.756640	0.339370	-0.082093
H76	H	-0.256640	0.839370	0.417907
