data_functionalizedCrystal
_audit_creation_method	'MofGen! by Chris Wilmer'
_symmetry_space_group_name_H-M	'P1'
_symmetry_Int_Tables_number	1
_symmetry_cell_setting	triclinic
loop_
_symmetry_equiv_pos_as_xyz
  x,y,z
_cell_length_a	19.121102
_cell_length_b	13.897448
_cell_length_c	19.120904
_cell_angle_alpha	87.585296
_cell_angle_beta	90.088173
_cell_angle_gamma	92.427934
loop_
_atom_site_label
_atom_site_type_symbol
_atom_site_fract_x
_atom_site_fract_y
_atom_site_fract_z
Zn1	Zn	1.054890	0.471842	-0.442070
Zn2	Zn	1.554890	0.971842	0.057930
Zn3	Zn	1.059823	0.626569	-0.324836
Zn4	Zn	1.559823	1.126569	0.175164
Zn5	Zn	0.942657	0.458122	-0.319853
Zn6	Zn	1.442657	0.958122	0.180147
Zn7	Zn	0.937635	0.625920	-0.437038
Zn8	Zn	1.437635	1.125920	0.062962
O9	O	0.998751	0.545613	-0.380949
O10	O	1.498751	1.045613	0.119051
O11	O	1.153650	0.498380	-0.430709
O12	O	1.653650	0.998380	0.069291
O13	O	1.048448	0.598754	-0.226070
O14	O	1.548448	1.098754	0.273930
O15	O	0.957582	0.324963	-0.336086
O16	O	1.457582	0.824963	0.163914
O17	O	1.157275	0.612057	-0.344578
O18	O	1.657275	1.112057	0.155422
O19	O	1.040039	0.335043	-0.425878
O20	O	1.540039	0.835043	0.074122
O21	O	0.962366	0.474996	-0.222409
O22	O	1.462366	0.974996	0.277591
O23	O	0.843885	0.474367	-0.331207
O24	O	1.343885	0.974367	0.168793
O25	O	0.949022	0.610952	-0.535810
O26	O	1.449022	1.110952	-0.035810
O27	O	0.840195	0.597648	-0.417302
O28	O	1.340195	1.097648	0.082698
O29	O	1.035169	0.497751	-0.539507
O30	O	1.535169	0.997751	-0.039507
O31	O	1.043578	0.761461	-0.339699
O32	O	1.543578	1.261461	0.160301
O33	O	0.953806	0.760985	-0.422133
O34	O	1.453806	1.260985	0.077867
C35	C	0.816602	0.534450	-0.373168
C36	C	1.316602	1.034450	0.126832
C37	C	0.738677	0.529698	-0.369857
C38	C	1.238677	1.029698	0.130143
C39	C	0.998701	0.796223	-0.380927
C40	C	1.498701	1.296223	0.119073
C41	C	0.998743	0.903441	-0.380943
C42	C	1.498743	1.403441	0.119057
C43	C	0.990985	0.555809	-0.563808
C44	C	1.490985	1.055809	-0.063808
C45	C	0.987675	0.560155	-0.641731
C46	C	1.487675	1.060155	-0.141731
C47	C	0.700168	0.591740	-0.413055
C48	C	1.200168	1.091740	0.086945
C49	C	0.626950	0.587263	-0.409947
C50	C	1.126950	1.087263	0.090053
C51	C	0.592241	0.520747	-0.363635
C52	C	1.092241	1.020747	0.136365
C53	C	0.630755	0.458698	-0.320435
C54	C	1.130755	0.958698	0.179565
C55	C	0.703973	0.463172	-0.323548
C56	C	1.203973	0.963172	0.176452
C57	C	0.371267	0.504021	-0.352002
C58	C	0.871267	1.004021	0.147998
C59	C	0.298045	0.499555	-0.348891
C60	C	0.798045	0.999555	0.151109
C61	C	0.294244	0.628119	-0.438404
C62	C	0.794244	1.128119	0.061596
C63	C	0.367463	0.632590	-0.441509
C64	C	0.867463	1.132590	0.058491
C65	C	0.405970	0.570538	-0.398311
C66	C	0.905970	1.070538	0.101689
C67	C	0.517400	0.516172	-0.360455
C68	C	1.017400	1.016172	0.139545
C69	C	0.480810	0.575110	-0.401496
C70	C	0.980810	1.075110	0.098504
C71	C	1.181611	0.556821	-0.388761
C72	C	1.681611	1.056821	0.111239
C73	C	1.259536	0.561597	-0.392089
C74	C	1.759536	1.061597	0.107911
C75	C	0.998820	0.294026	-0.380988
C76	C	1.498820	0.794026	0.119012
C77	C	0.998850	0.186815	-0.381004
C78	C	1.498850	0.686815	0.118996
C79	C	0.998814	1.099743	-0.380990
C80	C	1.498814	1.599743	0.119010
C81	C	0.998772	0.990506	-0.380966
C82	C	1.498772	1.490506	0.119034
C83	C	1.030970	0.503261	-0.680265
C84	C	1.530970	1.003261	-0.180265
C85	C	1.027852	0.507339	-0.753482
C86	C	1.527852	1.007339	-0.253482
C87	C	0.981442	0.568317	-0.788164
C88	C	1.481442	1.068317	-0.288164
C89	C	0.938142	0.625213	-0.749624
C90	C	1.438142	1.125213	-0.249624
C91	C	0.941258	0.621129	-0.676408
C92	C	1.441258	1.121129	-0.176408
C93	C	0.969789	0.583593	-1.009131
C94	C	1.469789	1.083593	-0.509131
C95	C	0.966678	0.587675	-1.082352
C96	C	1.466678	1.087675	-0.582352
C97	C	1.056387	0.469799	-1.086206
C98	C	1.556387	0.969799	-0.586206
C99	C	1.059501	0.465724	-1.012988
C100	C	1.559501	0.965724	-0.512988
C101	C	1.016199	0.522617	-0.974455
C102	C	1.516199	1.022617	-0.474455
C103	C	0.978255	0.572490	-0.863003
C104	C	1.478255	1.072490	-0.363003
C105	C	1.019383	0.518438	-0.899617
C106	C	1.519383	1.018438	-0.399617
C107	C	1.006528	0.535389	-0.198804
C108	C	1.506528	1.035389	0.301196
C109	C	1.009973	0.530781	-0.120887
C110	C	1.509973	1.030781	0.379113
H111	H	0.728423	0.645908	-0.450764
H112	H	1.228423	1.145908	0.049236
F113	F	0.480454	0.445382	-0.311169
F114	F	0.980454	0.945382	0.188831
F115	F	0.585968	0.653298	-0.455925
F116	F	1.085968	1.153298	0.044075
F117	F	0.404397	0.703387	-0.490798
F118	F	0.904397	1.203387	0.009202
H119	H	0.262883	0.678637	-0.473574
H120	H	0.762883	1.178637	0.026426
F121	F	1.102467	0.409252	-1.127220
F122	F	1.602467	0.909252	-0.627220
F123	F	0.261107	0.428762	-0.299593
F124	F	0.761107	0.928762	0.200407
F125	F	0.895176	0.681681	-0.635397
F126	F	1.395176	1.181681	-0.135397
H127	H	1.063109	0.461013	-0.784854
H128	H	1.563109	0.961013	-0.284854
H129	H	1.057167	0.468786	-0.871376
H130	H	1.557167	0.968786	-0.371376
H131	H	0.900352	0.674859	-0.777867
H132	H	1.400352	1.174859	-0.277867
H133	H	0.940471	0.622143	-0.891249
H134	H	1.440471	1.122143	-0.391249
H135	H	0.602490	0.404536	-0.282730
H136	H	1.102490	0.904536	0.217270
H137	H	0.402612	0.453501	-0.316822
H138	H	0.902612	0.953501	0.183178
H139	H	0.735326	0.412645	-0.288374
H140	H	1.235326	0.912645	0.211626
F141	F	0.917278	0.652575	-1.119261
F142	F	1.417278	1.152575	-0.619261
H143	H	0.509073	0.629262	-0.439205
H144	H	1.009073	1.129262	0.060795
H145	H	1.068764	0.453609	-0.652033
H146	H	1.568764	0.953609	-0.152033
H147	H	1.097295	0.416072	-0.984756
H148	H	1.597295	0.916072	-0.484756
F149	F	0.923703	0.644143	-0.968130
F150	F	1.423703	1.144143	-0.468130
