data_functionalizedCrystal
_audit_creation_method	'MofGen! by Chris Wilmer'
_symmetry_space_group_name_H-M	'P1'
_symmetry_Int_Tables_number	1
_symmetry_cell_setting	triclinic
loop_
_symmetry_equiv_pos_as_xyz
  x,y,z
_cell_length_a	12.645330
_cell_length_b	12.759401
_cell_length_c	12.759393
_cell_angle_alpha	90.020938
_cell_angle_beta	89.971026
_cell_angle_gamma	89.980783
loop_
_atom_site_label
_atom_site_type_symbol
_atom_site_fract_x
_atom_site_fract_y
_atom_site_fract_z
Zn1	Zn	-0.421945	-1.606245	-0.594031
Zn2	Zn	-0.599246	-1.606126	-0.418356
Zn3	Zn	-0.422001	-1.430543	-0.418366
Zn4	Zn	-0.599172	-1.430526	-0.593993
O5	O	-0.510591	-1.518360	-0.506187
O6	O	-0.445472	-1.753250	-0.570739
O7	O	-0.575788	-1.582793	-0.271336
O8	O	-0.273647	-1.453907	-0.441689
O9	O	-0.575734	-1.753163	-0.441671
O10	O	-0.273605	-1.582994	-0.570749
O11	O	-0.445568	-1.453793	-0.271344
O12	O	-0.445496	-1.283520	-0.441652
O13	O	-0.575607	-1.453878	-0.741019
O14	O	-0.575662	-1.283507	-0.570684
O15	O	-0.445400	-1.582977	-0.741047
O16	O	-0.747583	-1.582776	-0.441634
O17	O	-0.747529	-1.453763	-0.570674
C18	C	-0.786021	-1.518283	-0.506172
C19	C	-0.903851	-1.518347	-0.506201
C20	C	-0.510578	-1.245393	-0.506166
C21	C	-0.510598	-1.128616	-0.506182
C22	C	-0.510605	-1.792393	-0.506208
C23	C	-0.510610	-1.909170	-0.506217
C24	C	-1.071424	-1.437519	-0.587630
C25	C	-0.948865	-1.437106	-0.587368
C26	C	-0.948453	-1.488371	-0.395479
C27	C	-1.071052	-1.487878	-0.395973
C28	C	-1.070935	-1.629644	-0.534596
C29	C	-0.948328	-1.628962	-0.537017
C30	C	-0.234086	-1.518466	-0.506224
C31	C	-0.116255	-1.518511	-0.506241
C32	C	-0.510489	-1.518439	-0.780220
C33	C	-0.510446	-1.518472	-0.896997
C34	C	-0.578479	-1.073775	-0.573263
C35	C	-0.578483	-0.964051	-0.573284
C36	C	-0.442722	-0.964019	-0.439133
C37	C	-0.442714	-1.073741	-0.439118
C38	C	-0.442636	-1.585699	-0.951875
C39	C	-0.442590	-1.585717	-1.061599
C40	C	-0.578173	-1.451278	-1.061557
C41	C	-0.578213	-1.451255	-0.951835
C42	C	-0.510616	-1.518342	-0.233219
C43	C	-0.510360	-1.518512	-0.116443
H44	H	-0.918705	-1.455861	-0.669468
H45	H	-0.919634	-1.354717	-0.568583
C46	C	-1.170623	-1.288994	-0.648321
C47	C	-1.113143	-1.326991	-0.562598
H48	H	-1.196385	-1.220763	-0.632860
H49	H	-1.125992	-1.286030	-0.708144
H50	H	-1.228484	-1.334415	-0.662084
H51	H	-1.055276	-1.281575	-0.548840
H52	H	-1.157776	-1.329948	-0.502758
C53	C	-1.022574	-1.313565	-0.343872
C54	C	-1.109798	-1.378207	-0.363556
H55	H	-1.046493	-1.245856	-0.323868
H56	H	-0.981382	-1.342799	-0.288939
H57	H	-0.980702	-1.308189	-0.405469
H58	H	-1.151666	-1.383590	-0.301957
H59	H	-1.151008	-1.348967	-0.418494
H60	H	-0.917680	-1.692482	-0.482054
C61	C	-1.077818	-1.563273	-0.727512
C62	C	-1.111130	-1.462596	-0.698826
H63	H	-1.102345	-1.578756	-0.796158
H64	H	-1.002778	-1.566314	-0.726277
H65	H	-1.105756	-1.613028	-0.679561
H66	H	-1.083186	-1.412840	-0.746773
H67	H	-1.186185	-1.459547	-0.700069
H68	H	-0.633431	-1.396503	-0.907152
H69	H	-0.387455	-0.919326	-0.384531
H70	H	-0.633756	-0.919404	-0.627910
C71	C	-0.721092	-1.197131	-0.587609
C72	C	-0.653088	-1.134094	-0.646987
H73	H	-0.767156	-1.234361	-0.633128
H74	H	-0.680667	-1.245496	-0.547666
H75	H	-0.761588	-1.154283	-0.541776
H76	H	-0.612587	-1.176943	-0.692815
H77	H	-0.693518	-1.085724	-0.686947
H78	H	-1.100712	-1.544308	-0.333264
H79	H	-0.387371	-1.640459	-1.106276
H80	H	-0.387431	-1.118394	-0.384493
H81	H	-1.101772	-1.656988	-0.613962
C82	C	-0.942800	-1.666957	-0.336517
C83	C	-0.909092	-1.565494	-0.311391
H84	H	-0.918492	-1.714575	-0.284614
H85	H	-1.017846	-1.668621	-0.339119
H86	H	-0.914907	-1.686490	-0.402852
H87	H	-0.936991	-1.545958	-0.245059
H88	H	-0.834031	-1.563826	-0.308778
C89	C	-0.308604	-1.718578	-0.962942
C90	C	-0.368137	-1.659572	-0.891596
H91	H	-0.262604	-1.764178	-0.925727
H92	H	-0.354778	-1.758756	-1.005733
H93	H	-0.268042	-1.672813	-1.005738
H94	H	-0.408705	-1.705337	-0.848804
H95	H	-0.321957	-1.619391	-0.848786
H96	H	-0.917846	-1.407979	-0.371023
C97	C	-0.720728	-1.436650	-1.184921
C98	C	-0.652670	-1.377404	-1.121839
H99	H	-0.766724	-1.391041	-1.222128
H100	H	-0.680337	-1.476681	-1.233305
H101	H	-0.761292	-1.482395	-1.142105
H102	H	-0.612100	-1.331663	-1.164655
H103	H	-0.693065	-1.337354	-1.073449
C104	C	-0.949098	-1.758176	-0.673865
C105	C	-0.909021	-1.659462	-0.647044
H106	H	-0.924848	-1.776989	-0.741803
H107	H	-0.925444	-1.808622	-0.624420
H108	H	-1.024184	-1.755856	-0.673580
H109	H	-0.833935	-1.661784	-0.647322
H110	H	-0.932669	-1.609003	-0.696502
H111	H	-1.099926	-1.689984	-0.475316
