data_functionalizedCrystal
_audit_creation_method	'MofGen! by Chris Wilmer'
_symmetry_space_group_name_H-M	'P1'
_symmetry_Int_Tables_number	1
_symmetry_cell_setting	triclinic
loop_
_symmetry_equiv_pos_as_xyz
  x,y,z
_cell_length_a	17.019330
_cell_length_b	17.000371
_cell_length_c	12.376457
_cell_angle_alpha	100.368332
_cell_angle_beta	105.060036
_cell_angle_gamma	100.491333
loop_
_atom_site_label
_atom_site_type_symbol
_atom_site_fract_x
_atom_site_fract_y
_atom_site_fract_z
O1	O	-1.073827	0.069207	-0.198553
O2	O	-0.839336	0.085835	-0.175725
O3	O	-0.971141	-0.038590	-0.188548
O4	O	-0.942023	0.193632	-0.185730
O5	O	-0.938203	-0.007526	0.002668
O6	O	-0.806399	0.116899	0.015491
O7	O	-1.040890	0.100271	-0.007336
Zn8	Zn	-0.918415	0.113517	0.034437
Zn9	Zn	-0.961811	0.072589	-0.217499
O10	O	-0.909086	0.224696	0.005487
C11	C	-0.793012	0.101347	-0.077210
C12	C	-0.704054	0.101279	-0.068550
C13	C	-0.956236	-0.052738	-0.093093
C14	C	-0.960887	-0.141175	-0.093547
C15	C	-0.200014	0.101769	-0.014342
C16	C	-0.283601	0.101833	-0.022482
C17	C	-0.343350	0.084925	-0.130786
C18	C	-0.319508	0.067961	-0.230956
C19	C	-0.235921	0.067903	-0.222816
C20	C	-0.596625	0.084257	-0.160580
C21	C	-0.680216	0.084314	-0.168713
C22	C	-0.644303	0.118187	0.039762
C23	C	-0.560718	0.118123	0.047893
C24	C	-0.536882	0.101163	-0.052277
C25	C	-0.428790	0.084987	-0.139108
C26	C	-0.451442	0.101107	-0.043953
C27	C	-0.889315	-0.171993	-0.086584
C28	C	-0.893690	-0.255090	-0.087007
C29	C	-0.969638	-0.307368	-0.094400
C30	C	-1.041215	-0.276545	-0.101360
C31	C	-1.036838	-0.193448	-0.100929
C32	C	-0.986541	-0.558801	-0.096054
C33	C	-0.990913	-0.641902	-0.096488
C34	C	-0.843387	-0.620441	-0.082132
C35	C	-0.839018	-0.537346	-0.081709
C36	C	-0.910594	-0.506528	-0.088662
C37	C	-0.974112	-0.392307	-0.094836
C38	C	-0.906118	-0.421590	-0.088218
C39	C	-0.087215	0.084753	-0.105850
C40	C	-0.176177	0.084804	-0.114505
C41	C	-0.923991	0.238844	-0.089971
C42	C	-0.919341	0.327280	-0.089525
N43	N	-0.888804	0.141449	0.206376
N44	N	-0.991429	0.044650	-0.389439
C45	C	-1.060166	-0.020205	0.544690
C46	C	-1.080886	-0.039755	0.424334
C47	C	-1.032867	0.005544	0.369839
C48	C	-0.964125	0.070397	0.435711
C49	C	-0.943407	0.089953	0.556078
C50	C	-0.916108	0.115702	0.381227
C51	C	-0.847366	0.180555	0.447099
C52	C	-0.826651	0.200107	0.567454
C53	C	-0.874670	0.154808	0.621950
C54	C	-0.936826	0.096146	0.260860
C55	C	-0.820067	0.206305	0.272248
C56	C	-0.799347	0.225854	0.392604
H57	H	-0.151370	0.115541	0.073851
F58	F	-1.054939	-0.447951	-0.102701
H59	H	-0.777173	-0.494786	-0.075691
H60	H	-0.402790	0.114878	0.044227
F61	F	-0.767216	-0.653246	-0.074731
F62	F	-1.071753	-0.697542	-0.104364
F63	F	-0.492388	0.066985	-0.254371
H64	H	-1.099261	-0.057078	0.589068
F65	F	-0.753497	0.269137	0.637560
F66	F	-0.808481	-0.116363	-0.078722
F67	F	-0.308965	0.119894	0.084126
H68	H	-0.512077	0.131874	0.136085
F69	F	-1.113014	-0.160649	-0.108330
F70	F	-0.825290	-0.365949	-0.080344
F71	F	-1.154044	-0.108772	0.354232
H72	H	-0.857798	0.170723	0.719953
F73	F	-0.817513	-0.287884	-0.079598
H74	H	-0.743376	0.278659	0.446252
H75	H	-0.216515	0.054090	-0.304379
F76	F	-0.669678	0.136241	0.146363
H77	H	-0.780967	0.243193	0.227879
F78	F	-1.009984	0.027128	0.190768
F79	F	-1.054920	-0.015265	0.241745
H80	H	-0.728863	0.070551	-0.256912
F81	F	-0.383099	0.049968	-0.346222
F82	F	-0.571268	0.066203	-0.267192
H83	H	-1.044824	-0.533720	-0.101719
H84	H	-1.103053	-0.319115	-0.107373
