data_functionalizedCrystal
_audit_creation_method	'MofGen! by Chris Wilmer'
_symmetry_space_group_name_H-M	'P1'
_symmetry_Int_Tables_number	1
_symmetry_cell_setting	triclinic
loop_
_symmetry_equiv_pos_as_xyz
  x,y,z
_cell_length_a	13.897449
_cell_length_b	18.215385
_cell_length_c	18.215405
_cell_angle_alpha	89.904210
_cell_angle_beta	90.026165
_cell_angle_gamma	89.936355
loop_
_atom_site_label
_atom_site_type_symbol
_atom_site_fract_x
_atom_site_fract_y
_atom_site_fract_z
Zn1	Zn	1.475063	-0.416078	-0.292493
Zn2	Zn	1.808396	-0.082745	0.040841
Zn3	Zn	2.141730	0.250589	0.374174
Zn4	Zn	1.474816	-0.293006	-0.415704
Zn5	Zn	1.808149	0.040327	-0.082371
Zn6	Zn	2.141483	0.373661	0.250962
Zn7	Zn	1.313631	-0.293028	-0.292659
Zn8	Zn	1.646965	0.040305	0.040675
Zn9	Zn	1.980298	0.373639	0.374008
Zn10	Zn	1.313714	-0.416034	-0.415525
Zn11	Zn	1.647047	-0.082701	-0.082192
Zn12	Zn	1.980380	0.250633	0.251142
O13	O	1.394306	-0.354536	-0.354095
O14	O	1.727639	-0.021203	-0.020762
O15	O	2.060973	0.312130	0.312571
O16	O	1.610012	-0.399762	-0.308843
O17	O	1.943345	-0.066428	0.024491
O18	O	2.276679	0.266905	0.357824
O19	O	1.453297	-0.190024	-0.399527
O20	O	1.786630	0.143309	-0.066193
O21	O	2.119963	0.476642	0.267140
O22	O	1.335115	-0.309379	-0.189652
O23	O	1.668448	0.023955	0.143681
O24	O	2.001781	0.357288	0.477014
O25	O	1.609830	-0.309341	-0.399366
O26	O	1.943164	0.023992	-0.066032
O27	O	2.276497	0.357326	0.267301
O28	O	1.453718	-0.399783	-0.189531
O29	O	1.787051	-0.066450	0.143803
O30	O	2.120384	0.266884	0.477136
O31	O	1.334875	-0.190040	-0.309126
O32	O	1.668208	0.143293	0.024208
O33	O	2.001542	0.476626	0.357541
O34	O	1.178661	-0.309336	-0.308952
O35	O	1.511994	0.023998	0.024382
O36	O	1.845327	0.357331	0.357715
O37	O	1.335255	-0.519024	-0.399060
O38	O	1.668588	-0.185691	-0.065727
O39	O	2.001922	0.147642	0.267607
O40	O	1.178721	-0.399708	-0.399221
O41	O	1.512054	-0.066374	-0.065888
O42	O	1.845388	0.266959	0.267446
O43	O	1.453798	-0.519057	-0.308669
O44	O	1.787131	-0.185723	0.024665
O45	O	2.120464	0.147610	0.357998
O46	O	1.453376	-0.309298	-0.518665
O47	O	1.786710	0.024035	-0.185331
O48	O	2.120043	0.357369	0.148002
O49	O	1.335015	-0.399686	-0.518533
O50	O	1.668349	-0.066353	-0.185200
O51	O	2.001682	0.266980	0.148134
C52	C	1.143692	-0.354520	-0.354085
C53	C	1.477025	-0.021186	-0.020752
C54	C	1.810358	0.312147	0.312581
C55	C	1.036478	-0.354530	-0.354099
C56	C	1.369811	-0.021197	-0.020766
C57	C	1.703144	0.312137	0.312568
C58	C	1.394204	-0.354501	-0.545302
C59	C	1.727537	-0.021168	-0.211968
C60	C	2.060871	0.312166	0.121365
C61	C	1.394249	-0.354511	-0.627100
C62	C	1.727582	-0.021177	-0.293767
C63	C	2.060915	0.312156	0.039566
C64	C	1.394106	-0.163330	-0.354310
C65	C	1.727439	0.170004	-0.020977
C66	C	2.060772	0.503337	0.312356
C67	C	1.394183	-0.081531	-0.354218
C68	C	1.727516	0.251802	-0.020885
C69	C	2.060850	0.585136	0.312449
C70	C	0.840183	-0.354549	-0.354101
C71	C	1.173516	-0.021216	-0.020768
C72	C	1.506849	0.312117	0.312565
C73	C	0.949415	-0.354537	-0.354098
C74	C	1.282748	-0.021203	-0.020764
C75	C	1.616082	0.312130	0.312569
C76	C	1.645899	-0.354554	-0.354106
C77	C	1.979232	-0.021220	-0.020772
C78	C	2.312566	0.312113	0.312561
C79	C	1.753113	-0.354561	-0.354110
C80	C	2.086446	-0.021228	-0.020777
C81	C	2.419780	0.312106	0.312557
C82	C	1.394563	-0.546490	-0.353826
C83	C	1.727896	-0.213157	-0.020493
C84	C	2.061230	0.120177	0.312841
C85	C	1.394673	-0.628289	-0.353711
C86	C	1.728006	-0.294956	-0.020378
C87	C	2.061339	0.038378	0.312956
C88	C	1.332287	0.106619	-0.307283
C89	C	1.665620	0.439953	0.026051
C90	C	1.998953	0.773286	0.359384
C91	C	1.332371	0.183478	-0.307195
C92	C	1.665704	0.516811	0.026138
C93	C	1.999037	0.850145	0.359472
C94	C	1.456576	0.183555	-0.400648
C95	C	1.789909	0.516888	-0.067315
C96	C	2.123242	0.850222	0.266018
C97	C	1.456496	0.106698	-0.400732
C98	C	1.789829	0.440031	-0.067398
C99	C	2.123162	0.773365	0.265935
C100	C	1.394346	0.068232	-0.354050
C101	C	1.727679	0.401565	-0.020717
C102	C	2.061012	0.734899	0.312617
C103	C	1.394510	0.221948	-0.353879
C104	C	1.727843	0.555281	-0.020546
C105	C	2.061177	0.888614	0.312788
C106	C	1.394602	0.305281	-0.353784
C107	C	1.727935	0.638615	-0.020451
C108	C	2.061268	0.971948	0.312883
C109	C	1.394255	-0.015107	-0.354144
C110	C	1.727588	0.318227	-0.020810
C111	C	2.060921	0.651560	0.312523
C112	C	1.456024	-0.307532	-0.815338
C113	C	1.789358	0.025801	-0.482005
C114	C	2.122691	0.359135	-0.148672
C115	C	1.456068	-0.307550	-0.892197
C116	C	1.789401	0.025783	-0.558864
C117	C	2.122734	0.359117	-0.225530
C118	C	1.332711	-0.401594	-0.892100
C119	C	1.666044	-0.068260	-0.558767
C120	C	1.999378	0.265073	-0.225433
C121	C	1.332674	-0.401579	-0.815243
C122	C	1.666007	-0.068246	-0.481909
C123	C	1.999340	0.265088	-0.148576
C124	C	1.394329	-0.354544	-0.776864
C125	C	1.727662	-0.021211	-0.443530
C126	C	2.060995	0.312123	-0.110197
C127	C	1.394409	-0.354577	-0.930580
C128	C	1.727743	-0.021243	-0.597247
C129	C	2.061076	0.312090	-0.263913
C130	C	1.394456	-0.354596	-1.013913
C131	C	1.727789	-0.021263	-0.680580
C132	C	2.061122	0.312070	-0.347247
C133	C	1.394284	-0.354525	-0.693525
C134	C	1.727617	-0.021192	-0.360192
C135	C	2.060951	0.312141	-0.026858
C136	C	1.394435	-0.354588	-0.162142
C137	C	1.727768	-0.021255	0.171191
C138	C	2.061101	0.312079	0.504524
C139	C	1.394489	-0.354610	-0.080343
C140	C	1.727823	-0.021277	0.252990
C141	C	2.061156	0.312057	0.586323
H142	H	1.281683	0.075303	-0.269269
H143	H	1.615017	0.408636	0.064064
H144	H	1.948350	0.741969	0.397398
H145	H	1.281838	0.214730	-0.269111
H146	H	1.615171	0.548063	0.064222
H147	H	1.948504	0.881396	0.397556
H148	H	1.507175	0.214883	-0.438656
H149	H	1.840508	0.548217	-0.105323
H150	H	2.173841	0.881550	0.228011
H151	H	1.506229	-0.269234	-0.784092
H152	H	1.839562	0.064099	-0.450759
H153	H	2.172896	0.397432	-0.117425
F154	F	1.267009	-0.451622	-0.774293
F155	F	1.600343	-0.118289	-0.440959
F156	F	1.933676	0.215045	-0.107626
H157	H	1.507037	0.075442	-0.438816
H158	H	1.840370	0.408775	-0.105483
H159	H	2.173704	0.742109	0.227851
F160	F	1.521735	-0.257515	-0.933141
F161	F	1.855068	0.075818	-0.599808
F162	F	2.188402	0.409152	-0.266474
F163	F	1.267095	-0.451648	-0.932952
F164	F	1.600429	-0.118314	-0.599618
F165	F	1.933762	0.215019	-0.266285
