data_functionalizedCrystal
_audit_creation_method	'MofGen! by Chris Wilmer'
_symmetry_space_group_name_H-M	'P1'
_symmetry_Int_Tables_number	1
_symmetry_cell_setting	triclinic
loop_
_symmetry_equiv_pos_as_xyz
  x,y,z
_cell_length_a	10.654549
_cell_length_b	23.532407
_cell_length_c	9.730223
_cell_angle_alpha	89.990960
_cell_angle_beta	89.997731
_cell_angle_gamma	83.666727
loop_
_atom_site_label
_atom_site_type_symbol
_atom_site_fract_x
_atom_site_fract_y
_atom_site_fract_z
O1	O	1.665305	0.079984	-0.114274
O2	O	1.299585	0.087604	-0.114285
O3	O	1.493473	0.000934	-0.114254
O4	O	1.471417	0.166654	-0.114305
O5	O	1.493461	0.000932	0.114326
O6	O	1.299573	0.087602	0.114295
O7	O	1.665293	0.079981	0.114306
Zn8	Zn	1.482431	0.083791	0.150592
Zn9	Zn	1.482447	0.083794	-0.150572
O10	O	1.471405	0.166652	0.114275
C11	C	1.252799	0.087044	0.000004
C12	C	1.113409	0.085370	0.000001
C13	C	0.901327	0.134823	-0.000009
C14	C	1.032298	0.136400	-0.000018
C15	C	1.063543	0.032759	0.000014
C16	C	0.932575	0.031183	0.000013
C17	C	1.492906	-0.020287	0.000039
C18	C	1.491217	-0.083515	0.000050
C19	C	1.595364	-0.481939	-0.000022
C20	C	1.593795	-0.541350	-0.000033
O21	O	1.690341	-0.577465	-0.000080
N22	N	1.478529	-0.564727	-0.000035
C23	C	1.364824	-0.528690	-0.000041
O24	O	1.266637	-0.554029	-0.000046
C25	C	1.366394	-0.469281	-0.000041
C26	C	1.481668	-0.445907	-0.000024
C27	C	1.710629	-0.458565	-0.000007
C28	C	1.712197	-0.399159	0.000006
C29	C	1.598501	-0.363127	0.000004
C30	C	1.483236	-0.386501	-0.000011
C31	C	1.252690	-0.433245	-0.000056
C32	C	1.254270	-0.373832	-0.000057
C33	C	1.369544	-0.350459	-0.000040
C34	C	1.371108	-0.291062	0.000000
N35	N	1.486374	-0.267685	0.000003
C36	C	1.600071	-0.303717	0.000005
C37	C	1.361535	-0.653454	-0.000045
C38	C	1.359964	-0.712862	-0.000036
C39	C	1.588936	-0.725518	-0.000030
C40	C	1.590506	-0.666108	-0.000029
C41	C	1.476802	-0.630077	-0.000042
C42	C	1.603355	-0.178959	0.000033
C43	C	1.604913	-0.119547	0.000052
C44	C	1.375942	-0.106896	0.000039
C45	C	1.374383	-0.166303	0.000027
C46	C	1.488100	-0.202334	0.000020
O47	O	1.274613	-0.254912	0.000042
O48	O	1.698242	-0.278370	-0.000009
C49	C	1.712079	0.080542	0.000014
C50	C	1.851469	0.082216	0.000008
C51	C	1.471972	0.187872	-0.000022
C52	C	1.473661	0.251100	-0.000041
N53	N	1.482429	0.083789	0.356129
N54	N	1.482459	0.083792	-0.356108
C55	C	1.568311	0.045428	0.428068
C56	C	1.568324	0.045428	0.571951
C57	C	1.396568	0.122155	0.571942
C58	C	1.396550	0.122152	0.428062
H59	H	0.891982	-0.011659	0.000022
H60	H	1.326648	0.153391	0.630525
H61	H	1.129594	-0.008790	0.000021
O62	O	1.080519	0.187551	0.000031
C63	C	0.980845	0.232252	-0.000011
H64	H	0.892067	0.215935	0.043272
H65	H	1.007757	0.268949	0.066342
H66	H	0.962112	0.248020	-0.109675
H67	H	1.698787	-0.100520	0.000069
O68	O	1.713933	-0.213872	0.000092
C69	C	1.815992	-0.180491	0.000074
H70	H	1.783527	-0.136292	0.043352
H71	H	1.895608	-0.202082	0.066443
H72	H	1.851370	-0.176107	-0.109582
O73	O	1.824141	-0.376429	0.000246
C74	C	1.831904	-0.342440	0.118609
H75	H	1.766465	-0.356752	0.201360
H76	H	1.933179	-0.347372	0.158337
H77	H	1.802349	-0.295711	0.091844
O78	O	1.821199	-0.493480	0.000060
C79	C	1.923254	-0.460097	0.000037
H80	H	1.890783	-0.415896	0.043302
H81	H	2.002869	-0.481684	0.066413
H82	H	1.958635	-0.455717	-0.109620
H83	H	1.684372	-0.647082	-0.000017
H84	H	1.681514	-0.754866	-0.000034
O85	O	1.651796	0.008227	0.358099
C86	C	1.728857	0.039027	0.274770
H87	H	1.730500	0.083944	0.318102
H88	H	1.828931	0.016185	0.273075
H89	H	1.689457	0.041856	0.165754
H90	H	1.266096	-0.731887	-0.000025
H91	H	1.638255	0.014190	0.630521
O92	O	1.250959	-0.618536	0.000023
C93	C	1.148898	-0.651915	-0.000013
H94	H	1.181355	-0.696122	0.043258
H95	H	1.069275	-0.630334	0.066352
H96	H	1.113532	-0.656281	-0.109675
O97	O	1.140788	-0.456006	-0.000270
C98	C	1.133023	-0.489966	-0.118682
H99	H	1.232191	-0.504369	-0.158128
H100	H	1.083436	-0.529060	-0.092082
H101	H	1.077165	-0.463933	-0.201587
H102	H	1.326608	0.153391	0.369485
H103	H	1.161676	-0.344497	-0.000070
O104	O	0.822414	0.184356	-0.000211
C105	C	0.745750	0.186551	-0.118614
H106	H	0.739693	0.141323	-0.158062
H107	H	0.647040	0.207375	-0.092000
H108	H	0.788521	0.212729	-0.201522
H109	H	1.280518	-0.185335	0.000052
O110	O	1.265618	-0.071807	-0.000026
C111	C	1.291735	-0.014361	0.000016
H112	H	1.390348	-0.011690	-0.043243
H113	H	1.219234	0.012269	-0.066356
H114	H	1.286742	0.002791	0.109678
