data_functionalizedCrystal
_audit_creation_method	'MofGen! by Chris Wilmer'
_symmetry_space_group_name_H-M	'P1'
_symmetry_Int_Tables_number	1
_symmetry_cell_setting	triclinic
loop_
_symmetry_equiv_pos_as_xyz
  x,y,z
_cell_length_a	15.538191
_cell_length_b	16.109301
_cell_length_c	15.186229
_cell_angle_alpha	89.998295
_cell_angle_beta	90.005650
_cell_angle_gamma	114.633213
loop_
_atom_site_label
_atom_site_type_symbol
_atom_site_fract_x
_atom_site_fract_y
_atom_site_fract_z
O1	O	1.249997	0.270061	0.073231
O2	O	0.975709	0.174053	0.073233
O3	O	1.120388	0.345360	0.073223
O4	O	1.105318	0.098754	0.073241
O5	O	1.120371	0.345348	-0.073234
O6	O	0.975692	0.174041	-0.073224
O7	O	1.249980	0.270049	-0.073226
Zn8	Zn	1.112833	0.222043	-0.096479
Zn9	Zn	1.112856	0.222059	0.096485
O10	O	1.105301	0.098742	-0.073216
C11	C	0.940602	0.164002	0.000005
C12	C	0.836019	0.134081	0.000005
C13	C	1.119769	0.376145	-0.000006
C14	C	1.117939	0.467888	-0.000007
N15	N	1.112825	0.222034	-0.228171
C16	C	0.548320	0.431335	-0.000003
C17	C	0.450045	0.403199	-0.000000
C18	C	0.427554	0.244941	0.000011
C19	C	0.525828	0.273063	0.000004
C20	C	0.586204	0.366262	-0.000002
C21	C	0.563712	0.207990	0.000005
C22	C	0.661978	0.236111	0.000003
C23	C	0.722360	0.329305	-0.000000
C24	C	0.684470	0.394382	-0.000004
C25	C	0.503335	0.114793	0.000018
C26	C	0.541219	0.049719	0.000019
C27	C	0.639487	0.077840	0.000010
C28	C	0.699869	0.171034	0.000007
C29	C	0.677377	0.012763	0.000014
C30	C	0.775643	0.040883	0.000011
C31	C	0.798135	0.199155	0.000004
C32	C	1.285087	0.280100	0.000004
C33	C	1.389670	0.310020	0.000009
C34	C	1.105920	0.067957	0.000015
C35	C	1.107750	-0.023786	0.000022
C36	C	1.199533	0.714764	0.000006
C37	C	1.197806	0.800964	0.000013
C38	C	1.026149	0.729329	0.000011
C39	C	1.027877	0.643131	0.000010
C40	C	1.114572	0.635852	0.000003
C41	C	1.111117	0.808250	0.000011
C42	C	1.109244	0.901711	0.000019
C43	C	1.116446	0.542385	-0.000003
C44	C	1.169962	0.188835	-0.453890
C45	C	1.169972	0.188844	-0.546080
C46	C	1.055732	0.255281	-0.546096
C47	C	1.055728	0.255277	-0.453908
C48	C	1.112841	0.222049	-0.407808
C49	C	1.112856	0.222062	-0.592185
C50	C	1.112866	0.222072	-0.692142
C51	C	1.112832	0.222040	-0.307845
N52	N	1.112872	0.222076	0.228178
H53	H	0.847297	0.275046	-0.000006
H54	H	0.423321	0.091900	0.000022
H55	H	0.419205	0.456196	0.000000
H56	H	1.009212	0.282328	-0.416387
H57	H	1.216487	0.161799	-0.583597
C58	C	0.992904	0.291817	-0.596810
H59	H	1.001079	0.287054	-0.658314
H60	H	1.010421	0.353982	-0.581702
H61	H	0.928439	0.256938	-0.581707
C62	C	0.934415	0.556322	0.000004
H63	H	0.882536	0.573001	-0.000004
H64	H	0.931527	0.521207	0.051076
H65	H	0.931521	0.521211	-0.051076
H66	H	0.802374	0.352199	0.000009
H67	H	0.955565	0.735267	0.000015
H68	H	0.733632	0.470273	-0.000014
H69	H	1.216467	0.161779	-0.416358
C70	C	1.294893	0.706758	0.000008
H71	H	1.345244	0.766104	0.000019
H72	H	1.299135	0.674623	-0.051064
H73	H	1.299136	0.674622	0.051088
C74	C	1.291261	0.887767	0.000020
H75	H	1.277819	0.940148	0.000032
H76	H	1.326808	0.888363	-0.051052
H77	H	1.326808	0.888349	0.051100
H78	H	0.597482	0.507226	-0.000013
H79	H	0.378383	0.169059	0.000020
H80	H	0.492048	-0.026163	0.000027
H81	H	0.628205	-0.063119	0.000027
C82	C	0.817320	-0.030694	0.000012
H83	H	0.767289	-0.090226	0.000008
H84	H	0.855193	-0.023008	0.051085
H85	H	0.855179	-0.023015	-0.051067
