data_functionalizedCrystal
_audit_creation_method	'MofGen! by Chris Wilmer'
_symmetry_space_group_name_H-M	'P1'
_symmetry_Int_Tables_number	1
_symmetry_cell_setting	triclinic
loop_
_symmetry_equiv_pos_as_xyz
  x,y,z
_cell_length_a	12.759401
_cell_length_b	13.032721
_cell_length_c	12.759393
_cell_angle_alpha	97.147669
_cell_angle_beta	89.981665
_cell_angle_gamma	97.204304
loop_
_atom_site_label
_atom_site_type_symbol
_atom_site_fract_x
_atom_site_fract_y
_atom_site_fract_z
Zn1	Zn	1.553096	-0.415966	-0.647063
Zn2	Zn	1.530655	-0.590749	-0.493688
Zn3	Zn	1.377392	-0.416022	-0.471410
Zn4	Zn	1.355061	-0.590667	-0.669319
O5	O	1.454051	-0.503351	-0.570370
O6	O	1.697139	-0.439162	-0.626727
O7	O	1.510278	-0.567628	-0.343719
O8	O	1.419436	-0.269777	-0.476073
O9	O	1.680652	-0.567574	-0.514043
O10	O	1.548526	-0.269737	-0.605125
O11	O	1.397676	-0.439257	-0.327351
O12	O	1.227410	-0.439178	-0.497654
O13	O	1.381378	-0.567436	-0.813380
O14	O	1.211004	-0.567490	-0.643056
O15	O	1.526873	-0.439083	-0.797029
O16	O	1.488625	-0.736975	-0.535623
O17	O	1.359617	-0.736915	-0.664658
C18	C	1.181086	-0.503332	-0.570353
C19	C	1.064307	-0.503349	-0.570374
C20	C	1.000917	-0.570268	-0.645988
C21	C	0.891191	-0.570281	-0.646001
C22	C	0.908257	-0.436454	-0.494777
C23	C	1.017981	-0.436436	-0.494770
C24	C	0.991063	-0.647535	-0.733293
C25	C	0.881337	-0.647548	-0.733306
C26	C	1.419292	-0.774863	-0.604996
C27	C	1.404517	-0.891017	-0.619844
C28	C	1.461818	-0.942797	-0.562668
C29	C	1.446549	-1.062848	-0.578013
C30	C	1.728082	-0.503371	-0.570387
C31	C	1.844857	-0.503380	-0.570395
C32	C	1.454138	-0.503244	-0.844390
C33	C	1.454174	-0.503198	-0.961161
C34	C	1.488975	-0.230779	-0.535632
C35	C	1.503858	-0.114625	-0.520828
C36	C	1.395596	-0.436317	-1.117228
C37	C	1.395566	-0.436346	-1.007507
C38	C	1.512825	-0.570018	-1.024540
C39	C	1.512861	-0.569983	-1.134257
C40	C	1.327893	-0.359145	-1.107394
C41	C	1.327863	-0.359175	-0.997673
C42	C	1.454035	-0.503382	-0.297407
C43	C	1.454239	-0.503134	-0.180599
H44	H	0.870524	-0.381975	-0.433223
H45	H	1.015257	-0.724375	-0.713814
H46	H	1.560625	-0.624382	-1.185850
H47	H	1.023629	-0.625951	-0.811946
C48	C	1.058238	-0.385295	-0.310435
C49	C	1.087662	-0.362868	-0.411661
H50	H	1.101262	-0.339877	-0.259128
H51	H	0.986269	-0.375729	-0.299628
H52	H	1.067247	-0.455487	-0.303896
H53	H	1.078646	-0.292678	-0.418203
H54	H	1.159649	-0.372425	-0.422471
H55	H	0.851031	-0.618658	-0.806972
C56	C	1.491990	-0.820017	-0.405777
C57	C	1.543303	-0.882671	-0.481244
H58	H	1.542298	-0.782905	-0.355505
H59	H	1.458029	-0.771981	-0.439664
H60	H	1.440853	-0.862679	-0.370967
H61	H	1.594435	-0.840009	-0.516059
H62	H	1.577281	-0.930713	-0.447353
H63	H	1.564227	-1.070084	-0.460516
C64	C	0.904025	-0.823005	-0.708101
C65	C	0.827145	-0.756774	-0.717630
H66	H	0.870567	-0.890431	-0.698417
H67	H	0.944832	-0.827475	-0.770399
H68	H	0.948803	-0.796033	-0.649011
H69	H	0.782371	-0.783742	-0.776725
H70	H	0.786320	-0.752307	-0.655325
C71	C	1.307288	-0.210854	-0.871065
C72	C	1.380474	-0.255398	-0.938508
H73	H	1.339772	-0.146791	-0.834536
H74	H	1.248645	-0.198430	-0.911387
H75	H	1.283828	-0.257128	-0.821521
H76	H	1.403929	-0.209126	-0.988058
H77	H	1.439137	-0.267817	-0.898184
C78	C	1.365703	-1.230259	-0.658878
C79	C	1.365056	-1.122969	-0.659438
H80	H	1.315389	-1.267373	-0.709142
H81	H	1.434035	-1.248014	-0.676572
H82	H	1.348106	-1.248152	-0.590542
H83	H	1.382661	-1.105075	-0.727773
H84	H	1.296709	-1.105206	-0.641750
H85	H	1.344161	-0.935563	-0.680160
H86	H	1.560554	-0.624444	-0.986795
H87	H	1.360057	-0.278199	-1.126860
C88	C	1.224105	-0.396281	-1.267673
C89	C	1.218561	-0.398276	-1.158329
H90	H	1.156611	-0.420453	-1.299118
H91	H	1.245509	-0.326958	-1.281829
H92	H	1.273946	-0.440096	-1.296228
H93	H	1.168725	-0.354455	-1.129772
H94	H	1.197143	-0.467610	-1.144164
H95	H	1.243705	-0.380848	-0.970651
