data_functionalizedCrystal
_audit_creation_method	'MofGen! by Chris Wilmer'
_symmetry_space_group_name_H-M	'P1'
_symmetry_Int_Tables_number	1
_symmetry_cell_setting	triclinic
loop_
_symmetry_equiv_pos_as_xyz
  x,y,z
_cell_length_a	14.519709
_cell_length_b	22.610064
_cell_length_c	14.519709
_cell_angle_alpha	89.996868
_cell_angle_beta	83.680145
_cell_angle_gamma	90.002631
loop_
_atom_site_label
_atom_site_type_symbol
_atom_site_fract_x
_atom_site_fract_y
_atom_site_fract_z
O1	O	1.223874	0.049109	0.120879
O2	O	1.473874	0.299109	0.370879
O3	O	1.723874	0.549109	0.620879
O4	O	1.973874	0.799109	0.870879
O5	O	0.955397	0.049127	0.135115
O6	O	1.205397	0.299127	0.385115
O7	O	1.455397	0.549127	0.635115
O8	O	1.705397	0.799127	0.885115
O9	O	1.096754	0.049112	-0.006241
O10	O	1.346754	0.299112	0.243759
O11	O	1.596754	0.549112	0.493759
O12	O	1.846754	0.799112	0.743759
O13	O	1.082517	0.049124	0.262235
O14	O	1.332517	0.299124	0.512235
O15	O	1.582517	0.549124	0.762235
O16	O	1.832517	0.799124	1.012235
O17	O	1.096729	-0.049257	-0.006221
O18	O	1.346729	0.200743	0.243779
O19	O	1.596729	0.450743	0.493779
O20	O	1.846729	0.700743	0.743779
O21	O	0.955372	-0.049242	0.135136
O22	O	1.205372	0.200758	0.385136
O23	O	1.455372	0.450758	0.635136
O24	O	1.705372	0.700758	0.885136
O25	O	1.223849	-0.049260	0.120899
O26	O	1.473849	0.200740	0.370899
O27	O	1.723849	0.450740	0.620899
O28	O	1.973849	0.700740	0.870899
Zn29	Zn	1.089606	-0.064869	0.128021
Zn30	Zn	1.339606	0.185131	0.378021
Zn31	Zn	1.589606	0.435131	0.628021
Zn32	Zn	1.839606	0.685131	0.878021
Zn33	Zn	1.089639	0.064736	0.127994
Zn34	Zn	1.339639	0.314736	0.377994
Zn35	Zn	1.589639	0.564736	0.627994
Zn36	Zn	1.839639	0.814736	0.877994
O37	O	1.082492	-0.049245	0.262256
O38	O	1.332492	0.200755	0.512256
O39	O	1.582492	0.450755	0.762256
O40	O	1.832492	0.700755	1.012256
C41	C	0.921025	-0.000055	0.134462
C42	C	1.171025	0.249945	0.384462
C43	C	1.421025	0.499945	0.634462
C44	C	1.671025	0.749945	0.884462
C45	C	0.818643	-0.000048	0.132474
C46	C	1.068643	0.249952	0.382474
C47	C	1.318643	0.499952	0.632474
C48	C	1.568643	0.749952	0.882474
C49	C	0.443748	-0.000076	0.125154
C50	C	0.693748	0.249924	0.375154
C51	C	0.943748	0.499924	0.625154
C52	C	1.193748	0.749924	0.875154
C53	C	0.548056	-0.000068	0.127187
C54	C	0.798056	0.249932	0.377187
C55	C	1.048056	0.499932	0.627187
C56	C	1.298056	0.749932	0.877187
C57	C	0.631192	-0.000062	0.128814
C58	C	0.881192	0.249938	0.378814
C59	C	1.131192	0.499938	0.628814
C60	C	1.381192	0.749938	0.878814
C61	C	0.735507	-0.000055	0.130847
C62	C	0.985507	0.249945	0.380847
C63	C	1.235507	0.499945	0.630847
C64	C	1.485507	0.749945	0.880847
N65	N	1.089591	-0.153322	0.128039
N66	N	1.339591	0.096678	0.378039
N67	N	1.589591	0.346678	0.628039
N68	N	1.839591	0.596678	0.878039
C69	C	1.152235	-0.561970	0.065411
C70	C	1.402235	-0.311970	0.315411
C71	C	1.652235	-0.061970	0.565411
C72	C	1.902235	0.188030	0.815411
C73	C	1.152240	-0.623890	0.065404
C74	C	1.402240	-0.373890	0.315404
C75	C	1.652240	-0.123890	0.565404
C76	C	1.902240	0.126110	0.815404
O77	O	1.205463	-0.655914	0.012169
O78	O	1.455463	-0.405914	0.262169
O79	O	1.705463	-0.155914	0.512169
O80	O	1.955463	0.094086	0.762169
N81	N	1.089639	-0.654859	0.127975
N82	N	1.339639	-0.404859	0.377975
N83	N	1.589639	-0.154859	0.627975
N84	N	1.839639	0.095141	0.877975
C85	C	1.027022	-0.623905	0.190550
C86	C	1.277022	-0.373905	0.440550
C87	C	1.527022	-0.123905	0.690550
C88	C	1.777022	0.126095	0.940550
O89	O	0.973775	-0.655933	0.243770
O90	O	1.223775	-0.405933	0.493770
O91	O	1.473775	-0.155933	0.743770
O92	O	1.723775	0.094067	0.993770
C93	C	1.027014	-0.561986	0.190551
C94	C	1.277014	-0.311986	0.440551
C95	C	1.527014	-0.061986	0.690551
C96	C	1.777014	0.188014	0.940551
C97	C	1.089626	-0.531020	0.127983
C98	C	1.339626	-0.281020	0.377983
C99	C	1.589626	-0.031020	0.627983
C100	C	1.839626	0.218980	0.877983
C101	C	1.214841	-0.531004	0.002846
C102	C	1.464841	-0.281004	0.252846
C103	C	1.714841	-0.031004	0.502846
C104	C	1.964841	0.218996	0.752846
C105	C	1.214837	-0.469088	0.002855
C106	C	1.464837	-0.219088	0.252855
C107	C	1.714837	0.030912	0.502855
C108	C	1.964837	0.280912	0.752855
C109	C	1.152227	-0.438139	0.065427
C110	C	1.402227	-0.188139	0.315427
C111	C	1.652227	0.061861	0.565427
C112	C	1.902227	0.311861	0.815427
C113	C	1.089622	-0.469105	0.127991
C114	C	1.339622	-0.219105	0.377991
C115	C	1.589622	0.030895	0.627991
C116	C	1.839622	0.280895	0.877991
C117	C	0.964394	-0.531034	0.253121
C118	C	1.214394	-0.281034	0.503121
C119	C	1.464394	-0.031034	0.753121
C120	C	1.714394	0.218966	1.003121
C121	C	0.964391	-0.469111	0.253117
C122	C	1.214391	-0.219111	0.503117
C123	C	1.464391	0.030889	0.753117
C124	C	1.714391	0.280889	1.003117
C125	C	1.027002	-0.438145	0.190548
C126	C	1.277002	-0.188145	0.440548
C127	C	1.527002	0.061855	0.690548
C128	C	1.777002	0.311855	0.940548
C129	C	1.027009	-0.376240	0.190571
C130	C	1.277009	-0.126240	0.440571
C131	C	1.527009	0.123760	0.690571
C132	C	1.777009	0.373760	0.940571
N133	N	1.089610	-0.345270	0.128000
N134	N	1.339610	-0.095270	0.378000
N135	N	1.589610	0.154730	0.628000
N136	N	1.839610	0.404730	0.878000
C137	C	1.152219	-0.376220	0.065428
C138	C	1.402219	-0.126220	0.315428
C139	C	1.652219	0.123780	0.565428
C140	C	1.902219	0.373780	0.815428
C141	C	1.027044	-0.753939	0.190541
C142	C	1.277044	-0.503939	0.440541
C143	C	1.527044	-0.253939	0.690541
C144	C	1.777044	-0.003939	0.940541
C145	C	1.027056	-0.815856	0.190544
C146	C	1.277056	-0.565856	0.440544
C147	C	1.527056	-0.315856	0.690544
C148	C	1.777056	-0.065856	0.940544
C149	C	1.152272	-0.815837	0.065397
C150	C	1.402272	-0.565837	0.315397
C151	C	1.652272	-0.315837	0.565397
C152	C	1.902272	-0.065837	0.815397
C153	C	1.152264	-0.753918	0.065399
C154	C	1.402264	-0.503918	0.315399
C155	C	1.652264	-0.253918	0.565399
C156	C	1.902264	-0.003918	0.815399
C157	C	1.089645	-0.722970	0.127970
C158	C	1.339645	-0.472970	0.377970
C159	C	1.589645	-0.222970	0.627970
C160	C	1.839645	0.027030	0.877970
C161	C	1.152207	-0.246193	0.065450
C162	C	1.402207	0.003807	0.315450
C163	C	1.652207	0.253807	0.565450
C164	C	1.902207	0.503807	0.815450
C165	C	1.152200	-0.184271	0.065467
C166	C	1.402200	0.065729	0.315467
C167	C	1.652200	0.315729	0.565467
C168	C	1.902200	0.565729	0.815467
C169	C	1.026981	-0.184296	0.190610
C170	C	1.276981	0.065704	0.440610
C171	C	1.526981	0.315704	0.690610
C172	C	1.776981	0.565704	0.940610
C173	C	1.026991	-0.246212	0.190598
C174	C	1.276991	0.003788	0.440598
C175	C	1.526991	0.253788	0.690598
C176	C	1.776991	0.503788	0.940598
C177	C	1.089607	-0.277159	0.128010
C178	C	1.339607	-0.027159	0.378010
C179	C	1.589607	0.222841	0.628010
C180	C	1.839607	0.472841	0.878010
O181	O	0.973810	-0.344176	0.243777
O182	O	1.223810	-0.094176	0.493777
O183	O	1.473810	0.155824	0.743777
O184	O	1.723810	0.405824	0.993777
O185	O	1.205449	-0.344185	0.012209
O186	O	1.455449	-0.094185	0.262209
O187	O	1.705449	0.155815	0.512209
O188	O	1.955449	0.405815	0.762209
C189	C	1.258221	-0.000077	0.121553
C190	C	1.508221	0.249923	0.371553
C191	C	1.758221	0.499923	0.621553
C192	C	2.008221	0.749923	0.871553
C193	C	1.360602	-0.000080	0.123541
C194	C	1.610602	0.249920	0.373541
C195	C	1.860602	0.499920	0.623541
C196	C	2.110602	0.749920	0.873541
C197	C	1.096078	-0.000073	-0.040591
C198	C	1.346078	0.249927	0.209409
C199	C	1.596078	0.499927	0.459409
C200	C	1.846078	0.749927	0.709409
C201	C	1.094090	-0.000073	-0.142972
C202	C	1.344090	0.249927	0.107028
C203	C	1.594090	0.499927	0.357028
C204	C	1.844090	0.749927	0.607028
N205	N	1.089662	0.153189	0.127968
N206	N	1.339662	0.403189	0.377968
N207	N	1.589662	0.653189	0.627968
N208	N	1.839662	0.903189	0.877968
C209	C	1.086770	-0.000057	-0.517868
C210	C	1.336770	0.249943	-0.267868
C211	C	1.586770	0.499943	-0.017868
C212	C	1.836770	0.749943	0.232132
C213	C	1.088803	-0.000061	-0.413560
C214	C	1.338803	0.249939	-0.163560
C215	C	1.588803	0.499939	0.086440
C216	C	1.838803	0.749939	0.336440
C217	C	1.090430	-0.000065	-0.330423
C218	C	1.340430	0.249935	-0.080423
C219	C	1.590430	0.499935	0.169577
C220	C	1.840430	0.749935	0.419577
C221	C	1.092463	-0.000069	-0.226109
C222	C	1.342463	0.249931	0.023891
C223	C	1.592463	0.499931	0.273891
C224	C	1.842463	0.749931	0.523891
C225	C	1.083168	-0.000059	0.296606
C226	C	1.333168	0.249941	0.546606
C227	C	1.583168	0.499941	0.796606
C228	C	1.833168	0.749941	1.046606
C229	C	1.085156	-0.000055	0.398987
C230	C	1.335156	0.249945	0.648987
C231	C	1.585156	0.499945	0.898987
C232	C	1.835156	0.749945	1.148987
H233	H	1.203189	-0.159061	0.014516
H234	H	1.453189	0.090939	0.264516
H235	H	1.703189	0.340939	0.514516
H236	H	1.953189	0.590939	0.764516
H237	H	1.203251	-0.841047	0.014446
H238	H	1.453251	-0.591047	0.264446
H239	H	1.703251	-0.341047	0.514446
H240	H	1.953251	-0.091047	0.764446
H241	H	0.976082	-0.841065	0.241503
H242	H	1.226082	-0.591065	0.491503
H243	H	1.476082	-0.341065	0.741503
H244	H	1.726082	-0.091065	0.991503
H245	H	0.913410	-0.556238	0.304070
H246	H	1.163410	-0.306238	0.554070
H247	H	1.413410	-0.056238	0.804070
H248	H	1.663410	0.193762	1.054070
F249	F	0.960352	-0.151348	0.257203
F250	F	1.210352	0.098652	0.507203
F251	F	1.460352	0.348652	0.757203
F252	F	1.710352	0.598652	1.007203
F253	F	1.218851	-0.279119	-0.001162
F254	F	1.468851	-0.029119	0.248838
F255	F	1.718851	0.220881	0.498838
F256	F	1.968851	0.470881	0.748838
F257	F	0.960398	-0.721006	0.257148
F258	F	1.210398	-0.471006	0.507148
F259	F	1.460398	-0.221006	0.757148
F260	F	1.710398	0.028994	1.007148
F261	F	1.281472	-0.436138	-0.063743
F262	F	1.531472	-0.186138	0.186257
F263	F	1.781472	0.063862	0.436257
F264	F	2.031472	0.313862	0.686257
H265	H	0.976016	-0.271425	0.241556
H266	H	1.226016	-0.021425	0.491556
H267	H	1.476016	0.228575	0.741556
H268	H	1.726016	0.478575	0.991556
H269	H	0.913396	-0.443915	0.304069
H270	H	1.163396	-0.193915	0.554069
H271	H	1.413396	0.056085	0.804069
H272	H	1.663396	0.306085	1.054069
H273	H	1.265825	-0.556198	-0.048112
H274	H	1.515825	-0.306198	0.201888
H275	H	1.765825	-0.056198	0.451888
H276	H	2.015825	0.193802	0.701888
H277	H	1.203247	-0.728709	0.014450
H278	H	1.453247	-0.478709	0.264450
H279	H	1.703247	-0.228709	0.514450
H280	H	1.953247	0.021291	0.764450
