data_functionalizedCrystal
_audit_creation_method	'MofGen! by Chris Wilmer'
_symmetry_space_group_name_H-M	'P1'
_symmetry_Int_Tables_number	1
_symmetry_cell_setting	triclinic
loop_
_symmetry_equiv_pos_as_xyz
  x,y,z
_cell_length_a	19.288867
_cell_length_b	18.366186
_cell_length_c	19.288859
_cell_angle_alpha	89.994011
_cell_angle_beta	96.864603
_cell_angle_gamma	90.007559
loop_
_atom_site_label
_atom_site_type_symbol
_atom_site_fract_x
_atom_site_fract_y
_atom_site_fract_z
O1	O	-0.921350	-0.060524	0.086656
O2	O	-0.719089	-0.060531	0.098343
O3	O	-0.826066	-0.060523	-0.008631
O4	O	-0.814373	-0.060532	0.193630
O5	O	-0.826048	0.060577	-0.008637
O6	O	-0.719071	0.060569	0.098338
O7	O	-0.921332	0.060576	0.086650
Zn8	Zn	-0.820199	0.079799	0.092493
Zn9	Zn	-0.820222	-0.079754	0.092500
O10	O	-0.814355	0.060568	0.193625
C11	C	-0.693204	0.000018	0.097964
C12	C	-0.616100	0.000015	0.096834
C13	C	-0.825682	0.000026	-0.034511
C14	C	-0.824554	0.000025	-0.111614
C15	C	-0.947217	0.000025	0.087029
C16	C	-1.024321	0.000023	0.088159
C17	C	-0.060545	-0.065987	0.088701
C18	C	-0.132992	-0.065990	0.089758
C19	C	-0.169211	0.000021	0.090287
C20	C	-0.132979	0.066040	0.089741
C21	C	-0.060534	0.066041	0.088677
C22	C	-0.278530	0.050593	0.132653
C23	C	-0.350973	0.050589	0.133721
C24	C	-0.392657	0.000021	0.093566
C25	C	-0.361887	-0.050555	0.052352
C26	C	-0.289442	-0.050554	0.051288
C27	C	-0.247766	0.000028	0.091441
C28	C	-0.507437	-0.065996	0.095254
C29	C	-0.579886	-0.065996	0.096307
C30	C	-0.579870	0.066035	0.096296
C31	C	-0.507423	0.066034	0.095237
C32	C	-0.471210	0.000016	0.094719
N33	N	-0.820187	0.188690	0.092488
N34	N	-0.820239	-0.188646	0.092500
C35	C	-0.867572	0.226794	0.045143
C36	C	-0.867577	0.303022	0.045140
C37	C	-0.820203	0.341143	0.092494
C38	C	-0.772809	0.303030	0.139842
C39	C	-0.772801	0.226804	0.139839
C40	C	-0.810903	0.461900	0.155782
C41	C	-0.810916	0.538125	0.155785
C42	C	-0.820222	0.576251	0.092502
C43	C	-0.829531	0.538142	0.029213
C44	C	-0.829524	0.461915	0.029210
C45	C	-0.820205	0.423798	0.092502
C46	C	-0.867615	0.697010	0.045150
C47	C	-0.867614	0.773239	0.045146
C48	C	-0.772850	0.773245	0.139855
C49	C	-0.772847	0.697017	0.139853
C50	C	-0.820233	0.658904	0.092501
C51	C	-0.879698	0.000008	-0.675655
C52	C	-0.880763	0.000014	-0.603208
C53	C	-0.817994	0.000012	-0.558502
C54	C	-0.754154	0.000022	-0.586247
C55	C	-0.753091	0.000022	-0.658693
C56	C	-0.771187	-0.042415	-0.437227
C57	C	-0.772253	-0.042420	-0.364783
C58	C	-0.821271	0.000013	-0.335056
C59	C	-0.869235	0.042442	-0.377783
C60	C	-0.868171	0.042442	-0.450228
C61	C	-0.819140	0.000012	-0.479946
C62	C	-0.886261	0.000015	-0.228764
C63	C	-0.887324	0.000026	-0.156316
C64	C	-0.760714	0.000026	-0.139356
C65	C	-0.759653	0.000023	-0.211803
C66	C	-0.822429	0.000014	-0.256503
C67	C	-0.814739	0.000017	0.219504
C68	C	-0.815867	0.000013	0.296608
H69	H	-0.031065	-0.119744	0.088276
H70	H	-0.264392	-0.091734	0.017728
Br71	Br	-0.708538	0.645299	0.204112
Br72	Br	-0.842171	0.589873	-0.056678
H73	H	-0.907224	0.076991	-0.485014
Br74	Br	-0.708488	0.175087	0.204098
Br75	Br	-0.931921	0.645282	-0.019114
H76	H	-0.477929	0.119786	0.094798
Br77	Br	-0.708510	0.354763	0.204104
H78	H	-0.837102	0.430890	-0.022322
Br79	Br	-0.964893	0.000002	-0.736316
H80	H	-0.906199	0.804264	0.006588
Br81	Br	-0.935768	0.100029	-0.337450
Br82	Br	-0.931889	0.354744	-0.019120
Br83	Br	-0.011368	0.155633	0.087942
H84	H	-0.376018	0.091756	0.167297
H85	H	-0.803340	0.569148	0.207319
H86	H	-0.609359	0.119783	0.096725
H87	H	-0.703047	0.000022	-0.549843
H88	H	-0.395824	-0.091734	0.019656
Br89	Br	-0.708549	0.824974	0.204114
H90	H	-0.244597	0.091779	0.165348
H91	H	-0.932743	0.000010	-0.580619
H92	H	-0.162473	0.119787	0.090170
Br93	Br	-0.182165	-0.155581	0.090494
H94	H	-0.803312	0.430865	0.207318
Br95	Br	-0.931877	0.175069	-0.019120
Br96	Br	-0.971455	0.000005	-0.289432
Br97	Br	-0.973960	0.000018	-0.118671
H98	H	-0.709606	0.000031	-0.102957
Br99	Br	-0.458287	-0.155589	0.094547
H100	H	-0.707675	0.000022	-0.234387
Br101	Br	-0.629051	-0.155590	0.097032
Br102	Br	-0.707169	-0.100010	-0.306805
Br103	Br	-0.704651	-0.100000	-0.477561
Br104	Br	-0.666456	0.000031	-0.696340
