data_functionalizedCrystal
_audit_creation_method	'MofGen! by Chris Wilmer'
_symmetry_space_group_name_H-M	'P1'
_symmetry_Int_Tables_number	1
_symmetry_cell_setting	triclinic
loop_
_symmetry_equiv_pos_as_xyz
  x,y,z
_cell_length_a	13.033293
_cell_length_b	16.959453
_cell_length_c	13.032268
_cell_angle_alpha	97.145221
_cell_angle_beta	89.079182
_cell_angle_gamma	97.192087
loop_
_atom_site_label
_atom_site_type_symbol
_atom_site_fract_x
_atom_site_fract_y
_atom_site_fract_z
Zn1	Zn	1.498435	-0.245916	-0.781464
Zn2	Zn	1.520166	-0.359507	-0.609483
Zn3	Zn	1.348296	-0.241742	-0.587640
Zn4	Zn	1.326413	-0.392458	-0.759521
O5	O	1.423328	-0.309906	-0.684527
O6	O	1.645238	-0.248941	-0.776975
O7	O	1.515620	-0.328348	-0.462678
O8	O	1.368276	-0.131683	-0.613394
O9	O	1.661203	-0.332396	-0.650621
O10	O	1.478583	-0.134750	-0.755795
O11	O	1.389348	-0.241827	-0.446630
O12	O	1.201473	-0.273778	-0.592116
O13	O	1.330980	-0.388556	-0.906339
O14	O	1.185396	-0.384508	-0.718396
O15	O	1.457364	-0.280892	-0.922461
O16	O	1.494400	-0.474491	-0.629343
O17	O	1.352051	-0.498700	-0.739575
C18	C	1.156118	-0.332266	-0.650505
C19	C	1.041801	-0.341854	-0.635974
C20	C	0.982923	-0.304922	-0.692110
C21	C	0.864771	-0.314830	-0.677094
C22	C	1.423234	-0.515276	-0.684474
C23	C	1.423284	-0.603130	-0.684498
C24	C	1.365938	-0.642864	-0.610320
C25	C	1.480671	-0.645949	-0.758705
C26	C	1.480716	-0.728493	-0.758733
C27	C	1.423370	-0.768227	-0.684555
C28	C	1.365979	-0.725416	-0.610348
C29	C	1.538098	-0.771311	-0.832945
C30	C	1.538144	-0.853860	-0.832978
C31	C	1.480804	-0.893595	-0.758794
C32	C	1.423411	-0.850779	-0.684583
C33	C	1.366065	-0.890513	-0.610404
C34	C	1.308678	-0.847697	-0.536188
C35	C	1.308638	-0.765150	-0.536164
C36	C	1.480843	-0.976142	-0.758818
C37	C	1.366106	-0.973065	-0.610433
C38	C	1.691581	-0.287459	-0.718683
C39	C	1.805895	-0.277893	-0.733238
C40	C	1.389307	-0.338865	-0.952757
C41	C	1.374809	-0.351206	-1.067060
C42	C	1.423447	-0.103734	-0.684606
C43	C	1.423497	-0.015875	-0.684640
C44	C	1.430878	-0.303438	-1.125997
C45	C	1.415896	-0.316192	-1.244136
C46	C	1.457275	-0.280997	-0.417349
C47	C	1.471972	-0.268417	-0.303071
H48	H	1.004737	-0.380806	-0.576795
C49	C	1.303022	-1.016766	-0.528836
H50	H	1.268836	-0.979444	-0.484642
H51	H	1.348093	-1.040833	-0.489091
H52	H	1.253199	-1.056977	-0.562444
H53	H	1.261981	-0.880060	-0.475797
H54	H	0.842954	-0.238931	-0.792414
H55	H	1.261915	-0.730285	-0.475741
H56	H	1.319217	-0.608001	-0.549891
C57	C	1.551810	-0.200410	-1.253100
H58	H	1.551413	-0.200761	-1.180254
H59	H	1.534581	-0.150441	-1.268760
H60	H	1.618698	-0.208083	-1.279447
H61	H	1.019988	-0.265964	-0.751284
H62	H	1.315708	-0.401539	-1.104063
H63	H	0.827711	-0.353785	-0.617910
H64	H	1.527354	-0.613596	-0.819104
C65	C	1.601173	-0.727604	-0.914533
H66	H	1.592938	-0.672308	-0.903877
H67	H	1.577307	-0.749837	-0.981697
H68	H	1.672200	-0.733690	-0.908343
H69	H	1.489969	-0.253098	-1.088993
C70	C	1.601275	-0.900952	-0.914599
H71	H	1.593087	-0.955805	-0.903996
H72	H	1.672282	-0.879975	-0.908403
H73	H	1.577390	-0.896138	-0.981758
H74	H	1.527552	-1.011001	-0.819255
C75	C	1.336063	-0.384201	-1.294110
H76	H	1.336472	-0.383856	-1.366957
H77	H	1.269176	-0.376540	-1.267764
H78	H	1.353307	-0.434171	-1.278453
