data_functionalizedCrystal
_audit_creation_method	'MofGen! by Chris Wilmer'
_symmetry_space_group_name_H-M	'P1'
_symmetry_Int_Tables_number	1
_symmetry_cell_setting	triclinic
loop_
_symmetry_equiv_pos_as_xyz
  x,y,z
_cell_length_a	10.685980
_cell_length_b	12.827892
_cell_length_c	10.685880
_cell_angle_alpha	94.339766
_cell_angle_beta	80.918858
_cell_angle_gamma	94.382190
loop_
_atom_site_label
_atom_site_type_symbol
_atom_site_fract_x
_atom_site_fract_y
_atom_site_fract_z
Zn1	Zn	1.995735	-0.344322	-0.866677
Zn2	Zn	1.979324	-0.506673	-0.654423
Zn3	Zn	1.767175	-0.344377	-0.638150
Zn4	Zn	1.783436	-0.531457	-0.850327
O5	O	1.881418	-0.431707	-0.752394
O6	O	2.171191	-0.355463	-0.852175
O7	O	1.937508	-0.474795	-0.474639
O8	O	1.797558	-0.198132	-0.668497
O9	O	2.159133	-0.474741	-0.696232
O10	O	1.965480	-0.198091	-0.836395
O11	O	1.781644	-0.355557	-0.462683
O12	O	1.591700	-0.379589	-0.652642
O13	O	1.825271	-0.516982	-1.030122
O14	O	1.603646	-0.517036	-0.808528
O15	O	1.981247	-0.379495	-1.042134
O16	O	1.953275	-0.656198	-0.680378
O17	O	1.809357	-0.674407	-0.824308
C18	C	1.551615	-0.451009	-0.727046
C19	C	1.410526	-0.459293	-0.716232
C20	C	1.881336	-0.703220	-0.752365
C21	C	1.881421	-0.819370	-0.752404
C22	C	1.964485	-0.871058	-0.835552
C23	C	1.964574	-0.991105	-0.835593
C24	C	2.212508	-0.412331	-0.777843
C25	C	2.353599	-0.404074	-0.788687
C26	C	1.906903	-0.450997	-1.083472
C27	C	1.917764	-0.459217	-1.224558
C28	C	1.881536	-0.159133	-0.752455
C29	C	1.881586	-0.042979	-0.752480
C30	C	1.856104	-0.412413	-0.422610
C31	C	1.845489	-0.403884	-0.281544
H32	H	1.412799	-0.350455	-0.858990
C33	C	1.330554	-0.531729	-0.621240
C34	C	1.231708	-0.485814	-0.514766
C35	C	1.151736	-0.558249	-0.419776
C36	C	1.170610	-0.676599	-0.431259
C37	C	1.269459	-0.722520	-0.537737
C38	C	1.349431	-0.650085	-0.632727
H39	H	1.217733	-0.398199	-0.506262
H40	H	1.078561	-0.524255	-0.340954
H41	H	1.111410	-0.730220	-0.360942
H42	H	1.283434	-0.810136	-0.546242
H43	H	1.422606	-0.684080	-0.711549
H44	H	2.035693	-1.035555	-0.906775
H45	H	2.035530	-0.826438	-0.906712
C46	C	1.785505	-0.982946	-0.656302
C47	C	1.832955	-0.898848	-0.560988
C48	C	1.736874	-0.838807	-0.464810
C49	C	1.593343	-0.862862	-0.463945
C50	C	1.545886	-0.946963	-0.559262
C51	C	1.641967	-1.007005	-0.655440
H52	H	1.939212	-0.881038	-0.561625
H53	H	1.772006	-0.776549	-0.394250
H54	H	1.522218	-0.818416	-0.392748
H55	H	1.439629	-0.964774	-0.558625
H56	H	1.606835	-1.069263	-0.726000
H57	H	1.810367	-0.863994	-0.681254
C58	C	1.750659	-0.331386	-1.201649
C59	C	1.739552	-0.322986	-1.055844
C60	C	1.644720	-0.250487	-0.975940
C61	C	1.560995	-0.186389	-1.041841
C62	C	1.572100	-0.194787	-1.187653
C63	C	1.666931	-0.267285	-1.267557
H64	H	1.801532	-0.370438	-1.007054
H65	H	1.636500	-0.244271	-0.868000
H66	H	1.490795	-0.132721	-0.982691
H67	H	1.510119	-0.147335	-1.236443
H68	H	1.675151	-0.273502	-1.375498
H69	H	1.987960	-0.512884	-1.283712
