data_functionalizedCrystal
_audit_creation_method	'MofGen! by Chris Wilmer'
_symmetry_space_group_name_H-M	'P1'
_symmetry_Int_Tables_number	1
_symmetry_cell_setting	triclinic
loop_
_symmetry_equiv_pos_as_xyz
  x,y,z
_cell_length_a	13.339070
_cell_length_b	9.065218
_cell_length_c	8.140239
_cell_angle_alpha	90.001330
_cell_angle_beta	90.002144
_cell_angle_gamma	100.322590
loop_
_atom_site_label
_atom_site_type_symbol
_atom_site_fract_x
_atom_site_fract_y
_atom_site_fract_z
O1	O	1.349081	0.742385	0.136648
O2	O	1.053661	0.644942	0.136641
O3	O	1.207477	0.481402	0.136641
O4	O	1.195264	0.905925	0.136648
O5	O	1.207472	0.481398	-0.136586
O6	O	1.053656	0.644938	-0.136586
O7	O	1.349076	0.742381	-0.136580
Zn8	Zn	1.201365	0.693659	-0.179963
Zn9	Zn	1.201371	0.693664	0.180025
O10	O	1.195259	0.905921	-0.136580
C11	C	1.015818	0.628480	0.000027
C12	C	0.903067	0.579416	0.000025
C13	C	1.206301	0.425956	0.000030
C14	C	1.202791	0.260745	0.000038
C15	C	0.541769	0.960908	0.000056
C16	C	0.647704	1.007010	0.000064
C17	C	0.711550	0.900116	0.000053
C18	C	0.669450	0.747111	0.000037
C19	C	0.563505	0.701004	0.000042
C20	C	0.733286	0.640212	0.000039
C21	C	0.691186	0.487207	0.000023
C22	C	0.585251	0.441108	0.000027
C23	C	0.521405	0.548003	0.000037
C24	C	0.839231	0.686319	0.000034
C25	C	0.860967	0.426415	0.000020
C26	C	0.755032	0.380313	0.000012
C27	C	1.386918	0.758843	0.000038
C28	C	1.499669	0.807907	0.000051
C29	C	1.196436	0.961367	0.000035
C30	C	1.199945	1.126579	0.000038
N31	N	1.201368	0.693658	-0.425646
N32	N	1.201376	0.693657	0.425708
H33	H	0.797807	0.937662	0.000063
O34	O	0.879999	0.834979	0.000261
C35	C	0.893873	1.071200	0.141874
C36	C	0.847621	0.902863	0.141805
H37	H	0.867731	1.126128	0.256317
H38	H	0.867645	1.126305	0.027612
H39	H	0.980555	1.085768	0.141789
H40	H	0.760937	0.888160	0.141947
H41	H	0.873930	0.847839	0.256057
H42	H	0.489778	1.047925	0.000079
O43	O	0.922872	0.322426	-0.000212
C44	C	0.973911	0.114456	-0.141818
C45	C	0.903721	0.232107	-0.141749
H46	H	0.958467	0.041422	-0.256256
H47	H	0.958438	0.041204	-0.027550
H48	H	1.056851	0.173724	-0.141745
H49	H	0.820757	0.172964	-0.141881
H50	H	0.919282	0.305352	-0.256007
H51	H	0.435143	0.510474	0.000031
H52	H	0.681974	1.131586	0.000090
H53	H	0.720739	0.255734	0.000013
O54	O	0.544308	0.292499	0.000319
C55	C	0.437279	0.089631	0.141830
C56	C	0.483594	0.257946	0.141720
H57	H	0.388165	0.061648	0.256123
H58	H	0.501066	0.021076	0.141928
H59	H	0.388261	0.061582	0.027438
H60	H	0.532602	0.286135	0.256092
H61	H	0.419758	0.326410	0.141536
