data_functionalizedCrystal
_audit_creation_method	'MofGen! by Chris Wilmer'
_symmetry_space_group_name_H-M	'P1'
_symmetry_Int_Tables_number	1
_symmetry_cell_setting	triclinic
loop_
_symmetry_equiv_pos_as_xyz
  x,y,z
_cell_length_a	13.897449
_cell_length_b	13.897447
_cell_length_c	18.215398
_cell_angle_alpha	90.019732
_cell_angle_beta	89.981836
_cell_angle_gamma	89.977525
loop_
_atom_site_label
_atom_site_type_symbol
_atom_site_fract_x
_atom_site_fract_y
_atom_site_fract_z
Zn1	Zn	1.474655	0.384016	-0.416119
Zn2	Zn	1.974655	0.884016	0.083881
Zn3	Zn	1.474546	0.545318	-0.293065
Zn4	Zn	1.974546	1.045318	0.206935
Zn5	Zn	1.313351	0.384043	-0.293070
Zn6	Zn	1.813351	0.884043	0.206930
Zn7	Zn	1.313316	0.545274	-0.416093
Zn8	Zn	1.813316	1.045274	0.083907
O9	O	1.393967	0.464663	-0.354587
O10	O	1.893967	0.964663	0.145413
O11	O	1.609622	0.405420	-0.399805
O12	O	2.109622	0.905420	0.100195
O13	O	1.453133	0.523955	-0.190082
O14	O	1.953133	1.023955	0.309918
O15	O	1.334809	0.249058	-0.309405
O16	O	1.834809	0.749058	0.190595
O17	O	1.609542	0.523929	-0.309398
O18	O	2.109542	1.023929	0.190602
O19	O	1.453318	0.249038	-0.399809
O20	O	1.953318	0.749038	0.100191
O21	O	1.334703	0.405466	-0.190085
O22	O	1.834703	0.905466	0.309915
O23	O	1.178365	0.405423	-0.309380
O24	O	1.678365	0.905423	0.190620
O25	O	1.334748	0.523853	-0.519081
O26	O	1.834748	1.023853	-0.019081
O27	O	1.178339	0.523879	-0.399764
O28	O	1.678339	1.023879	0.100236
O29	O	1.453283	0.405377	-0.519100
O30	O	1.953283	0.905377	-0.019100
O31	O	1.453098	0.680294	-0.309372
O32	O	1.953098	1.180294	0.190628
O33	O	1.334643	0.680262	-0.399760
O34	O	1.834643	1.180262	0.100240
C35	C	1.143353	0.464650	-0.354570
C36	C	1.643353	0.964650	0.145430
C37	C	1.036139	0.464668	-0.354580
C38	C	1.536139	0.964668	0.145420
C39	C	1.393881	0.715277	-0.354579
C40	C	1.893881	1.215277	0.145421
C41	C	1.393933	0.822491	-0.354600
C42	C	1.893933	1.322491	0.145400
C43	C	0.839843	0.464671	-0.354600
C44	C	1.339843	0.964671	0.145400
C45	C	0.949076	0.464666	-0.354587
C46	C	1.449076	0.964666	0.145413
C47	C	1.393977	0.909561	-0.354620
C48	C	1.893977	1.409561	0.145380
C49	C	1.394041	1.018793	-0.354643
C50	C	1.894041	1.518793	0.145357
C51	C	1.645560	0.464676	-0.354604
C52	C	2.145560	0.964676	0.145396
C53	C	1.752774	0.464682	-0.354612
C54	C	2.252774	0.964682	0.145388
C55	C	1.394024	0.464607	-0.546540
C56	C	1.894024	0.964607	-0.046540
C57	C	1.394048	0.464584	-0.628339
C58	C	1.894048	0.964584	-0.128339
C59	C	1.394072	1.213070	-0.354620
C60	C	1.894072	1.713070	0.145380
C61	C	1.394098	1.105856	-0.354658
C62	C	1.894098	1.605856	0.145342
C63	C	1.455758	0.526162	-0.893399
C64	C	1.955758	1.026162	-0.393399
C65	C	1.455744	0.526195	-0.816541
C66	C	1.955744	1.026195	-0.316541
C67	C	1.332411	0.402820	-0.816527
C68	C	1.832411	0.902820	-0.316527
C69	C	1.332422	0.402792	-0.893384
C70	C	1.832422	0.902792	-0.393384
C71	C	1.394101	0.464461	-0.931819
C72	C	1.894101	0.964461	-0.431819
C73	C	1.394076	0.464523	-0.778102
C74	C	1.894076	0.964523	-0.278102
C75	C	1.394059	0.464559	-0.694769
C76	C	1.894059	0.964559	-0.194769
C77	C	1.394116	0.464427	-1.015158
C78	C	1.894116	0.964427	-0.515158
C79	C	1.393965	0.464648	-0.163381
C80	C	1.893965	0.964648	0.336619
C81	C	1.394128	0.464400	-0.081582
C82	C	1.894128	0.964400	0.418418
H83	H	1.505952	0.576438	-0.785263
H84	H	2.005952	1.076438	-0.285263
H85	H	1.505981	0.576378	-0.924690
H86	H	2.005981	1.076378	-0.424690
O87	O	1.272596	0.342941	-0.779077
O88	O	1.772596	0.842941	-0.279077
C89	C	1.285792	0.356210	-0.703002
C90	C	1.785792	0.856210	-0.203002
H91	H	1.360218	0.387805	-0.692515
H92	H	1.860218	0.887805	-0.192515
H93	H	1.228554	0.407583	-0.681177
H94	H	1.728554	0.907583	-0.181177
C95	C	1.185576	0.219819	-0.676427
C96	C	1.685576	0.719819	-0.176427
C97	C	1.276991	0.258618	-0.663547
C98	C	1.776991	0.758618	-0.163547
H99	H	1.180144	0.159621	-0.652088
H100	H	1.680144	0.659621	-0.152088
H101	H	1.176683	0.210882	-0.727680
H102	H	1.676683	0.710882	-0.227680
H103	H	1.137888	0.262639	-0.658240
H104	H	1.637888	0.762639	-0.158240
H105	H	1.324677	0.215803	-0.681742
H106	H	1.824677	0.715803	-0.181742
H107	H	1.285893	0.267546	-0.612296
H108	H	1.785893	0.767546	-0.112296
H109	H	1.282208	0.352547	-0.924666
H110	H	1.782208	0.852547	-0.424666
