data_functionalizedCrystal
_audit_creation_method	'MofGen! by Chris Wilmer'
_symmetry_space_group_name_H-M	'P1'
_symmetry_Int_Tables_number	1
_symmetry_cell_setting	triclinic
loop_
_symmetry_equiv_pos_as_xyz
  x,y,z
_cell_length_a	12.759401
_cell_length_b	12.759394
_cell_length_c	12.759393
_cell_angle_alpha	89.968225
_cell_angle_beta	89.979527
_cell_angle_gamma	90.016362
loop_
_atom_site_label
_atom_site_type_symbol
_atom_site_fract_x
_atom_site_fract_y
_atom_site_fract_z
Zn1	Zn	1.606261	-0.418167	-0.594015
Zn2	Zn	1.606153	-0.593885	-0.418333
Zn3	Zn	1.430561	-0.418225	-0.418350
Zn4	Zn	1.430551	-0.593809	-0.593970
O5	O	1.518381	-0.506021	-0.506167
O6	O	1.753267	-0.441484	-0.570722
O7	O	1.582819	-0.570638	-0.271314
O8	O	1.453917	-0.271196	-0.441678
O9	O	1.753188	-0.570583	-0.441649
O10	O	1.583003	-0.271154	-0.570739
O11	O	1.453812	-0.441582	-0.271327
O12	O	1.283538	-0.441509	-0.441635
O13	O	1.453900	-0.570455	-0.740997
O14	O	1.283531	-0.570510	-0.570662
O15	O	1.582993	-0.441411	-0.741030
O16	O	1.582809	-0.740896	-0.441605
O17	O	1.453795	-0.740840	-0.570645
C18	C	1.245414	-0.506009	-0.506146
C19	C	1.128637	-0.506028	-0.506162
C20	C	1.073799	-0.573302	-0.573241
C21	C	0.964075	-0.573306	-0.573262
C22	C	0.964037	-0.438760	-0.439116
C23	C	1.073759	-0.438752	-0.439101
C24	C	0.814178	-0.611003	-0.697122
C25	C	0.759336	-0.678293	-0.764191
C26	C	0.794933	-0.780823	-0.780138
C27	C	0.885371	-0.816085	-0.728999
C28	C	0.940207	-0.748801	-0.661922
C29	C	0.904611	-0.646256	-0.645996
C30	C	1.223658	-0.401065	-0.315240
C31	C	1.278496	-0.333786	-0.248156
C32	C	1.242901	-0.231253	-0.232199
C33	C	1.152460	-0.195995	-0.283319
C34	C	1.097622	-0.263275	-0.350402
C35	C	1.133225	-0.365806	-0.366361
C36	C	1.518318	-0.778989	-0.506141
C37	C	1.518387	-0.895766	-0.506166
C38	C	1.652830	-0.895770	-0.371897
C39	C	1.720079	-0.950633	-0.304775
C40	C	1.720141	-1.060354	-0.304804
C41	C	1.652948	-1.115215	-0.371964
C42	C	1.585700	-1.060353	-0.439086
C43	C	1.585643	-0.950628	-0.439048
C44	C	1.451263	-1.060348	-0.573358
C45	C	1.451195	-0.950627	-0.573326
C46	C	1.384071	-1.115210	-0.640518
C47	C	1.316815	-1.060347	-0.707636
C48	C	1.316756	-0.950619	-0.707604
C49	C	1.383946	-0.895764	-0.640448
C50	C	1.792414	-0.506035	-0.506188
C51	C	1.909191	-0.506041	-0.506198
C52	C	1.518458	-0.505918	-0.780200
C53	C	1.518490	-0.505874	-0.896977
C54	C	1.518473	-0.231988	-0.506215
C55	C	1.518512	-0.115211	-0.506236
C56	C	1.585736	-0.438630	-1.061589
C57	C	1.585715	-0.438671	-0.951865
C58	C	1.451288	-0.573048	-0.951819
C59	C	1.451314	-0.573012	-1.061541
C60	C	1.709598	-0.401191	-0.801938
C61	C	1.776788	-0.334008	-0.747100
C62	C	1.792963	-0.231482	-0.782736
C63	C	1.741932	-0.196119	-0.873208
C64	C	1.674735	-0.263297	-0.928040
C65	C	1.658580	-0.365836	-0.892406
C66	C	1.327430	-0.610481	-1.211470
C67	C	1.260226	-0.677654	-1.266305
C68	C	1.244041	-0.780181	-1.230671
C69	C	1.295053	-0.815540	-1.140195
C70	C	1.362257	-0.748367	-1.085361
C71	C	1.378444	-0.645842	-1.121002
C72	C	1.518366	-0.506049	-0.233200
C73	C	1.518536	-0.505797	-0.116423
H74	H	1.252655	-0.484553	-0.328236
H75	H	1.396557	-0.627770	-0.907121
H76	H	1.281876	-0.899027	-1.111183
N77	N	1.132993	-0.645850	-0.645575
H78	H	1.178483	-0.694486	-0.602787
H79	H	1.081535	-0.688396	-0.688059
H80	H	1.262118	-1.105024	-0.762317
H81	H	1.384130	-1.204551	-0.640541
H82	H	1.403794	-0.777166	-1.011691
N83	N	1.000072	-0.225252	-0.405540
H84	H	0.985839	-0.150088	-0.385254
H85	H	1.010575	-0.229903	-0.483858
H86	H	1.287556	-0.176479	-0.177565
N87	N	1.244227	-0.891447	-0.780006
H88	H	1.201676	-0.942854	-0.822552
H89	H	1.195596	-0.846002	-0.737191
H90	H	1.340609	-0.526997	-1.240496
N91	N	1.652755	-0.777428	-0.371860
H92	H	1.580674	-0.751084	-0.352483
H93	H	1.705567	-0.751084	-0.319138
H94	H	1.774789	-0.905955	-0.250096
H95	H	1.640472	-0.383899	-1.106271
H96	H	1.013839	-0.777511	-0.620286
H97	H	0.914340	-0.899581	-0.741980
N98	N	1.692157	-0.511775	-0.763499
H99	H	1.641851	-0.548971	-0.811965
H100	H	1.761204	-0.550440	-0.762352
H101	H	1.383897	-0.806423	-0.640408
H102	H	1.774906	-1.105023	-0.250152
N103	N	1.619690	-0.225169	-1.025610
H104	H	1.640126	-0.150020	-1.039864
H105	H	1.640748	-0.270340	-1.087082
N106	N	1.653024	-1.233557	-0.372009
H107	H	1.705825	-1.259988	-0.319301
H108	H	1.580941	-1.259985	-0.352678
N109	N	1.759360	-0.085527	-0.911631
H110	H	1.809671	-0.048337	-0.863167
H111	H	1.789693	-0.087459	-0.984726
N112	N	0.735782	-0.853405	-0.852469
H113	H	0.673090	-0.815512	-0.882439
H114	H	0.783386	-0.876393	-0.911380
N115	N	1.865432	-0.159019	-0.723594
H116	H	1.895302	-0.196977	-0.660877
H117	H	1.924407	-0.136091	-0.771193
H118	H	0.685702	-0.649572	-0.805829
N119	N	1.205205	-0.639518	-1.363890
H120	H	1.160173	-0.697627	-1.393216
H121	H	1.159660	-0.577357	-1.345869
N122	N	1.114054	-0.085408	-0.266108
H123	H	1.162517	-0.048137	-0.215856
H124	H	1.112945	-0.046817	-0.335229
N125	N	0.775783	-0.500412	-0.679923
H126	H	0.774681	-0.461745	-0.749005
H127	H	0.702710	-0.502356	-0.649530
N128	N	1.831827	-0.372161	-0.649530
H129	H	1.910173	-0.367656	-0.659942
H130	H	1.810709	-0.327048	-0.588036
N131	N	0.904847	-0.366228	-0.366761
H132	H	0.827017	-0.376451	-0.376937
H133	H	0.924002	-0.382516	-0.291706
N134	N	1.376042	-0.371811	-0.193013
H135	H	1.390280	-0.446973	-0.213306
H136	H	1.437535	-0.326629	-0.214135
H137	H	1.189347	-0.834884	-1.275350
