data_functionalizedCrystal
_audit_creation_method	'MofGen! by Chris Wilmer'
_symmetry_space_group_name_H-M	'P1'
_symmetry_Int_Tables_number	1
_symmetry_cell_setting	triclinic
loop_
_symmetry_equiv_pos_as_xyz
  x,y,z
_cell_length_a	27.731993
_cell_length_b	26.809956
_cell_length_c	19.188930
_cell_angle_alpha	89.990297
_cell_angle_beta	97.117412
_cell_angle_gamma	90.004510
loop_
_atom_site_label
_atom_site_type_symbol
_atom_site_fract_x
_atom_site_fract_y
_atom_site_fract_z
O1	O	0.641206	0.041351	-0.082895
O2	O	0.500448	0.041382	-0.095567
O3	O	0.574889	0.041356	0.012452
O4	O	0.566765	0.041377	-0.190914
O5	O	0.574866	-0.041603	0.012452
O6	O	0.500425	-0.041577	-0.095567
O7	O	0.641183	-0.041608	-0.082895
Zn8	Zn	0.570800	-0.054764	-0.089231
Zn9	Zn	0.570830	0.054538	-0.089231
O10	O	0.566742	-0.041582	-0.190914
C11	C	0.482428	-0.000094	-0.095307
C12	C	0.428769	-0.000082	-0.094523
C13	C	0.045604	0.045114	-0.088846
C14	C	0.247271	0.045128	-0.091832
O15	O	0.273356	0.083588	-0.092190
N16	N	0.272480	-0.000092	-0.092205
C17	C	0.247269	-0.045319	-0.091828
O18	O	0.273339	-0.083781	-0.092207
C19	C	0.045604	-0.045332	-0.088837
C20	C	0.020397	-0.000109	-0.088471
C21	C	0.020397	0.090333	-0.088479
C22	C	-0.030017	0.090329	-0.087736
C23	C	-0.055224	0.045106	-0.087361
C24	C	-0.030017	-0.000113	-0.087728
C25	C	0.020395	-0.090558	-0.088455
C26	C	-0.030024	-0.090558	-0.087705
C27	C	-0.055231	-0.045335	-0.087339
C28	C	-0.105638	-0.045340	-0.086610
N29	N	-0.130847	-0.000120	-0.086237
C30	C	-0.105640	0.045103	-0.086612
C31	C	0.353146	-0.045309	-0.093399
C32	C	0.403562	-0.045305	-0.094148
C33	C	0.403560	0.045142	-0.094151
C34	C	0.353143	0.045138	-0.093407
C35	C	0.327937	-0.000089	-0.093026
C36	C	-0.211513	0.045091	-0.085053
C37	C	-0.261931	0.045083	-0.084314
C38	C	-0.261925	-0.045363	-0.084307
C39	C	-0.211511	-0.045355	-0.085051
C40	C	-0.186306	-0.000124	-0.085421
O41	O	-0.131753	-0.083780	-0.086244
O42	O	-0.131717	0.083559	-0.086217
C43	C	0.096018	0.045118	-0.089588
C44	C	0.121225	-0.000101	-0.089956
C45	C	0.096018	-0.045325	-0.089580
C46	C	0.171641	-0.000098	-0.090705
C47	C	0.196848	0.045125	-0.091080
C48	C	0.171639	0.090345	-0.090706
C49	C	0.121225	0.090341	-0.089964
C50	C	0.121227	-0.090545	-0.089954
C51	C	0.171641	-0.090537	-0.090697
C52	C	0.196848	-0.045314	-0.091073
N53	N	0.570783	-0.129360	-0.089230
C54	C	0.600050	-0.473989	-0.131270
C55	C	0.600066	-0.682866	-0.131270
O56	O	0.624937	-0.709872	-0.167006
N57	N	0.570842	-0.708987	-0.089224
C58	C	0.541615	-0.682886	-0.047171
O59	O	0.516762	-0.709896	-0.011403
C60	C	0.541602	-0.474009	-0.047169
C61	C	0.570824	-0.447891	-0.089223
C62	C	0.629271	-0.447870	-0.173321
C63	C	0.629264	-0.395654	-0.173323
C64	C	0.600038	-0.369556	-0.131276
C65	C	0.570818	-0.395674	-0.089225
C66	C	0.512377	-0.447909	-0.005113
C67	C	0.512378	-0.395686	-0.005115
C68	C	0.541600	-0.369568	-0.047169
C69	C	0.541585	-0.317360	-0.047181
N70	N	0.570809	-0.291239	-0.089227
C71	C	0.600036	-0.317337	-0.131274
C72	C	0.541623	-0.792549	-0.047177
C73	C	0.541625	-0.844768	-0.047178
C74	C	0.600077	-0.844745	-0.131276
C75	C	0.600072	-0.792525	-0.131278
C76	C	0.570846	-0.766428	-0.089223
C77	C	0.600020	-0.207679	-0.131277
C78	C	0.600010	-0.155458	-0.131278
C79	C	0.541560	-0.155486	-0.047178
C80	C	0.541568	-0.207702	-0.047179
C81	C	0.570802	-0.233798	-0.089231
O82	O	0.516731	-0.290322	-0.011457
O83	O	0.624893	-0.290318	-0.167025
C84	C	0.600057	-0.526205	-0.131268
C85	C	0.570836	-0.552323	-0.089218
C86	C	0.541610	-0.526225	-0.047170
C87	C	0.570839	-0.604542	-0.089219
C88	C	0.600065	-0.630640	-0.131267
C89	C	0.629289	-0.604519	-0.173313
C90	C	0.629283	-0.552303	-0.173315
C91	C	0.512386	-0.552347	-0.005124
C92	C	0.512394	-0.604563	-0.005125
C93	C	0.541621	-0.630661	-0.047173
C94	C	0.659203	-0.000132	-0.083155
C95	C	0.712862	-0.000140	-0.083938
C96	C	0.574614	-0.000125	0.038461
C97	C	0.573825	-0.000129	0.115960
N98	N	0.570851	0.129134	-0.089226
C99	C	0.567017	-0.000100	-0.216923
C100	C	0.567806	-0.000093	-0.294422
C101	C	0.617504	-0.000141	0.161175
C102	C	0.616762	-0.000133	0.233994
C103	C	0.572338	-0.000123	0.261595
C104	C	0.528653	-0.000108	0.216370
C105	C	0.529396	-0.000111	0.143553
N106	N	0.538373	-0.028348	0.369374
N107	N	0.537670	-0.028346	0.438548
C108	C	0.570096	-0.000112	0.480989
N109	N	0.603259	0.028113	0.451644
N110	N	0.603964	0.028109	0.382464
C111	C	0.571527	-0.000119	0.340552
C112	C	0.612975	-0.000115	0.605163
C113	C	0.612231	-0.000104	0.677982
C114	C	0.524120	-0.000084	0.660357
C115	C	0.524865	-0.000090	0.587538
C116	C	0.569294	-0.000108	0.559946
H117	H	-0.050544	-0.127387	-0.087401
H118	H	0.493826	-0.000102	0.106738
H119	H	0.623867	-0.771263	-0.165522
H120	H	0.517822	-0.771306	-0.012929
Br121	Br	0.639742	-0.880173	-0.188339
H122	H	0.489296	-0.000083	0.550723
Br123	Br	0.639695	-0.243086	-0.188347
H124	H	-0.282453	0.081911	-0.084017
Br125	Br	0.639666	-0.120015	-0.188363
H126	H	0.652333	-0.000141	0.270815
H127	H	0.487949	-0.000073	0.682828
H128	H	0.424092	0.081964	-0.094459
Br129	Br	0.501956	-0.880208	0.009884
Br130	Br	0.205858	0.151719	-0.091220
H131	H	0.040910	-0.127384	-0.088751
Br132	Br	0.205844	-0.151917	-0.091202
Br133	Br	0.087023	0.151719	-0.089467
Br134	Br	0.472710	-0.516936	0.051935
H135	H	0.100709	-0.127372	-0.089645
Br136	Br	0.668939	-0.516865	-0.230398
Br137	Br	0.668950	-0.639948	-0.230381
H138	H	-0.190997	0.081923	-0.085356
Br139	Br	0.472718	-0.360272	0.051971
H140	H	0.332629	-0.082139	-0.093087
Br141	Br	-0.064218	0.151707	-0.087233
Br142	Br	0.673269	-0.000144	0.567711
H143	H	0.647802	-0.000111	0.714796
Br144	Br	0.472728	-0.640003	0.051948
Br145	Br	0.318939	0.106514	-0.092909
H146	H	-0.190987	-0.082180	-0.085363
Br147	Br	0.437764	-0.106682	-0.094663
Br148	Br	0.668916	-0.360216	-0.230414
H149	H	0.653073	-0.469114	-0.207561
H150	H	0.492482	-0.000099	0.238847
Br151	Br	0.501903	-0.243150	0.009886
Br152	Br	-0.296144	-0.106735	-0.083802
Br153	Br	0.677800	-0.000152	0.123731
H154	H	0.040916	0.127162	-0.088782
H155	H	0.488582	-0.469165	0.029133
Br156	Br	0.501895	-0.120057	0.009882
