data_functionalizedCrystal
_audit_creation_method	'MofGen! by Chris Wilmer'
_symmetry_space_group_name_H-M	'P1'
_symmetry_Int_Tables_number	1
_symmetry_cell_setting	triclinic
loop_
_symmetry_equiv_pos_as_xyz
  x,y,z
_cell_length_a	27.732064
_cell_length_b	27.732046
_cell_length_c	10.065875
_cell_angle_alpha	81.290399
_cell_angle_beta	81.333551
_cell_angle_gamma	97.354298
loop_
_atom_site_label
_atom_site_type_symbol
_atom_site_fract_x
_atom_site_fract_y
_atom_site_fract_z
O1	O	0.648033	-0.050412	-0.113263
O2	O	0.507244	-0.059145	-0.113322
O3	O	0.582010	0.015616	-0.113260
O4	O	0.573267	-0.125173	-0.113325
O5	O	0.567752	0.001303	0.113717
O6	O	0.492987	-0.073458	0.113655
O7	O	0.633776	-0.064725	0.113714
Zn8	Zn	0.561118	-0.071364	0.149722
Zn9	Zn	0.579902	-0.052506	-0.149330
O10	O	0.559010	-0.139486	0.113652
C11	C	0.482109	-0.066117	0.000159
C12	C	0.428456	-0.065559	0.000138
C13	C	0.051377	-0.017598	0.000238
C14	C	0.253040	-0.019642	0.000202
O15	O	0.284288	0.017574	0.000270
N16	N	0.272169	-0.063975	0.000175
C17	C	0.240878	-0.107800	0.000167
O18	O	0.261775	-0.145556	0.000157
C19	C	0.039216	-0.105756	0.000213
C20	C	0.020091	-0.061420	0.000226
C21	C	0.032252	0.026734	0.000252
C22	C	-0.018161	0.027245	0.000254
C23	C	-0.049447	-0.016576	0.000242
C24	C	-0.030321	-0.060909	0.000227
C25	C	0.007925	-0.149582	0.000214
C26	C	-0.042493	-0.149067	0.000229
C27	C	-0.061618	-0.104731	0.000242
C28	C	-0.112020	-0.104220	0.000216
N29	N	-0.131149	-0.059887	0.000243
C30	C	-0.099863	-0.016065	0.000256
C31	C	0.346754	-0.108870	0.000140
C32	C	0.397170	-0.109381	0.000126
C33	C	0.409328	-0.021223	0.000163
C34	C	0.358912	-0.020712	0.000168
C35	C	0.327625	-0.064537	0.000166
C36	C	-0.205732	-0.014996	0.000258
C37	C	-0.256149	-0.014488	0.000254
C38	C	-0.268303	-0.102646	0.000223
C39	C	-0.217891	-0.103154	0.000220
C40	C	-0.186606	-0.059325	0.000242
O41	O	-0.143298	-0.141418	0.000164
O42	O	-0.120771	0.021683	0.000295
C43	C	0.101790	-0.018109	0.000237
C44	C	0.120915	-0.062442	0.000222
C45	C	0.089629	-0.106264	0.000210
C46	C	0.171331	-0.062953	0.000208
C47	C	0.202617	-0.019131	0.000221
C48	C	0.183488	0.025201	0.000247
C49	C	0.133076	0.025712	0.000249
C50	C	0.108757	-0.150596	0.000183
C51	C	0.159170	-0.151104	0.000180
C52	C	0.190457	-0.107282	0.000193
C53	C	0.574697	0.026466	0.000233
C54	C	0.574144	0.080120	0.000248
C55	C	0.614851	0.418935	0.000217
C56	C	0.612802	0.620595	0.000211
O57	O	0.650025	0.651851	0.000168
N58	N	0.568468	0.639723	0.000195
C59	C	0.524644	0.608432	0.000172
O60	O	0.486889	0.629329	0.000144
C61	C	0.526695	0.406773	0.000168
C62	C	0.571030	0.387648	0.000198
C63	C	0.659183	0.399809	0.000245
C64	C	0.659695	0.349397	0.000254
C65	C	0.615874	0.318110	0.000235
C66	C	0.571542	0.337236	0.000207
C67	C	0.482872	0.375484	0.000136
C68	C	0.483389	0.325067	0.000131
C69	C	0.527724	0.305942	0.000161
C70	C	0.528232	0.255536	0.000197
N71	N	0.572566	0.236409	0.000213
C72	C	0.616387	0.267696	0.000232
C73	C	0.523571	0.714306	0.000176
C74	C	0.523058	0.764720	0.000180
C75	C	0.611216	0.776880	0.000216
C76	C	0.611727	0.726464	0.000222
C77	C	0.567904	0.695179	0.000192
C78	C	0.617457	0.161825	0.000252
C79	C	0.617965	0.111407	0.000267
C80	C	0.529807	0.099252	0.000223
C81	C	0.529299	0.149665	0.000216
C82	C	0.573129	0.180951	0.000226
O83	O	0.491030	0.224253	0.000224
O84	O	0.654138	0.246791	0.000229
C85	C	0.614340	0.469348	0.000208
C86	C	0.570008	0.488473	0.000180
C87	C	0.526187	0.457186	0.000161
C88	C	0.569495	0.538888	0.000183
C89	C	0.613315	0.570174	0.000202
C90	C	0.657649	0.551047	0.000218
C91	C	0.658161	0.500635	0.000227
C92	C	0.481853	0.476314	0.000145
C93	C	0.481345	0.526727	0.000138
C94	C	0.525166	0.558014	0.000157
C95	C	0.658911	-0.057753	0.000229
C96	C	0.712564	-0.058310	0.000241
N97	N	0.548301	-0.084233	0.353817
C98	C	0.566323	0.849663	0.000172
C99	C	0.566878	0.796007	0.000199
N100	N	0.592722	-0.039633	-0.353425
C101	C	0.575440	-0.056981	0.421618
C102	C	0.565580	-0.066889	0.578777
H103	H	-0.271717	0.021618	0.000261
H104	H	0.653148	0.187293	0.000255
H105	H	-0.293785	-0.138324	0.000206
H106	H	0.654069	0.095838	0.000294
H107	H	0.343344	0.015391	0.000179
H108	H	0.694263	0.485068	0.000251
N109	N	0.313028	-0.156153	0.000145
H110	H	0.297113	-0.152618	-0.083984
H111	H	0.286592	-0.163196	0.084353
H112	H	0.517765	-0.114899	0.412117
H113	H	0.486954	0.780286	0.000179
N114	N	0.434587	0.442572	0.000123
H115	H	0.406427	0.462344	0.000112
H116	H	0.427592	0.416091	0.084272
N117	N	0.704914	0.584800	0.000226
H118	H	0.733081	0.565038	0.000239
H119	H	0.701335	0.600683	0.084366
N120	N	0.179796	-0.198926	0.000145
H121	H	0.152322	-0.226606	0.000138
H122	H	0.195167	-0.206365	0.084287
H123	H	0.412737	-0.145483	0.000096
H124	H	-0.067965	-0.184757	0.000235
H125	H	0.695798	0.333830	0.000273
N126	N	0.476301	0.680565	0.000146
H127	H	0.448142	0.700337	0.000141
H128	H	0.469306	0.654081	0.084289
N129	N	0.706449	0.433552	0.000275
H130	H	0.731096	0.432736	-0.083851
H131	H	0.720475	0.422108	0.084485
N132	N	0.436118	0.291323	0.000137
H133	H	0.443165	0.256481	0.000152
H134	H	0.422061	0.302777	-0.084011
H135	H	0.535042	-0.097557	0.637073
N136	N	-0.171994	0.032275	0.000286
H137	H	-0.191767	0.060434	0.000294
H138	H	-0.145532	0.039291	-0.083858
H139	H	0.117510	0.061816	0.000260
N140	N	0.659546	0.705838	0.000255
H141	H	0.687225	0.733312	0.000272
H142	H	0.666968	0.690489	-0.083890
H143	H	0.494129	0.073769	0.000213
N144	N	0.633169	0.000996	0.569373
H145	H	0.634480	0.002317	0.468047
H146	H	0.665891	-0.005817	0.594268
H147	H	-0.033727	0.063348	0.000270
N148	N	0.658480	0.810630	0.000240
H149	H	0.651424	0.845468	0.000238
H150	H	0.683102	0.809777	-0.083900
H151	H	0.493195	0.165235	0.000230
N152	N	0.065992	0.074003	0.000276
H153	H	0.046217	0.102160	0.000290
H154	H	0.092452	0.081020	-0.083873
H155	H	0.605972	-0.026311	0.363319
N156	N	0.443077	0.026043	0.000176
H157	H	0.477916	0.018987	0.000166
H158	H	0.431643	0.040073	0.084335
N159	N	0.028546	-0.197401	0.000186
H160	H	0.001069	-0.225080	0.000184
H161	H	0.043919	-0.204843	0.084323
H162	H	0.208971	0.060883	0.000250
N163	N	-0.197258	-0.150971	0.000187
H164	H	-0.224729	-0.178653	0.000174
H165	H	-0.181889	-0.158408	0.084334
H166	H	0.083288	-0.186282	0.000175
N167	N	0.435051	0.396103	0.000121
H168	H	0.407373	0.368627	0.000106
H169	H	0.438199	0.422057	-0.084021
N170	N	0.433521	0.547350	0.000128
H171	H	0.405841	0.519876	0.000118
H172	H	0.436671	0.573302	-0.084019
