data_functionalizedCrystal
_audit_creation_method	'MofGen! by Chris Wilmer'
_symmetry_space_group_name_H-M	'P1'
_symmetry_Int_Tables_number	1
_symmetry_cell_setting	triclinic
loop_
_symmetry_equiv_pos_as_xyz
  x,y,z
_cell_length_a	6.817900
_cell_length_b	14.125369
_cell_length_c	10.943624
_cell_angle_alpha	94.575607
_cell_angle_beta	108.838799
_cell_angle_gamma	100.397648
loop_
_atom_site_label
_atom_site_type_symbol
_atom_site_fract_x
_atom_site_fract_y
_atom_site_fract_z
V1	V	-4.072444	-0.133088	-0.402044
O2	O	-4.075281	0.006421	-0.394913
O3	O	-4.008074	-0.263917	-0.398792
O4	O	-4.051072	-0.131030	-0.577618
O5	O	-4.031985	-0.127385	-0.214848
V6	V	-4.554639	-0.116403	-0.379715
O7	O	-4.336615	-0.169689	-0.451024
O8	O	-4.740665	-0.079801	-0.330734
O9	O	-4.395802	0.014426	-0.382967
O10	O	-4.669198	-0.255912	-0.386846
O11	O	-4.712494	-0.122105	-0.566910
O12	O	-4.352804	-0.118461	-0.204140
C13	C	-3.848315	-0.295810	-0.392320
C14	C	-3.877152	-0.402764	-0.390831
C15	C	-4.116399	-0.650904	-0.393609
C16	C	-3.930063	-0.598587	-0.388155
C17	C	-3.900624	-0.489621	-0.389644
C18	C	-4.145846	-0.759880	-0.392119
C19	C	-3.903163	-0.126298	-0.620429
C20	C	-3.966867	-0.125481	-0.763958
C21	C	-3.813478	-0.119976	-0.841127
C22	C	-3.976406	-0.201682	-0.946805
C23	C	-3.917472	-0.042328	-0.914026
C24	C	-4.128981	-0.207263	-0.867760
C25	C	-4.069991	-0.047837	-0.834958
C26	C	-4.233048	-0.129566	-0.940606
C27	C	-4.218902	0.046314	-0.389435
C28	C	-4.169304	0.153267	-0.390932
C29	C	-4.164054	-0.123196	-0.161323
C30	C	-4.079589	-0.124008	-0.017792
H31	H	-4.253806	-0.613861	-0.399395
Cl32	Cl	-4.507858	-0.135851	-1.007353
H33	H	-3.635553	-0.116031	-0.797693
Cl34	Cl	-3.717893	-0.655777	-0.379213
H35	H	-3.937505	-0.266722	-0.995506
H36	H	-4.217791	-0.277046	-0.846949
Cl37	Cl	-4.129917	0.052585	-0.759704
H38	H	-3.828667	0.027362	-0.935054
