data_functionalizedCrystal
_audit_creation_method	'MofGen! by Chris Wilmer'
_symmetry_space_group_name_H-M	'P1'
_symmetry_Int_Tables_number	1
_symmetry_cell_setting	triclinic
loop_
_symmetry_equiv_pos_as_xyz
  x,y,z
_cell_length_a	9.065218
_cell_length_b	10.868271
_cell_length_c	9.065218
_cell_angle_alpha	90.003285
_cell_angle_beta	85.015885
_cell_angle_gamma	90.004378
loop_
_atom_site_label
_atom_site_type_symbol
_atom_site_fract_x
_atom_site_fract_y
_atom_site_fract_z
O1	O	1.960401	0.102320	0.216358
O2	O	2.460401	0.602320	0.716358
O3	O	1.531116	0.102321	0.234104
O4	O	2.031116	0.602321	0.734104
O5	O	1.754632	0.102318	0.010589
O6	O	2.254632	0.602318	0.510589
O7	O	1.736885	0.102323	0.439873
O8	O	2.236885	0.602323	0.939873
O9	O	1.754613	-0.102327	0.010580
O10	O	2.254613	0.397673	0.510580
O11	O	1.531098	-0.102323	0.234095
O12	O	2.031098	0.397677	0.734095
O13	O	1.960382	-0.102325	0.216349
O14	O	2.460382	0.397675	0.716349
Zn15	Zn	1.745737	-0.134816	0.225221
Zn16	Zn	2.245737	0.365184	0.725221
Zn17	Zn	1.745762	0.134812	0.225232
Zn18	Zn	2.245762	0.634812	0.725232
O19	O	1.736867	-0.102322	0.439864
O20	O	2.236867	0.397678	0.939864
C21	C	1.476120	-0.000001	0.232394
C22	C	1.976120	0.499999	0.732394
C23	C	1.312277	-0.000000	0.227294
C24	C	1.812277	0.500000	0.727294
N25	N	1.745731	-0.318830	0.225212
N26	N	2.245731	0.181170	0.725212
C27	C	1.745754	-0.569836	0.225229
C28	C	2.245754	-0.069836	0.725229
C29	C	1.745736	-0.430158	0.225224
C30	C	2.245736	0.069842	0.725224
C31	C	2.015378	0.000000	0.218059
C32	C	2.515378	0.500000	0.718059
C33	C	2.179221	0.000008	0.223158
C34	C	2.679221	0.500008	0.723158
C35	C	1.752917	-0.000002	-0.044403
C36	C	2.252917	0.499998	0.455597
C37	C	1.747817	0.000004	-0.208245
C38	C	2.247817	0.500004	0.291755
N39	N	1.745779	0.318826	0.225230
N40	N	2.245779	0.818826	0.725230
C41	C	1.738582	0.000001	0.494855
C42	C	2.238582	0.500001	0.994855
C43	C	1.743681	0.000004	0.658698
C44	C	2.243681	0.500004	1.158698
