data_functionalizedCrystal
_audit_creation_method	'MofGen! by Chris Wilmer'
_symmetry_space_group_name_H-M	'P1'
_symmetry_Int_Tables_number	1
_symmetry_cell_setting	triclinic
loop_
_symmetry_equiv_pos_as_xyz
  x,y,z
_cell_length_a	19.805407
_cell_length_b	12.759394
_cell_length_c	19.805399
_cell_angle_alpha	89.976033
_cell_angle_beta	89.982197
_cell_angle_gamma	90.012153
loop_
_atom_site_label
_atom_site_type_symbol
_atom_site_fract_x
_atom_site_fract_y
_atom_site_fract_z
Zn1	Zn	1.034790	-0.418366	-0.382705
Zn2	Zn	1.034728	-0.594059	-0.269524
Zn3	Zn	0.921605	-0.418387	-0.269533
Zn4	Zn	0.921591	-0.593995	-0.382674
O5	O	0.978178	-0.506202	-0.326109
O6	O	1.129498	-0.441690	-0.367700
O7	O	1.019701	-0.570792	-0.174808
O8	O	0.936651	-0.271363	-0.284562
O9	O	1.129453	-0.570772	-0.284546
O10	O	1.019808	-0.271348	-0.367709
O11	O	0.936590	-0.441726	-0.174815
O12	O	0.826886	-0.441664	-0.284532
O13	O	0.936628	-0.570662	-0.477395
O14	O	0.826876	-0.570682	-0.367656
O15	O	1.019794	-0.441628	-0.477417
O16	O	1.019688	-0.741072	-0.284516
O17	O	0.936567	-0.741025	-0.367647
C18	C	0.802322	-0.506169	-0.326092
C19	C	0.727090	-0.506180	-0.326101
C20	C	0.691771	-0.439087	-0.369465
C21	C	0.621082	-0.439092	-0.369468
C22	C	0.585715	-0.506197	-0.326109
C23	C	0.621039	-0.573294	-0.282741
C24	C	0.691727	-0.573282	-0.282735
C25	C	0.335966	-0.573341	-0.282761
C26	C	0.265274	-0.573350	-0.282772
C27	C	0.265322	-0.439151	-0.369494
C28	C	0.336009	-0.439139	-0.369489
C29	C	0.371327	-0.506232	-0.326118
C30	C	0.447976	-0.506223	-0.326114
C31	C	0.509068	-0.506212	-0.326116
C32	C	0.978138	-0.779169	-0.326092
C33	C	0.978182	-0.895946	-0.326108
C34	C	1.064801	-0.895942	-0.239608
C35	C	1.108128	-0.950800	-0.196367
C36	C	1.108168	-1.060522	-0.196385
C37	C	1.064877	-1.115387	-0.239651
C38	C	1.021550	-1.060529	-0.282893
C39	C	1.021514	-0.950805	-0.282869
C40	C	0.934936	-1.060533	-0.369395
C41	C	0.934892	-0.950812	-0.369374
C42	C	0.891645	-1.115399	-0.412661
C43	C	0.848314	-1.060540	-0.455901
C44	C	0.848275	-0.950812	-0.455880
C45	C	0.891565	-0.895953	-0.412616
C46	C	1.154721	-0.506236	-0.326126
C47	C	1.229953	-0.506250	-0.326133
C48	C	0.978216	-0.506136	-0.502651
C49	C	0.978233	-0.506108	-0.577884
C50	C	0.978238	-0.232169	-0.326140
C51	C	0.978263	-0.115392	-0.326153
C52	C	1.021538	-0.438916	-0.613241
C53	C	1.021545	-0.438886	-0.683929
C54	C	0.978249	-0.506053	-0.719259
C55	C	0.934939	-0.573247	-0.683897
C56	C	0.934929	-0.573271	-0.613210
C57	C	0.934977	-0.573149	-0.968971
C58	C	0.934991	-0.573122	-1.039663
C59	C	1.021593	-0.438763	-1.039690
C60	C	1.021584	-0.438788	-0.969002
C61	C	0.978271	-0.505978	-0.933647
C62	C	0.978263	-0.506009	-0.856998
C63	C	0.978260	-0.506028	-0.795906
C64	C	0.978180	-0.506192	-0.150253
C65	C	0.978295	-0.505924	-0.075021
H66	H	0.592238	-0.627927	-0.247434
H67	H	0.364802	-0.384499	-0.404798
H68	H	1.056797	-0.384224	-0.584480
C69	C	1.069181	-0.364971	-0.722822
C70	C	1.116808	-0.291092	-0.683961
C71	C	1.164443	-0.217170	-0.722854
C72	C	1.164452	-0.217127	-0.800607
C73	C	1.116823	-0.291009	-0.839472
C74	C	1.069188	-0.364931	-0.800579
H75	H	1.116803	-0.291121	-0.626400
H76	H	1.199701	-0.162478	-0.694083
H77	H	1.199715	-0.162406	-0.829397
H78	H	1.116828	-0.290980	-0.897033
H79	H	1.033930	-0.419623	-0.829350
H80	H	0.236557	-0.384517	-0.404806
C81	C	0.226368	-0.647164	-0.235070
C82	C	0.177750	-0.601527	-0.181994
C83	C	0.138844	-0.675337	-0.134296
C84	C	0.148556	-0.794784	-0.139674
C85	C	0.197176	-0.840428	-0.192753
C86	C	0.236082	-0.766617	-0.240451
H87	H	0.170559	-0.513100	-0.178010
H88	H	0.102852	-0.641549	-0.095003
H89	H	0.119755	-0.849423	-0.104365
H90	H	0.204367	-0.928855	-0.196736
H91	H	0.272074	-0.800406	-0.279743
C92	C	0.800701	-1.120893	-0.503490
C93	C	0.747608	-1.196429	-0.474133
C94	C	0.699994	-1.256787	-0.521723
C95	C	0.705473	-1.241608	-0.598670
C96	C	0.758568	-1.166068	-0.628031
C97	C	0.806182	-1.105710	-0.580441
H98	H	0.743550	-1.207668	-0.417169
H99	H	0.660690	-1.312707	-0.499988
H100	H	0.670226	-1.286288	-0.633899
H101	H	0.762626	-1.154829	-0.684995
H102	H	0.845486	-1.049791	-0.602176
H103	H	1.143452	-1.105188	-0.161177
C104	C	1.069234	-0.364842	-1.078583
C105	C	1.069247	-0.364801	-1.156336
C106	C	1.116887	-0.290884	-1.195226
C107	C	1.164515	-0.217008	-1.156364
C108	C	1.164503	-0.217046	-1.078606
C109	C	1.116863	-0.290963	-1.039716
H110	H	1.033989	-0.419491	-1.185108
H111	H	1.116896	-0.290857	-1.252788
H112	H	1.199781	-0.162291	-1.185153
H113	H	1.199761	-0.162357	-1.049834
H114	H	1.116855	-0.290991	-0.982154
H115	H	0.720483	-0.627916	-0.247423
H116	H	0.899658	-0.627975	-0.584423
H117	H	0.364714	-0.627973	-0.247447
C118	C	0.800613	-0.890471	-0.503447
C119	C	0.752999	-0.950825	-0.551034
C120	C	0.705336	-0.890489	-0.598602
C121	C	0.705287	-0.769799	-0.598583
C122	C	0.752903	-0.709438	-0.550995
C123	C	0.800566	-0.769774	-0.503427
H124	H	0.753034	-1.040173	-0.551049
H125	H	0.670088	-0.935172	-0.633830
H126	H	0.670004	-0.725134	-0.633796
H127	H	0.752868	-0.620090	-0.550980
H128	H	0.835814	-0.725091	-0.468199
H129	H	1.064765	-0.806601	-0.239580
H130	H	1.056842	-0.384097	-0.940240
H131	H	0.891683	-1.204740	-0.412676
H132	H	0.592328	-0.384460	-0.404780
H133	H	0.899732	-0.627819	-1.068427
C134	C	0.887340	-0.647065	-0.930085
C135	C	0.839721	-0.720952	-0.968949
C136	C	0.792083	-0.794874	-0.930060
C137	C	0.792063	-0.794909	-0.852307
C138	C	0.839683	-0.721019	-0.813439
C139	C	0.887322	-0.647097	-0.852328
H140	H	0.839734	-0.720929	-1.026511
H141	H	0.756831	-0.849573	-0.958834
H142	H	0.756798	-0.849631	-0.823519
H143	H	0.839670	-0.721043	-0.755877
H144	H	0.922574	-0.592399	-0.823554
H145	H	0.720562	-0.384444	-0.404775
H146	H	1.143377	-0.906119	-0.161141
H147	H	0.891533	-0.806612	-0.412591
H148	H	1.064919	-1.204729	-0.239668
H149	H	0.899684	-0.627932	-0.712669
