data_functionalizedCrystal
_audit_creation_method	'MofGen! by Chris Wilmer'
_symmetry_space_group_name_H-M	'P1'
_symmetry_Int_Tables_number	1
_symmetry_cell_setting	triclinic
loop_
_symmetry_equiv_pos_as_xyz
  x,y,z
_cell_length_a	11.792254
_cell_length_b	14.044209
_cell_length_c	10.268362
_cell_angle_alpha	89.991300
_cell_angle_beta	90.000669
_cell_angle_gamma	91.306725
loop_
_atom_site_label
_atom_site_type_symbol
_atom_site_fract_x
_atom_site_fract_y
_atom_site_fract_z
O1	O	1.519101	-0.130046	0.108308
O2	O	1.190018	-0.143430	0.108312
O3	O	1.349621	0.001272	0.108292
O4	O	1.359498	-0.274748	0.108329
O5	O	1.349618	0.001281	-0.108309
O6	O	1.190015	-0.143422	-0.108288
O7	O	1.519098	-0.130038	-0.108292
Cu8	Cu	1.354556	-0.136729	-0.128068
Cu9	Cu	1.354560	-0.136739	0.128088
O10	O	1.359495	-0.274740	-0.108272
C11	C	1.147647	-0.142583	0.000012
C12	C	1.021397	-0.140059	0.000013
C13	C	0.918868	-0.138009	0.000018
C14	C	0.790240	-0.135445	0.000019
C15	C	1.345296	0.036613	-0.000010
C16	C	1.332398	0.141906	-0.000016
C17	C	1.308818	0.334690	-0.000005
C18	C	1.400303	0.391849	-0.000004
C19	C	1.387182	0.499121	0.000002
C20	C	1.321936	0.227408	-0.000011
C21	C	1.561469	-0.130885	0.000011
C22	C	1.687719	-0.133409	0.000019
C23	C	1.363823	0.689919	0.000023
C24	C	1.376728	0.584627	0.000007
N25	N	1.354562	-0.136739	0.308254
N26	N	1.354562	-0.136721	-0.308234
C27	C	1.354559	-0.136733	0.573924
C28	C	1.354557	-0.136740	0.426086
H29	H	1.488479	0.360222	0.000083
H30	H	1.220648	0.366315	-0.000002
