data_functionalizedCrystal
_audit_creation_method	'MofGen! by Chris Wilmer'
_symmetry_space_group_name_H-M	'P1'
_symmetry_Int_Tables_number	1
_symmetry_cell_setting	triclinic
loop_
_symmetry_equiv_pos_as_xyz
  x,y,z
_cell_length_a	8.497374
_cell_length_b	18.215405
_cell_length_c	18.215407
_cell_angle_alpha	90.025333
_cell_angle_beta	89.996297
_cell_angle_gamma	89.985971
loop_
_atom_site_label
_atom_site_type_symbol
_atom_site_fract_x
_atom_site_fract_y
_atom_site_fract_z
Zn1	Zn	0.891978	0.293103	-1.124955
Zn2	Zn	0.628155	0.416139	-1.124898
Zn3	Zn	0.628196	0.293092	-1.001922
Zn4	Zn	0.891878	0.416133	-1.001853
O5	O	0.760052	0.354617	-1.063407
O6	O	0.857006	0.309431	-1.227931
O7	O	0.407398	0.399814	-1.108590
O8	O	0.663247	0.190109	-1.018295
O9	O	0.663177	0.399825	-1.227890
O10	O	0.857046	0.190117	-1.108687
O11	O	0.407429	0.309412	-1.018240
O12	O	0.663149	0.309406	-0.898929
O13	O	1.112653	0.399816	-1.018178
O14	O	0.856875	0.399805	-0.898878
O15	O	1.112727	0.309426	-1.108620
O16	O	0.663079	0.519122	-1.108523
O17	O	0.856835	0.519118	-1.018123
C18	C	0.759976	0.545823	-1.063329
C19	C	0.759996	0.627622	-1.063363
C20	C	0.760007	0.354604	-0.872201
C21	C	0.760025	0.354616	-0.790402
C22	C	0.760098	0.354630	-1.255360
C23	C	0.760118	0.354636	-1.337159
C24	C	1.171532	0.354618	-1.063401
C25	C	1.350176	0.354626	-1.063403
C26	C	0.760163	0.162664	-1.063505
C27	C	0.760210	0.080865	-1.063547
C28	C	0.659293	0.815793	-1.110545
C29	C	0.659332	0.892652	-1.110578
C30	C	0.860924	0.892688	-1.016363
C31	C	0.860892	0.815831	-1.016334
C32	C	0.760068	0.777385	-1.063424
C33	C	0.760138	0.931101	-1.063486
C34	C	0.760180	1.014435	-1.063521
C35	C	0.760028	0.694046	-1.063390
C36	C	0.860771	0.401761	-0.602201
C37	C	0.860791	0.401763	-0.525342
C38	C	0.659367	0.307486	-0.525365
C39	C	0.659357	0.307481	-0.602222
C40	C	0.760056	0.354622	-0.640638
C41	C	0.760086	0.354630	-0.486922
C42	C	0.760107	0.354632	-0.403589
C43	C	0.760038	0.354619	-0.723977
H44	H	0.577199	0.784493	-1.148890
H45	H	0.942771	0.440145	-0.633477
H46	H	0.942805	0.440147	-0.494050
H47	H	0.577379	0.269106	-0.494077
H48	H	0.577343	0.269090	-0.633519
H49	H	0.577273	0.923921	-1.148950
H50	H	0.943009	0.923999	-0.978023
H51	H	0.942963	0.784557	-0.977962
