data_functionalizedCrystal
_audit_creation_method	'MofGen! by Chris Wilmer'
_symmetry_space_group_name_H-M	'P1'
_symmetry_Int_Tables_number	1
_symmetry_cell_setting	triclinic
loop_
_symmetry_equiv_pos_as_xyz
  x,y,z
_cell_length_a	16.109301
_cell_length_b	16.109301
_cell_length_c	14.586319
_cell_angle_alpha	90.004131
_cell_angle_beta	90.005770
_cell_angle_gamma	83.461481
loop_
_atom_site_label
_atom_site_type_symbol
_atom_site_fract_x
_atom_site_fract_y
_atom_site_fract_z
O1	O	0.106867	1.103131	0.076243
O2	O	0.120166	0.861070	0.076245
O3	O	-0.007515	0.988750	0.076235
O4	O	0.234547	0.975451	0.076254
O5	O	-0.007518	0.988740	-0.076246
O6	O	0.120163	0.861059	-0.076236
O7	O	0.106864	1.103121	-0.076238
Cu8	Cu	0.113513	0.982089	-0.090159
Cu9	Cu	0.113517	0.982101	0.090167
O10	O	0.234544	0.975441	-0.076227
C11	C	-0.038491	0.988206	-0.000006
C12	C	-0.130786	0.986591	-0.000007
C13	C	0.119626	0.830090	0.000005
C14	C	0.118011	0.737794	0.000006
C15	C	0.107404	1.134101	0.000004
C16	C	0.109019	1.226397	0.000010
C17	C	-0.353059	1.058599	0.000006
C18	C	-0.439779	1.057075	0.000014
C19	C	-0.419905	0.905586	0.000012
C20	C	-0.333186	0.907111	0.000011
C21	C	-0.299766	0.983620	0.000003
C22	C	-0.473205	0.980571	0.000012
C23	C	-0.567231	0.978918	0.000020
C24	C	-0.205734	0.985273	-0.000003
C25	C	0.265521	0.975984	0.000016
C26	C	0.357816	0.977600	0.000023
N27	N	0.113510	0.982087	-0.216991
C28	C	0.037011	1.448669	-0.000000
C29	C	0.038535	1.535389	-0.000003
C30	C	0.190024	1.515515	0.000013
C31	C	0.188499	1.428796	0.000010
C32	C	0.111990	1.395376	0.000008
C33	C	0.115039	1.568815	0.000008
C34	C	0.116692	1.662841	0.000005
C35	C	0.110337	1.301344	0.000009
C36	C	0.056991	1.038646	-0.547990
C37	C	0.056992	1.038644	-0.452008
C38	C	0.170038	0.925549	-0.452010
C39	C	0.170040	0.925555	-0.547989
C40	C	0.113513	0.982103	-0.595977
C41	C	0.113510	0.982094	-0.404016
C42	C	0.113511	0.982092	-0.299949
C43	C	0.113513	0.982107	-0.700050
N44	N	0.113513	0.982110	0.216999
H45	H	-0.483168	1.118130	0.000018
H46	H	-0.447127	0.843295	0.000016
H47	H	-0.289792	0.846050	0.000011
C48	C	-0.005167	1.100852	-0.399222
H49	H	0.002935	1.092762	-0.335187
H50	H	-0.060663	1.091853	-0.414951
H51	H	0.003896	1.156332	-0.414954
C52	C	-0.047144	1.411908	-0.000013
H53	H	-0.091580	1.456071	-0.000027
H54	H	-0.050893	1.378494	0.053158
H55	H	-0.050884	1.378492	-0.053196
C56	C	-0.043942	1.594008	-0.000005
H57	H	-0.089722	1.561681	0.000000
H58	H	-0.046500	1.628249	-0.053177
H59	H	-0.046492	1.628251	0.053176
H60	H	0.216060	0.879508	-0.412929
C61	C	0.274177	1.552281	0.000027
H62	H	0.264348	1.611560	0.000038
H63	H	0.305053	1.533986	-0.053141
H64	H	0.305043	1.533986	0.053212
H65	H	0.249560	1.385402	0.000013
H66	H	0.216071	0.879511	-0.587063
H67	H	0.010964	1.084691	-0.587059
H68	H	-0.325851	1.120897	0.000002
