data_functionalizedCrystal
_audit_creation_method	'MofGen! by Chris Wilmer'
_symmetry_space_group_name_H-M	'P1'
_symmetry_Int_Tables_number	1
_symmetry_cell_setting	triclinic
loop_
_symmetry_equiv_pos_as_xyz
  x,y,z
_cell_length_a	12.759399
_cell_length_b	16.120566
_cell_length_c	12.759393
_cell_angle_alpha	92.922057
_cell_angle_beta	89.967969
_cell_angle_gamma	92.888633
loop_
_atom_site_label
_atom_site_type_symbol
_atom_site_fract_x
_atom_site_fract_y
_atom_site_fract_z
Zn1	Zn	-0.499737	-1.274623	-0.675509
Zn2	Zn	-0.675451	-1.274538	-0.499823
Zn3	Zn	-0.490874	-1.135200	-0.490930
Zn4	Zn	-0.666456	-1.135189	-0.666551
O5	O	-0.583129	-1.204887	-0.583203
O6	O	-0.530520	-1.391278	-0.659674
O7	O	-0.651021	-1.256023	-0.351620
O8	O	-0.345031	-1.153734	-0.515443
O9	O	-0.659616	-1.391216	-0.530598
O10	O	-0.351543	-1.256168	-0.651052
O11	O	-0.515413	-1.153652	-0.345087
O12	O	-0.506691	-1.018531	-0.506756
O13	O	-0.644285	-1.153717	-0.814762
O14	O	-0.635690	-1.018524	-0.635784
O15	O	-0.521798	-1.256158	-0.821344
O16	O	-0.821276	-1.256013	-0.521912
O17	O	-0.814668	-1.153635	-0.644406
C18	C	-0.569253	-0.988277	-0.569333
C19	C	-0.563343	-0.895611	-0.563425
C20	C	-0.856094	-1.204836	-0.583176
C21	C	-0.972874	-1.204891	-0.583204
C22	C	-1.031146	-1.258260	-0.519502
C23	C	-1.140873	-1.258314	-0.519540
C24	C	-1.134046	-1.151621	-0.646987
C25	C	-1.024321	-1.151573	-0.646953
C26	C	-1.297047	-1.356720	-0.488444
C27	C	-1.355323	-1.410082	-0.424725
C28	C	-1.320605	-1.422909	-0.323035
C29	C	-1.227613	-1.382362	-0.285043
C30	C	-1.169343	-1.328994	-0.348756
C31	C	-1.204060	-1.316182	-0.450462
C32	C	-0.868145	-1.053165	-0.678038
C33	C	-0.809873	-0.999792	-0.741747
C34	C	-0.844587	-0.986956	-0.843438
C35	C	-0.937582	-1.027489	-0.881426
C36	C	-0.995854	-1.080862	-0.817717
C37	C	-0.961132	-1.093699	-0.716027
C38	C	-0.552526	-0.725947	-0.552646
C39	C	-0.613823	-0.684668	-0.613768
C40	C	-0.607805	-0.590262	-0.607771
C41	C	-0.558543	-0.820362	-0.558642
C42	C	-0.309101	-1.204961	-0.583255
C43	C	-0.192326	-1.204993	-0.583277
C44	C	-0.583027	-1.204946	-0.857240
C45	C	-0.582983	-1.204970	-0.974019
C46	C	-0.597064	-0.422343	-0.597110
C47	C	-0.603010	-0.515010	-0.602993
C48	C	-0.512361	-1.151685	-1.025480
C49	C	-0.512330	-1.151704	-1.135205
C50	C	-0.653547	-1.258302	-1.141999
C51	C	-0.653582	-1.258278	-1.032276
C52	C	-0.468443	-1.053424	-1.278872
C53	C	-0.397805	-1.000146	-1.330337
C54	C	-0.294484	-0.987367	-1.293931
C55	C	-0.261780	-1.027879	-1.206062
C56	C	-0.332413	-1.081164	-1.154603
C57	C	-0.435748	-1.093926	-1.191007
C58	C	-0.697458	-1.356559	-0.888607
C59	C	-0.768087	-1.409848	-0.837146
C60	C	-0.871411	-1.422635	-0.873550
C61	C	-0.904111	-1.382138	-0.961424
C62	C	-0.833482	-1.328849	-1.012884
C63	C	-0.730159	-1.316060	-0.976472
C64	C	-0.583159	-1.204877	-0.310235
C65	C	-0.582917	-1.205014	-0.193468
H66	H	-0.989260	-1.301676	-0.467595
Cl67	Cl	-1.052450	-1.278019	-0.301002
H68	H	-0.860115	-1.295876	-1.084437
Cl69	Cl	-0.464533	-0.671047	-0.464905
Cl70	Cl	-0.423613	-1.084667	-0.952246
Cl71	Cl	-1.198731	-1.084594	-0.727120
Cl72	Cl	-0.291310	-1.132090	-1.044147
Cl73	Cl	-0.701817	-0.739568	-0.701521
H74	H	-0.424442	-0.967162	-1.401880
Cl75	Cl	-1.112763	-1.131819	-0.865475
H76	H	-0.965848	-1.017038	-0.964231
H77	H	-0.177641	-1.017478	-1.176435
Cl78	Cl	-0.205684	-0.920390	-1.358634
H79	H	-0.552579	-1.063814	-1.308513
Cl80	Cl	-0.742292	-1.325315	-1.215244
H81	H	-0.988244	-1.392554	-0.991069
Cl82	Cl	-0.771369	-0.919808	-0.923500
H83	H	-0.928913	-1.466036	-0.831647
Cl84	Cl	-0.726974	-1.460764	-0.726679
Cl85	Cl	-0.567566	-1.340470	-0.842819
H86	H	-1.199359	-1.392804	-0.202232
H87	H	-1.368060	-1.466359	-0.271155
H88	H	-1.431037	-1.443096	-0.455668
Cl89	Cl	-1.340691	-1.340610	-0.616296
Cl90	Cl	-0.824493	-1.069303	-0.550193
Cl91	Cl	-0.692987	-0.948808	-0.693972
