data_functionalizedCrystal
_audit_creation_method	'MofGen! by Chris Wilmer'
_symmetry_space_group_name_H-M	'P1'
_symmetry_Int_Tables_number	1
_symmetry_cell_setting	triclinic
loop_
_symmetry_equiv_pos_as_xyz
  x,y,z
_cell_length_a	12.827892
_cell_length_b	12.827893
_cell_length_c	12.827885
_cell_angle_alpha	90.020999
_cell_angle_beta	89.969834
_cell_angle_gamma	89.986779
loop_
_atom_site_label
_atom_site_type_symbol
_atom_site_fract_x
_atom_site_fract_y
_atom_site_fract_z
Zn1	Zn	-0.416036	-1.597671	-0.590895
Zn2	Zn	-0.082702	-1.264338	-0.257562
Zn3	Zn	0.250631	-0.931004	0.075771
Zn4	Zn	-0.590814	-1.597566	-0.416155
Zn5	Zn	-0.257480	-1.264232	-0.082822
Zn6	Zn	0.075853	-0.930899	0.250512
Zn7	Zn	-0.416081	-1.422912	-0.416164
Zn8	Zn	-0.082748	-1.089579	-0.082830
Zn9	Zn	0.250586	-0.756246	0.250503
Zn10	Zn	-0.590729	-1.422898	-0.590850
Zn11	Zn	-0.257396	-1.089565	-0.257517
Zn12	Zn	0.075937	-0.756232	0.075817
O13	O	-0.503415	-1.510262	-0.503516
O14	O	-0.170082	-1.176928	-0.170183
O15	O	0.163252	-0.843595	0.163151
O16	O	-0.439237	-1.743893	-0.567731
O17	O	-0.105903	-1.410560	-0.234398
O18	O	0.227430	-1.077226	0.098935
O19	O	-0.567689	-1.574359	-0.269920
O20	O	-0.234356	-1.241026	0.063413
O21	O	0.098977	-0.907693	0.396747
O22	O	-0.269839	-1.446144	-0.439365
O23	O	0.063494	-1.112811	-0.106032
O24	O	0.396828	-0.779478	0.227302
O25	O	-0.567645	-1.743816	-0.439350
O26	O	-0.234312	-1.410482	-0.106017
O27	O	0.099021	-1.077149	0.227316
O28	O	-0.269806	-1.574539	-0.567740
O29	O	0.063528	-1.241206	-0.234406
O30	O	0.396861	-0.907872	0.098927
O31	O	-0.439314	-1.446042	-0.269927
O32	O	-0.105981	-1.112709	0.063407
O33	O	0.227353	-0.779376	0.396740
O34	O	-0.439232	-1.276674	-0.439321
O35	O	-0.105899	-0.943341	-0.105987
O36	O	0.227434	-0.610008	0.227346
O37	O	-0.567502	-1.446120	-0.737092
O38	O	-0.234168	-1.112787	-0.403759
O39	O	0.099165	-0.779454	-0.070425
O40	O	-0.567546	-1.276664	-0.567662
O41	O	-0.234212	-0.943331	-0.234329
O42	O	0.099121	-0.609997	0.099005
O43	O	-0.439155	-1.574525	-0.737126
O44	O	-0.105822	-1.241192	-0.403792
O45	O	0.227512	-0.907858	-0.070459
O46	O	-0.737038	-1.574346	-0.439306
O47	O	-0.403705	-1.241012	-0.105973
O48	O	-0.070372	-0.907679	0.227361
O49	O	-0.736977	-1.446018	-0.567654
O50	O	-0.403643	-1.112685	-0.234320
O51	O	-0.070310	-0.779352	0.099013
C52	C	-0.774925	-1.510197	-0.503497
C53	C	-0.441592	-1.176864	-0.170163
C54	C	-0.108258	-0.843531	0.163170
C55	C	-0.891078	-1.510265	-0.503523
C56	C	-0.557745	-1.176932	-0.170190
C57	C	-0.224411	-0.843599	0.163143
C58	C	-0.503386	-1.238752	-0.503488
C59	C	-0.170052	-0.905419	-0.170155
C60	C	0.163281	-0.572085	0.163179
C61	C	-0.503398	-1.122599	-0.503501
C62	C	-0.170065	-0.789265	-0.170167
C63	C	0.163269	-0.455932	0.163166
C64	C	-0.942867	-1.446750	-0.566987
C65	C	-0.609533	-1.113417	-0.233654
C66	C	-0.276200	-0.780083	0.099679
C67	C	-1.062917	-1.446819	-0.567016
C68	C	-0.729584	-1.113486	-0.233683
C69	C	-0.396250	-0.780152	0.099650
C70	C	-0.439983	-0.950808	-0.567137
C71	C	-0.106650	-0.617474	-0.233803
C72	C	0.226684	-0.284141	0.099530
C73	C	-0.439968	-1.070858	-0.567125
C74	C	-0.106635	-0.737525	-0.233792
C75	C	0.226698	-0.404191	0.099542
C76	C	-0.230845	-1.510355	-0.503558
C77	C	0.102489	-1.177022	-0.170225
C78	C	0.435822	-0.843688	0.163108
C79	C	-0.114692	-1.510395	-0.503576
C80	C	0.218642	-1.177061	-0.170243
C81	C	0.551975	-0.843728	0.163090
C82	C	-0.503314	-1.510333	-0.776086
C83	C	-0.169980	-1.177000	-0.442753
C84	C	0.163353	-0.843666	-0.109420
C85	C	-0.503271	-1.510363	-0.892240
C86	C	-0.169937	-1.177030	-0.558906
C87	C	0.163396	-0.843697	-0.225573
C88	C	-0.503437	-0.782832	-0.503536
C89	C	-0.170103	-0.449499	-0.170203
C90	C	0.163230	-0.116165	0.163130
C91	C	-0.503424	-0.898985	-0.503524
C92	C	-0.170091	-0.565652	-0.170190
C93	C	0.163243	-0.232318	0.163143
C94	C	-0.439691	-1.446921	-1.064072
C95	C	-0.106358	-1.113588	-0.730739
C96	C	0.226976	-0.780254	-0.397405
C97	C	-0.439734	-1.446888	-0.944021
C98	C	-0.106401	-1.113555	-0.610688
C99	C	0.226933	-0.780222	-0.277355
C100	C	-0.503440	-1.510251	-0.232006
C101	C	-0.170107	-1.176918	0.101327
C102	C	0.163226	-0.843584	0.434661
C103	C	-0.503189	-1.510423	-0.115854
C104	C	-0.169856	-1.177090	0.217480
C105	C	0.163478	-0.843757	0.550813
H106	H	-0.898330	-1.392316	-0.621296
H107	H	-0.564997	-1.058983	-0.287963
H108	H	-0.231664	-0.725650	0.045370
H109	H	-1.107454	-1.392445	-0.621354
H110	H	-0.774120	-1.059112	-0.288021
H111	H	-0.440787	-0.725779	0.045313
F112	F	-0.368585	-1.375894	-1.122290
F113	F	-0.035251	-1.042561	-0.788956
F114	F	0.298082	-0.709227	-0.455623
H115	H	-0.385650	-1.115424	-0.621582
H116	H	-0.052316	-0.782091	-0.288248
H117	H	0.281017	-0.448758	0.045085
F118	F	-0.574391	-1.064358	-0.432305
F119	F	-0.241058	-0.731025	-0.098971
F120	F	0.092275	-0.397691	0.234362
F121	F	-0.949288	-1.581405	-0.432525
F122	F	-0.615954	-1.248072	-0.099192
F123	F	-0.282621	-0.914739	0.234141
F124	F	-0.574411	-0.957156	-0.432330
F125	F	-0.241077	-0.623823	-0.098997
F126	F	0.092256	-0.290490	0.234337
F127	F	-0.368680	-1.375819	-0.885820
F128	F	-0.035347	-1.042486	-0.552487
F129	F	0.297987	-0.709152	-0.219153
H130	H	-0.385684	-0.906298	-0.621611
H131	H	-0.052350	-0.572965	-0.288278
H132	H	0.280983	-0.239632	0.045056
F133	F	-0.574338	-1.581425	-0.950434
F134	F	-0.241005	-1.248091	-0.617101
F135	F	0.092329	-0.914758	-0.283768
F136	F	-1.056489	-1.581481	-0.432558
F137	F	-0.723156	-1.248148	-0.099225
F138	F	-0.389823	-0.914815	0.234109
F139	F	-0.574285	-1.581461	-1.057636
F140	F	-0.240952	-1.248127	-0.724303
F141	F	0.092382	-0.914794	-0.390969
