data_functionalizedCrystal
_audit_creation_method	'MofGen! by Chris Wilmer'
_symmetry_space_group_name_H-M	'P1'
_symmetry_Int_Tables_number	1
_symmetry_cell_setting	triclinic
loop_
_symmetry_equiv_pos_as_xyz
  x,y,z
_cell_length_a	14.853569
_cell_length_b	27.731996
_cell_length_c	13.930277
_cell_angle_alpha	90.010535
_cell_angle_beta	89.995143
_cell_angle_gamma	96.871395
loop_
_atom_site_label
_atom_site_type_symbol
_atom_site_fract_x
_atom_site_fract_y
_atom_site_fract_z
O1	O	-1.195318	0.063113	0.079791
O2	O	-0.932734	0.070630	0.079806
O3	O	-1.072206	-0.003489	0.079778
O4	O	-1.055847	0.137232	0.079820
O5	O	-1.072187	-0.003490	-0.079884
O6	O	-0.932715	0.070628	-0.079855
O7	O	-1.195299	0.063111	-0.079870
Zn8	Zn	-1.064004	0.066870	-0.105213
Zn9	Zn	-1.064029	0.066872	0.105149
O10	O	-1.055827	0.137230	-0.079842
C11	C	-0.899142	0.070288	-0.000023
C12	C	-0.799075	0.069267	-0.000018
C13	C	-0.763438	0.024760	-0.000028
C14	C	-0.740686	0.112815	-0.000012
C15	C	-0.646667	0.111857	-0.000013
C16	C	-0.611030	0.067350	-0.000022
C17	C	-0.669411	0.023800	-0.000031
C18	C	-0.588279	0.155405	-0.000013
C19	C	-0.494255	0.154449	-0.000015
C20	C	-0.458616	0.109941	-0.000018
C21	C	-0.517004	0.066390	-0.000026
C22	C	-0.481367	0.021883	-0.000036
C23	C	-0.539753	-0.021669	-0.000037
C24	C	-0.633773	-0.020707	-0.000034
C25	C	-0.364596	0.108980	-0.000021
C26	C	-0.387340	0.020924	-0.000039
C27	C	-1.071861	-0.021499	-0.000057
C28	C	-1.070848	-0.075160	-0.000066
C29	C	-1.064490	-0.407905	0.087013
C30	C	-1.060646	-0.609581	0.087030
O31	O	-1.060120	-0.635653	0.161047
N32	N	-1.060159	-0.634801	-0.000001
C33	C	-1.060626	-0.609599	-0.087042
O34	O	-1.060113	-0.635677	-0.161067
C35	C	-1.064463	-0.407923	-0.087058
C36	C	-1.064960	-0.382706	-0.000022
C37	C	-1.064986	-0.382688	0.174042
C38	C	-1.065952	-0.332272	0.174037
C39	C	-1.066422	-0.307073	0.087002
C40	C	-1.065926	-0.332291	-0.000027
C41	C	-1.064924	-0.382721	-0.174099
C42	C	-1.065881	-0.332299	-0.174095
C43	C	-1.066378	-0.307082	-0.087059
C44	C	-1.067362	-0.256676	-0.087067
N45	N	-1.067850	-0.231456	-0.000036
C46	C	-1.067380	-0.256655	0.086999
C47	C	-1.058613	-0.715482	-0.087028
C48	C	-1.057655	-0.765901	-0.087024
C49	C	-1.057674	-0.765879	0.087049
C50	C	-1.058638	-0.715460	0.087044
C51	C	-1.059101	-0.690262	0.000003
C52	C	-1.069409	-0.150778	0.086981
C53	C	-1.070378	-0.100358	0.086968
C54	C	-1.070355	-0.100384	-0.087104
C55	C	-1.069390	-0.150800	-0.087091
C56	C	-1.068914	-0.175995	-0.000041
O57	O	-1.067879	-0.230572	-0.161046
O58	O	-1.067872	-0.230566	0.161012
C59	C	-1.063524	-0.458321	0.087018
C60	C	-1.063028	-0.483538	-0.000012
C61	C	-1.063498	-0.458339	-0.087046
C62	C	-1.062071	-0.533956	-0.000008
C63	C	-1.061601	-0.559155	0.087027
C64	C	-1.062089	-0.533935	0.174058
C65	C	-1.063055	-0.483519	0.174052
C66	C	-1.063010	-0.483559	-0.174077
C67	C	-1.062046	-0.533975	-0.174065
C68	C	-1.061576	-0.559174	-0.087030
C69	C	-0.228892	0.063453	-0.000037
C70	C	-0.328959	0.064473	-0.000030
C71	C	-1.056173	0.155240	-0.000005
C72	C	-1.057185	0.208901	0.000011
N73	N	-1.063994	0.066868	-0.248779
C74	C	-1.002269	0.099678	-0.701035
C75	C	-1.125815	0.034061	-0.701030
C76	C	-1.125804	0.034060	-0.600535
C77	C	-1.064026	0.066868	-0.550285
C78	C	-1.002258	0.099679	-0.600530
C79	C	-1.187576	0.001253	-0.550281
C80	C	-1.187569	0.001251	-0.449779
C81	C	-1.125786	0.034058	-0.399528
C82	C	-1.064015	0.066869	-0.449780
C83	C	-1.002237	0.099678	-0.399530
C84	C	-0.940461	0.132487	-0.449780
C85	C	-0.940475	0.132486	-0.550279
C86	C	-1.125772	0.034059	-0.299029
C87	C	-1.002226	0.099678	-0.299025
N88	N	-1.064047	0.066870	0.248715
H89	H	-0.681318	-0.056165	-0.000037
H90	H	-1.061710	-0.554461	0.244924
H91	H	-0.510725	-0.057906	-0.000039
O92	O	-0.935581	0.135065	-0.244841
H93	H	-0.892052	0.114671	-0.199079
H94	H	-0.810980	-0.010699	-0.000025
H95	H	-1.058994	-0.694970	-0.157911
O96	O	-0.301618	0.155946	-0.000025
H97	H	-0.314205	0.177247	0.065054
H98	H	-0.769707	0.149051	-0.000011
O99	O	-1.070905	-0.073163	0.180852
H100	H	-1.132817	-0.054466	0.185022
H101	H	-0.951970	0.126390	-0.741952
H102	H	-1.176117	0.007351	-0.741947
H103	H	-1.061648	-0.554503	-0.244946
O104	O	-1.066472	-0.305081	0.267919
H105	H	-1.128380	-0.286382	0.272100
H106	H	-1.176072	0.007348	-0.258120
H107	H	-1.064600	-0.403199	0.244920
O108	O	-1.063534	-0.456385	-0.267954
H109	H	-1.063043	-0.482397	-0.328463
O110	O	-1.254186	-0.034142	-0.395590
H111	H	-1.243802	-0.028631	-0.317264
H112	H	-1.057293	-0.786404	0.157916
H113	H	-0.617302	0.191641	-0.000012
H114	H	-0.446724	0.189912	-0.000013
H115	H	-1.069017	-0.171286	0.157866
O116	O	-1.254210	-0.034130	-0.604475
H117	H	-1.216605	-0.057665	-0.650271
H118	H	-0.358332	-0.015320	-0.000042
O119	O	-0.873860	0.167874	-0.604481
H120	H	-0.830894	0.190686	-0.552659
O121	O	-1.066390	-0.305121	-0.267976
H122	H	-1.065893	-0.331130	-0.328490
O123	O	-1.059159	-0.688261	0.180917
H124	H	-1.058664	-0.714258	0.241432
H125	H	-0.890165	0.159203	-0.408855
H126	H	-1.057264	-0.786429	-0.157898
H127	H	-1.064521	-0.403245	-0.244973
H128	H	-1.070741	-0.079858	-0.157965
O129	O	-1.068857	-0.178003	-0.180962
H130	H	-1.069342	-0.152008	-0.241483
H131	H	-1.063459	-0.462992	0.244927
