data_functionalizedCrystal
_audit_creation_method	'MofGen! by Chris Wilmer'
_symmetry_space_group_name_H-M	'P1'
_symmetry_Int_Tables_number	1
_symmetry_cell_setting	triclinic
loop_
_symmetry_equiv_pos_as_xyz
  x,y,z
_cell_length_a	18.215407
_cell_length_b	12.645330
_cell_length_c	18.215398
_cell_angle_alpha	89.979496
_cell_angle_beta	89.983470
_cell_angle_gamma	90.015151
loop_
_atom_site_label
_atom_site_type_symbol
_atom_site_fract_x
_atom_site_fract_y
_atom_site_fract_z
Zn1	Zn	1.125106	-0.422149	-0.416083
Zn2	Zn	1.625106	0.077851	0.083917
Zn3	Zn	1.125031	-0.599423	-0.293028
Zn4	Zn	1.625031	-0.099423	0.206972
Zn5	Zn	1.002039	-0.422166	-0.293037
Zn6	Zn	1.502039	0.077834	0.206963
Zn7	Zn	1.002020	-0.599363	-0.416059
Zn8	Zn	1.502020	-0.099363	0.083941
O9	O	1.063549	-0.510775	-0.354552
O10	O	1.563549	-0.010775	0.145448
O11	O	1.228080	-0.445682	-0.399766
O12	O	1.728080	0.054318	0.100234
O13	O	1.108692	-0.575942	-0.190045
O14	O	1.608692	-0.075942	0.309955
O15	O	1.018404	-0.273817	-0.309374
O16	O	1.518404	0.226183	0.190626
O17	O	1.228025	-0.575925	-0.309358
O18	O	1.728025	-0.075925	0.190642
O19	O	1.108821	-0.273804	-0.399775
O20	O	1.608821	0.226196	0.100225
O21	O	1.018331	-0.445712	-0.190052
O22	O	1.518331	0.054288	0.309948
O23	O	0.899053	-0.445654	-0.309350
O24	O	1.399053	0.054346	0.190650
O25	O	1.018371	-0.575822	-0.519046
O26	O	1.518371	-0.075822	-0.019046
O27	O	0.899038	-0.575839	-0.399733
O28	O	1.399038	-0.075839	0.100267
O29	O	1.108802	-0.445624	-0.519064
O30	O	1.608802	0.054376	-0.019064
O31	O	1.108673	-0.747762	-0.309334
O32	O	1.608673	-0.247762	0.190666
O33	O	1.018298	-0.747718	-0.399724
O34	O	1.518298	-0.247718	0.100276
C35	C	0.872343	-0.510743	-0.354540
C36	C	1.372343	-0.010743	0.145460
C37	C	0.790544	-0.510754	-0.354553
C38	C	1.290544	-0.010754	0.145447
C39	C	0.525498	-0.578674	-0.401550
C40	C	1.025498	-0.078674	0.098450
C41	C	0.602357	-0.578665	-0.401546
C42	C	1.102357	-0.078665	0.098454
C43	C	0.602341	-0.442900	-0.307567
C44	C	1.102341	0.057100	0.192433
C45	C	0.525484	-0.442915	-0.307567
C46	C	1.025484	0.057085	0.192433
C47	C	0.487064	-0.510801	-0.354563
C48	C	0.987064	-0.010801	0.145437
C49	C	0.640780	-0.510776	-0.354559
C50	C	1.140780	-0.010776	0.145441
C51	C	0.724114	-0.510766	-0.354555
C52	C	1.224114	-0.010766	0.145445
C53	C	0.403725	-0.510813	-0.354566
C54	C	0.903725	-0.010813	0.145434
C55	C	1.063495	-0.786205	-0.354541
C56	C	1.563495	-0.286205	0.145459
C57	C	1.063540	-0.904035	-0.354562
C58	C	1.563540	-0.404035	0.145438
C59	C	1.006919	-1.071615	-0.411602
C60	C	1.506919	-0.571615	0.088398
C61	C	1.006629	-0.949056	-0.411418
C62	C	1.506629	-0.449056	0.088582
C63	C	1.042547	-0.948619	-0.277004
C64	C	1.542547	-0.448619	0.222996
C65	C	1.042202	-1.071217	-0.277350
C66	C	1.542202	-0.571217	0.222650
C67	C	1.141499	-1.071131	-0.374450
C68	C	1.641499	-0.571131	0.125550
C69	C	1.141021	-0.948525	-0.376146
C70	C	1.641021	-0.448525	0.123854
C71	C	1.255502	-0.510808	-0.354564
C72	C	1.755502	-0.010808	0.145436
C73	C	1.337301	-0.510823	-0.354569
C74	C	1.837301	-0.010823	0.145431
C75	C	1.063593	-0.510714	-0.546505
C76	C	1.563593	-0.010714	-0.046505
C77	C	1.063611	-0.510688	-0.628304
C78	C	1.563611	-0.010688	-0.128304
C79	C	1.063623	-0.234270	-0.354578
C80	C	1.563623	0.265730	0.145422
C81	C	1.063654	-0.116440	-0.354589
C82	C	1.563654	0.383560	0.145411
C83	C	1.110696	-0.578368	-0.893362
C84	C	1.610696	-0.078368	-0.393362
C85	C	1.110685	-0.578405	-0.816503
C86	C	1.610685	-0.078405	-0.316503
C87	C	1.016582	-0.442804	-0.816494
C88	C	1.516582	0.057196	-0.316494
C89	C	1.016590	-0.442773	-0.893351
C90	C	1.516590	0.057227	-0.393351
C91	C	1.063651	-0.510554	-0.931783
C92	C	1.563651	-0.010554	-0.431783
C93	C	1.063632	-0.510621	-0.778067
C94	C	1.563632	-0.010621	-0.278067
C95	C	1.063619	-0.510660	-0.694734
C96	C	1.563619	-0.010660	-0.194734
C97	C	1.063663	-0.510516	-1.015122
C98	C	1.563663	-0.010516	-0.515122
C99	C	1.063548	-0.510759	-0.163346
C100	C	1.563548	-0.010759	0.336654
C101	C	1.063672	-0.510487	-0.081547
C102	C	1.563672	-0.010487	0.418453
H103	H	0.633646	-0.633935	-0.439807
H104	H	1.133646	-0.133935	0.060193
H105	H	0.494190	-0.387643	-0.269301
H106	H	0.994190	0.112357	0.230699
H107	H	0.978268	-0.387618	-0.785193
H108	H	1.478268	0.112382	-0.285193
H109	H	1.148993	-0.633626	-0.785224
H110	H	1.648993	-0.133626	-0.285224
H111	H	0.494219	-0.633951	-0.439817
H112	H	0.994219	-0.133951	0.060183
H113	H	0.633632	-0.387629	-0.269305
H114	H	1.133632	0.112371	0.230695
H115	H	1.019763	-0.918909	-0.468927
H116	H	1.519763	-0.418909	0.031073
H117	H	0.948919	-0.919816	-0.398261
H118	H	1.448919	-0.419816	0.101739
H119	H	1.019932	-1.101034	-0.469299
H120	H	1.519932	-0.601034	0.030701
H121	H	1.081732	-1.100872	-0.233424
H122	H	1.581732	-0.600872	0.266576
H123	H	0.986236	-0.918002	-0.259875
H124	H	1.486236	-0.418002	0.240125
H125	H	1.149015	-0.633560	-0.924651
H126	H	1.649015	-0.133560	-0.424651
H127	H	0.978277	-0.387549	-0.924635
H128	H	1.478277	0.112451	-0.424635
H129	H	1.156852	-0.919381	-0.433224
H130	H	1.656852	-0.419381	0.066776
H131	H	0.949569	-1.102511	-0.398612
H132	H	1.449569	-0.602511	0.101388
H133	H	0.985297	-1.099903	-0.260525
H134	H	1.485297	-0.599903	0.239475
H135	H	1.082561	-0.919458	-0.233365
H136	H	1.582561	-0.419458	0.266635
H137	H	1.160649	-1.101982	-0.430044
H138	H	1.660649	-0.601982	0.069956
H139	H	1.185518	-0.917873	-0.337645
H140	H	1.685518	-0.417873	0.162355
H141	H	1.183768	-1.100117	-0.332926
H142	H	1.683768	-0.600117	0.167074
