data_functionalizedCrystal
_audit_creation_method	'MofGen! by Chris Wilmer'
_symmetry_space_group_name_H-M	'P1'
_symmetry_Int_Tables_number	1
_symmetry_cell_setting	triclinic
loop_
_symmetry_equiv_pos_as_xyz
  x,y,z
_cell_length_a	6.817900
_cell_length_b	27.923497
_cell_length_c	27.924317
_cell_angle_alpha	97.608920
_cell_angle_beta	98.979858
_cell_angle_gamma	98.964248
loop_
_atom_site_label
_atom_site_type_symbol
_atom_site_fract_x
_atom_site_fract_y
_atom_site_fract_z
V1	V	-3.954534	-0.067878	-0.151603
V2	V	-3.621201	0.265455	0.181731
V3	V	-3.287867	0.598788	0.515064
O4	O	-3.966270	0.002491	-0.148388
O5	O	-3.632936	0.335824	0.184945
O6	O	-3.299603	0.669158	0.518279
O7	O	-3.884571	-0.133850	-0.150882
O8	O	-3.551238	0.199484	0.182451
O9	O	-3.217904	0.532817	0.515785
O10	O	-3.884657	-0.067172	-0.217578
O11	O	-3.551324	0.266161	0.115756
O12	O	-3.217991	0.599494	0.449089
O13	O	-3.966183	-0.064648	-0.081231
O14	O	-3.632849	0.268685	0.252103
O15	O	-3.299516	0.602019	0.585436
V16	V	-4.443739	-0.059421	-0.143147
V17	V	-4.110405	0.273912	0.190186
V18	V	-3.777072	0.607245	0.523519
O19	O	-4.203329	-0.086429	-0.170150
O20	O	-3.869995	0.246904	0.163183
O21	O	-3.536662	0.580237	0.496516
O22	O	-4.645141	-0.040870	-0.124599
O23	O	-4.311808	0.292463	0.208734
O24	O	-3.978475	0.625796	0.542067
O25	O	-4.290495	0.006550	-0.143868
O26	O	-3.957162	0.339883	0.189466
O27	O	-3.623828	0.673217	0.522799
O28	O	-4.549400	-0.129790	-0.146362
O29	O	-4.216067	0.203543	0.186971
O30	O	-3.882733	0.536876	0.520305
O31	O	-4.549487	-0.062652	-0.213519
O32	O	-4.216154	0.270682	0.119814
O33	O	-3.882820	0.604015	0.453148
O34	O	-4.290409	-0.060127	-0.077172
O35	O	-3.957075	0.273206	0.256161
O36	O	-3.623742	0.606540	0.589494
C37	C	-3.725021	-0.149922	-0.148572
C38	C	-3.391688	0.183412	0.184761
C39	C	-3.058355	0.516745	0.518095
C40	C	-3.748962	-0.203856	-0.148423
C41	C	-3.415629	0.129477	0.184911
C42	C	-3.082295	0.462810	0.518244
C43	C	-3.725131	-0.064867	-0.233648
C44	C	-3.391797	0.268466	0.099685
C45	C	-3.058464	0.601799	0.433019
C46	C	-3.749140	-0.064727	-0.287585
C47	C	-3.415807	0.268607	0.045748
C48	C	-3.082473	0.601940	0.379082
C49	C	-3.943262	-0.108045	-0.679873
C50	C	-3.609929	0.225288	-0.346540
C51	C	-3.276596	0.558622	-0.013207
C52	C	-3.853308	-0.108650	-0.477173
C53	C	-3.519975	0.224683	-0.143839
C54	C	-3.186641	0.558017	0.189494
O55	O	-3.861343	-0.146543	-0.457043
O56	O	-3.528010	0.186790	-0.123710
O57	O	-3.194676	0.520124	0.209624
N58	N	-3.818842	-0.064259	-0.444676
N59	N	-3.485508	0.269075	-0.111343
N60	N	-3.152175	0.602408	0.221990
C61	C	-3.806851	-0.019713	-0.462858
C62	C	-3.473518	0.313620	-0.129524
C63	C	-3.140184	0.646954	0.203809
O64	O	-3.775451	0.018031	-0.430566
O65	O	-3.442117	0.351364	-0.097233
O66	O	-3.108784	0.684698	0.236100
C67	C	-3.896791	-0.019108	-0.665557
C68	C	-3.563458	0.314225	-0.332224
C69	C	-3.230124	0.647558	0.001109
C70	C	-3.931278	-0.063503	-0.698052
C71	C	-3.597944	0.269831	-0.364718
C72	C	-3.264611	0.603164	-0.031385
C73	C	-3.977745	-0.152436	-0.712367
C74	C	-3.644412	0.180897	-0.379034
C75	C	-3.311078	0.514231	-0.045700
C76	C	-4.000243	-0.152284	-0.763039
C77	C	-3.666910	0.181049	-0.429706
C78	C	-3.333576	0.514382	-0.096373
C79	C	-3.988258	-0.107742	-0.781218
C80	C	-3.654925	0.225591	-0.447884
C81	C	-3.321592	0.558925	-0.114551
C82	C	-3.953776	-0.063351	-0.748724
C83	C	-3.620442	0.269982	-0.415391
C84	C	-3.287109	0.603315	-0.082057
C85	C	-3.884786	0.025437	-0.683738
C86	C	-3.551452	0.358771	-0.350404
C87	C	-3.218119	0.692104	-0.017071
C88	C	-3.907269	0.025584	-0.734416
C89	C	-3.573936	0.358918	-0.401083
C90	C	-3.240603	0.692251	-0.067750
C91	C	-3.941756	-0.018810	-0.766911
C92	C	-3.608423	0.314523	-0.433577
C93	C	-3.275089	0.647857	-0.100244
C94	C	-3.964289	-0.018657	-0.817575
C95	C	-3.630956	0.314676	-0.484241
C96	C	-3.297622	0.648009	-0.150908
N97	N	-3.998755	-0.063049	-0.850071
N98	N	-3.665422	0.270285	-0.516738
N99	N	-3.332088	0.603618	-0.183404
C100	C	-4.010740	-0.107591	-0.831892
C101	C	-3.677406	0.225742	-0.498559
C102	C	-3.344073	0.559076	-0.165226
C103	C	-3.759637	-0.020033	-0.356438
C104	C	-3.426303	0.313300	-0.023105
C105	C	-3.092970	0.646633	0.310229
C106	C	-3.737155	-0.020184	-0.305763
C107	C	-3.403822	0.313149	0.027570
C108	C	-3.070489	0.646482	0.360903
C109	C	-3.783610	-0.109122	-0.320082
C110	C	-3.450277	0.224212	0.013252
C111	C	-3.116943	0.557545	0.346585
C112	C	-3.806106	-0.108970	-0.370758
C113	C	-3.472773	0.224363	-0.037424
C114	C	-3.139439	0.557696	0.295909
C115	C	-3.794103	-0.064425	-0.388934
C116	C	-3.460769	0.268909	-0.055601
C117	C	-3.127436	0.602242	0.277732
C118	C	-4.057987	-0.107269	-0.938307
C119	C	-3.724654	0.226064	-0.604974
C120	C	-3.391320	0.559397	-0.271641
C121	C	-4.080493	-0.107114	-0.988983
C122	C	-3.747160	0.226219	-0.655650
C123	C	-3.413826	0.559553	-0.322317
C124	C	-4.034026	-0.018177	-0.974661
C125	C	-3.700692	0.315156	-0.641327
C126	C	-3.367359	0.648490	-0.307994
C127	C	-4.011532	-0.018332	-0.923989
C128	C	-3.678199	0.315001	-0.590656
C129	C	-3.344865	0.648334	-0.257322
C130	C	-4.023508	-0.062882	-0.905814
C131	C	-3.690175	0.270451	-0.572481
C132	C	-3.356842	0.603784	-0.239147
O133	O	-3.956256	0.019216	-0.837738
O134	O	-3.622922	0.352550	-0.504405
O135	O	-3.289589	0.685883	-0.171072
O136	O	-4.042097	-0.145329	-0.864191
O137	O	-3.708763	0.188005	-0.530858
O138	O	-3.375430	0.521338	-0.197524
C139	C	-3.920765	-0.108197	-0.629201
C140	C	-3.587431	0.225137	-0.295868
C141	C	-3.254098	0.558470	0.037466
C142	C	-3.886282	-0.063806	-0.596707
C143	C	-3.552949	0.269528	-0.263374
C144	C	-3.219615	0.602861	0.069959
C145	C	-3.874297	-0.019263	-0.614886
C146	C	-3.540964	0.314070	-0.281552
C147	C	-3.207631	0.647403	0.051781
C148	C	-3.863800	-0.063957	-0.546033
C149	C	-3.530467	0.269377	-0.212699
C150	C	-3.197134	0.602710	0.120634
C151	C	-3.875785	-0.108499	-0.527854
C152	C	-3.542452	0.224834	-0.194521
C153	C	-3.209118	0.558168	0.138812
C154	C	-3.910251	-0.152890	-0.560351
C155	C	-3.576918	0.180443	-0.227017
C156	C	-3.243585	0.513776	0.106316
C157	C	-3.932749	-0.152739	-0.611023
C158	C	-3.599416	0.180594	-0.277689
C159	C	-3.266083	0.513928	0.055644
C160	C	-3.839831	0.025128	-0.582390
C161	C	-3.506498	0.358461	-0.249056
C162	C	-3.173164	0.691794	0.084277
C163	C	-3.817337	0.024973	-0.531718
C164	C	-3.484004	0.358306	-0.198385
C165	C	-3.150671	0.691639	0.134949
C166	C	-3.829322	-0.019570	-0.513539
C167	C	-3.495989	0.313764	-0.180206
C168	C	-3.162655	0.647097	0.153127
C169	C	-3.874335	-0.531154	-0.102977
C170	C	-3.541002	-0.197820	0.230356
C171	C	-3.207669	0.135513	0.563689
C172	C	-3.964389	-0.733858	-0.102390
C173	C	-3.631056	-0.400525	0.230944
C174	C	-3.297723	-0.067192	0.564277
O175	O	-3.956336	-0.753991	-0.064498
O176	O	-3.623003	-0.420658	0.268835
O177	O	-3.289670	-0.087324	0.602168
N178	N	-3.998904	-0.766352	-0.146784
N179	N	-3.665571	-0.433019	0.186550
N180	N	-3.332237	-0.099685	0.519883
C181	C	-4.010919	-0.748167	-0.191328
C182	C	-3.677585	-0.414834	0.142005
C183	C	-3.344252	-0.081501	0.475339
O184	O	-4.042362	-0.780457	-0.229075
O185	O	-3.709029	-0.447123	0.104259
O186	O	-3.375696	-0.113790	0.437592
C187	C	-3.920879	-0.545464	-0.191915
C188	C	-3.587546	-0.212131	0.141418
C189	C	-3.254212	0.121203	0.474751
C190	C	-3.886344	-0.512972	-0.147518
C191	C	-3.553011	-0.179639	0.185815
C192	C	-3.219677	0.153695	0.519149
C193	C	-3.839804	-0.498662	-0.058584
C194	C	-3.506471	-0.165329	0.274749
C195	C	-3.173138	0.168004	0.608083
C196	C	-3.817282	-0.447989	-0.058731
C197	C	-3.483948	-0.114656	0.274602
C198	C	-3.150615	0.218677	0.607936
C199	C	-3.829290	-0.429807	-0.103272
C200	C	-3.495957	-0.096474	0.230062
C201	C	-3.162623	0.236859	0.563395
C202	C	-3.863821	-0.462299	-0.147665
C203	C	-3.530488	-0.128965	0.185668
C204	C	-3.197155	0.204368	0.519001
C205	C	-3.932908	-0.527280	-0.236459
C206	C	-3.599575	-0.193947	0.096874
C207	C	-3.266241	0.139386	0.430208
C208	C	-3.910400	-0.476601	-0.236602
C209	C	-3.577067	-0.143267	0.096731
C210	C	-3.243733	0.190066	0.430065
C211	C	-3.875865	-0.444109	-0.192205
C212	C	-3.542531	-0.110775	0.141128
C213	C	-3.209198	0.222558	0.474462
C214	C	-3.853307	-0.393444	-0.192353
C215	C	-3.519974	-0.060111	0.140980
C216	C	-3.186640	0.273223	0.474313
N217	N	-3.818792	-0.360950	-0.147959
N218	N	-3.485459	-0.027617	0.185374
N219	N	-3.152126	0.305717	0.518707
C220	C	-3.806784	-0.379132	-0.103419
C221	C	-3.473450	-0.045799	0.229915
C222	C	-3.140117	0.287535	0.563248
C223	C	-4.058185	-0.854589	-0.191016
C224	C	-3.724852	-0.521256	0.142317
C225	C	-3.391518	-0.187922	0.475650
C226	C	-4.080691	-0.905265	-0.190870
C227	C	-3.747358	-0.571931	0.142464
C228	C	-3.414025	-0.238598	0.475797
C229	C	-4.034164	-0.890952	-0.101931
C230	C	-3.700831	-0.557619	0.231402
C231	C	-3.367497	-0.224285	0.564735
C232	C	-4.011643	-0.840275	-0.102078
C233	C	-3.678310	-0.506942	0.231255
C234	C	-3.344977	-0.173609	0.564588
C235	C	-4.023670	-0.822095	-0.146622
C236	C	-3.690337	-0.488762	0.186711
C237	C	-3.357004	-0.155428	0.520044
C238	C	-3.759484	-0.272715	-0.103731
C239	C	-3.426151	0.060618	0.229602
C240	C	-3.092818	0.393952	0.562936
C241	C	-3.736954	-0.222038	-0.103882
C242	C	-3.403620	0.111295	0.229451
C243	C	-3.070287	0.444629	0.562785
C244	C	-3.783493	-0.236355	-0.192820
C245	C	-3.450160	0.096978	0.140513
C246	C	-3.116826	0.430312	0.473846
C247	C	-3.806012	-0.287028	-0.192669
C248	C	-3.472678	0.046306	0.140664
C249	C	-3.139345	0.379639	0.473997
C250	C	-3.794011	-0.305206	-0.148121
C251	C	-3.460678	0.028127	0.185212
C252	C	-3.127345	0.361461	0.518546
O253	O	-3.861358	-0.373277	-0.230225
O254	O	-3.528025	-0.039944	0.103108
O255	O	-3.194691	0.293390	0.436441
O256	O	-3.775383	-0.346835	-0.065678
O257	O	-3.442050	-0.013502	0.267655
O258	O	-3.108717	0.319831	0.600988
C259	C	-3.896858	-0.581827	-0.102830
C260	C	-3.563525	-0.248494	0.230503
C261	C	-3.230192	0.084840	0.563836
C262	C	-3.931389	-0.614318	-0.147224
C263	C	-3.598056	-0.280985	0.186110
C264	C	-3.264723	0.052348	0.519443
C265	C	-3.943398	-0.596136	-0.191764
C266	C	-3.610064	-0.262803	0.141569
C267	C	-3.276731	0.070530	0.474902
C268	C	-3.953896	-0.664994	-0.147077
C269	C	-3.620562	-0.331661	0.186256
C270	C	-3.287229	0.001673	0.519590
C271	C	-3.941887	-0.683176	-0.102536
C272	C	-3.608554	-0.349842	0.230797
C273	C	-3.275221	-0.016509	0.564130
C274	C	-3.907373	-0.650682	-0.058142
C275	C	-3.574039	-0.317349	0.275191
C276	C	-3.240706	0.015985	0.608524
C277	C	-3.884850	-0.600009	-0.058289
C278	C	-3.551516	-0.266675	0.275044
C279	C	-3.218183	0.066658	0.608377
C280	C	-3.977912	-0.628630	-0.236158
C281	C	-3.644579	-0.295297	0.097175
C282	C	-3.311246	0.038036	0.430508
C283	C	-4.000431	-0.679303	-0.236007
C284	C	-3.667098	-0.345969	0.097326
C285	C	-3.333764	-0.012636	0.430659
C286	C	-3.988423	-0.697485	-0.191467
C287	C	-3.655089	-0.364151	0.141867
C288	C	-3.321756	-0.030818	0.475200
C289	C	-4.113387	0.022619	-0.146176
C290	C	-3.780053	0.355953	0.187157
C291	C	-3.446720	0.689286	0.520490
C292	C	-4.068683	0.076554	-0.146329
C293	C	-3.735350	0.409887	0.187004
C294	C	-3.402016	0.743220	0.520338
C295	C	-4.113278	-0.062434	-0.061099
C296	C	-3.779945	0.270900	0.272234
C297	C	-3.446611	0.604233	0.605567
C298	C	-4.068508	-0.062572	-0.007162
C299	C	-3.735175	0.270762	0.326171
C300	C	-3.401842	0.604095	0.659505
H301	H	-4.108578	-0.143267	-1.015439
H302	H	-3.775245	0.190066	-0.682106
H303	H	-3.441911	0.523400	-0.348773
F304	F	-4.021275	0.029226	-0.994017
F305	F	-3.687941	0.362559	-0.660683
F306	F	-3.354608	0.695892	-0.327350
F307	F	-3.700192	-0.187460	-0.056626
F308	F	-3.366858	0.145874	0.276707
F309	F	-3.033525	0.479207	0.610040
H310	H	-4.028318	-0.188435	-0.789492
H311	H	-3.694985	0.144898	-0.456159
H312	H	-3.361651	0.478232	-0.122826
F313	F	-3.923211	-0.457256	-0.284014
F314	F	-3.589878	-0.123922	0.049320
F315	F	-3.256544	0.209411	0.382653
H316	H	-3.830059	0.061400	-0.597184
H317	H	-3.496725	0.394734	-0.263851
H318	H	-3.163392	0.728067	0.069482
H319	H	-3.789272	0.061126	-0.505264
H320	H	-3.455938	0.394460	-0.171931
H321	H	-3.122605	0.727793	0.161402
F322	F	-3.827024	-0.518004	-0.011173
F323	F	-3.493691	-0.184671	0.322160
F324	F	-3.160358	0.148662	0.655493
H325	H	-3.709106	0.015966	-0.279311
H326	H	-3.375773	0.349299	0.054023
H327	H	-3.042440	0.682632	0.387356
H328	H	-3.856730	-0.573558	-0.022137
H329	H	-3.523397	-0.240224	0.311197
H330	H	-3.190064	0.093109	0.644530
F331	F	-4.070735	-0.154685	-0.918972
F332	F	-3.737402	0.178649	-0.585638
F333	F	-3.404068	0.511982	-0.252305
H334	H	-3.961029	-0.553727	-0.272612
H335	H	-3.627695	-0.220394	0.060721
H336	H	-3.294362	0.112939	0.394054
F337	F	-3.746707	-0.292054	-0.056318
F338	F	-3.413374	0.041279	0.277016
F339	F	-3.080040	0.374612	0.610349
H340	H	-3.789175	-0.421538	-0.022578
H341	H	-3.455842	-0.088205	0.310755
H342	H	-3.122509	0.245128	0.644088
H343	H	-3.983521	-0.813823	-0.065926
H344	H	-3.650188	-0.480490	0.267407
H345	H	-3.316854	-0.147156	0.600740
H346	H	-3.987502	-0.188709	-0.697573
H347	H	-3.654169	0.144624	-0.364239
H348	H	-3.320835	0.477957	-0.030906
H349	H	-3.749853	0.016243	-0.371232
H350	H	-3.416519	0.349576	-0.037898
H351	H	-3.083186	0.682910	0.295435
H352	H	-4.024381	-0.905764	-0.065664
H353	H	-3.691047	-0.572430	0.267669
H354	H	-3.357714	-0.239097	0.601002
H355	H	-3.960827	-0.188889	-0.637476
H356	H	-3.627494	0.144444	-0.304143
H357	H	-3.294160	0.477777	0.029191
H358	H	-4.108779	-0.931715	-0.227022
H359	H	-3.775445	-0.598382	0.106311
H360	H	-3.442112	-0.265049	0.439645
H361	H	-3.834180	-0.145120	-0.397212
H362	H	-3.500846	0.188213	-0.063878
H363	H	-3.167513	0.521547	0.269455
F364	F	-3.842839	-0.321610	-0.239922
F365	F	-3.509506	0.011723	0.093411
F366	F	-3.176172	0.345057	0.426744
H367	H	-3.856708	0.061588	-0.657289
H368	H	-3.523375	0.394921	-0.323955
H369	H	-3.190041	0.728255	0.009378
F370	F	-4.070982	-0.835247	-0.238429
F371	F	-3.737648	-0.501914	0.094904
F372	F	-3.404315	-0.168580	0.428237
F373	F	-3.796254	-0.216995	-0.240221
F374	F	-3.462920	0.116338	0.093112
F375	F	-3.129587	0.449671	0.426446
F376	F	-3.894587	-0.670041	-0.010739
F377	F	-3.561254	-0.336708	0.322595
F378	F	-3.227920	-0.003374	0.655928
F379	F	-3.796360	-0.156527	-0.300727
F380	F	-3.463027	0.176806	0.032607
F381	F	-3.129693	0.510139	0.365940
H382	H	-3.983476	0.017817	-0.897531
H383	H	-3.650142	0.351150	-0.564197
H384	H	-3.316809	0.684484	-0.230864
F385	F	-3.894486	0.072998	-0.753758
F386	F	-3.561153	0.406331	-0.420424
F387	F	-3.227820	0.739664	-0.087091
F388	F	-3.923012	-0.200296	-0.540995
F389	F	-3.589679	0.133038	-0.207662
F390	F	-3.256346	0.466371	0.125672
H391	H	-4.028536	-0.705755	-0.272164
H392	H	-3.695203	-0.372421	0.061170
H393	H	-3.361869	-0.039088	0.394503
F394	F	-3.990696	-0.609287	-0.283567
F395	F	-3.657362	-0.275954	0.049766
F396	F	-3.324029	0.057379	0.383099
