data_functionalizedCrystal
_audit_creation_method	'MofGen! by Chris Wilmer'
_symmetry_space_group_name_H-M	'P1'
_symmetry_Int_Tables_number	1
_symmetry_cell_setting	triclinic
loop_
_symmetry_equiv_pos_as_xyz
  x,y,z
_cell_length_a	27.440280
_cell_length_b	14.395555
_cell_length_c	14.395555
_cell_angle_alpha	60.002398
_cell_angle_beta	90.004690
_cell_angle_gamma	59.995745
loop_
_atom_site_label
_atom_site_type_symbol
_atom_site_fract_x
_atom_site_fract_y
_atom_site_fract_z
Zr1	Zr	0.469472	1.016723	-0.121801
O2	O	0.391648	1.210537	-0.270146
O3	O	0.493333	0.822916	-0.076324
O4	O	0.493329	1.016711	-0.270119
O5	O	0.391652	1.016749	0.076517
O6	O	0.573531	1.016693	-0.270100
O7	O	0.391653	1.016742	-0.076351
O8	O	0.573540	0.670029	0.076564
O9	O	0.391644	1.363413	-0.270147
O10	O	0.563360	0.902615	-0.056916
O11	O	0.503505	0.902634	0.057152
O12	O	0.503499	1.130802	-0.171016
O13	O	0.443644	1.130821	-0.056947
Zr14	Zr	0.597385	1.016705	0.122035
Zr15	Zr	0.597386	1.016694	-0.121771
Zr16	Zr	0.469471	1.016734	0.122004
Zr17	Zr	0.469465	1.260542	-0.121804
Zr18	Zr	0.597393	0.772886	0.122037
O19	O	0.573524	1.210512	0.076558
O20	O	0.573526	1.210496	-0.270102
O21	O	0.391647	1.210553	0.076515
O22	O	0.675210	0.822891	0.270379
O23	O	0.675211	0.822875	-0.076281
O24	O	0.493332	0.822931	0.270336
O25	O	0.675205	1.016679	-0.076283
O26	O	0.573529	1.016717	0.270353
O27	O	0.493326	1.016735	0.270334
O28	O	0.675205	1.016686	0.076584
O29	O	0.493318	1.363390	-0.270123
O30	O	0.573539	0.670038	0.270356
O31	O	0.675214	0.670015	0.270381
O32	O	0.675215	0.670006	0.076588
O33	O	0.391643	1.363421	-0.076354
O34	O	0.493318	1.363399	-0.076330
O35	O	0.563359	0.902626	0.171250
O36	O	0.623214	0.902607	0.057181
O37	O	0.563353	1.130794	-0.056919
O38	O	0.503498	1.130813	0.057150
C39	C	0.533438	0.711733	0.000120
C40	C	0.533441	0.608226	0.000121
C41	C	0.566071	0.547637	-0.062085
C42	C	0.589722	0.409528	0.045188
C43	C	0.509793	0.561900	-0.107141
C44	C	0.557125	0.471417	0.107458
C45	C	0.477165	0.623863	-0.044949
C46	C	0.500802	0.485763	0.062389
C47	C	0.373428	1.016750	0.000079
C48	C	0.319125	1.016762	0.000066
C49	C	0.013674	0.897581	0.059707
C50	C	-0.037345	0.897574	0.059717
O51	O	-0.037159	0.796274	0.110404
N52	N	-0.094108	1.016684	0.000157
C53	C	-0.099852	1.135809	-0.059407
O54	O	-0.152819	1.237120	-0.110066
C55	C	-0.048834	1.135815	-0.059410
C56	C	0.007928	1.016697	0.000144
C57	C	0.070434	0.778473	0.119258
C58	C	0.121449	0.778481	0.119246
C59	C	0.115703	0.897596	0.059683
C60	C	0.058943	1.016705	0.000132
C61	C	-0.054579	1.254938	-0.118967
C62	C	-0.003555	1.254934	-0.118964
C63	C	0.053208	1.135816	-0.059410
C64	C	0.104213	1.135828	-0.059443
N65	N	0.160976	1.016718	0.000117
C66	C	0.166721	0.897602	0.059680
C67	C	-0.206991	1.135787	-0.059395
C68	C	-0.258008	1.135783	-0.059400
C69	C	-0.195497	0.897547	0.059726
C70	C	-0.144479	0.897553	0.059724
C71	C	-0.150228	1.016677	0.000165
C72	C	0.273854	0.897628	0.059650
C73	C	0.324870	0.897646	0.059628
C74	C	0.262355	1.135881	-0.059493
C75	C	0.211342	1.135863	-0.059477
C76	C	0.217096	1.016726	0.000103
O77	O	0.104072	1.237076	-0.110100
O78	O	0.219689	0.796308	0.110343
C79	C	0.693430	1.016678	0.000155
C80	C	0.747733	1.016666	0.000168
C81	C	0.533430	1.016700	-0.304847
C82	C	0.533430	1.016695	-0.408349
C83	C	0.533420	1.321694	0.000114
C84	C	0.533417	1.425202	0.000113
C85	C	0.566072	0.892278	-0.406725
C86	C	0.509790	0.954484	-0.499761
C87	C	0.589699	0.954495	-0.499741
C88	C	0.477115	1.078902	-0.500021
C89	C	0.557065	1.078895	-0.499987
C90	C	0.500749	1.141192	-0.593040
C91	C	0.533428	1.016728	0.305080
C92	C	0.533427	1.016732	0.408582
C93	C	0.693439	0.711698	0.000158
C94	C	0.747745	0.608178	0.000172
C95	C	0.533437	0.711747	0.305084
C96	C	0.533439	0.608244	0.408586
C97	C	0.693438	0.711711	0.305122
C98	C	0.747743	0.608196	0.408638
C99	C	0.373420	1.321716	-0.304888
C100	C	0.319115	1.425231	-0.408404
C101	C	0.373419	1.321730	0.000075
C102	C	0.319113	1.425250	0.000061
C103	C	0.533421	1.321681	-0.304850
C104	C	0.533419	1.425184	-0.408353
C105	C	0.742004	0.559568	-0.059389
C106	C	0.793026	0.462314	-0.059399
C107	C	0.849787	0.413664	0.000160
C108	C	0.855526	0.462284	0.059723
C109	C	0.804506	0.559543	0.059726
C110	C	0.804495	0.559575	0.397707
C111	C	0.855525	0.462325	0.494962
C112	C	0.849803	0.413692	0.603146
C113	C	0.793046	0.462323	0.614075
C114	C	0.742017	0.559578	0.516821
C115	C	0.262363	1.473865	-0.397473
C116	C	0.211332	1.571145	-0.494728
C117	C	0.217054	1.619783	-0.602913
C118	C	0.273812	1.571146	-0.613841
C119	C	0.324841	1.473874	-0.516587
C120	C	0.324853	1.473870	0.059612
C121	C	0.273832	1.571151	0.059595
C122	C	0.217071	1.619804	0.000033
C123	C	0.211332	1.571180	-0.059526
C124	C	0.262352	1.473907	-0.059514
C125	C	0.500805	0.547664	0.406965
C126	C	0.557091	0.409549	0.499998
C127	C	0.477177	0.561905	0.499984
C128	C	0.589759	0.471430	0.500256
C129	C	0.509804	0.623860	0.500228
C130	C	0.566124	0.485754	0.593278
H131	H	0.577169	0.434027	0.198207
Br132	Br	0.147793	1.751797	-0.734891
H133	H	0.257693	1.434269	-0.309393
Br134	Br	0.590411	1.166458	-0.498360
Br135	Br	0.454801	0.440734	0.150176
Br136	Br	0.669110	0.409106	0.498911
Br137	Br	0.590426	0.256824	0.501560
Br138	Br	0.785222	0.396349	-0.140237
H139	H	0.175531	1.699009	0.000033
Br140	Br	0.454871	0.592821	0.274019
H141	H	0.809165	0.599158	0.309627
Br142	Br	0.281567	1.637167	-0.760672
Br143	Br	0.812307	0.625495	0.140574
Br144	Br	0.401859	1.407877	-0.531442
Br145	Br	0.612192	0.440704	0.726009
Br146	Br	0.669025	0.256782	0.108720
H147	H	0.165123	1.610729	-0.485808
Br148	Br	0.664998	0.625546	0.531676
H149	H	0.593629	0.787074	-0.326958
H150	H	0.257670	1.434324	-0.108005
Br151	Br	-0.187709	0.735888	0.140561
H152	H	0.371067	1.434264	0.108123
H153	H	0.489789	0.715522	0.499237
Br154	Br	-0.067448	0.735888	0.140550
H155	H	0.637288	0.901884	-0.500628
H156	H	0.489804	0.599100	-0.197846
Br157	Br	0.281635	1.637116	0.140433
Br158	Br	0.134293	1.637220	-0.140352
Br159	Br	0.397858	0.623959	0.501459
Br160	Br	0.397761	1.166496	-0.498680
H161	H	0.901748	0.422659	0.108214
H162	H	0.901735	0.422740	0.486044
Br163	Br	0.397872	0.776639	-0.108527
H164	H	0.593708	0.574710	-0.114598
Br165	Br	0.281670	0.735940	0.140507
Br166	Br	0.198478	0.616812	0.200082
Br167	Br	0.401905	0.735975	0.140452
Br168	Br	0.454678	1.316684	-0.725775
Br169	Br	0.919064	0.281702	0.735124
Br170	Br	0.078247	0.616793	0.200110
H171	H	-0.304223	1.232780	-0.107910
H172	H	-0.211680	1.232798	-0.107901
Br173	Br	-0.011362	1.416612	-0.199794
Br174	Br	-0.131604	1.416609	-0.199787
Br175	Br	0.254569	1.297530	-0.140306
Br176	Br	0.476461	0.866861	-0.501322
Br177	Br	0.134306	1.297524	-0.140329
H178	H	0.695791	0.599178	-0.107903
Br179	Br	0.919024	0.281668	0.000146
Br180	Br	0.785290	0.396307	0.760905
