data_functionalizedCrystal
_audit_creation_method	'MofGen! by Chris Wilmer'
_symmetry_space_group_name_H-M	'P1'
_symmetry_Int_Tables_number	1
_symmetry_cell_setting	triclinic
loop_
_symmetry_equiv_pos_as_xyz
  x,y,z
_cell_length_a	15.944551
_cell_length_b	26.210047
_cell_length_c	15.944551
_cell_angle_alpha	89.996450
_cell_angle_beta	83.498738
_cell_angle_gamma	90.004547
loop_
_atom_site_label
_atom_site_type_symbol
_atom_site_fract_x
_atom_site_fract_y
_atom_site_fract_z
O1	O	1.114531	0.042377	0.108320
O2	O	1.614531	0.542377	0.608320
O3	O	0.869981	0.042390	0.121676
O4	O	1.369981	0.542390	0.621676
O5	O	0.998934	0.042378	-0.007277
O6	O	1.498934	0.542378	0.492723
O7	O	0.985578	0.042388	0.237273
O8	O	1.485578	0.542388	0.737273
O9	O	0.998909	-0.042480	-0.007257
O10	O	1.498909	0.457520	0.492743
O11	O	0.869956	-0.042468	0.121696
O12	O	1.369956	0.457532	0.621696
O13	O	1.114506	-0.042481	0.108340
O14	O	1.614506	0.457519	0.608340
Cu15	Cu	0.992229	-0.050223	0.115020
Cu16	Cu	1.492229	0.449777	0.615020
Cu17	Cu	0.992258	0.050132	0.114996
Cu18	Cu	1.492258	0.550132	0.614996
O19	O	0.985553	-0.042470	0.237293
O20	O	1.485553	0.457530	0.737293
C21	C	0.838675	-0.000038	0.121132
C22	C	1.338675	0.499962	0.621132
C23	C	0.745429	-0.000033	0.119470
C24	C	1.245429	0.499967	0.619470
N25	N	0.992214	-0.120807	0.115036
N26	N	1.492214	0.379193	0.615036
C27	C	0.530572	-0.000046	0.035565
C28	C	1.030572	0.499954	0.535565
C29	C	0.469564	0.041795	0.074518
C30	C	0.969564	0.541795	0.574518
C31	C	0.574703	-0.000039	0.116462
C32	C	1.074703	0.499961	0.616462
C33	C	0.469562	-0.041869	0.074557
C34	C	0.969562	0.458131	0.574557
C35	C	0.409790	-0.000047	0.113551
C36	C	0.909790	0.499953	0.613551
C37	C	0.514923	0.041837	0.155437
C38	C	1.014923	0.541837	0.655437
C39	C	0.514927	-0.041864	0.155465
C40	C	1.014927	0.458136	0.655465
C41	C	0.453937	-0.000013	0.194476
C42	C	0.953937	0.499987	0.694476
C43	C	0.669705	-0.000034	0.118137
C44	C	1.169705	0.499966	0.618137
C45	C	0.314789	-0.000049	0.111883
C46	C	0.814789	0.499951	0.611883
C47	C	1.049353	-0.473326	0.057909
C48	C	1.549353	0.026674	0.557909
C49	C	1.049372	-0.686985	0.057897
C50	C	1.549372	-0.186985	0.557897
O51	O	1.097920	-0.714611	0.009329
O52	O	1.597920	-0.214611	0.509329
N53	N	0.992263	-0.713701	0.114978
N54	N	1.492263	-0.213701	0.614978
C55	C	0.935142	-0.686999	0.172062
C56	C	1.435142	-0.186999	0.672062
O57	O	0.886562	-0.714625	0.220606
O58	O	1.386562	-0.214625	0.720606
C59	C	0.935120	-0.473342	0.172069
C60	C	1.435120	0.026658	0.672069
C61	C	0.992238	-0.446628	0.114990
C62	C	1.492238	0.053372	0.614990
C63	C	1.106466	-0.446612	0.000834
C64	C	1.606466	0.053388	0.500834
C65	C	1.106464	-0.393201	0.000841
C66	C	1.606464	0.106799	0.500841
C67	C	1.049349	-0.366503	0.057922
C68	C	1.549349	0.133497	0.557922
C69	C	0.992236	-0.393217	0.114997
C70	C	1.492236	0.106783	0.614997
C71	C	0.877996	-0.446641	0.229148
C72	C	1.377996	0.053359	0.729148
C73	C	0.877994	-0.393223	0.229143
C74	C	1.377994	0.106777	0.729143
C75	C	0.935112	-0.366510	0.172065
C76	C	1.435112	0.133490	0.672065
C77	C	0.935119	-0.313107	0.172084
C78	C	1.435119	0.186893	0.672084
N79	N	0.992228	-0.286391	0.115004
N80	N	1.492228	0.213609	0.615004
C81	C	1.049342	-0.313089	0.057923
C82	C	1.549342	0.186911	0.557923
C83	C	0.935159	-0.799172	0.172055
C84	C	1.435159	-0.299172	0.672055
C85	C	0.935165	-0.852587	0.172055
C86	C	1.435165	-0.352587	0.672055
C87	C	1.049394	-0.852568	0.057889
C88	C	1.549394	-0.352568	0.557889
C89	C	1.049391	-0.799153	0.057894
C90	C	1.549391	-0.299153	0.557894
C91	C	0.992267	-0.772456	0.114975
C92	C	1.492267	-0.272456	0.614975
C93	C	1.049334	-0.200921	0.057941
C94	C	1.549334	0.299079	0.557941
C95	C	1.049329	-0.147505	0.057955
C96	C	1.549329	0.352495	0.557955
C97	C	0.935098	-0.147528	0.172118
C98	C	1.435098	0.352472	0.672118
C99	C	0.935105	-0.200939	0.172107
C100	C	1.435105	0.299061	0.672107
C101	C	0.992227	-0.227635	0.115012
C102	C	1.492227	0.272365	0.615012
O103	O	0.886589	-0.285448	0.220621
O104	O	1.386589	0.214552	0.720621
O105	O	1.097902	-0.285453	0.009373
O106	O	1.597902	0.214547	0.509373
C107	C	1.049355	-0.526737	0.057902
C108	C	1.549355	-0.026737	0.557902
C109	C	0.992242	-0.553451	0.114977
C110	C	1.492242	-0.053451	0.614977
C111	C	0.935128	-0.526753	0.172058
C112	C	1.435128	-0.026753	0.672058
C113	C	0.992249	-0.606865	0.114976
C114	C	1.492249	-0.106865	0.614976
C115	C	1.049364	-0.633563	0.057895
C116	C	1.549364	-0.133563	0.557895
C117	C	1.106472	-0.606847	0.000814
C118	C	1.606472	-0.106847	0.500814
C119	C	1.106470	-0.553435	0.000821
C120	C	1.606470	-0.053435	0.500821
C121	C	0.878019	-0.553469	0.229139
C122	C	1.378019	-0.053469	0.729139
C123	C	0.878026	-0.606881	0.229128
C124	C	1.378026	-0.106881	0.729128
C125	C	0.935141	-0.633579	0.172047
C126	C	1.435141	-0.133579	0.672047
C127	C	1.145813	-0.000053	0.108885
C128	C	1.645813	0.499947	0.608885
C129	C	1.239059	-0.000054	0.110547
C130	C	1.739059	0.499946	0.610547
C131	C	0.998367	-0.000051	-0.038561
C132	C	1.498367	0.499949	0.461439
C133	C	0.996705	-0.000051	-0.131807
C134	C	1.496705	0.499949	0.368193
N135	N	0.992280	0.120715	0.114973
N136	N	1.492280	0.620715	0.614973
C137	C	0.912801	-0.000039	-0.346663
C138	C	1.412801	0.499961	0.153337
C139	C	0.951751	-0.041882	-0.407671
C140	C	1.451751	0.458118	0.092329
C141	C	0.993698	-0.000047	-0.302533
C142	C	1.493698	0.499953	0.197467
C143	C	0.951794	0.041782	-0.407674
C144	C	1.451794	0.541782	0.092326
C145	C	0.990787	-0.000041	-0.467445
C146	C	1.490787	0.499959	0.032555
C147	C	1.032670	-0.041924	-0.362312
C148	C	1.532670	0.458076	0.137688
C149	C	1.032702	0.041777	-0.362309
C150	C	1.532702	0.541777	0.137691
C151	C	1.071711	-0.000075	-0.423298
C152	C	1.571711	0.499925	0.076702
C153	C	0.995372	-0.000051	-0.207530
C154	C	1.495372	0.499949	0.292470
C155	C	0.989119	-0.000040	-0.562446
C156	C	1.489119	0.499960	-0.062446
C157	C	0.986120	-0.000040	0.268577
C158	C	1.486120	0.499960	0.768577
C159	C	0.987782	-0.000036	0.361823
C160	C	1.487782	0.499964	0.861823
H161	H	0.563905	0.000003	-0.031573
H162	H	1.063905	0.500003	0.468427
F163	F	0.443294	0.088028	0.029786
F164	F	0.943294	0.588028	0.529786
F165	F	0.817202	-0.475062	0.289898
F166	F	1.317202	0.024938	0.789898
F167	F	0.907066	0.088015	-0.433945
F168	F	1.407066	0.588015	0.066055
F169	F	0.541059	0.088123	0.200116
F170	F	1.041059	0.588123	0.700116
F171	F	0.825033	-0.000087	-0.303129
F172	F	1.325033	0.499913	0.196871
H173	H	0.420779	0.000013	0.261683
H174	H	0.920779	0.500013	0.761683
H175	H	1.152975	-0.468345	-0.045652
H176	H	1.652975	0.031655	0.454348
F177	F	0.541230	-0.088099	0.200162
F178	F	1.041230	0.411901	0.700162
H179	H	1.095900	-0.874315	0.011412
H180	H	1.595900	-0.374315	0.511412
H181	H	0.449466	-0.077241	0.040334
H182	H	0.949466	0.422759	0.540334
F183	F	1.110126	-0.119077	-0.002797
F184	F	1.610126	0.380923	0.497203
H185	H	1.066900	0.077150	-0.342187
H186	H	1.566900	0.577150	0.157813
F187	F	1.110129	-0.229324	-0.002826
F188	F	1.610129	0.270676	0.497174
H189	H	1.152972	-0.371454	-0.045640
H190	H	1.652972	0.128546	0.454360
H191	H	0.888663	-0.874333	0.218542
H192	H	1.388663	-0.374333	0.718542
F193	F	1.110182	-0.770728	-0.002857
F194	F	1.610182	-0.270728	0.497143
F195	F	0.874322	-0.229369	0.232866
F196	F	1.374322	0.270631	0.732866
H197	H	0.917524	-0.077252	-0.427771
H198	H	1.417524	0.422748	0.072229
F199	F	0.874358	-0.770765	0.232813
F200	F	1.374358	-0.270765	0.732813
H201	H	1.152980	-0.628593	-0.045661
H202	H	1.652980	-0.128593	0.454339
H203	H	0.831475	-0.371489	0.275624
H204	H	1.331475	0.128511	0.775624
F205	F	0.874316	-0.119106	0.232867
F206	F	1.374316	0.380894	0.732867
F207	F	1.167262	-0.525011	-0.059931
F208	F	1.667262	-0.025011	0.440069
F209	F	0.817227	-0.525061	0.289895
F210	F	1.317227	-0.025061	0.789895
F211	F	0.817234	-0.635306	0.289887
F212	F	1.317234	-0.135306	0.789887
H213	H	1.066847	-0.077337	-0.342313
H214	H	1.566847	0.422663	0.157687
F215	F	1.159555	-0.000109	-0.466641
F216	F	1.659555	0.499891	0.033359
