data_functionalizedCrystal
_audit_creation_method	'MofGen! by Chris Wilmer'
_symmetry_space_group_name_H-M	'P1'
_symmetry_Int_Tables_number	1
_symmetry_cell_setting	triclinic
loop_
_symmetry_equiv_pos_as_xyz
  x,y,z
_cell_length_a	10.723024
_cell_length_b	9.065218
_cell_length_c	8.140239
_cell_angle_alpha	90.001330
_cell_angle_beta	90.001798
_cell_angle_gamma	84.741877
loop_
_atom_site_label
_atom_site_type_symbol
_atom_site_fract_x
_atom_site_fract_y
_atom_site_fract_z
O1	O	-1.658024	-0.206939	-0.136620
O2	O	-1.294952	-0.226747	-0.136619
O3	O	-1.483992	-0.002158	-0.136616
O4	O	-1.468983	-0.431528	-0.136623
O5	O	-1.483986	-0.002157	0.136611
O6	O	-1.294946	-0.226746	0.136608
O7	O	-1.658018	-0.206938	0.136608
Zn8	Zn	-1.476481	-0.216841	0.179988
Zn9	Zn	-1.476489	-0.216843	-0.180000
O10	O	-1.468977	-0.431527	0.136604
C11	C	-1.248443	-0.225305	-0.000006
C12	C	-1.109872	-0.220992	-0.000006
C13	C	-1.482547	0.052821	-0.000005
C14	C	-1.478234	0.216639	-0.000013
C15	C	-1.035399	-0.346660	-0.000008
C16	C	-0.892178	-0.342206	-0.000008
C17	C	-0.704526	-0.208380	-0.000006
C18	C	-0.843098	-0.212693	-0.000006
C19	C	-1.470423	-0.486506	-0.000010
C20	C	-1.474736	-0.650324	-0.000013
N21	N	-1.476484	-0.216839	0.425671
N22	N	-1.476495	-0.216834	-0.425683
H23	H	-1.077672	-0.457547	-0.000001
H24	H	-0.907086	-0.105105	-0.000015
H25	H	-0.828182	-0.449788	-0.000016
O26	O	-1.059600	-0.088607	-0.000225
C27	C	-1.099434	-0.007885	-0.141753
H28	H	-1.190227	-0.048860	-0.188932
H29	H	-1.024314	-0.024333	-0.240840
C30	C	-1.010261	0.208188	-0.040825
C31	C	-1.121780	0.157870	-0.098762
H32	H	-1.024040	0.310434	-0.014310
H33	H	-0.983419	0.153803	0.054523
H34	H	-0.947672	0.194468	-0.123407
H35	H	-1.184362	0.171573	-0.016173
H36	H	-1.148632	0.212261	-0.194096
