data_functionalizedCrystal
_audit_creation_method	'MofGen! by Chris Wilmer'
_symmetry_space_group_name_H-M	'P1'
_symmetry_Int_Tables_number	1
_symmetry_cell_setting	triclinic
loop_
_symmetry_equiv_pos_as_xyz
  x,y,z
_cell_length_a	6.817900
_cell_length_b	17.982723
_cell_length_c	17.284648
_cell_angle_alpha	92.294843
_cell_angle_beta	103.040472
_cell_angle_gamma	102.447564
loop_
_atom_site_label
_atom_site_type_symbol
_atom_site_fract_x
_atom_site_fract_y
_atom_site_fract_z
V1	V	-4.006644	-0.090753	-0.246052
O2	O	-3.999827	0.019426	-0.241023
O3	O	-3.953213	-0.194437	-0.244701
O4	O	-3.951788	-0.082747	-0.353213
O5	O	-4.001262	-0.093037	-0.131761
V6	V	-4.491760	-0.078355	-0.232342
O7	O	-4.264407	-0.117948	-0.276127
O8	O	-4.684193	-0.051160	-0.202267
O9	O	-4.321983	0.025328	-0.233693
O10	O	-4.615973	-0.188534	-0.237370
O11	O	-4.614538	-0.076071	-0.346633
O12	O	-4.323408	-0.086362	-0.125181
C13	C	-3.797199	-0.219919	-0.240905
C14	C	-3.834758	-0.304640	-0.240514
C15	C	-4.247055	-0.828316	-0.242017
C16	C	-4.211755	-0.748712	-0.242387
C17	C	-4.012419	-0.705268	-0.238629
C18	C	-3.848370	-0.741431	-0.234491
C19	C	-3.883669	-0.821033	-0.234115
C20	C	-3.706009	-0.420406	-0.236006
C21	C	-3.670723	-0.340800	-0.236385
C22	C	-4.034095	-0.348085	-0.244279
C23	C	-4.069394	-0.427687	-0.243903
C24	C	-3.905341	-0.463843	-0.239761
C25	C	-3.943619	-0.550158	-0.239358
C26	C	-3.974143	-0.618955	-0.239037
C27	C	-3.795381	-0.077447	-0.379321
C28	C	-3.831781	-0.071587	-0.466928
C29	C	-3.884990	-0.137921	-0.519561
C30	C	-3.919200	-0.132414	-0.601877
C31	C	-3.900185	-0.060571	-0.631557
C32	C	-3.846977	0.005768	-0.578917
C33	C	-3.812783	0.000260	-0.496603
C34	C	-3.998594	-0.036689	-0.876507
C35	C	-4.032788	-0.031186	-0.958827
C36	C	-4.105012	-0.169369	-0.981782
C37	C	-4.070801	-0.174871	-0.899466
C38	C	-4.017607	-0.108531	-0.846833
N39	N	-3.935146	-0.054940	-0.715696
N40	N	-3.982662	-0.114164	-0.762696
C41	C	-4.141339	0.050807	-0.237487
C42	C	-4.083018	0.135527	-0.237882
C43	C	-4.143158	-0.091665	-0.099068
C44	C	-4.085997	-0.097521	-0.011461
H45	H	-3.508394	-0.305429	-0.233324
H46	H	-4.086296	-0.233373	-0.875307
H47	H	-4.148327	-0.223378	-1.024644
Br48	Br	-4.006978	0.066321	-0.999106
Br49	Br	-3.926223	0.053347	-0.805083
Br50	Br	-3.821184	0.103270	-0.619195
H51	H	-4.409375	-0.863683	-0.245082
Br52	Br	-4.434373	-0.699640	-0.247969
Br53	Br	-4.339929	-0.486643	-0.249010
Br54	Br	-3.661037	-0.870105	-0.228499
Br55	Br	-3.740620	0.090288	-0.425171
H56	H	-4.167669	-0.318638	-0.247647
H57	H	-3.572417	-0.449834	-0.232625
H58	H	-3.686063	-0.706052	-0.231426
H59	H	-3.900462	-0.196423	-0.495403
H60	H	-3.962534	-0.186431	-0.644729
