data_functionalizedCrystal
_audit_creation_method	'MofGen! by Chris Wilmer'
_symmetry_space_group_name_H-M	'P1'
_symmetry_Int_Tables_number	1
_symmetry_cell_setting	triclinic
loop_
_symmetry_equiv_pos_as_xyz
  x,y,z
_cell_length_a	10.967926
_cell_length_b	27.732048
_cell_length_c	9.482900
_cell_angle_alpha	99.251554
_cell_angle_beta	92.549900
_cell_angle_gamma	83.701151
loop_
_atom_site_label
_atom_site_type_symbol
_atom_site_fract_x
_atom_site_fract_y
_atom_site_fract_z
O1	O	1.608630	0.085293	0.282097
O2	O	1.259397	0.086352	0.194600
O3	O	1.444856	0.015666	0.241092
O4	O	1.423172	0.155979	0.235604
O5	O	1.407184	0.030084	0.473441
O6	O	1.221725	0.100771	0.426948
O7	O	1.570958	0.099711	0.514445
Cu8	Cu	1.392902	0.101557	0.491912
Cu9	Cu	1.437454	0.084506	0.217133
O10	O	1.385500	0.170397	0.467953
C11	C	1.195896	0.092395	0.299584
C12	C	1.062807	0.088913	0.266240
C13	C	0.983956	0.094830	0.371738
C14	C	0.846401	0.091232	0.337279
C15	C	1.425564	0.004859	0.357156
C16	C	1.424191	-0.048826	0.356824
C17	C	1.525167	-0.385423	0.382048
C18	C	1.520082	-0.587196	0.380754
O19	O	1.612417	-0.616424	0.403824
N20	N	1.410110	-0.608740	0.353203
C21	C	1.301403	-0.579838	0.325964
O22	O	1.207751	-0.602793	0.302486
C23	C	1.306490	-0.378067	0.327249
C24	C	1.416467	-0.356525	0.354816
C25	C	1.635135	-0.363881	0.409612
C26	C	1.636404	-0.313440	0.409942
C27	C	1.527704	-0.284542	0.382710
C28	C	1.417736	-0.306084	0.355147
C29	C	1.197786	-0.349166	0.300000
C30	C	1.199068	-0.298721	0.300320
C31	C	1.309045	-0.277179	0.327887
C32	C	1.310305	-0.226745	0.328245
N33	N	1.420277	-0.205201	0.355796
C34	C	1.528977	-0.234099	0.383029
C35	C	1.298740	-0.685771	0.325295
C36	C	1.297467	-0.736213	0.324976
C37	C	1.516147	-0.743568	0.379763
C38	C	1.517417	-0.693124	0.380092
C39	C	1.408712	-0.664227	0.352846
C40	C	1.531632	-0.128170	0.383723
C41	C	1.532891	-0.077724	0.384057
C42	C	1.314212	-0.070374	0.329262
C43	C	1.312952	-0.120815	0.328935
C44	C	1.421673	-0.149713	0.356163
O45	O	1.218023	-0.197489	0.305172
O46	O	1.622620	-0.211137	0.406472
C47	C	1.523898	-0.435864	0.381717
C48	C	1.413930	-0.457406	0.354154
C49	C	1.305230	-0.428508	0.326922
C50	C	1.412657	-0.507849	0.353835
C51	C	1.521357	-0.536747	0.381068
C52	C	1.631329	-0.515203	0.408619
C53	C	1.632598	-0.464762	0.408950
C54	C	1.195258	-0.450052	0.299370
C55	C	1.193998	-0.500493	0.299043
C56	C	1.302698	-0.529391	0.326276
C57	C	1.634460	0.093668	0.409458
C58	C	1.767551	0.097149	0.442792
C59	C	1.404792	0.181205	0.351886
C60	C	1.406167	0.234888	0.352208
N61	N	1.361576	0.113550	0.685179
N62	N	1.468789	0.072509	0.023868
C63	C	1.428205	0.088041	0.774082
C64	C	1.402150	0.098023	0.934967
H65	H	1.620164	-0.151693	0.405889
C66	C	1.634158	-0.774909	0.409616
C67	C	1.681059	-0.757462	0.545768
C68	C	1.789754	-0.786328	0.573310
H69	H	1.692550	-0.773199	0.340020
H70	H	1.617676	-0.808036	0.405561
H71	H	1.697546	-0.724343	0.549811
H72	H	1.622700	-0.759173	0.615392
H73	H	1.773272	-0.819455	0.569255
H74	H	1.848136	-0.784616	0.503706
H75	H	1.821584	-0.774497	0.665695
H76	H	1.285238	0.142778	0.728172
C77	C	1.300443	0.137067	0.992107
C78	C	1.325040	0.182700	0.961303
C79	C	1.231368	0.218677	1.013902
H80	H	1.296366	0.138664	1.092622
H81	H	1.224289	0.128924	0.948141
H82	H	1.401173	0.190842	1.005273
H83	H	1.329105	0.181120	0.860798
H84	H	1.155214	0.210533	0.969936
H85	H	1.227298	0.220268	1.114415
H86	H	1.248038	0.249641	0.992997
C87	C	1.029913	0.105059	0.526134
C88	C	1.114808	0.066108	0.554989
C89	C	1.157179	0.075517	0.697200
H90	H	0.962734	0.108291	0.588010
H91	H	1.068270	0.134631	0.541144
H92	H	1.076451	0.036545	0.539993
H93	H	1.182008	0.062870	0.493148
H94	H	1.195536	0.105089	0.712210
H95	H	1.089993	0.078750	0.759064
H96	H	1.214793	0.049093	0.716793
H97	H	1.223394	-0.138353	0.306527
C98	C	1.074707	-0.523955	0.268912
C99	C	1.086987	-0.560115	0.147599
C100	C	0.977134	-0.581742	0.119796
H101	H	1.010068	-0.499572	0.252640
H102	H	1.056509	-0.538490	0.348616
H103	H	1.105169	-0.545580	0.067913
H104	H	1.151604	-0.584507	0.163838
H105	H	0.958936	-0.596277	0.199499
H106	H	0.912502	-0.557355	0.103530
H107	H	0.985454	-0.606281	0.037491
C108	C	0.800790	0.080998	0.182745
C109	C	0.829290	0.118328	0.110291
C110	C	0.787304	0.108915	-0.032068
H111	H	0.714425	0.079961	0.179909
H112	H	0.839365	0.050327	0.138151
H113	H	0.790710	0.148991	0.154873
H114	H	0.915647	0.119371	0.113086
H115	H	0.825880	0.078244	-0.076663
H116	H	0.700940	0.107878	-0.034890
H117	H	0.806645	0.134240	-0.081250
C118	C	0.813495	0.107378	0.597198
C119	C	0.898387	0.068427	0.626057
C120	C	0.940748	0.077834	0.768272
H121	H	0.746311	0.110609	0.659068
H122	H	0.851852	0.136949	0.612216
H123	H	0.860030	0.038863	0.611054
H124	H	0.965591	0.065189	0.564224
H125	H	0.979105	0.107406	0.783290
H126	H	0.873557	0.081066	0.830129
H127	H	0.998360	0.051410	0.787868
C128	C	1.652437	-0.054433	0.413941
C129	C	1.747362	-0.090544	0.437676
C130	C	1.857504	-0.069110	0.465187
H131	H	1.644522	-0.029891	0.496256
H132	H	1.670686	-0.039945	0.334167
H133	H	1.729117	-0.105024	0.517443
H134	H	1.755316	-0.115088	0.355378
H135	H	1.875753	-0.054622	0.385412
H136	H	1.849576	-0.044568	0.547499
H137	H	1.921926	-0.093609	0.481281
C138	C	1.755947	-0.290153	0.439819
C139	C	1.850863	-0.326268	0.463556
C140	C	1.961013	-0.304839	0.491061
H141	H	1.748040	-0.265610	0.522132
H142	H	1.774201	-0.275668	0.360042
H143	H	1.832613	-0.340746	0.543325
H144	H	1.858809	-0.350813	0.381259
H145	H	1.979267	-0.290354	0.411284
H146	H	1.953092	-0.280297	0.573371
H147	H	2.025428	-0.329341	0.507156
H148	H	1.028478	0.081182	0.150409
H149	H	1.225711	-0.046836	0.307095
H150	H	1.110545	-0.275195	0.278130
C151	C	1.753174	-0.395292	0.438888
C152	C	1.778256	-0.431873	0.320763
C153	C	1.886999	-0.460809	0.347686
H154	H	1.744225	-0.410147	0.520866
H155	H	1.818885	-0.375252	0.455278
H156	H	1.712562	-0.451911	0.304391
H157	H	1.787229	-0.417032	0.238772
H158	H	1.952709	-0.440768	0.364076
H159	H	1.878039	-0.475660	0.429667
H160	H	1.904037	-0.485629	0.267539
H161	H	1.606970	-0.675588	0.402538
H162	H	1.207909	-0.753747	0.302552
H163	H	1.210213	-0.662247	0.303107
C164	C	1.570595	0.033493	0.966832
C165	C	1.626994	0.011886	1.080028
C166	C	1.720768	-0.024060	1.027538
H167	H	1.629630	0.048197	0.922218
H168	H	1.536902	0.009055	0.899065
H169	H	1.660687	0.036320	1.147770
H170	H	1.567991	-0.002827	1.124653
H171	H	1.687076	-0.048498	0.959771
H172	H	1.779795	-0.009353	0.982925
H173	H	1.759039	-0.038728	1.104331
C174	C	1.078502	-0.372624	0.269856
C175	C	1.090779	-0.408784	0.148545
C176	C	0.980918	-0.430406	0.120736
H177	H	1.013871	-0.348238	0.253578
H178	H	1.060294	-0.387156	0.349559
H179	H	1.108972	-0.394251	0.068860
H180	H	1.155388	-0.433179	0.164791
H181	H	0.962710	-0.444939	0.200439
H182	H	0.916296	-0.406017	0.104465
H183	H	0.989237	-0.454946	0.038433
C184	C	1.749232	-0.546672	0.438078
C185	C	1.724570	-0.595459	0.431849
C186	C	1.833149	-0.624467	0.458948
H187	H	1.781330	-0.534962	0.530411
H188	H	1.807515	-0.544972	0.368328
H189	H	1.666308	-0.597158	0.501595
H190	H	1.692489	-0.607185	0.339526
H191	H	1.891432	-0.622766	0.389199
H192	H	1.865239	-0.612752	0.551281
H193	H	1.816434	-0.657572	0.454713
H194	H	1.722152	-0.447228	0.431398
H195	H	1.106740	-0.426527	0.277191
H196	H	1.504535	0.058809	0.731089
