data_functionalizedCrystal
_audit_creation_method	'MofGen! by Chris Wilmer'
_symmetry_space_group_name_H-M	'P1'
_symmetry_Int_Tables_number	1
_symmetry_cell_setting	triclinic
loop_
_symmetry_equiv_pos_as_xyz
  x,y,z
_cell_length_a	15.072220
_cell_length_b	15.995350
_cell_length_c	15.995350
_cell_angle_alpha	83.492375
_cell_angle_beta	89.992853
_cell_angle_gamma	89.999692
loop_
_atom_site_label
_atom_site_type_symbol
_atom_site_fract_x
_atom_site_fract_y
_atom_site_fract_z
O1	O	0.073703	-1.110984	-0.107932
O2	O	0.073721	-0.867209	-0.121260
O3	O	0.073710	-0.995760	0.007292
O4	O	0.073713	-0.982433	-0.236484
O5	O	-0.073855	-0.995752	0.007307
O6	O	-0.073844	-0.867200	-0.121244
O7	O	-0.073862	-1.110976	-0.107917
Zn8	Zn	-0.097283	-0.989087	-0.114578
Zn9	Zn	0.097141	-0.989098	-0.114599
O10	O	-0.073852	-0.982424	-0.236468
C11	C	-0.000060	-0.836010	-0.120701
C12	C	-0.000053	-0.743060	-0.119049
N13	N	-0.229971	-0.989085	-0.114564
C14	C	-0.000080	-1.142175	-0.108476
C15	C	-0.000081	-1.235125	-0.110127
C16	C	-0.589173	-0.989099	-0.114592
C17	C	-0.551544	-1.058107	-0.046036
C18	C	-0.448718	-1.057927	-0.045783
C19	C	-0.410969	-0.989093	-0.114578
C20	C	-0.448305	-0.901736	-0.095497
C21	C	-0.551163	-0.902144	-0.095013
C22	C	-0.551250	-1.006660	-0.202431
C23	C	-0.448386	-1.008643	-0.201842
C24	C	-0.310255	-0.989084	-0.114572
C25	C	-0.689886	-0.989102	-0.114597
N26	N	0.229830	-0.989106	-0.114606
C27	C	-0.000070	-0.995205	0.038494
C28	C	-0.000065	-0.993553	0.131444
C29	C	-0.000071	-0.405312	-0.113117
C30	C	-0.000401	-0.452746	-0.021565
C31	C	-0.000063	-0.549436	-0.023217
C32	C	-0.000063	-0.572873	-0.116060
C33	C	0.084201	-0.531790	-0.161225
C34	C	0.084266	-0.435155	-0.158925
C35	C	-0.083543	-0.434806	-0.160799
C36	C	-0.084651	-0.531751	-0.160777
C37	C	-0.000055	-0.667570	-0.117727
C38	C	-0.000073	-0.310614	-0.111452
C39	C	-0.000069	-0.982980	-0.267671
C40	C	-0.000069	-0.984631	-0.360621
C41	C	-0.000068	-0.987621	0.469192
C42	C	0.000270	-0.896069	0.421758
C43	C	-0.000063	-0.897721	0.325068
C44	C	-0.000066	-0.990564	0.301631
C45	C	-0.084335	-1.035715	0.342718
C46	C	-0.084405	-1.033416	0.439353
C47	C	0.083404	-1.035316	0.439694
C48	C	0.084518	-1.035295	0.342748
C49	C	-0.000068	-0.992231	0.206934
C50	C	-0.000072	-0.985956	0.563890
H51	H	-0.576278	-1.123261	-0.057215
H52	H	-0.575589	-0.956338	-0.253448
H53	H	-0.060467	-0.577862	0.012284
O54	O	0.089332	-0.392435	-0.247958
H55	H	0.089408	-0.323160	-0.246984
O56	O	-0.585591	-1.089244	-0.226716
H57	H	-0.659101	-1.087022	-0.230475
O58	O	-0.167400	-0.994170	0.305133
H59	H	-0.207058	-0.969724	0.355553
O60	O	-0.416061	-1.093762	-0.221035
H61	H	-0.373519	-1.122031	-0.168650
H62	H	-0.422688	-0.961638	-0.255247
O63	O	-0.080220	-0.850400	0.288164
H64	H	-0.077289	-0.784293	0.302889
O65	O	0.168013	-0.995674	0.466880
H66	H	0.151511	-0.941528	0.501725
H67	H	-0.576056	-0.849251	-0.143047
O68	O	-0.168153	-0.407609	-0.121147
H69	H	-0.208303	-0.463958	-0.098960
H70	H	-0.089741	-0.547116	-0.228480
H71	H	-0.423474	-1.122863	-0.057145
H72	H	0.087335	-0.545915	-0.229434
H73	H	-0.060830	-0.434221	0.015037
H74	H	0.060344	-0.862229	0.296639
O75	O	0.167103	-0.991636	0.306580
H76	H	0.147998	-0.938302	0.259512
O77	O	-0.167226	-0.567930	-0.117105
H78	H	-0.166546	-0.554829	-0.050433
H79	H	-0.059819	-0.859636	0.441358
O80	O	0.080091	-0.586346	0.024104
H81	H	0.080608	-0.655615	0.023096
O82	O	-0.084316	-0.392729	-0.250208
H83	H	-0.025572	-0.351007	-0.260675
H84	H	0.083968	-1.102817	0.471455
O85	O	0.079195	-0.426797	0.026687
H86	H	0.056486	-0.398122	0.082985
O87	O	0.167273	-0.569370	-0.119689
H88	H	0.206920	-0.518944	-0.095252
O89	O	0.167692	-0.410907	-0.115298
H90	H	0.226537	-0.429741	-0.150458
H91	H	-0.577402	-1.047051	0.018780
H92	H	-0.147395	-1.000484	0.457662
O93	O	0.080306	-0.847594	0.446313
H94	H	0.141642	-0.880442	0.429789
H95	H	-0.088231	-1.100631	0.471602
O96	O	-0.088504	-1.126062	0.323999
H97	H	-0.028484	-1.160060	0.349652
O98	O	-0.416122	-1.043053	0.040557
H99	H	-0.473826	-1.035952	0.082290
O100	O	-0.582965	-0.881674	-0.010151
H101	H	-0.524878	-0.871578	0.030156
O102	O	-0.414205	-0.880735	-0.011603
H103	H	-0.375822	-0.821183	-0.020881
O104	O	-0.415927	-0.832067	-0.159874
H105	H	-0.372773	-0.859030	-0.206259
O106	O	0.091261	-1.124982	0.322411
H107	H	0.034173	-1.139141	0.282506
