data_functionalizedCrystal
_audit_creation_method	'MofGen! by Chris Wilmer'
_symmetry_space_group_name_H-M	'P1'
_symmetry_Int_Tables_number	1
_symmetry_cell_setting	triclinic
loop_
_symmetry_equiv_pos_as_xyz
  x,y,z
_cell_length_a	18.050590
_cell_length_b	18.050590
_cell_length_c	16.625539
_cell_angle_alpha	90.029956
_cell_angle_beta	90.004910
_cell_angle_gamma	90.007719
loop_
_atom_site_label
_atom_site_type_symbol
_atom_site_fract_x
_atom_site_fract_y
_atom_site_fract_z
Zn1	Zn	1.135384	-0.295873	0.455563
Zn2	Zn	1.468717	0.037460	0.788896
Zn3	Zn	1.802051	0.370794	1.122230
Zn4	Zn	1.135303	-0.420071	0.320726
Zn5	Zn	1.468637	-0.086737	0.654060
Zn6	Zn	1.801970	0.246596	0.987393
Zn7	Zn	1.011191	-0.295875	0.320780
Zn8	Zn	1.344524	0.037458	0.654114
Zn9	Zn	1.677858	0.370791	0.987447
Zn10	Zn	1.011172	-0.420002	0.455553
Zn11	Zn	1.344505	-0.086669	0.788886
Zn12	Zn	1.677839	0.246665	1.122220
O13	O	1.073263	-0.357955	0.388156
O14	O	1.406596	-0.024622	0.721489
O15	O	1.739929	0.308711	1.054822
O16	O	1.239298	-0.312376	0.437658
O17	O	1.572631	0.020958	0.770992
O18	O	1.905964	0.354291	1.104325
O19	O	1.118814	-0.403625	0.207901
O20	O	1.452147	-0.070292	0.541235
O21	O	1.785480	0.263041	0.874568
O22	O	1.027707	-0.191950	0.338686
O23	O	1.361040	0.141383	0.672020
O24	O	1.694374	0.474716	1.005353
O25	O	1.239239	-0.403623	0.338594
O26	O	1.572572	-0.070290	0.671928
O27	O	1.905905	0.263044	1.005261
O28	O	1.118951	-0.191949	0.437711
O29	O	1.452284	0.141385	0.771044
O30	O	1.785618	0.474718	1.104377
O31	O	1.027629	-0.312380	0.207941
O32	O	1.360962	0.020953	0.541274
O33	O	1.694295	0.354287	0.874608
O34	O	0.907264	-0.312313	0.338677
O35	O	1.240597	0.021020	0.672010
O36	O	1.573930	0.354353	1.005343
O37	O	1.027675	-0.403506	0.568387
O38	O	1.361008	-0.070173	0.901720
O39	O	1.694342	0.263160	1.235054
O40	O	0.907250	-0.403509	0.437694
O41	O	1.240583	-0.070175	0.771027
O42	O	1.573917	0.263158	1.104360
O43	O	1.118933	-0.312309	0.568394
O44	O	1.452266	0.021024	0.901728
O45	O	1.785600	0.354357	1.235061
O46	O	1.118795	-0.523986	0.338585
O47	O	1.452129	-0.190653	0.671918
O48	O	1.785462	0.142681	1.005251
O49	O	1.027597	-0.523936	0.437641
O50	O	1.360930	-0.190602	0.770975
O51	O	1.694263	0.142731	1.104308
C52	C	0.880310	-0.357905	0.388191
C53	C	1.213644	-0.024571	0.721524
C54	C	1.546977	0.308762	1.054857
C55	C	0.797765	-0.357901	0.388225
C56	C	1.131098	-0.024567	0.721558
C57	C	1.464431	0.308766	1.054891
C58	C	0.598328	-0.407635	0.441942
C59	C	0.931661	-0.074301	0.775275
C60	C	1.264995	0.259032	1.108609
C61	C	0.548925	-0.339918	0.461785
C62	C	0.882259	-0.006584	0.795118
C63	C	1.215592	0.326749	1.128451
C64	C	0.646634	-0.357942	0.388185
C65	C	0.979968	-0.024609	0.721518
C66	C	1.313301	0.308724	1.054852
C67	C	0.548955	-0.425698	0.368342
C68	C	0.882289	-0.092365	0.701675
C69	C	1.215622	0.240969	1.035008
C70	C	0.500649	-0.357988	0.388149
C71	C	0.833983	-0.024655	0.721482
C72	C	1.167316	0.308678	1.054815
C73	C	0.598319	-0.290189	0.408066
C74	C	0.931652	0.043144	0.741400
C75	C	1.264985	0.376478	1.074733
C76	C	0.598353	-0.376015	0.314589
C77	C	0.931686	-0.042682	0.647922
C78	C	1.265020	0.290652	0.981256
C79	C	0.548973	-0.308251	0.334404
C80	C	0.882306	0.025082	0.667737
C81	C	1.215639	0.358415	1.001070
C82	C	0.730733	-0.357917	0.388208
C83	C	1.064066	-0.024583	0.721542
C84	C	1.397399	0.308750	1.054875
C85	C	0.416553	-0.358006	0.388125
C86	C	0.749886	-0.024673	0.721459
C87	C	1.083219	0.308661	1.054792
C88	C	1.073205	-0.550907	0.388124
C89	C	1.406539	-0.217574	0.721457
C90	C	1.739872	0.115759	1.054790
C91	C	1.073249	-0.633453	0.388137
C92	C	1.406582	-0.300120	0.721470
C93	C	1.739916	0.033214	1.054804
C94	C	1.122946	-0.832904	0.334345
C95	C	1.456279	-0.499571	0.667678
C96	C	1.789613	-0.166237	1.001012
C97	C	1.141088	-0.882238	0.407930
C98	C	1.474422	-0.548905	0.741263
C99	C	1.807755	-0.215572	1.074596
C100	C	1.073291	-0.784583	0.388169
C101	C	1.406624	-0.451250	0.721502
C102	C	1.739958	-0.117917	1.054836
C103	C	1.055225	-0.882331	0.314618
C104	C	1.388558	-0.548998	0.647951
C105	C	1.721891	-0.215664	0.981284
C106	C	1.073333	-0.930569	0.388194
C107	C	1.406667	-0.597235	0.721527
C108	C	1.740000	-0.263902	1.054860
C109	C	1.091468	-0.832830	0.461792
C110	C	1.424801	-0.499497	0.795126
C111	C	1.758135	-0.166164	1.128459
C112	C	1.005573	-0.832919	0.368431
C113	C	1.338906	-0.499585	0.701764
C114	C	1.672240	-0.166252	1.035097
C115	C	1.023689	-0.882231	0.442066
C116	C	1.357023	-0.548897	0.775399
C117	C	1.690356	-0.215564	1.108733
C118	C	1.073269	-0.700485	0.388154
C119	C	1.406602	-0.367152	0.721487
C120	C	1.739935	-0.033819	1.054820
C121	C	1.073356	-1.014665	0.388217
C122	C	1.406689	-0.681332	0.721550
C123	C	1.740022	-0.347998	1.054884
C124	C	1.266968	-0.358007	0.388121
C125	C	1.600301	-0.024673	0.721455
C126	C	1.933635	0.308660	1.054788
C127	C	1.349514	-0.358029	0.388107
C128	C	1.682847	-0.024695	0.721440
C129	C	2.016181	0.308638	1.054773
C130	C	1.073311	-0.357900	0.598465
C131	C	1.406644	-0.024567	0.931798
C132	C	1.739977	0.308767	1.265131
C133	C	1.073331	-0.357876	0.688086
C134	C	1.406665	-0.024543	1.021419
C135	C	1.739998	0.308790	1.354753
C136	C	1.073340	-0.164250	0.388206
C137	C	1.406673	0.169084	0.721539
C138	C	1.740007	0.502417	1.054872
C139	C	1.073373	-0.081704	0.388227
C140	C	1.406706	0.251629	0.721560
C141	C	1.740040	0.584963	1.054894
C142	C	1.073257	-0.357957	0.178665
C143	C	1.406591	-0.024623	0.511998
C144	C	1.739924	0.308710	0.845332
C145	C	1.073380	-0.357771	0.089044
C146	C	1.406714	-0.024438	0.422378
C147	C	1.740047	0.308895	0.755711
C148	C	1.073366	-0.357793	1.016262
C149	C	1.406699	-0.024460	1.349595
C150	C	1.740032	0.308873	1.682928
C151	C	1.073354	-0.357819	0.924953
C152	C	1.406687	-0.024485	1.258287
C153	C	1.740021	0.308848	1.591620
C154	C	1.073349	-0.357835	0.852177
C155	C	1.406682	-0.024502	1.185510
C156	C	1.740016	0.308831	1.518843
C157	C	1.073337	-0.357860	0.760862
C158	C	1.406670	-0.024526	1.094196
C159	C	1.740003	0.308807	1.427529
H160	H	0.620081	-0.391307	0.252384
H161	H	0.953414	-0.057973	0.585717
H162	H	1.286747	0.275360	0.919051
O163	O	0.520250	-0.501573	0.346105
O164	O	0.853584	-0.168240	0.679439
O165	O	1.186917	0.165093	1.012772
H166	H	0.540033	-0.542698	0.390827
H167	H	0.873366	-0.209364	0.724161
H168	H	1.206700	0.123969	1.057494
H169	H	0.948304	-0.811237	0.351698
H170	H	1.281637	-0.477904	0.685031
H171	H	1.614970	-0.144571	1.018365
H172	H	0.527438	-0.266199	0.288928
H173	H	0.860772	0.067134	0.622261
H174	H	1.194105	0.400468	0.955595
H175	H	0.619912	-0.232891	0.424905
H176	H	0.953245	0.100442	0.758238
H177	H	1.286578	0.433775	1.091571
O178	O	1.178580	-0.804202	0.274114
O179	O	1.511913	-0.470868	0.607448
O180	O	1.845246	-0.137535	0.940781
H181	H	1.234767	-0.823953	0.290707
H182	H	1.568100	-0.490620	0.624040
H183	H	1.901433	-0.157286	0.957373
O184	O	0.627036	-0.463211	0.502216
O185	O	0.960369	-0.129878	0.835550
O186	O	1.293702	0.203455	1.168883
H187	H	0.688520	-0.463075	0.501296
H188	H	1.021854	-0.129742	0.834629
H189	H	1.355187	0.203591	1.167963
H190	H	1.198374	-0.903904	0.424640
H191	H	1.531707	-0.570571	0.757973
H192	H	1.865041	-0.237237	1.091307
O193	O	1.111830	-0.804162	0.544223
O194	O	1.445163	-0.470829	0.877557
O195	O	1.778496	-0.137496	1.210890
H196	H	1.111682	-0.742675	0.543557
H197	H	1.445015	-0.409342	0.876890
H198	H	1.778349	-0.076008	1.210224
O199	O	0.520100	-0.319794	0.544208
O200	O	0.853433	0.013540	0.877542
O201	O	1.186767	0.346873	1.210875
H202	H	0.567479	-0.310247	0.585494
H203	H	0.900813	0.023086	0.918827
H204	H	1.234146	0.356419	1.252161
H205	H	0.981716	-0.903753	0.487646
H206	H	1.315049	-0.570419	0.820980
H207	H	1.648383	-0.237086	1.154313
H208	H	1.039926	-0.904074	0.252406
H209	H	1.373260	-0.570740	0.585739
H210	H	1.706593	-0.237407	0.919073
