data_functionalizedCrystal
_audit_creation_method	'MofGen! by Chris Wilmer'
_symmetry_space_group_name_H-M	'P1'
_symmetry_Int_Tables_number	1
_symmetry_cell_setting	triclinic
loop_
_symmetry_equiv_pos_as_xyz
  x,y,z
_cell_length_a	10.654541
_cell_length_b	10.723024
_cell_length_c	9.798715
_cell_angle_alpha	90.005403
_cell_angle_beta	90.001077
_cell_angle_gamma	95.524101
loop_
_atom_site_label
_atom_site_type_symbol
_atom_site_fract_x
_atom_site_fract_y
_atom_site_fract_z
O1	O	1.667809	-0.175265	-0.113445
O2	O	1.302328	-0.191967	-0.113457
O3	O	1.493499	-0.002041	-0.113446
O4	O	1.476638	-0.365191	-0.113456
O5	O	1.493499	-0.002027	0.113536
O6	O	1.302327	-0.191953	0.113525
O7	O	1.667809	-0.175250	0.113537
Zn8	Zn	1.485068	-0.183599	0.149569
Zn9	Zn	1.485069	-0.183618	-0.149489
O10	O	1.476638	-0.365177	0.113526
C11	C	1.255530	-0.190734	0.000033
C12	C	1.116087	-0.187067	0.000028
N13	N	1.485070	-0.183622	-0.353589
C14	C	1.492272	0.044466	0.000044
C15	C	1.488601	0.183021	0.000039
C16	C	1.088082	-0.414175	0.000005
C17	C	1.008571	-0.526001	-0.000013
C18	C	0.877553	-0.522548	-0.000014
C19	C	0.826045	-0.407256	0.000006
C20	C	0.905556	-0.295430	0.000024
C21	C	1.036575	-0.298896	0.000021
C22	C	0.933561	-0.068324	0.000057
C23	C	1.064579	-0.071775	0.000048
C24	C	0.882053	0.046967	0.000077
C25	C	0.961565	0.158796	0.000085
C26	C	1.092590	0.155338	0.000084
C27	C	1.144090	0.040051	0.000066
C28	C	1.714607	-0.176483	0.000044
C29	C	1.854050	-0.180150	0.000040
C30	C	1.477865	-0.411683	0.000033
C31	C	1.481536	-0.550238	0.000029
C32	C	1.595570	0.257989	0.000040
C33	C	1.591778	0.401193	0.000035
C34	C	1.565512	-0.103699	-0.421361
C35	C	1.565517	-0.103679	-0.578524
N36	N	1.485077	-0.183586	0.353669
H37	H	1.194762	-0.416998	-0.000025
C38	C	1.392025	-0.276028	-0.567607
N39	N	1.321939	-0.345655	-0.508302
H40	H	1.050523	-0.619870	-0.000026
H41	H	0.719363	-0.404454	0.000022
H42	H	1.689957	0.216153	0.000051
C43	C	1.361083	0.239532	0.000037
N44	N	1.265032	0.282094	0.000039
H45	H	0.812814	-0.613606	-0.000019
H46	H	0.775371	0.049771	0.000084
H47	H	0.919615	0.252658	0.000100
H48	H	1.157321	0.246401	0.000104
H49	H	1.250770	0.037224	0.000049
H50	H	1.683352	0.465612	0.000042
H51	H	1.416208	-0.252037	-0.411918
C52	C	1.658551	-0.011275	-0.342567
N53	N	1.728628	0.058343	-0.283221
H54	H	1.389957	0.385349	0.000037
H55	H	1.634382	-0.035249	-0.636805
