data_functionalizedCrystal
_audit_creation_method	'MofGen! by Chris Wilmer'
_symmetry_space_group_name_H-M	'P1'
_symmetry_Int_Tables_number	1
_symmetry_cell_setting	triclinic
loop_
_symmetry_equiv_pos_as_xyz
  x,y,z
_cell_length_a	15.625020
_cell_length_b	15.538191
_cell_length_c	14.048226
_cell_angle_alpha	89.996115
_cell_angle_beta	71.910081
_cell_angle_gamma	66.738808
loop_
_atom_site_label
_atom_site_type_symbol
_atom_site_fract_x
_atom_site_fract_y
_atom_site_fract_z
O1	O	1.156063	0.122929	-0.478273
O2	O	0.888777	0.137575	-0.385995
O3	O	1.074449	-0.006810	-0.450101
O4	O	0.970390	0.267314	-0.414167
O5	O	1.074435	-0.006818	-0.291775
O6	O	0.888763	0.137567	-0.227669
O7	O	1.156049	0.122921	-0.319946
Zn8	Zn	1.022404	0.130242	-0.248670
Zn9	Zn	1.022422	0.130254	-0.457271
O10	O	0.970377	0.267305	-0.255841
C11	C	0.855397	0.136908	-0.295310
C12	C	0.755960	0.134920	-0.260981
C13	C	0.615800	0.132112	-0.126299
C14	C	0.709236	0.133981	-0.158566
C15	C	0.709262	0.133986	-0.331171
C16	C	0.615826	0.132113	-0.298919
C17	C	0.569102	0.131178	-0.196481
C18	C	0.569129	0.131178	-0.369101
C19	C	0.475699	0.129311	-0.336850
C20	C	0.428967	0.128378	-0.234417
C21	C	0.475672	0.129310	-0.164231
C22	C	0.615851	0.132121	-0.471537
C23	C	0.569153	0.131186	-0.541719
C24	C	0.475725	0.129311	-0.509470
C25	C	0.428993	0.128379	-0.407037
C26	C	0.429019	0.128379	-0.579656
C27	C	0.335590	0.126512	-0.547406
C28	C	0.335563	0.126511	-0.374786
C29	C	1.085330	-0.041895	-0.374700
C30	C	1.117759	-0.146427	-0.385905
C31	C	0.795579	-0.434637	-0.274656
C32	C	0.826074	-0.532863	-0.285182
C33	C	0.997604	-0.555082	-0.344401
C34	C	0.967123	-0.456856	-0.333884
C35	C	0.866109	-0.396640	-0.299010
C36	C	1.037653	-0.418860	-0.358239
C37	C	1.007174	-0.320642	-0.347718
C38	C	0.906165	-0.260421	-0.312843
C39	C	0.835630	-0.298423	-0.288489
C40	C	1.138666	-0.479077	-0.393106
C41	C	1.209196	-0.441081	-0.417460
C42	C	1.178717	-0.342862	-0.406947
C43	C	1.077708	-0.282640	-0.372071
C44	C	1.249252	-0.304860	-0.431300
C45	C	1.218773	-0.206642	-0.420779
C46	C	1.047229	-0.184423	-0.361551
C47	C	1.189429	0.123588	-0.410633
C48	C	1.288866	0.125576	-0.444968
C49	C	0.959496	0.302391	-0.331244
C50	C	0.927067	0.406922	-0.320045
N51	N	1.022398	0.130234	-0.106307
N52	N	1.022437	0.130254	-0.599637
C53	C	1.104624	0.066327	-0.084879
C54	C	1.104631	0.066326	0.014776
C55	C	1.022413	0.130238	0.093001
C56	C	0.940179	0.194148	0.071568
C57	C	0.940171	0.194144	-0.028085
C58	C	0.940202	0.194155	0.279275
C59	C	0.940211	0.194162	0.378934
C60	C	1.104663	0.066338	0.322136
C61	C	1.104655	0.066333	0.222483
C62	C	1.022421	0.130245	0.201057
H63	H	0.352888	0.126862	-0.208159
H64	H	1.331497	-0.353902	-0.459685
H65	H	0.873237	0.246196	0.261837
N66	N	1.171539	-0.585012	-0.404448
H67	H	1.145218	-0.604311	-0.454052
H68	H	1.246232	-0.617321	-0.430192
H69	H	1.171578	0.014286	-0.148567
H70	H	1.276206	-0.175706	-0.440610
N71	N	0.851500	0.263076	0.155942
H72	H	0.872286	0.304837	0.190099
H73	H	0.799441	0.303496	0.127175
N74	N	0.285212	0.125509	-0.623096
H75	H	0.328989	0.126383	-0.692883
H76	H	0.272840	0.066410	-0.622585
N77	N	1.193334	-0.002601	0.138115
H78	H	1.172545	-0.044358	0.103956
H79	H	1.221405	0.033527	0.087119
H80	H	0.747251	0.134748	-0.101406
H81	H	0.607207	0.131951	-0.625124
H82	H	1.171585	0.014288	0.032221
H83	H	0.437622	0.128560	-0.080814
H84	H	1.291441	-0.490122	-0.445851
N85	N	0.726679	-0.233469	-0.250847
H86	H	0.718078	-0.165484	-0.247869
H87	H	0.694536	-0.245768	-0.298435
H88	H	1.171619	0.014299	0.339586
N89	N	0.851543	0.263090	0.463317
H90	H	0.840038	0.329941	0.449939
H91	H	0.791198	0.252040	0.466817
N92	N	0.565406	0.131088	-0.015814
H93	H	0.609465	0.131301	0.023649
H94	H	0.500563	0.188974	0.010623
N95	N	0.759657	0.134992	-0.441654
H96	H	0.772027	0.194090	-0.449777
H97	H	0.824782	0.077403	-0.467922
N98	N	0.716623	0.134133	-0.506342
H99	H	0.712739	0.192902	-0.471114
H100	H	0.765469	0.076214	-0.489349
N101	N	0.479414	0.129399	-0.690136
H102	H	0.545685	0.130729	-0.699916
H103	H	0.489490	0.070747	-0.731304
N104	N	0.938274	-0.119482	-0.323920
H105	H	0.921808	-0.078246	-0.259540
H106	H	0.921865	-0.078288	-0.376978
N107	N	0.873276	-0.154484	-0.301490
H108	H	0.899601	-0.135183	-0.251891
H109	H	0.899615	-0.135256	-0.369314
H110	H	0.713324	-0.385605	-0.246265
N111	N	0.749998	-0.573846	-0.258910
H112	H	0.681384	-0.520793	-0.235222
H113	H	0.758911	-0.614112	-0.320678
N114	N	1.106551	-0.620026	-0.382022
H115	H	1.138742	-0.607788	-0.334450
H116	H	1.115080	-0.687987	-0.385001
N117	N	0.851478	0.263071	-0.051193
H118	H	0.839978	0.329924	-0.029892
H119	H	0.864004	0.253288	-0.126194
H120	H	0.297513	0.125761	-0.291369
