data_functionalizedCrystal
_audit_creation_method	'MofGen! by Chris Wilmer'
_symmetry_space_group_name_H-M	'P1'
_symmetry_Int_Tables_number	1
_symmetry_cell_setting	triclinic
loop_
_symmetry_equiv_pos_as_xyz
  x,y,z
_cell_length_a	16.625546
_cell_length_b	13.897449
_cell_length_c	13.897441
_cell_angle_alpha	90.016656
_cell_angle_beta	90.033447
_cell_angle_gamma	90.027294
loop_
_atom_site_label
_atom_site_type_symbol
_atom_site_fract_x
_atom_site_fract_y
_atom_site_fract_z
Zn1	Zn	-0.320872	1.474671	0.545257
Zn2	Zn	-0.070872	1.724671	0.795257
Zn3	Zn	0.179128	1.974671	1.045257
Zn4	Zn	0.429128	2.224671	1.295257
Zn5	Zn	-0.455722	1.474551	0.383951
Zn6	Zn	-0.205722	1.724551	0.633951
Zn7	Zn	0.044278	1.974551	0.883951
Zn8	Zn	0.294278	2.224551	1.133951
Zn9	Zn	-0.320919	1.313360	0.383987
Zn10	Zn	-0.070919	1.563360	0.633987
Zn11	Zn	0.179081	1.813360	0.883987
Zn12	Zn	0.429081	2.063360	1.133987
Zn13	Zn	-0.455678	1.313328	0.545215
Zn14	Zn	-0.205678	1.563328	0.795215
Zn15	Zn	0.044322	1.813328	1.045215
Zn16	Zn	0.294322	2.063328	1.295215
O17	O	-0.388298	1.393977	0.464602
O18	O	-0.138298	1.643977	0.714602
O19	O	0.111702	1.893977	0.964602
O20	O	0.361702	2.143977	1.214602
O21	O	-0.338759	1.609636	0.523862
O22	O	-0.088759	1.859636	0.773862
O23	O	0.161241	2.109636	1.023862
O24	O	0.411241	2.359636	1.273862
O25	O	-0.437879	1.453132	0.248974
O26	O	-0.187879	1.703132	0.498974
O27	O	0.062121	1.953132	0.748974
O28	O	0.312121	2.203132	0.998974
O29	O	-0.208080	1.334821	0.405413
O30	O	0.041920	1.584821	0.655413
O31	O	0.291920	1.834821	0.905413
O32	O	0.541920	2.084821	1.155413
O33	O	-0.437833	1.609549	0.405351
O34	O	-0.187833	1.859549	0.655351
O35	O	0.062167	2.109549	0.905351
O36	O	0.312167	2.359549	1.155351
O37	O	-0.208046	1.453336	0.523897
O38	O	0.041954	1.703336	0.773897
O39	O	0.291954	1.953336	1.023897
O40	O	0.541954	2.203336	1.273897
O41	O	-0.338839	1.334705	0.249001
O42	O	-0.088839	1.584705	0.499001
O43	O	0.161161	1.834705	0.749001
O44	O	0.411161	2.084705	0.999001
O45	O	-0.338796	1.178374	0.405372
O46	O	-0.088796	1.428374	0.655372
O47	O	0.161204	1.678374	0.905372
O48	O	0.411204	1.928374	1.155372
O49	O	-0.437757	1.334767	0.680202
O50	O	-0.187757	1.584767	0.930202
O51	O	0.062243	1.834767	1.180202
O52	O	0.312243	2.084767	1.430202
O53	O	-0.437803	1.178351	0.523825
O54	O	-0.187803	1.428351	0.773825
O55	O	0.062197	1.678351	1.023825
O56	O	0.312197	1.928351	1.273825
O57	O	-0.338716	1.453305	0.680233
O58	O	-0.088716	1.703305	0.930233
O59	O	0.161284	1.953305	1.180233
O60	O	0.411284	2.203305	1.430233
O61	O	-0.568549	1.453101	0.405310
O62	O	-0.318549	1.703101	0.655310
O63	O	-0.068549	1.953101	0.905310
O64	O	0.181451	2.203101	1.155310
O65	O	-0.568516	1.334651	0.523790
O66	O	-0.318516	1.584651	0.773790
O67	O	-0.068516	1.834651	1.023790
O68	O	0.181484	2.084651	1.273790
C69	C	-0.597789	1.393886	0.464562
C70	C	-0.347789	1.643886	0.714562
C71	C	-0.097789	1.893886	0.964562
C72	C	0.152211	2.143886	1.214562
C73	C	-0.687410	1.393935	0.464577
C74	C	-0.437410	1.643935	0.714577
C75	C	-0.187410	1.893935	0.964577
C76	C	0.062590	2.143935	1.214577
C77	C	-0.388300	1.143363	0.464598
C78	C	-0.138300	1.393363	0.714598
C79	C	0.111700	1.643363	0.964598
C80	C	0.361700	1.893363	1.214598
C81	C	-0.388320	1.036149	0.464619
C82	C	-0.138320	1.286149	0.714619
C83	C	0.111680	1.536149	0.964619
C84	C	0.361680	1.786149	1.214619
C85	C	-0.388227	1.394046	0.716195
C86	C	-0.138227	1.644046	0.966195
C87	C	0.111773	1.894046	1.216195
C88	C	0.361773	2.144046	1.466195
C89	C	-0.388196	1.394075	0.823409
C90	C	-0.138196	1.644075	1.073409
C91	C	0.111804	1.894075	1.323409
C92	C	0.361804	2.144075	1.573409
C93	C	-1.015585	1.394104	0.464677
C94	C	-0.765585	1.644104	0.714677
C95	C	-0.515585	1.894104	0.964677
C96	C	-0.265585	2.144104	1.214677
C97	C	-0.924277	1.394054	0.464652
C98	C	-0.674277	1.644054	0.714652
C99	C	-0.424277	1.894054	0.964652
C100	C	-0.174277	2.144054	1.214652
C101	C	-0.851500	1.394019	0.464627
C102	C	-0.601500	1.644019	0.714627
C103	C	-0.351500	1.894019	0.964627
C104	C	-0.101500	2.144019	1.214627
C105	C	-0.760186	1.393970	0.464602
C106	C	-0.510186	1.643970	0.714602
C107	C	-0.260186	1.893970	0.964602
C108	C	-0.010186	2.143970	1.214602
C109	C	-0.177989	1.394095	0.464664
C110	C	0.072011	1.644095	0.714664
C111	C	0.322011	1.894095	0.964664
C112	C	0.572011	2.144095	1.214664
C113	C	-0.088368	1.394146	0.464690
C114	C	0.161632	1.644146	0.714690
C115	C	0.411632	1.894146	0.964690
C116	C	0.661632	2.144146	1.214690
C117	C	-0.388296	1.645570	0.464607
C118	C	-0.138296	1.895570	0.714607
C119	C	0.111704	2.145570	0.964607
C120	C	0.361704	2.395570	1.214607
C121	C	-0.388295	1.752784	0.464609
C122	C	-0.138295	2.002784	0.714609
C123	C	0.111705	2.252784	0.964609
C124	C	0.361705	2.502784	1.214609
C125	C	-0.388318	1.949079	0.464613
C126	C	-0.138318	2.199079	0.714613
C127	C	0.111682	2.449079	0.964613
C128	C	0.361682	2.699079	1.214613
C129	C	-0.388308	1.839847	0.464608
C130	C	-0.138308	2.089847	0.714608
C131	C	0.111692	2.339847	0.964608
C132	C	0.361692	2.589847	1.214608
C133	C	-0.388311	1.393965	0.213988
C134	C	-0.138311	1.643965	0.463988
C135	C	0.111689	1.893965	0.713988
C136	C	0.361689	2.143965	0.963988
C137	C	-0.388114	1.394122	0.106775
C138	C	-0.138114	1.644122	0.356775
C139	C	0.111886	1.894122	0.606775
C140	C	0.361886	2.144122	0.856775
C141	C	-0.388142	1.394101	1.019705
C142	C	-0.138142	1.644101	1.269705
C143	C	0.111858	1.894101	1.519705
C144	C	0.361858	2.144101	1.769705
C145	C	-0.388174	1.394084	0.910472
C146	C	-0.138174	1.644084	1.160472
C147	C	0.111826	1.894084	1.410472
C148	C	0.361826	2.144084	1.660472
