data_functionalizedCrystal
_audit_creation_method	'MofGen! by Chris Wilmer'
_symmetry_space_group_name_H-M	'P1'
_symmetry_Int_Tables_number	1
_symmetry_cell_setting	triclinic
loop_
_symmetry_equiv_pos_as_xyz
  x,y,z
_cell_length_a	15.944493
_cell_length_b	10.654550
_cell_length_c	9.730223
_cell_angle_alpha	90.004253
_cell_angle_beta	90.000520
_cell_angle_gamma	96.020013
loop_
_atom_site_label
_atom_site_type_symbol
_atom_site_fract_x
_atom_site_fract_y
_atom_site_fract_z
O1	O	1.115489	-0.161619	-0.114168
O2	O	0.871048	-0.181664	-0.114197
O3	O	0.998889	0.011173	-0.114173
O4	O	0.987648	-0.354455	-0.114192
O5	O	0.998880	0.011178	0.114407
O6	O	0.871040	-0.181658	0.114383
O7	O	1.115480	-0.161614	0.114412
Zn8	Zn	0.993259	-0.171635	0.150689
Zn9	Zn	0.993270	-0.171642	-0.150474
O10	O	0.987640	-0.354450	0.114388
C11	C	0.998059	0.057962	0.000116
C12	C	0.995590	0.197373	0.000114
C13	C	0.839745	-0.180842	0.000089
C14	C	0.746482	-0.178385	0.000078
C15	C	1.146784	-0.162435	0.000123
C16	C	1.240047	-0.164892	0.000125
C17	C	1.475150	-0.051384	0.000110
C18	C	1.526068	-0.112592	0.112809
C19	C	1.410794	-0.169443	0.000112
C20	C	1.526052	-0.112624	-0.112553
C21	C	1.575729	-0.173830	0.000093
C22	C	1.460484	-0.230619	0.112904
C23	C	1.460465	-0.230634	-0.112559
C24	C	1.511351	-0.291929	0.000167
C25	C	1.315780	-0.166912	0.000124
C26	C	1.670741	-0.176370	0.000091
C27	C	0.988469	-0.401239	0.000096
C28	C	0.990939	-0.540650	0.000089
N29	N	0.993257	-0.171630	0.356226
C30	C	1.070860	0.277856	0.000122
C31	C	1.068535	0.408846	0.000105
C32	C	0.915663	0.378857	0.000077
C33	C	0.917989	0.247869	0.000084
N34	N	0.993278	-0.171637	-0.356011
C35	C	1.049885	-0.086278	0.428162
C36	C	1.049893	-0.086278	0.572045
C37	C	0.936644	-0.256994	0.572043
C38	C	0.936633	-0.256986	0.428162
H39	H	1.458933	0.050309	0.000228
C40	C	0.830306	0.434416	0.000071
N41	N	0.766013	0.476262	0.000077
H42	H	0.856691	0.182336	0.000073
C43	C	1.112167	0.007627	0.349038
N44	N	1.159077	0.078363	0.289445
H45	H	1.096003	-0.016775	0.630612
C46	C	1.564780	-0.045234	0.241534
N47	N	1.593936	0.005507	0.338485
H48	H	0.890543	-0.326491	0.630627
C49	C	1.421939	-0.297918	0.241768
N50	N	1.392905	-0.348601	0.338830
C51	C	1.156223	0.222314	0.000140
N52	N	1.220522	0.180484	0.000146
H53	H	0.890516	-0.326491	0.369587
H54	H	1.431797	-0.280450	-0.207849
C55	C	1.533049	-0.429414	0.000247
N56	N	1.549396	-0.532965	0.000315
H57	H	1.129828	0.474371	0.000109
C58	C	1.564743	-0.045244	-0.241268
N59	N	1.593882	0.005516	-0.338212
