data_functionalizedCrystal
_audit_creation_method	'MofGen! by Chris Wilmer'
_symmetry_space_group_name_H-M	'P1'
_symmetry_Int_Tables_number	1
_symmetry_cell_setting	triclinic
loop_
_symmetry_equiv_pos_as_xyz
  x,y,z
_cell_length_a	14.519731
_cell_length_b	14.519731
_cell_length_c	16.053802
_cell_angle_alpha	92.569546
_cell_angle_beta	87.413705
_cell_angle_gamma	83.688853
loop_
_atom_site_label
_atom_site_type_symbol
_atom_site_fract_x
_atom_site_fract_y
_atom_site_fract_z
O1	O	1.227749	0.117107	-0.069433
O2	O	1.727749	0.617107	0.430567
O3	O	0.959276	0.131323	-0.069434
O4	O	1.459276	0.631323	0.430566
O5	O	1.100620	-0.010021	-0.069426
O6	O	1.600620	0.489979	0.430574
O7	O	1.086405	0.258451	-0.069441
O8	O	1.586405	0.758451	0.430559
O9	O	1.092840	-0.002273	0.069432
O10	O	1.592840	0.497727	0.569432
O11	O	0.951496	0.139071	0.069424
O12	O	1.451496	0.639071	0.569424
O13	O	1.219969	0.124855	0.069426
O14	O	1.719969	0.624855	0.569426
Zn15	Zn	1.084497	0.133193	0.091472
Zn16	Zn	1.584497	0.633193	0.591472
Zn17	Zn	1.094747	0.122985	-0.091480
Zn18	Zn	1.594747	0.622985	0.408520
O19	O	1.078625	0.266199	0.069417
O20	O	1.578625	0.766199	0.569417
C21	C	0.921026	0.134531	-0.000005
C22	C	1.421026	0.634531	0.499995
C23	C	0.818646	0.132535	-0.000006
C24	C	1.318646	0.632535	0.499994
C25	C	0.735502	0.130913	-0.000009
C26	C	1.235502	0.630913	0.499991
C27	C	0.631193	0.128886	-0.000009
C28	C	1.131193	0.628886	0.499991
C29	C	0.548054	0.127278	-0.000009
C30	C	1.048054	0.627278	0.499991
C31	C	0.443738	0.125251	-0.000011
C32	C	0.943738	0.625251	0.499989
C33	C	1.096064	-0.040507	0.000003
C34	C	1.596064	0.459493	0.500003
C35	C	1.094068	-0.142887	0.000004
C36	C	1.594068	0.357113	0.500004
C37	C	1.092446	-0.226031	0.000002
C38	C	1.592446	0.273969	0.500002
C39	C	1.090420	-0.330341	-0.000004
C40	C	1.590420	0.169659	0.499996
C41	C	1.088811	-0.413480	-0.000010
C42	C	1.588811	0.086520	0.499990
C43	C	1.086785	-0.517796	-0.000015
C44	C	1.586785	-0.017796	0.499985
C45	C	1.258218	0.121647	-0.000005
C46	C	1.758218	0.621647	0.499995
C47	C	1.360599	0.123643	-0.000011
C48	C	1.860599	0.623643	0.499989
C49	C	1.083181	0.296685	-0.000014
C50	C	1.583181	0.796685	0.499986
C51	C	1.085177	0.399065	-0.000020
C52	C	1.585177	0.899065	0.499980
N53	N	1.077508	0.140159	0.216331
N54	N	1.577508	0.640159	0.716331
N55	N	1.101744	0.116011	-0.216340
N56	N	1.601744	0.616011	0.283660
C57	C	1.137672	0.080039	0.260029
C58	C	1.637672	0.580039	0.760029
C59	C	1.132792	0.084920	0.347435
C60	C	1.632792	0.584920	0.847435
C61	C	1.067751	0.149928	0.391143
C62	C	1.567751	0.649928	0.891143
C63	C	1.007581	0.210051	0.347439
C64	C	1.507581	0.710051	0.847439
C65	C	1.012457	0.205164	0.260034
C66	C	1.512457	0.705164	0.760034
C67	C	1.046450	0.171248	0.652551
C68	C	1.546450	0.671248	1.152551
C69	C	1.041580	0.176132	0.739962
C70	C	1.541580	0.676132	1.239962
C71	C	1.166790	0.051000	0.739952
C72	C	1.666790	0.551000	1.239952
C73	C	1.171665	0.046122	0.652546
C74	C	1.671665	0.546122	1.152546
C75	C	1.111491	0.106242	0.608850
C76	C	1.611491	0.606242	1.108850
N77	N	1.062763	0.154921	0.480486
N78	N	1.562763	0.654921	0.980486
N79	N	1.116475	0.101244	0.519508
N80	N	1.616475	0.601244	1.019508
H81	H	1.190639	0.027107	0.224448
H82	H	1.690639	0.527107	0.724448
C83	C	0.922205	0.295432	0.661353
C84	C	1.422205	0.795432	1.161353
C85	C	0.980315	0.237339	0.604528
C86	C	1.480315	0.737339	1.104528
H87	H	0.881379	0.336239	0.631701
H88	H	1.381379	0.836239	1.131701
H89	H	0.887070	0.258873	0.695456
H90	H	1.387070	0.758873	1.195456
H91	H	0.958759	0.330595	0.695431
H92	H	1.458759	0.830595	1.195431
H93	H	0.943761	0.202171	0.570454
H94	H	1.443761	0.702171	1.070454
H95	H	1.015453	0.273902	0.570411
H96	H	1.515453	0.773902	1.070411
C97	C	0.910637	0.201337	0.838297
C98	C	1.410637	0.701337	1.338297
C99	C	0.970081	0.247587	0.788015
C100	C	1.470081	0.747587	1.288015
H101	H	0.866506	0.245450	0.867968
H102	H	1.366506	0.745450	1.367968
H103	H	0.879302	0.160976	0.804214
H104	H	1.379302	0.660976	1.304214
H105	H	0.945792	0.166232	0.876821
H106	H	1.445792	0.666232	1.376821
H107	H	0.934927	0.282687	0.749487
H108	H	1.434927	0.782687	1.249487
H109	H	1.001418	0.287964	0.822101
H110	H	1.501418	0.787964	1.322101
H111	H	1.224626	-0.006812	0.616961
H112	H	1.724626	0.493188	1.116961
C113	C	1.324841	-0.001295	0.766838
C114	C	1.824841	0.498705	1.266838
C115	C	1.232921	-0.015093	0.787983
C116	C	1.732921	0.484907	1.287983
H117	H	1.365665	-0.042101	0.796493
H118	H	1.865665	0.457899	1.296493
H119	H	1.337045	-0.013507	0.708535
H120	H	1.837045	0.486493	1.208535
H121	H	1.334155	0.061077	0.781160
H122	H	1.834155	0.561077	1.281160
H123	H	1.223605	-0.077464	0.773655
H124	H	1.723605	0.422536	1.273655
H125	H	1.220713	-0.002888	0.846299
H126	H	1.720713	0.497112	1.346299
C127	C	0.944516	0.273111	0.481427
C128	C	1.444516	0.773111	0.981427
C129	C	0.936088	0.281512	0.395481
C130	C	1.436088	0.781512	0.895481
H131	H	0.900383	0.317235	0.511083
H132	H	1.400383	0.817235	1.011083
H133	H	0.933595	0.212348	0.495762
H134	H	1.433595	0.712348	0.995762
H135	H	1.005284	0.284070	0.495726
H136	H	1.505284	0.784070	0.995726
H137	H	0.875322	0.270546	0.381181
H138	H	1.375322	0.770546	0.881181
H139	H	0.947002	0.342289	0.381140
H140	H	1.447002	0.842289	0.881140
H141	H	0.963464	0.254120	0.224457
H142	H	1.463464	0.754120	0.724457
H143	H	1.181782	0.035965	0.383014
H144	H	1.681782	0.535965	0.883014
