data_functionalizedCrystal
_audit_creation_method	'MofGen! by Chris Wilmer'
_symmetry_space_group_name_H-M	'P1'
_symmetry_Int_Tables_number	1
_symmetry_cell_setting	triclinic
loop_
_symmetry_equiv_pos_as_xyz
  x,y,z
_cell_length_a	12.827893
_cell_length_b	12.827892
_cell_length_c	17.077396
_cell_angle_alpha	90.024877
_cell_angle_beta	90.017423
_cell_angle_gamma	90.015553
loop_
_atom_site_label
_atom_site_type_symbol
_atom_site_fract_x
_atom_site_fract_y
_atom_site_fract_z
Zn1	Zn	1.597652	-0.416029	0.443819
Zn2	Zn	1.930986	-0.082695	0.777152
Zn3	Zn	2.264319	0.250638	1.110486
Zn4	Zn	1.597552	-0.590791	0.312561
Zn5	Zn	1.930885	-0.257458	0.645894
Zn6	Zn	2.264218	0.075876	0.979228
Zn7	Zn	1.422899	-0.416065	0.312572
Zn8	Zn	1.756232	-0.082732	0.645905
Zn9	Zn	2.089566	0.250602	0.979238
Zn10	Zn	1.422879	-0.590729	0.443789
Zn11	Zn	1.756212	-0.257395	0.777123
Zn12	Zn	2.089546	0.075938	1.110456
O13	O	1.510246	-0.503403	0.378185
O14	O	1.843579	-0.170070	0.711519
O15	O	2.176912	0.163263	1.044852
O16	O	1.743875	-0.439222	0.426415
O17	O	2.077208	-0.105889	0.759749
O18	O	2.410542	0.227445	1.093082
O19	O	1.574350	-0.567655	0.202716
O20	O	1.907683	-0.234321	0.536049
O21	O	2.241016	0.099012	0.869382
O22	O	1.446131	-0.269824	0.329998
O23	O	1.779464	0.063509	0.663332
O24	O	2.112798	0.396843	0.996665
O25	O	1.743801	-0.567619	0.329981
O26	O	2.077134	-0.234286	0.663314
O27	O	2.410468	0.099048	0.996647
O28	O	1.574522	-0.269797	0.426425
O29	O	1.907855	0.063536	0.759759
O30	O	2.241188	0.396869	1.093092
O31	O	1.446033	-0.439284	0.202723
O32	O	1.779366	-0.105951	0.536057
O33	O	2.112700	0.227383	0.869390
O34	O	1.276660	-0.439224	0.329970
O35	O	1.609994	-0.105890	0.663303
O36	O	1.943327	0.227443	0.996637
O37	O	1.446097	-0.567513	0.553640
O38	O	1.779430	-0.234180	0.886974
O39	O	2.112764	0.099154	1.220307
O40	O	1.276646	-0.567548	0.426375
O41	O	1.609979	-0.234215	0.759709
O42	O	1.943312	0.099118	1.093042
O43	O	1.574502	-0.439162	0.553662
O44	O	1.907836	-0.105828	0.886995
O45	O	2.241169	0.227505	1.220329
O46	O	1.574330	-0.737019	0.329952
O47	O	1.907664	-0.403685	0.663285
O48	O	2.240997	-0.070352	0.996619
O49	O	1.445999	-0.736973	0.426365
O50	O	1.779333	-0.403640	0.759698
O51	O	2.112666	-0.070306	1.093032
C52	C	1.238736	-0.503384	0.378171
C53	C	1.572069	-0.170051	0.711504
C54	C	1.905402	0.163283	1.044838
C55	C	1.122583	-0.503401	0.378184
C56	C	1.455916	-0.170068	0.711517
C57	C	1.789249	0.163266	1.044850
C58	C	0.950774	-0.567015	0.425826
C59	C	1.284107	-0.233682	0.759159
C60	C	1.617441	0.099651	1.092493
C61	C	1.070824	-0.566999	0.425814
C62	C	1.404158	-0.233666	0.759148
C63	C	1.737491	0.099667	1.092481
C64	C	1.510180	-0.774913	0.378171
C65	C	1.843514	-0.441580	0.711505
C66	C	2.176847	-0.108247	1.044838
C67	C	1.510248	-0.891066	0.378192
C68	C	1.843581	-0.557733	0.711525
C69	C	2.176915	-0.224400	1.044858
C70	C	1.573826	-0.942839	0.330537
C71	C	1.907159	-0.609506	0.663870
C72	C	2.240492	-0.276172	0.997203
C73	C	1.573897	-1.062889	0.330556
C74	C	1.907230	-0.729556	0.663890
C75	C	2.240564	-0.396223	0.997223
C76	C	1.782816	-0.503423	0.378200
C77	C	2.116149	-0.170090	0.711533
C78	C	2.449482	0.163243	1.044867
C79	C	1.898969	-0.503432	0.378206
C80	C	2.232302	-0.170099	0.711540
C81	C	2.565635	0.163235	1.044873
C82	C	1.510309	-0.503326	0.582930
C83	C	1.843642	-0.169993	0.916263
C84	C	2.176975	0.163340	1.249596
C85	C	1.510336	-0.503294	0.670179
C86	C	1.843669	-0.169960	1.003513
C87	C	2.177002	0.163373	1.336846
C88	C	1.510340	-0.230833	0.378216
C89	C	1.843673	0.102500	0.711550
C90	C	2.177006	0.435833	1.044883
C91	C	1.510380	-0.114680	0.378230
C92	C	1.843713	0.218653	0.711563
C93	C	2.177046	0.551987	1.044896
C94	C	1.510243	-0.503405	0.174237
C95	C	1.843576	-0.170071	0.507571
C96	C	2.176909	0.163262	0.840904
C97	C	1.510418	-0.503143	0.086988
C98	C	1.843752	-0.169810	0.420321
C99	C	2.177085	0.163524	0.753655
C100	C	1.577199	-0.436455	0.711182
C101	C	1.910532	-0.103122	1.044515
C102	C	2.243865	0.230211	1.377849
C103	C	1.577211	-0.436421	0.793163
C104	C	1.910545	-0.103087	1.126496
C105	C	2.243878	0.230246	1.459829
C106	C	1.510365	-0.503230	0.834139
C107	C	1.843699	-0.169897	1.167472
C108	C	2.177032	0.163437	1.500806
C109	C	1.443495	-0.570071	0.793131
C110	C	1.776828	-0.236738	1.126464
C111	C	2.110162	0.096596	1.459797
C112	C	1.443478	-0.570100	0.711152
C113	C	1.776811	-0.236767	1.044485
C114	C	2.110145	0.096567	1.377818
C115	C	1.443537	-0.570008	0.964001
C116	C	1.776870	-0.236675	1.297334
C117	C	2.110204	0.096658	1.630667
C118	C	1.443555	-0.569981	1.045985
C119	C	1.776889	-0.236648	1.379319
C120	C	2.110222	0.096685	1.712652
C121	C	1.577270	-0.436329	1.046012
C122	C	1.910604	-0.102996	1.379345
C123	C	2.243937	0.230338	1.712678
C124	C	1.577253	-0.436358	0.964033
C125	C	1.910587	-0.103024	1.297366
C126	C	2.243920	0.230309	1.630699
C127	C	1.510384	-0.503201	0.923030
C128	C	1.843717	-0.169867	1.256363
C129	C	2.177051	0.163466	1.589697
H130	H	1.115375	-0.621430	0.466587
H131	H	1.448709	-0.288097	0.799920
H132	H	1.782042	0.045236	1.133254
Cl133	Cl	0.967702	-0.419370	0.315241
Cl134	Cl	1.301036	-0.086036	0.648574
Cl135	Cl	1.634369	0.247297	0.981907
H136	H	1.455941	-1.070164	0.419028
H137	H	1.789275	-0.736831	0.752362
H138	H	2.122608	-0.403498	1.085695
H139	H	1.628209	-0.898289	0.289725
H140	H	1.961542	-0.564956	0.623058
H141	H	2.294875	-0.231623	0.956391
Cl142	Cl	1.053812	-0.419343	0.315238
Cl143	Cl	1.387145	-0.086009	0.648571
Cl144	Cl	1.720479	0.247324	0.981905
Cl145	Cl	1.657934	-1.131624	0.267558
Cl146	Cl	1.991267	-0.798291	0.600891
Cl147	Cl	2.324600	-0.464957	0.934224
H148	H	1.631636	-0.382054	0.677825
H149	H	1.964969	-0.048721	1.011158
H150	H	2.298302	0.284612	1.344492
H151	H	1.455874	-0.935618	0.419009
H152	H	1.789207	-0.602285	0.752342
H153	H	2.122540	-0.268952	1.085676
Cl154	Cl	1.661336	-0.352299	1.097557
Cl155	Cl	1.994669	-0.018966	1.430891
Cl156	Cl	2.328003	0.314367	1.764224
Cl157	Cl	1.359508	-0.653960	1.097498
Cl158	Cl	1.692841	-0.320627	1.430831
Cl159	Cl	2.026174	0.012707	1.764164
H160	H	1.631660	-0.381997	0.826543
H161	H	1.964994	-0.048663	1.159877
H162	H	2.298327	0.284670	1.493210
Cl163	Cl	1.661296	-0.352374	0.912521
Cl164	Cl	1.994629	-0.019040	1.245854
Cl165	Cl	2.327962	0.314293	1.579187
H166	H	1.389069	-0.624422	0.930619
H167	H	1.722402	-0.291089	1.263952
H168	H	2.055735	0.042244	1.597285
Cl169	Cl	0.882040	-0.651100	0.488775
Cl170	Cl	1.215374	-0.317766	0.822108
Cl171	Cl	1.548707	0.015567	1.155442
H172	H	1.389064	-0.624465	0.826500
H173	H	1.722397	-0.291131	1.159833
H174	H	2.055731	0.042202	1.493167
Cl175	Cl	1.359415	-0.654125	0.659605
Cl176	Cl	1.692748	-0.320792	0.992938
Cl177	Cl	2.026081	0.012541	1.326272
