data_functionalizedCrystal
_audit_creation_method	'MofGen! by Chris Wilmer'
_symmetry_space_group_name_H-M	'P1'
_symmetry_Int_Tables_number	1
_symmetry_cell_setting	triclinic
loop_
_symmetry_equiv_pos_as_xyz
  x,y,z
_cell_length_a	10.654550
_cell_length_b	11.792254
_cell_length_c	9.730223
_cell_angle_alpha	89.995422
_cell_angle_beta	89.999957
_cell_angle_gamma	84.341764
loop_
_atom_site_label
_atom_site_type_symbol
_atom_site_fract_x
_atom_site_fract_y
_atom_site_fract_z
O1	O	1.667396	0.159419	-0.114188
O2	O	1.301875	0.174607	-0.114213
O3	O	1.493498	0.001864	-0.114190
O4	O	1.475774	0.332162	-0.114211
O5	O	1.493485	0.001859	0.114390
O6	O	1.301863	0.174602	0.114367
O7	O	1.667384	0.159414	0.114392
Zn8	Zn	1.484621	0.167007	0.150671
Zn9	Zn	1.484638	0.167014	-0.150493
O10	O	1.475762	0.332157	0.114369
C11	C	1.255074	0.173490	0.000073
C12	C	1.115640	0.170153	0.000064
C13	C	1.035872	0.271862	0.000062
C14	C	0.904860	0.268720	0.000086
C15	C	0.933397	0.062152	0.000109
C16	C	1.064407	0.065295	0.000095
C17	C	1.492375	-0.040432	0.000099
C18	C	1.489033	-0.166452	0.000098
C19	C	1.486318	-0.268795	0.000093
C20	C	1.482923	-0.397190	0.000080
C21	C	1.714185	0.160532	0.000102
C22	C	1.853619	0.163868	0.000102
C23	C	1.476884	0.374453	0.000076
C24	C	1.480226	0.500474	0.000069
N25	N	1.484619	0.167003	0.356208
N26	N	1.484650	0.167010	-0.356029
C27	C	1.569499	0.090544	0.428144
C28	C	1.569511	0.090545	0.572027
C29	C	1.399761	0.243472	0.572025
C30	C	1.399744	0.243465	0.428144
H31	H	1.077582	0.357244	0.000047
H32	H	0.891666	-0.023220	0.000142
N33	N	0.818823	0.378419	0.000160
H34	H	0.871164	0.445318	0.000163
H35	H	0.763801	0.381654	-0.084545
N36	N	1.661021	0.008075	0.350534
H37	H	1.750246	0.021890	0.375551
H38	H	1.645900	-0.072568	0.375616
N39	N	1.150455	-0.044410	0.000113
H40	H	1.098121	-0.111314	0.000128
H41	H	1.205432	-0.047608	-0.084625
N42	N	1.308232	0.325953	0.649608
H43	H	1.219010	0.312130	0.624587
H44	H	1.321231	0.314323	0.751648
N45	N	1.661077	0.008095	0.649617
H46	H	1.714845	-0.040335	0.582208
H47	H	1.716885	0.052040	0.709288
H48	H	1.330619	0.305727	0.369570
