data_functionalizedCrystal
_audit_creation_method	'MofGen! by Chris Wilmer'
_symmetry_space_group_name_H-M	'P1'
_symmetry_Int_Tables_number	1
_symmetry_cell_setting	triclinic
loop_
_symmetry_equiv_pos_as_xyz
  x,y,z
_cell_length_a	12.827893
_cell_length_b	12.759400
_cell_length_c	12.827885
_cell_angle_alpha	90.027857
_cell_angle_beta	90.019272
_cell_angle_gamma	90.014444
loop_
_atom_site_label
_atom_site_type_symbol
_atom_site_fract_x
_atom_site_fract_y
_atom_site_fract_z
Zn1	Zn	1.597678	-0.418211	0.590863
Zn2	Zn	1.597575	-0.593926	0.416129
Zn3	Zn	1.422919	-0.418263	0.416136
Zn4	Zn	1.422908	-0.593849	0.590829
O5	O	1.510270	-0.506062	0.503489
O6	O	1.743900	-0.441531	0.567695
O7	O	1.574368	-0.570678	0.269894
O8	O	1.446149	-0.271235	0.439331
O9	O	1.743825	-0.570628	0.439319
O10	O	1.574543	-0.271197	0.567702
O11	O	1.446049	-0.441619	0.269899
O12	O	1.276682	-0.441544	0.439299
O13	O	1.446129	-0.570496	0.737069
O14	O	1.276673	-0.570546	0.567644
O15	O	1.574532	-0.441456	0.737094
O16	O	1.574357	-0.740937	0.439286
O17	O	1.446030	-0.740880	0.567637
C18	C	1.238760	-0.506043	0.503469
C19	C	1.122607	-0.506060	0.503486
C20	C	1.510210	-0.779030	0.503480
C21	C	1.510280	-0.895806	0.503511
C22	C	1.070859	-0.442292	0.567109
C23	C	0.950809	-0.442308	0.567127
C24	C	1.443445	-0.950677	0.570291
C25	C	1.443501	-1.060401	0.570300
C26	C	1.577234	-1.060374	0.436748
C27	C	1.577172	-0.950652	0.436734
C28	C	1.376553	-0.895831	0.637068
C29	C	1.309713	-0.950702	0.703854
C30	C	1.309769	-1.060426	0.703864
C31	C	1.376663	-1.115279	0.637088
C32	C	1.782840	-0.506082	0.503510
C33	C	1.898993	-0.506091	0.503519
C34	C	1.510341	-0.505961	0.776059
C35	C	1.510371	-0.505918	0.892213
C36	C	1.510359	-0.232029	0.503521
C37	C	1.510397	-0.115252	0.503535
C38	C	1.510259	-0.506087	0.231979
C39	C	1.510431	-0.505834	0.115827
C40	C	1.573916	-0.442053	0.944010
C41	C	1.573949	-0.442007	1.064060
H42	H	1.115433	-0.387682	0.621562
C43	C	1.437851	-0.578871	1.056637
C44	C	1.379280	-0.637767	1.127669
C45	C	1.312422	-0.705073	1.073173
H46	H	1.392264	-0.538781	1.014049
H47	H	1.477823	-0.624684	1.014083
H48	H	1.339311	-0.591961	1.170204
H49	H	1.424839	-0.677879	1.170259
H50	H	1.352394	-0.750886	1.030620
H51	H	1.266843	-0.664974	1.030588
H52	H	1.272681	-0.745049	1.121360
H53	H	1.078033	-0.560664	0.449026
H54	H	0.906307	-0.387717	0.621601
H55	H	0.943488	-0.560694	0.449051
H56	H	1.255244	-0.906034	0.758215
H57	H	1.376502	-0.806488	0.637069
H58	H	1.255339	-1.105098	0.758238
H59	H	1.631594	-0.905976	0.382354
C60	C	1.650042	-1.119783	0.364321
C61	C	1.753404	-1.092963	0.387155
C62	C	1.820510	-1.147653	0.320450
H63	H	1.640658	-1.193006	0.373824
H64	H	1.634842	-1.101835	0.294073
H65	H	1.768598	-1.110918	0.457386
H66	H	1.762821	-1.019749	0.377645
H67	H	1.805310	-1.129705	0.250202
H68	H	1.811116	-1.220873	0.329958
H69	H	1.890647	-1.129456	0.335926
H70	H	1.376700	-1.204624	0.637098
C71	C	1.646262	-0.369130	0.884507
C72	C	1.587044	-0.301884	0.821827
C73	C	1.653657	-0.234703	0.766990
H74	H	1.686160	-0.328955	0.932449
H75	H	1.691711	-0.409355	0.841867
H76	H	1.541613	-0.261663	0.864463
H77	H	1.547148	-0.342030	0.773866
H78	H	1.699106	-0.274927	0.724350
H79	H	1.693552	-0.194535	0.814940
H80	H	1.613488	-0.189075	0.724448
H81	H	1.628355	-0.387332	1.108604
H82	H	1.455986	-0.560555	0.936744
