data_functionalizedCrystal
_audit_creation_method	'MofGen! by Chris Wilmer'
_symmetry_space_group_name_H-M	'P1'
_symmetry_Int_Tables_number	1
_symmetry_cell_setting	triclinic
loop_
_symmetry_equiv_pos_as_xyz
  x,y,z
_cell_length_a	19.077105
_cell_length_b	18.101395
_cell_length_c	19.076919
_cell_angle_alpha	87.727683
_cell_angle_beta	89.923776
_cell_angle_gamma	87.727498
loop_
_atom_site_label
_atom_site_type_symbol
_atom_site_fract_x
_atom_site_fract_y
_atom_site_fract_z
Zn1	Zn	1.058231	-0.358271	0.440421
Zn2	Zn	1.558231	0.141729	0.940421
Zn3	Zn	1.062857	-0.477344	0.322915
Zn4	Zn	1.562857	0.022656	0.822915
Zn5	Zn	0.945450	-0.348351	0.318214
Zn6	Zn	1.445450	0.151649	0.818214
Zn7	Zn	0.940679	-0.476897	0.435668
Zn8	Zn	1.440679	0.023103	0.935668
O9	O	1.001804	-0.415216	0.379305
O10	O	1.501804	0.084784	0.879305
O11	O	1.157176	-0.378405	0.428790
O12	O	1.657176	0.121595	0.928790
O13	O	1.051216	-0.456268	0.223960
O14	O	1.551216	0.043732	0.723960
O15	O	0.960470	-0.246037	0.334447
O16	O	1.460470	0.253963	0.834447
O17	O	1.160575	-0.465887	0.342459
O18	O	1.660575	0.034113	0.842459
O19	O	1.043330	-0.253326	0.424232
O20	O	1.543330	0.246674	0.924232
O21	O	0.964957	-0.361497	0.220507
O22	O	1.464957	0.138503	0.720507
O23	O	0.846486	-0.361064	0.329838
O24	O	1.346486	0.138936	0.829838
O25	O	0.952340	-0.465126	0.534630
O26	O	1.452340	0.034874	1.034630
O27	O	0.842981	-0.455506	0.416131
O28	O	1.342981	0.044494	0.916131
O29	O	1.038704	-0.377972	0.538122
O30	O	1.538704	0.122028	1.038122
O31	O	1.046590	-0.580914	0.337850
O32	O	1.546590	-0.080914	0.837850
O33	O	0.956826	-0.580586	0.420689
O34	O	1.456826	-0.080586	0.920689
C35	C	0.819237	-0.407161	0.371959
C36	C	1.319237	0.092839	0.871959
C37	C	0.741133	-0.403733	0.368833
C38	C	1.241133	0.096267	0.868833
C39	C	1.001711	-0.607621	0.379280
C40	C	1.501711	-0.107621	0.879280
C41	C	1.001735	-0.689937	0.379296
C42	C	1.501735	-0.189937	0.879296
C43	C	0.702636	-0.451363	0.412222
C44	C	1.202636	0.048637	0.912222
C45	C	0.629249	-0.448133	0.409288
C46	C	1.129249	0.051867	0.909288
C47	C	0.594361	-0.397276	0.362962
C48	C	1.094361	0.102724	0.862962
C49	C	0.632863	-0.349642	0.319571
C50	C	1.132863	0.150358	0.819571
C51	C	0.706248	-0.352869	0.322509
C52	C	1.206248	0.147131	0.822509
C53	C	0.375075	-0.382341	0.349369
C54	C	0.875075	0.117659	0.849369
C55	C	0.301684	-0.379119	0.346433
C56	C	0.801684	0.120881	0.846433
C57	C	0.298076	-0.477610	0.436152
C58	C	0.798076	0.022390	0.936152
C59	C	0.371463	-0.480836	0.439082
C60	C	0.871463	0.019164	0.939082
C61	C	0.409959	-0.433198	0.395694
C62	C	0.909959	0.066802	0.895694
N63	N	0.519348	-0.393975	0.359960
N64	N	1.019348	0.106025	0.859960
N65	N	0.484970	-0.436497	0.398700
N66	N	0.984970	0.063503	0.898700
C67	C	1.001887	-0.989036	0.379340
C68	C	1.501887	-0.489036	0.879340
C69	C	0.945531	-0.957547	0.431600
C70	C	1.445531	-0.457547	0.931600
C71	C	0.945280	-0.871910	0.431419
C72	C	1.445280	-0.371910	0.931419
C73	C	1.001811	-0.840650	0.379319
C74	C	1.501811	-0.340650	0.879319
C75	C	0.984741	-0.867911	0.304458
C76	C	1.484741	-0.367911	0.804458
C77	C	0.984379	-0.953554	0.304770
C78	C	1.484379	-0.453554	0.804770
C79	C	1.075459	-0.961424	0.401293
C80	C	1.575459	-0.461424	0.901293
C81	C	1.074956	-0.875820	0.402900
C82	C	1.574956	-0.375820	0.902900
C83	C	1.001770	-0.756788	0.379302
C84	C	1.501770	-0.256788	0.879302
C85	C	1.001927	-1.072898	0.379351
C86	C	1.501927	-0.572898	0.879351
C87	C	1.185084	-0.423303	0.386679
C88	C	1.685084	0.076697	0.886679
C89	C	1.263188	-0.426749	0.389822
C90	C	1.763188	0.073251	0.889822
C91	C	0.994474	-0.422606	0.562585
C92	C	1.494474	0.077394	1.062585
C93	C	0.991350	-0.425755	0.640688
C94	C	1.491350	0.074245	1.140688
C95	C	1.001916	-0.222060	0.379345
C96	C	1.501916	0.277940	0.879345
C97	C	1.001964	-0.139749	0.379363
C98	C	1.501964	0.360251	0.879363
C99	C	1.009146	-0.407803	0.196739
C100	C	1.509146	0.092197	0.696739
C101	C	1.012406	-0.404451	0.118642
C102	C	1.512406	0.095549	0.618642
C103	C	1.034846	-0.381860	0.679200
C104	C	1.534846	0.118140	1.179200
C105	C	1.031902	-0.384816	0.752586
C106	C	1.531902	0.115184	1.252586
C107	C	0.985466	-0.431671	0.787458
C108	C	1.485466	0.068329	1.287458
C109	C	0.941966	-0.475568	0.748941
C110	C	1.441966	0.024432	1.248941
C111	C	0.944906	-0.472608	0.675556
C112	C	1.444906	0.027392	1.175556
C113	C	0.971847	-0.445387	1.006740
C114	C	1.471847	0.054613	1.506740
C115	C	0.968911	-0.448346	1.080130
C116	C	1.468911	0.051654	1.580130
C117	C	1.058847	-0.357593	1.083770
C118	C	1.558847	0.142407	1.583770
C119	C	1.061786	-0.354640	1.010384
C120	C	1.561786	0.145360	1.510384
C121	C	1.018283	-0.398533	0.971872
C122	C	1.518283	0.101467	1.471872
N123	N	0.982458	-0.434696	0.862471
N124	N	1.482458	0.065304	1.362471
N125	N	1.021289	-0.395505	0.896861
N126	N	1.521289	0.104495	1.396861
H127	H	0.731037	-0.492778	0.449944
H128	H	1.231037	0.007222	0.949944
C129	C	1.134360	-0.847407	0.355545
C130	C	1.634360	-0.347407	0.855545
N131	N	1.179102	-0.826008	0.319871
N132	N	1.679102	-0.326008	0.819871
H133	H	1.087883	-0.858335	0.458008
H134	H	1.587883	-0.358335	0.958008
C135	C	0.417411	-0.329943	0.301636
C136	C	0.917411	0.170057	0.801636
N137	N	0.449301	-0.290475	0.265680
N138	N	0.949301	0.209525	0.765680
H139	H	0.891266	-0.976217	0.416994
H140	H	1.391266	-0.476217	0.916994
C141	C	1.038622	-0.840374	0.250241
C142	C	1.538622	-0.340374	0.750241
N143	N	1.079205	-0.819631	0.209406
N144	N	1.579205	-0.319631	0.709406
H145	H	0.597908	-0.486918	0.444619
H146	H	1.097908	0.013082	0.944619
C147	C	0.897059	-0.520897	0.633193
C148	C	1.397059	-0.020897	1.133193
N149	N	0.861017	-0.557269	0.601286
N150	N	1.361017	-0.057269	1.101286
C151	C	0.594483	-0.293697	0.268613
C152	C	1.094483	0.206303	0.768613
N153	N	0.565575	-0.251560	0.230229
N154	N	1.065575	0.248440	0.730229
C155	C	1.132133	-0.989011	0.349925
C156	C	1.632133	-0.489011	0.849925
N157	N	1.174816	-1.009795	0.311233
N158	N	1.674816	-0.509795	0.811233
H159	H	1.094263	-0.321856	1.115133
H160	H	1.594263	0.178144	1.615133
H161	H	1.072661	-0.343708	0.650813
H162	H	1.572661	0.156292	1.150813
H163	H	1.099601	-0.316487	0.981996
H164	H	1.599601	0.183513	1.481996
C165	C	0.409835	-0.536785	0.490041
C166	C	0.909835	-0.036785	0.990041
N167	N	0.438737	-0.578930	0.528422
N168	N	0.938737	-0.078930	1.028422
C169	C	0.263309	-0.323170	0.295469
C170	C	0.763309	0.176830	0.795469
N171	N	0.234404	-0.281032	0.257084
N172	N	0.734404	0.218968	0.757084
C173	C	0.255725	-0.530002	0.483880
C174	C	0.755725	-0.030002	0.983880
N175	N	0.223826	-0.569464	0.519834
N176	N	0.723826	-0.069464	1.019834
H177	H	0.737591	-0.314080	0.287181
H178	H	1.237591	0.185920	0.787181
C179	C	0.959239	-0.847210	0.506283
C180	C	1.459239	-0.347210	1.006283
N181	N	0.969750	-0.828610	0.562675
N182	N	1.469750	-0.328610	1.062675
H183	H	0.955734	-0.980878	0.487188
H184	H	1.455734	-0.480878	0.987188
H185	H	0.890687	-0.848550	0.416642
H186	H	1.390687	-0.348550	0.916642
C187	C	0.911842	-0.976519	0.280119
C188	C	1.411842	-0.476519	0.780119
N189	N	0.857205	-0.993812	0.261554
N190	N	1.357205	-0.493812	0.761554
H191	H	1.023807	-0.974230	0.264344
H192	H	1.523807	-0.474230	0.764344
C193	C	0.912996	-0.834933	0.279446
C194	C	1.412996	-0.334933	0.779446
N195	N	0.858954	-0.810097	0.260611
N196	N	1.358954	-0.310097	0.760611
C197	C	1.097265	-0.994529	0.473998
C198	C	1.597265	-0.494529	0.973998
N199	N	1.113682	-1.019463	0.528761
N200	N	1.613682	-0.519463	1.028761
C201	C	1.079752	-0.336530	0.794946
C202	C	1.579752	0.163470	1.294946
N203	N	1.115795	-0.300158	0.826852
N204	N	1.615795	0.199842	1.326852
C205	C	0.917823	-0.499890	1.118487
C206	C	1.417823	0.000110	1.618487
N207	N	0.879346	-0.538711	1.147379
N208	N	1.379346	-0.038711	1.647379
C209	C	0.923989	-0.493669	0.964387
C210	C	1.423989	0.006331	1.464387
N211	N	0.887940	-0.530036	0.932484
N212	N	1.387940	-0.030036	1.432484
H213	H	0.904154	-0.513715	0.777340
H214	H	1.404154	-0.013715	1.277340
