data_functionalizedCrystal
_audit_creation_method	'MofGen! by Chris Wilmer'
_symmetry_space_group_name_H-M	'P1'
_symmetry_Int_Tables_number	1
_symmetry_cell_setting	triclinic
loop_
_symmetry_equiv_pos_as_xyz
  x,y,z
_cell_length_a	11.169417
_cell_length_b	16.625545
_cell_length_c	11.169409
_cell_angle_alpha	90.036134
_cell_angle_beta	90.019513
_cell_angle_gamma	90.026807
loop_
_atom_site_label
_atom_site_type_symbol
_atom_site_fract_x
_atom_site_fract_y
_atom_site_fract_z
Zn1	Zn	1.834835	-0.320909	0.678501
Zn2	Zn	2.168169	0.012424	1.011834
Zn3	Zn	2.501502	0.345757	1.345168
Zn4	Zn	1.834671	-0.455771	0.477805
Zn5	Zn	2.168005	-0.122438	0.811138
Zn6	Zn	2.501338	0.210895	1.144471
Zn7	Zn	1.634121	-0.320959	0.477837
Zn8	Zn	1.967455	0.012374	0.811170
Zn9	Zn	2.300788	0.345707	1.144503
Zn10	Zn	1.634076	-0.455707	0.678451
Zn11	Zn	1.967409	-0.122373	1.011784
Zn12	Zn	2.300742	0.210960	1.345117
O13	O	1.734426	-0.388337	0.578148
O14	O	2.067759	-0.055003	0.911482
O15	O	2.401093	0.278330	1.244815
O16	O	2.002763	-0.338805	0.651886
O17	O	2.336097	-0.005472	0.985219
O18	O	2.669430	0.327861	1.318553
O19	O	1.808019	-0.437936	0.309859
O20	O	2.141352	-0.104603	0.643192
O21	O	2.474685	0.228730	0.976526
O22	O	1.660834	-0.208120	0.504490
O23	O	1.994168	0.125213	0.837823
O24	O	2.327501	0.458546	1.171156
O25	O	2.002643	-0.437888	0.504435
O26	O	2.335976	-0.104555	0.837769
O27	O	2.669310	0.228779	1.171102
O28	O	1.808298	-0.208084	0.651917
O29	O	2.141631	0.125250	0.985250
O30	O	2.474965	0.458583	1.318584
O31	O	1.660675	-0.338891	0.309882
O32	O	1.994009	-0.005557	0.643216
O33	O	2.327342	0.327776	0.976549
O34	O	1.466166	-0.338828	0.504441
O35	O	1.799499	-0.005495	0.837774
O36	O	2.132832	0.327839	1.171107
O37	O	1.660756	-0.437778	0.846407
O38	O	1.994090	-0.104444	1.179741
O39	O	2.327423	0.228889	1.513074
O40	O	1.466132	-0.437826	0.651831
O41	O	1.799465	-0.104493	0.985164
O42	O	2.132799	0.228841	1.318498
O43	O	1.808254	-0.338743	0.846444
O44	O	2.141587	-0.005409	1.179778
O45	O	2.474920	0.327924	1.513111
O46	O	1.807974	-0.568595	0.504386
O47	O	2.141308	-0.235262	0.837720
O48	O	2.474641	0.098071	1.171053
O49	O	1.660597	-0.568548	0.651800
O50	O	1.993931	-0.235214	0.985133
O51	O	2.327264	0.098119	1.318467
C52	C	1.422601	-0.388326	0.578135
C53	C	1.755935	-0.054993	0.911468
C54	C	2.089268	0.278341	1.244801
C55	C	1.289201	-0.388341	0.578157
C56	C	1.622535	-0.055007	0.911490
C57	C	1.955868	0.278326	1.244824
C58	C	1.734296	-0.597828	0.578110
C59	C	2.067629	-0.264494	0.911444
C60	C	2.400962	0.068839	1.244777
C61	C	1.734350	-0.687449	0.578134
C62	C	2.067683	-0.354115	0.911468
C63	C	2.401016	-0.020782	1.244801
C64	C	1.734396	-0.760231	0.578158
C65	C	2.067729	-0.426898	0.911492
C66	C	2.401063	-0.093565	1.244825
C67	C	1.734466	-0.851540	0.578185
C68	C	2.067799	-0.518206	0.911518
C69	C	2.401133	-0.184873	1.244851
C70	C	1.734528	-0.924316	0.578200
C71	C	2.067862	-0.590983	0.911533
C72	C	2.401195	-0.257649	1.244867
C73	C	1.734597	-1.015630	0.578225
C74	C	2.067930	-0.682297	0.911558
C75	C	2.401264	-0.348964	1.244891
C76	C	2.047468	-0.388348	0.578163
C77	C	2.380802	-0.055015	0.911496
C78	C	2.714135	0.278318	1.244829
C79	C	2.180868	-0.388353	0.578169
C80	C	2.514202	-0.055020	0.911502
C81	C	2.847535	0.278313	1.244836
C82	C	1.734518	-0.388247	0.891191
C83	C	2.067851	-0.054914	1.224524
C84	C	2.401185	0.278419	1.557858
C85	C	1.734557	-0.388209	1.024591
C86	C	2.067891	-0.054876	1.357924
C87	C	2.401224	0.278458	1.691258
C88	C	1.734590	-0.178028	0.578212
C89	C	2.067923	0.155305	0.911546
C90	C	2.401256	0.488639	1.244879
C91	C	1.734659	-0.088407	0.578240
C92	C	2.067993	0.244927	0.911573
C93	C	2.401326	0.578260	1.244906
C94	C	1.734403	-0.388368	0.266323
C95	C	2.067737	-0.055034	0.599657
C96	C	2.401070	0.278299	0.932990
C97	C	1.734596	-0.388179	0.132924
C98	C	2.067930	-0.054845	0.466257
C99	C	2.401263	0.278488	0.799591
