data_functionalizedCrystal
_audit_creation_method	'MofGen! by Chris Wilmer'
_symmetry_space_group_name_H-M	'P1'
_symmetry_Int_Tables_number	1
_symmetry_cell_setting	triclinic
loop_
_symmetry_equiv_pos_as_xyz
  x,y,z
_cell_length_a	19.121414
_cell_length_b	19.121073
_cell_length_c	12.759393
_cell_angle_alpha	87.598190
_cell_angle_beta	87.586144
_cell_angle_gamma	94.803854
loop_
_atom_site_label
_atom_site_type_symbol
_atom_site_fract_x
_atom_site_fract_y
_atom_site_fract_z
Zn1	Zn	1.063724	-0.234208	0.541225
Zn2	Zn	1.058601	-0.351893	0.373353
Zn3	Zn	0.946052	-0.239261	0.373369
Zn4	Zn	0.941001	-0.356857	0.556788
O5	O	1.002345	-0.295555	0.461183
O6	O	1.161506	-0.245627	0.512436
O7	O	1.043642	-0.336989	0.226338
O8	O	0.965920	-0.140125	0.389128
O9	O	1.157743	-0.332089	0.389101
O10	O	1.052372	-0.136412	0.512452
O11	O	0.960953	-0.254239	0.226350
O12	O	0.846920	-0.259052	0.404220
O13	O	0.957310	-0.340549	0.701741
O14	O	0.843209	-0.345449	0.538977
O15	O	1.047474	-0.250440	0.690306
O16	O	1.038743	-0.451017	0.404192
O17	O	0.952343	-0.454664	0.538962
C18	C	0.819535	-0.303338	0.473290
C19	C	0.741327	-0.306685	0.478495
C20	C	0.706499	-0.263208	0.410885
C21	C	0.633015	-0.266359	0.415776
C22	C	0.594359	-0.312984	0.488283
C23	C	0.629192	-0.356467	0.555895
C24	C	0.702675	-0.353319	0.550999
C25	C	0.372391	-0.324746	0.506568
C26	C	0.298903	-0.327889	0.511462
C27	C	0.302731	-0.237781	0.371340
C28	C	0.376216	-0.234635	0.366454
C29	C	0.411042	-0.278120	0.434063
C30	C	0.519246	-0.316204	0.493286
C31	C	0.486154	-0.274902	0.429054
C32	C	0.994458	-0.478371	0.473286
C33	C	0.991149	-0.556577	0.478494
C34	C	0.970197	-0.998995	0.511550
C35	C	0.973306	-0.925511	0.506645
C36	C	1.019879	-0.886848	0.434071
C37	C	1.063350	-0.921672	0.366405
C38	C	1.060243	-0.995154	0.371316
C39	C	1.031513	-0.664884	0.415739
C40	C	1.034615	-0.591397	0.410831
C41	C	0.944572	-0.595240	0.551073
C42	C	0.941467	-0.668724	0.555973
C43	C	0.984940	-0.703541	0.488311
C44	C	1.023057	-0.811736	0.429053
C45	C	0.981766	-0.778652	0.493335
C46	C	1.185869	-0.287741	0.449031
C47	C	1.264076	-0.284411	0.443852
C48	C	1.002400	-0.295485	0.735209
C49	C	1.002424	-0.295455	0.851982
C50	C	1.010281	-0.112024	0.449056
C51	C	1.013663	-0.033814	0.443888
C52	C	1.002332	-0.295572	0.188218
C53	C	1.002453	-0.295397	0.071423
C54	C	1.049376	-0.248528	0.900891
C55	C	1.049389	-0.248497	1.010613
C56	C	0.955496	-0.342327	1.022507
C57	C	0.955480	-0.342354	0.912787
H58	H	0.274368	-0.202379	0.316296
H59	H	0.487764	-0.354166	0.552322
H60	H	0.400738	-0.360154	0.561620
O61	O	0.936509	-0.816097	0.563925
C62	C	0.847491	-0.812166	0.702459
C63	C	0.898726	-0.769665	0.622587
H64	H	0.816919	-0.774644	0.749894
H65	H	0.878294	-0.845110	0.757659
H66	H	0.809293	-0.848219	0.658895
H67	H	0.936935	-0.733574	0.666063
H68	H	0.867877	-0.736766	0.567390
H69	H	0.267432	-0.365856	0.570512
O70	O	0.902249	-0.561455	0.616704
C71	C	0.783498	-0.544191	0.674067
C72	C	0.831345	-0.582485	0.599655
H73	H	0.726162	-0.561191	0.660325
H74	H	0.793655	-0.485025	0.658100
H75	H	0.795263	-0.558046	0.758928
H76	H	0.819608	-0.568688	0.514768
H77	H	0.821180	-0.641643	0.615713
O78	O	1.094873	-0.202935	0.841715
C79	C	1.108423	-0.107528	0.710993
C80	C	1.056822	-0.159137	0.777923
H81	H	1.077679	-0.072094	0.659417
H82	H	1.143804	-0.138236	0.659253
H83	H	1.141994	-0.074014	0.764826
H84	H	1.023205	-0.192663	0.724171
H85	H	1.021490	-0.128386	0.829674
H86	H	0.407684	-0.196672	0.307405
H87	H	1.087621	-0.210283	1.050429
H88	H	1.060976	-0.780251	0.369960
O89	O	0.591720	-0.401716	0.626471
C90	C	0.567796	-0.436931	0.808873
C91	C	0.610289	-0.385655	0.729051
H92	H	0.582783	-0.423955	0.891827
H93	H	0.579805	-0.493049	0.793173
H94	H	0.509297	-0.431718	0.800707
H95	H	0.668800	-0.390805	0.737171
H96	H	0.598221	-0.329558	0.744774
H97	H	0.731030	-0.388723	0.606054
H98	H	0.917241	-0.380567	0.872965
O99	O	0.743938	-0.217899	0.340355
C100	C	0.739972	-0.128838	0.201921
C101	C	0.697489	-0.180126	0.281737
H102	H	0.702436	-0.098274	0.154522
H103	H	0.772948	-0.159596	0.146682
H104	H	0.775992	-0.090636	0.245531
H105	H	0.661430	-0.218339	0.238215
H106	H	0.664559	-0.149322	0.336973
O107	O	0.599165	-0.224241	0.349951
C108	C	0.516587	-0.218268	0.212981
C109	C	0.554874	-0.266039	0.287489
H110	H	0.480758	-0.252042	0.162477
H111	H	0.556825	-0.184436	0.160252
H112	H	0.483795	-0.182953	0.261119
H113	H	0.587666	-0.301397	0.239436
H114	H	0.514600	-0.299823	0.340221
O115	O	0.909999	-0.387956	1.081621
C116	C	0.896442	-0.483300	1.212446
C117	C	0.948045	-0.431675	1.145547
H118	H	0.927182	-0.518650	1.264162
H119	H	0.862889	-0.516896	1.158690
H120	H	0.861044	-0.452534	1.264066
H121	H	0.983488	-0.462385	1.093919
H122	H	0.981548	-0.398079	1.199362
O123	O	0.924938	-1.036441	0.582144
C124	C	0.835932	-1.032490	0.720690
C125	C	0.887165	-0.989999	0.640805
H126	H	0.805369	-0.994961	0.768124
H127	H	0.866735	-1.065435	0.775890
H128	H	0.797727	-1.068542	0.677138
H129	H	0.925382	-0.953909	0.684269
H130	H	0.856317	-0.957101	0.585608
O131	O	0.523625	-0.229518	0.358671
C132	C	0.551281	-0.108823	0.298589
C133	C	0.508785	-0.160145	0.378343
H134	H	0.539309	-0.052723	0.314479
H135	H	0.536263	-0.121672	0.215599
H136	H	0.609778	-0.114083	0.306690
H137	H	0.450277	-0.154914	0.370338
H138	H	0.523862	-0.147282	0.461301
O139	O	0.896303	-0.706241	0.626620
C140	C	0.861114	-0.730069	0.809054
C141	C	0.912322	-0.687549	0.729164
H142	H	0.874037	-0.714962	0.891976
H143	H	0.866358	-0.788579	0.801036
H144	H	0.804998	-0.718108	0.793279
H145	H	0.968460	-0.699451	0.744888
H146	H	0.907016	-0.629052	0.737199
H147	H	1.072542	-0.559920	0.351728
O148	O	1.073889	-0.698560	0.350046
C149	C	1.192707	-0.715701	0.292874
C150	C	1.144763	-0.677538	0.367318
H151	H	1.250018	-0.698731	0.306828
H152	H	1.181063	-0.701798	0.207979
H153	H	1.182527	-0.774873	0.308756
H154	H	1.154915	-0.618359	0.351531
H155	H	1.156416	-0.691499	0.452190
O156	O	1.108491	-0.884089	0.295799
C157	C	1.121503	-0.800766	0.147834
C158	C	1.070304	-0.843300	0.227720
H159	H	1.090650	-0.767767	0.092785
H160	H	1.152026	-0.838245	0.100237
H161	H	1.159747	-0.764762	0.191394
H162	H	1.032017	-0.879308	0.184243
H163	H	1.039831	-0.805782	0.275314
H164	H	0.937913	-0.897162	0.561742
O165	O	1.102492	-1.028870	0.305479
C166	C	1.192161	-1.017306	0.165905
C167	C	1.144338	-0.979036	0.240384
H168	H	1.226015	-0.977032	0.113272
H169	H	1.158454	-1.053129	0.115300
H170	H	1.227453	-1.050097	0.214065
H171	H	1.109037	-0.946208	0.192307
H172	H	1.178087	-0.943256	0.290992
