data_functionalizedCrystal
_audit_creation_method	'MofGen! by Chris Wilmer'
_symmetry_space_group_name_H-M	'P1'
_symmetry_Int_Tables_number	1
_symmetry_cell_setting	triclinic
loop_
_symmetry_equiv_pos_as_xyz
  x,y,z
_cell_length_a	14.971486
_cell_length_b	14.044220
_cell_length_c	14.048226
_cell_angle_alpha	89.992807
_cell_angle_beta	89.998499
_cell_angle_gamma	88.401503
loop_
_atom_site_label
_atom_site_type_symbol
_atom_site_fract_x
_atom_site_fract_y
_atom_site_fract_z
O1	O	1.196679	0.123538	-0.079053
O2	O	0.937444	0.138332	-0.079079
O3	O	1.063171	-0.007054	-0.079057
O4	O	1.070953	0.268924	-0.079075
O5	O	1.063153	-0.007063	0.079264
O6	O	0.937427	0.138323	0.079242
O7	O	1.196662	0.123529	0.079268
Zn8	Zn	1.067042	0.130925	0.104392
Zn9	Zn	1.067064	0.130936	-0.104203
O10	O	1.070936	0.268915	0.079246
C11	C	0.904059	0.137666	0.000078
C12	C	0.804606	0.135683	0.000069
C13	C	0.754109	0.221093	0.000064
C14	C	0.660662	0.219225	0.000079
C15	C	0.617714	0.131945	0.000090
C16	C	0.668218	0.046528	0.000097
C17	C	0.761663	0.048398	0.000090
C18	C	0.473449	0.042638	0.000111
C19	C	0.379997	0.040767	0.000117
C20	C	0.372448	0.213465	0.000100
C21	C	0.465893	0.215334	0.000092
C22	C	0.516390	0.129917	0.000097
C23	C	1.059755	-0.042377	0.000104
C24	C	1.049594	-0.147614	0.000104
C25	C	1.031018	-0.340297	0.000088
C26	C	1.103085	-0.397848	0.000093
C27	C	1.092748	-0.505063	0.000084
C28	C	1.041353	-0.233071	0.000097
C29	C	1.230047	0.124195	0.000109
C30	C	1.329501	0.126178	0.000112
C31	C	1.074351	0.304238	0.000083
C32	C	1.084512	0.409475	0.000077
N33	N	1.067033	0.130916	0.246753
N34	N	1.067080	0.130937	-0.246564
C35	C	1.122726	0.066566	0.296581
C36	C	1.122732	0.066566	0.396238
C37	C	1.067049	0.130921	0.446066
C38	C	1.011350	0.195274	0.396232
C39	C	1.011340	0.195269	0.296576
C40	C	1.011376	0.195281	0.603946
C41	C	1.011387	0.195287	0.703609
C42	C	1.122768	0.066577	0.703608
C43	C	1.122758	0.066573	0.603953
C44	C	1.067060	0.130927	0.554125
H45	H	0.789070	0.292167	0.000054
Br46	Br	0.524180	0.333787	0.000062
Br47	Br	1.218860	-0.345769	0.000112
Br48	Br	0.609932	-0.071925	0.000123
H49	H	0.802776	-0.021152	0.000093
H50	H	0.961562	-0.371545	0.000079
H51	H	1.168073	0.014165	0.256017
H52	H	1.168080	0.014166	0.436808
Br53	Br	1.198335	-0.020758	0.536325
H54	H	0.966018	0.247683	0.563379
Br55	Br	1.198361	-0.020756	0.771235
Br56	Br	0.303918	0.329389	0.000091
Br57	Br	0.935747	0.282600	0.228952
H58	H	0.966007	0.247670	0.436807
H59	H	0.966043	0.247691	0.744173
Br60	Br	0.592133	0.335144	0.000070
H61	H	0.345032	-0.030303	0.000127
Br62	Br	0.541980	-0.073287	0.000123
