data_functionalizedCrystal
_audit_creation_method	'MofGen! by Chris Wilmer'
_symmetry_space_group_name_H-M	'P1'
_symmetry_Int_Tables_number	1
_symmetry_cell_setting	triclinic
loop_
_symmetry_equiv_pos_as_xyz
  x,y,z
_cell_length_a	16.959455
_cell_length_b	21.295417
_cell_length_c	16.959447
_cell_angle_alpha	89.964807
_cell_angle_beta	89.985678
_cell_angle_gamma	90.027454
loop_
_atom_site_label
_atom_site_type_symbol
_atom_site_fract_x
_atom_site_fract_y
_atom_site_fract_z
Zn1	Zn	1.208326	-0.250648	-0.446882
Zn2	Zn	1.708326	0.249352	0.053118
Zn3	Zn	1.208225	-0.355925	-0.314692
Zn4	Zn	1.708225	0.144075	0.185308
Zn5	Zn	1.076155	-0.250668	-0.314719
Zn6	Zn	1.576155	0.249332	0.185281
Zn7	Zn	1.076096	-0.355878	-0.446831
Zn8	Zn	1.576096	0.144122	0.053169
O9	O	1.142200	-0.303280	-0.380781
O10	O	1.642200	0.196720	0.119219
O11	O	1.318924	-0.264625	-0.429357
O12	O	1.818924	0.235375	0.070643
O13	O	1.190688	-0.341990	-0.204085
O14	O	1.690688	0.158010	0.295915
O15	O	1.093755	-0.162576	-0.332284
O16	O	1.593755	0.337424	0.167716
O17	O	1.318849	-0.341971	-0.332237
O18	O	1.818849	0.158029	0.167763
O19	O	1.190861	-0.162561	-0.429383
O20	O	1.690861	0.337439	0.070617
O21	O	1.093657	-0.264658	-0.204105
O22	O	1.593657	0.235342	0.295895
O23	O	0.965536	-0.264613	-0.332234
O24	O	1.465536	0.235387	0.167766
O25	O	1.093654	-0.341891	-0.557448
O26	O	1.593654	0.158109	-0.057448
O27	O	0.965493	-0.341910	-0.429296
O28	O	1.465493	0.158090	0.070704
O29	O	1.190803	-0.264579	-0.557486
O30	O	1.690803	0.235421	-0.057486
O31	O	1.190630	-0.444008	-0.332188
O32	O	1.690630	0.055992	0.167812
O33	O	1.093555	-0.443973	-0.429269
O34	O	1.593555	0.056027	0.070731
C35	C	0.936834	-0.303259	-0.380763
C36	C	1.436834	0.196741	0.119237
C37	C	0.848978	-0.303265	-0.380774
C38	C	1.348978	0.196735	0.119226
C39	C	0.477500	-0.262998	-0.330347
C40	C	0.977500	0.237002	0.169653
C41	C	0.477504	-0.343613	-0.431261
C42	C	0.977504	0.156387	0.068739
C43	C	0.560050	-0.343604	-0.431256
C44	C	1.060050	0.156396	0.068744
C45	C	0.601325	-0.303292	-0.380795
C46	C	1.101325	0.196708	0.119205
C47	C	0.560054	-0.262989	-0.330339
C48	C	1.060054	0.237011	0.169661
C49	C	0.601327	-0.383911	-0.481705
C50	C	1.101327	0.116089	0.018295
C51	C	0.683877	-0.383904	-0.481702
C52	C	1.183877	0.116096	0.018298
C53	C	0.725154	-0.343588	-0.431244
C54	C	1.225154	0.156412	0.068756
C55	C	0.683878	-0.303283	-0.380787
C56	C	1.183878	0.196717	0.119213
C57	C	0.725153	-0.262971	-0.330326
C58	C	1.225153	0.237029	0.169674
C59	C	0.683879	-0.222662	-0.279871
C60	C	1.183879	0.277338	0.220129
C61	C	0.601330	-0.222673	-0.279881
C62	C	1.101330	0.277327	0.220119
C63	C	0.807702	-0.343577	-0.431235
C64	C	1.307702	0.156423	0.068765
C65	C	0.807707	-0.262962	-0.330318
C66	C	1.307707	0.237038	0.169682
C67	C	1.142097	-0.466831	-0.380737
C68	C	1.642097	0.033169	0.119263
C69	C	1.142125	-0.536799	-0.380745
C70	C	1.642125	-0.036799	0.119255
C71	C	1.192717	-0.569663	-0.330246
C72	C	1.692717	-0.069663	0.169754
C73	C	1.192754	-0.635406	-0.330264
C74	C	1.692754	-0.135406	0.169736
C75	C	1.142185	-0.668282	-0.380772
C76	C	1.642185	-0.168282	0.119228
C77	C	1.091589	-0.635410	-0.431281
C78	C	1.591589	-0.135410	0.068719
C79	C	1.091559	-0.569669	-0.431267
C80	C	1.591559	-0.069669	0.068733
N81	N	1.073038	-0.771544	-0.386792
N82	N	1.573038	-0.271544	0.113208
N83	N	1.073069	-0.833996	-0.386800
N84	N	1.573069	-0.333996	0.113200
C85	C	1.142273	-0.866357	-0.380818
C86	C	1.642273	-0.366357	0.119182
N87	N	1.211448	-0.833907	-0.374811
N88	N	1.711448	-0.333907	0.125189
N89	N	1.211416	-0.771449	-0.374798
N90	N	1.711416	-0.271449	0.125202
C91	C	1.142212	-0.739567	-0.380793
C92	C	1.642212	-0.239567	0.119207
C93	C	1.192910	-0.970506	-0.330335
C94	C	1.692910	-0.470506	0.169665
C95	C	1.192948	-1.036249	-0.330359
C96	C	1.692948	-0.536249	0.169641
C97	C	1.091777	-1.036253	-0.431371
C98	C	1.591777	-0.536253	0.068629
C99	C	1.091745	-0.970510	-0.431352
C100	C	1.591745	-0.470510	0.068648
C101	C	1.142311	-0.937641	-0.380830
C102	C	1.642311	-0.437641	0.119170
C103	C	1.348369	-0.303301	-0.380800
C104	C	1.848369	0.196699	0.119200
C105	C	1.436225	-0.303310	-0.380808
C106	C	1.936225	0.196690	0.119192
C107	C	1.142233	-0.303228	-0.586949
C108	C	1.642233	0.196772	-0.086949
C109	C	1.142247	-0.303205	-0.674806
C110	C	1.642247	0.196795	-0.174806
C111	C	1.142326	-0.139089	-0.380842
C112	C	1.642326	0.360911	0.119158
C113	C	1.142379	-0.069121	-0.380868
C114	C	1.642379	0.430879	0.119132
C115	C	1.091760	-0.343392	-1.046265
C116	C	1.591760	0.156608	-0.546265
C117	C	1.192923	-0.262886	-1.046299
C118	C	1.692923	0.237114	-0.546299
C119	C	1.192902	-0.262900	-0.963753
C120	C	1.692902	0.237100	-0.463753
C121	C	1.142310	-0.303160	-0.922459
C122	C	1.642310	0.196840	-0.422459
C123	C	1.091740	-0.343407	-0.963711
C124	C	1.591740	0.156593	-0.463711
C125	C	1.243478	-0.222658	-0.922495
C126	C	1.743478	0.277342	-0.422495
C127	C	1.243459	-0.222670	-0.839944
C128	C	1.743459	0.277330	-0.339944
C129	C	1.192863	-0.262928	-0.798648
C130	C	1.692863	0.237072	-0.298648
C131	C	1.142289	-0.303176	-0.839906
C132	C	1.642289	0.196824	-0.339906
C133	C	1.091698	-0.343437	-0.798612
C134	C	1.591698	0.156563	-0.298612
C135	C	1.041120	-0.383682	-0.839867
C136	C	1.541120	0.116318	-0.339867
C137	C	1.041143	-0.383665	-0.922416
C138	C	1.541143	0.116335	-0.422416
C139	C	1.192839	-0.262945	-0.716100
C140	C	1.692839	0.237055	-0.216100
C141	C	1.091677	-0.343453	-0.716058
C142	C	1.591677	0.156547	-0.216058
C143	C	1.142213	-0.303286	-0.175415
C144	C	1.642213	0.196714	0.324585
C145	C	1.142352	-0.303131	-0.087559
C146	C	1.642352	0.196869	0.412441
H147	H	0.841307	-0.230131	-0.289230
H148	H	1.341307	0.269869	0.210770
C149	C	1.292917	-0.977103	-0.230493
C150	C	1.792917	-0.477103	0.269507
C151	C	1.248494	-0.934370	-0.274809
C152	C	1.748494	-0.434370	0.225191
H153	H	1.327234	-0.954795	-0.196216
H154	H	1.827234	-0.454795	0.303784
H155	H	1.258511	-1.002788	-0.200236
H156	H	1.758511	-0.502788	0.299764
H157	H	1.323142	-1.002701	-0.264974
H158	H	1.823142	-0.502701	0.235026
H159	H	1.218264	-0.908775	-0.240327
H160	H	1.718264	-0.408775	0.259673
H161	H	1.282904	-0.908675	-0.305068
H162	H	1.782904	-0.408675	0.194932
C163	C	0.709317	-0.414691	-0.615476
C164	C	1.209317	0.085309	-0.115476
C165	C	0.729242	-0.428204	-0.537167
C166	C	1.229242	0.071796	-0.037167
H167	H	0.737328	-0.442036	-0.649719
H168	H	1.237328	0.057964	-0.149719
H169	H	0.654253	-0.420469	-0.622693
H170	H	1.154253	0.079531	-0.122693
H171	H	0.722869	-0.372403	-0.627129
H172	H	1.222869	0.127597	-0.127129
H173	H	0.715685	-0.470490	-0.525513
H174	H	1.215685	0.029510	-0.025513
H175	H	0.784318	-0.422431	-0.529947
H176	H	1.284318	0.077569	-0.029947
H177	H	0.567717	-0.189857	-0.238803
H178	H	1.067717	0.310143	0.261197
C179	C	0.907280	-0.414312	-0.947825
C180	C	1.407280	0.085688	-0.447825
C181	C	0.985555	-0.427904	-0.967763
C182	C	1.485555	0.072096	-0.467763
H183	H	0.872965	-0.441623	-0.975827
H184	H	1.372965	0.058377	-0.475827
H185	H	0.900029	-0.420085	-0.892759
H186	H	1.400029	0.079915	-0.392759
H187	H	0.895757	-0.372013	-0.961380
H188	H	1.395757	0.127987	-0.461380
H189	H	0.997080	-0.470203	-0.954203
H190	H	1.497080	0.029797	-0.454203
H191	H	0.992809	-0.422137	-1.022841
H192	H	1.492809	0.077863	-0.522841
C193	C	0.991591	-0.628812	-0.531128
C194	C	1.491591	-0.128812	-0.031128
C195	C	1.036004	-0.671544	-0.486803
C196	C	1.536004	-0.171544	0.013197
H197	H	0.957281	-0.651120	-0.565411
H198	H	1.457281	-0.151120	-0.065411
H199	H	0.961367	-0.603213	-0.496659
H200	H	1.461367	-0.103213	0.003341
H201	H	1.026009	-0.603127	-0.561386
H202	H	1.526009	-0.103127	-0.061386
H203	H	1.001586	-0.697226	-0.456541
H204	H	1.501586	-0.197226	0.043459
H205	H	1.066231	-0.697154	-0.521276
H206	H	1.566231	-0.197154	-0.021276
C207	C	1.349753	-0.213928	-0.747097
C208	C	1.849753	0.286072	-0.247097
C209	C	1.299032	-0.178422	-0.794592
C210	C	1.799032	0.321578	-0.294592
H211	H	1.384058	-0.186607	-0.719100
H212	H	1.884058	0.313393	-0.219100
H213	H	1.319619	-0.237906	-0.710700
H214	H	1.819619	0.262094	-0.210700
H215	H	1.379990	-0.241344	-0.779287
H216	H	1.879990	0.258656	-0.279287
H217	H	1.268790	-0.151009	-0.762401
H218	H	1.768790	0.348991	-0.262401
H219	H	1.329169	-0.154433	-0.830993
H220	H	1.829169	0.345567	-0.330993
H221	H	1.050545	-0.943751	-0.472469
H222	H	1.550545	-0.443751	0.027531
C223	C	0.833154	-0.374372	-0.565002
C224	C	1.333154	0.125628	-0.065002
C225	C	0.853074	-0.387878	-0.486689
C226	C	1.353074	0.112122	0.013311
H227	H	0.861169	-0.401720	-0.599238
H228	H	1.361169	0.098280	-0.099238
H229	H	0.778091	-0.380152	-0.572221
H230	H	1.278091	0.119848	-0.072221
H231	H	0.846706	-0.332085	-0.576659
H232	H	1.346706	0.167915	-0.076659
H233	H	0.839517	-0.430163	-0.475030
H234	H	1.339517	0.069837	0.024970
H235	H	0.908149	-0.382103	-0.479466
H236	H	1.408149	0.117897	0.020534
C237	C	0.350963	-0.227209	-0.285548
C238	C	0.850963	0.272791	0.214452
C239	C	0.432136	-0.218693	-0.274888
C240	C	0.932136	0.281307	0.225112
H241	H	0.322959	-0.199858	-0.251306
H242	H	0.822959	0.300142	0.248694
H243	H	0.337463	-0.218048	-0.338673
H244	H	0.837463	0.281952	0.161327
H245	H	0.337416	-0.269495	-0.273881
H246	H	0.837416	0.230505	0.226119
H247	H	0.445684	-0.176407	-0.286561
H248	H	0.945684	0.323593	0.213439
H249	H	0.445642	-0.227849	-0.221750
H250	H	0.945642	0.272151	0.278250
C251	C	1.080475	-0.495679	-0.537565
C252	C	1.580475	0.004321	-0.037565
C253	C	1.035942	-0.533541	-0.486777
C254	C	1.535942	-0.033541	0.013223
H255	H	1.046137	-0.473378	-0.571836
H256	H	1.546137	0.026622	-0.071836
H257	H	1.110577	-0.466696	-0.507478
H258	H	1.610577	0.033304	-0.007478
H259	H	1.114904	-0.521289	-0.567835
H260	H	1.614904	-0.021289	-0.067835
H261	H	1.001517	-0.507931	-0.456503
H262	H	1.501517	-0.007931	0.043497
H263	H	1.005826	-0.562528	-0.516867
H264	H	1.505826	-0.062528	-0.016867
H265	H	1.234151	-1.063006	-0.289238
H266	H	1.734151	-0.563006	0.210762
C267	C	0.957915	-1.056556	-0.469762
C268	C	1.457915	-0.556556	0.030238
C269	C	1.036191	-1.072382	-0.486894
C270	C	1.536191	-0.572382	0.013106
H271	H	0.923601	-1.078861	-0.504046
H272	H	1.423601	-0.578861	-0.004046
H273	H	0.946392	-1.067376	-0.416653
H274	H	1.446392	-0.567376	0.083347
H275	H	0.950665	-1.012698	-0.476981
H276	H	1.450665	-0.512698	0.023019
H277	H	1.043443	-1.116240	-0.479669
H278	H	1.543443	-0.616240	0.020331
H279	H	1.047718	-1.061567	-0.540016
H280	H	1.547718	-0.561567	-0.040016
C281	C	1.299011	-0.495668	-0.319343
C282	C	1.799011	0.004332	0.180657
C283	C	1.248301	-0.533530	-0.274721
C284	C	1.748301	-0.033530	0.225279
H285	H	1.333323	-0.473357	-0.285063
H286	H	1.833323	0.026643	0.214937
H287	H	1.329235	-0.521274	-0.353804
H288	H	1.829235	-0.021274	0.146196
H289	H	1.268865	-0.466688	-0.349413
H290	H	1.768865	0.033312	0.150587
H291	H	1.278448	-0.562513	-0.244654
H292	H	1.778448	-0.062513	0.255346
H293	H	1.218075	-0.507921	-0.240246
H294	H	1.718075	-0.007921	0.259754
C295	C	0.350964	-0.379420	-0.476077
C296	C	0.850964	0.120580	0.023923
C297	C	0.432136	-0.387922	-0.486725
C298	C	0.932136	0.112078	0.013275
H299	H	0.322956	-0.406773	-0.510325
H300	H	0.822956	0.093227	-0.010325
H301	H	0.337421	-0.388585	-0.422954
H302	H	0.837421	0.111415	0.077046
H303	H	0.337465	-0.337135	-0.487742
H304	H	0.837465	0.162865	0.012258
H305	H	0.445636	-0.430206	-0.475054
H306	H	0.945636	0.069794	0.024946
H307	H	0.445685	-0.378761	-0.539860
H308	H	0.945685	0.121239	-0.039860
H309	H	1.050471	-0.376232	-0.682442
H310	H	1.550471	0.123768	-0.182442
H311	H	0.567714	-0.416735	-0.522782
H312	H	1.067714	0.083265	-0.022782
H313	H	1.233954	-0.662168	-0.289142
H314	H	1.733954	-0.162168	0.210858
C315	C	0.996179	-0.419449	-0.713305
C316	C	1.496179	0.080551	-0.213305
C317	C	0.985509	-0.427936	-0.794471
C318	C	1.485509	0.072064	-0.294471
H319	H	0.961845	-0.446766	-0.685279
H320	H	1.461845	0.053234	-0.185279
H321	H	1.049272	-0.428672	-0.699784
H322	H	1.549272	0.071328	-0.199784
H323	H	0.984643	-0.377152	-0.699805
H324	H	1.484643	0.122848	-0.199805
H325	H	0.997051	-0.470232	-0.807972
H326	H	1.497051	0.029768	-0.307972
H327	H	0.932404	-0.418717	-0.807997
H328	H	1.432404	0.081283	-0.307997
C329	C	1.046865	-0.379117	-1.172785
C330	C	1.546865	0.120883	-0.672785
C331	C	1.036169	-0.387630	-1.091608
C332	C	1.536169	0.112370	-0.591608
H333	H	1.012548	-0.406432	-1.200777
H334	H	1.512548	0.093568	-0.700777
H335	H	1.035330	-0.336823	-1.186328
H336	H	1.535330	0.163177	-0.686328
H337	H	1.099972	-0.388334	-1.186305
H338	H	1.599972	0.111666	-0.686305
H339	H	0.983063	-0.378409	-1.078088
H340	H	1.483063	0.121591	-0.578088
H341	H	1.047698	-0.429934	-1.078060
H342	H	1.547698	0.070066	-0.578060
H343	H	1.234117	-0.230111	-1.079925
H344	H	1.734117	0.269889	-0.579925
C345	C	1.288426	-0.186895	-1.049052
C346	C	1.788426	0.313105	-0.549052
C347	C	1.299092	-0.178411	-0.967885
C348	C	1.799092	0.321589	-0.467885
H349	H	1.322760	-0.159576	-1.077075
H350	H	1.822760	0.340424	-0.577075
H351	H	1.299958	-0.229186	-1.062553
H352	H	1.799958	0.270814	-0.562553
H353	H	1.235327	-0.177667	-1.062576
H354	H	1.735327	0.322333	-0.562576
H355	H	1.352190	-0.187644	-0.954361
H356	H	1.852190	0.312356	-0.454361
H357	H	1.287566	-0.136110	-0.954378
H358	H	1.787566	0.363890	-0.454378
H359	H	1.234021	-0.230179	-0.682513
H360	H	1.734021	0.269821	-0.182513
H361	H	0.717496	-0.189843	-0.238783
H362	H	1.217496	0.310157	0.261217
