data_functionalizedCrystal
_audit_creation_method	'MofGen! by Chris Wilmer'
_symmetry_space_group_name_H-M	'P1'
_symmetry_Int_Tables_number	1
_symmetry_cell_setting	triclinic
loop_
_symmetry_equiv_pos_as_xyz
  x,y,z
_cell_length_a	23.532407
_cell_length_b	22.610064
_cell_length_c	10.654551
_cell_angle_alpha	90.002575
_cell_angle_beta	83.667053
_cell_angle_gamma	90.009934
loop_
_atom_site_label
_atom_site_type_symbol
_atom_site_fract_x
_atom_site_fract_y
_atom_site_fract_z
O1	O	0.756262	0.049109	0.152435
O2	O	0.590542	0.049126	0.174492
O3	O	0.677212	0.049115	-0.019396
O4	O	0.669592	0.049119	0.346324
O5	O	0.677186	-0.049254	-0.019396
O6	O	0.590517	-0.049244	0.174492
O7	O	0.756236	-0.049261	0.152435
Zn8	Zn	0.673373	-0.064870	0.163464
Zn9	Zn	0.673406	0.064735	0.163464
O10	O	0.669567	-0.049250	0.346324
C11	C	0.569310	-0.000057	0.173930
C12	C	0.506082	-0.000050	0.172242
N13	N	0.673354	-0.153323	0.163463
C14	C	0.107658	-0.000076	0.276389
C15	C	0.048247	-0.000080	0.274820
O16	O	0.012132	-0.000100	0.371366
N17	N	0.024870	-0.000080	0.159554
C18	C	0.060906	-0.000082	0.045849
O19	O	0.035567	-0.000083	-0.052339
C20	C	0.120316	-0.000083	0.047419
C21	C	0.143689	-0.000077	0.162693
C22	C	0.131032	-0.000071	0.391653
C23	C	0.190438	-0.000066	0.393222
C24	C	0.226470	-0.000067	0.279525
C25	C	0.203096	-0.000072	0.164261
C26	C	0.156351	-0.000089	-0.066285
C27	C	0.215764	-0.000091	-0.064705
C28	C	0.239138	-0.000084	0.050569
C29	C	0.298534	-0.000068	0.052133
N30	N	0.321911	-0.000068	0.167399
C31	C	0.285880	-0.000067	0.281095
C32	C	-0.063858	-0.000082	0.042560
C33	C	-0.123266	-0.000077	0.040989
C34	C	-0.135921	-0.000076	0.269961
C35	C	-0.076512	-0.000076	0.271531
C36	C	-0.040480	-0.000082	0.157827
C37	C	0.410638	-0.000057	0.284380
C38	C	0.470050	-0.000049	0.285938
C39	C	0.482700	-0.000054	0.056967
C40	C	0.423293	-0.000058	0.055408
C41	C	0.387263	-0.000061	0.169125
O42	O	0.334684	-0.000050	-0.044362
O43	O	0.311227	-0.000074	0.379266
C44	C	0.708245	-0.561967	0.239227
C45	C	0.708252	-0.623887	0.239224
O46	O	0.737895	-0.655909	0.303632
N47	N	0.673417	-0.654860	0.163449
C48	C	0.638577	-0.623910	0.087664
O49	O	0.608949	-0.655940	0.023211
C50	C	0.638574	-0.561991	0.087661
C51	C	0.673406	-0.531021	0.163450
C52	C	0.743075	-0.530998	0.315008
C53	C	0.743067	-0.469082	0.315013
C54	C	0.708229	-0.438136	0.239236
C55	C	0.673398	-0.469106	0.163454
C56	C	0.603737	-0.531041	0.011869
C57	C	0.603737	-0.469118	0.011872
C58	C	0.638570	-0.438149	0.087661
C59	C	0.638552	-0.376244	0.087682
N60	N	0.673386	-0.345271	0.163456
C61	C	0.708225	-0.376217	0.239233
C62	C	0.638589	-0.753943	0.087673
C63	C	0.638589	-0.815861	0.087682
C64	C	0.708264	-0.815834	0.239241
C65	C	0.708261	-0.753915	0.239238
C66	C	0.673423	-0.722970	0.163448
C67	C	0.708205	-0.246190	0.239238
C68	C	0.708192	-0.184269	0.239240
C69	C	0.638519	-0.184301	0.087677
C70	C	0.638529	-0.246216	0.087680
C71	C	0.673377	-0.277160	0.163464
O72	O	0.608926	-0.344183	0.023302
O73	O	0.737854	-0.344179	0.303663
C74	C	0.777469	-0.000077	0.152997
C75	C	0.840697	-0.000080	0.154686
C76	C	0.676640	-0.000068	-0.066176
C77	C	0.674965	-0.000065	-0.205566
N78	N	0.673430	0.153188	0.163455
C79	C	0.674193	0.053556	-0.271045
C80	C	0.672616	0.053557	-0.402016
C81	C	0.672584	-0.053690	-0.402017
C82	C	0.674158	-0.053690	-0.271048
C83	C	0.637178	0.117983	-0.570965
C84	C	0.636416	0.171608	-0.636451
C85	C	0.670251	0.218947	-0.603982
C86	C	0.704862	0.212665	-0.506033
C87	C	0.705629	0.159039	-0.440555
C88	C	0.671781	0.111702	-0.473018
C89	C	0.709600	-0.118113	-0.102098
C90	C	0.710371	-0.171739	-0.036619
C91	C	0.676539	-0.219083	-0.069086
C92	C	0.641937	-0.212806	-0.167042
C93	C	0.641166	-0.159180	-0.232521
C94	C	0.674996	-0.111836	-0.200045
C95	C	0.670139	-0.000065	0.393104
C96	C	0.671813	-0.000065	0.532494
H97	H	0.489077	-0.000044	0.379812
C98	C	0.255395	-0.000094	-0.189793
N99	N	0.285244	-0.000094	-0.284008
H100	H	0.674850	0.097222	-0.217733
C101	C	0.371013	-0.000057	0.409475
N102	N	0.341168	-0.000053	0.503696
H103	H	0.404261	-0.000054	-0.038457
C104	C	0.522346	-0.000062	-0.068093
N105	N	0.552209	-0.000074	-0.162289
C106	C	0.216141	-0.000072	0.520033
N107	N	0.235497	-0.000081	0.615554
C108	C	0.746533	-0.280218	0.322617
N109	N	0.775398	-0.305848	0.385427
C110	C	-0.148970	-0.000080	-0.085821
N111	N	-0.168328	-0.000087	-0.181339
C112	C	0.743697	0.152127	-0.332814
N113	N	0.772367	0.146924	-0.251655
C114	C	0.677393	-0.278075	0.002943
N115	N	0.678033	-0.322506	0.057194
H116	H	0.610159	-0.271433	0.025982
H117	H	-0.165269	-0.000078	0.362539
C118	C	0.599947	0.065913	-0.606676
N119	N	0.571905	0.026693	-0.633580
H120	H	0.737145	-0.079560	-0.075643
H121	H	0.101700	-0.000072	0.484244
C122	C	0.781393	-0.435024	0.398371
N123	N	0.810266	-0.409375	0.461155
C124	C	0.781392	-0.565029	0.398402
N125	N	0.810249	-0.590657	0.461234
H126	H	-0.034524	-0.000081	-0.050038
H127	H	0.608232	0.176720	-0.716200
C128	C	0.746592	-0.849887	0.322588
N129	N	0.775459	-0.875537	0.385359
C130	C	0.746515	-0.150206	0.322612
N131	N	0.775380	-0.124552	0.385402
H132	H	0.610214	-0.728752	0.025961
C133	C	0.130653	-0.000108	-0.193098
N134	N	0.111300	-0.000126	-0.288620
C135	C	-0.050806	-0.000076	0.398340
N136	N	-0.031448	-0.000078	0.493858
H137	H	0.614376	-0.251353	-0.193454
H138	H	0.736624	-0.728704	0.300953
C139	C	0.742088	0.264742	-0.470335
N140	N	0.770125	0.303968	-0.443443
C141	C	0.671697	-0.112675	-0.474060
N142	N	0.671031	-0.157103	-0.528322
C143	C	0.600290	-0.150248	0.004123
N144	N	0.571531	-0.124598	-0.058891
H145	H	0.610218	-0.841071	0.025982
C146	C	0.565418	-0.565094	-0.071506
N147	N	0.536553	-0.590742	-0.134310
C148	C	0.603097	-0.152275	-0.340270
N149	N	0.574424	-0.147074	-0.421424
H150	H	0.669630	0.262610	-0.657310
C151	C	0.565410	-0.435083	-0.071501
N152	N	0.536541	-0.409448	-0.134293
H153	H	0.738551	-0.176848	0.043138
