data_functionalizedCrystal
_audit_creation_method	'MofGen! by Chris Wilmer'
_symmetry_space_group_name_H-M	'P1'
_symmetry_Int_Tables_number	1
_symmetry_cell_setting	triclinic
loop_
_symmetry_equiv_pos_as_xyz
  x,y,z
_cell_length_a	14.853567
_cell_length_b	16.109301
_cell_length_c	14.586319
_cell_angle_alpha	90.001610
_cell_angle_beta	90.002887
_cell_angle_gamma	83.548206
loop_
_atom_site_label
_atom_site_type_symbol
_atom_site_fract_x
_atom_site_fract_y
_atom_site_fract_z
O1	O	-1.196188	-0.108542	-0.076180
O2	O	-0.696188	0.391458	0.423820
O3	O	-0.933707	-0.121472	-0.076196
O4	O	-0.433707	0.378528	0.423804
O5	O	-1.072158	0.006014	-0.076178
O6	O	-0.572158	0.506014	0.423822
O7	O	-1.057737	-0.236028	-0.076198
O8	O	-0.557737	0.263972	0.423802
O9	O	-1.072141	0.006006	0.076302
O10	O	-0.572141	0.506006	0.576302
O11	O	-0.933690	-0.121480	0.076285
O12	O	-0.433690	0.378520	0.576285
O13	O	-1.196171	-0.108549	0.076301
O14	O	-0.696171	0.391451	0.576301
Cu15	Cu	-1.064929	-0.115015	0.090215
Cu16	Cu	-0.564929	0.384985	0.590215
Cu17	Cu	-1.064949	-0.115006	-0.090111
Cu18	Cu	-0.564949	0.384994	0.409889
O19	O	-1.057720	-0.236035	0.076283
O20	O	-0.557720	0.263965	0.576283
C21	C	-0.900111	-0.120890	0.000042
C22	C	-0.400111	0.379110	0.500042
C23	C	-0.800030	-0.119135	0.000036
C24	C	-0.300030	0.380865	0.500036
C25	C	-1.071566	0.036986	0.000062
C26	C	-0.571566	0.536986	0.500062
C27	C	-1.069814	0.129284	0.000064
C28	C	-0.569814	0.629284	0.500064
C29	C	-1.229767	-0.109131	0.000060
C30	C	-0.729767	0.390869	0.500060
C31	C	-1.329848	-0.110887	0.000060
C32	C	-0.829848	0.389113	0.500060
C33	C	-0.387634	-0.035983	0.000064
C34	C	0.112366	0.464017	0.500064
C35	C	-0.366102	-0.187440	0.000051
C36	C	0.133898	0.312560	0.500051
C37	C	-0.460133	-0.189090	0.000047
C38	C	0.039867	0.310910	0.500047
C39	C	-0.517919	-0.114187	0.000051
C40	C	-0.017919	0.385813	0.500051
C41	C	-0.481674	-0.037632	0.000058
C42	C	0.018326	0.462368	0.500058
C43	C	-0.496386	-0.265644	0.000031
C44	C	0.003614	0.234356	0.500031
C45	C	-0.590422	-0.267298	0.000027
C46	C	-0.090422	0.232702	0.500027
C47	C	-0.648210	-0.192393	0.000038
C48	C	-0.148210	0.307607	0.500038
C49	C	-0.611959	-0.115835	0.000045
C50	C	-0.111959	0.384165	0.500045
C51	C	-0.669745	-0.040931	0.000049
C52	C	-0.169745	0.459069	0.500049
C53	C	-0.633496	0.035628	0.000063
C54	C	-0.133496	0.535628	0.500063
C55	C	-0.539461	0.037273	0.000068
C56	C	-0.039461	0.537273	0.500068
C57	C	-0.742245	-0.194038	0.000033
C58	C	-0.242245	0.305962	0.500033
C59	C	-0.763785	-0.042580	0.000043
C60	C	-0.263785	0.457420	0.500043
C61	C	-1.058313	-0.267007	0.000040
C62	C	-0.558313	0.232993	0.500040
C63	C	-1.060064	-0.359305	0.000033
C64	C	-0.560064	0.140695	0.500033
N65	N	-1.064922	-0.115021	0.217047
N66	N	-0.564922	0.384979	0.717047
C67	C	-1.147896	0.351446	0.000054
C68	C	-0.647896	0.851446	0.500054
C69	C	-1.146243	0.438169	0.000046
C70	C	-0.646243	0.938169	0.500046
C71	C	-0.981976	0.418525	0.000040
C72	C	-0.481976	0.918525	0.500040
C73	C	-0.983629	0.331804	0.000041
C74	C	-0.483629	0.831804	0.500041
C75	C	-1.066592	0.298267	0.000053
C76	C	-0.566592	0.798267	0.500053
C77	C	-1.063286	0.471711	0.000044
C78	C	-0.563286	0.971711	0.500044
C79	C	-1.061494	0.565740	0.000036
C80	C	-0.561494	1.065740	0.500036
C81	C	-1.068385	0.204233	0.000059
C82	C	-0.568385	0.704233	0.500059
N83	N	-1.064964	-0.114994	-0.216943
N84	N	-0.564964	0.385006	0.283057
C85	C	-1.119598	-0.165526	0.452053
C86	C	-0.619598	0.334474	0.952053
C87	C	-1.119607	-0.165521	0.548034
C88	C	-0.619607	0.334479	1.048034
C89	C	-1.010285	-0.064483	0.548045
C90	C	-0.510285	0.435517	1.048045
C91	C	-1.010281	-0.064485	0.452066
C92	C	-0.510281	0.435515	0.952066
C93	C	-1.064936	-0.115011	0.404072
C94	C	-0.564936	0.384989	0.904072
C95	C	-1.064949	-0.115004	0.596033
C96	C	-0.564949	0.384996	1.096033
C97	C	-1.064959	-0.114997	0.700100
C98	C	-0.564959	0.385003	1.200100
C99	C	-1.064928	-0.115017	0.299998
C100	C	-0.564928	0.384983	0.799998
H101	H	-0.810829	0.018417	0.000050
H102	H	-0.310829	0.518417	0.500050
H103	H	-1.215449	0.324144	0.000061
H104	H	-0.715449	0.824144	0.500061
C105	C	-0.950145	-0.008912	0.399284
C106	C	-0.450145	0.491088	0.899284
N107	N	-0.904853	0.032944	0.359528
N108	N	-0.404853	0.532944	0.859528
H109	H	-0.319048	-0.248423	0.000040
H110	H	0.180952	0.251577	0.500040
H111	H	-1.164119	-0.206654	0.587096
H112	H	-0.664119	0.293346	1.087096
C113	C	-0.950159	-0.008915	0.600847
C114	C	-0.450159	0.491085	1.100847
N115	N	-0.904867	0.032936	0.640617
N116	N	-0.404867	0.532936	1.140617
H117	H	-0.680557	0.096614	0.000060
H118	H	-0.180557	0.596614	0.500060
H119	H	-0.509938	0.099603	0.000102
H120	H	-0.009938	0.599603	0.500102
H121	H	-0.358115	0.026349	0.000079
H122	H	0.141885	0.526349	0.500079
C123	C	-0.894184	0.273303	0.000035
C124	C	-0.394184	0.773303	0.500035
N125	N	-0.826817	0.229241	0.000027
N126	N	-0.326817	0.729241	0.500027
H127	H	-1.164101	-0.206668	0.412979
H128	H	-0.664101	0.293332	0.912979
H129	H	-0.449331	-0.326626	0.000019
H130	H	0.050669	0.173374	0.500019
H131	H	-0.619928	-0.329636	0.000016
H132	H	-0.119928	0.170364	0.500016
C133	C	-1.235684	0.496663	0.000056
C134	C	-0.735684	0.996663	0.500056
N135	N	-1.303055	0.540720	0.000065
N136	N	-0.803055	1.040720	0.500065
C137	C	-0.782115	-0.278248	0.000016
C138	C	-0.282115	0.221752	0.500016
N139	N	-0.812143	-0.341679	0.000005
N140	N	-0.312143	0.158321	0.500005
H141	H	-0.914430	0.445842	0.000032
H142	H	-0.414430	0.945842	0.500032
