data_functionalizedCrystal
_audit_creation_method	'MofGen! by Chris Wilmer'
_symmetry_space_group_name_H-M	'P1'
_symmetry_Int_Tables_number	1
_symmetry_cell_setting	triclinic
loop_
_symmetry_equiv_pos_as_xyz
  x,y,z
_cell_length_a	29.839134
_cell_length_b	29.839132
_cell_length_c	12.759393
_cell_angle_alpha	89.961221
_cell_angle_beta	90.033987
_cell_angle_gamma	89.961992
loop_
_atom_site_label
_atom_site_type_symbol
_atom_site_fract_x
_atom_site_fract_y
_atom_site_fract_z
Zn1	Zn	0.686751	0.178920	0.594346
Zn2	Zn	0.686665	0.254056	0.418640
Zn3	Zn	0.611621	0.178932	0.418639
Zn4	Zn	0.611576	0.254014	0.594235
O5	O	0.649153	0.216480	0.506465
O6	O	0.749606	0.188899	0.571086
O7	O	0.676693	0.244114	0.271619
O8	O	0.621641	0.116063	0.441993
O9	O	0.749543	0.244102	0.441995
O10	O	0.676839	0.116054	0.571084
O11	O	0.621558	0.188920	0.271618
O12	O	0.548748	0.188879	0.441885
O13	O	0.621565	0.244030	0.741271
O14	O	0.548715	0.244041	0.570895
O15	O	0.676796	0.188858	0.741353
O16	O	0.676650	0.316918	0.441887
O17	O	0.621482	0.316887	0.570896
C18	C	0.532430	0.216457	0.506378
C19	C	0.482496	0.216458	0.506366
C20	C	0.125913	0.187715	0.439427
C21	C	0.313587	0.187702	0.439363
O22	O	0.337855	0.163226	0.382352
N23	N	0.337051	0.216465	0.506419
C24	C	0.313594	0.245231	0.573500
O25	O	0.337858	0.269692	0.630541
C26	C	0.125922	0.245241	0.573568
C27	C	0.102460	0.216480	0.506501
C28	C	0.102451	0.158955	0.372366
C29	C	0.055536	0.158960	0.372378
C30	C	0.032083	0.187725	0.439452
C31	C	0.055545	0.216485	0.506513
C32	C	0.102466	0.274005	0.640654
C33	C	0.055545	0.274004	0.640667
C34	C	0.032083	0.245242	0.573600
C35	C	-0.014824	0.245255	0.573600
N36	N	-0.038289	0.216492	0.506544
C37	C	-0.014835	0.187727	0.439470
C38	C	0.412125	0.245225	0.573458
C39	C	0.459043	0.245223	0.573440
C40	C	0.459032	0.187693	0.439304
C41	C	0.412113	0.187697	0.439318
C42	C	0.388660	0.216462	0.506402
C43	C	-0.113361	0.187740	0.439501
C44	C	-0.160281	0.187749	0.439517
C45	C	-0.160266	0.245277	0.573656
C46	C	-0.113350	0.245270	0.573637
C47	C	-0.089899	0.216498	0.506556
O48	O	-0.039122	0.269715	0.630590
O49	O	-0.039108	0.163262	0.382454
C50	C	0.172829	0.187710	0.439414
C51	C	0.196291	0.216469	0.506476
C52	C	0.172837	0.245234	0.573549
C53	C	0.243209	0.216467	0.506457
C54	C	0.266662	0.187703	0.439384
C55	C	0.243198	0.158939	0.372328
C56	C	0.196282	0.158945	0.372341
C57	C	0.196302	0.273997	0.640605
C58	C	0.243217	0.273990	0.640586
C59	C	0.266671	0.245225	0.573512
C60	C	0.649064	0.333203	0.506402
C61	C	0.649067	0.383137	0.506411
C62	C	0.677899	0.692784	0.439345
C63	C	0.677942	0.880457	0.439369
O64	O	0.702408	0.904725	0.382329
N65	N	0.649200	0.903922	0.506482
C66	C	0.620448	0.880466	0.573599
O67	O	0.596005	0.904731	0.630691
C68	C	0.620407	0.692794	0.573580
C69	C	0.649148	0.669332	0.506455
C70	C	0.706638	0.669322	0.372227
C71	C	0.706625	0.622406	0.372218
C72	C	0.677874	0.598953	0.439327
C73	C	0.649135	0.622416	0.506445
C74	C	0.591657	0.669339	0.640701
C75	C	0.591651	0.622418	0.640692
C76	C	0.620391	0.598955	0.573567
C77	C	0.620371	0.552048	0.573545
N78	N	0.649113	0.528583	0.506432
C79	C	0.677864	0.552036	0.439323
C80	C	0.620470	0.978997	0.573603
C81	C	0.620480	1.025915	0.573606
C82	C	0.677975	1.025903	0.439378
C83	C	0.677963	0.978984	0.439370
C84	C	0.649212	0.955532	0.506490
C85	C	0.677835	0.453510	0.439308
C86	C	0.677818	0.406590	0.439301
C87	C	0.620325	0.406606	0.573533
C88	C	0.620340	0.453522	0.573536
C89	C	0.649098	0.476972	0.506420
O90	O	0.595922	0.527751	0.630564
O91	O	0.702310	0.527763	0.382256
C92	C	0.677912	0.739700	0.439355
C93	C	0.649173	0.763162	0.506473
C94	C	0.620422	0.739710	0.573583
C95	C	0.649183	0.810080	0.506477
C96	C	0.677934	0.833533	0.439368
C97	C	0.706676	0.810068	0.372255
C98	C	0.706663	0.763153	0.372245
C99	C	0.591680	0.763175	0.640696
C100	C	0.591695	0.810090	0.640699
C101	C	0.620446	0.833543	0.573589
C102	C	0.766331	0.216504	0.506553
C103	C	0.816266	0.216514	0.506590
C104	C	0.649185	0.216438	0.780499
C105	C	0.649199	0.216420	0.897275
C106	C	0.649238	1.099302	0.506528
C107	C	0.649231	1.049368	0.506497
C108	C	0.649147	0.216490	0.233498
C109	C	0.649221	0.216382	0.116722
C110	C	0.677969	0.187666	1.061907
C111	C	0.677960	0.187686	0.952183
C112	C	0.620449	0.245139	0.952098
C113	C	0.620461	0.245121	1.061820
C114	C	0.706729	0.158927	1.116808
C115	C	0.735480	0.130208	1.061993
C116	C	0.735470	0.130228	0.952269
C117	C	0.706710	0.158967	0.897360
H118	H	0.262316	0.297415	0.695199
N119	N	0.172340	0.303379	0.709114
N120	N	0.146187	0.287615	0.776142
H121	H	0.129264	0.308369	0.824525
N122	N	0.764837	0.100902	0.896257
N123	N	0.793445	0.116723	0.835044
H124	H	0.814185	0.096009	0.795485
H125	H	0.706708	0.158984	0.808015
H126	H	0.701222	0.387488	0.384637
N127	N	0.764851	0.100855	1.118094
N128	N	0.749073	0.072215	1.179324
H129	H	0.769816	0.051484	1.218946
N130	N	0.031597	0.303388	0.709206
N131	N	0.052554	0.329062	0.769078
H132	H	0.035642	0.349815	0.817483
H133	H	0.701254	0.472598	0.384658
N134	N	0.388163	0.274607	0.641976
N135	N	0.362013	0.258841	0.709009
H136	H	0.345091	0.279593	0.757396
N137	N	0.735986	0.598451	0.303645
N138	N	0.761654	0.619404	0.243739
H139	H	0.782393	0.602488	0.195307
N140	N	0.591076	0.274490	0.895997
N141	N	0.591069	0.274501	0.798032
H142	H	0.570323	0.295230	0.758409
N143	N	0.388157	0.158309	0.370818
N144	N	0.393431	0.116859	0.377965
H145	H	0.376514	0.096100	0.329586
H146	H	0.597051	0.268504	1.106452
H147	H	0.730085	0.829172	0.317609
H148	H	0.478136	0.164272	0.384689
N149	N	0.483006	0.274600	0.641951
N150	N	0.509216	0.258827	0.708963
H151	H	0.526139	0.279574	0.757356
H152	H	0.121561	0.297426	0.695267
H153	H	-0.094273	0.164309	0.384883
N154	N	0.590987	0.477489	0.642113
N155	N	0.606787	0.503628	0.709118
H156	H	0.586059	0.520552	0.757560
H157	H	-0.179381	0.164327	0.384899
N158	N	-0.089380	0.274657	0.642119
N159	N	-0.094641	0.316109	0.634971
H160	H	-0.077714	0.336863	0.683342
N161	N	0.031581	0.129578	0.303863
N162	N	0.052535	0.103899	0.243987
H163	H	0.035619	0.083145	0.195594
N164	N	-0.184235	0.274658	0.642156
N165	N	-0.226125	0.274653	0.642153
H166	H	-0.243055	0.295401	0.690536
H167	H	0.121542	0.135529	0.317746
H168	H	0.597057	0.959905	0.628261
H169	H	0.568252	0.688434	0.695356
N170	N	0.706748	0.158914	1.228887
N171	N	0.716117	0.193951	1.277844
H172	H	0.716131	0.193942	1.357000
N173	N	0.172327	0.129563	0.303823
N174	N	0.193281	0.103885	0.243945
H175	H	0.176366	0.083133	0.195550
N176	N	0.267167	0.129562	0.303813
N177	N	0.309057	0.129567	0.303820
H178	H	0.325988	0.108820	0.255437
H179	H	0.730053	0.688412	0.317578
N180	N	0.707322	0.955027	0.370795
N181	N	0.732987	0.975978	0.310879
H182	H	0.753724	0.959060	0.262445
H183	H	0.701385	1.045006	0.384735
N184	N	0.591112	1.049871	0.642163
N185	N	0.565444	1.028920	0.702073
H186	H	0.544703	1.045837	0.750496
H187	H	0.568239	0.603325	0.695353
N188	N	0.590957	0.382638	0.642065
N189	N	0.590954	0.340748	0.642039
H190	H	0.570213	0.323818	0.690443
H191	H	0.730066	0.744053	0.317586
H192	H	0.568287	0.829189	0.695359
H193	H	0.568268	0.744083	0.695345
