data_functionalizedCrystal
_audit_creation_method	'MofGen! by Chris Wilmer'
_symmetry_space_group_name_H-M	'P1'
_symmetry_Int_Tables_number	1
_symmetry_cell_setting	triclinic
loop_
_symmetry_equiv_pos_as_xyz
  x,y,z
_cell_length_a	14.044220
_cell_length_b	10.489741
_cell_length_c	13.101039
_cell_angle_alpha	93.396862
_cell_angle_beta	86.340132
_cell_angle_gamma	88.864026
loop_
_atom_site_label
_atom_site_type_symbol
_atom_site_fract_x
_atom_site_fract_y
_atom_site_fract_z
O1	O	1.264971	0.301301	-0.085104
O2	O	0.988928	0.290194	-0.085130
O3	O	1.133230	0.110787	-0.085110
O4	O	1.120668	0.480707	-0.085124
O5	O	1.122877	0.123682	0.085318
O6	O	0.978574	0.303089	0.085298
O7	O	1.254618	0.314196	0.085324
Zn8	Zn	1.114952	0.310690	0.112370
Zn9	Zn	1.128593	0.293700	-0.112176
O10	O	1.110315	0.493603	0.085305
C11	C	0.948404	0.291780	0.000081
C12	C	0.843079	0.277280	0.000071
C13	C	0.650236	0.250773	0.000092
C14	C	0.593304	0.353611	0.000093
C15	C	0.486000	0.338862	0.000105
C16	C	0.757551	0.265520	0.000080
C17	C	1.127105	0.069607	0.000103
C18	C	1.124266	-0.072311	0.000101
C19	C	1.032451	-0.149765	0.000085
C20	C	1.070719	-0.231130	0.084119
C21	C	1.080948	-0.243816	-0.083910
C22	C	1.162568	-0.151801	0.084204
C23	C	1.172789	-0.164485	-0.083900
C24	C	1.211123	-0.245814	0.000155
C25	C	1.295142	0.312609	0.000111
C26	C	1.400466	0.327109	0.000114
C27	C	1.116441	0.534783	0.000089
C28	C	1.119280	0.676700	0.000084
N29	N	1.105649	0.322285	0.265618
N30	N	1.137903	0.282095	-0.265424
C31	C	1.092993	0.338073	0.474659
C32	C	1.150557	0.266311	0.525542
C33	C	1.143515	0.275096	0.641860
C34	C	1.100034	0.329290	0.358331
H35	H	0.956955	-0.107764	0.000162
C36	C	1.034282	-0.298256	-0.179888
C37	C	0.930718	-0.259604	-0.198333
C38	C	0.884043	-0.314039	-0.294304
C39	C	0.940933	-0.407126	-0.371832
C40	C	1.044503	-0.445783	-0.353389
C41	C	1.091178	-0.391348	-0.257418
H42	H	0.888599	-0.190691	-0.140940
H43	H	0.807373	-0.285422	-0.307956
H44	H	0.906382	-0.447422	-0.442876
H45	H	1.086622	-0.514696	-0.410782
H46	H	1.167847	-0.419966	-0.243766
H47	H	1.205129	0.198277	0.481747
H48	H	1.038426	0.406105	0.518448
C49	C	0.636321	0.487517	0.000070
C50	C	0.570468	0.606655	0.000063
C51	C	0.613490	0.740556	0.000035
C52	C	0.722366	0.755318	0.000014
C53	C	0.788226	0.636175	0.000022
C54	C	0.745204	0.502275	0.000050
H55	H	0.489866	0.595731	0.000078
H56	H	0.564736	0.828752	0.000029
H57	H	0.754214	0.854439	-0.000007
H58	H	0.868828	0.647100	0.000007
H59	H	0.793958	0.414078	0.000056
C60	C	1.012409	-0.271097	0.180084
C61	C	0.966726	-0.168475	0.258007
C62	C	0.908409	-0.208437	0.353967
C63	C	0.895774	-0.351021	0.372003
C64	C	0.941458	-0.453652	0.294077
C65	C	0.999776	-0.413690	0.198117
H66	H	0.976078	-0.062918	0.244658
H67	H	0.874591	-0.132462	0.411652
H68	H	0.852605	-0.380603	0.443038
H69	H	0.932107	-0.559209	0.307426
H70	H	1.033594	-0.489665	0.140432
C71	C	1.209165	-0.097573	0.180294
C72	C	1.220422	0.047628	0.198082
C73	C	1.267014	0.101859	0.294171
C74	C	1.302348	0.010890	0.372473
C75	C	1.291092	-0.134320	0.354687
C76	C	1.244500	-0.188551	0.258598
H77	H	1.194265	0.114977	0.140116
H78	H	1.275347	0.209354	0.307337
H79	H	1.336838	0.051035	0.443604
H80	H	1.317249	-0.201669	0.412653
H81	H	1.236167	-0.296046	0.245432
C82	C	1.231058	-0.124473	-0.179869
C83	C	1.199051	-0.163672	-0.287294
C84	C	1.257312	-0.123657	-0.383273
C85	C	1.347580	-0.044443	-0.371826
C86	C	1.379592	-0.005240	-0.264396
C87	C	1.321331	-0.045255	-0.168417
H88	H	1.132226	-0.222315	-0.295772
H89	H	1.233615	-0.152678	-0.462800
H90	H	1.390708	-0.014821	-0.442875
H91	H	1.446418	0.053403	-0.255918
H92	H	1.345029	-0.016234	-0.088891
H93	H	1.286678	-0.287571	0.000208
H94	H	0.618389	0.151662	0.000101
