data_functionalizedCrystal
_audit_creation_method	'MofGen! by Chris Wilmer'
_symmetry_space_group_name_H-M	'P1'
_symmetry_Int_Tables_number	1
_symmetry_cell_setting	triclinic
loop_
_symmetry_equiv_pos_as_xyz
  x,y,z
_cell_length_a	10.540539
_cell_length_b	27.732048
_cell_length_c	9.016244
_cell_angle_alpha	89.992799
_cell_angle_beta	89.994699
_cell_angle_gamma	83.584073
loop_
_atom_site_label
_atom_site_type_symbol
_atom_site_fract_x
_atom_site_fract_y
_atom_site_fract_z
O1	O	1.682935	0.068112	-0.123289
O2	O	1.313244	0.074530	-0.123309
O3	O	1.509571	0.000996	-0.123270
O4	O	1.486608	0.141645	-0.123327
O5	O	1.509543	0.000998	0.123411
O6	O	1.313215	0.074531	0.123372
O7	O	1.682907	0.068113	0.123392
Cu8	Cu	1.498058	0.071322	0.145906
Cu9	Cu	1.498092	0.071321	-0.145822
O10	O	1.486579	0.141647	0.123353
C11	C	1.265947	0.074049	0.000030
C12	C	1.125062	0.072609	0.000023
C13	C	0.944031	0.017434	0.000622
C14	C	1.090586	0.018894	0.000050
C15	C	1.062283	0.098458	-0.140849
C16	C	0.915818	0.096625	-0.140950
C17	C	0.915250	0.097720	0.139571
C18	C	1.062210	0.098215	0.141418
C19	C	1.509075	-0.017013	0.000075
C20	C	1.507623	-0.070677	0.000087
C21	C	1.614502	-0.408819	0.000017
C22	C	1.609117	-0.610513	-0.000004
O23	O	1.706850	-0.641153	-0.000064
N24	N	1.492703	-0.630369	-0.000009
C25	C	1.377627	-0.599799	-0.000019
O26	O	1.278486	-0.621317	-0.000039
C27	C	1.383013	-0.398107	-0.000008
C28	C	1.499435	-0.378253	0.000012
C29	C	1.730915	-0.388965	0.000035
C30	C	1.732260	-0.338544	0.000048
C31	C	1.617193	-0.307978	0.000043
C32	C	1.500780	-0.327832	0.000025
C33	C	1.267939	-0.367538	-0.000028
C34	C	1.269296	-0.317112	-0.000030
C35	C	1.385718	-0.297258	-0.000010
C36	C	1.387058	-0.246846	0.000033
N37	N	1.503472	-0.226989	0.000038
C38	C	1.618540	-0.257555	0.000043
C39	C	1.374807	-0.705691	-0.000021
C40	C	1.373460	-0.756114	-0.000021
C41	C	1.604950	-0.766824	-0.000010
C42	C	1.606296	-0.716400	0.000001
C43	C	1.491221	-0.685834	-0.000016
C44	C	1.621356	-0.151668	0.000072
C45	C	1.622691	-0.101243	0.000092
C46	C	1.391201	-0.090538	0.000073
C47	C	1.389865	-0.140959	0.000061
C48	C	1.504953	-0.171523	0.000056
O49	O	1.289377	-0.216177	0.000076
O50	O	1.717666	-0.236029	0.000030
C51	C	1.613157	-0.459239	0.000003
C52	C	1.496745	-0.479094	-0.000015
C53	C	1.381678	-0.448528	-0.000020
C54	C	1.495398	-0.529517	-0.000015
C55	C	1.610465	-0.560083	-0.000010
C56	C	1.726879	-0.540226	-0.000005
C57	C	1.728224	-0.489806	0.000008
C58	C	1.265264	-0.468384	-0.000025
C59	C	1.263928	-0.518805	-0.000037
C60	C	1.378995	-0.549371	-0.000032
C61	C	1.730203	0.068594	0.000051
C62	C	1.871089	0.070034	0.000047
C63	C	1.487075	0.159656	0.000006
C64	C	1.488527	0.213320	-0.000016
N65	N	1.498044	0.071324	0.351092
N66	N	1.498117	0.071316	-0.351009
C67	C	1.392710	0.110527	0.586104
C68	C	1.392933	0.110674	0.414213
C69	C	1.630269	0.082796	0.413432
C70	C	1.629691	0.083074	0.585377
C71	C	1.472476	0.020519	0.585655
C72	C	1.469417	0.020848	0.413701
H73	H	0.916355	-0.003786	0.101650
H74	H	1.133232	-0.001590	-0.101092
N75	N	0.907285	-0.009087	-0.125355
N76	N	0.856743	-0.047357	-0.107480
H77	H	0.830780	-0.066087	-0.196449
N78	N	1.268991	0.102000	0.638072
N79	N	1.245991	0.102321	0.774096
H80	H	1.158614	0.096297	0.810814
H81	H	1.408750	0.148000	0.629283
H82	H	1.169116	-0.534965	-0.000040
H83	H	1.710523	0.055665	0.626974
H84	H	1.541272	-0.009733	0.370740
N85	N	1.568908	-0.016092	0.636705
N86	N	1.583763	-0.023624	0.772616
H87	H	1.651870	-0.049477	0.808680
N88	N	0.853891	0.146391	0.140790
N89	N	0.876207	0.174629	0.243193
H90	H	0.832867	0.209002	0.244047
N91	N	0.881495	0.072657	-0.273038
N92	N	0.965669	0.057397	-0.364504
H93	H	0.941436	0.040469	-0.457795
H94	H	1.281093	-0.680808	-0.000035
N95	N	1.413264	0.157960	0.362587
N96	N	1.427346	0.190955	0.453547
H97	H	1.441684	0.224356	0.417089
N98	N	1.659485	0.128766	0.359387
N99	N	1.586598	0.166340	0.387733
H100	H	1.607222	0.198809	0.349566
H101	H	0.884446	0.080337	0.246350
N102	N	0.853548	0.145088	-0.148989
N103	N	0.918303	0.180156	-0.154517
H104	H	0.874331	0.214383	-0.160200
H105	H	1.134071	-0.001446	0.101034
N106	N	1.114594	0.074515	0.272148
N107	N	1.197911	0.038899	0.261340
H108	H	1.234916	0.022160	0.353666
H109	H	1.084735	0.137377	0.149907
H110	H	1.175585	-0.292227	-0.000046
N111	N	1.088177	0.147944	-0.147431
N112	N	1.153347	0.164753	-0.048135
H113	H	1.171636	0.199702	-0.052779
N114	N	1.741630	-0.080972	0.000124
N115	N	1.844357	-0.108272	0.000128
H116	H	1.928356	-0.093958	0.000150
H117	H	1.715071	-0.176549	0.000063
H118	H	1.652436	0.120134	0.625452
H119	H	1.173136	-0.383693	-0.000054
H120	H	1.378213	0.009599	0.629103
N121	N	1.851194	-0.318276	0.000063
N122	N	1.953914	-0.345581	0.000061
H123	H	2.037919	-0.331270	0.000066
H124	H	1.824622	-0.413847	0.000033
N125	N	1.116744	0.075940	-0.272343
N126	N	1.201773	0.040860	-0.262673
H127	H	1.240251	0.024958	-0.355537
N128	N	1.730948	0.047944	0.362137
N129	N	1.706313	0.014181	0.278861
H130	H	1.777415	-0.010435	0.242631
N131	N	1.722479	-0.798058	0.000007
N132	N	1.721244	-0.843077	0.000008
H133	H	1.804243	-0.865139	0.000014
N134	N	1.347400	0.009933	0.362622
N135	N	1.261580	0.003555	0.453900
H136	H	1.175403	-0.004152	0.417822
H137	H	1.701097	-0.700239	0.000016
H138	H	1.278658	-0.772274	-0.000012
H139	H	1.295065	-0.157124	0.000086
H140	H	1.297516	-0.065642	0.000074
H141	H	1.823027	-0.473646	0.000024
N142	N	1.844407	-0.571461	0.000016
N143	N	1.843171	-0.616479	0.000010
H144	H	1.926170	-0.638542	0.000020
N145	N	1.147707	-0.437173	-0.000034
N146	N	1.043783	-0.454914	-0.000041
H147	H	0.960749	-0.432873	-0.000041
N148	N	1.269597	0.102028	0.361304
N149	N	1.248658	0.100662	0.224998
H150	H	1.161545	0.094558	0.187634
