data_functionalizedCrystal
_audit_creation_method	'MofGen! by Chris Wilmer'
_symmetry_space_group_name_H-M	'P1'
_symmetry_Int_Tables_number	1
_symmetry_cell_setting	triclinic
loop_
_symmetry_equiv_pos_as_xyz
  x,y,z
_cell_length_a	14.853558
_cell_length_b	13.596369
_cell_length_c	14.853567
_cell_angle_alpha	90.002036
_cell_angle_beta	96.366968
_cell_angle_gamma	89.994689
loop_
_atom_site_label
_atom_site_type_symbol
_atom_site_fract_x
_atom_site_fract_y
_atom_site_fract_z
O1	O	1.196372	-0.081771	-0.117666
O2	O	0.933911	-0.081774	-0.131696
O3	O	1.072152	-0.081776	0.006549
O4	O	1.058130	-0.081770	-0.255911
O5	O	1.072137	0.081807	0.006556
O6	O	0.933896	0.081808	-0.131689
O7	O	1.196356	0.081812	-0.117659
Zn8	Zn	1.065124	0.107783	-0.124673
Zn9	Zn	1.065144	-0.107745	-0.124682
O10	O	1.058115	0.081813	-0.255904
C11	C	0.900314	0.000016	-0.131058
C12	C	0.800230	0.000015	-0.129158
C13	C	0.753218	-0.089158	-0.128270
C14	C	0.753200	0.089186	-0.128252
C15	C	0.659167	0.089188	-0.126461
C16	C	0.612155	0.000015	-0.125574
C17	C	0.659176	-0.089159	-0.126477
C18	C	0.612139	0.178361	-0.125549
C19	C	0.518100	0.178366	-0.123758
C20	C	0.471085	0.089192	-0.122877
C21	C	0.518113	0.000014	-0.123781
C22	C	0.471101	-0.089159	-0.122893
C23	C	0.518126	-0.178338	-0.123803
C24	C	0.612162	-0.178333	-0.125596
C25	C	0.377049	0.089187	-0.121084
C26	C	0.377059	-0.089160	-0.121100
N27	N	1.065117	0.254874	-0.124666
C28	C	1.065136	0.656165	-0.124685
C29	C	1.065128	0.544514	-0.124683
C30	C	1.065127	0.455523	-0.124676
C31	C	1.065118	0.343865	-0.124673
C32	C	1.229953	0.000019	-0.118296
C33	C	1.330037	0.000014	-0.120197
C34	C	1.071509	0.000013	0.040141
C35	C	1.069605	0.000004	0.140225
N36	N	1.065149	0.745163	-0.124685
C37	C	1.058758	0.000022	-0.289496
C38	C	1.060662	0.000024	-0.389580
C39	C	0.979439	0.000022	0.552756
C40	C	1.143673	0.000024	0.574042
C41	C	1.145463	0.000018	0.480009
C42	C	1.064240	0.000016	0.422344
C43	C	0.981227	0.000019	0.458713
C44	C	1.228474	0.000025	0.443632
C45	C	1.230268	0.000020	0.349593
C46	C	1.149044	0.000011	0.291927
C47	C	1.066027	0.000013	0.328301
C48	C	0.984805	0.000011	0.270637
C49	C	0.901787	0.000006	0.307009
C50	C	0.900003	0.000010	0.401047
C51	C	1.150828	0.000007	0.197890
C52	C	0.986592	0.000008	0.176594
H53	H	0.338787	-0.161776	-0.120382
H54	H	1.297865	0.000023	0.319987
F55	F	0.891090	0.000008	0.591466
H56	H	0.650458	-0.250938	-0.126335
F57	F	0.468060	0.273276	-0.122798
H58	H	0.791510	-0.161765	-0.129015
F59	F	1.314911	0.000046	0.505006
H60	H	0.479837	-0.250942	-0.123076
F61	F	0.662176	0.273257	-0.126495
F62	F	0.900141	-0.000002	0.115230
F63	F	0.327007	0.184091	-0.120103
H64	H	1.209801	0.000034	0.620998
F65	F	0.803236	0.184084	-0.129194
H66	H	0.835656	0.000011	0.260047
F67	F	0.811658	0.000001	0.439764
F68	F	1.239175	0.000028	0.159183
