data_functionalizedCrystal
_audit_creation_method	'MofGen! by Chris Wilmer'
_symmetry_space_group_name_H-M	'P1'
_symmetry_Int_Tables_number	1
_symmetry_cell_setting	triclinic
loop_
_symmetry_equiv_pos_as_xyz
  x,y,z
_cell_length_a	10.908891
_cell_length_b	10.967829
_cell_length_c	10.065875
_cell_angle_alpha	86.921207
_cell_angle_beta	96.556815
_cell_angle_gamma	107.315712
loop_
_atom_site_label
_atom_site_type_symbol
_atom_site_fract_x
_atom_site_fract_y
_atom_site_fract_z
O1	O	-1.712845	-0.205151	-0.065233
O2	O	-1.212845	0.294849	0.434767
O3	O	-1.343422	-0.112161	-0.087108
O4	O	-0.843422	0.387839	0.412892
O5	O	-1.529977	-0.334022	-0.034921
O6	O	-1.029977	0.165978	0.465079
O7	O	-1.526290	0.016711	-0.117420
O8	O	-1.026290	0.516711	0.382580
O9	O	-1.494410	-0.291577	0.182083
O10	O	-0.994410	0.208423	0.682083
O11	O	-1.307855	-0.069715	0.129897
O12	O	-0.807855	0.430285	0.629897
O13	O	-1.677278	-0.162705	0.151771
O14	O	-1.177278	0.337295	0.651771
Zn15	Zn	-1.486919	-0.109471	0.175288
Zn16	Zn	-0.986919	0.390529	0.675288
Zn17	Zn	-1.533780	-0.165395	-0.110625
Zn18	Zn	-1.033780	0.334605	0.389375
O19	O	-1.490723	0.059157	0.099585
O20	O	-0.990723	0.559157	0.599585
C21	C	-1.278212	-0.082247	0.019350
C22	C	-0.778212	0.417753	0.519350
C23	C	-1.136896	-0.056367	0.013262
C24	C	-0.636896	0.443633	0.513262
C25	C	-1.083377	-0.150797	0.035473
C26	C	-0.583377	0.349203	0.535473
C27	C	-0.937319	-0.124050	0.029181
C28	C	-0.437319	0.375950	0.529181
C29	C	-1.509238	-0.356996	0.083974
C30	C	-1.009238	0.143004	0.583974
C31	C	-1.500416	-0.488686	0.114941
C32	C	-1.000416	0.011314	0.614941
C33	C	-1.514908	-0.569380	0.016331
C34	C	-1.014908	-0.069380	0.516331
C35	C	-1.505791	-0.705488	0.048335
C36	C	-1.005791	-0.205488	0.548335
C37	C	-0.742488	-0.192617	0.045312
C38	C	-0.242488	0.307383	0.545312
C39	C	-0.883804	-0.218494	0.051396
C40	C	-0.383804	0.281506	0.551396
C41	C	-1.511462	0.082130	-0.019314
C42	C	-1.011462	0.582130	0.480686
C43	C	-1.520285	0.213818	-0.050289
C44	C	-1.020285	0.713818	0.449711
N45	N	-1.454947	-0.071306	0.370417
N46	N	-0.954947	0.428694	0.870417
N47	N	-1.565762	-0.203571	-0.305751
N48	N	-1.065762	0.296429	0.194249
C49	C	-1.522648	-0.152122	0.457205
C50	C	-1.022648	0.347878	0.957205
C51	C	-1.498052	-0.122743	0.607462
C52	C	-0.998052	0.377257	1.107462
H53	H	-0.946111	-0.319149	0.075062
H54	H	-0.446111	0.180851	0.575062
H55	H	-0.875013	-0.023398	0.005500
H56	H	-0.375013	0.476602	0.505500
H57	H	-1.486625	-0.737160	0.156458
H58	H	-0.986625	-0.237160	0.656458
Br59	Br	-1.327977	0.080265	0.431966
Br60	Br	-0.827977	0.580265	0.931966
H61	H	-1.534060	-0.537698	-0.091786
H62	H	-1.034060	-0.037698	0.408214
H63	H	-1.074585	0.044278	-0.010418
H64	H	-0.574585	0.544278	0.489582
Br65	Br	-1.693040	-0.354937	0.632662
Br66	Br	-1.193040	0.145063	1.132662
H67	H	-1.539428	-0.754505	-0.158415
H68	H	-1.039428	-0.254505	0.341585
Br69	Br	-1.468471	-0.541469	0.295149
Br70	Br	-0.968471	-0.041469	0.795149
Br71	Br	-1.649272	-0.303935	0.395713
Br72	Br	-1.149272	0.196065	0.895713
Br73	Br	-1.371076	0.028834	0.669004
Br74	Br	-0.871076	0.528834	1.169004
H75	H	-1.145689	-0.251444	0.059141
H76	H	-0.645689	0.248556	0.559141
