data_functionalizedCrystal
_audit_creation_method	'MofGen! by Chris Wilmer'
_symmetry_space_group_name_H-M	'P1'
_symmetry_Int_Tables_number	1
_symmetry_cell_setting	triclinic
loop_
_symmetry_equiv_pos_as_xyz
  x,y,z
_cell_length_a	16.120297
_cell_length_b	16.625548
_cell_length_c	16.625546
_cell_angle_alpha	90.022327
_cell_angle_beta	87.129618
_cell_angle_gamma	87.123486
loop_
_atom_site_label
_atom_site_type_symbol
_atom_site_fract_x
_atom_site_fract_y
_atom_site_fract_z
Zn1	Zn	-0.471412	-1.209555	0.344143
Zn2	Zn	0.028588	-0.709555	0.844143
Zn3	Zn	-0.331998	-1.216298	0.472143
Zn4	Zn	0.168002	-0.716298	0.972143
Zn5	Zn	-0.332012	-1.081555	0.337329
Zn6	Zn	0.167988	-0.581555	0.837329
Zn7	Zn	-0.471359	-1.074690	0.478935
Zn8	Zn	0.028641	-0.574690	0.978935
O9	O	-0.401695	-1.145525	0.408137
O10	O	0.098305	-0.645525	0.908137
O11	O	-0.452935	-1.323281	0.361133
O12	O	0.047065	-0.823281	0.861133
O13	O	-0.215337	-1.204118	0.448565
O14	O	0.284663	-0.704118	0.948565
O15	O	-0.350532	-1.098586	0.225402
O16	O	0.149468	-0.598586	0.725402
O17	O	-0.350508	-1.328235	0.455173
O18	O	0.149492	-0.828235	0.955173
O19	O	-0.452949	-1.192627	0.230408
O20	O	0.047051	-0.692627	0.730408
O21	O	-0.215348	-1.105124	0.349518
O22	O	0.284652	-0.605124	0.849518
O23	O	-0.350480	-0.967813	0.356103
O24	O	0.149520	-0.467813	0.856103
O25	O	-0.588028	-1.086886	0.466749
O26	O	-0.088028	-0.586886	0.966749
O27	O	-0.452857	-0.962769	0.460141
O28	O	0.047143	-0.462769	0.960141
O29	O	-0.588068	-1.185971	0.367718
O30	O	-0.088068	-0.685971	0.867718
O31	O	-0.350456	-1.197462	0.585875
O32	O	0.149544	-0.697462	1.085875
O33	O	-0.452843	-1.093423	0.590865
O34	O	0.047157	-0.593423	1.090865
C35	C	-0.401665	-0.936035	0.408120
C36	C	0.098335	-0.436035	0.908120
C37	C	-0.401672	-0.846414	0.408133
C38	C	0.098328	-0.346414	0.908133
C39	C	-0.401697	-0.518237	0.408133
C40	C	0.098303	-0.018237	0.908133
C41	C	-0.401688	-0.609546	0.408130
C42	C	0.098312	-0.109546	0.908130
C43	C	-0.401684	-0.682323	0.408133
C44	C	0.098316	-0.182323	0.908133
C45	C	-0.401676	-0.773637	0.408130
C46	C	0.098324	-0.273637	0.908130
C47	C	-0.619143	-1.134910	0.418751
C48	C	-0.119143	-0.634910	0.918751
C49	C	-0.711806	-1.130387	0.423274
C50	C	-0.211806	-0.630387	0.923274
C51	C	-0.881463	-1.122099	0.431514
C52	C	-0.381463	-0.622099	0.931514
C53	C	-0.922779	-1.169109	0.384519
C54	C	-0.422779	-0.669109	0.884519
C55	C	-1.017182	-1.164498	0.389104
C56	C	-0.517182	-0.664498	0.889104
C57	C	-0.787052	-1.126710	0.426930
C58	C	-0.287052	-0.626710	0.926930
C59	C	-0.185093	-1.156144	0.397507
C60	C	0.314907	-0.656144	0.897507
C61	C	-0.092431	-1.160824	0.392757
C62	C	0.407569	-0.660824	0.892757
C63	C	-0.401660	-1.145450	0.617627
C64	C	0.098340	-0.645450	1.117627
C65	C	-0.401673	-1.145491	0.707248
C66	C	0.098327	-0.645491	1.207248
C67	C	-0.401718	-0.355832	0.408150
C68	C	0.098282	0.144168	0.908150
C69	C	-0.401707	-0.445454	0.408141
C70	C	0.098293	0.054546	0.908141
C71	C	-0.401748	-1.145621	0.197831
C72	C	0.098252	-0.645621	0.697831
C73	C	-0.401771	-1.145662	0.108211
C74	C	0.098229	-0.645662	0.608211
C75	C	-0.401760	-1.145627	1.035428
C76	C	0.098240	-0.645627	1.535428
C77	C	-0.401738	-1.145586	0.944119
C78	C	0.098262	-0.645586	1.444119
C79	C	-0.401716	-1.145558	0.871341
C80	C	0.098284	-0.645558	1.371341
C81	C	-0.401695	-1.145519	0.780026
C82	C	0.098305	-0.645519	1.280026
H83	H	-0.887252	-1.212818	0.340842
H84	H	-0.387252	-0.712818	0.840842
O85	O	-0.923968	-1.070030	0.483602
O86	O	-0.423968	-0.570030	0.983602
C87	C	-1.010126	-1.076957	0.476630
C88	C	-0.510126	-0.576957	0.976630
H89	H	-1.021931	-1.138628	0.450782
H90	H	-0.521931	-0.638628	0.950782
H91	H	-1.034832	-1.027965	0.434868
H92	H	-0.534832	-0.527965	0.934868
C93	C	-1.040424	-0.991653	0.592089
C94	C	-0.540424	-0.491653	1.092089
C95	C	-1.054923	-1.067400	0.560349
C96	C	-0.554923	-0.567400	1.060349
H97	H	-1.068058	-0.985754	0.643730
H98	H	-0.568058	-0.485754	1.143730
H99	H	-0.982377	-0.986982	0.596786
H100	H	-0.482377	-0.486982	1.096786
H101	H	-1.061012	-0.950835	0.557280
H102	H	-0.561012	-0.450835	1.057280
H103	H	-1.034325	-1.108217	0.595153
H104	H	-0.534325	-0.608217	1.095153
H105	H	-1.112967	-1.072077	0.555661
H106	H	-0.612967	-0.572077	1.055661
