data_functionalizedCrystal
_audit_creation_method	'MofGen! by Chris Wilmer'
_symmetry_space_group_name_H-M	'P1'
_symmetry_Int_Tables_number	1
_symmetry_cell_setting	triclinic
loop_
_symmetry_equiv_pos_as_xyz
  x,y,z
_cell_length_a	19.805405
_cell_length_b	15.298206
_cell_length_c	19.805407
_cell_angle_alpha	80.314144
_cell_angle_beta	90.015038
_cell_angle_gamma	80.365393
loop_
_atom_site_label
_atom_site_type_symbol
_atom_site_fract_x
_atom_site_fract_y
_atom_site_fract_z
Zn1	Zn	-0.448358	1.378904	0.203299
Zn2	Zn	0.051642	1.878904	0.703299
Zn3	Zn	-0.561507	1.378818	0.090119
Zn4	Zn	-0.061507	1.878818	0.590119
Zn5	Zn	-0.428794	1.228089	0.109746
Zn6	Zn	0.071206	1.728089	0.609746
Zn7	Zn	-0.541946	1.228013	0.222887
Zn8	Zn	-0.041946	1.728013	0.722887
O9	O	-0.495151	1.303456	0.156513
O10	O	0.004849	1.803456	0.656513
O11	O	-0.479741	1.505122	0.171873
O12	O	0.020259	2.005122	0.671873
O13	O	-0.543901	1.358819	-0.001994
O14	O	-0.043901	1.858819	0.498006
O15	O	-0.336682	1.248163	0.122173
O16	O	0.163318	1.748163	0.622173
O17	O	-0.562871	1.505058	0.088720
O18	O	-0.062871	2.005058	0.588720
O19	O	-0.351055	1.358966	0.190906
O20	O	0.148945	1.858966	0.690906
O21	O	-0.446398	1.248079	0.012427
O22	O	0.053602	1.748079	0.512427
O23	O	-0.427431	1.101850	0.141167
O24	O	0.072569	1.601850	0.641167
O25	O	-0.529533	1.248033	0.315004
O26	O	-0.029533	1.748033	0.815004
O27	O	-0.510563	1.101794	0.224290
O28	O	-0.010563	1.601794	0.724290
O29	O	-0.460774	1.358892	0.300613
O30	O	0.039226	1.858892	0.800613
O31	O	-0.653620	1.358745	0.107714
O32	O	-0.153620	1.858745	0.607714
O33	O	-0.639249	1.247950	0.205258
O34	O	-0.139249	1.747950	0.705258
C35	C	-0.464752	1.069092	0.186984
C36	C	0.035248	1.569092	0.686984
C37	C	-0.451763	0.968830	0.200036
C38	C	0.048237	1.468830	0.700036
C39	C	-0.402446	0.921766	0.249532
C40	C	0.097554	1.421766	0.749532
C41	C	-0.390236	0.827565	0.261797
C42	C	0.109764	1.327565	0.761797
C43	C	-0.427345	0.780419	0.224571
C44	C	0.072655	1.280419	0.724571
C45	C	-0.476666	0.827482	0.175077
C46	C	0.023334	1.327482	0.675077
C47	C	-0.488874	0.921693	0.162807
C48	C	0.011126	1.421693	0.662807
C49	C	-0.513773	0.780345	0.137846
C50	C	-0.013773	1.280345	0.637846
C51	C	-0.563094	0.827408	0.088352
C52	C	-0.063094	1.327408	0.588352
C53	C	-0.575299	0.921609	0.076085
C54	C	-0.075299	1.421609	0.576085
C55	C	-0.538190	0.968756	0.113312
C56	C	-0.038190	1.468756	0.613312
C57	C	-0.501565	0.686134	0.150115
C58	C	-0.001565	1.186134	0.650115
C59	C	-0.587992	0.686061	0.063391
C60	C	-0.087992	1.186061	0.563391
C61	C	-0.600203	0.780262	0.051126
C62	C	-0.100203	1.280262	0.551126
C63	C	-0.670994	1.303354	0.156493
C64	C	-0.170994	1.803354	0.656493
C65	C	-0.746231	1.303394	0.156497
C66	C	-0.246231	1.803394	0.656497
C67	C	-0.789043	1.361141	0.105743
C68	C	-0.289043	1.861141	0.605743
C69	C	-0.859737	1.361179	0.105753
C70	C	-0.359737	1.861179	0.605753
C71	C	-0.887616	1.303465	0.156514
C72	C	-0.387616	1.803465	0.656514
C73	C	-0.844799	1.245715	0.207273
C74	C	-0.344799	1.745715	0.707273
C75	C	-0.774108	1.245682	0.207265
C76	C	-0.274108	1.745682	0.707265
C77	C	-1.129889	1.245848	0.207306
C78	C	-0.629889	1.745848	0.707306
C79	C	-1.200586	1.245884	0.207308
C80	C	-0.700586	1.745884	0.707308
C81	C	-1.215519	1.361345	0.105794
C82	C	-0.715519	1.861345	0.605794
C83	C	-1.144827	1.361312	0.105786
C84	C	-0.644827	1.861312	0.605786
C85	C	-1.102017	1.303566	0.156546
C86	C	-0.602017	1.803566	0.656546
C87	C	-1.025363	1.303526	0.156536
C88	C	-0.525363	1.803526	0.656536
C89	C	-0.964268	1.303499	0.156523
C90	C	-0.464268	1.803499	0.656523
C91	C	-0.318625	1.303582	0.156544
C92	C	0.181375	1.803582	0.656544
C93	C	-0.243400	1.303636	0.156557
C94	C	0.256600	1.803636	0.656557
C95	C	-0.495154	1.303464	0.333054
C96	C	0.004846	1.803464	0.833054
C97	C	-0.495155	1.303467	0.408286
C98	C	0.004845	1.803467	0.908286
C99	C	-0.525670	1.538735	0.125922
C100	C	-0.025670	2.038735	0.625922
C101	C	-0.538676	1.638997	0.112887
C102	C	-0.038676	2.138997	0.612887
C103	C	-0.459358	1.361185	0.436139
C104	C	0.040642	1.861185	0.936139
C105	C	-0.459355	1.361177	0.506828
C106	C	0.040645	1.861177	1.006828
C107	C	-0.495153	1.303456	0.549663
C108	C	0.004847	1.803456	1.049663
C109	C	-0.530951	1.245732	0.521806
C110	C	-0.030951	1.745732	1.021806
C111	C	-0.530950	1.245736	0.451118
C112	C	-0.030950	1.745736	0.951118
C113	C	-0.530957	1.245714	0.806882
C114	C	-0.030957	1.745714	1.306882
C115	C	-0.530957	1.245717	0.877574
C116	C	-0.030957	1.745717	1.377574
C117	C	-0.459362	1.361155	0.862591
C118	C	0.040638	1.861155	1.362591
C119	C	-0.459360	1.361159	0.791904
C120	C	0.040640	1.861159	1.291904
C121	C	-0.495155	1.303433	0.764053
C122	C	0.004845	1.803433	1.264053
C123	C	-0.495157	1.303440	0.687404
C124	C	0.004843	1.803440	1.187404
C125	C	-0.495156	1.303452	0.626311
C126	C	0.004844	1.803452	1.126311
C127	C	-0.495162	1.303439	0.980659
C128	C	0.004838	1.803439	1.480659
C129	C	-0.495156	1.303430	0.905428
C130	C	0.004844	1.803430	1.405428
H131	H	-0.618210	0.647674	0.033078
H132	H	-0.118210	1.147674	0.533078
H133	H	-0.372234	0.960162	0.279833
H134	H	0.127766	1.460162	0.779833
H135	H	-0.867504	1.198727	0.248606
H136	H	-0.367504	1.698727	0.748606
C137	C	-0.758383	1.424630	0.049900
C138	C	-0.258383	1.924630	0.549900
N139	N	-0.735292	1.472454	0.007838
N140	N	-0.235292	1.972454	0.507838
C141	C	-1.262617	1.424872	0.049959
C142	C	-0.762617	1.924872	0.549959
N143	N	-1.298091	1.472717	0.007904
N144	N	-0.798091	1.972717	0.507904
H145	H	-0.461406	0.647824	0.190412
H146	H	0.038594	1.147824	0.690412
H147	H	-1.095038	1.198827	0.248635
H148	H	-0.595038	1.698827	0.748635
H149	H	-0.894592	1.408202	0.064425
H150	H	-0.394592	1.908202	0.564425
C151	C	-1.231252	1.182395	0.263155
C152	C	-0.731252	1.682395	0.763155
N153	N	-1.254349	1.134578	0.305217
N154	N	-0.754349	1.634578	0.805217
C155	C	-0.629548	0.973377	0.021635
C156	C	-0.129548	1.473377	0.521635
N157	N	-0.670409	1.012367	-0.019376
N158	N	-0.170409	1.512367	0.480624
H159	H	-0.430207	1.408178	0.529502
H160	H	0.069793	1.908178	1.029502
C161	C	-0.654449	0.832044	-0.003322
C162	C	-0.154449	1.332044	0.496678
N163	N	-0.695305	0.871047	-0.044333
N164	N	-0.195305	1.371047	0.455667
C165	C	-0.727014	1.182156	0.263098
C166	C	-0.227014	1.682156	0.763098
N167	N	-0.691544	1.134308	0.305154
N168	N	-0.191544	1.634308	0.805154
H169	H	-0.430209	1.408191	0.401266
H170	H	0.069791	1.908191	0.901266
H171	H	-0.430212	1.408164	0.757030
H172	H	0.069788	1.908164	1.257030
H173	H	-0.430213	1.408156	0.885275
H174	H	0.069787	1.908156	1.385275
C175	C	-0.570335	1.182210	0.924692
C176	C	-0.070335	1.682210	1.424692
N177	N	-0.599992	1.134379	0.960182
N178	N	-0.099992	1.634379	1.460182
C179	C	-1.114163	1.424794	0.049940
C180	C	-0.614163	1.924794	0.549940
N181	N	-1.091068	1.472610	0.007876
N182	N	-0.591068	1.972610	0.507876
H183	H	-0.560115	1.198723	0.784213
H184	H	-0.060115	1.698723	1.284213
H185	H	-0.560092	1.198728	0.428444
H186	H	-0.060092	1.698728	0.928444
C187	C	-0.413916	0.676794	0.238068
C188	C	0.086084	1.176794	0.738068
N189	N	-0.403802	0.598741	0.248239
N190	N	0.096198	1.098741	0.748239
C191	C	-0.335987	0.775802	0.316241
C192	C	0.164013	1.275802	0.816241
N193	N	-0.295125	0.736814	0.357252
N194	N	0.204875	1.236814	0.857252
C195	C	-0.551615	1.072384	0.099819
C196	C	-0.051615	1.572384	0.599819
N197	N	-0.561722	1.150437	0.089655
N198	N	-0.061722	1.650437	0.589655
H199	H	-0.560096	1.198732	0.556689
H200	H	-0.060096	1.698732	1.056689
