data_functionalizedCrystal
_audit_creation_method	'MofGen! by Chris Wilmer'
_symmetry_space_group_name_H-M	'P1'
_symmetry_Int_Tables_number	1
_symmetry_cell_setting	triclinic
loop_
_symmetry_equiv_pos_as_xyz
  x,y,z
_cell_length_a	16.625546
_cell_length_b	13.897449
_cell_length_c	13.897441
_cell_angle_alpha	89.979267
_cell_angle_beta	90.033447
_cell_angle_gamma	89.976252
loop_
_atom_site_label
_atom_site_type_symbol
_atom_site_fract_x
_atom_site_fract_y
_atom_site_fract_z
Zn1	Zn	-0.320948	-1.474671	0.545362
Zn2	Zn	-0.455799	-1.474551	0.384055
Zn3	Zn	-0.320987	-1.313360	0.384080
Zn4	Zn	-0.455746	-1.313328	0.545308
O5	O	-0.388370	-1.393977	0.464702
O6	O	-0.338843	-1.609636	0.523977
O7	O	-0.437954	-1.453132	0.249077
O8	O	-0.208149	-1.334821	0.405508
O9	O	-0.437917	-1.609549	0.405465
O10	O	-0.208121	-1.453336	0.524001
O11	O	-0.338908	-1.334705	0.249095
O12	O	-0.338857	-1.178374	0.405455
O13	O	-0.437826	-1.334767	0.680297
O14	O	-0.437864	-1.178351	0.523909
O15	O	-0.338791	-1.453305	0.680337
O16	O	-0.568624	-1.453101	0.405413
O17	O	-0.568585	-1.334651	0.523884
C18	C	-0.388359	-1.143363	0.464680
C19	C	-0.388374	-1.036149	0.464693
C20	C	-0.597861	-1.393886	0.464661
C21	C	-0.687482	-1.393935	0.464676
C22	C	-0.388299	-1.394046	0.716295
C23	C	-0.388268	-1.394075	0.823509
C24	C	-1.015657	-1.394104	0.464777
C25	C	-0.924349	-1.394054	0.464751
C26	C	-0.851573	-1.394019	0.464726
C27	C	-0.760258	-1.393970	0.464702
C28	C	-0.178061	-1.394095	0.464763
C29	C	-0.088440	-1.394146	0.464789
C30	C	-0.388381	-1.645570	0.464724
C31	C	-0.388386	-1.752784	0.464734
C32	C	-0.388377	-0.839854	0.464718
C33	C	-0.388373	-0.949086	0.464702
C34	C	-0.388383	-1.393965	0.214087
C35	C	-0.388186	-1.394122	0.106874
C36	C	-0.388214	-1.394101	1.019804
C37	C	-0.388246	-1.394084	0.910571
