data_functionalizedCrystal
_audit_creation_method	'MofGen! by Chris Wilmer'
_symmetry_space_group_name_H-M	'P1'
_symmetry_Int_Tables_number	1
_symmetry_cell_setting	triclinic
loop_
_symmetry_equiv_pos_as_xyz
  x,y,z
_cell_length_a	14.853566
_cell_length_b	17.038272
_cell_length_c	13.330367
_cell_angle_alpha	89.995338
_cell_angle_beta	89.995295
_cell_angle_gamma	87.372985
loop_
_atom_site_label
_atom_site_type_symbol
_atom_site_fract_x
_atom_site_fract_y
_atom_site_fract_z
O1	O	1.204051	0.102081	-0.083358
O2	O	1.704051	0.602081	0.416642
O3	O	0.942507	0.114243	-0.083375
O4	O	1.442507	0.614243	0.416625
O5	O	1.071725	-0.005655	-0.083358
O6	O	1.571725	0.494345	0.416642
O7	O	1.074834	0.221980	-0.083374
O8	O	1.574834	0.721980	0.416626
O9	O	1.071705	-0.005658	0.083489
O10	O	1.571705	0.494342	0.583489
O11	O	0.942487	0.114241	0.083473
O12	O	1.442487	0.614241	0.583473
O13	O	1.204031	0.102079	0.083489
O14	O	1.704031	0.602079	0.583489
Cu15	Cu	1.073257	0.108159	0.098715
Cu16	Cu	1.573257	0.608159	0.598715
Cu17	Cu	1.073281	0.108162	-0.098601
Cu18	Cu	1.573281	0.608162	0.401399
O19	O	1.074813	0.221977	0.083473
O20	O	1.574813	0.721977	0.583473
C21	C	0.908867	0.113691	0.000047
C22	C	1.408867	0.613691	0.500047
C23	C	0.808659	0.112040	0.000041
C24	C	1.308659	0.612040	0.500041
C25	C	0.384959	0.105059	-0.090890
C26	C	0.884959	0.605059	0.409110
C27	C	0.384959	0.105057	0.091014
C28	C	0.884959	0.605057	0.591014
C29	C	0.479109	0.106607	0.091011
C30	C	0.979109	0.606607	0.591011
C31	C	0.526189	0.107385	0.000056
C32	C	1.026189	0.607385	0.500056
C33	C	0.479119	0.106612	-0.090896
C34	C	0.979119	0.606612	0.409104
C35	C	0.526187	0.107388	0.181960
C36	C	1.026187	0.607388	0.681960
C37	C	0.620343	0.108939	0.181961
C38	C	1.120343	0.608939	0.681961
C39	C	0.667425	0.109711	0.091005
C40	C	1.167425	0.609711	0.591005
C41	C	0.620349	0.108937	0.000050
C42	C	1.120349	0.608937	0.500050
C43	C	0.667429	0.109715	-0.090905
C44	C	1.167429	0.609715	0.409095
C45	C	0.620354	0.108936	-0.181861
C46	C	1.120354	0.608936	0.318139
C47	C	0.526201	0.107384	-0.181851
C48	C	1.026201	0.607384	0.318149
C49	C	0.761579	0.111263	0.090995
C50	C	1.261579	0.611263	0.590995
C51	C	0.761588	0.111268	-0.090911
C52	C	1.261588	0.611268	0.409089
C53	C	1.068887	-0.034788	0.000065
C54	C	1.568887	0.465212	0.500065
C55	C	1.060451	-0.121592	0.000064
C56	C	1.560451	0.378408	0.500064
C57	C	1.137904	-0.171605	0.000070
C58	C	1.637904	0.328395	0.500070
C59	C	1.129972	-0.253166	0.000060
C60	C	1.629972	0.246834	0.500060
C61	C	1.044586	-0.284713	0.000051
C62	C	1.544586	0.215287	0.500051
C63	C	0.967127	-0.234694	0.000042
C64	C	1.467127	0.265306	0.500042
C65	C	0.975060	-0.153134	0.000045
C66	C	1.475060	0.346866	0.500045
C67	C	1.016561	-0.530507	0.000036
C68	C	1.516561	-0.030507	0.500036
C69	C	1.008634	-0.612073	0.000036
C70	C	1.508634	-0.112073	0.500036
C71	C	1.171480	-0.630540	0.000052
C72	C	1.671480	-0.130540	0.500052
C73	C	1.179405	-0.548978	0.000061
C74	C	1.679405	-0.048978	0.500061
C75	C	1.101946	-0.498966	0.000046
C76	C	1.601946	0.001034	0.500046
C77	C	1.036476	-0.368081	0.000044
C78	C	1.536476	0.131919	0.500044
C79	C	1.110057	-0.415600	0.000046
C80	C	1.610057	0.084400	0.500046
C81	C	1.237671	0.102631	0.000065
C82	C	1.737671	0.602631	0.500065
C83	C	1.337879	0.104282	0.000065
C84	C	1.837879	0.604282	0.500065
C85	C	1.077651	0.251110	0.000048
C86	C	1.577651	0.751110	0.500048
C87	C	1.086087	0.337914	0.000042
C88	C	1.586087	0.837914	0.500042
N89	N	1.073247	0.108157	0.237497
N90	N	1.573247	0.608157	0.737497
N91	N	1.073298	0.108159	-0.237382
N92	N	1.573298	0.608159	0.262618
C93	C	1.016059	0.161233	0.710113
C94	C	1.516059	0.661233	1.210113
C95	C	1.130527	0.055086	0.710095
C96	C	1.630527	0.555086	1.210095
C97	C	1.130516	0.055084	0.605077
C98	C	1.630516	0.555084	1.105077
C99	C	1.073278	0.108157	0.552571
C100	C	1.573278	0.608157	1.052571
C101	C	1.016049	0.161233	0.605084
C102	C	1.516049	0.661233	1.105084
C103	C	1.187750	0.002014	0.552556
C104	C	1.687750	0.502014	1.052556
C105	C	1.187743	0.002010	0.447531
C106	C	1.687743	0.502010	0.947531
C107	C	1.130499	0.055081	0.395024
C108	C	1.630499	0.555081	0.895024
C109	C	1.073267	0.108158	0.447543
C110	C	1.573267	0.608158	0.947543
C111	C	1.016028	0.161232	0.395038
C112	C	1.516028	0.661232	0.895038
C113	C	0.958792	0.214306	0.447556
C114	C	1.458792	0.714306	0.947556
C115	C	0.958805	0.214304	0.552577
C116	C	1.458805	0.714304	1.052577
C117	C	1.130486	0.055083	0.290002
C118	C	1.630486	0.555083	0.790002
C119	C	1.016018	0.161233	0.290010
C120	C	1.516018	0.661233	0.790010
H121	H	0.346620	0.104429	0.165065
H122	H	0.846620	0.604429	0.665065
H123	H	0.912206	0.257516	0.595344
H124	H	1.412206	0.757516	1.095344
H125	H	1.234347	-0.041206	0.404777
H126	H	1.734347	0.458794	0.904777
F127	F	1.253911	-0.683771	0.000066
F128	F	1.753911	-0.183771	0.500066
F129	F	0.897881	0.270794	0.391665
F130	F	1.397881	0.770794	0.891665
H131	H	0.487865	0.106749	-0.255903
H132	H	0.987865	0.606749	0.244097
F133	F	0.934121	-0.477291	0.000018
F134	F	1.434121	0.022709	0.500018
F135	F	0.876252	-0.268270	0.000021
F136	F	1.376252	0.231730	0.500021
H137	H	1.177091	0.011874	0.247247
H138	H	1.677091	0.511874	0.747247
F139	F	0.670471	0.109768	-0.278658
F140	F	1.170471	0.609768	0.221342
F141	F	0.892623	-0.099907	0.000036
F142	F	1.392623	0.400093	0.500036
F143	F	1.212409	-0.306390	0.000068
F144	F	1.712409	0.193610	0.500068
F145	F	1.200928	-0.382024	0.000050
F146	F	1.700928	0.117976	0.500050
H147	H	0.966955	-0.393775	0.000039
H148	H	1.466955	0.106225	0.500039
H149	H	1.248935	-0.523300	0.000068
H150	H	1.748935	-0.023300	0.500068
H151	H	0.969404	0.204449	0.247267
H152	H	1.469404	0.704449	0.747267
H153	H	0.969455	0.204443	0.752875
H154	H	1.469455	0.704443	1.252875
H155	H	0.487847	0.106760	0.256010
H156	H	0.987847	0.606760	0.756010
F157	F	1.191448	-0.001391	0.765974
F158	F	1.691448	0.498609	1.265974
F159	F	0.670435	0.109767	0.278763
F160	F	1.170435	0.609767	0.778763
H161	H	0.799914	0.111898	-0.164978
H162	H	1.299914	0.611898	0.335022
F163	F	0.811674	0.112097	0.187790
F164	F	1.311674	0.612097	0.687790
F165	F	0.334862	0.104211	-0.187687
F166	F	0.834862	0.604211	0.312313
F167	F	1.228784	-0.138039	0.000089
F168	F	1.728784	0.361961	0.500089
F169	F	1.248671	-0.054463	0.608435
F170	F	1.748671	0.445537	1.108435
F171	F	0.917750	-0.645645	0.000031
F172	F	1.417750	-0.145645	0.500031
