data_functionalizedCrystal
_audit_creation_method	'MofGen! by Chris Wilmer'
_symmetry_space_group_name_H-M	'P1'
_symmetry_Int_Tables_number	1
_symmetry_cell_setting	triclinic
loop_
_symmetry_equiv_pos_as_xyz
  x,y,z
_cell_length_a	8.597340
_cell_length_b	10.489716
_cell_length_c	7.088929
_cell_angle_alpha	83.717280
_cell_angle_beta	103.954719
_cell_angle_gamma	84.931820
loop_
_atom_site_label
_atom_site_type_symbol
_atom_site_fract_x
_atom_site_fract_y
_atom_site_fract_z
O1	O	2.103363	0.175170	0.187518
O2	O	1.638917	0.195992	0.111008
O3	O	1.881728	-0.000108	0.151001
O4	O	1.860552	0.371270	0.147526
O5	O	1.914177	-0.026374	0.474320
O6	O	1.671366	0.169726	0.434328
O7	O	2.135811	0.148904	0.510838
Cu8	Cu	1.906551	0.156916	0.502104
Cu9	Cu	1.868177	0.187979	0.119742
O10	O	1.893001	0.345004	0.470845
C11	C	1.595670	0.182086	0.262871
C12	C	1.418462	0.179768	0.233678
C13	C	1.896361	-0.060759	0.312392
C14	C	1.891598	-0.202349	0.311590
C15	C	2.040500	-0.301283	0.336137
C16	C	1.945819	-0.365029	0.163767
C17	C	1.977777	-0.390888	0.482529
C18	C	1.796967	-0.264218	0.139099
C19	C	1.828961	-0.290084	0.458008
C20	C	1.734167	-0.353776	0.285581
C21	C	2.179059	0.162810	0.358971
C22	C	2.356265	0.165129	0.388151
C23	C	1.878368	0.405655	0.309449
C24	C	1.883129	0.547245	0.310238
N25	N	1.933553	0.135068	0.771040
N26	N	1.841188	0.209817	-0.149192
H27	H	1.336132	0.190527	0.079075
Br28	Br	1.493470	0.147174	0.645828
H29	H	1.995150	-0.398107	0.039350
Br30	Br	2.256340	-0.261955	0.371442
H31	H	1.720604	-0.209422	-0.006167
Br32	Br	1.518124	-0.392663	0.249864
H33	H	1.779685	-0.256984	0.582438
H34	H	2.029298	0.057610	0.868465
Br35	Br	1.681635	0.338933	0.688451
Br36	Br	2.105131	-0.482480	0.724411
