data_functionalizedCrystal
_audit_creation_method	'MofGen! by Chris Wilmer'
_symmetry_space_group_name_H-M	'P1'
_symmetry_Int_Tables_number	1
_symmetry_cell_setting	triclinic
loop_
_symmetry_equiv_pos_as_xyz
  x,y,z
_cell_length_a	11.792241
_cell_length_b	10.540539
_cell_length_c	10.868271
_cell_angle_alpha	90.002250
_cell_angle_beta	90.005281
_cell_angle_gamma	84.359454
loop_
_atom_site_label
_atom_site_type_symbol
_atom_site_fract_x
_atom_site_fract_y
_atom_site_fract_z
O1	O	-0.159957	-1.685366	-0.102265
O2	O	0.340043	-1.185366	0.397735
O3	O	-0.175028	-1.315904	-0.102280
O4	O	0.324972	-0.815904	0.397720
O5	O	-0.002345	-1.509601	-0.102263
O6	O	0.497655	-1.009601	0.397737
O7	O	-0.332639	-1.491669	-0.102281
O8	O	0.167361	-0.991669	0.397719
O9	O	-0.002338	-1.509585	0.102381
O10	O	0.497662	-1.009585	0.602381
O11	O	-0.175021	-1.315888	0.102365
O12	O	0.324979	-0.815888	0.602365
O13	O	-0.159950	-1.685350	0.102380
O14	O	0.340050	-1.185350	0.602380
Zn15	Zn	-0.167484	-1.500616	0.134864
Zn16	Zn	0.332516	-1.000616	0.634864
Zn17	Zn	-0.167493	-1.500637	-0.134764
Zn18	Zn	0.332507	-1.000637	0.365236
O19	O	-0.332632	-1.491653	0.102363
O20	O	0.167368	-0.991653	0.602363
C21	C	-0.173894	-1.268596	0.000040
C22	C	0.326106	-0.768596	0.500040
C23	C	-0.170513	-1.127659	0.000035
C24	C	0.329487	-0.627659	0.500035
C25	C	0.039952	-1.508466	0.000058
C26	C	0.539952	-1.008466	0.500058
C27	C	0.165975	-1.505095	0.000057
C28	C	0.665975	-1.005095	0.500057
C29	C	-0.161083	-1.732657	0.000057
C30	C	0.338917	-1.232657	0.500057
C31	C	-0.164465	-1.873594	0.000054
C32	C	0.335535	-1.373594	0.500054
C33	C	-0.374930	-1.492787	0.000039
C34	C	0.125070	-0.992787	0.500039
C35	C	-0.500952	-1.496159	0.000032
C36	C	-0.000952	-0.996159	0.500032
C37	C	0.396703	-1.498896	0.000036
C38	C	0.896703	-0.998896	0.500036
C39	C	0.268309	-1.502340	0.000048
C40	C	0.768309	-1.002340	0.500048
N41	N	-0.167477	-1.500611	0.318878
N42	N	0.332523	-1.000611	0.818878
C43	C	-0.040941	-0.944655	0.000520
C44	C	0.459059	-0.444655	0.500520
C45	C	-0.044369	-1.091262	0.000045
C46	C	0.455631	-0.591262	0.500045
C47	C	-0.231222	-1.065798	-0.116826
C48	C	0.268778	-0.565798	0.383174
C49	C	-0.226917	-0.919268	-0.116911
C50	C	0.273083	-0.419268	0.383089
C51	C	-0.229475	-0.918753	0.115808
C52	C	0.270525	-0.418753	0.615808
C53	C	-0.230637	-1.065731	0.117340
C54	C	0.269363	-0.565731	0.617340
N55	N	-0.167491	-1.500653	-0.318778
N56	N	0.332509	-1.000653	0.181222
C57	C	-0.167491	-1.500631	0.569884
C58	C	0.332509	-1.000631	1.069884
C59	C	-0.167487	-1.500616	0.430207
C60	C	0.332513	-1.000616	0.930207
H61	H	0.008895	-0.916225	0.084328
H62	H	0.508895	-0.416225	0.584328
H63	H	-0.322604	-1.089657	0.124391
H64	H	0.177396	-0.589657	0.624391
C65	C	0.026104	-0.904081	-0.112050
C66	C	0.526104	-0.404081	0.387950
H67	H	0.100635	-0.947451	-0.111060
H68	H	0.600635	-0.447451	0.388940
H69	H	-0.011959	-0.925051	-0.185234
H70	H	0.488041	-0.425051	0.314766
H71	H	0.031011	-0.814703	-0.109291
H72	H	0.531011	-0.314703	0.390709
H73	H	-0.317637	-0.871004	-0.122220
H74	H	0.182363	-0.371004	0.377780
H75	H	0.003730	-1.133170	-0.083865
H76	H	0.503730	-0.633170	0.416135
H77	H	-0.320588	-0.871229	0.116593
H78	H	0.179412	-0.371229	0.616593
C79	C	-0.166307	-0.881351	-0.234904
C80	C	0.333693	-0.381351	0.265096
H81	H	-0.163152	-0.791642	-0.236000
H82	H	0.336848	-0.291642	0.264000
H83	H	-0.091129	-0.922978	-0.236722
H84	H	0.408871	-0.422978	0.263278
H85	H	-0.207267	-0.906030	-0.304793
H86	H	0.292733	-0.406030	0.195207
C87	C	-0.356362	-1.095593	-0.122721
C88	C	0.143638	-0.595593	0.377279
H89	H	-0.372733	-1.146150	-0.053804
H90	H	0.127267	-0.646150	0.446196
H91	H	-0.404947	-1.018176	-0.121636
H92	H	0.095053	-0.518176	0.378364
H93	H	-0.368601	-1.140862	-0.196360
H94	H	0.131399	-0.640862	0.303640
H95	H	-0.189055	-1.108531	-0.203792
H96	H	0.310945	-0.608531	0.296208
H97	H	-0.188649	-0.887333	0.204388
H98	H	0.311351	-0.387333	0.704388
H99	H	-0.186287	-1.106831	0.203793
H100	H	0.313713	-0.606831	0.703793
H101	H	0.003399	-1.134024	0.083817
H102	H	0.503399	-0.634024	0.583817
