data_functionalizedCrystal
_audit_creation_method	'MofGen! by Chris Wilmer'
_symmetry_space_group_name_H-M	'P1'
_symmetry_Int_Tables_number	1
_symmetry_cell_setting	triclinic
loop_
_symmetry_equiv_pos_as_xyz
  x,y,z
_cell_length_a	27.732064
_cell_length_b	27.732048
_cell_length_c	9.130313
_cell_angle_alpha	89.990549
_cell_angle_beta	90.004113
_cell_angle_gamma	82.646040
loop_
_atom_site_label
_atom_site_type_symbol
_atom_site_fract_x
_atom_site_fract_y
_atom_site_fract_z
O1	O	0.640921	0.057555	-0.121554
O2	O	1.140921	0.557555	0.378446
O3	O	0.500129	0.066292	-0.121616
O4	O	1.000129	0.566292	0.378384
O5	O	0.574898	-0.008473	-0.121555
O6	O	1.074898	0.491527	0.378445
O7	O	0.566152	0.132320	-0.121615
O8	O	1.066152	0.632320	0.378385
O9	O	0.574893	-0.008475	0.122044
O10	O	1.074893	0.491525	0.622044
O11	O	0.500124	0.066290	0.121983
O12	O	1.000124	0.566290	0.621983
O13	O	0.640916	0.057553	0.122045
O14	O	1.140916	0.557553	0.622045
Cu15	Cu	0.570520	0.061921	0.144256
Cu16	Cu	1.070520	0.561921	0.644256
Cu17	Cu	0.570525	0.061924	-0.143827
Cu18	Cu	1.070525	0.561924	0.356173
O19	O	0.566147	0.132318	0.121984
O20	O	1.066147	0.632318	0.621984
C21	C	0.482120	0.066106	0.000176
C22	C	0.982120	0.566106	0.500176
C23	C	0.428465	0.065551	0.000153
C24	C	0.928465	0.565551	0.500153
C25	C	0.051392	0.017583	0.000257
C26	C	0.551392	0.517583	0.500257
C27	C	0.253053	0.019630	0.000218
C28	C	0.753053	0.519630	0.500218
O29	O	0.284305	-0.017591	0.000288
O30	O	0.784305	0.482409	0.500288
N31	N	0.272180	0.063964	0.000193
N32	N	0.772180	0.563964	0.500193
C33	C	0.240889	0.107790	0.000187
C34	C	0.740889	0.607790	0.500187
O35	O	0.261785	0.145546	0.000179
O36	O	0.761785	0.645546	0.500179
C37	C	0.039230	0.105743	0.000236
C38	C	0.539230	0.605743	0.500236
C39	C	0.020105	0.061406	0.000247
C40	C	0.520105	0.561406	0.500247
C41	C	0.032267	-0.026750	0.000269
C42	C	0.532267	0.473250	0.500269
C43	C	-0.018145	-0.027261	0.000271
C44	C	0.481855	0.472739	0.500271
C45	C	-0.049432	0.016561	0.000260
C46	C	0.450568	0.516561	0.500260
C47	C	-0.030307	0.060895	0.000248
C48	C	0.469693	0.560895	0.500248
C49	C	0.007940	0.149568	0.000241
C50	C	0.507940	0.649568	0.500241
C51	C	-0.042478	0.149053	0.000257
C52	C	0.457522	0.649053	0.500257
C53	C	-0.061602	0.104716	0.000267
C54	C	0.438398	0.604716	0.500267
C55	C	-0.112006	0.104206	0.000240
C56	C	0.387994	0.604206	0.500240
N57	N	-0.131134	0.059872	0.000265
N58	N	0.368866	0.559872	0.500265
C59	C	-0.099846	0.016049	0.000275
C60	C	0.400154	0.516049	0.500275
C61	C	0.346763	0.108861	0.000158
C62	C	0.846763	0.608861	0.500158
C63	C	0.397178	0.109373	0.000143
C64	C	0.897178	0.609373	0.500143
C65	C	0.409338	0.021213	0.000177
C66	C	0.909338	0.521213	0.500177
C67	C	0.358923	0.020701	0.000181
C68	C	0.858923	0.520701	0.500181
C69	C	0.327636	0.064527	0.000183
C70	C	0.827636	0.564527	0.500183
C71	C	-0.205716	0.014979	0.000278
C72	C	0.294284	0.514979	0.500278
C73	C	-0.256133	0.014472	0.000273
C74	C	0.243867	0.514472	0.500273
C75	C	-0.268289	0.102632	0.000247
C76	C	0.231711	0.602632	0.500247
C77	C	-0.217876	0.103140	0.000244
C78	C	0.282124	0.603140	0.500244
C79	C	-0.186590	0.059309	0.000264
C80	C	0.313410	0.559309	0.500264
O81	O	-0.143287	0.141407	0.000186
O82	O	0.356713	0.641407	0.500186
O83	O	-0.120752	-0.021701	0.000315
O84	O	0.379248	0.478299	0.500315
C85	C	0.101805	0.018094	0.000255
C86	C	0.601805	0.518094	0.500255
C87	C	0.120930	0.062428	0.000243
C88	C	0.620930	0.562428	0.500243
C89	C	0.089642	0.106250	0.000233
C90	C	0.589642	0.606250	0.500233
C91	C	0.171344	0.062940	0.000228
C92	C	0.671344	0.562940	0.500228
C93	C	0.202631	0.019117	0.000238
C94	C	0.702631	0.519117	0.500238
C95	C	0.183504	-0.025217	0.000264
C96	C	0.683504	0.474783	0.500264
C97	C	0.133092	-0.025728	0.000265
C98	C	0.633092	0.474272	0.500265
C99	C	0.108770	0.150585	0.000207
C100	C	0.608770	0.650585	0.500207
C101	C	0.159183	0.151092	0.000204
C102	C	0.659183	0.651092	0.500204
C103	C	0.190470	0.107270	0.000214
C104	C	0.690470	0.607270	0.500214
C105	C	0.574712	-0.026481	0.000248
C106	C	1.074712	0.473519	0.500248
C107	C	0.574159	-0.080136	0.000260
C108	C	1.074159	0.419864	0.500260
C109	C	0.614862	-0.418948	0.000203
C110	C	1.114862	0.081052	0.500203
C111	C	0.612811	-0.620608	0.000182
C112	C	1.112811	-0.120608	0.500182
O113	O	0.650032	-0.651862	0.000134
O114	O	1.150032	-0.151862	0.500134
N115	N	0.568476	-0.639735	0.000163
N116	N	1.068476	-0.139735	0.500163
C117	C	0.524651	-0.608442	0.000141
C118	C	1.024651	-0.108442	0.500141
O119	O	0.486895	-0.629338	0.000110
O120	O	0.986895	-0.129338	0.500110
C121	C	0.526703	-0.406784	0.000152
C122	C	1.026703	0.093216	0.500152
C123	C	0.571040	-0.387660	0.000185
C124	C	1.071040	0.112340	0.500185
C125	C	0.659196	-0.399824	0.000235
C126	C	1.159196	0.100176	0.500235
C127	C	0.659709	-0.349412	0.000248
C128	C	1.159709	0.150588	0.500248
C129	C	0.615887	-0.318124	0.000230
C130	C	1.115887	0.181876	0.500230
C131	C	0.571553	-0.337248	0.000198
C132	C	1.071553	0.162752	0.500198
C133	C	0.482878	-0.375493	0.000119
C134	C	0.982878	0.124507	0.500119
C135	C	0.483395	-0.325075	0.000118
C136	C	0.983395	0.174925	0.500118
C137	C	0.527733	-0.305952	0.000151
C138	C	1.027733	0.194048	0.500151
C139	C	0.528243	-0.255548	0.000193
C140	C	1.028243	0.244452	0.500193
N141	N	0.572578	-0.236422	0.000212
N142	N	1.072578	0.263578	0.500212
C143	C	0.616400	-0.267710	0.000230
C144	C	1.116400	0.232290	0.500230
C145	C	0.523577	-0.714317	0.000138
C146	C	1.023577	-0.214317	0.500138
C147	C	0.523064	-0.764731	0.000138
C148	C	1.023064	-0.264731	0.500138
C149	C	0.611225	-0.776893	0.000176
C150	C	1.111225	-0.276893	0.500176
C151	C	0.611737	-0.726478	0.000187
C152	C	1.111737	-0.226478	0.500187
C153	C	0.567912	-0.695190	0.000156
C154	C	1.067912	-0.195190	0.500156
C155	C	0.617472	-0.161841	0.000259
C156	C	1.117472	0.338159	0.500259
C157	C	0.617981	-0.111424	0.000278
C158	C	1.117981	0.388576	0.500278
C159	C	0.529821	-0.099266	0.000232
C160	C	1.029821	0.400734	0.500232
C161	C	0.529312	-0.149679	0.000221
C162	C	1.029312	0.350321	0.500221
C163	C	0.573142	-0.180965	0.000229
C164	C	1.073142	0.319035	0.500229
O165	O	0.491043	-0.224267	0.000224
O166	O	0.991043	0.275733	0.500224
O167	O	0.654151	-0.246805	0.000228
O168	O	1.154151	0.253195	0.500228
C169	C	0.614350	-0.469360	0.000190
C170	C	1.114350	0.030640	0.500190
C171	C	0.570016	-0.488484	0.000158
C172	C	1.070016	0.011516	0.500158
C173	C	0.526194	-0.457196	0.000140
C174	C	1.026194	0.042804	0.500140
C175	C	0.569503	-0.538899	0.000158
C176	C	1.069503	-0.038899	0.500158
C177	C	0.613325	-0.570187	0.000176
C178	C	1.113325	-0.070187	0.500176
C179	C	0.657660	-0.551060	0.000195
C180	C	1.157660	-0.051060	0.500195
C181	C	0.658172	-0.500648	0.000208
C182	C	1.158172	-0.000648	0.500208
C183	C	0.481859	-0.476323	0.000122
C184	C	0.981859	0.023677	0.500122
C185	C	0.481351	-0.526735	0.000110
C186	C	0.981351	-0.026735	0.500110
C187	C	0.525172	-0.558023	0.000128
C188	C	1.025172	-0.058023	0.500128
C189	C	0.658925	0.057739	0.000250
C190	C	1.158925	0.557739	0.500250
C191	C	0.712580	0.058295	0.000263
C192	C	1.212580	0.558295	0.500263
C193	C	0.566333	0.150326	0.000178
C194	C	1.066333	0.650326	0.500178
C195	C	0.566886	0.203981	0.000156
C196	C	1.066886	0.703981	0.500156
N197	N	0.570519	0.061919	0.346879
N198	N	1.070519	0.561919	0.846879
N199	N	0.570530	0.061922	-0.346450
N200	N	1.070530	0.561922	0.153550
C201	C	0.603637	0.028827	0.423558
C202	C	1.103637	0.528827	0.923558
C203	C	0.603642	0.028827	0.576895
C204	C	1.103642	0.528827	1.076895
C205	C	0.537408	0.095016	0.576860
C206	C	1.037408	0.595016	1.076860
C207	C	0.537401	0.095013	0.423526
C208	C	1.037401	0.595013	0.923526
H209	H	-0.180248	-0.020712	0.000294
H210	H	0.319752	0.479288	0.500294
C211	C	0.640074	-0.007573	0.661236
C212	C	1.140074	0.492427	1.161236
H213	H	0.659798	-0.027279	0.593622
H214	H	1.159798	0.472721	1.093622
H215	H	0.622843	-0.027578	0.721068
H216	H	1.122843	0.472422	1.221068
H217	H	0.660067	0.009685	0.721034
H218	H	1.160067	0.509685	1.221034
C219	C	0.028966	0.198340	0.000251
C220	C	0.528966	0.698340	0.500251
H221	H	0.003105	0.224361	0.000269
H222	H	0.503105	0.724361	0.500269
H223	H	0.048377	0.200385	-0.084694
H224	H	0.548377	0.700385	0.415306
H225	H	0.048380	0.200368	0.085214
H226	H	0.548380	0.700368	0.585214
C227	C	0.443760	-0.026991	0.000200
C228	C	0.943760	0.473009	0.500200
H229	H	0.476523	-0.020332	0.000201
H230	H	0.976523	0.479668	0.500201
H231	H	0.437997	-0.045191	-0.084731
H232	H	0.937997	0.454809	0.415269
H233	H	0.438002	-0.045183	0.085176
H234	H	0.938002	0.454817	0.585176
H235	H	0.510430	0.121961	0.361090
H236	H	1.010430	0.621961	0.861090
C237	C	0.659427	-0.811316	0.000173
C238	C	1.159427	-0.311316	0.500173
H239	H	0.652768	-0.844079	0.000153
H240	H	1.152768	-0.344079	0.500153
H241	H	0.677630	-0.805564	0.085118
H242	H	1.177630	-0.305564	0.585118
H243	H	0.677618	-0.805548	-0.084790
H244	H	1.177618	-0.305548	0.415210
H245	H	0.510445	0.121961	0.639282
H246	H	1.010445	0.621961	1.139282
H247	H	-0.271701	-0.021634	0.000278
H248	H	0.228299	0.478366	0.500278
H249	H	0.057737	-0.062438	0.000282
H250	H	0.557737	0.437562	0.500282
C251	C	-0.039175	-0.076032	0.000309
C252	C	0.460825	0.423968	0.500309
H253	H	-0.013316	-0.102054	0.000332
H254	H	0.486684	0.397946	0.500332
H255	H	-0.058594	-0.078071	-0.084628
H256	H	0.441406	0.421929	0.415372
H257	H	-0.058582	-0.078065	0.085280
H258	H	0.441418	0.421935	0.585280
C259	C	0.337890	-0.028069	0.000207
C260	C	0.837890	0.471931	0.500207
H261	H	0.363748	-0.054092	0.000219
H262	H	0.863748	0.445908	0.500219
H263	H	0.318470	-0.030102	-0.084730
H264	H	0.818470	0.469898	0.415270
H265	H	0.318484	-0.030104	0.085177
H266	H	0.818484	0.469896	0.585177
C267	C	0.474293	-0.785761	0.000113
C268	C	0.974293	-0.285761	0.500113
H269	H	0.448270	-0.759903	0.000087
H270	H	0.948270	-0.259903	0.500087
H271	H	0.472254	-0.805181	0.085056
H272	H	0.972254	-0.305181	0.585056
H273	H	0.472262	-0.805168	-0.084851
H274	H	0.972262	-0.305168	0.415149
C275	C	0.433652	-0.441912	0.000117
C276	C	0.933652	0.058088	0.500117
H277	H	0.407178	-0.460528	0.000116
H278	H	0.907178	0.039472	0.500116
H279	H	0.432014	-0.421983	-0.084821
H280	H	0.932014	0.078017	0.415179
H281	H	0.432019	-0.422002	0.085086
H282	H	0.932019	0.077998	0.585086
C283	C	0.418210	0.158144	0.000116
C284	C	0.918210	0.658144	0.500116
H285	H	0.392352	0.184167	0.000127
H286	H	0.892352	0.684167	0.500127
H287	H	0.437619	0.160182	-0.084835
H288	H	0.937619	0.660182	0.415165
H289	H	0.437626	0.160175	0.085073
H290	H	0.937626	0.660175	0.585073
C291	C	0.312354	0.157072	0.000143
C292	C	0.812354	0.657072	0.500143
H293	H	0.330971	0.183546	0.000110
H294	H	0.830971	0.683546	0.500110
H295	H	0.292437	0.158710	0.085093
H296	H	0.792437	0.658710	0.585093
H297	H	0.292432	0.158708	-0.084815
H298	H	0.792432	0.658708	0.415185
C299	C	0.707405	-0.434234	0.000266
C300	C	1.207405	0.065766	0.500266
H301	H	0.733878	-0.415617	0.000296
H302	H	1.233878	0.084383	0.500296
H303	H	0.709048	-0.454153	-0.084675
H304	H	1.209048	0.045847	0.415325
H305	H	0.709036	-0.454155	0.085232
H306	H	1.209036	0.045845	0.585232
C307	C	-0.076890	0.197262	0.000244
C308	C	0.423110	0.697262	0.500244
H309	H	-0.058277	0.223738	0.000223
H310	H	0.441723	0.723738	0.500223
H311	H	-0.096809	0.198896	0.085189
H312	H	0.403191	0.698896	0.585189
H313	H	-0.096811	0.198897	-0.084718
H314	H	0.403189	0.698897	0.415282
C315	C	0.666753	-0.090389	0.000316
C316	C	1.166753	0.409611	0.500316
H317	H	0.660785	-0.055882	0.000336
H318	H	1.160785	0.444118	0.500336
H319	H	0.684783	-0.101144	-0.084623
H320	H	1.184783	0.398856	0.415377
H321	H	0.684775	-0.101158	0.085284
H322	H	1.184775	0.398842	0.585284
C323	C	0.660508	-0.705446	0.000209
C324	C	1.160508	-0.205446	0.500209
H325	H	0.686531	-0.731305	0.000213
H326	H	1.186531	-0.231305	0.500213
H327	H	0.662542	-0.686036	0.085154
H328	H	1.162542	-0.186036	0.585154
H329	H	0.662544	-0.686031	-0.084753
H330	H	1.162544	-0.186031	0.415247
H331	H	-0.202304	0.139243	0.000234
H332	H	0.297696	0.639243	0.500234
C333	C	0.432577	-0.547767	0.000073
C334	C	0.932577	-0.047767	0.500073
H335	H	0.438543	-0.582274	0.000074
H336	H	0.938543	-0.082274	0.500074
H337	H	0.414555	-0.536996	-0.084886
H338	H	0.914555	-0.036996	0.415114
H339	H	0.414547	-0.537012	0.085022
H340	H	0.914547	-0.037012	0.585022
H341	H	0.693341	-0.576544	0.000216
H342	H	1.193341	-0.076544	0.500216
C343	C	0.217926	-0.073420	0.000281
C344	C	0.717926	0.426580	0.500281
H345	H	0.250688	-0.066761	0.000289
H346	H	0.750688	0.433239	0.500289
H347	H	0.212164	-0.091618	-0.084655
H348	H	0.712164	0.408382	0.415345
H349	H	0.212167	-0.091615	0.085252
H350	H	0.712167	0.408385	0.585252
C351	C	-0.302708	0.150834	0.000231
C352	C	0.197292	0.650834	0.500231
H353	H	-0.284101	0.177315	0.000211
H354	H	0.215899	0.677315	0.500211
H355	H	-0.322625	0.152462	0.085180
H356	H	0.177375	0.652462	0.585180
H357	H	-0.322630	0.152467	-0.084727
H358	H	0.177370	0.652467	0.415273
C359	C	0.112061	-0.074499	0.000292
C360	C	0.612061	0.425501	0.500292
H361	H	0.137920	-0.100521	0.000311
H362	H	0.637920	0.399479	0.500311
H363	H	0.092643	-0.076535	-0.084649
H364	H	0.592643	0.423465	0.415351
H365	H	0.092653	-0.076534	0.085259
H366	H	0.592653	0.423466	0.585259
H367	H	0.487888	-0.688846	0.000114
H368	H	0.987888	-0.188846	0.500114
C369	C	0.180216	0.199865	0.000185
C370	C	0.680216	0.699865	0.500185
H371	H	0.214722	0.193898	0.000177
H372	H	0.714722	0.693898	0.500177
H373	H	0.169455	0.217889	0.085129
H374	H	0.669455	0.717889	0.585129
H375	H	0.169451	0.217894	-0.084779
H376	H	0.669451	0.717894	0.415221
C377	C	0.665684	-0.196249	0.000281
C378	C	1.165684	0.303751	0.500281
H379	H	0.692158	-0.177633	0.000315
H380	H	1.192158	0.322367	0.500315
H381	H	0.667325	-0.216164	-0.084667
H382	H	1.167325	0.283836	0.415333
H383	H	0.667315	-0.216173	0.085240
H384	H	1.167315	0.283827	0.585240
C385	C	0.708480	-0.328383	0.000256
C386	C	1.208480	0.171617	0.500256
H387	H	0.734502	-0.354243	0.000248
H388	H	1.234502	0.145757	0.500248
H389	H	0.710519	-0.308973	0.085201
H390	H	1.210519	0.191027	0.585201
H391	H	0.710514	-0.308967	-0.084706
H392	H	1.210514	0.191033	0.415294
H393	H	0.447706	-0.299603	0.000091
H394	H	0.947706	0.200397	0.500091
C395	C	0.480542	-0.170716	0.000181
C396	C	0.980542	0.329284	0.500181
H397	H	0.454517	-0.144859	0.000162
H398	H	0.954517	0.355141	0.500162
H399	H	0.478503	-0.190140	0.085112
H400	H	0.978503	0.309860	0.585112
H401	H	0.478515	-0.190118	-0.084796
H402	H	0.978515	0.309882	0.415204
C403	C	0.640060	-0.007579	0.339251
C404	C	1.140060	0.492421	0.839251
H405	H	0.659782	-0.027290	0.406885
H406	H	1.159782	0.472710	0.906885
H407	H	0.660049	0.009670	0.279416
H408	H	1.160049	0.509670	0.779416
H409	H	0.622818	-0.027585	0.279457
H410	H	1.122818	0.472415	0.779457
H411	H	0.083300	0.186271	0.000201
H412	H	0.583300	0.686271	0.500201
H413	H	0.446774	-0.391054	0.000083
H414	H	0.946774	0.108946	0.500083
C415	C	0.481619	-0.064845	0.000203
C416	C	0.981619	0.435155	0.500203
H417	H	0.455138	-0.083452	0.000191
H418	H	0.955138	0.416548	0.500191
H419	H	0.479995	-0.044921	-0.084746
H420	H	0.979995	0.455079	0.415254
H421	H	0.479984	-0.044931	0.085162
H422	H	0.979984	0.455069	0.585162
H423	H	0.694276	-0.485083	0.000234
H424	H	1.194276	0.014917	0.500234
