data_functionalizedCrystal
_audit_creation_method	'MofGen! by Chris Wilmer'
_symmetry_space_group_name_H-M	'P1'
_symmetry_Int_Tables_number	1
_symmetry_cell_setting	triclinic
loop_
_symmetry_equiv_pos_as_xyz
  x,y,z
_cell_length_a	26.374263
_cell_length_b	26.373608
_cell_length_c	26.370205
_cell_angle_alpha	60.005297
_cell_angle_beta	60.010839
_cell_angle_gamma	59.993700
loop_
_atom_site_label
_atom_site_type_symbol
_atom_site_fract_x
_atom_site_fract_y
_atom_site_fract_z
O1	O	0.070152	-0.740800	0.619517
O2	O	0.570152	-0.240800	1.119517
O3	O	0.026377	-0.576764	0.499159
O4	O	0.526377	-0.076764	0.999159
O5	O	0.130245	-0.680560	0.499088
O6	O	0.630245	-0.180560	0.999088
O7	O	-0.033715	-0.637003	0.619589
O8	O	0.466285	-0.137003	1.119589
O9	O	0.164701	-0.646107	0.533470
O10	O	0.664701	-0.146107	1.033470
O11	O	0.060833	-0.542310	0.533541
O12	O	0.560833	-0.042310	1.033541
O13	O	0.104608	-0.706346	0.653899
O14	O	0.604608	-0.206346	1.153899
Cu15	Cu	0.085867	-0.621182	0.596859
Cu16	Cu	0.585867	-0.121182	1.096859
Cu17	Cu	0.045119	-0.661927	0.556199
Cu18	Cu	0.545119	-0.161927	1.056199
O19	O	0.000741	-0.602549	0.653971
O20	O	0.500741	-0.102549	1.153971
N21	N	0.114528	-0.592529	0.625461
N22	N	0.614528	-0.092529	1.125461
N23	N	0.016463	-0.690587	0.527598
N24	N	0.516463	-0.190587	1.027598
C25	C	0.181428	-0.355400	0.692330
C26	C	0.681428	0.144600	1.192330
C27	C	0.181530	-0.525690	0.862573
C28	C	0.681530	-0.025690	1.362573
C29	C	0.181440	-0.525667	0.692313
C30	C	0.681440	-0.025667	1.192313
C31	C	0.351736	-0.525673	0.692271
C32	C	0.851736	-0.025673	1.192271
C33	C	0.200174	-0.411588	0.711047
C34	C	0.700174	0.088412	1.211047
C35	C	0.200232	-0.506954	0.806384
C36	C	0.700232	-0.006954	1.306384
C37	C	0.295546	-0.506943	0.711016
C38	C	0.795546	-0.006943	1.211016
C39	C	0.200182	-0.506940	0.711037
C40	C	0.700182	-0.006940	1.211037
C41	C	0.157567	-0.283881	0.668507
C42	C	0.657567	0.216119	1.168507
C43	C	0.157587	-0.549500	0.668479
C44	C	0.657587	-0.049500	1.168479
C45	C	0.224035	-0.483107	0.734871
C46	C	0.724035	0.016893	1.234871
C47	C	0.455739	-0.507754	0.637520
C48	C	0.955739	-0.007754	1.137520
C49	C	0.520749	-0.529425	0.615835
C50	C	1.020749	-0.029425	1.115835
C51	C	0.520768	-0.634611	0.655947
C52	C	1.020768	-0.134611	1.155947
C53	C	0.455759	-0.612939	0.677633
C54	C	0.955759	-0.112939	1.177633
C55	C	0.173240	-0.251367	0.604595
C56	C	0.673240	0.248633	1.104595
C57	C	0.151546	-0.186351	0.582941
C58	C	0.651546	0.313649	1.082941
C59	C	0.098512	-0.186369	0.689113
C60	C	0.598512	0.313631	1.189113
C61	C	0.120206	-0.251385	0.710768
C62	C	0.620206	0.248615	1.210768
C63	C	0.093669	-0.533798	0.684205
C64	C	0.593669	-0.033798	1.184205
C65	C	0.071992	-0.555464	0.662532
C66	C	0.571992	-0.055464	1.162532
C67	C	0.178144	-0.608536	0.609422
C68	C	0.678144	-0.108536	1.109422
C69	C	0.199825	-0.586869	0.631088
C70	C	0.699825	-0.086869	1.131088
C71	C	0.093821	-0.533842	0.966616
C72	C	0.593821	-0.033842	1.466616
C73	C	0.072187	-0.555526	1.031630
C74	C	0.572187	-0.055526	1.531630
C75	C	0.178370	-0.608608	1.031591
C76	C	0.678370	-0.108608	1.531591
C77	C	0.200004	-0.586926	0.966576
C78	C	0.700004	-0.086926	1.466576
C79	C	0.157728	-0.549541	0.934090
C80	C	0.657728	-0.049541	1.434090
C81	C	0.423247	-0.549509	0.668416
C82	C	0.923247	-0.049509	1.168416
C83	C	-0.097522	-0.709158	0.508557
C84	C	0.402478	-0.209158	1.008557
C85	C	-0.002050	-0.709295	0.413344
C86	C	0.497950	-0.209295	0.913344
C87	C	-0.002241	-0.804604	0.508735
C88	C	0.497759	-0.304604	1.008735
C89	C	-0.002225	-0.709288	0.508793
C90	C	0.497775	-0.209288	1.008793
C91	C	-0.026009	-0.733087	0.484858
C92	C	0.473991	-0.233087	0.984858
N93	N	0.552340	-0.592538	0.625346
N94	N	1.052340	-0.092538	1.125346
O95	O	0.750867	-0.598274	0.477076
O96	O	1.250867	-0.098274	0.977076
O97	O	0.751048	-0.718989	0.640960
O98	O	1.251048	-0.218989	1.140960
O99	O	0.750981	-0.718715	0.537020
O100	O	1.250981	-0.218715	1.037020
O101	O	0.750934	-0.598547	0.581017
O102	O	1.250934	-0.098547	1.081017
O103	O	0.647701	-0.684348	0.571512
O104	O	1.147701	-0.184348	1.071512
O105	O	0.647768	-0.684622	0.675452
O106	O	1.147768	-0.184622	1.175452
O107	O	0.647587	-0.563907	0.511569
O108	O	1.147587	-0.063907	1.011569
Cu109	Cu	0.638247	-0.621127	0.596660
Cu110	Cu	1.138247	-0.121127	1.096660
Cu111	Cu	0.760388	-0.661769	0.555869
Cu112	Cu	1.260388	-0.161769	1.055869
O113	O	0.647654	-0.564181	0.615509
O114	O	1.147654	-0.064181	1.115509
N115	N	0.846295	-0.690358	0.527176
N116	N	1.346295	-0.190358	1.027176
N117	N	0.114503	-0.154778	0.625499
N118	N	0.614503	0.345222	1.125499
O119	O	-0.033701	0.043855	0.619632
O120	O	0.466299	0.543855	1.119632
O121	O	0.130190	0.043858	0.498933
O122	O	0.630190	0.543858	0.998933
O123	O	0.026233	0.043841	0.499224
O124	O	0.526233	0.543841	0.999224
O125	O	0.070257	0.043872	0.619341
O126	O	0.570257	0.543872	1.119341
O127	O	0.060690	-0.059448	0.533654
O128	O	0.560690	0.440552	1.033654
O129	O	0.164647	-0.059431	0.533363
O130	O	0.664647	0.440569	1.033363
O131	O	0.000756	-0.059434	0.654062
O132	O	0.500756	0.440566	1.154062
Cu133	Cu	0.085848	-0.068863	0.596857
Cu134	Cu	0.585848	0.431137	1.096857
Cu135	Cu	0.045099	0.053287	0.556138
Cu136	Cu	0.545099	0.553287	1.056138
O137	O	0.104714	-0.059417	0.653771
O138	O	0.604714	0.440583	1.153771
N139	N	0.016435	0.139202	0.527497
N140	N	0.516435	0.639202	1.027497
N141	N	0.114760	-0.592585	1.063190
N142	N	0.614760	-0.092585	1.563190
O143	O	0.108896	-0.740779	1.261808
O144	O	0.608896	-0.240779	1.761808
O145	O	-0.011787	-0.576838	1.261822
O146	O	0.488213	-0.076838	1.761822
O147	O	-0.011509	-0.680779	1.261780
O148	O	0.488491	-0.180779	1.761780
O149	O	0.108618	-0.636838	1.261850
O150	O	0.608618	-0.136838	1.761850
O151	O	0.022916	-0.646341	1.158496
O152	O	0.522916	-0.146341	1.658496
O153	O	0.022638	-0.542399	1.158538
O154	O	0.522638	-0.042399	1.658538
O155	O	0.143321	-0.706341	1.158524
O156	O	0.643321	-0.206341	1.658524
Cu157	Cu	0.086123	-0.621225	1.149100
Cu158	Cu	0.586123	-0.121225	1.649100
Cu159	Cu	0.045411	-0.661953	1.271246
Cu160	Cu	0.545411	-0.161953	1.771246
O161	O	0.143044	-0.602399	1.158566
O162	O	0.643044	-0.102399	1.658566
N163	N	0.016774	-0.690600	1.357156
N164	N	0.516774	-0.190600	1.857156
C165	C	0.039504	-0.538867	0.499769
C166	C	0.539504	-0.038867	0.999769
C167	C	0.168130	-0.667407	0.499680
C168	C	0.668130	-0.167407	0.999680
C169	C	0.091482	-0.744243	0.653289
C170	C	0.591482	-0.244243	1.153289
C171	C	-0.037145	-0.615703	0.653378
C172	C	0.462855	-0.115703	1.153378
C173	C	0.699429	-0.718429	0.678853
C174	C	1.199429	-0.218429	1.178853
C175	C	0.699348	-0.718091	0.550135
C176	C	1.199348	-0.218091	1.050135
C177	C	0.699202	-0.564465	0.473677
C178	C	1.199202	-0.064465	0.973677
C179	C	0.699287	-0.564805	0.602393
C180	C	1.199287	-0.064805	1.102393
C181	C	0.168023	-0.007659	0.499484
C182	C	0.668023	0.492341	0.999484
C183	C	0.039327	-0.007807	0.499887
C184	C	0.539327	0.492193	0.999887
C185	C	-0.037119	-0.007789	0.653468
C186	C	0.462881	0.492211	1.153468
C187	C	0.091620	-0.007770	0.653109
C188	C	0.591620	0.492230	1.153109
C189	C	-0.011194	-0.538964	1.210181
C190	C	0.488806	-0.038964	1.710181
C191	C	-0.010843	-0.667676	1.210109
C192	C	0.489157	-0.167676	1.710109
C193	C	0.142729	-0.744214	1.210165
C194	C	0.642729	-0.244214	1.710165
C195	C	0.142386	-0.615494	1.210214
C196	C	0.642386	-0.115494	1.710214
H197	H	0.020147	-0.542732	1.058106
H198	H	0.520147	-0.042732	1.558106
H199	H	0.699474	-0.756325	0.725922
H200	H	1.199474	-0.256325	1.225922
O201	O	0.552420	-0.696222	0.664931
O202	O	1.052420	-0.196222	1.164931
C203	C	0.590037	-0.718756	0.700290
C204	C	1.090037	-0.218756	1.200290
H205	H	0.599774	-0.678622	0.695196
H206	H	1.099774	-0.178622	1.195196
H207	H	0.635752	-0.754713	0.683026
H208	H	1.135752	-0.254713	1.183026
H209	H	0.565005	-0.741154	0.751238
H210	H	1.065005	-0.241154	1.251238
O211	O	0.224005	-0.007239	0.454084
O212	O	0.724005	0.492761	0.954084
C213	C	0.215508	0.046371	0.401927
C214	C	0.715508	0.546371	0.901927
H215	H	0.165930	0.064004	0.402770
H216	H	0.665930	0.564004	0.902770
H217	H	0.249496	0.034564	0.357698
H218	H	0.749496	0.534564	0.857698
H219	H	0.224225	0.083895	0.403135
H220	H	0.724225	0.583895	0.903135
H221	H	0.699366	-0.755841	0.540718
H222	H	1.199366	-0.255841	1.040718
O223	O	0.699300	-0.519709	0.613508
O224	O	1.199300	-0.019709	1.113508
C225	C	0.699218	-0.466101	0.560199
C226	C	1.199218	0.033899	1.060199
H227	H	0.718747	-0.479652	0.517496
H228	H	1.218747	0.020348	1.017496
H229	H	0.729191	-0.442953	0.554749
H230	H	1.229191	0.057047	1.054749
H231	H	0.649652	-0.432347	0.565245
H232	H	1.149652	0.067653	1.065245
H233	H	0.180125	-0.606093	1.210228
H234	H	0.680125	-0.106093	1.710228
O235	O	0.028001	-0.007862	0.454950
O236	O	0.528001	0.492138	0.954950
C237	C	-0.033045	-0.007860	0.477572
C238	C	0.466955	0.492140	0.977572
H239	H	-0.049374	-0.027392	0.530471
H240	H	0.450626	0.472608	1.030471
H241	H	-0.033939	-0.037874	0.458689
H242	H	0.466061	0.462126	0.958689
H243	H	-0.065186	0.041685	0.461851
H244	H	0.434814	0.541685	0.961851
H245	H	0.699142	-0.526565	0.426612
H246	H	1.199142	-0.026565	0.926612
O247	O	-0.093349	-0.604519	0.698466
O248	O	0.406651	-0.104519	1.198466
C249	C	-0.131941	-0.543500	0.676006
C250	C	0.368059	-0.043500	1.176006
H251	H	-0.102032	-0.514013	0.636124
H252	H	0.397968	-0.014013	1.136124
H253	H	-0.161692	-0.522703	0.714976
H254	H	0.338308	-0.022703	1.214976
H255	H	-0.163303	-0.544442	0.658757
H256	H	0.336697	-0.044442	1.158757
O257	O	-0.093317	-0.007750	0.698596
O258	O	0.406683	0.492250	1.198596
C259	C	-0.131973	-0.007772	0.676254
C260	C	0.368027	0.492228	1.176254
H261	H	-0.115164	0.011766	0.623355
H262	H	0.384836	0.511766	1.123355
H263	H	-0.181715	0.022226	0.695285
H264	H	0.318285	0.522226	1.195285
H265	H	-0.130297	-0.057325	0.692056
H266	H	0.369703	0.442675	1.192056
O267	O	0.028466	-0.482681	0.454609
O268	O	0.528466	0.017319	0.954609
C269	C	0.081822	-0.482545	0.401057
C270	C	0.581822	0.017455	0.901057
H271	H	0.124482	-0.519276	0.414687
H272	H	0.624482	-0.019276	0.914687
H273	H	0.087314	-0.434891	0.377870
H274	H	0.587314	0.065109	0.877870
H275	H	0.076814	-0.493357	0.367308
H276	H	0.576814	0.006643	0.867308
O277	O	0.102974	-0.007799	0.698074
O278	O	0.602974	0.492201	1.198074
C279	C	0.164014	-0.007782	0.675445
C280	C	0.664014	0.492218	1.175445
H281	H	0.193381	-0.027332	0.635576
H282	H	0.693381	0.472668	1.135576
H283	H	0.184927	-0.037774	0.714334
H284	H	0.684927	0.462226	1.214334
H285	H	0.163094	0.041770	0.658126
H286	H	0.663094	0.541770	1.158126
O287	O	-0.056339	-0.482769	1.210211
O288	O	0.443661	0.017231	1.710211
C289	C	-0.033981	-0.444125	1.210219
C290	C	0.466019	0.055875	1.710219
H291	H	0.005881	-0.473994	1.229783
H292	H	0.505881	0.026006	1.729783
H293	H	-0.073009	-0.414368	1.240208
H294	H	0.426991	0.085632	1.740208
H295	H	-0.016738	-0.412763	1.160674
H296	H	0.483262	0.087237	1.660674
H297	H	-0.048566	-0.677061	1.210046
H298	H	0.451434	-0.177061	1.710046
O299	O	0.187990	-0.800336	1.210051
O300	O	0.687990	-0.300336	1.710051
C301	C	0.240321	-0.792154	1.156579
C302	C	0.740321	-0.292154	1.656579
H303	H	0.225355	-0.746676	1.119193
H304	H	0.725355	-0.246676	1.619193
H305	H	0.262555	-0.832439	1.138611
H306	H	0.762555	-0.332439	1.638611
H307	H	0.275368	-0.790733	1.168693
H308	H	0.775368	-0.290733	1.668693
O309	O	0.052667	-0.497551	0.935159
O310	O	0.552667	0.002449	1.435159
C311	C	-0.008377	-0.488331	0.977811
C312	C	0.491623	0.011669	1.477811
H313	H	-0.008233	-0.527534	1.024146
H314	H	0.491767	-0.027534	1.524146
H315	H	-0.039260	-0.487984	0.959039
H316	H	0.460740	0.012016	1.459039
H317	H	-0.027002	-0.442020	0.984737
H318	H	0.472998	0.057980	1.484737
H319	H	0.212798	-0.639038	1.058038
H320	H	0.712798	-0.139038	1.558038
H321	H	0.252044	-0.599714	0.940097
H322	H	0.752044	-0.099714	1.440097
O323	O	0.224306	-0.678581	0.454553
O324	O	0.724306	-0.178581	0.954553
C325	C	0.235403	-0.728829	0.440202
C326	C	0.735403	-0.228829	0.940202
H327	H	0.206378	-0.758662	0.481265
H328	H	0.706378	-0.258662	0.981265
H329	H	0.286741	-0.758082	0.430133
H330	H	0.786741	-0.258082	0.930133
H331	H	0.222066	-0.710376	0.397602
H332	H	0.722066	-0.210376	0.897602
H333	H	0.019945	-0.542665	0.675322
H334	H	0.519945	-0.042665	1.175322
O335	O	0.052556	-0.497478	0.720493
O336	O	0.552556	0.002522	1.220493
C337	C	-0.008508	-0.488274	0.729730
C338	C	0.491492	0.011726	1.229730
H339	H	-0.008410	-0.495532	0.690535
H340	H	0.491590	0.004468	1.190535
H341	H	-0.039377	-0.438966	0.730081
H342	H	0.460623	0.061034	1.230081
H343	H	-0.027113	-0.522881	0.776042
H344	H	0.472887	-0.022881	1.276042
H345	H	0.429307	-0.646943	0.702793
H346	H	0.929307	-0.146943	1.202793
O347	O	0.219262	-0.644812	0.573087
O348	O	0.719262	-0.144812	1.073087
C349	C	0.280326	-0.654040	0.563873
C350	C	0.780326	-0.154040	1.063873
H351	H	0.280212	-0.614847	0.571142
H352	H	0.780212	-0.114847	1.071142
H353	H	0.311170	-0.654374	0.514561
H354	H	0.811170	-0.154374	1.014561
H355	H	0.298973	-0.700359	0.598466
H356	H	0.798973	-0.200359	1.098466
H357	H	0.547206	-0.495421	0.590679
H358	H	1.047206	0.004579	1.090679
O359	O	0.261895	-0.602041	0.615852
O360	O	0.761895	-0.102041	1.115852
C361	C	0.271974	-0.574918	0.643009
C362	C	0.771974	-0.074918	1.143009
H363	H	0.229311	-0.533186	0.652828
H364	H	0.729311	-0.033186	1.152828
H365	H	0.314097	-0.559144	0.609807
H366	H	0.814097	-0.059144	1.109807
H367	H	0.280666	-0.610493	0.688351
H368	H	0.780666	-0.110493	1.188351
O369	O	0.424222	-0.446112	0.628461
O370	O	0.924222	0.053888	1.128461
C371	C	0.440070	-0.412569	0.564271
C372	C	0.940070	0.087431	1.064271
H373	H	0.487267	-0.440978	0.538665
H374	H	0.987267	0.059022	1.038665
H375	H	0.442292	-0.366738	0.555682
H376	H	0.942292	0.133262	1.055682
H377	H	0.403468	-0.402867	0.546559
H378	H	0.903468	0.097133	1.046559
O379	O	0.209502	-0.282835	0.563458
O380	O	0.709502	0.217165	1.063458
C381	C	0.218690	-0.240193	0.502402
C382	C	0.718690	0.259807	1.002402
H383	H	0.179486	-0.193852	0.502533
H384	H	0.679486	0.306148	1.002533
H385	H	0.219014	-0.258974	0.471539
H386	H	0.719014	0.241026	0.971539
H387	H	0.264998	-0.233273	0.483761
H388	H	0.764998	0.266727	0.983761
H389	H	0.164306	-0.159876	0.530897
H390	H	0.664306	0.340124	1.030897
H391	H	0.068098	-0.159910	0.723527
H392	H	0.568098	0.340090	1.223527
H393	H	0.100832	-0.791364	0.691090
H394	H	0.600832	-0.291364	1.191090
O395	O	0.104946	-0.282872	0.772873
O396	O	0.604946	0.217128	1.272873
C397	C	0.067303	-0.240245	0.805526
C398	C	0.567303	0.259755	1.305526
H399	H	0.075582	-0.193896	0.774522
H400	H	0.575582	0.306104	1.274522
H401	H	0.079507	-0.259034	0.848907
H402	H	0.579507	0.240966	1.348907
H403	H	0.016381	-0.233334	0.819553
H404	H	0.516381	0.266666	1.319553
