data_functionalizedCrystal
_audit_creation_method	'MofGen! by Chris Wilmer'
_symmetry_space_group_name_H-M	'P1'
_symmetry_Int_Tables_number	1
_symmetry_cell_setting	triclinic
loop_
_symmetry_equiv_pos_as_xyz
  x,y,z
_cell_length_a	15.538191
_cell_length_b	12.996460
_cell_length_c	15.624967
_cell_angle_alpha	108.083280
_cell_angle_beta	66.740751
_cell_angle_gamma	90.006200
loop_
_atom_site_label
_atom_site_type_symbol
_atom_site_fract_x
_atom_site_fract_y
_atom_site_fract_z
O1	O	1.249513	-0.023645	-0.292689
O2	O	0.975397	0.015184	-0.188637
O3	O	1.119769	-0.054106	-0.374297
O4	O	1.105142	0.045644	-0.107029
O5	O	1.119750	-0.225234	-0.374283
O6	O	0.975379	-0.155945	-0.188623
O7	O	1.249495	-0.194774	-0.292675
Cu8	Cu	1.112435	-0.190985	-0.240647
Cu9	Cu	1.112457	0.011395	-0.240664
O10	O	1.105123	-0.125484	-0.107015
C11	C	0.940307	-0.066318	-0.177743
C12	C	0.835778	-0.054217	-0.145316
N13	N	1.112426	-0.333328	-0.240639
C14	C	0.547545	-0.174438	-0.467475
C15	C	0.449321	-0.163057	-0.436982
C16	C	0.427114	-0.099043	-0.265464
C17	C	0.525338	-0.110424	-0.295943
C18	C	0.585546	-0.148121	-0.396949
C19	C	0.563339	-0.084107	-0.225417
C20	C	0.661554	-0.095482	-0.255894
C21	C	0.721769	-0.133174	-0.356896
C22	C	0.683762	-0.159496	-0.427426
C23	C	0.503129	-0.046402	-0.124411
C24	C	0.541130	-0.020085	-0.053885
C25	C	0.639347	-0.031467	-0.084362
C26	C	0.699562	-0.069160	-0.185364
C27	C	0.677354	-0.005145	-0.013832
C28	C	0.775570	-0.016520	-0.044309
C29	C	0.797777	-0.080535	-0.215841
C30	C	1.112431	-0.426434	-0.240638
C31	C	1.112439	-0.543242	-0.240647
C32	C	1.112451	-0.636346	-0.240660
C33	C	1.112461	-0.753162	-0.240669
C34	C	1.284584	-0.113270	-0.303568
C35	C	1.389114	-0.125364	-0.335996
C36	C	1.119094	-0.152123	-0.407661
C37	C	1.117099	-0.189226	-0.507091
N38	N	1.112473	0.153735	-0.240683
C39	C	1.114278	-0.334799	-0.647232
C40	C	1.116152	-0.299924	-0.553802
C41	C	1.116177	-0.113360	-0.553801
C42	C	1.114307	-0.148220	-0.647236
C43	C	1.113357	-0.258941	-0.693943
C44	C	1.113386	-0.072362	-0.693946
C45	C	1.111512	-0.107219	-0.787370
C46	C	1.110559	-0.217934	-0.834083
C47	C	1.111483	-0.293798	-0.787367
C48	C	1.114330	0.038359	-0.647234
C49	C	1.113409	0.114217	-0.693945
C50	C	1.111541	0.079359	-0.787373
C51	C	1.110588	-0.031356	-0.834086
C52	C	1.110617	0.155222	-0.834089
C53	C	1.108743	0.120365	-0.927513
C54	C	1.108714	-0.066213	-0.927510
C55	C	1.105798	-0.027465	-0.073651
C56	C	1.107793	0.009645	0.025779
H57	H	0.846803	-0.111237	-0.298091
O58	O	0.408339	-0.191456	-0.513059
H59	H	0.329928	-0.177210	-0.474901
H60	H	1.109025	-0.246312	-0.910151
H61	H	1.113510	-0.424959	-0.685267
H62	H	0.423156	-0.037139	-0.099600
O63	O	0.816560	0.011854	0.031758
H64	H	0.860778	0.077959	0.021979
O65	O	0.476191	0.020558	0.055055
H66	H	0.401510	0.024037	0.064402
H67	H	0.378079	-0.068345	-0.183224
O68	O	0.612413	0.035508	0.095108
H69	H	0.537733	0.038991	0.104451
H70	H	1.107945	-0.156374	-0.965544
O71	O	1.111627	0.274640	-0.783698
H72	H	1.175393	0.301863	-0.830643
H73	H	1.110714	-0.383958	-0.825402
O74	O	1.107752	0.202183	-0.977899
H75	H	1.042768	0.201601	-0.991433
O76	O	1.117154	-0.381748	-0.503421
H77	H	1.116186	-0.464592	-0.551602
H78	H	0.596571	-0.205141	-0.549725
H79	H	0.801742	-0.142421	-0.381709
H80	H	1.116948	-0.023211	-0.515758
H81	H	0.732788	-0.190199	-0.509676
H82	H	1.115842	0.066738	-0.571156
O83	O	1.114434	0.233633	-0.643567
H84	H	1.115897	0.245129	-0.570758
