data_functionalizedCrystal
_audit_creation_method	'MofGen! by Chris Wilmer'
_symmetry_space_group_name_H-M	'P1'
_symmetry_Int_Tables_number	1
_symmetry_cell_setting	triclinic
loop_
_symmetry_equiv_pos_as_xyz
  x,y,z
_cell_length_a	15.944551
_cell_length_b	19.288864
_cell_length_c	14.421503
_cell_angle_alpha	89.982498
_cell_angle_beta	89.996859
_cell_angle_gamma	83.317495
loop_
_atom_site_label
_atom_site_type_symbol
_atom_site_fract_x
_atom_site_fract_y
_atom_site_fract_z
O1	O	1.114184	0.089573	-0.077061
O2	O	0.869592	0.100617	-0.077089
O3	O	0.998956	-0.006017	-0.077017
O4	O	0.984821	0.196207	-0.077133
O5	O	0.998934	-0.006001	0.077207
O6	O	0.869571	0.100633	0.077134
O7	O	1.114163	0.089588	0.077163
Cu8	Cu	0.991865	0.095112	0.091230
Cu9	Cu	0.991890	0.095093	-0.091157
O10	O	0.984799	0.196222	0.077090
C11	C	0.838289	0.100167	0.000020
C12	C	0.745048	0.098792	0.000012
C13	C	0.998490	-0.031887	0.000108
C14	C	0.997125	-0.108994	0.000146
N15	N	0.991853	0.095125	0.219512
C16	C	0.530459	0.029410	0.000070
C17	C	0.469325	0.061621	-0.075989
C18	C	0.574332	0.096305	0.000024
C19	C	0.469326	0.061652	0.076063
C20	C	0.409429	0.093898	0.000040
C21	C	0.514427	0.128535	-0.076097
C22	C	0.514434	0.128557	0.076023
C23	C	0.453318	0.160816	-0.000054
C24	C	0.669329	0.097690	0.000014
C25	C	0.314433	0.092519	0.000044
C26	C	1.145466	0.090039	0.000052
C27	C	1.238707	0.091414	0.000054
C28	C	0.985265	0.222092	-0.000036
C29	C	0.986630	0.299199	-0.000080
C30	C	0.910725	0.343696	-0.000070
C31	C	0.912008	0.416146	-0.000049
C32	C	0.989200	0.444097	-0.000019
C33	C	1.065114	0.399591	-0.000034
C34	C	1.063830	0.327142	-0.000065
C35	C	1.049873	0.552512	0.054068
C36	C	1.051155	0.624960	0.054104
C37	C	0.993166	0.667553	0.000070
C38	C	0.933881	0.637691	-0.053988
C39	C	0.932596	0.565242	-0.054018
C40	C	0.990601	0.522655	0.000013
C41	C	0.918647	0.790609	0.000102
C42	C	0.919932	0.863060	0.000117
C43	C	1.073041	0.846503	0.000141
C44	C	1.071753	0.774054	0.000117
C45	C	0.994553	0.746111	0.000101
N46	N	0.991909	0.095075	-0.219438
C47	C	0.932025	0.144410	0.469132
C48	C	1.007873	0.157895	0.530934
C49	C	0.991874	0.095108	0.408673
C50	C	0.916045	0.081640	0.530965
C51	C	0.991887	0.095094	0.591394
C52	C	1.067760	0.108624	0.469114
C53	C	0.975882	0.032342	0.469140
C54	C	1.051785	0.045800	0.530914
C55	C	0.991865	0.095118	0.303412
C56	C	0.991904	0.095083	0.696653
H57	H	0.564006	-0.026108	0.000008
H58	H	1.097102	0.517838	0.098068
N59	N	0.540757	0.165966	-0.161379
H60	H	0.511947	0.215452	-0.161674
H61	H	0.604004	0.166590	-0.160828
H62	H	0.419945	0.216391	-0.000129
H63	H	0.850195	0.452382	-0.000039
N64	N	1.145706	0.279149	-0.000064
H65	H	1.148574	0.248699	0.057098
H66	H	1.148547	0.248789	-0.057281
H67	H	0.851913	0.070255	0.558136
H68	H	1.102458	0.004098	0.557870
H69	H	0.881464	0.186137	0.442006
H70	H	0.534448	0.156834	0.140297
H71	H	1.099425	0.649269	0.098125
N72	N	0.838062	0.911060	0.000125
H73	H	0.804374	0.902094	-0.057051
H74	H	0.804435	0.902026	0.057328
N75	N	0.442847	0.024172	0.161237
H76	H	0.471204	-0.025457	0.161193
H77	H	0.460060	0.048996	0.218608
H78	H	0.847864	0.320950	-0.000091
N79	N	0.442839	0.024140	-0.161124
H80	H	0.471190	-0.025491	-0.161042
H81	H	0.379526	0.023941	-0.160747
N82	N	0.835387	0.760464	0.000080
H83	H	0.787494	0.799649	0.000082
H84	H	0.831529	0.730787	-0.057103
H85	H	0.884325	0.540931	-0.098035
N86	N	0.871334	0.683618	-0.112280
H87	H	0.881147	0.734045	-0.104068
H88	H	0.878981	0.670126	-0.179675
H89	H	1.135892	0.869260	0.000098
N90	N	1.153622	0.726055	0.000116
H91	H	1.202719	0.754753	0.000140
H92	H	1.156412	0.695612	0.057278
H93	H	1.021411	0.210969	0.558077
H94	H	1.127965	0.422353	-0.000027
H95	H	1.131906	0.120073	0.442060
H96	H	0.962320	-0.020715	0.441975
