data_functionalizedCrystal
_audit_creation_method	'MofGen! by Chris Wilmer'
_symmetry_space_group_name_H-M	'P1'
_symmetry_Int_Tables_number	1
_symmetry_cell_setting	triclinic
loop_
_symmetry_equiv_pos_as_xyz
  x,y,z
_cell_length_a	12.759401
_cell_length_b	16.625546
_cell_length_c	12.759393
_cell_angle_alpha	89.964881
_cell_angle_beta	89.979213
_cell_angle_gamma	90.022950
loop_
_atom_site_label
_atom_site_type_symbol
_atom_site_fract_x
_atom_site_fract_y
_atom_site_fract_z
Zn1	Zn	1.606210	-0.320952	-0.593982
Zn2	Zn	1.606077	-0.455806	-0.418288
Zn3	Zn	1.430508	-0.320993	-0.418318
Zn4	Zn	1.430476	-0.455748	-0.593926
O5	O	1.518318	-0.388375	-0.506128
O6	O	1.753213	-0.338849	-0.570687
O7	O	1.582745	-0.437965	-0.271271
O8	O	1.453884	-0.208155	-0.441656
O9	O	1.753116	-0.437925	-0.441605
O10	O	1.582971	-0.208125	-0.570716
O11	O	1.453756	-0.338918	-0.271293
O12	O	1.283483	-0.338861	-0.441601
O13	O	1.453830	-0.437825	-0.740954
O14	O	1.283460	-0.437864	-0.570620
O15	O	1.582940	-0.338792	-0.740996
O16	O	1.582714	-0.568631	-0.441551
O17	O	1.453701	-0.568588	-0.570591
C18	C	1.245350	-0.388361	-0.506108
C19	C	1.128574	-0.388375	-0.506125
C20	C	1.518218	-0.597866	-0.506084
C21	C	1.518272	-0.687487	-0.506101
C22	C	0.963932	-0.439894	-0.438841
C23	C	1.073656	-0.439882	-0.438821
C24	C	1.073762	-0.336870	-0.573445
C25	C	0.964040	-0.336879	-0.573458
C26	C	1.223535	-0.468565	-0.314829
C27	C	1.278343	-0.520076	-0.247521
C28	C	1.242693	-0.598740	-0.231210
C29	C	1.152237	-0.625908	-0.282222
C30	C	1.097435	-0.574401	-0.349537
C31	C	1.133083	-0.495726	-0.365829
C32	C	0.814159	-0.308204	-0.697452
C33	C	0.759355	-0.256700	-0.764774
C34	C	0.795002	-0.178036	-0.781096
C35	C	0.885462	-0.150870	-0.730103
C36	C	0.940266	-0.202374	-0.662781
C37	C	0.904611	-0.281038	-0.646457
C38	C	1.518455	-1.015662	-0.506210
C39	C	1.518401	-0.924354	-0.506183
C40	C	1.518363	-0.851577	-0.506155
C41	C	1.518310	-0.760263	-0.506128
C42	C	1.792351	-0.388389	-0.506149
C43	C	1.909128	-0.388395	-0.506158
C44	C	1.518396	-0.388297	-0.780162
C45	C	1.518430	-0.388264	-0.896939
C46	C	1.518446	-0.178066	-0.506196
C47	C	1.518501	-0.088445	-0.506224
C48	C	1.585663	-0.336689	-0.951824
C49	C	1.585681	-0.336655	-1.061548
C50	C	1.451230	-0.439777	-1.061492
C51	C	1.451208	-0.439807	-0.951770
C52	C	1.623309	-0.241524	-1.211536
C53	C	1.690559	-0.189956	-1.266425
C54	C	1.793074	-0.177593	-1.230835
C55	C	1.828360	-0.216810	-1.140357
C56	C	1.761117	-0.268384	-1.085474
C57	C	1.658587	-0.280731	-1.121063
C58	C	1.413589	-0.534939	-0.801780
C59	C	1.346350	-0.586518	-0.746895
C60	C	1.243834	-0.598889	-0.782483
C61	C	1.208551	-0.559686	-0.872964
C62	C	1.275790	-0.508107	-0.927849
C63	C	1.378306	-0.495735	-0.892253
C64	C	1.518300	-0.388394	-0.233161
C65	C	1.518470	-0.388200	-0.116385
H66	H	1.023789	-0.596521	-0.391072
H67	H	1.539831	-0.251579	-1.240517
H68	H	1.014061	-0.180310	-0.621451
H69	H	1.118485	-0.294929	-0.628240
N70	N	1.103831	-0.572332	-0.909314
N71	N	1.043807	-0.618384	-0.860301
H72	H	0.969847	-0.627320	-0.885971
N73	N	1.175133	-0.651569	-0.726427
N74	N	1.083599	-0.662600	-0.758216
H75	H	1.035076	-0.699802	-0.718631
N76	N	0.921861	-0.070510	-0.746772
N77	N	0.872913	-0.024531	-0.806870
H78	H	0.898614	0.032227	-0.818644
N79	N	1.654488	-0.149803	-1.358761
N80	N	1.714512	-0.103710	-1.407706
H81	H	1.689028	-0.075324	-1.472893
H82	H	1.847828	-0.135604	-1.275533
N83	N	1.115817	-0.706261	-0.265548
N84	N	1.026554	-0.718164	-0.228225
H85	H	1.000828	-0.774913	-0.216444
N86	N	1.370737	-0.492315	-0.195426
N87	N	1.402553	-0.422072	-0.209985
H88	H	1.467809	-0.402469	-0.173196
H89	H	1.375091	-0.618446	-0.673227
H90	H	1.911842	-0.206746	-1.111392
H91	H	0.750375	-0.136105	-0.835924
H92	H	1.252563	-0.404509	-0.328094
N93	N	0.666958	-0.284462	-0.816862
N94	N	0.635130	-0.354698	-0.802275
H95	H	0.569874	-0.374305	-0.839060
H96	H	0.785127	-0.372260	-0.684169
H97	H	1.640397	-0.294718	-0.907183
N98	N	1.382549	-0.492413	-1.117497
N99	N	1.285606	-0.487045	-1.105228
H100	H	1.237095	-0.524216	-1.144783
N101	N	1.298692	-0.651349	-0.162460
N102	N	1.379454	-0.627088	-0.116930
H103	H	1.419007	-0.664239	-0.068372
H104	H	1.789848	-0.300317	-1.011812
N105	N	0.907856	-0.492519	-0.370092
N106	N	0.956807	-0.538495	-0.309991
H107	H	0.917207	-0.575663	-0.261432
H108	H	1.247054	-0.476186	-1.001524
H109	H	1.497065	-0.524864	-0.772790
