data_functionalizedCrystal
_audit_creation_method	'MofGen! by Chris Wilmer'
_symmetry_space_group_name_H-M	'P1'
_symmetry_Int_Tables_number	1
_symmetry_cell_setting	triclinic
loop_
_symmetry_equiv_pos_as_xyz
  x,y,z
_cell_length_a	12.759401
_cell_length_b	21.295417
_cell_length_c	12.759393
_cell_angle_alpha	90.037048
_cell_angle_beta	90.019596
_cell_angle_gamma	90.029979
loop_
_atom_site_label
_atom_site_type_symbol
_atom_site_fract_x
_atom_site_fract_y
_atom_site_fract_z
Zn1	Zn	1.606157	-0.250574	0.593935
Zn2	Zn	2.106157	0.249426	1.093935
Zn3	Zn	1.606002	-0.355856	0.418235
Zn4	Zn	2.106002	0.144144	0.918235
Zn5	Zn	1.430456	-0.250605	0.418274
Zn6	Zn	1.930456	0.249395	0.918274
Zn7	Zn	1.430401	-0.355810	0.593876
Zn8	Zn	1.930401	0.144190	1.093876
O9	O	1.518254	-0.303211	0.506080
O10	O	2.018254	0.196789	1.006080
O11	O	1.753157	-0.264546	0.570636
O12	O	2.253157	0.235454	1.070636
O13	O	1.582673	-0.341927	0.271219
O14	O	2.082673	0.158073	0.771219
O15	O	1.453850	-0.162512	0.441617
O16	O	1.953850	0.337488	0.941617
O17	O	1.753043	-0.341897	0.441550
O18	O	2.253043	0.158103	0.941550
O19	O	1.582937	-0.162489	0.570674
O20	O	2.082937	0.337511	1.070674
O21	O	1.453700	-0.264599	0.271248
O22	O	1.953700	0.235401	0.771248
O23	O	1.283427	-0.264555	0.441560
O24	O	1.783427	0.235445	0.941560
O25	O	1.453758	-0.341818	0.740905
O26	O	1.953758	0.158182	1.240905
O27	O	1.283388	-0.341848	0.570574
O28	O	1.783388	0.158152	1.070574
O29	O	1.582885	-0.264501	0.740948
O30	O	2.082885	0.235499	1.240948
O31	O	1.582621	-0.443939	0.441493
O32	O	2.082621	0.056061	0.941493
O33	O	1.453608	-0.443905	0.570536
O34	O	1.953608	0.056095	1.070536
C35	C	1.245287	-0.303200	0.506065
C36	C	1.745287	0.196800	1.006065
C37	C	1.128510	-0.303210	0.506084
C38	C	1.628510	0.196790	1.006084
C39	C	0.963924	-0.343528	0.573163
C40	C	1.463924	0.156472	1.073163
C41	C	1.073648	-0.343521	0.573152
C42	C	1.573648	0.156479	1.073152
C43	C	1.073642	-0.262909	0.439015
C44	C	1.573642	0.237091	0.939015
C45	C	0.963920	-0.262920	0.439021
C46	C	1.463920	0.237080	0.939021
C47	C	1.518120	-0.466763	0.506027
C48	C	2.018120	0.033237	1.006027
C49	C	1.518159	-0.536731	0.506039
C50	C	2.018159	-0.036731	1.006039
C51	C	1.585336	-0.569529	0.573287
C52	C	2.085336	-0.069529	1.073287
C53	C	1.585373	-0.635271	0.573313
C54	C	2.085373	-0.135271	1.073313
C55	C	1.518244	-0.668214	0.506072
C56	C	2.018244	-0.168214	1.006072
C57	C	1.451054	-0.635408	0.438819
C58	C	1.951054	-0.135408	0.938819
C59	C	1.451011	-0.569667	0.438803
C60	C	1.951011	-0.069667	0.938803
N61	N	1.510303	-0.771482	0.414126
N62	N	2.010303	-0.271482	0.914126
N63	N	1.510350	-0.833933	0.414144
N64	N	2.010350	-0.333933	0.914144
C65	C	1.518367	-0.866288	0.506119
C66	C	2.018367	-0.366288	1.006119
N67	N	1.526356	-0.833833	0.598077
N68	N	2.026356	-0.333833	1.098077
N69	N	1.526315	-0.771375	0.598057
N70	N	2.026315	-0.271375	1.098057
C71	C	1.518282	-0.739499	0.506083
C72	C	2.018282	-0.239499	1.006083
C73	C	1.585588	-0.970371	0.573401
C74	C	2.085588	-0.470371	1.073401
C75	C	1.585617	-1.036115	0.573429
C76	C	2.085617	-0.536115	1.073429
C77	C	1.451304	-1.036251	0.438926
C78	C	1.951304	-0.536251	0.938926
C79	C	1.451268	-0.970508	0.438908
C80	C	1.951268	-0.470508	0.938908
C81	C	1.518416	-0.937573	0.506144
C82	C	2.018416	-0.437573	1.006144
C83	C	1.792287	-0.303223	0.506095
C84	C	2.292287	0.196777	1.006095
C85	C	1.909064	-0.303228	0.506101
C86	C	2.409064	0.196772	1.006101
C87	C	1.518333	-0.303151	0.780113
C88	C	2.018333	0.196849	1.280113
C89	C	1.518366	-0.303125	0.896890
C90	C	2.018366	0.196875	1.396890
C91	C	1.518417	-0.139021	0.506156
C92	C	2.018417	0.360979	1.006156
C93	C	1.518486	-0.069053	0.506189
C94	C	2.018486	0.430947	1.006189
C95	C	1.518236	-0.303226	0.233112
C96	C	2.018236	0.196774	0.733112
C97	C	1.518406	-0.303075	0.116336
C98	C	2.018406	0.196925	0.616336
C99	C	1.585607	-0.262860	0.951776
C100	C	2.085607	0.237140	1.451776
C101	C	1.585625	-0.262833	1.061500
C102	C	2.085625	0.237167	1.561500
C103	C	1.451157	-0.343341	1.061443
C104	C	1.951157	0.156659	1.561443
C105	C	1.451135	-0.343365	0.951720
C106	C	1.951135	0.156635	1.451720
H107	H	0.919252	-0.230102	0.384406
H108	H	1.419252	0.269898	0.884406
F109	F	1.657200	-0.219982	1.119909
F110	F	2.157200	0.280018	1.619909
F111	F	1.656795	-0.534480	0.644852
F112	F	2.156795	-0.034480	1.144852
F113	F	1.132029	-0.386415	0.644526
F114	F	1.632029	0.113585	1.144526
H115	H	1.118320	-0.230090	0.384402
H116	H	1.618320	0.269910	0.884402
F117	F	1.379769	-0.935601	0.367331
F118	F	1.879769	-0.435601	0.867331
H119	H	1.640068	-0.661980	0.628087
H120	H	2.140068	-0.161980	1.128087
H121	H	1.640260	-0.943554	0.628153
H122	H	2.140260	-0.443554	1.128153
F123	F	0.905545	-0.386429	0.644553
F124	F	1.405545	0.113571	1.144553
F125	F	1.379856	-1.071306	0.367365
F126	F	1.879856	-0.571306	0.867365
F127	F	1.379605	-0.670469	0.367262
F128	F	1.879605	-0.170469	0.867262
F129	F	1.379559	-0.386220	0.893303
F130	F	1.879559	0.113780	1.393303
F131	F	1.379508	-0.534760	0.367226
F132	F	1.879508	-0.034760	0.867226
H133	H	1.640321	-1.062818	0.628195
H134	H	2.140321	-0.562818	1.128195
F135	F	1.379613	-0.386167	1.119806
F136	F	1.879613	0.113833	1.619806
H137	H	1.640348	-0.230093	0.907136
H138	H	2.140348	0.269907	1.407136
