data_functionalizedCrystal
_audit_creation_method	'MofGen! by Chris Wilmer'
_symmetry_space_group_name_H-M	'P1'
_symmetry_Int_Tables_number	1
_symmetry_cell_setting	triclinic
loop_
_symmetry_equiv_pos_as_xyz
  x,y,z
_cell_length_a	12.827893
_cell_length_b	17.077402
_cell_length_c	17.077396
_cell_angle_alpha	90.029784
_cell_angle_beta	90.019531
_cell_angle_gamma	90.021092
loop_
_atom_site_label
_atom_site_type_symbol
_atom_site_fract_x
_atom_site_fract_y
_atom_site_fract_z
Zn1	Zn	-1.597598	0.312546	-0.443836
Zn2	Zn	-1.597474	0.443820	-0.312567
Zn3	Zn	-1.422845	0.312569	-0.312584
Zn4	Zn	-1.422802	0.443769	-0.443791
O5	O	-1.510180	0.378176	-0.378195
O6	O	-1.743818	0.329971	-0.426435
O7	O	-1.574275	0.426441	-0.202722
O8	O	-1.446096	0.202719	-0.330021
O9	O	-1.743727	0.426418	-0.329992
O10	O	-1.574486	0.202702	-0.426451
O11	O	-1.445976	0.330010	-0.202735
O12	O	-1.276603	0.329961	-0.329977
O13	O	-1.446023	0.426331	-0.553644
O14	O	-1.276572	0.426353	-0.426374
O15	O	-1.574445	0.329922	-0.553677
O16	O	-1.574234	0.553661	-0.329948
O17	O	-1.445903	0.553623	-0.426358
C18	C	-1.238670	0.378155	-0.378173
C19	C	-1.122517	0.378164	-0.378182
C20	C	-0.950643	0.425824	-0.330405
C21	C	-1.070693	0.425815	-0.330395
C22	C	-1.510079	0.582124	-0.378163
C23	C	-1.510131	0.669374	-0.378176
C24	C	-1.510243	0.378118	-0.582939
C25	C	-1.510270	0.378094	-0.670189
C26	C	-0.782750	0.378192	-0.378211
C27	C	-0.898903	0.378182	-0.378201
C28	C	-1.510309	0.173432	-0.378243
C29	C	-1.510365	0.086182	-0.378264
C30	C	-1.577022	0.710357	-0.328030
C31	C	-1.577073	0.792338	-0.328050
C32	C	-1.510227	0.833333	-0.378213
C33	C	-1.443334	0.792344	-0.428365
C34	C	-1.443289	0.710365	-0.428348
C35	C	-1.443431	0.963214	-0.428395
C36	C	-1.443474	1.045198	-0.428410
C37	C	-1.577215	1.045187	-0.328096
C38	C	-1.577170	0.963208	-0.328079
C39	C	-1.510275	0.922224	-0.378231
C40	C	-1.577142	0.327889	-0.711198
C41	C	-1.577154	0.327863	-0.793178
C42	C	-1.510300	0.378046	-0.834148
C43	C	-1.443420	0.428253	-0.793134
C44	C	-1.443403	0.428274	-0.711155
C45	C	-1.443463	0.428205	-0.964004
C46	C	-1.443481	0.428185	-1.045989
C47	C	-1.577213	0.327794	-1.046027
C48	C	-1.577196	0.327816	-0.964048
C49	C	-1.510318	0.378024	-0.923039
C50	C	-1.510177	0.378177	-0.174247
C51	C	-1.510352	0.377980	-0.086997
H52	H	-0.906063	0.466615	-0.289490
H53	H	-1.115189	0.466607	-0.289479
H54	H	-1.388962	0.929847	-0.469236
H55	H	-1.078028	0.337377	-0.419107
C56	C	-1.369841	0.483505	-0.666045
N57	N	-1.314430	0.525104	-0.632070
H58	H	-1.631686	1.078560	-0.287264
C59	C	-1.650738	0.272610	-0.918983
N60	N	-1.706126	0.231025	-0.885039
H61	H	-1.388987	0.469078	-0.930617
C62	C	-1.369800	0.837441	-0.483542
N63	N	-1.314408	0.871408	-0.525100
H64	H	-1.388982	0.469110	-0.826498
H65	H	-0.943483	0.337384	-0.419110
C66	C	-1.369705	0.665283	-0.483514
N67	N	-1.314282	0.631329	-0.525068
C68	C	-1.650779	0.272564	-1.091139
N69	N	-1.706190	0.230969	-1.125120
H70	H	-1.631586	0.287026	-0.677846
H71	H	-1.631450	0.676984	-0.287178
C72	C	-1.650686	0.918115	-0.272885
N73	N	-1.706057	0.884150	-0.231309
H74	H	-1.631610	0.286983	-0.826564
C75	C	-1.369952	1.090291	-0.483601
N76	N	-1.314578	1.124256	-0.525173
C77	C	-1.369931	0.483384	-1.091054
N78	N	-1.314530	0.524960	-1.124998
H79	H	-1.631541	0.825703	-0.287215
