data_functionalizedCrystal
_audit_creation_method	'MofGen! by Chris Wilmer'
_symmetry_space_group_name_H-M	'P1'
_symmetry_Int_Tables_number	1
_symmetry_cell_setting	triclinic
loop_
_symmetry_equiv_pos_as_xyz
  x,y,z
_cell_length_a	16.992697
_cell_length_b	16.992700
_cell_length_c	16.053802
_cell_angle_alpha	92.734161
_cell_angle_beta	92.750118
_cell_angle_gamma	89.332188
loop_
_atom_site_label
_atom_site_type_symbol
_atom_site_fract_x
_atom_site_fract_y
_atom_site_fract_z
O1	O	-1.053958	0.163817	-0.069330
O2	O	-0.553958	0.663817	0.430670
O3	O	-0.825559	0.161984	-0.069357
O4	O	-0.325559	0.661984	0.430643
O5	O	-0.938843	0.048701	-0.069322
O6	O	-0.438843	0.548701	0.430678
O7	O	-0.940674	0.277099	-0.069365
O8	O	-0.440674	0.777099	0.430635
O9	O	-0.932606	0.054909	0.069535
O10	O	-0.432606	0.554909	0.569535
O11	O	-0.819322	0.168192	0.069500
O12	O	-0.319322	0.668192	0.569500
O13	O	-1.047721	0.170025	0.069527
O14	O	-0.547721	0.670025	0.569527
Zn15	Zn	-0.932531	0.170094	0.091560
Zn16	Zn	-0.432531	0.670094	0.591560
Zn17	Zn	-0.940749	0.161915	-0.091390
Zn18	Zn	-0.440749	0.661915	0.408610
O19	O	-0.934437	0.283307	0.069492
O20	O	-0.434437	0.783307	0.569492
C21	C	-0.793080	0.162732	0.000068
C22	C	-0.293080	0.662732	0.500068
C23	C	-0.705596	0.155703	0.000058
C24	C	-0.205596	0.655703	0.500058
C25	C	-0.659605	0.223520	0.000046
C26	C	-0.159605	0.723520	0.500046
C27	C	-0.577404	0.216911	0.000057
C28	C	-0.077404	0.716911	0.500057
C29	C	-0.541196	0.142484	0.000075
C30	C	-0.041196	0.642484	0.500075
C31	C	-0.587193	0.074662	0.000090
C32	C	-0.087193	0.574662	0.500090
C33	C	-0.669392	0.081272	0.000085
C34	C	-0.169392	0.581272	0.500085
C35	C	-0.295881	0.115091	0.000099
C36	C	0.204119	0.615091	0.500099
C37	C	-0.213675	0.108486	0.000102
C38	C	0.286325	0.608486	0.500102
C39	C	-0.203892	0.250736	0.000070
C40	C	0.296108	0.750736	0.500070
C41	C	-0.286094	0.257339	0.000059
C42	C	0.213906	0.757339	0.500059
C43	C	-0.332084	0.189517	0.000079
C44	C	0.167916	0.689517	0.500079
N45	N	-0.457173	0.135728	0.000084
N46	N	0.042827	0.635728	0.500084
N47	N	-0.416104	0.196274	0.000076
N48	N	0.083896	0.696274	0.500076
C49	C	-0.933369	0.022445	0.000109
C50	C	-0.433369	0.522445	0.500109
C51	C	-0.926340	-0.065039	0.000120
C52	C	-0.426340	0.434961	0.500120
C53	C	-0.879122	-0.556961	0.000038
C54	C	-0.379122	-0.056961	0.500038
C55	C	-0.885731	-0.474760	0.000047
C56	C	-0.385731	0.025240	0.500047
C57	C	-0.960158	-0.438552	0.000067
C58	C	-0.460158	0.061448	0.500067
C59	C	-1.027981	-0.484550	0.000070
C60	C	-0.527981	0.015450	0.500070
C61	C	-1.021371	-0.566750	0.000055
C62	C	-0.521371	-0.066750	0.500055
C63	C	-0.987553	-0.193236	0.000108
C64	C	-0.487553	0.306764	0.500108
C65	C	-0.994158	-0.111030	0.000125
C66	C	-0.494158	0.388970	0.500125
C67	C	-0.851907	-0.101246	0.000100
C68	C	-0.351907	0.398754	0.500100
C69	C	-0.845304	-0.183448	0.000090
C70	C	-0.345304	0.316552	0.500090
C71	C	-0.913127	-0.229439	0.000089
C72	C	-0.413127	0.270561	0.500089
N73	N	-0.966916	-0.354529	0.000079
N74	N	-0.466916	0.145471	0.500079
N75	N	-0.906369	-0.313460	0.000071
N76	N	-0.406369	0.186540	0.500071
C77	C	-0.080199	0.169276	0.000096
C78	C	0.419801	0.669276	0.500096
C79	C	-0.167684	0.176303	0.000089
C80	C	0.332316	0.676303	0.500089
C81	C	-0.939911	0.309563	0.000059
C82	C	-0.439911	0.809563	0.500059
C83	C	-0.946940	0.397047	0.000043
C84	C	-0.446940	0.897047	0.500043
N85	N	-0.926928	0.175676	0.216419
N86	N	-0.426928	0.675676	0.716419
N87	N	-0.946357	0.156327	-0.216249
N88	N	-0.446357	0.656327	0.283751
C89	C	-0.975151	0.127494	0.260127
C90	C	-0.475151	0.627494	0.760127
C91	C	-0.971239	0.131406	0.347533
C92	C	-0.471239	0.631406	0.847533
C93	C	-0.919109	0.183506	0.391228
C94	C	-0.419109	0.683506	0.891228
C95	C	-0.870881	0.231690	0.347513
C96	C	-0.370881	0.731690	0.847513
C97	C	-0.874789	0.227773	0.260109
C98	C	-0.374789	0.727773	0.760109
C99	C	-0.902037	0.200594	0.652632
C100	C	-0.402037	0.700594	1.152632
C101	C	-0.898135	0.204509	0.740043
C102	C	-0.398135	0.704509	1.240043
C103	C	-0.998492	0.104224	0.740056
C104	C	-0.498492	0.604224	1.240056
C105	C	-1.002399	0.100315	0.652651
C106	C	-0.502399	0.600315	1.152651
C107	C	-0.954168	0.148496	0.608943
C108	C	-0.454168	0.648496	1.108943
N109	N	-0.915112	0.187508	0.480571
N110	N	-0.415112	0.687508	0.980571
N111	N	-0.958162	0.144489	0.519602
N112	N	-0.458162	0.644489	1.019602
H113	H	-0.315569	0.317944	0.000035
H114	H	0.184431	0.817944	0.500035
F115	F	-1.059737	-0.242173	0.000113
F116	F	-0.559737	0.257827	0.500113
F117	F	-0.344816	0.042907	0.000119
F118	F	0.155184	0.542907	0.500119
F119	F	-1.093552	-0.615697	0.000057
F120	F	-0.593552	-0.115697	0.500057
F121	F	-0.766089	-0.221977	0.000066
F122	F	-0.266089	0.278023	0.500066
F123	F	-0.799906	-0.595489	0.000022
F124	F	-0.299906	-0.095489	0.500022
F125	F	-1.022562	0.080124	0.394051
F126	F	-0.522562	0.580124	0.894051
H127	H	-0.557705	0.014063	0.000117
H128	H	-0.057705	0.514063	0.500117
H129	H	-0.166439	0.305952	0.000056
H130	H	0.333561	0.805952	0.500056
F131	F	-0.850710	0.251874	0.606123
F132	F	-0.350710	0.751874	1.106123
F133	F	-0.813551	-0.425816	0.000034
F134	F	-0.313551	0.074184	0.500034
F135	F	-0.815396	0.287135	0.394017
F136	F	-0.315396	0.787135	0.894017
H137	H	-0.706837	0.026047	0.000094
H138	H	-0.206837	0.526047	0.500094
H139	H	-1.088581	-0.455063	0.000088
H140	H	-0.588581	0.044937	0.500088
F141	F	-0.175141	0.029268	0.000135
F142	F	0.324859	0.529268	0.500135
F143	F	-0.779731	-0.052294	0.000098
F144	F	-0.279731	0.447706	0.500098
H145	H	-1.054768	-0.081553	0.000142
H146	H	-0.554768	0.418447	0.500142
H147	H	-1.017604	0.085072	0.224557
H148	H	-0.517604	0.585072	0.724557
H149	H	-0.835520	0.267007	0.224522
H150	H	-0.335520	0.767007	0.724522
F151	F	-0.842648	0.259966	0.786541
F152	F	-0.342648	0.759966	1.286541
F153	F	-0.698134	0.302736	0.000021
F154	F	-0.198134	0.802736	0.500021
F155	F	-0.528461	0.289092	0.000040
F156	F	-0.028461	0.789092	0.500040
F157	F	-1.057882	0.044866	0.606148
F158	F	-0.557882	0.544866	1.106148
H159	H	-1.037758	0.064996	0.775651
H160	H	-0.537758	0.564996	1.275651
