data_functionalizedCrystal
_audit_creation_method	'MofGen! by Chris Wilmer'
_symmetry_space_group_name_H-M	'P1'
_symmetry_Int_Tables_number	1
_symmetry_cell_setting	triclinic
loop_
_symmetry_equiv_pos_as_xyz
  x,y,z
_cell_length_a	6.817900
_cell_length_b	17.253917
_cell_length_c	15.185107
_cell_angle_alpha	98.816933
_cell_angle_beta	104.257894
_cell_angle_gamma	102.659311
loop_
_atom_site_label
_atom_site_type_symbol
_atom_site_fract_x
_atom_site_fract_y
_atom_site_fract_z
V1	V	-4.036553	-0.111870	-0.292068
O2	O	-4.022625	0.004800	-0.277629
O3	O	-3.989209	-0.221267	-0.298609
O4	O	-3.991871	-0.110402	-0.415553
O5	O	-4.019944	-0.106832	-0.159876
V6	V	-4.519562	-0.097885	-0.275219
O7	O	-4.298938	-0.142548	-0.329026
O8	O	-4.707373	-0.067208	-0.238261
O9	O	-4.343698	0.011511	-0.268678
O10	O	-4.650886	-0.214556	-0.289658
O11	O	-4.653567	-0.102924	-0.407411
O12	O	-4.341036	-0.099354	-0.151734
C13	C	-3.834347	-0.247927	-0.296205
C14	C	-3.876950	-0.337362	-0.302377
C15	C	-3.854074	-0.367725	-0.221136
C16	C	-3.894124	-0.451759	-0.226938
C17	C	-3.957036	-0.505428	-0.313981
C18	C	-3.979918	-0.475060	-0.395228
C19	C	-3.939883	-0.391028	-0.389425
C20	C	-4.081385	-0.757999	-0.340358
C21	C	-4.121414	-0.842036	-0.346155
C22	C	-4.035621	-0.818729	-0.177864
C23	C	-3.995576	-0.734696	-0.172069
C24	C	-4.018473	-0.704335	-0.253316
N25	N	-3.997968	-0.591324	-0.319914
N26	N	-3.977555	-0.618441	-0.247383
C27	C	-3.837742	-0.106507	-0.445377
C28	C	-3.882500	-0.106031	-0.546383
C29	C	-4.113350	-0.177658	-0.992158
C30	C	-4.030529	-0.030251	-0.954733
C31	C	-3.988430	-0.030711	-0.859835
C32	C	-4.008792	-0.104646	-0.831094
C33	C	-4.071254	-0.178121	-0.897251
C34	C	-3.925986	0.042762	-0.793671
C35	C	-3.883884	0.042305	-0.698766
C36	C	-3.904232	-0.031630	-0.670023
C37	C	-3.966696	-0.105108	-0.736187
C38	C	-3.987058	-0.179043	-0.707447
C39	C	-4.049508	-0.252522	-0.773609
C40	C	-4.091602	-0.252056	-0.868508
C41	C	-3.862138	-0.032096	-0.575124
C42	C	-3.944962	-0.179506	-0.612540
C43	C	-4.161903	0.038167	-0.271080
C44	C	-4.098538	0.127601	-0.264914
C45	C	-4.158508	-0.103251	-0.121905
C46	C	-4.092988	-0.103723	-0.020898
H47	H	-3.875499	-0.476475	-0.160784
H48	H	-4.100005	-0.733290	-0.406515
C49	C	-4.048139	-0.533457	-0.489644
C50	C	-4.078246	-0.613547	-0.477339
C51	C	-4.141057	-0.667361	-0.564294
H52	H	-4.175873	-0.527206	-0.526447
H53	H	-3.942558	-0.521891	-0.520170
H54	H	-4.183820	-0.625109	-0.446827
H55	H	-3.950539	-0.619824	-0.440551
H56	H	-4.035476	-0.655795	-0.594820
H57	H	-4.268786	-0.661102	-0.601091
H58	H	-4.161473	-0.721707	-0.555956
C59	C	-3.964733	-0.358215	-0.477734
C60	C	-4.028343	-0.423199	-0.555205
C61	C	-4.051242	-0.393005	-0.636572
H62	H	-4.067555	-0.328560	-0.482203
H63	H	-3.834268	-0.323315	-0.475916
H64	H	-4.158791	-0.458086	-0.557024
H65	H	-3.925546	-0.452861	-0.550767
H66	H	-3.920776	-0.358105	-0.634753
H67	H	-4.154062	-0.363350	-0.641031
H68	H	-4.094385	-0.437091	-0.689144
H69	H	-4.013968	0.029943	-0.978141
H70	H	-3.833037	0.102136	-0.644904
C71	C	-3.927578	-0.676348	-0.077630
C72	C	-4.074104	-0.631281	-0.073964
C73	C	-4.011509	-0.577518	0.013017
H74	H	-3.919714	-0.706372	-0.029999
H75	H	-3.793588	-0.640412	-0.068752
H76	H	-4.208058	-0.667212	-0.082831
H77	H	-4.081987	-0.601240	-0.121574
H78	H	-3.877519	-0.541582	0.021895
H79	H	-4.003646	-0.607548	0.060641
H80	H	-4.110906	-0.546928	0.015513
H81	H	-3.802831	-0.324031	-0.150256
C82	C	-4.071090	-0.332810	-0.742449
C83	C	-3.934139	-0.373293	-0.772178
C84	C	-3.953847	-0.447242	-0.743466
H85	H	-4.036935	-0.322613	-0.676462
H86	H	-4.211524	-0.365717	-0.768811
H87	H	-3.793736	-0.340392	-0.745813
H88	H	-3.968266	-0.383510	-0.838162
H89	H	-4.094280	-0.480150	-0.769827
H90	H	-3.919693	-0.437038	-0.677479
H91	H	-3.860944	-0.474723	-0.763639
C92	C	-4.159545	-0.331744	-0.940486
C93	C	-4.192113	-0.315513	-1.029748
C94	C	-4.254738	-0.388900	-1.096080
H95	H	-4.053162	-0.359592	-0.929604
H96	H	-4.286351	-0.364684	-0.935823
H97	H	-4.065323	-0.282586	-1.034408
H98	H	-4.298506	-0.287677	-1.040659
H99	H	-4.381544	-0.421840	-1.091417
H100	H	-4.148347	-0.416742	-1.085190
H101	H	-4.276862	-0.377898	-1.156652
C102	C	-3.903899	0.122948	-0.825058
C103	C	-3.954064	0.107625	-0.922327
C104	C	-3.933710	0.181476	-0.951276
H105	H	-3.996592	0.150643	-0.805065
H106	H	-3.763343	0.155739	-0.798716
H107	H	-4.094599	0.074847	-0.948659
H108	H	-3.861386	0.079942	-0.942344
H109	H	-3.793154	0.214267	-0.924935
H110	H	-4.026405	0.209166	-0.931278
H111	H	-3.967725	0.171090	-1.017275
C112	C	-3.794270	0.047759	-0.503433
C113	C	-3.785414	0.112607	-0.548914
C114	C	-3.722872	0.186186	-0.482902
H115	H	-3.892646	0.048180	-0.468748
H116	H	-3.659444	0.053266	-0.462493
H117	H	-3.920221	0.107101	-0.589837
H118	H	-3.687033	0.112212	-0.583595
H119	H	-3.588045	0.191693	-0.441963
H120	H	-3.821255	0.186598	-0.448221
H121	H	-3.716836	0.230194	-0.513751
H122	H	-4.016987	-0.843458	-0.111718
H123	H	-4.164189	-0.237482	-1.046030
H124	H	-4.172636	-0.885733	-0.417039
H125	H	-3.961537	-0.239713	-0.589148
