data_functionalizedCrystal
_audit_creation_method	'MofGen! by Chris Wilmer'
_symmetry_space_group_name_H-M	'P1'
_symmetry_Int_Tables_number	1
_symmetry_cell_setting	triclinic
loop_
_symmetry_equiv_pos_as_xyz
  x,y,z
_cell_length_a	16.109301
_cell_length_b	14.044220
_cell_length_c	14.586319
_cell_angle_alpha	89.995213
_cell_angle_beta	89.999213
_cell_angle_gamma	88.325179
loop_
_atom_site_label
_atom_site_type_symbol
_atom_site_fract_x
_atom_site_fract_y
_atom_site_fract_z
O1	O	1.112195	0.121835	-0.076185
O2	O	0.871261	0.136997	-0.076199
O3	O	0.988112	-0.008568	-0.076183
O4	O	0.995345	0.267399	-0.076201
O5	O	0.988103	-0.008570	0.076298
O6	O	0.871252	0.136995	0.076281
O7	O	1.112186	0.121832	0.076296
Cu8	Cu	0.991719	0.129413	0.090212
Cu9	Cu	0.991729	0.129416	-0.090115
O10	O	0.995336	0.267397	0.076280
C11	C	0.840236	0.136381	0.000039
C12	C	0.747804	0.134540	0.000034
C13	C	0.531640	0.216634	0.000039
C14	C	0.444790	0.214896	0.000045
C15	C	0.451815	0.042189	0.000052
C16	C	0.538663	0.043927	0.000053
C17	C	0.578573	0.131153	0.000042
C18	C	0.404875	0.127677	0.000047
C19	C	0.310709	0.125792	0.000054
C20	C	0.672745	0.133038	0.000037
C21	C	0.984941	-0.043882	0.000058
C22	C	0.975498	-0.149105	0.000058
C23	C	0.958232	-0.341761	0.000044
C24	C	1.025212	-0.399415	0.000045
C25	C	1.015605	-0.506616	0.000037
C26	C	0.967838	-0.234551	0.000052
C27	C	1.143211	0.122448	0.000056
C28	C	1.235644	0.124289	0.000055
C29	C	0.998506	0.302711	0.000037
C30	C	1.007950	0.407934	0.000031
N31	N	0.991717	0.129411	0.217043
N32	N	0.991737	0.129411	-0.216946
C33	C	1.043479	0.064976	0.452057
C34	C	1.043481	0.064974	0.548038
C35	C	0.939969	0.193848	0.548033
C36	C	0.939963	0.193845	0.452054
C37	C	0.991723	0.129410	0.404068
C38	C	0.991731	0.129411	0.596029
C39	C	0.991733	0.129409	0.700096
C40	C	0.991720	0.129411	0.299994
H41	H	0.419309	-0.028827	0.000067
H42	H	1.089769	-0.368264	-0.000012
C43	C	1.145787	-0.062417	0.461706
C44	C	1.100363	-0.005858	0.399310
H45	H	1.180901	-0.106153	0.429142
H46	H	1.178621	-0.022952	0.499131
H47	H	1.108643	-0.096516	0.499151
H48	H	1.137507	0.028247	0.361869
H49	H	1.067527	-0.045328	0.361869
C50	C	0.811007	-0.309711	0.000039
C51	C	0.871085	-0.383806	0.000037
H52	H	0.757207	-0.335678	0.000030
H53	H	0.817526	-0.271617	0.053211
H54	H	0.817535	-0.271597	-0.053136
H55	H	0.864560	-0.421916	0.053216
H56	H	0.864562	-0.421916	-0.053141
C57	C	1.051968	-0.064024	0.655977
C58	C	1.100374	-0.005853	0.600787
H59	H	1.087094	-0.107756	0.688536
H60	H	1.021155	-0.025651	0.698290
H61	H	1.014835	-0.098127	0.618528
H62	H	1.137503	0.028256	0.638236
H63	H	1.131201	-0.044231	0.558468
C64	C	0.536890	-0.126969	0.000050
C65	C	0.590259	-0.050041	0.000052
H66	H	0.568745	-0.184976	0.000046
H67	H	0.502871	-0.124061	0.053219
H68	H	0.502869	-0.124047	-0.053128
H69	H	0.624276	-0.052959	0.053233
H70	H	0.624292	-0.052951	-0.053123
C71	C	0.343047	0.313132	-0.078345
C72	C	0.393199	0.308859	0.000037
H73	H	0.311194	0.371141	-0.078345
H74	H	0.377073	0.310223	-0.131509
H75	H	0.306849	0.260935	-0.078329
H76	H	0.429401	0.361053	0.000017
H77	H	0.359170	0.311778	0.053214
C78	C	0.894024	0.251084	0.695162
C79	C	0.883086	0.264682	0.600783
H80	H	0.858910	0.294821	0.727723
H81	H	0.880301	0.187830	0.710897
H82	H	0.950278	0.261396	0.710873
H83	H	0.826833	0.254363	0.585070
H84	H	0.896803	0.327950	0.585041
C85	C	0.515969	0.387171	0.000044
C86	C	0.575510	0.312510	0.000039
H87	H	0.543053	0.446362	0.000052
H88	H	0.482245	0.382907	-0.053127
H89	H	0.482239	0.382887	0.053220
H90	H	0.609236	0.316790	-0.053141
H91	H	0.609248	0.316777	0.053215
C92	C	0.837649	0.321245	0.461682
C93	C	0.883071	0.264679	0.399297
H94	H	0.802531	0.364973	0.429110
H95	H	0.804820	0.281783	0.499123
H96	H	0.874794	0.355352	0.499112
H97	H	0.845926	0.230566	0.361871
H98	H	0.915902	0.304146	0.361840
