data_functionalizedCrystal
_audit_creation_method	'MofGen! by Chris Wilmer'
_symmetry_space_group_name_H-M	'P1'
_symmetry_Int_Tables_number	1
_symmetry_cell_setting	triclinic
loop_
_symmetry_equiv_pos_as_xyz
  x,y,z
_cell_length_a	17.699104
_cell_length_b	23.532407
_cell_length_c	22.010155
_cell_angle_alpha	89.990798
_cell_angle_beta	89.983410
_cell_angle_gamma	83.070097
loop_
_atom_site_label
_atom_site_type_symbol
_atom_site_fract_x
_atom_site_fract_y
_atom_site_fract_z
O1	O	1.003713	0.072074	-0.050544
O2	O	0.783289	0.081431	-0.050543
O3	O	0.900148	-0.006160	-0.050532
O4	O	0.886854	0.159665	-0.050554
O5	O	0.900113	-0.006160	0.050518
O6	O	0.783254	0.081431	0.050507
O7	O	1.003678	0.072074	0.050507
Cu8	Cu	0.893463	0.076752	0.059734
Cu9	Cu	0.893504	0.076752	-0.059770
O10	O	0.886819	0.159665	0.050496
C11	C	0.755076	0.081094	-0.000018
C12	C	0.671064	0.080082	-0.000017
C13	C	0.145961	0.125789	-0.000029
C14	C	0.224900	0.126736	-0.000031
C15	C	0.273779	0.075317	-0.000024
C16	C	0.243715	0.022947	-0.000021
C17	C	0.164777	0.022000	-0.000024
C18	C	0.562061	0.026764	-0.000012
C19	C	0.641004	0.027715	-0.000008
C20	C	0.622185	0.131500	-0.000020
C21	C	0.543247	0.130554	-0.000022
C22	C	0.513190	0.078184	-0.000022
C23	C	0.427595	0.077157	-0.000022
C24	C	0.359372	0.076343	-0.000021
C25	C	0.899792	-0.027377	-0.000005
C26	C	0.898774	-0.090597	-0.000001
C27	C	0.961545	-0.489516	-0.000034
C28	C	0.960599	-0.548919	-0.000039
O29	O	1.018788	-0.585493	-0.000062
N30	N	0.891127	-0.571749	-0.000038
C31	C	0.822595	-0.535172	-0.000039
O32	O	0.763417	-0.560045	-0.000040
C33	C	0.823541	-0.475770	-0.000039
C34	C	0.893018	-0.452944	-0.000033
C35	C	1.031016	-0.466689	-0.000029
C36	C	1.031961	-0.407290	-0.000024
C37	C	0.963435	-0.370718	-0.000023
C38	C	0.893964	-0.393545	-0.000028
C39	C	0.755011	-0.439194	-0.000044
C40	C	0.755963	-0.379789	-0.000044
C41	C	0.825440	-0.356963	-0.000039
C42	C	0.826383	-0.297574	-0.000021
N43	N	0.895855	-0.274744	-0.000022
C44	C	0.964381	-0.311316	-0.000023
C45	C	0.820613	-0.659920	-0.000041
C46	C	0.819666	-0.719321	-0.000037
C47	C	0.957670	-0.733064	-0.000038
C48	C	0.958617	-0.673662	-0.000037
C49	C	0.890086	-0.637091	-0.000041
C50	C	0.966361	-0.186574	-0.000010
C51	C	0.967300	-0.127169	-0.000002
C52	C	0.829296	-0.113431	-0.000004
C53	C	0.828357	-0.172831	-0.000009
C54	C	0.896895	-0.209401	-0.000014
O55	O	0.768224	-0.260965	-0.000001
O56	O	1.023550	-0.286435	-0.000030
C57	C	1.031890	0.072411	-0.000020
C58	C	1.115902	0.073423	-0.000025
C59	C	0.887175	0.180882	-0.000032
C60	C	0.888193	0.244102	-0.000041
N61	N	0.893439	0.076752	0.143786
N62	N	0.893534	0.076748	-0.143823
C63	C	0.939147	0.111247	0.563561
C64	C	0.939156	0.111245	0.627168
O65	O	0.977992	0.140570	0.660055
N66	N	0.893519	0.076746	0.658993
C67	C	0.847875	0.042241	0.627207
O68	O	0.809058	0.012897	0.660118
C69	C	0.847871	0.042240	0.563601
C70	C	0.893506	0.076746	0.531779
C71	C	0.984779	0.145749	0.531739
C72	C	0.984769	0.145751	0.468136
C73	C	0.939127	0.111251	0.436354
C74	C	0.893495	0.076748	0.468176
C75	C	0.802232	0.007733	0.531816
C76	C	0.802232	0.007734	0.468206
C77	C	0.847867	0.042240	0.436384
C78	C	0.847843	0.042250	0.372791
N79	N	0.893481	0.076749	0.340966
C80	C	0.939123	0.111250	0.372748
C81	C	0.847889	0.042246	0.760785
C82	C	0.847888	0.042250	0.824391
C83	C	0.939171	0.111253	0.824347
C84	C	0.939167	0.111252	0.760740
C85	C	0.893526	0.076745	0.728960
C86	C	0.939097	0.111252	0.239176
C87	C	0.939081	0.111252	0.175568
C88	C	0.847802	0.042247	0.175617
C89	C	0.847815	0.042249	0.239220
C90	C	0.893469	0.076752	0.270998
O91	O	0.809030	0.012938	0.339864
O92	O	0.977941	0.140584	0.339830
H93	H	0.249370	0.169378	-0.000041
Br94	Br	0.662980	0.202575	-0.000021
Br95	Br	0.785934	-0.004582	0.717661
H96	H	0.700155	-0.350015	-0.000049
H97	H	0.680800	-0.014159	-0.000004
Br98	Br	0.310049	-0.046837	-0.000015
H99	H	0.765072	-0.020366	0.557715
Br100	Br	0.521279	-0.044309	-0.000031
H101	H	1.086821	-0.496461	-0.000032
H102	H	0.698435	-0.457768	-0.000052
H103	H	1.013468	-0.762852	-0.000041
H104	H	0.140305	-0.020642	-0.000021
H105	H	0.810639	0.014159	0.149729
H106	H	1.023879	-0.108588	0.000004
Br107	Br	1.059378	-0.236196	-0.000017
Br108	Br	1.126256	-0.376322	-0.000033
Br109	Br	0.727598	-0.610292	-0.000041
Br110	Br	1.052910	-0.642690	-0.000029
Br111	Br	0.740296	-0.039105	0.425079
H112	H	0.763091	-0.737900	-0.000031
Br113	Br	1.001057	0.158078	0.282294
Br114	Br	0.785939	-0.004571	0.867569
H115	H	0.771783	-0.191416	0.000003
H116	H	0.773504	-0.083644	-0.000001
H117	H	1.021933	0.173847	0.442232
Br118	Br	1.001116	0.158074	0.867491
Br119	Br	1.001010	0.158091	0.132385
Br120	Br	1.046731	0.192577	0.574859
Br121	Br	0.476915	0.200339	-0.000028
H122	H	0.106169	0.167661	-0.000030
Br123	Br	1.001103	0.158081	0.717561
Br124	Br	0.785873	-0.004574	0.282408
