data_functionalizedCrystal
_audit_creation_method	'MofGen! by Chris Wilmer'
_symmetry_space_group_name_H-M	'P1'
_symmetry_Int_Tables_number	1
_symmetry_cell_setting	triclinic
loop_
_symmetry_equiv_pos_as_xyz
  x,y,z
_cell_length_a	16.625539
_cell_length_b	13.897449
_cell_length_c	13.897448
_cell_angle_alpha	90.018972
_cell_angle_beta	90.027549
_cell_angle_gamma	90.019431
loop_
_atom_site_label
_atom_site_type_symbol
_atom_site_fract_x
_atom_site_fract_y
_atom_site_fract_z
Zn1	Zn	-0.455889	-1.474690	0.383980
Zn2	Zn	-0.321058	-1.474588	0.545293
Zn3	Zn	-0.321072	-1.313383	0.384018
Zn4	Zn	-0.455851	-1.313361	0.545239
O5	O	-0.388468	-1.394006	0.464632
O6	O	-0.438014	-1.609658	0.405386
O7	O	-0.208228	-1.453170	0.523938
O8	O	-0.338978	-1.334833	0.249031
O9	O	-0.338954	-1.609583	0.523902
O10	O	-0.438027	-1.453344	0.249004
O11	O	-0.208238	-1.334734	0.405450
O12	O	-0.338941	-1.178398	0.405397
O13	O	-0.568688	-1.334795	0.523809
O14	O	-0.437962	-1.178382	0.523845
O15	O	-0.568716	-1.453323	0.405333
O16	O	-0.338917	-1.453149	0.680268
O17	O	-0.437948	-1.334696	0.680227
C18	C	-0.388449	-1.143391	0.464620
C19	C	-0.388460	-1.036177	0.464637
C20	C	-0.388444	-1.393935	0.715247
C21	C	-0.388461	-1.393993	0.822461
C22	C	-0.598777	-1.394068	0.464561
C23	C	-0.688398	-1.394095	0.464530
C24	C	-1.016574	-1.394139	0.464422
C25	C	-0.925265	-1.394124	0.464455
C26	C	-0.852489	-1.394118	0.464477
C27	C	-0.761174	-1.394102	0.464508
C28	C	-0.178977	-1.393999	0.464634
C29	C	-0.089356	-1.394159	0.464393
C30	C	-0.388486	-1.645598	0.464646
C31	C	-0.388495	-1.752812	0.464652
C32	C	-0.388482	-0.839882	0.464641
C33	C	-0.388468	-0.949115	0.464636
C34	C	-0.388509	-1.394102	0.213039
C35	C	-0.388526	-1.394144	0.105825
C36	C	-0.388512	-1.394095	1.018756
C37	C	-0.388486	-1.394036	0.909523
