data_functionalizedCrystal
_audit_creation_method	'MofGen! by Chris Wilmer'
_symmetry_space_group_name_H-M	'P1'
_symmetry_Int_Tables_number	1
_symmetry_cell_setting	triclinic
loop_
_symmetry_equiv_pos_as_xyz
  x,y,z
_cell_length_a	21.395362
_cell_length_b	11.169416
_cell_length_c	21.395355
_cell_angle_alpha	89.988582
_cell_angle_beta	89.956060
_cell_angle_gamma	90.026029
loop_
_atom_site_label
_atom_site_type_symbol
_atom_site_fract_x
_atom_site_fract_y
_atom_site_fract_z
Zn1	Zn	0.957949	-0.477437	-0.354617
Zn2	Zn	0.957889	-0.678108	-0.249852
Zn3	Zn	0.853164	-0.477493	-0.249818
Zn4	Zn	0.853171	-0.678133	-0.354557
O5	O	0.905543	-0.577793	-0.302211
O6	O	1.045619	-0.504023	-0.340759
O7	O	0.943969	-0.651509	-0.162170
O8	O	0.867086	-0.309536	-0.263730
O9	O	1.045575	-0.651455	-0.263789
O10	O	0.944071	-0.309495	-0.340725
O11	O	0.867028	-0.504118	-0.162144
O12	O	0.765487	-0.504142	-0.263672
O13	O	0.867098	-0.651497	-0.442243
O14	O	0.765492	-0.651551	-0.340624
O15	O	0.944078	-0.504047	-0.442287
O16	O	0.943976	-0.846061	-0.263731
O17	O	0.867040	-0.846079	-0.340657
C18	C	0.742755	-0.577856	-0.302138
C19	C	0.673114	-0.577912	-0.302122
C20	C	0.905519	-0.889618	-0.302205
C21	C	0.905566	-1.023018	-0.302223
C22	C	0.640420	-0.654770	-0.342130
C23	C	0.574985	-0.654741	-0.342158
C24	C	0.542246	-0.577866	-0.302167
C25	C	0.574948	-0.500994	-0.262155
C26	C	0.640382	-0.501017	-0.262133
C27	C	0.438519	-0.568198	-0.245761
C28	C	0.373086	-0.568183	-0.245782
C29	C	0.340425	-0.577788	-0.302236
C30	C	0.373205	-0.587433	-0.358670
C31	C	0.438639	-0.587456	-0.358648
C32	C	0.471294	-0.577832	-0.302187
C33	C	0.236779	-0.654618	-0.342278
C34	C	0.171342	-0.654580	-0.342307
C35	C	0.171306	-0.500839	-0.262298
C36	C	0.236742	-0.500871	-0.262275
C37	C	0.269474	-0.577766	-0.302264
C38	C	1.068966	-0.577730	-0.302284
C39	C	1.138608	-0.577703	-0.302315
C40	C	0.905595	-0.577769	-0.465634
C41	C	0.905617	-0.577758	-0.535275
C42	C	0.905585	-0.264751	-0.302231
C43	C	0.905602	-0.131351	-0.302239
C44	C	0.945699	-0.500978	-0.568012
C45	C	0.945698	-0.500926	-0.633448
C46	C	0.905622	-0.577676	-0.666144
C47	C	0.865533	-0.654462	-0.633399
C48	C	0.865530	-0.654503	-0.567965
C49	C	0.900666	-0.685744	-0.769815
C50	C	0.900673	-0.685705	-0.835248
C51	C	0.905626	-0.577550	-0.867965
C52	C	0.910585	-0.469429	-0.835241
C53	C	0.910583	-0.469470	-0.769806
C54	C	0.905620	-0.577640	-0.737096
C55	C	0.945709	-0.500707	-0.971654
C56	C	0.945704	-0.500653	-1.037091
C57	C	0.865541	-0.654200	-1.037041
C58	C	0.865543	-0.654243	-0.971605
C59	C	0.905631	-0.577498	-0.938916
C60	C	0.905527	-0.577731	-0.139423
C61	C	0.905627	-0.577403	-0.069782
H62	H	0.667067	-0.717383	-0.374694
H63	H	0.465107	-0.560371	-0.199786
C64	C	0.676347	-0.416470	-0.218115
N65	N	0.703436	-0.352791	-0.184959
C66	C	0.821446	-0.738883	-0.669366
N67	N	0.788236	-0.802466	-0.696456
H68	H	0.914619	-0.381359	-0.861877
H69	H	0.978336	-0.438396	-0.660108
C70	C	0.989800	-0.416276	-0.935694
N71	N	1.023008	-0.352680	-0.908610
C72	C	0.989798	-0.416182	-1.073101
N73	N	1.023012	-0.352557	-1.100225
C74	C	0.539014	-0.739297	-0.386171
N75	N	0.511923	-0.802987	-0.419320
C76	C	0.538934	-0.416432	-0.218164
N77	N	0.511808	-0.352734	-0.185030
C78	C	0.821452	-0.738714	-0.935593
N79	N	0.788239	-0.802338	-0.908469
C80	C	0.916029	-0.350539	-0.733813
N81	N	0.920127	-0.260958	-0.706702
C82	C	0.272707	-0.416331	-0.218256
N83	N	0.299795	-0.352651	-0.185099
C84	C	0.989788	-0.416540	-0.532058
N85	N	1.022993	-0.352935	-0.504976
H86	H	0.832904	-0.716679	-1.063661
C87	C	0.895218	-0.804639	-0.871238
N88	N	0.891107	-0.894223	-0.898344
H89	H	0.832888	-0.717026	-0.541311
C90	C	0.474694	-0.598064	-0.420724
N91	N	0.501851	-0.606052	-0.467481
C92	C	0.337283	-0.597994	-0.420775
N93	N	0.310223	-0.605950	-0.467550
H94	H	0.896466	-0.773795	-0.743182
C95	C	0.135379	-0.739144	-0.386317
N96	N	0.108290	-0.802845	-0.419463
C97	C	0.272786	-0.739190	-0.386273
N98	N	0.299905	-0.802888	-0.419413
C99	C	0.135298	-0.416275	-0.218307
N100	N	0.108173	-0.352578	-0.185172
H101	H	0.346402	-0.560337	-0.199830
