data_functionalizedCrystal
_audit_creation_method	'MofGen! by Chris Wilmer'
_symmetry_space_group_name_H-M	'P1'
_symmetry_Int_Tables_number	1
_symmetry_cell_setting	triclinic
loop_
_symmetry_equiv_pos_as_xyz
  x,y,z
_cell_length_a	27.732048
_cell_length_b	27.731996
_cell_length_c	14.586319
_cell_angle_alpha	89.990257
_cell_angle_beta	90.001999
_cell_angle_gamma	82.632022
loop_
_atom_site_label
_atom_site_type_symbol
_atom_site_fract_x
_atom_site_fract_y
_atom_site_fract_z
O1	O	0.640916	0.057518	-0.076134
O2	O	1.140916	0.557518	0.423866
O3	O	0.500121	0.066264	-0.076163
O4	O	1.000121	0.566264	0.423837
O5	O	0.574904	-0.008508	-0.076128
O6	O	1.074904	0.491492	0.423872
O7	O	0.566132	0.132289	-0.076169
O8	O	1.066132	0.632289	0.423831
O9	O	0.574899	-0.008509	0.076353
O10	O	1.074899	0.491491	0.576353
O11	O	0.500116	0.066263	0.076317
O12	O	1.000116	0.566263	0.576317
O13	O	0.640911	0.057517	0.076347
O14	O	1.140911	0.557517	0.576347
Cu15	Cu	0.570513	0.061890	0.090255
Cu16	Cu	1.070513	0.561890	0.590255
Cu17	Cu	0.570519	0.061891	-0.090071
Cu18	Cu	1.070519	0.561891	0.409929
O19	O	0.566127	0.132288	0.076311
O20	O	1.066127	0.632288	0.576311
C21	C	0.482111	0.066079	0.000074
C22	C	0.982111	0.566079	0.500074
C23	C	0.428456	0.065527	0.000063
C24	C	0.928456	0.565527	0.500063
C25	C	0.089634	0.106231	0.000091
C26	C	0.589634	0.606231	0.500091
C27	C	-0.112026	0.104180	0.000100
C28	C	0.387974	0.604180	0.500100
O29	O	-0.143288	0.141402	0.000129
O30	O	0.356712	0.641402	0.500129
N31	N	-0.131141	0.059844	0.000111
N32	N	0.368859	0.559844	0.500111
C33	C	-0.099838	0.016017	0.000126
C34	C	0.400162	0.516017	0.500126
O35	O	-0.120724	-0.021740	0.000146
O36	O	0.379276	0.478260	0.500146
C37	C	0.101820	0.018069	0.000124
C38	C	0.601820	0.518069	0.500124
C39	C	0.120933	0.062408	0.000103
C40	C	0.620933	0.562408	0.500103
C41	C	0.108747	0.150567	0.000071
C42	C	0.608747	0.650567	0.500071
C43	C	0.159159	0.151079	0.000064
C44	C	0.659159	0.651079	0.500064
C45	C	0.190457	0.107256	0.000077
C46	C	0.690457	0.607256	0.500077
C47	C	0.171344	0.062920	0.000096
C48	C	0.671344	0.562920	0.500096
C49	C	0.133122	-0.025757	0.000146
C50	C	0.633122	0.474243	0.500146
C51	C	0.183539	-0.025240	0.000148
C52	C	0.683539	0.474760	0.500148
C53	C	0.202652	0.019099	0.000127
C54	C	0.702652	0.519099	0.500127
C55	C	0.253055	0.019609	0.000102
C56	C	0.753055	0.519609	0.500102
N57	N	0.272171	0.063946	0.000090
N58	N	0.772171	0.563946	0.500090
C59	C	0.240872	0.107769	0.000078
C60	C	0.740872	0.607769	0.500078
C61	C	-0.205712	0.014943	0.000126
C62	C	0.294288	0.514943	0.500126
C63	C	-0.256126	0.014430	0.000125
C64	C	0.243874	0.514430	0.500125
C65	C	-0.268310	0.102594	0.000100
C66	C	0.231690	0.602594	0.500100
C67	C	-0.217895	0.103106	0.000094
C68	C	0.282105	0.603106	0.500094
C69	C	-0.186597	0.059280	0.000114
C70	C	0.313403	0.559280	0.500114
C71	C	0.346741	0.108842	0.000062
C72	C	0.846741	0.608842	0.500062
C73	C	0.397158	0.109350	0.000051
C74	C	0.897158	0.609350	0.500051
C75	C	0.409337	0.021187	0.000081
C76	C	0.909337	0.521187	0.500081
C77	C	0.358925	0.020678	0.000087
C78	C	0.858925	0.520678	0.500087
C79	C	0.327627	0.064510	0.000080
C80	C	0.827627	0.564510	0.500080
O81	O	0.284346	-0.017592	0.000083
O82	O	0.784346	0.482408	0.500083
O83	O	0.261767	0.145521	0.000079
O84	O	0.761767	0.645521	0.500079
C85	C	0.039222	0.105719	0.000098
C86	C	0.539222	0.605719	0.500098
C87	C	0.020109	0.061384	0.000118
C88	C	0.520109	0.561384	0.500118
C89	C	0.051408	0.017560	0.000130
C90	C	0.551408	0.517560	0.500130
C91	C	-0.030305	0.060871	0.000117
C92	C	0.469695	0.560871	0.500117
C93	C	-0.061604	0.104694	0.000104
C94	C	0.438396	0.604694	0.500104
C95	C	-0.042489	0.149030	0.000093
C96	C	0.457511	0.649030	0.500093
C97	C	0.007923	0.149543	0.000086
C98	C	0.507923	0.649543	0.500086
C99	C	0.032292	-0.026776	0.000142
C100	C	0.532292	0.473224	0.500142
C101	C	-0.018120	-0.027285	0.000148
C102	C	0.481880	0.472715	0.500148
C103	C	-0.049419	0.016539	0.000135
C104	C	0.450581	0.516539	0.500135
C105	C	0.574721	-0.026516	0.000116
C106	C	1.074721	0.473484	0.500116
C107	C	0.574179	-0.080172	0.000125
C108	C	1.074179	0.419828	0.500125
C109	C	0.570767	-0.412888	-0.083038
C110	C	1.070767	0.087112	0.416962
C111	C	0.568706	-0.614546	-0.083055
C112	C	1.068706	-0.114546	0.416945
O113	O	0.568421	-0.640616	-0.153743
O114	O	1.068421	-0.140616	0.346257
N115	N	0.568447	-0.639764	0.000062
N116	N	1.068447	-0.139764	0.500062
C117	C	0.568700	-0.614563	0.083188
C118	C	1.068700	-0.114563	0.583188
O119	O	0.568428	-0.640639	0.153884
O120	O	1.068428	-0.140639	0.653884
C121	C	0.570758	-0.412905	0.083204
C122	C	1.070758	0.087095	0.583204
C123	C	0.571021	-0.387691	0.000082
C124	C	1.071021	0.112309	0.500082
C125	C	0.571030	-0.387673	-0.166153
C126	C	1.071030	0.112327	0.333847
C127	C	0.571548	-0.337262	-0.166148
C128	C	1.071548	0.162738	0.333852
C129	C	0.571802	-0.312065	-0.083028
C130	C	1.071802	0.187935	0.416972
C131	C	0.571539	-0.337280	0.000087
C132	C	1.071539	0.162720	0.500087
C133	C	0.571008	-0.387706	0.166330
C134	C	1.071008	0.112294	0.666330
C135	C	0.571521	-0.337288	0.166326
C136	C	1.071521	0.162712	0.666326
C137	C	0.571784	-0.312073	0.083204
C138	C	1.071784	0.187927	0.583204
C139	C	0.572312	-0.261672	0.083212
C140	C	1.072312	0.238328	0.583212
N141	N	0.572571	-0.236454	0.000096
N142	N	1.072571	0.263546	0.500096
C143	C	0.572316	-0.261651	-0.083024
C144	C	1.072316	0.238349	0.416976
C145	C	0.567621	-0.720437	0.083174
C146	C	1.067621	-0.220437	0.583174
C147	C	0.567107	-0.770851	0.083171
C148	C	1.067107	-0.270851	0.583171
C149	C	0.567112	-0.770830	-0.083073
C150	C	1.067112	-0.270830	0.416927
C151	C	0.567629	-0.720415	-0.083068
C152	C	1.067629	-0.220415	0.416932
C153	C	0.567880	-0.695219	0.000058
C154	C	1.067880	-0.195219	0.500058
C155	C	0.573404	-0.155784	-0.083008
C156	C	1.073404	0.344216	0.416992
C157	C	0.573924	-0.105369	-0.082995
C158	C	1.073924	0.394631	0.417005
C159	C	0.573917	-0.105394	0.083247
C160	C	1.073917	0.394606	0.583247
C161	C	0.573399	-0.155805	0.083236
C162	C	1.073399	0.344195	0.583236
C163	C	0.573141	-0.180999	0.000101
C164	C	1.073141	0.319001	0.500101
O165	O	0.572592	-0.235570	0.153864
O166	O	1.072592	0.264430	0.653864
O167	O	0.572578	-0.235565	-0.153709
O168	O	1.072578	0.264435	0.346291
C169	C	0.570249	-0.463299	-0.083043
C170	C	1.070249	0.036701	0.416957
C171	C	0.569986	-0.488513	0.000072
C172	C	1.069986	0.011487	0.500072
C173	C	0.570240	-0.463317	0.083192
C174	C	1.070240	0.036683	0.583192
C175	C	0.569472	-0.538928	0.000069
C176	C	1.069472	-0.038928	0.500069
C177	C	0.569217	-0.564124	-0.083052
C178	C	1.069217	-0.064124	0.416948
C179	C	0.569476	-0.538907	-0.166168
C180	C	1.069476	-0.038907	0.333832
C181	C	0.569994	-0.488496	-0.166163
C182	C	1.069994	0.011504	0.333837
C183	C	0.569982	-0.488534	0.166309
C184	C	1.069982	0.011466	0.666309
C185	C	0.569464	-0.538946	0.166297
C186	C	1.069464	-0.038946	0.666297
C187	C	0.569210	-0.564142	0.083177
C188	C	1.069210	-0.064142	0.583177
C189	C	0.658920	0.057701	0.000108
C190	C	1.158920	0.557701	0.500108
C191	C	0.712575	0.058254	0.000112
C192	C	1.212575	0.558254	0.500112
C193	C	0.566310	0.150296	0.000066
C194	C	1.066310	0.650296	0.500066
C195	C	0.566853	0.203952	0.000051
C196	C	1.066853	0.703952	0.500051
N197	N	0.570512	0.061888	0.217087
N198	N	1.070512	0.561888	0.717087
N199	N	0.570523	0.061888	-0.216903
N200	N	1.070523	0.561888	0.283097
C201	C	0.603637	0.028791	0.452109
C202	C	1.103637	0.528791	0.952109
C203	C	0.603638	0.028789	0.548090
C204	C	1.103638	0.528789	1.048090
C205	C	0.537395	0.094988	0.548068
C206	C	1.037395	0.594988	1.048068
C207	C	0.537392	0.094986	0.452089
C208	C	1.037392	0.594986	0.952089
C209	C	0.570515	0.061888	0.404111
C210	C	1.070515	0.561888	0.904111
C211	C	0.570520	0.061888	0.596072
C212	C	1.070520	0.561888	1.096072
C213	C	0.570521	0.061887	0.700139
C214	C	1.070521	0.561887	1.200139
C215	C	0.570513	0.061888	0.300038
C216	C	1.070513	0.561888	0.800038
H217	H	-0.271683	-0.021675	0.000127
H218	H	0.228317	0.478325	0.500127
N219	N	0.027434	0.194839	0.000061
N220	N	0.527434	0.694839	0.500061
N221	N	-0.000525	0.233960	0.000049
N222	N	0.499475	0.733960	0.500049
H223	H	0.013251	0.265953	0.000032
H224	H	0.513251	0.765953	0.500032
N225	N	0.566855	-0.796563	-0.167990
N226	N	1.066855	-0.296563	0.332010
N227	N	0.600997	-0.795641	-0.223645
N228	N	1.100997	-0.295641	0.276355
H229	H	0.600813	-0.813815	-0.283616
H230	H	1.100813	-0.313815	0.216384
H231	H	0.574140	-0.084841	-0.150686
H232	H	1.074140	0.415159	0.349314
N233	N	0.503562	0.128802	0.597063
N234	N	1.003562	0.628802	1.097063
N235	N	0.473991	0.158350	0.554194
N236	N	0.973991	0.658350	1.054194
H237	H	0.450095	0.182233	0.588794
H238	H	0.950095	0.682233	1.088794
H239	H	0.630608	0.001838	0.587167
H240	H	1.130608	0.501838	1.087167
H241	H	0.571718	-0.316775	0.234019
H242	H	1.071718	0.183225	0.734019
H243	H	0.343363	-0.015426	0.000090
H244	H	0.843363	0.484574	0.500090
N245	N	0.503564	0.128805	0.403056
N246	N	1.003564	0.628805	0.903056
N247	N	0.518670	0.158704	0.349487
N248	N	1.018670	0.658704	0.849487
H249	H	0.494781	0.182587	0.314857
H250	H	0.994781	0.682587	0.814857
N251	N	0.637466	-0.005028	0.403117
N252	N	1.137466	0.494972	0.903117
N253	N	0.667365	0.010076	0.349551
N254	N	1.167365	0.510076	0.849551
H255	H	0.691258	-0.013815	0.314963
H256	H	1.191258	0.486185	0.814963
N257	N	0.570235	-0.462801	0.251219
N258	N	1.070235	0.037199	0.751219
N259	N	0.536089	-0.463726	0.306867
N260	N	1.036089	0.036274	0.806867
H261	H	0.536269	-0.445553	0.366841
H262	H	1.036269	0.054447	0.866841
H263	H	0.412716	0.145458	0.000033
H264	H	0.912716	0.645458	0.500033
N265	N	0.314776	0.153613	0.000032
N266	N	0.814776	0.653613	0.500032
N267	N	0.285285	0.163166	-0.064248
N268	N	0.785285	0.663166	0.435752
H269	H	0.262710	0.194786	-0.064276
H270	H	0.762710	0.694786	0.435724
N271	N	0.178669	0.196376	0.000042
N272	N	0.678669	0.696376	0.500042
N273	N	0.150711	0.235497	0.000031
N274	N	0.650711	0.735497	0.500031
H275	H	0.164486	0.267490	0.000017
H276	H	0.664486	0.767490	0.500017
N277	N	0.441305	-0.023581	0.000091
N278	N	0.941305	0.476419	0.500091
N279	N	0.439756	-0.053159	-0.064166
N280	N	0.939756	0.446841	0.435834
H281	H	0.462334	-0.084777	-0.064153
H282	H	0.962334	0.415223	0.435847
H283	H	0.569271	-0.559431	-0.233847
H284	H	1.069271	-0.059431	0.266153
H285	H	0.083267	0.186255	0.000064
H286	H	0.583267	0.686255	0.500064
N287	N	-0.074459	0.193799	0.000074
N288	N	0.425541	0.693799	0.500074
N289	N	-0.072916	0.223376	-0.064206
N290	N	0.427084	0.723376	0.435794
H291	H	-0.095496	0.254993	-0.064216
H292	H	0.404504	0.754993	0.435784
N293	N	-0.198382	0.148401	0.000072
N294	N	0.301618	0.648401	0.500072
N295	N	-0.226339	0.187524	0.000056
N296	N	0.273661	0.687524	0.500056
H297	H	-0.212561	0.219516	0.000042
H298	H	0.287439	0.719516	0.500042
H299	H	-0.293803	0.138276	0.000090
H300	H	0.206197	0.638276	0.500090
H301	H	-0.180232	-0.020747	0.000142
H302	H	0.319768	0.479253	0.500142
N303	N	0.570738	-0.413462	0.251228
N304	N	1.070738	0.086538	0.751228
N305	N	0.604533	-0.446310	0.269796
N306	N	1.104533	0.053690	0.769796
H307	H	0.604343	-0.464502	0.329760
H308	H	1.104343	0.035498	0.829760
H309	H	0.117570	-0.061863	0.000164
H310	H	0.617570	0.438137	0.500164
H311	H	0.209021	-0.060930	0.000165
H312	H	0.709021	0.439070	0.500165
N313	N	0.571815	-0.311517	-0.251064
N314	N	1.071815	0.188483	0.248936
N315	N	0.571586	-0.334028	-0.325266
N316	N	1.071586	0.165972	0.174734
H317	H	0.571773	-0.315849	-0.385243
H318	H	1.071773	0.184151	0.114757
N319	N	0.064259	-0.071543	0.000168
N320	N	0.564259	0.428457	0.500168
N321	N	0.062708	-0.101117	0.064451
N322	N	0.562708	0.398883	0.564451
H323	H	0.085283	-0.132737	0.064467
H324	H	0.585283	0.367263	0.564467
H325	H	-0.033676	-0.063394	0.000158
H326	H	0.466324	0.436606	0.500158
H327	H	0.570821	-0.408183	-0.233843
H328	H	1.070821	0.091817	0.266157
N329	N	0.573138	-0.181506	-0.167935
N330	N	1.073138	0.318494	0.332065
N331	N	0.573373	-0.158979	-0.242132
N332	N	1.073373	0.341021	0.257868
H333	H	0.573188	-0.177145	-0.302113
H334	H	1.073188	0.322855	0.197887
N335	N	0.567905	-0.694662	-0.167974
N336	N	1.067905	-0.194662	0.332026
N337	N	0.601939	-0.705001	-0.223616
N338	N	1.101939	-0.205001	0.276384
H339	H	0.602134	-0.686815	-0.283584
H340	H	1.102134	-0.186815	0.216416
N341	N	0.566849	-0.796598	0.168086
N342	N	1.066849	-0.296598	0.668086
N343	N	0.567076	-0.774089	0.242290
N344	N	1.067076	-0.274089	0.742290
H345	H	0.566892	-0.792270	0.302265
H346	H	1.066892	-0.292270	0.802265
N347	N	0.567871	-0.694703	0.168092
N348	N	1.067871	-0.194703	0.668092
N349	N	0.533726	-0.695632	0.223738
N350	N	1.033726	-0.195632	0.723738
H351	H	0.533904	-0.677459	0.283713
H352	H	1.033904	-0.177459	0.783713
N353	N	0.573134	-0.181557	0.168148
N354	N	1.073134	0.318443	0.668148
N355	N	0.573362	-0.159051	0.242356
N356	N	1.073362	0.340949	0.742356
H357	H	0.573170	-0.177234	0.302329
H358	H	1.073170	0.322766	0.802329
H359	H	0.570208	-0.467970	-0.233850
H360	H	1.070208	0.032030	0.266150
N361	N	0.574181	-0.079644	0.168141
N362	N	1.074181	0.420356	0.668141
N363	N	0.574642	-0.034632	0.168122
N364	N	1.074642	0.465368	0.668122
H365	H	0.574827	-0.016443	0.228079
H366	H	1.074827	0.483557	0.728079
H367	H	0.569253	-0.559472	0.233990
H368	H	1.069253	-0.059472	0.733990
