data_functionalizedCrystal
_audit_creation_method	'MofGen! by Chris Wilmer'
_symmetry_space_group_name_H-M	'P1'
_symmetry_Int_Tables_number	1
_symmetry_cell_setting	triclinic
loop_
_symmetry_equiv_pos_as_xyz
  x,y,z
_cell_length_a	12.759401
_cell_length_b	12.759394
_cell_length_c	12.759401
_cell_angle_alpha	90.011215
_cell_angle_beta	90.002178
_cell_angle_gamma	90.014998
loop_
_atom_site_label
_atom_site_type_symbol
_atom_site_fract_x
_atom_site_fract_y
_atom_site_fract_z
Zn1	Zn	1.606085	-0.418419	0.593976
Zn2	Zn	1.606029	-0.594073	0.418294
Zn3	Zn	1.430437	-0.418409	0.418315
Zn4	Zn	1.430375	-0.594057	0.593935
O5	O	1.518232	-0.506239	0.506130
O6	O	1.753099	-0.441730	0.570679
O7	O	1.582739	-0.570773	0.271275
O8	O	1.453787	-0.271389	0.441643
O9	O	1.753058	-0.570783	0.441606
O10	O	1.582834	-0.271396	0.570700
O11	O	1.453732	-0.441714	0.271291
O12	O	1.283408	-0.441698	0.441603
O13	O	1.453681	-0.570755	0.740961
O14	O	1.283363	-0.570746	0.570631
O15	O	1.582774	-0.441715	0.740991
O16	O	1.582679	-0.741092	0.441567
O17	O	1.453627	-0.741080	0.570610
C18	C	1.245264	-0.506220	0.506116
C19	C	1.128488	-0.506237	0.506134
C20	C	1.518169	-0.779207	0.506104
C21	C	1.518238	-0.895983	0.506129
C22	C	1.073630	-0.573540	0.573208
C23	C	0.963906	-0.573553	0.573219
C24	C	0.963907	-0.438958	0.439075
C25	C	1.073629	-0.438940	0.439070
C26	C	1.073628	-0.651250	0.650652
C27	C	0.963904	-0.651263	0.650663
C28	C	1.652720	-0.895943	0.371857
C29	C	1.719989	-0.950783	0.304733
C30	C	1.720051	-1.060504	0.304762
C31	C	1.652839	-1.115388	0.371923
C32	C	1.585570	-1.060548	0.439047
C33	C	1.585513	-0.950824	0.439009
C34	C	1.451094	-1.060589	0.573322
C35	C	1.451026	-0.950867	0.573290
C36	C	1.383882	-1.115473	0.640484
C37	C	1.316606	-1.060632	0.707604
C38	C	1.316547	-0.950904	0.707572
C39	C	1.383757	-0.896027	0.640414
C40	C	1.792265	-0.506259	0.506145
C41	C	1.909042	-0.506268	0.506151
C42	C	1.518227	-0.506234	0.780163
C43	C	1.518225	-0.506232	0.896940
C44	C	1.518324	-0.232206	0.506178
C45	C	1.518363	-0.115429	0.506199
C46	C	1.585438	-0.439054	0.951819
C47	C	1.585431	-0.439057	1.061543
C48	C	1.450997	-0.573423	1.061499
C49	C	1.450999	-0.573415	0.951777
C50	C	1.663056	-0.361482	0.951845
C51	C	1.663049	-0.361484	1.061569
C52	C	1.518225	-0.506261	1.233162
C53	C	1.518217	-0.506243	1.116386
H54	H	1.118291	-0.384129	0.384459
C55	C	1.794049	-1.120830	0.230923
N56	N	1.849783	-1.166268	0.175306
H57	H	0.929884	-0.622248	0.728015
C58	C	1.383703	-0.775330	0.640377
N59	N	1.383670	-0.684420	0.640351
C60	C	1.652916	-1.236085	0.371956
N61	N	1.652972	-1.326995	0.371980
C62	C	0.903553	-0.364939	0.365304
N63	N	0.858095	-0.309187	0.309737
H64	H	1.633926	-0.284188	1.095618
C65	C	1.242679	-1.121011	0.781471
N66	N	1.186993	-1.166492	0.837106
H67	H	1.396264	-0.628114	0.907098
C68	C	1.377051	-0.647319	1.121830
N69	N	1.321353	-0.702979	1.167270
C70	C	1.772960	-0.390950	1.101803
N71	N	1.855741	-0.413146	1.132106
H72	H	1.383941	-1.204814	0.640507
C73	C	1.242552	-0.890588	0.781423
N74	N	1.186820	-0.845162	0.837051
H75	H	0.934114	-0.732605	0.628730
H76	H	1.103413	-0.629581	0.732059
H77	H	1.641296	-0.280107	0.922090
H78	H	1.107650	-0.728491	0.621366
H79	H	1.740337	-0.390638	0.917809
H80	H	1.652664	-0.806602	0.371813
H81	H	1.774715	-0.906087	0.250053
