data_functionalizedCrystal
_audit_creation_method	'MofGen! by Chris Wilmer'
_symmetry_space_group_name_H-M	'P1'
_symmetry_Int_Tables_number	1
_symmetry_cell_setting	triclinic
loop_
_symmetry_equiv_pos_as_xyz
  x,y,z
_cell_length_a	16.956984
_cell_length_b	14.044220
_cell_length_c	16.053802
_cell_angle_alpha	92.799619
_cell_angle_beta	87.610701
_cell_angle_gamma	84.621148
loop_
_atom_site_label
_atom_site_type_symbol
_atom_site_fract_x
_atom_site_fract_y
_atom_site_fract_z
O1	O	1.063881	0.034824	-0.069434
O2	O	0.834077	0.067919	-0.069435
O3	O	0.945529	-0.086342	-0.069426
O4	O	0.952429	0.189085	-0.069443
O5	O	0.939392	-0.077884	0.069432
O6	O	0.827940	0.076377	0.069423
O7	O	1.057744	0.043282	0.069425
Zn8	Zn	0.941868	0.061173	0.091471
Zn9	Zn	0.949953	0.050029	-0.091481
O10	O	0.946292	0.197544	0.069416
C11	C	0.801421	0.073843	-0.000006
C12	C	0.713259	0.078881	-0.000006
C13	C	0.939441	-0.117191	0.000003
C14	C	0.930433	-0.221711	0.000004
C15	C	0.675182	-0.005360	0.000000
C16	C	0.592344	-0.000620	-0.000006
C17	C	0.547584	0.088361	-0.000013
C18	C	0.585667	0.172608	-0.000022
C19	C	0.668503	0.167867	-0.000022
C20	C	0.299481	0.111826	-0.000020
C21	C	0.216639	0.116561	-0.000018
C22	C	0.223322	-0.056668	-0.000004
C23	C	0.306160	-0.061401	0.000002
C24	C	0.344235	0.022846	-0.000012
N25	N	0.462911	0.093208	-0.000017
N26	N	0.428908	0.017998	-0.000014
C27	C	0.913966	-0.413083	-0.000008
C28	C	0.977851	-0.475722	-0.000010
C29	C	0.968689	-0.582208	-0.000017
C30	C	0.923127	-0.306587	-0.000001
C31	C	1.090400	0.037359	-0.000006
C32	C	1.178562	0.032320	-0.000011
C33	C	0.952380	0.228392	-0.000016
C34	C	0.961388	0.332912	-0.000022
N35	N	0.936355	0.068777	0.216331
N36	N	0.955472	0.042416	-0.216341
C37	C	0.983798	0.003159	0.260028
C38	C	0.979950	0.008487	0.347435
C39	C	0.928662	0.079438	0.391142
C40	C	0.881214	0.145059	0.347438
C41	C	0.885058	0.139726	0.260033
C42	C	0.911867	0.102705	0.652550
C43	C	0.908028	0.108034	0.739961
C44	C	1.006764	-0.028539	0.739952
C45	C	1.010608	-0.033862	0.652545
C46	C	0.963156	0.031756	0.608849
N47	N	0.924730	0.084887	0.480485
N48	N	0.967085	0.026302	0.519507
H49	H	0.711620	-0.077818	0.000009
H50	H	0.866261	0.165815	0.775543
H51	H	0.192313	-0.125257	-0.000002
O52	O	0.865750	0.166549	0.610240
C53	C	0.767380	0.302541	0.619482
C54	C	0.819580	0.230308	0.667505
H55	H	0.730026	0.354096	0.665759
H56	H	0.806724	0.344548	0.578566
H57	H	0.726705	0.262403	0.578557
H58	H	0.860263	0.270371	0.708476
H59	H	0.780189	0.188303	0.708369
H60	H	0.561346	-0.069218	-0.000002
H61	H	0.180197	0.189024	-0.000020
H62	H	0.342598	-0.133859	0.000011
O63	O	0.831434	0.214099	0.389798
C64	C	0.795464	0.383246	0.416557
C65	C	0.851882	0.305152	0.368522
H66	H	0.811986	0.456880	0.399386
H67	H	0.731824	0.374920	0.399370
H68	H	0.800849	0.375744	0.486530
H69	H	0.846567	0.312606	0.298537
H70	H	0.915499	0.313502	0.385778
O71	O	1.033529	-0.065902	0.217631
C72	C	1.069523	-0.235063	0.191007
C73	C	1.013141	-0.156934	0.239043
H74	H	1.053070	-0.308680	0.208314
H75	H	1.064135	-0.227718	0.121015
H76	H	1.133150	-0.226623	0.208176
H77	H	0.949491	-0.165324	0.221945
H78	H	1.018597	-0.164302	0.309024
H79	H	0.846424	0.193158	0.224455
H80	H	0.699504	0.236465	-0.000023
O81	O	0.336333	0.193755	0.000012
C82	C	0.320956	0.366071	-0.000042
C83	C	0.279116	0.273358	-0.000062
H84	H	0.274716	0.430453	-0.000120
H85	H	0.356978	0.371791	0.058083
H86	H	0.362161	0.364596	-0.058141
H87	H	0.237872	0.274769	0.057998
H88	H	0.243144	0.267673	-0.058225
H89	H	0.852396	-0.439427	-0.000010
O90	O	0.542108	0.258982	-0.000140
C91	C	0.447920	0.360507	-0.072107
C92	C	0.497190	0.262641	-0.072071
H93	H	0.411604	0.363505	-0.130265
H94	H	0.406352	0.370611	-0.014033
H95	H	0.489379	0.419889	-0.072072
H96	H	0.455792	0.203200	-0.072135
H97	H	0.538767	0.252620	-0.130139
O98	O	1.051252	-0.444135	0.000036
C99	C	1.127428	-0.307658	0.000006
C100	C	1.044259	-0.343304	-0.000030
H101	H	1.121803	-0.226134	-0.000065
H102	H	1.158467	-0.331640	0.058133
H103	H	1.163593	-0.338825	-0.058091
H104	H	1.008030	-0.312153	0.058027
H105	H	1.013283	-0.319333	-0.058196
O106	O	1.025925	-0.055335	0.389915
C107	C	1.029335	-0.179335	0.488642
C108	C	0.977170	-0.107111	0.440574
H109	H	0.989938	-0.221201	0.529625
H110	H	1.066636	-0.231018	0.442422
H111	H	1.070058	-0.139201	0.529510
H112	H	0.936401	-0.147165	0.399705
H113	H	0.939922	-0.055430	0.486839
O114	O	1.060444	-0.102873	0.610220
C115	C	1.158004	-0.237738	0.619438
C116	C	1.101583	-0.159649	0.667475
H117	H	1.191291	-0.283650	0.665707
H118	H	1.122255	-0.284733	0.578556
H119	H	1.202277	-0.202592	0.578478
H120	H	1.057298	-0.194713	0.708480
H121	H	1.137383	-0.112662	0.708304
H122	H	1.045396	-0.081963	0.775537
