data_functionalizedCrystal
_audit_creation_method	'MofGen! by Chris Wilmer'
_symmetry_space_group_name_H-M	'P1'
_symmetry_Int_Tables_number	1
_symmetry_cell_setting	triclinic
loop_
_symmetry_equiv_pos_as_xyz
  x,y,z
_cell_length_a	16.625546
_cell_length_b	12.827893
_cell_length_c	12.827885
_cell_angle_alpha	89.980728
_cell_angle_beta	90.035124
_cell_angle_gamma	89.977561
loop_
_atom_site_label
_atom_site_type_symbol
_atom_site_fract_x
_atom_site_fract_y
_atom_site_fract_z
Zn1	Zn	-0.320963	-1.597618	0.590810
Zn2	Zn	0.179037	-1.097618	1.090810
Zn3	Zn	-0.455817	-1.597491	0.416054
Zn4	Zn	0.044183	-1.097491	0.916054
Zn5	Zn	-0.321002	-1.422860	0.416084
Zn6	Zn	0.178998	-0.922860	0.916084
Zn7	Zn	-0.455757	-1.422823	0.590754
Zn8	Zn	0.044243	-0.922823	1.090754
O9	O	-0.388385	-1.510198	0.503425
O10	O	0.111615	-1.010198	1.003425
O11	O	-0.338861	-1.743837	0.567639
O12	O	0.161139	-1.243837	1.067639
O13	O	-0.437976	-1.574287	0.269822
O14	O	0.062024	-1.074287	0.769822
O15	O	-0.208165	-1.446110	0.439297
O16	O	0.291835	-0.946110	0.939297
O17	O	-0.437937	-1.743744	0.439247
O18	O	0.062063	-1.243744	0.939247
O19	O	-0.208136	-1.574505	0.567668
O20	O	0.291864	-1.074505	1.067668
O21	O	-0.338928	-1.445987	0.269843
O22	O	0.161072	-0.945987	0.769843
O23	O	-0.338869	-1.276619	0.439243
O24	O	0.161131	-0.776619	0.939243
O25	O	-0.437835	-1.446048	0.736997
O26	O	0.062165	-0.946048	1.236997
O27	O	-0.437873	-1.276592	0.567572
O28	O	0.062127	-0.776592	1.067572
O29	O	-0.338802	-1.574469	0.737039
O30	O	0.161198	-1.074469	1.237039
O31	O	-0.568642	-1.574252	0.439192
O32	O	-0.068642	-1.074252	0.939192
O33	O	-0.568598	-1.445925	0.567544
O34	O	-0.068598	-0.945925	1.067544
C35	C	-0.597876	-1.510099	0.503382
C36	C	-0.097876	-1.010099	1.003382
C37	C	-0.687497	-1.510152	0.503398
C38	C	-0.187497	-1.010152	1.003398
C39	C	-0.388370	-1.238688	0.503405
C40	C	0.111630	-0.738688	1.003405
C41	C	-0.388382	-1.122535	0.503422
C42	C	0.111618	-0.622535	1.003422
C43	C	-0.388308	-1.510269	0.775996
C44	C	0.111692	-1.010269	1.275996
C45	C	-0.388275	-1.510299	0.892149
C46	C	0.111725	-1.010299	1.392149
C47	C	-1.015673	-1.510335	0.503507
C48	C	-0.515673	-1.010335	1.003507
C49	C	-0.924364	-1.510281	0.503479
C50	C	-0.424364	-1.010281	1.003479
C51	C	-0.851588	-1.510243	0.503452
C52	C	-0.351588	-1.010243	1.003452
C53	C	-0.760274	-1.510190	0.503425
C54	C	-0.260274	-1.010190	1.003425
C55	C	-0.178076	-1.510326	0.503492
C56	C	0.321924	-1.010326	1.003492
C57	C	-0.088455	-1.510380	0.503521
C58	C	0.411545	-1.010380	1.003521
C59	C	-0.388401	-1.782768	0.503446
C60	C	0.111599	-1.282768	1.003446
C61	C	-0.388408	-1.898921	0.503455
C62	C	0.111592	-1.398921	1.003455
C63	C	-0.437449	-1.070765	0.566825
C64	C	0.062551	-0.570765	1.066825
C65	C	-0.437464	-0.950714	0.566844
C66	C	0.062536	-0.450714	1.066844
C67	C	-0.388404	-1.510187	0.231915
C68	C	0.111596	-1.010187	0.731915
C69	C	-0.388210	-1.510359	0.115763
C70	C	0.111790	-1.010359	0.615763
C71	C	-0.339261	-1.573853	0.943954
C72	C	0.160739	-1.073853	1.443954
C73	C	-0.339225	-1.573886	1.064004
C74	C	0.160775	-1.073886	1.564004
H75	H	-0.479444	-1.115319	0.621098
H76	H	0.020556	-0.615319	1.121098
H77	H	-0.430206	-1.455906	0.936673
H78	H	0.069794	-0.955906	1.436673
H79	H	-0.430178	-1.455950	1.071218
H80	H	0.069822	-0.955950	1.571218
Br81	Br	-0.507491	-0.876517	0.657315
Br82	Br	-0.007491	-0.376517	1.157315
Br83	Br	-0.269287	-1.664589	1.138252
Br84	Br	0.230713	-1.164589	1.638252
Br85	Br	-0.318373	-1.048286	0.412973
Br86	Br	0.181627	-0.548286	0.912973
H87	H	-0.346401	-0.943436	0.449166
H88	H	0.153599	-0.443436	0.949166
H89	H	-0.297321	-1.628236	0.899429
H90	H	0.202679	-1.128236	1.399429
