data_functionalizedCrystal
_audit_creation_method	'MofGen! by Chris Wilmer'
_symmetry_space_group_name_H-M	'P1'
_symmetry_Int_Tables_number	1
_symmetry_cell_setting	triclinic
loop_
_symmetry_equiv_pos_as_xyz
  x,y,z
_cell_length_a	14.044220
_cell_length_b	13.339070
_cell_length_c	12.376897
_cell_angle_alpha	98.995044
_cell_angle_beta	78.348299
_cell_angle_gamma	75.590914
loop_
_atom_site_label
_atom_site_type_symbol
_atom_site_fract_x
_atom_site_fract_y
_atom_site_fract_z
O1	O	0.465458	-1.366977	0.094053
O2	O	0.401571	-1.066686	0.094044
O3	O	0.294347	-1.212326	0.094037
O4	O	0.572682	-1.221336	0.094060
O5	O	0.336899	-1.250749	-0.093958
O6	O	0.444123	-1.105109	-0.093951
O7	O	0.508010	-1.405399	-0.093942
Zn8	Zn	0.482823	-1.261355	-0.123795
Zn9	Zn	0.426758	-1.210731	0.123896
O10	O	0.615234	-1.259759	-0.093935
C11	C	0.279271	-1.227592	0.000039
C12	C	0.170950	-1.215822	0.000037
C13	C	0.412055	-1.047235	0.000045
C14	C	0.379887	-0.932031	0.000042
C15	C	0.497525	-1.424850	0.000059
C16	C	0.529691	-1.540053	0.000070
C17	C	-0.027375	-1.194299	0.000053
C18	C	-0.063054	-1.277779	0.000059
C19	C	-0.173408	-1.265804	0.000067
C20	C	0.082989	-1.206273	0.000044
C21	C	0.630309	-1.244493	0.000065
C22	C	0.738629	-1.256262	0.000074
N23	N	0.521086	-1.295912	-0.292837
C24	C	0.630005	-0.589801	0.000080
C25	C	0.660230	-0.698040	0.000087
C26	C	0.590147	-0.756543	0.000075
C27	C	0.489833	-0.706796	0.000057
C28	C	0.459603	-0.598545	0.000059
C29	C	0.419745	-0.765287	0.000054
C30	C	0.319431	-0.715540	0.000037
C31	C	0.289206	-0.607300	0.000038
C32	C	0.359289	-0.548797	0.000049
C33	C	0.449976	-0.873538	0.000053
C34	C	0.279574	-0.882282	0.000032
C35	C	0.249348	-0.774043	0.000025
C36	C	0.299648	-1.095925	-0.647913
C37	C	0.272860	-1.071721	-0.529584
C38	C	0.334915	-1.127767	-0.470392
C39	C	0.423761	-1.208020	-0.529540
C40	C	0.450547	-1.232231	-0.647880
C41	C	0.485814	-1.264073	-0.470359
C42	C	0.574660	-1.344326	-0.529506
C43	C	0.601442	-1.368533	-0.647835
C44	C	0.539388	-1.312488	-0.707028
C45	C	0.459028	-1.239862	-0.352018
C46	C	0.609927	-1.376168	-0.351985
C47	C	0.636715	-1.400371	-0.470314
N48	N	0.388489	-1.176181	0.292939
H49	H	-0.010739	-1.358226	0.000137
C50	C	-0.098063	-1.085604	0.000052
C51	C	-0.209989	-1.073629	0.000058
C52	C	-0.280691	-0.964936	0.000056
C53	C	-0.239466	-0.868217	0.000047
C54	C	-0.127535	-0.880189	0.000040
C55	C	-0.056834	-0.988883	0.000043
H56	H	-0.240511	-1.145228	0.000065
H57	H	-0.363550	-0.956074	0.000061
H58	H	-0.291804	-0.787756	0.000045
H59	H	-0.097014	-0.808590	0.000034
H60	H	0.026026	-0.997745	0.000038
C61	C	0.770573	-0.752753	0.000096
C62	C	0.858796	-0.754203	-0.097522
C63	C	0.969146	-0.808914	-0.097517
C64	C	0.991274	-0.862175	0.000105
C65	C	0.903048	-0.860726	0.097729
C66	C	0.792698	-0.806015	0.097725
H67	H	0.842418	-0.714775	-0.169793
H68	H	1.034457	-0.809986	-0.169786
H69	H	1.072962	-0.902675	0.000108
H70	H	0.919426	-0.900154	0.170001
H71	H	0.727387	-0.804943	0.169993
H72	H	0.313099	-1.108055	-0.374043
H73	H	0.207521	-0.566797	0.000036
H74	H	0.531653	-0.914032	0.000063
C75	C	0.139003	-0.719312	0.000014
C76	C	0.116893	-0.666044	-0.097608
C77	C	0.006549	-0.611312	-0.097619
C78	C	-0.081685	-0.609848	-0.000008
C79	C	-0.059578	-0.663118	0.097622
C80	C	0.050766	-0.717850	0.097633
H81	H	0.182212	-0.667126	-0.169873
H82	H	-0.009815	-0.571878	-0.169891
H83	H	-0.163368	-0.569332	-0.000016
H84	H	-0.124896	-0.662036	0.169886
H85	H	0.067131	-0.757284	0.169905
H86	H	0.614762	-0.844675	0.000084
H87	H	0.709055	-1.465715	-0.518489
H88	H	0.687053	-0.542156	0.000099
H89	H	0.222504	-0.929914	0.000027
H90	H	0.334684	-0.460659	0.000043
C91	C	0.361307	-1.151583	-0.286964
C92	C	0.257542	-1.160134	-0.303239
C93	C	0.159816	-1.071848	-0.238185
C94	C	0.165854	-0.975011	-0.156856
C95	C	0.269622	-0.966456	-0.140577
C96	C	0.367348	-1.054742	-0.205631
H97	H	0.253069	-1.231823	-0.363447
H98	H	0.083000	-1.078182	-0.250237
H99	H	0.093511	-0.909656	-0.108699
H100	H	0.274095	-0.894767	-0.080369
H101	H	0.444164	-1.048408	-0.193579
C102	C	0.678196	-1.437824	-0.286886
C103	C	0.648737	-1.411193	-0.156724
C104	C	0.716998	-1.472846	-0.091617
C105	C	0.814717	-1.561131	-0.156673
C106	C	0.844180	-1.587766	-0.286842
C107	C	0.775920	-1.526113	-0.351949
H108	H	0.576396	-1.345836	-0.108559
H109	H	0.695186	-1.453129	0.004744
H110	H	0.865247	-1.606770	-0.108477
H111	H	0.916522	-1.653123	-0.335007
H112	H	0.797731	-1.545831	-0.448310
C113	C	0.175141	-0.983440	-0.464530
C114	C	0.071375	-0.991985	-0.480805
C115	C	-0.026348	-0.903694	-0.415751
C116	C	-0.020305	-0.806860	-0.334422
C117	C	0.083465	-0.798311	-0.318143
C118	C	0.181188	-0.886601	-0.383197
H119	H	0.066898	-1.063671	-0.541013
H120	H	-0.103166	-0.910023	-0.427802
H121	H	-0.092646	-0.741502	-0.286265
H122	H	0.087942	-0.726625	-0.257935
H123	H	0.258006	-0.880273	-0.371146
C124	C	0.231404	-1.034271	-0.713024
C125	C	0.260875	-1.060896	-0.843187
C126	C	0.192629	-0.999231	-0.908299
C127	C	0.094912	-0.910942	-0.843248
C128	C	0.065436	-0.884313	-0.713079
C129	C	0.133682	-0.945978	-0.647967
H130	H	0.333216	-1.126256	-0.891348
H131	H	0.214449	-1.018944	-1.004660
H132	H	0.044392	-0.865294	-0.891448
H133	H	-0.006904	-0.818953	-0.664918
H134	H	0.111862	-0.926265	-0.551606
H135	H	0.561197	-1.332186	-0.803381
H136	H	0.673780	-1.433889	-0.695990
