data_functionalizedCrystal
_audit_creation_method	'MofGen! by Chris Wilmer'
_symmetry_space_group_name_H-M	'P1'
_symmetry_Int_Tables_number	1
_symmetry_cell_setting	triclinic
loop_
_symmetry_equiv_pos_as_xyz
  x,y,z
_cell_length_a	10.489716
_cell_length_b	9.565339
_cell_length_c	10.654550
_cell_angle_alpha	90.000704
_cell_angle_beta	84.507033
_cell_angle_gamma	89.996907
loop_
_atom_site_label
_atom_site_type_symbol
_atom_site_fract_x
_atom_site_fract_y
_atom_site_fract_z
O1	O	1.693974	0.116248	0.177040
O2	O	1.322766	0.116254	0.193704
O3	O	1.516904	0.116242	0.002636
O4	O	1.499835	0.116260	0.368108
O5	O	1.516913	-0.116278	0.002641
O6	O	1.322774	-0.116267	0.193710
O7	O	1.693982	-0.116272	0.177045
Zn8	Zn	1.508380	-0.153187	0.185378
Zn9	Zn	1.508368	0.153169	0.185371
O10	O	1.499844	-0.116260	0.368113
C11	C	1.275239	-0.000006	0.192455
C12	C	1.133609	-0.000004	0.188709
N13	N	1.508397	-0.362266	0.185383
C14	C	1.035879	0.000005	0.305878
C15	C	0.958567	-0.114649	0.243966
C16	C	0.958565	0.114598	0.243933
C17	C	1.058163	-0.114753	0.126846
C18	C	1.058166	0.114597	0.126830
C19	C	0.980904	-0.000085	0.064832
C20	C	1.598208	-0.453437	0.097026
C21	C	1.482724	-0.546607	0.071600
C22	C	1.623835	-0.546651	0.210727
C23	C	1.392854	-0.453384	0.159900
C24	C	1.534041	-0.453421	0.299077
C25	C	1.418474	-0.546548	0.273698
C26	C	1.741509	-0.000009	0.178294
C27	C	1.883139	-0.000002	0.182040
C28	C	1.515655	-0.000017	-0.044160
C29	C	1.511906	-0.000015	-0.183605
N30	N	1.508361	0.362248	0.185357
C31	C	1.626211	-0.000016	-0.263047
C32	C	1.622680	0.000001	-0.394069
C33	C	1.390528	0.000014	-0.366194
C34	C	1.394060	0.000007	-0.235174
C35	C	1.501093	0.000002	0.414909
C36	C	1.504842	0.000009	0.554354
H37	H	1.060499	-0.000097	0.407797
H38	H	1.300973	0.000012	-0.170489
H39	H	1.101507	-0.211779	0.077415
C40	C	1.563431	-0.398068	0.428942
N41	N	1.585581	-0.356371	0.526755
H42	H	0.915064	-0.211573	0.293430
C43	C	0.947951	-0.000185	-0.072952
N44	N	0.923126	-0.000269	-0.176730
H45	H	1.101683	0.211527	0.077403
C46	C	1.260919	-0.398276	0.130760
N47	N	1.161551	-0.356765	0.108804
H48	H	1.294582	0.000030	-0.408199
H49	H	1.721475	-0.587619	0.232175
H50	H	1.722169	-0.000031	-0.221063
H51	H	0.915054	0.211514	0.293416
C52	C	1.315737	-0.601444	0.374628
N53	N	1.238351	-0.642796	0.450643
H54	H	1.715760	0.000003	-0.458746
H55	H	1.674086	-0.412552	0.022266
C56	C	1.453407	-0.601942	-0.058302
N57	N	1.431341	-0.643627	-0.156145
