data_functionalizedCrystal
_audit_creation_method	'MofGen! by Chris Wilmer'
_symmetry_space_group_name_H-M	'P1'
_symmetry_Int_Tables_number	1
_symmetry_cell_setting	triclinic
loop_
_symmetry_equiv_pos_as_xyz
  x,y,z
_cell_length_a	19.188931
_cell_length_b	14.519731
_cell_length_c	18.266242
_cell_angle_alpha	89.994522
_cell_angle_beta	90.004165
_cell_angle_gamma	96.583002
loop_
_atom_site_label
_atom_site_type_symbol
_atom_site_fract_x
_atom_site_fract_y
_atom_site_fract_z
O1	O	-0.926562	0.115138	-0.060857
O2	O	-0.676562	0.365138	0.189143
O3	O	-0.426562	0.615138	0.439143
O4	O	-0.176562	0.865138	0.689143
O5	O	-0.723307	0.130636	-0.060865
O6	O	-0.473307	0.380636	0.189135
O7	O	-0.223307	0.630636	0.439135
O8	O	0.026693	0.880636	0.689135
O9	O	-0.830316	-0.011384	-0.060854
O10	O	-0.580316	0.238616	0.189146
O11	O	-0.330316	0.488616	0.439146
O12	O	-0.080316	0.738616	0.689146
O13	O	-0.819553	0.257157	-0.060868
O14	O	-0.569553	0.507157	0.189132
O15	O	-0.319553	0.757157	0.439132
O16	O	-0.069553	1.007157	0.689132
O17	O	-0.830304	-0.011387	0.060908
O18	O	-0.580304	0.238613	0.310908
O19	O	-0.330304	0.488613	0.560908
O20	O	-0.080304	0.738613	0.810908
O21	O	-0.723295	0.130632	0.060897
O22	O	-0.473295	0.380632	0.310897
O23	O	-0.223295	0.630632	0.560897
O24	O	0.026705	0.880632	0.810897
O25	O	-0.926551	0.115134	0.060905
O26	O	-0.676551	0.365134	0.310905
O27	O	-0.426551	0.615134	0.560905
O28	O	-0.176551	0.865134	0.810905
Zn29	Zn	-0.824921	0.122883	0.080233
Zn30	Zn	-0.574921	0.372883	0.330233
Zn31	Zn	-0.324921	0.622883	0.580233
Zn32	Zn	-0.074921	0.872883	0.830233
Zn33	Zn	-0.824936	0.122887	-0.080193
Zn34	Zn	-0.574936	0.372887	0.169807
Zn35	Zn	-0.324936	0.622887	0.419807
Zn36	Zn	-0.074936	0.872887	0.669807
O37	O	-0.819542	0.257154	0.060894
O38	O	-0.569542	0.507154	0.310894
O39	O	-0.319542	0.757154	0.560894
O40	O	-0.069542	1.007154	0.810894
C41	C	-0.697288	0.130132	0.000016
C42	C	-0.447288	0.380132	0.250016
C43	C	-0.197288	0.630132	0.500016
C44	C	0.052712	0.880132	0.750016
C45	C	-0.619778	0.128625	0.000013
C46	C	-0.369778	0.378625	0.250013
C47	C	-0.119778	0.628625	0.500013
C48	C	0.130222	0.878625	0.750013
C49	C	-0.829806	-0.045742	0.000027
C50	C	-0.579806	0.204258	0.250027
C51	C	-0.329806	0.454258	0.500027
C52	C	-0.079806	0.704258	0.750027
C53	C	-0.828295	-0.148113	0.000027
C54	C	-0.578295	0.101887	0.250027
C55	C	-0.328295	0.351887	0.500027
C56	C	-0.078295	0.601887	0.750027
C57	C	-0.066490	0.117871	-0.066351
C58	C	0.183510	0.367871	0.183649
C59	C	0.433510	0.617871	0.433649
C60	C	0.683510	0.867871	0.683649
C61	C	-0.139320	0.119282	-0.066354
C62	C	0.110680	0.369282	0.183646
C63	C	0.360680	0.619282	0.433646
C64	C	0.610680	0.869282	0.683646
C65	C	-0.175733	0.119989	0.000018
C66	C	0.074267	0.369989	0.250018
C67	C	0.324267	0.619989	0.500018
C68	C	0.574267	0.869989	0.750018
C69	C	-0.139313	0.119263	0.066398
C70	C	0.110687	0.369263	0.316398
C71	C	0.360687	0.619263	0.566398
C72	C	0.610687	0.869263	0.816398
C73	C	-0.066486	0.117843	0.066399
C74	C	0.183514	0.367843	0.316399
C75	C	0.433514	0.617843	0.566399
C76	C	0.683514	0.867843	0.816399
N77	N	-0.284946	0.174695	0.049419
N78	N	-0.034946	0.424695	0.299419
N79	N	0.215054	0.674695	0.549419
N80	N	0.465054	0.924695	0.799419
N81	N	-0.354129	0.176045	0.049414
N82	N	-0.104129	0.426045	0.299414
N83	N	0.145871	0.676045	0.549414
N84	N	0.395871	0.926045	0.799414
C85	C	-0.395157	0.124265	0.000019
C86	C	-0.145157	0.374265	0.250019
C87	C	0.104843	0.624265	0.500019
C88	C	0.354843	0.874265	0.750019
N89	N	-0.364388	0.071095	-0.049381
N90	N	-0.114388	0.321095	0.200619
N91	N	0.135612	0.571095	0.450619
N92	N	0.385612	0.821095	0.700619
N93	N	-0.295199	0.069748	-0.049378
N94	N	-0.045199	0.319748	0.200622
N95	N	0.204801	0.569748	0.450622
N96	N	0.454801	0.819748	0.700622
C97	C	-0.254702	0.121528	0.000024
C98	C	-0.004702	0.371528	0.250024
C99	C	0.245298	0.621528	0.500024
C100	C	0.495298	0.871528	0.750024
C101	C	-0.510539	0.126514	-0.066360
C102	C	-0.260539	0.376514	0.183640
C103	C	-0.010539	0.626514	0.433640
C104	C	0.239461	0.876514	0.683640
C105	C	-0.583370	0.127919	-0.066360
C106	C	-0.333370	0.377919	0.183640
C107	C	-0.083370	0.627919	0.433640
C108	C	0.166630	0.877919	0.683640
C109	C	-0.583361	0.127909	0.066394
C110	C	-0.333361	0.377909	0.316394
C111	C	-0.083361	0.627909	0.566394
C112	C	0.166639	0.877909	0.816394
C113	C	-0.510532	0.126495	0.066392
C114	C	-0.260532	0.376495	0.316392
C115	C	-0.010532	0.626495	0.566392
C116	C	0.239468	0.876495	0.816392
C117	C	-0.474125	0.125802	0.000013
C118	C	-0.224125	0.375802	0.250013
C119	C	0.025875	0.625802	0.500013
C120	C	0.275875	0.875802	0.750013
C121	C	-0.827067	-0.231249	0.000026
C122	C	-0.577067	0.018751	0.250026
C123	C	-0.327067	0.268751	0.500026
C124	C	-0.077067	0.518751	0.750026
C125	C	-0.825532	-0.335548	0.000020
C126	C	-0.575532	-0.085548	0.250020
C127	C	-0.325532	0.164452	0.500020
C128	C	-0.075532	0.414452	0.750020
C129	C	-0.824315	-0.418680	0.000015
C130	C	-0.574315	-0.168680	0.250015
C131	C	-0.324315	0.081320	0.500015
C132	C	-0.074315	0.331320	0.750015
C133	C	-0.822781	-0.522986	0.000011
C134	C	-0.572781	-0.272986	0.250011
C135	C	-0.322781	-0.022986	0.500011
C136	C	-0.072781	0.227014	0.750011
C137	C	0.047431	0.115639	0.000023
C138	C	0.297431	0.365639	0.250023
C139	C	0.547431	0.615639	0.500023
C140	C	0.797431	0.865639	0.750023
C141	C	-0.030079	0.117150	0.000020
C142	C	0.219921	0.367150	0.250020
C143	C	0.469921	0.617150	0.500020
C144	C	0.719921	0.867150	0.750020
C145	C	-0.820052	0.291512	0.000011
C146	C	-0.570052	0.541512	0.250011
C147	C	-0.320052	0.791512	0.500011
C148	C	-0.070052	1.041512	0.750011
C149	C	-0.821563	0.393883	0.000006
C150	C	-0.571563	0.643883	0.250006
C151	C	-0.321563	0.893883	0.500006
C152	C	-0.071563	1.143883	0.750006
N153	N	-0.824916	0.122879	0.189720
N154	N	-0.574916	0.372879	0.439720
N155	N	-0.324916	0.622879	0.689720
N156	N	-0.074916	0.872879	0.939720
N157	N	-0.824947	0.122883	-0.189680
N158	N	-0.574947	0.372883	0.060320
N159	N	-0.324947	0.622883	0.310320
N160	N	-0.074947	0.872883	0.560320
C161	C	-0.872332	0.060014	0.772002
C162	C	-0.622332	0.310014	1.022002
C163	C	-0.372332	0.560014	1.272002
C164	C	-0.122332	0.810014	1.522002
C165	C	-0.872333	0.060016	0.695357
C166	C	-0.622333	0.310016	0.945357
C167	C	-0.372333	0.560016	1.195357
C168	C	-0.122333	0.810016	1.445357
C169	C	-0.824937	0.122879	0.657033
C170	C	-0.574937	0.372879	0.907033
C171	C	-0.324937	0.622879	1.157033
C172	C	-0.074937	0.872879	1.407033
C173	C	-0.777549	0.185760	0.695360
C174	C	-0.527549	0.435760	0.945360
C175	C	-0.277549	0.685760	1.195360
C176	C	-0.027549	0.935760	1.445360
C177	C	-0.777554	0.185762	0.772003
C178	C	-0.527554	0.435762	1.022003
C179	C	-0.277554	0.685762	1.272003
C180	C	-0.027554	0.935762	1.522003
N181	N	-0.763168	0.134830	0.536704
N182	N	-0.513168	0.384830	0.786704
N183	N	-0.263168	0.634830	1.036704
N184	N	-0.013168	0.884830	1.286704
N185	N	-0.763165	0.134822	0.463896
N186	N	-0.513165	0.384822	0.713896
N187	N	-0.263165	0.634822	0.963896
N188	N	-0.013165	0.884822	1.213896
C189	C	-0.824920	0.122877	0.426110
C190	C	-0.574920	0.372877	0.676110
C191	C	-0.324920	0.622877	0.926110
C192	C	-0.074920	0.872877	1.176110
N193	N	-0.886679	0.110922	0.463884
N194	N	-0.636679	0.360922	0.713884
N195	N	-0.386679	0.610922	0.963884
N196	N	-0.136679	0.860922	1.213884
N197	N	-0.886681	0.110925	0.536699
N198	N	-0.636681	0.360925	0.786699
N199	N	-0.386681	0.610925	1.036699
N200	N	-0.136681	0.860925	1.286699
C201	C	-0.824927	0.122884	0.573926
C202	C	-0.574927	0.372884	0.823926
C203	C	-0.324927	0.622884	1.073926
C204	C	-0.074927	0.872884	1.323926
C205	C	-0.872309	0.060007	0.304686
C206	C	-0.622309	0.310007	0.554686
C207	C	-0.372309	0.560007	0.804686
C208	C	-0.122309	0.810007	1.054686
C209	C	-0.872311	0.060015	0.228039
C210	C	-0.622311	0.310015	0.478039
C211	C	-0.372311	0.560015	0.728039
C212	C	-0.122311	0.810015	0.978039
C213	C	-0.777521	0.185754	0.228043
C214	C	-0.527521	0.435754	0.478043
C215	C	-0.277521	0.685754	0.728043
C216	C	-0.027521	0.935754	0.978043
C217	C	-0.777525	0.185750	0.304688
C218	C	-0.527525	0.435750	0.554688
C219	C	-0.277525	0.685750	0.804688
C220	C	-0.027525	0.935750	1.054688
C221	C	-0.824919	0.122871	0.343005
C222	C	-0.574919	0.372871	0.593005
C223	C	-0.324919	0.622871	0.843005
C224	C	-0.074919	0.872871	1.093005
H225	H	-0.036852	0.117303	-0.120403
H226	H	0.213148	0.367303	0.129597
H227	H	0.463148	0.617303	0.379597
H228	H	0.713148	0.867303	0.629597
H229	H	-0.910901	0.008822	0.196841
H230	H	-0.660901	0.258822	0.446841
H231	H	-0.410901	0.508822	0.696841
H232	H	-0.160901	0.758822	0.946841
F233	F	-0.178079	0.120051	-0.136999
F234	F	0.071921	0.370051	0.113001
F235	F	0.321921	0.620051	0.363001
F236	F	0.571921	0.870051	0.613001
F237	F	-0.622123	0.128678	-0.137005
F238	F	-0.372123	0.378678	0.112995
F239	F	-0.122123	0.628678	0.362995
F240	F	0.127877	0.878678	0.612995
H241	H	-0.168965	0.119837	0.120439
H242	H	0.081035	0.369837	0.370439
H243	H	0.331035	0.619837	0.620439
H244	H	0.581035	0.869837	0.870439
F245	F	-0.922774	-0.006902	0.812780
F246	F	-0.672774	0.243098	1.062780
F247	F	-0.422774	0.493098	1.312780
F248	F	-0.172774	0.743098	1.562780
H249	H	-0.738967	0.236959	0.803202
H250	H	-0.488967	0.486959	1.053202
H251	H	-0.238967	0.736959	1.303202
H252	H	0.011033	0.986959	1.553202
H253	H	-0.910921	0.008819	0.664153
H254	H	-0.660921	0.258819	0.914153
H255	H	-0.410921	0.508819	1.164153
H256	H	-0.160921	0.758819	1.414153
F257	F	-0.922752	-0.006910	0.345466
F258	F	-0.672752	0.243090	0.595466
F259	F	-0.422752	0.493090	0.845466
F260	F	-0.172752	0.743090	1.095466
F261	F	-0.471777	0.125740	0.137035
F262	F	-0.221777	0.375740	0.387035
F263	F	0.028223	0.625740	0.637035
F264	F	0.278223	0.875740	0.887035
F265	F	-0.727109	0.252666	0.654572
F266	F	-0.477109	0.502666	0.904572
F267	F	-0.227109	0.752666	1.154572
F268	F	0.022891	1.002666	1.404572
H269	H	-0.738933	0.236941	0.196840
H270	H	-0.488933	0.486941	0.446840
H271	H	-0.238933	0.736941	0.696840
H272	H	0.011067	0.986941	0.946840
F273	F	-0.471790	0.125771	-0.137005
F274	F	-0.221790	0.375771	0.112995
F275	F	0.028210	0.625771	0.362995
F276	F	0.278210	0.875771	0.612995
F277	F	-0.027733	0.117078	0.137043
F278	F	0.222267	0.367078	0.387043
F279	F	0.472267	0.617078	0.637043
F280	F	0.722267	0.867078	0.887043
F281	F	-0.622111	0.128651	0.137033
F282	F	-0.372111	0.378651	0.387033
F283	F	-0.122111	0.628651	0.637033
F284	F	0.127889	0.878651	0.887033
H285	H	-0.738938	0.236940	0.335888
H286	H	-0.488938	0.486940	0.585888
H287	H	-0.238938	0.736940	0.835888
H288	H	0.011062	0.986940	1.085888
