data_functionalizedCrystal
_audit_creation_method	'MofGen! by Chris Wilmer'
_symmetry_space_group_name_H-M	'P1'
_symmetry_Int_Tables_number	1
_symmetry_cell_setting	triclinic
loop_
_symmetry_equiv_pos_as_xyz
  x,y,z
_cell_length_a	29.839131
_cell_length_b	13.032831
_cell_length_c	13.032268
_cell_angle_alpha	89.113023
_cell_angle_beta	82.859460
_cell_angle_gamma	82.845366
loop_
_atom_site_label
_atom_site_type_symbol
_atom_site_fract_x
_atom_site_fract_y
_atom_site_fract_z
Zn1	Zn	-0.303377	1.498202	0.780727
Zn2	Zn	0.029956	1.831535	1.114060
Zn3	Zn	0.363290	2.164869	1.447393
Zn4	Zn	-0.370307	1.519883	0.608723
Zn5	Zn	-0.036974	1.853217	0.942056
Zn6	Zn	0.296360	2.186550	1.275390
Zn7	Zn	-0.284611	1.348078	0.586974
Zn8	Zn	0.048722	1.681411	0.920308
Zn9	Zn	0.382056	2.014744	1.253641
Zn10	Zn	-0.367878	1.326134	0.758849
Zn11	Zn	-0.034545	1.659467	1.092182
Zn12	Zn	0.298788	1.992800	1.425516
O13	O	-0.331543	1.423074	0.683818
O14	O	0.001790	1.756407	1.017152
O15	O	0.335123	2.089741	1.350485
O16	O	-0.321125	1.644991	0.776168
O17	O	0.012208	1.978324	1.109501
O18	O	0.345541	2.311657	1.442834
O19	O	-0.352102	1.515350	0.461924
O20	O	-0.018769	1.848684	0.795257
O21	O	0.314565	2.182017	1.128590
O22	O	-0.224242	1.368102	0.612730
O23	O	0.109091	1.701435	0.946064
O24	O	0.442425	2.034769	1.279397
O25	O	-0.370299	1.660920	0.649797
O26	O	-0.036965	1.994253	0.983131
O27	O	0.296368	2.327586	1.316464
O28	O	-0.238029	1.478398	0.755079
O29	O	0.095304	1.811731	1.088413
O30	O	0.428637	2.145064	1.421746
O31	O	-0.289141	1.389125	0.445945
O32	O	0.044192	1.722459	0.779278
O33	O	0.377525	2.055792	1.112612
O34	O	-0.286786	1.201254	0.591516
O35	O	0.046547	1.534588	0.924849
O36	O	0.379880	1.867921	1.258183
O37	O	-0.366159	1.330702	0.905665
O38	O	-0.032826	1.664035	1.238999
O39	O	0.300508	1.997368	1.572332
O40	O	-0.347962	1.185132	0.717792
O41	O	-0.014629	1.518465	1.051125
O42	O	0.318704	1.851799	1.384458
O43	O	-0.318770	1.457120	0.921739
O44	O	0.014563	1.790453	1.255072
O45	O	0.347896	2.123786	1.588406
O46	O	-0.432843	1.494072	0.628583
O47	O	-0.099510	1.827405	0.961917
O48	O	0.233824	2.160739	1.295250
O49	O	-0.431059	1.351725	0.738880
O50	O	-0.097725	1.685058	1.072214
O51	O	0.235608	2.018392	1.405547
C52	C	-0.315075	1.155878	0.649920
C53	C	0.018258	1.489211	0.983254
C54	C	0.351592	1.822545	1.316587
C55	C	-0.308042	1.041567	0.635443
C56	C	0.025292	1.374901	0.968777
C57	C	0.358625	1.708234	1.302110
C58	C	-0.335214	0.982667	0.691374
C59	C	-0.001881	1.316000	1.024707
C60	C	0.331453	1.649333	1.358041
C61	C	-0.327945	0.864520	0.676412
C62	C	0.005388	1.197854	1.009746
C63	C	0.338721	1.531187	1.343079
C64	C	-0.448252	1.422895	0.683744
C65	C	-0.114919	1.756228	1.017077
C66	C	0.218415	2.089562	1.350410
C67	C	-0.498188	1.422908	0.683758
C68	C	-0.164855	1.756241	1.017091
C69	C	0.168479	2.089575	1.350425
C70	C	-0.808772	1.497302	0.626498
C71	C	-0.475439	1.830635	0.959831
C72	C	-0.142105	2.163968	1.293165
C73	C	-0.996455	1.497423	0.626554
C74	C	-0.663121	1.830757	0.959887
C75	C	-0.329788	2.164090	1.293221
O76	O	-1.021509	1.560533	0.577811
O77	O	-0.688175	1.893867	0.911145
O78	O	-0.354842	2.227200	1.244478
N79	N	-1.019002	1.423278	0.683923
N80	N	-0.685669	1.756611	1.017256
N81	N	-0.352335	2.089944	1.350589
C82	C	-0.994626	1.349100	0.741287
C83	C	-0.661293	1.682433	1.074621
C84	C	-0.327960	2.015767	1.407954
O85	O	-1.018111	1.286044	0.790093
O86	O	-0.684778	1.619377	1.123426
O87	O	-0.351445	1.952710	1.456759
C88	C	-0.806945	1.348984	0.741236
C89	C	-0.473612	1.682317	1.074570
C90	C	-0.140278	2.015650	1.407903
C91	C	-0.784399	1.423128	0.683855
C92	C	-0.451066	1.756461	1.017189
C93	C	-0.117733	2.089795	1.350522
C94	C	-0.786226	1.571441	0.569122
C95	C	-0.452893	1.904774	0.902456
C96	C	-0.119560	2.238107	1.235789
C97	C	-0.739308	1.571406	0.569105
C98	C	-0.405975	1.904739	0.902438
C99	C	-0.072641	2.238073	1.235771
C100	C	-0.714935	1.497232	0.626462
C101	C	-0.381602	1.830566	0.959795
C102	C	-0.048269	2.163899	1.293129
C103	C	-0.737481	1.423093	0.683837
C104	C	-0.404148	1.756427	1.017171
C105	C	-0.070814	2.089760	1.350504
C106	C	-0.782571	1.274811	0.798606
C107	C	-0.449237	1.608145	1.131939
C108	C	-0.115904	1.941478	1.465273
C109	C	-0.735648	1.274790	0.798590
C110	C	-0.402314	1.608124	1.131924
C111	C	-0.068981	1.941457	1.465257
C112	C	-0.713102	1.348935	0.741209
C113	C	-0.379769	1.682268	1.074543
C114	C	-0.046435	2.015601	1.407876
C115	C	-0.666190	1.348885	0.741177
C116	C	-0.332857	1.682218	1.074510
C117	C	0.000477	2.015552	1.407844
N118	N	-0.643643	1.423031	0.683808
N119	N	-0.310309	1.756364	1.017142
N120	N	0.023024	2.089697	1.350475
C121	C	-0.668015	1.497205	0.626451
C122	C	-0.334682	1.830538	0.959784
C123	C	-0.001349	2.163871	1.293117
C124	C	-1.093162	1.349165	0.741308
C125	C	-0.759828	1.682498	1.074642
C126	C	-0.426495	2.015832	1.407975
C127	C	-1.140082	1.349193	0.741320
C128	C	-0.806748	1.682526	1.074653
C129	C	-0.473415	2.015860	1.407986
C130	C	-1.141907	1.497518	0.626588
C131	C	-0.808574	1.830851	0.959921
C132	C	-0.475240	2.164185	1.293254
C133	C	-1.094986	1.497485	0.626571
C134	C	-0.761652	1.830818	0.959904
C135	C	-0.428319	2.164151	1.293238
C136	C	-1.070614	1.423311	0.683939
C137	C	-0.737281	1.756644	1.017273
C138	C	-0.403948	2.089978	1.350606
C139	C	-0.569483	1.497126	0.626417
C140	C	-0.236150	1.830459	0.959750
C141	C	0.097183	2.163792	1.293083
C142	C	-0.522561	1.497082	0.626401
C143	C	-0.189227	1.830415	0.959734
C144	C	0.144106	2.163748	1.293067
C145	C	-0.520740	1.348761	0.741137
C146	C	-0.187406	1.682094	1.074470
C147	C	0.145927	2.015427	1.407803
C148	C	-0.567658	1.348801	0.741149
C149	C	-0.234325	1.682134	1.074482
C150	C	0.099009	2.015467	1.407815
C151	C	-0.592029	1.422992	0.683787
C152	C	-0.258696	1.756325	1.017120
C153	C	0.074638	2.089659	1.350453
O154	O	-0.641109	1.285815	0.789903
O155	O	-0.307775	1.619149	1.123237
O156	O	0.025558	1.952482	1.456570
O157	O	-0.644524	1.560265	0.577671
O158	O	-0.311191	1.893599	0.911004
O159	O	0.022143	2.226932	1.244337
C160	C	-0.855690	1.497336	0.626516
C161	C	-0.522357	1.830670	0.959849
C162	C	-0.189024	2.164003	1.293182
C163	C	-0.878236	1.423197	0.683891
C164	C	-0.544903	1.756531	1.017224
C165	C	-0.211569	2.089864	1.350558
C166	C	-0.853863	1.349024	0.741249
C167	C	-0.520530	1.682357	1.074582
C168	C	-0.187197	2.015690	1.407915
C169	C	-0.925156	1.423225	0.683903
C170	C	-0.591823	1.756558	1.017236
C171	C	-0.258489	2.089892	1.350569
C172	C	-0.949529	1.497399	0.626545
C173	C	-0.616195	1.830732	0.959878
C174	C	-0.282862	2.164065	1.293212
C175	C	-0.926981	1.571545	0.569176
C176	C	-0.593648	1.904878	0.902509
C177	C	-0.260315	2.238211	1.235843
C178	C	-0.880063	1.571510	0.569158
C179	C	-0.546730	1.904843	0.902492
C180	C	-0.213396	2.238177	1.235825
C181	C	-0.876411	1.274878	0.798618
C182	C	-0.543077	1.608211	1.131951
C183	C	-0.209744	1.941544	1.465284
C184	C	-0.923329	1.274918	0.798630
C185	C	-0.589996	1.608251	1.131963
C186	C	-0.256662	1.941584	1.465297
C187	C	-0.947702	1.349091	0.741272
C188	C	-0.614368	1.682425	1.074606
C189	C	-0.281035	2.015758	1.407939
C190	C	-0.214382	1.423279	0.683919
C191	C	0.118952	1.756613	1.017252
C192	C	0.452285	2.089946	1.350586
C193	C	-0.164454	1.423367	0.683962
C194	C	0.168879	1.756700	1.017295
C195	C	0.502212	2.090033	1.350629
C196	C	-0.344287	1.389044	0.952061
C197	C	-0.010954	1.722378	1.285394
C198	C	0.322380	2.055711	1.618728
C199	C	-0.349718	1.374543	1.066370
C200	C	-0.016384	1.707876	1.399703
C201	C	0.316949	2.041209	1.733037
C202	C	-0.348076	1.691313	0.717849
C203	C	-0.014743	2.024647	1.051182
C204	C	0.318590	2.357980	1.384516
C205	C	-0.355122	1.805621	0.732351
C206	C	-0.021788	2.138954	1.065684
C207	C	0.311545	2.472288	1.399017
C208	C	-0.318820	1.457031	0.416627
C209	C	0.014513	1.790364	0.749960
C210	C	0.347846	2.123698	1.083293
C211	C	-0.313275	1.471732	0.302344
C212	C	0.020058	1.805065	0.635677
C213	C	0.353391	2.138398	0.969010
C214	C	-0.328692	1.430627	1.125285
C215	C	0.004642	1.763960	1.458619
C216	C	0.337975	2.097293	1.791952
C217	C	-0.334304	1.415640	1.243430
C218	C	-0.000971	1.748973	1.576763
C219	C	0.332363	2.082307	1.910096
H220	H	-0.504205	1.557459	0.579670
H221	H	-0.170872	1.890793	0.913004
H222	H	0.162461	2.224126	1.246337
H223	H	-0.383766	0.842654	0.791322
H224	H	-0.050433	1.175988	1.124655
H225	H	0.282901	1.509321	1.457989
H226	H	-0.363857	1.019706	0.750338
H227	H	-0.030524	1.353039	1.083671
H228	H	0.302810	1.686373	1.417005
H229	H	-0.356458	1.356519	1.280451
H230	H	-0.023125	1.689852	1.613784
H231	H	0.310208	2.023185	1.947117
H232	H	-0.299297	0.827484	0.617452
H233	H	0.034036	1.160818	0.950785
H234	H	0.367369	1.494151	1.284118
H235	H	-0.306534	1.489733	1.088259
H236	H	0.026799	1.823067	1.421592
H237	H	0.360133	2.156400	1.754925
H238	H	-1.158433	1.288809	0.788034
H239	H	-0.825100	1.622142	1.121368
H240	H	-0.491766	1.955475	1.454701
H241	H	-0.279396	1.004527	0.576487
H242	H	0.053938	1.337860	0.909820
H243	H	0.387271	1.671194	1.243153
H244	H	-0.371870	1.315426	1.103395
H245	H	-0.038537	1.648759	1.436729
H246	H	0.294796	1.982092	1.770062
H247	H	-0.589321	1.557541	0.579709
H248	H	-0.255988	1.890874	0.913043
H249	H	0.077345	2.224208	1.246376
H250	H	-0.291115	1.530841	1.265323
H251	H	0.042219	1.864174	1.598656
H252	H	0.375552	2.197508	1.931989
H253	H	-0.720955	1.631783	0.522384
H254	H	-0.387621	1.965117	0.855717
H255	H	-0.054288	2.298450	1.189050
H256	H	-0.806066	1.631847	0.522415
H257	H	-0.472733	1.965181	0.855749
H258	H	-0.139400	2.298514	1.189082
H259	H	-0.800919	1.214431	0.845326
H260	H	-0.467585	1.547764	1.178660
H261	H	-0.134252	1.881097	1.511993
H262	H	-1.076632	1.557860	0.579847
H263	H	-0.743299	1.891193	0.913181
H264	H	-0.409965	2.224526	1.246514
H265	H	-1.161759	1.557913	0.579885
H266	H	-0.828426	1.891247	0.913218
H267	H	-0.495093	2.224580	1.246552
H268	H	-0.586016	1.288429	0.787877
H269	H	-0.252683	1.621762	1.121210
H270	H	0.080651	1.955096	1.454543
H271	H	-1.073321	1.288761	0.788025
H272	H	-0.739988	1.622095	1.121359
H273	H	-0.406655	1.955428	1.454692
H274	H	-0.500888	1.288366	0.787833
H275	H	-0.167554	1.621700	1.121166
H276	H	0.165779	1.955033	1.454500
H277	H	-0.715807	1.214390	0.845310
H278	H	-0.382473	1.547723	1.178643
H279	H	-0.049140	1.881057	1.511977
H280	H	-0.861710	1.631885	0.522433
H281	H	-0.528377	1.965219	0.855767
H282	H	-0.195043	2.298552	1.189100
H283	H	-0.946834	1.631937	0.522470
H284	H	-0.613500	1.965270	0.855804
H285	H	-0.280167	2.298604	1.189137
H286	H	-0.941681	1.214531	0.845354
H287	H	-0.608347	1.547865	1.178688
H288	H	-0.275014	1.881198	1.512021
H289	H	-0.856570	1.214477	0.845327
H290	H	-0.523237	1.547811	1.178660
H291	H	-0.189903	1.881144	1.511993
