data_functionalizedCrystal
_audit_creation_method	'MofGen! by Chris Wilmer'
_symmetry_space_group_name_H-M	'P1'
_symmetry_Int_Tables_number	1
_symmetry_cell_setting	triclinic
loop_
_symmetry_equiv_pos_as_xyz
  x,y,z
_cell_length_a	10.654550
_cell_length_b	19.188930
_cell_length_c	9.130313
_cell_angle_alpha	89.993647
_cell_angle_beta	89.996220
_cell_angle_gamma	83.814841
loop_
_atom_site_label
_atom_site_type_symbol
_atom_site_fract_x
_atom_site_fract_y
_atom_site_fract_z
O1	O	1.665759	0.098059	-0.121938
O2	O	2.165759	0.598059	0.378062
O3	O	1.300083	0.107401	-0.121916
O4	O	1.800083	0.607401	0.378084
O5	O	1.493474	0.001143	-0.121899
O6	O	1.993474	0.501143	0.378101
O7	O	1.472368	0.204317	-0.121955
O8	O	1.972368	0.704317	0.378045
O9	O	1.493471	0.001146	0.121700
O10	O	1.993471	0.501146	0.621700
O11	O	1.300081	0.107404	0.121682
O12	O	1.800081	0.607404	0.621682
O13	O	1.665757	0.098062	0.121661
O14	O	2.165757	0.598062	0.621661
Cu15	Cu	1.482918	0.102733	0.143914
Cu16	Cu	1.982918	0.602733	0.643914
Cu17	Cu	1.482921	0.102730	-0.144170
Cu18	Cu	1.982921	0.602730	0.355830
O19	O	1.472366	0.204320	0.121644
O20	O	1.972366	0.704320	0.621644
C21	C	1.253298	0.106717	-0.000114
C22	C	1.753298	0.606717	0.499886
C23	C	1.113898	0.104664	-0.000104
C24	C	1.613898	0.604664	0.499896
C25	C	1.033089	0.167227	-0.000143
C26	C	1.533089	0.667227	0.499857
C27	C	0.902109	0.165295	-0.000168
C28	C	1.402109	0.665295	0.499832
C29	C	0.932761	0.038231	-0.000121
C30	C	1.432761	0.538231	0.499879
C31	C	1.063738	0.040164	-0.000086
C32	C	1.563738	0.540164	0.499914
C33	C	1.015391	0.240587	-0.000176
C34	C	1.515391	0.740587	0.499824
C35	C	0.884411	0.238654	-0.000201
C36	C	1.384411	0.738654	0.499799
C37	C	1.492789	-0.024871	-0.000096
C38	C	1.992789	0.475129	0.499904
C39	C	1.490737	-0.102389	-0.000083
C40	C	1.990737	0.397611	0.499917
C41	C	1.604213	-0.146570	-0.000083
C42	C	2.104213	0.353430	0.499917
C43	C	1.602285	-0.219407	-0.000106
C44	C	2.102285	0.280593	0.499894
C45	C	1.486876	-0.248058	-0.000100
C46	C	1.986876	0.251942	0.499900
C47	C	1.373386	-0.203867	-0.000109
C48	C	1.873386	0.296133	0.499891
C49	C	1.375316	-0.131032	-0.000100
C50	C	1.875316	0.368968	0.499900
N51	N	1.398658	-0.356639	0.082806
N52	N	1.898658	0.143361	0.582806
N53	N	1.396832	-0.425830	0.082801
N54	N	1.896832	0.074170	0.582801
C55	C	1.481052	-0.467505	-0.000129
C56	C	1.981052	0.032495	0.499871
N57	N	1.567186	-0.437377	-0.083037
N58	N	2.067186	0.062623	0.416963
N59	N	1.569016	-0.368180	-0.083025
N60	N	2.069016	0.131820	0.416975
C61	C	1.484770	-0.327034	-0.000110
C62	C	1.984770	0.172966	0.499890
C63	C	1.592445	-0.590665	-0.000157
C64	C	2.092445	-0.090665	0.499843
C65	C	1.590513	-0.663502	-0.000189
C66	C	2.090513	-0.163502	0.499811
C67	C	1.361610	-0.647960	-0.000177
C68	C	1.861610	-0.147960	0.499823
C69	C	1.363545	-0.575125	-0.000159
C70	C	1.863545	-0.075125	0.499841
C71	C	1.478966	-0.546481	-0.000142
C72	C	1.978966	-0.046481	0.499858
C73	C	1.712541	0.098746	-0.000145
C74	C	2.212541	0.598746	0.499855
C75	C	1.851941	0.100798	-0.000164
C76	C	2.351941	0.600798	0.499836
C77	C	1.473051	0.230334	-0.000163
C78	C	1.973051	0.730334	0.499837
C79	C	1.475102	0.307852	-0.000186
C80	C	1.975102	0.807852	0.499814
N81	N	1.482926	0.102735	0.346537
N82	N	1.982926	0.602735	0.846537
N83	N	1.482924	0.102722	-0.346792
N84	N	1.982924	0.602722	0.153208
C85	C	1.568581	0.055700	0.423196
C86	C	2.068581	0.555700	0.923196
C87	C	1.568577	0.055692	0.576533
C88	C	2.068577	0.555692	1.076533
C89	C	1.397260	0.149759	0.576537
C90	C	1.897260	0.649759	1.076537
C91	C	1.397258	0.149764	0.423203
C92	C	1.897258	0.649764	0.923203
C93	C	1.667493	0.001393	0.423195
C94	C	2.167493	0.501393	0.923195
C95	C	1.667490	0.001385	0.576532
C96	C	2.167490	0.501385	1.076532
H97	H	1.044114	0.269279	0.101768
H98	H	1.544114	0.769279	0.601768
H99	H	1.129530	-0.010781	-0.000034
H100	H	1.629530	0.489219	0.499966
H101	H	1.279418	-0.227199	-0.000107
H102	H	1.779418	0.272801	0.499893
F103	F	1.793306	0.017015	0.630922
F104	F	2.293306	0.517015	1.130922
F105	F	1.306080	0.199816	0.341617
F106	F	1.806080	0.699816	0.841617
F107	F	1.640950	-0.068747	0.368809
F108	F	2.140950	0.431253	0.868809
H109	H	1.050553	0.263945	-0.105354
H110	H	1.550553	0.763945	0.394646
F111	F	0.879365	-0.030412	-0.000101
F112	F	1.379365	0.469588	0.499899
F113	F	0.829095	0.274780	-0.133468
F114	F	1.329095	0.774780	0.366532
H115	H	1.327511	0.188049	0.638976
H116	H	1.827511	0.688049	1.138976
F117	F	1.786199	0.023626	0.361011
F118	F	2.286199	0.523626	0.861011
F119	F	1.629001	-0.064895	0.638708
F120	F	2.129001	0.435105	1.138708
H121	H	1.271141	-0.539151	-0.000151
H122	H	1.771141	-0.039151	0.499849
H123	H	1.694693	-0.255386	-0.000112
H124	H	2.194693	0.244614	0.499888
H125	H	0.838270	0.260826	0.104961
H126	H	1.338270	0.760826	0.604961
H127	H	1.698197	-0.123254	-0.000074
H128	H	2.198197	0.376746	0.499926
F129	F	1.254535	-0.084008	-0.000101
F130	F	1.754535	0.415992	0.499899
H131	H	1.686428	-0.567342	-0.000149
H132	H	2.186428	-0.067342	0.499851
H133	H	1.682922	-0.699475	-0.000197
H134	H	2.182922	-0.199475	0.499803
F135	F	1.238782	-0.678448	-0.000178
F136	F	1.738782	-0.178448	0.499822
