data_functionalizedCrystal
_audit_creation_method	'MofGen! by Chris Wilmer'
_symmetry_space_group_name_H-M	'P1'
_symmetry_Int_Tables_number	1
_symmetry_cell_setting	triclinic
loop_
_symmetry_equiv_pos_as_xyz
  x,y,z
_cell_length_a	19.188929
_cell_length_b	14.519709
_cell_length_c	12.996460
_cell_angle_alpha	89.999966
_cell_angle_beta	89.972070
_cell_angle_gamma	96.587534
loop_
_atom_site_label
_atom_site_type_symbol
_atom_site_fract_x
_atom_site_fract_y
_atom_site_fract_z
O1	O	0.091525	-1.223300	-0.085484
O2	O	0.424858	-0.889967	0.247849
O3	O	0.758191	-0.556634	0.581182
O4	O	0.102303	-0.954756	-0.085522
O5	O	0.435636	-0.621423	0.247812
O6	O	0.768969	-0.288090	0.581145
O7	O	-0.004714	-1.096778	-0.085438
O8	O	0.328619	-0.763445	0.247895
O9	O	0.661952	-0.430111	0.581228
O10	O	0.198542	-1.081279	-0.085568
O11	O	0.531875	-0.747945	0.247766
O12	O	0.865208	-0.414612	0.581099
O13	O	-0.004720	-1.096763	0.085695
O14	O	0.328613	-0.763430	0.419029
O15	O	0.661946	-0.430096	0.752362
O16	O	0.102297	-0.954742	0.085612
O17	O	0.435630	-0.621408	0.418945
O18	O	0.768963	-0.288075	0.752279
O19	O	0.091519	-1.223285	0.085650
O20	O	0.424852	-0.889952	0.418983
O21	O	0.758185	-0.556619	0.752316
Cu22	Cu	0.096907	-1.089012	0.101257
Cu23	Cu	0.430240	-0.755679	0.434590
Cu24	Cu	0.763574	-0.422346	0.767923
Cu25	Cu	0.096914	-1.089030	-0.101129
Cu26	Cu	0.430247	-0.755696	0.232204
Cu27	Cu	0.763581	-0.422363	0.565538
O28	O	0.198536	-1.081264	0.085566
O29	O	0.531869	-0.747931	0.418899
O30	O	0.865202	-0.414597	0.752233
C31	C	-0.030730	-1.096269	0.000143
C32	C	0.302603	-0.762935	0.333476
C33	C	0.635936	-0.429602	0.666809
C34	C	-0.108240	-1.094762	0.000185
C35	C	0.225093	-0.761429	0.333518
C36	C	0.558427	-0.428095	0.666851
C37	C	0.101797	-0.920392	0.000041
C38	C	0.435131	-0.587059	0.333375
C39	C	0.768464	-0.253726	0.666708
C40	C	0.100292	-0.818020	0.000030
C41	C	0.433625	-0.484687	0.333364
C42	C	0.766959	-0.151354	0.666697
C43	C	0.224551	-1.081773	-0.000017
C44	C	0.557885	-0.748440	0.333316
C45	C	0.891218	-0.415107	0.666650
C46	C	0.302061	-1.083280	-0.000066
C47	C	0.635395	-0.749947	0.333267
C48	C	0.968728	-0.416613	0.666601
C49	C	0.346689	-0.999946	-0.000057
C50	C	0.680022	-0.666613	0.333277
C51	C	1.013355	-0.333280	0.666610
C52	C	0.419517	-1.001362	-0.000033
C53	C	0.752851	-0.668029	0.333300
C54	C	1.086184	-0.334695	0.666633
C55	C	0.447716	-1.086116	0.000002
C56	C	0.781049	-0.752782	0.333335
C57	C	1.114382	-0.419449	0.666668
C58	C	0.403079	-1.169460	-0.000013
C59	C	0.736412	-0.836127	0.333320
C60	C	1.069745	-0.502794	0.666653
C61	C	0.330252	-1.168042	-0.000047
C62	C	0.663585	-0.834709	0.333286
C63	C	0.996918	-0.501376	0.666620
N64	N	0.555913	-1.150894	0.058316
N65	N	0.889246	-0.817561	0.391650
N66	N	1.222580	-0.484228	0.724983
N67	N	0.625096	-1.152235	0.058350
N68	N	0.958430	-0.818902	0.391684
N69	N	1.291763	-0.485569	0.725017
C70	C	0.667140	-1.090393	0.000101
C71	C	1.000473	-0.757059	0.333435
C72	C	1.333806	-0.423726	0.666768
N73	N	0.637387	-1.027144	-0.058171
N74	N	0.970721	-0.693811	0.275163
N75	N	1.304054	-0.360477	0.608496
N76	N	0.568198	-1.025800	-0.058200
N77	N	0.901531	-0.692467	0.275133
N78	N	1.234865	-0.359133	0.608466
C79	C	0.526684	-1.087663	0.000038
C80	C	0.860017	-0.754329	0.333371
C81	C	1.193350	-0.420996	0.666704
C82	C	0.790737	-1.008588	0.000134
C83	C	1.124070	-0.675255	0.333468
C84	C	1.457403	-0.341922	0.666801
C85	C	0.863567	-1.010007	0.000151
C86	C	1.196900	-0.676674	0.333485
C87	C	1.530233	-0.343341	0.666818
C88	C	0.847126	-1.178108	0.000182
C89	C	1.180460	-0.844775	0.333515
C90	C	1.513793	-0.511441	0.666848
C91	C	0.774298	-1.176687	0.000154
C92	C	1.107631	-0.843353	0.333488
C93	C	1.440965	-0.510020	0.666821
C94	C	0.746108	-1.091924	0.000135
C95	C	1.079441	-0.758591	0.333469
C96	C	1.412775	-0.425258	0.666802
C97	C	0.092024	-1.257649	0.000084
C98	C	0.425357	-0.924316	0.333417
C99	C	0.758691	-0.590983	0.666751
C100	C	0.093529	-1.360021	0.000088
C101	C	0.426862	-1.026688	0.333422
C102	C	0.760196	-0.693355	0.666755
N103	N	0.096902	-1.089007	0.243604
N104	N	0.430235	-0.755673	0.576937
N105	N	0.763568	-0.422340	0.910270
C106	C	0.094751	-0.443159	0.000081
C107	C	0.428084	-0.109826	0.333414
C108	C	0.761417	0.223508	0.666747
C109	C	0.096290	-0.547457	0.000066
C110	C	0.429623	-0.214124	0.333400
C111	C	0.762956	0.119209	0.666733
C112	C	0.097521	-0.630586	0.000055
C113	C	0.430855	-0.297253	0.333388
C114	C	0.764188	0.036080	0.666721
C115	C	0.099060	-0.734891	0.000042
C116	C	0.432394	-0.401558	0.333376
C117	C	0.765727	-0.068225	0.666709
N118	N	0.096914	-1.089042	-0.243476
N119	N	0.430247	-0.755709	0.089857
N120	N	0.763581	-0.422376	0.423191
C121	C	0.096915	-1.089028	0.663418
C122	C	0.430248	-0.755695	0.996751
C123	C	0.763582	-0.422362	1.330085
C124	C	0.096914	-1.089020	0.546613
C125	C	0.430247	-0.755686	0.879946
C126	C	0.763580	-0.422353	1.213280
C127	C	0.096909	-1.089018	0.453515
C128	C	0.430242	-0.755685	0.786848
C129	C	0.763575	-0.422351	1.120181
C130	C	0.096906	-1.089008	0.336702
C131	C	0.430240	-0.755675	0.670035
C132	C	0.763573	-0.422342	1.003369
H133	H	0.323741	-0.930926	-0.000081
H134	H	0.657075	-0.597593	0.333252
H135	H	0.990408	-0.264260	0.666585
Br136	Br	0.480095	-0.888258	-0.000019
Br137	Br	0.813428	-0.554925	0.333314
Br138	Br	1.146762	-0.221592	0.666648
H139	H	0.737961	-1.244546	0.000154
H140	H	1.071295	-0.911213	0.333487
H141	H	1.404628	-0.577879	0.666820
H142	H	0.899902	-0.942144	0.000152
H143	H	1.233235	-0.608811	0.333485
H144	H	1.566569	-0.275477	0.666818
Br145	Br	0.269681	-1.281147	-0.000060
Br146	Br	0.603015	-0.947814	0.333273
Br147	Br	0.936348	-0.614480	0.666607
H148	H	0.426042	-1.238467	-0.000004
H149	H	0.759376	-0.905134	0.333330
H150	H	1.092709	-0.571801	0.666663
H151	H	0.767783	-0.939570	0.000125
H152	H	1.101117	-0.606236	0.333458
H153	H	1.434450	-0.272903	0.666792
H154	H	0.870085	-1.247116	0.000135
H155	H	1.203418	-0.913783	0.333469
H156	H	1.536751	-0.580450	0.666802
