data_functionalizedCrystal
_audit_creation_method	'MofGen! by Chris Wilmer'
_symmetry_space_group_name_H-M	'P1'
_symmetry_Int_Tables_number	1
_symmetry_cell_setting	triclinic
loop_
_symmetry_equiv_pos_as_xyz
  x,y,z
_cell_length_a	14.560432
_cell_length_b	12.970454
_cell_length_c	12.970454
_cell_angle_alpha	59.999262
_cell_angle_beta	89.999687
_cell_angle_gamma	59.999925
loop_
_atom_site_label
_atom_site_type_symbol
_atom_site_fract_x
_atom_site_fract_y
_atom_site_fract_z
Zr1	Zr	-0.120532	1.128510	0.993222
O2	O	-0.267177	1.343604	0.828594
O3	O	-0.075578	0.913419	1.043689
O4	O	-0.267182	1.128514	1.043684
O5	O	0.075568	1.128505	0.828603
O6	O	-0.267184	1.128513	1.213351
O7	O	-0.075574	1.128509	0.828598
O8	O	0.075560	0.743748	1.213360
O9	O	-0.267176	1.513270	0.828594
O10	O	-0.056406	1.001887	1.191834
O11	O	0.056391	1.001884	1.065216
O12	O	-0.169198	1.255130	1.065210
O13	O	-0.056401	1.255128	0.938593
Zr14	Zr	0.120518	1.128501	1.263829
Zr15	Zr	-0.120535	1.128508	1.263822
Zr16	Zr	0.120522	1.128503	0.993229
Zr17	Zr	-0.120530	1.399107	0.993223
Zr18	Zr	0.120516	0.857904	1.263828
O19	O	0.075564	1.343592	1.213362
O20	O	-0.267183	1.343602	1.213352
O21	O	0.075570	1.343594	0.828604
O22	O	0.267163	0.913407	1.428457
O23	O	-0.075583	0.913417	1.428447
O24	O	0.267169	0.913409	1.043698
O25	O	-0.075582	1.128506	1.428448
O26	O	0.267168	1.128497	1.213367
O27	O	0.267170	1.128498	1.043699
O28	O	0.075560	1.128502	1.428452
O29	O	-0.267179	1.513269	1.043685
O30	O	0.267165	0.743742	1.213365
O31	O	0.267162	0.743741	1.428456
O32	O	0.075557	0.743747	1.428451
O33	O	-0.075571	1.513264	0.828600
O34	O	-0.075574	1.513263	1.043691
O35	O	0.169184	1.001880	1.191840
O36	O	0.056387	1.001883	1.318458
O37	O	-0.056404	1.255126	1.191834
O38	O	0.056392	1.255124	1.065217
C39	C	-0.000010	0.790029	1.128524
C40	C	-0.000010	0.675153	1.128524
C41	C	-0.301528	1.128514	1.128517
C42	C	-0.403861	1.128517	1.128514
C43	C	-0.521634	1.392906	0.996305
C44	C	-0.628594	1.525096	0.930200
C45	C	-0.724741	1.525090	0.930203
C46	C	-0.713924	1.392879	0.996323
C47	C	-0.606965	1.260690	1.062428
C48	C	-0.510822	1.260710	1.062414
C49	C	-0.489193	0.996304	1.194642
C50	C	-0.393045	0.996307	1.194633
C51	C	-0.478377	0.864093	1.260761
C52	C	-0.371416	0.731900	1.326861
C53	C	-0.275266	0.731912	1.326853
C54	C	-0.286086	0.864117	1.260738
C55	C	0.301514	1.128497	1.128534
C56	C	0.403847	1.128494	1.128537
C57	C	-0.000002	1.128507	0.790046
C58	C	-0.000001	1.128508	0.675169
C59	C	-0.000004	1.466982	1.128526
C60	C	-0.000004	1.581857	1.128527
C61	C	-0.000012	1.128504	1.467004
C62	C	-0.000013	1.128503	1.581881
C63	C	-0.000014	0.790027	1.467003
C64	C	-0.000017	0.675151	1.581880
C65	C	0.301511	0.790020	1.128533
C66	C	0.403844	0.675141	1.128535
C67	C	0.301507	0.790018	1.467012
C68	C	0.403838	0.675139	1.581891
C69	C	-0.301521	1.466992	0.790038
C70	C	-0.403852	1.581872	0.675159
C71	C	0.000000	1.466984	0.790047
C72	C	0.000003	1.581860	0.675171
C73	C	-0.301525	1.466990	1.128518
C74	C	-0.403858	1.581869	1.128515
C75	C	0.451904	0.714668	1.035052
C76	C	0.548047	0.606743	1.035029
C77	C	0.596133	0.459291	1.128495
C78	C	0.548065	0.419765	1.221983
C79	C	0.451919	0.527689	1.222000
C80	C	0.451892	0.527706	1.635848
C81	C	0.548032	0.419748	1.743801
C82	C	0.596121	0.459226	1.797791
C83	C	0.548058	0.606674	1.743829
C84	C	0.451915	0.714629	1.635882
C85	C	-0.451915	1.729305	0.621211
C86	C	-0.548076	1.837262	0.513282
C87	C	-0.596168	1.797784	0.459297
C88	C	-0.548100	1.650336	0.513254
C89	C	-0.451945	1.542382	0.621187
C90	C	-0.451914	1.729303	1.035038
C91	C	-0.548057	1.837259	1.035031
C92	C	-0.596147	1.797778	1.128497
C93	C	-0.548082	1.650329	1.221984
C94	C	-0.451937	1.542377	1.221995
H95	H	-0.443352	1.392924	0.996280
H96	H	0.412751	0.495535	1.591904
Cl97	Cl	-0.608464	2.022609	0.917491
Cl98	Cl	-0.717048	1.933519	0.323606
H99	H	-0.412821	1.422331	1.298114
Cl100	Cl	-0.717020	1.933510	1.128463
H101	H	-0.587252	1.618203	1.298081
Cl102	Cl	-0.608568	1.600730	0.445366
H103	H	-0.412815	1.422336	0.665098
Cl104	Cl	0.716990	0.323491	1.933494
H105	H	0.674421	0.371427	1.128466
Cl106	Cl	-0.859207	1.691272	0.847108
Cl107	Cl	-0.642184	1.691294	0.847088
Cl108	Cl	-0.165222	0.864143	1.260716
Cl109	Cl	0.608438	0.234399	1.811612
H110	H	-0.792217	1.392886	0.996332
Cl111	Cl	0.608532	0.656279	1.811711
Cl112	Cl	-0.357831	0.565713	1.409978
Cl113	Cl	-0.599248	0.864085	1.260770
H114	H	-0.188178	0.624267	1.380689
Cl115	Cl	0.391471	0.900027	0.917536
H116	H	0.412800	0.834674	1.591955
Cl117	Cl	-0.391479	1.778974	0.917522
H118	H	0.587172	0.638954	0.958899
Cl119	Cl	0.608534	0.234390	1.339478
H120	H	0.412800	0.495485	1.298132
H121	H	-0.587197	1.957313	0.469363
Cl122	Cl	-0.391479	1.778972	0.689058
