data_functionalizedCrystal
_audit_creation_method	'MofGen! by Chris Wilmer'
_symmetry_space_group_name_H-M	'P1'
_symmetry_Int_Tables_number	1
_symmetry_cell_setting	triclinic
loop_
_symmetry_equiv_pos_as_xyz
  x,y,z
_cell_length_a	14.519731
_cell_length_b	10.654550
_cell_length_c	9.730223
_cell_angle_alpha	89.998521
_cell_angle_beta	89.996618
_cell_angle_gamma	84.086891
loop_
_atom_site_label
_atom_site_type_symbol
_atom_site_fract_x
_atom_site_fract_y
_atom_site_fract_z
O1	O	1.224708	0.164750	-0.114284
O2	O	0.956334	0.184109	-0.114285
O3	O	1.096692	-0.008368	-0.114285
O4	O	1.084351	0.357227	-0.114283
O5	O	1.096682	-0.008374	0.114295
O6	O	0.956325	0.184104	0.114295
O7	O	1.224699	0.164745	0.114296
Zn8	Zn	1.090511	0.174423	0.150588
Zn9	Zn	1.090523	0.174430	-0.150576
O10	O	1.084342	0.357222	0.114297
C11	C	0.921965	0.183199	0.000005
C12	C	0.819571	0.180481	0.000004
C13	C	1.095781	-0.055160	0.000002
C14	C	1.093070	-0.194578	-0.000008
C15	C	1.089244	-0.391079	-0.124596
C16	C	1.091801	-0.260083	-0.124605
C17	C	1.091792	-0.260077	0.124605
C18	C	1.089242	-0.391072	0.124612
C19	C	0.736416	0.178272	-0.000001
C20	C	0.632092	0.175513	-0.000002
C21	C	0.548942	0.173322	-0.000002
C22	C	0.444612	0.170563	-0.000005
C23	C	1.259068	0.165655	0.000003
C24	C	1.361462	0.168373	-0.000005
C25	C	1.085252	0.404014	0.000007
C26	C	1.087963	0.543432	0.000007
N27	N	1.090509	0.174418	0.356124
N28	N	1.090531	0.174426	-0.356113
C29	C	1.152681	0.089225	0.428050
C30	C	1.152690	0.089225	0.571933
C31	C	1.028353	0.259623	0.571952
C32	C	1.028340	0.259616	0.428071
H33	H	1.088202	-0.444403	-0.226058
H34	H	0.977708	0.328990	0.369505
Cl35	Cl	1.093414	-0.177760	-0.281257
H36	H	1.203301	0.019850	0.369474
Cl37	Cl	1.087637	-0.473408	0.281271
H38	H	1.203314	0.019852	0.630491
Cl39	Cl	0.950205	0.366728	0.662406
Cl40	Cl	1.093393	-0.177728	0.281243
