data_functionalizedCrystal
_audit_creation_method	'MofGen! by Chris Wilmer'
_symmetry_space_group_name_H-M	'P1'
_symmetry_Int_Tables_number	1
_symmetry_cell_setting	triclinic
loop_
_symmetry_equiv_pos_as_xyz
  x,y,z
_cell_length_a	9.065218
_cell_length_b	19.188930
_cell_length_c	7.540329
_cell_angle_alpha	89.991297
_cell_angle_beta	89.996962
_cell_angle_gamma	84.080333
loop_
_atom_site_label
_atom_site_type_symbol
_atom_site_fract_x
_atom_site_fract_y
_atom_site_fract_z
O1	O	1.956847	0.102369	-0.147510
O2	O	1.527271	0.110766	-0.147515
O3	O	1.754456	0.005009	-0.147478
O4	O	1.729662	0.208127	-0.147547
O5	O	1.754442	0.005007	0.147487
O6	O	1.527257	0.110765	0.147450
O7	O	1.956833	0.102368	0.147455
Cu8	Cu	1.742044	0.106566	0.174385
Cu9	Cu	1.742060	0.106568	-0.174445
O10	O	1.729649	0.208126	0.147418
C11	C	1.472305	0.109959	-0.000032
C12	C	1.308546	0.107546	-0.000033
C13	C	1.753646	-0.021009	0.000010
C14	C	1.751236	-0.098533	0.000025
C15	C	1.884540	-0.142421	0.000035
C16	C	1.882276	-0.215262	0.000006
C17	C	1.746699	-0.244212	0.000004
C18	C	1.613377	-0.200314	-0.000016
C19	C	1.615646	-0.127474	-0.000006
N20	N	1.643063	-0.353023	0.100385
N21	N	1.640917	-0.422218	0.100379
C22	C	1.739858	-0.463674	-0.000032
N23	N	1.841047	-0.433322	-0.100414
N24	N	1.843197	-0.364120	-0.100400
C25	C	1.744225	-0.323194	-0.000009
C26	C	1.870716	-0.586546	-0.000056
C27	C	1.868446	-0.659388	-0.000095
C28	C	1.599544	-0.644438	-0.000100
C29	C	1.601818	-0.571598	-0.000078
C30	C	1.737408	-0.542656	-0.000048
C31	C	2.011799	0.103176	-0.000032
C32	C	2.175558	0.105589	-0.000043
C33	C	1.730458	0.234144	-0.000074
C34	C	1.732869	0.311667	-0.000101
N35	N	1.742044	0.106565	0.419734
N36	N	1.742072	0.106564	-0.419794
H37	H	1.994948	-0.118862	0.000054
O38	O	1.472362	-0.528932	-0.000383
C39	C	1.465651	-0.486327	-0.153119
H40	H	1.541268	-0.512510	-0.259895
H41	H	1.503486	-0.433133	-0.118571
C42	C	1.212189	-0.444117	-0.091247
C43	C	1.305054	-0.476278	-0.222397
H44	H	1.113125	-0.437915	-0.133979
H45	H	1.216711	-0.472819	0.011658
H46	H	1.243737	-0.399792	-0.062469
H47	H	1.273517	-0.520605	-0.251157
H48	H	1.300523	-0.447583	-0.325309
O49	O	2.011910	-0.257805	0.000100
C50	C	2.132068	-0.216641	0.000077
H51	H	2.094271	-0.162530	0.055918
H52	H	2.173669	-0.211184	-0.141426
C53	C	2.304609	-0.318601	0.047182
C54	C	2.258189	-0.252142	0.115782
H55	H	2.382410	-0.340501	0.118547
H56	H	2.223657	-0.346335	0.047191
H57	H	2.339266	-0.314045	-0.070736
H58	H	2.223516	-0.256700	0.233689
H59	H	2.339138	-0.224410	0.115795
H60	H	1.981122	-0.562980	-0.000039
O61	O	1.997810	-0.702124	-0.000174
C62	C	1.966739	-0.772622	-0.000160
H63	H	1.850888	-0.776141	-0.056015
H64	H	1.972456	-0.793663	0.141343
C65	C	2.223860	-0.812131	-0.047238
C66	C	2.081575	-0.816454	-0.115854
H67	H	2.294699	-0.839169	-0.118596
H68	H	2.244795	-0.764635	-0.047241
H69	H	2.228603	-0.829664	0.070679
H70	H	2.076828	-0.798913	-0.233761
H71	H	2.060641	-0.863947	-0.115874
H72	H	1.502990	-0.223890	-0.000022
H73	H	1.507089	-0.091740	-0.000013
H74	H	1.489155	-0.668009	-0.000111
