data_functionalizedCrystal
_audit_creation_method	'MofGen! by Chris Wilmer'
_symmetry_space_group_name_H-M	'P1'
_symmetry_Int_Tables_number	1
_symmetry_cell_setting	triclinic
loop_
_symmetry_equiv_pos_as_xyz
  x,y,z
_cell_length_a	17.699083
_cell_length_b	17.699092
_cell_length_c	16.776229
_cell_angle_alpha	89.995030
_cell_angle_beta	89.998886
_cell_angle_gamma	83.284691
loop_
_atom_site_label
_atom_site_type_symbol
_atom_site_fract_x
_atom_site_fract_y
_atom_site_fract_z
O1	O	1.004081	0.095713	-0.066173
O2	O	1.504081	0.595713	0.433827
O3	O	0.783703	0.108165	-0.066199
O4	O	1.283703	0.608165	0.433801
O5	O	0.900115	-0.008250	-0.066184
O6	O	1.400115	0.491750	0.433816
O7	O	0.887669	0.212128	-0.066189
O8	O	1.387669	0.712128	0.433811
O9	O	0.900100	-0.008257	0.066393
O10	O	1.400100	0.491743	0.566393
O11	O	0.783688	0.108158	0.066377
O12	O	1.283688	0.608158	0.566377
O13	O	1.004066	0.095705	0.066403
O14	O	1.504066	0.595705	0.566403
Zn15	Zn	0.893874	0.101931	0.087440
Zn16	Zn	1.393874	0.601931	0.587440
Zn17	Zn	0.893895	0.101940	-0.087236
Zn18	Zn	1.393895	0.601940	0.412764
O19	O	0.887654	0.212120	0.066388
O20	O	1.387654	0.712120	0.566388
C21	C	0.755499	0.107715	0.000086
C22	C	1.255499	0.607715	0.500086
C23	C	0.671480	0.106377	0.000076
C24	C	1.171480	0.606377	0.500076
C25	C	0.622862	0.174710	0.000074
C26	C	1.122862	0.674710	0.500074
C27	C	0.543918	0.173448	0.000085
C28	C	1.043918	0.673448	0.500085
C29	C	0.513595	0.103851	0.000091
C30	C	1.013595	0.603851	0.500091
C31	C	0.562220	0.035513	0.000095
C32	C	1.062220	0.535513	0.500095
C33	C	0.641162	0.036776	0.000090
C34	C	1.141162	0.536776	0.500090
C35	C	0.243857	0.030418	0.000114
C36	C	0.743857	0.530418	0.500114
C37	C	0.164909	0.029160	0.000117
C38	C	0.664909	0.529160	0.500117
C39	C	0.146613	0.167089	0.000109
C40	C	0.646613	0.667089	0.500109
C41	C	0.225555	0.168352	0.000105
C42	C	0.725555	0.668352	0.500105
C43	C	0.274173	0.100014	0.000113
C44	C	0.774173	0.600014	0.500113
C45	C	0.359772	0.101384	0.000103
C46	C	0.859772	0.601384	0.500103
C47	C	0.427998	0.102481	0.000095
C48	C	0.927998	0.602481	0.500095
C49	C	0.899661	-0.036450	0.000103
C50	C	1.399661	0.463550	0.500103
C51	C	0.898319	-0.120468	0.000099
C52	C	1.398319	0.379532	0.500099
C53	C	0.897700	-0.159932	-0.072169
C54	C	1.397700	0.340068	0.427831
C55	C	0.896435	-0.238875	-0.072170
C56	C	1.396435	0.261125	0.427830
C57	C	0.895795	-0.278353	0.000098
C58	C	1.395795	0.221647	0.500098
C59	C	0.896413	-0.238884	0.072372
C60	C	1.396413	0.261116	0.572372
C61	C	0.897672	-0.159942	0.072372
C62	C	1.397672	0.340058	0.572372
C63	C	0.891332	-0.557249	0.072373
C64	C	1.391332	-0.057249	0.572373
C65	C	0.890075	-0.636197	0.072367
C66	C	1.390075	-0.136197	0.572367
C67	C	0.890095	-0.636182	-0.072170
C68	C	1.390095	-0.136182	0.427830
C69	C	0.891354	-0.557240	-0.072170
C70	C	1.391354	-0.057240	0.427830
C71	C	0.891968	-0.517777	0.000104
C72	C	1.391968	-0.017777	0.500104
C73	C	0.893338	-0.432178	0.000104
C74	C	1.393338	0.067822	0.500104
C75	C	0.894430	-0.363952	0.000099
C76	C	1.394430	0.136048	0.500099
C77	C	1.032271	0.096155	0.000116
C78	C	1.532271	0.596155	0.500116
C79	C	1.116289	0.097494	0.000121
C80	C	1.616289	0.597494	0.500121
C81	C	0.888109	0.240321	0.000099
C82	C	1.388109	0.740321	0.500099
C83	C	0.889450	0.324339	0.000097
C84	C	1.389450	0.824339	0.500097
N85	N	0.893866	0.101924	0.206651
N86	N	1.393866	0.601924	0.706651
N87	N	0.893909	0.101941	-0.206447
N88	N	1.393909	0.601941	0.293553
C89	C	0.945429	0.050396	0.248375
C90	C	1.445429	0.550396	0.748375
C91	C	0.945433	0.050396	0.331827
C92	C	1.445433	0.550396	0.831827
C93	C	0.893878	0.101927	0.373554
C94	C	1.393878	0.601927	0.873554
C95	C	0.842309	0.153457	0.331824
C96	C	1.342309	0.653457	0.831824
C97	C	0.842302	0.153453	0.248373
C98	C	1.342302	0.653453	0.748373
C99	C	0.842337	0.153471	0.668371
C100	C	1.342337	0.653471	1.168371
C101	C	0.842349	0.153472	0.751828
C102	C	1.342349	0.653472	1.251828
C103	C	0.945468	0.050414	0.751825
C104	C	1.445468	0.550414	1.251825
C105	C	0.945461	0.050410	0.668374
C106	C	1.445461	0.550410	1.168374
C107	C	0.893890	0.101937	0.626652
C108	C	1.393890	0.601937	1.126652
C109	C	0.893885	0.101936	0.536163
C110	C	1.393885	0.601936	1.036163
C111	C	0.893885	0.101932	0.464040
C112	C	1.393885	0.601932	0.964040
H113	H	0.283433	-0.025227	0.000121
H114	H	0.783433	0.474773	0.500121
O115	O	0.786736	0.209056	0.796832
O116	O	1.286736	0.709056	1.296832
H117	H	0.795414	0.200406	0.861869
H118	H	1.295414	0.700406	1.361869
O119	O	1.001094	-0.005165	0.796825
O120	O	1.501094	0.494835	1.296825
H121	H	0.991570	-0.064157	0.780810
H122	H	1.491570	0.435843	1.280810
H123	H	0.898224	-0.127794	-0.131018
H124	H	1.398224	0.372206	0.368982
O125	O	0.895728	-0.281437	-0.150116
O126	O	1.395728	0.218563	0.349884
H127	H	0.896380	-0.240722	-0.200368
H128	H	1.396380	0.259278	0.299632
H129	H	0.891879	-0.525101	-0.131018
H130	H	1.391879	-0.025101	0.368982
O131	O	0.491476	0.247149	0.000084
O132	O	0.991476	0.747149	0.500084
H133	H	0.525824	0.295755	0.000069
H134	H	1.025824	0.795755	0.500069
O135	O	0.529521	-0.039555	0.000104
O136	O	1.029521	0.460445	0.500104
H137	H	0.466460	-0.028955	0.000100
H138	H	0.966460	0.471045	0.500100
H139	H	0.987415	0.008437	0.214406
H140	H	1.487415	0.508437	0.714406
H141	H	0.800347	0.195428	0.634407
H142	H	1.300347	0.695428	1.134407
O143	O	0.892004	-0.514701	0.150327
O144	O	1.392004	-0.014701	0.650327
H145	H	0.841008	-0.471902	0.153791
H146	H	1.341008	0.028098	0.653791
H147	H	0.889591	-0.668322	-0.131019
H148	H	1.389591	-0.168322	0.368981
O149	O	0.786703	0.209042	0.376823
O150	O	1.286703	0.709042	0.876823
H151	H	0.795376	0.200396	0.441862
H152	H	1.295376	0.700396	0.941862
H153	H	0.140224	-0.027517	0.000123
H154	H	0.640224	0.472483	0.500123
O155	O	1.001061	-0.005179	0.623373
O156	O	1.501061	0.494821	1.123373
H157	H	0.992394	0.003476	0.558335
H158	H	1.492394	0.503476	1.058335
H159	H	0.250239	0.225025	0.000096
H160	H	0.750239	0.725025	0.500096
H161	H	0.895887	-0.271033	0.131214
H162	H	1.395887	0.228967	0.631214
H163	H	0.898166	-0.127810	0.131221
H164	H	1.398166	0.372190	0.631221
O165	O	0.786692	0.209032	0.203364
O166	O	1.286692	0.709032	0.703364
H167	H	0.750848	0.244871	0.246398
H168	H	1.250848	0.744871	0.746398
O169	O	1.001063	-0.005172	0.376822
O170	O	1.501063	0.494828	0.876822
H171	H	0.991546	-0.064166	0.360808
H172	H	1.491546	0.435834	0.860808
O173	O	0.655566	0.249775	0.000076
O174	O	1.155566	0.749775	0.500076
H175	H	0.608493	0.297078	0.000087
H176	H	1.108493	0.797078	0.500087
O177	O	0.693607	-0.036925	0.000089
O178	O	1.193607	0.463075	0.500089
H179	H	0.659261	-0.085533	0.000087
H180	H	1.159261	0.414467	0.500087
H181	H	0.889552	-0.668338	0.131220
H182	H	1.389552	-0.168338	0.631220
O183	O	0.094176	0.240802	0.000118
O184	O	0.594176	0.740802	0.500118
H185	H	0.034188	0.228236	0.000134
H186	H	0.534188	0.728236	0.500134
