data_functionalizedCrystal
_audit_creation_method	'MofGen! by Chris Wilmer'
_symmetry_space_group_name_H-M	'P1'
_symmetry_Int_Tables_number	1
_symmetry_cell_setting	triclinic
loop_
_symmetry_equiv_pos_as_xyz
  x,y,z
_cell_length_a	13.635800
_cell_length_b	16.389951
_cell_length_c	12.908943
_cell_angle_alpha	93.698541
_cell_angle_beta	100.860631
_cell_angle_gamma	129.354854
loop_
_atom_site_label
_atom_site_type_symbol
_atom_site_fract_x
_atom_site_fract_y
_atom_site_fract_z
V1	V	2.080770	0.147492	0.343109
O2	O	1.987408	-0.008469	0.321597
O3	O	2.138621	0.293781	0.355171
O4	O	2.048297	0.144617	0.486178
O5	O	2.078358	0.141727	0.189683
V6	V	2.313024	0.128909	0.323008
O7	O	2.232255	0.188256	0.387203
O8	O	2.386638	0.088145	0.278914
O9	O	2.143570	-0.017380	0.310946
O10	O	2.465084	0.284870	0.344521
O11	O	2.374135	0.134674	0.476434
O12	O	2.233894	0.131784	0.179940
V13	V	2.580770	0.147492	0.343109
O14	O	2.487408	-0.008469	0.321597
O15	O	2.638621	0.293781	0.355171
O16	O	2.548297	0.144617	0.486178
O17	O	2.578358	0.141727	0.189683
V18	V	2.813024	0.128909	0.323008
O19	O	2.732255	0.188256	0.387203
O20	O	2.886638	0.088145	0.278914
O21	O	2.643570	-0.017380	0.310946
O22	O	2.965084	0.284870	0.344521
O23	O	2.874135	0.134674	0.476434
O24	O	2.733894	0.131784	0.179940
C25	C	2.081350	0.329462	0.353476
C26	C	2.169239	0.449050	0.364292
C27	C	2.532515	-0.053055	0.312639
C28	C	2.434246	-0.172643	0.301830
C29	C	2.286355	0.643836	0.188591
C30	C	2.368932	0.756200	0.198748
C31	C	2.416981	0.786144	0.394763
C32	C	2.334403	0.673780	0.384606
C33	C	2.269090	0.602630	0.281516
C34	C	2.186504	0.490264	0.271360
C35	C	2.234561	0.520210	0.467374
C36	C	2.317139	0.632574	0.477531
C37	C	1.966132	0.139187	0.520587
C38	C	1.980766	0.137804	0.637640
C39	C	2.032515	-0.053055	0.312639
C40	C	1.934246	-0.172643	0.301830
C41	C	2.147733	0.137217	0.145526
C42	C	2.122714	0.138594	0.028470
C43	C	2.581350	0.329462	0.353476
C44	C	2.669239	0.449050	0.364292
C45	C	2.195879	0.145881	0.869377
C46	C	2.209634	0.144583	0.979360
C47	C	2.022028	0.133901	0.967589
C48	C	2.008273	0.135199	0.857606
C49	C	2.095203	0.141192	0.808505
C50	C	2.081452	0.142498	0.698522
C51	C	1.893842	0.131808	0.686751
C52	C	1.907597	0.130510	0.796734
C53	C	2.466132	0.139187	0.520587
C54	C	2.480766	0.137804	0.637640
C55	C	2.647733	0.137217	0.145526
C56	C	2.622714	0.138594	0.028470
C57	C	1.971583	-0.234266	0.290952
C58	C	1.879256	-0.346635	0.280779
C59	C	1.749595	-0.397378	0.281491
C60	C	1.712257	-0.335747	0.292366
C61	C	1.804581	-0.223381	0.302532
C62	C	2.804396	0.510674	0.375173
C63	C	2.886995	0.623044	0.385351
C64	C	2.834432	0.673787	0.384642
C65	C	2.699263	0.612155	0.373763
C66	C	2.616668	0.499789	0.363592
C67	C	2.562230	0.235614	0.717305
C68	C	2.576007	0.234332	0.827294
C69	C	2.508313	0.135238	0.857616
C70	C	2.426845	0.037421	0.777943
C71	C	2.413076	0.038705	0.667956
C72	C	2.695270	0.237701	-0.001820
C73	C	2.671764	0.239012	-0.111800
C74	C	2.575709	0.141216	-0.191490
C75	C	2.503146	0.042101	-0.161194
C76	C	2.526645	0.040792	-0.051215
H77	H	2.133319	0.432333	0.187418
N78	N	2.861120	0.455971	0.375953
H79	H	2.847372	0.419771	0.438641
H80	H	2.814695	0.399470	0.305306
H81	H	2.617356	0.316312	0.692634
H82	H	2.506615	0.449621	0.354728
H83	H	1.811865	0.127994	0.637178
H84	H	2.152240	0.147381	0.658547
H85	H	2.642343	0.313989	0.892152
N86	N	2.642581	0.666893	0.372979
H87	H	2.544421	0.610811	0.364540
H88	H	2.689097	0.723458	0.443591
H89	H	2.519531	0.134208	0.947178
H90	H	2.467562	-0.039916	-0.026565
N91	N	2.387561	0.800647	0.098523
H92	H	2.333654	0.738520	0.031679
H93	H	2.356936	0.842904	0.094521
N94	N	2.215887	0.567087	0.077409
H95	H	2.239348	0.610242	0.020080
H96	H	2.244412	0.523521	0.072861
N97	N	2.399519	-0.063373	-0.247149
H98	H	2.395649	-0.047492	-0.321411
H99	H	2.423610	-0.110246	-0.242736
N100	N	2.111490	-0.179685	0.290521
H101	H	2.176274	-0.123266	0.361243
H102	H	2.120783	-0.235991	0.282153
N103	N	2.798879	0.343189	0.084119
H104	H	2.841262	0.406163	0.048227
H105	H	2.755478	0.350570	0.134833
N106	N	1.650029	-0.518570	0.270545
H107	H	1.572045	-0.553692	0.203726
H108	H	1.693477	-0.549809	0.263599
H109	H	1.606676	-0.377079	0.292943
N110	N	2.487483	0.862895	0.505947
H111	H	2.542432	0.940329	0.498276
H112	H	2.419740	0.846113	0.543061
N113	N	2.387610	0.709317	0.588716
H114	H	2.442552	0.786753	0.581053
H115	H	2.319842	0.692516	0.625807
N116	N	1.919549	-0.413092	0.269068
H117	H	2.015703	-0.363887	0.270177
H118	H	1.907828	-0.449767	0.331252
H119	H	2.346733	-0.040947	0.603098
H120	H	2.730863	0.319725	-0.136448
N121	N	2.215931	0.475761	0.567605
H122	H	2.246574	0.433517	0.571709
H123	H	2.269831	0.537943	0.634391
N124	N	2.289642	0.152360	0.816413
H125	H	2.355514	0.155140	0.871667
H126	H	2.237305	0.086179	0.754247
N127	N	3.032776	0.689504	0.397081
H128	H	3.053528	0.640299	0.395975
H129	H	3.054798	0.726190	0.334906
N130	N	2.353834	-0.069454	0.810655
H131	H	2.374921	-0.055413	0.892420
H132	H	2.255067	-0.115853	0.776656
H133	H	1.951253	0.129015	1.007585
N134	N	2.318211	0.149631	1.045015
H135	H	2.371187	0.153621	0.997216
H136	H	2.378732	0.216277	1.107695
N137	N	1.764302	-0.156921	0.314268
H138	H	1.668154	-0.206124	0.313178
H139	H	1.821920	-0.099888	0.385390
H140	H	1.836821	0.125627	0.836726
H141	H	2.901701	0.765284	0.392925
N142	N	2.550467	0.142630	-0.310116
H143	H	2.611048	0.220257	-0.317205
H144	H	2.568562	0.100608	-0.350152
