data_functionalizedCrystal
_audit_creation_method	'MofGen! by Chris Wilmer'
_symmetry_space_group_name_H-M	'P1'
_symmetry_Int_Tables_number	1
_symmetry_cell_setting	triclinic
loop_
_symmetry_equiv_pos_as_xyz
  x,y,z
_cell_length_a	10.654558
_cell_length_b	15.944493
_cell_length_c	9.130313
_cell_angle_alpha	90.004626
_cell_angle_beta	90.000369
_cell_angle_gamma	83.981680
loop_
_atom_site_label
_atom_site_type_symbol
_atom_site_fract_x
_atom_site_fract_y
_atom_site_fract_z
O1	O	1.666264	0.118009	-0.121758
O2	O	1.300638	0.129242	-0.121763
O3	O	1.493474	0.001406	-0.121773
O4	O	1.473429	0.245845	-0.121749
O5	O	1.493471	0.001409	0.121826
O6	O	1.300636	0.129245	0.121836
O7	O	1.666262	0.118012	0.121841
Cu8	Cu	1.483449	0.123629	0.144081
Cu9	Cu	1.483452	0.123625	-0.144003
O10	O	1.473427	0.245849	0.121850
C11	C	1.253850	0.128417	0.000035
C12	C	1.114440	0.125945	0.000032
C13	C	1.492653	-0.029892	0.000021
C14	C	1.490197	-0.123155	0.000002
C15	C	0.917949	0.122469	-0.132754
C16	C	1.048941	0.124784	-0.132755
C17	C	1.048943	0.124783	0.132829
C18	C	0.917954	0.122462	0.132829
C19	C	0.852455	0.121316	-0.265550
C20	C	0.917944	0.122476	-0.398348
C21	C	1.048936	0.124792	-0.398350
C22	C	1.114439	0.125946	-0.265553
C23	C	1.603704	-0.358256	0.000031
C24	C	1.542495	-0.409181	-0.120076
C25	C	1.485646	-0.293903	0.000020
C26	C	1.542466	-0.409154	0.120094
C27	C	1.481259	-0.458838	0.000043
C28	C	1.424469	-0.343599	-0.120186
C29	C	1.424456	-0.343569	0.120091
C30	C	1.363160	-0.394462	-0.000046
C31	C	1.488177	-0.198888	0.000005
C32	C	1.478718	-0.553850	0.000048
C33	C	1.713050	0.118837	0.000039
C34	C	1.852460	0.121309	0.000033
C35	C	1.474247	0.277147	0.000054
C36	C	1.476703	0.370410	0.000063
N37	N	1.483456	0.123632	0.346703
N38	N	1.483454	0.123616	-0.346626
C39	C	1.568865	0.067045	0.423351
C40	C	1.568862	0.067035	0.576688
C41	C	1.398036	0.180205	0.576716
C42	C	1.398034	0.180211	0.423382
C43	C	1.654287	0.010466	0.346673
C44	C	1.739704	-0.046125	0.423321
C45	C	1.739700	-0.046135	0.576658
C46	C	1.654280	0.010446	0.653347
H47	H	0.864604	0.121530	-0.506466
H48	H	0.864628	0.121533	0.240956
H49	H	1.809242	-0.092218	0.639063
H50	H	1.102255	0.125729	-0.506480
H51	H	1.705397	-0.342037	-0.000088
H52	H	1.592354	-0.437839	-0.221617
O53	O	1.601964	-0.443458	0.241125
C54	C	1.597754	-0.531545	0.240155
H55	H	1.584067	-0.553724	0.123087
H56	H	1.515772	-0.548181	0.310944
C57	C	1.739202	-0.548092	0.445399
C58	C	1.722402	-0.575334	0.301611
H59	H	1.816088	-0.575104	0.483314
H60	H	1.742035	-0.488746	0.446057
H61	H	1.670876	-0.561958	0.504371
H62	H	1.790719	-0.561459	0.242638
H63	H	1.719584	-0.634679	0.300945
O64	O	1.112728	0.125802	0.261725
C65	C	1.202714	0.054515	0.269681
H66	H	1.227081	0.030649	0.154385
H67	H	1.162205	0.002771	0.335210
C68	C	1.292889	0.108096	0.487203
C69	C	1.322825	0.078788	0.345595
H70	H	1.366977	0.123066	0.534036
H71	H	1.232261	0.156122	0.481848
H72	H	1.259130	0.064970	0.541792
H73	H	1.356568	0.121917	0.291003
H74	H	1.383462	0.030770	0.350943
O75	O	1.364834	-0.309594	-0.241359
C76	C	1.238450	-0.328408	-0.241665
H77	H	1.208257	-0.341960	-0.124992
H78	H	1.229726	-0.386138	-0.313145
C79	C	1.190052	-0.236025	-0.446344
C80	C	1.152964	-0.252662	-0.303043
H81	H	1.137319	-0.189304	-0.484211
H82	H	1.275200	-0.223352	-0.446142
H83	H	1.182781	-0.284139	-0.505893
H84	H	1.160250	-0.204553	-0.243493
H85	H	1.067815	-0.265326	-0.303236
H86	H	0.745794	0.119433	-0.265564
O87	O	1.241805	-0.413730	-0.000313
C88	C	1.220757	-0.461778	-0.125901
H89	H	1.314573	-0.494124	-0.167258
H90	H	1.175366	-0.418586	-0.214966
C91	C	1.017125	-0.489190	-0.036115
C92	C	1.132351	-0.528923	-0.086903
H93	H	0.962588	-0.530605	-0.012063
H94	H	1.031303	-0.456816	0.048494
H95	H	0.979316	-0.453197	-0.110344
H96	H	1.170165	-0.564906	-0.012668
H97	H	1.118177	-0.561304	-0.171499
O98	O	1.654473	0.010344	0.802299
C99	C	1.748145	-0.051754	0.853512
H100	H	1.822962	-0.065930	0.765152
H101	H	1.703339	-0.111730	0.880685
C102	C	1.718034	-0.002008	1.100630
C103	C	1.809932	-0.019414	0.992110
H104	H	1.756145	0.017938	1.186128
H105	H	1.654922	0.039827	1.066129
H106	H	1.680704	-0.051992	1.123257
H107	H	1.847249	0.030571	0.969472
H108	H	1.873052	-0.061240	1.026611
H109	H	1.654300	0.010471	0.221819
O110	O	1.822479	-0.101150	0.348700
C111	C	1.755210	-0.153400	0.260052
H112	H	1.656957	-0.120532	0.237058
H113	H	1.746647	-0.215517	0.319174
C114	C	1.946694	-0.211333	0.142655
C115	C	1.826022	-0.170960	0.114403
H116	H	1.990376	-0.222169	0.052815
H117	H	1.992016	-0.176134	0.202382
H118	H	1.939542	-0.263093	0.191927
H119	H	1.833177	-0.119197	0.065149
H120	H	1.780703	-0.206151	0.054664
H121	H	1.328485	0.226288	0.360974
O122	O	1.314948	0.235198	0.650980
C123	C	1.239581	0.285159	0.550446
H124	H	1.238171	0.250716	0.441135
H125	H	1.280331	0.347816	0.534156
C126	C	1.105841	0.343925	0.744556
C127	C	1.104101	0.301618	0.610301
H128	H	1.022272	0.354082	0.781477
H129	H	1.156619	0.310268	0.812289
H130	H	1.139806	0.396135	0.730962
H131	H	1.070152	0.249405	0.623899
H132	H	1.053314	0.335267	0.542571
H133	H	1.221103	0.127827	-0.265564
H134	H	1.374640	-0.314896	0.221636
