data_functionalizedCrystal
_audit_creation_method	'MofGen! by Chris Wilmer'
_symmetry_space_group_name_H-M	'P1'
_symmetry_Int_Tables_number	1
_symmetry_cell_setting	triclinic
loop_
_symmetry_equiv_pos_as_xyz
  x,y,z
_cell_length_a	16.120530
_cell_length_b	16.959454
_cell_length_c	16.959434
_cell_angle_alpha	89.918911
_cell_angle_beta	87.039288
_cell_angle_gamma	87.096981
loop_
_atom_site_label
_atom_site_type_symbol
_atom_site_fract_x
_atom_site_fract_y
_atom_site_fract_z
Zn1	Zn	1.275085	-0.375520	-0.508216
Zn2	Zn	1.775085	0.124480	-0.008216
Zn3	Zn	1.274940	-0.507842	-0.376050
Zn4	Zn	1.774940	-0.007842	0.123950
Zn5	Zn	1.135561	-0.368979	-0.369350
Zn6	Zn	1.635561	0.131021	0.130650
Zn7	Zn	1.135680	-0.500956	-0.501499
Zn8	Zn	1.635680	-0.000956	-0.001499
O9	O	1.205317	-0.438324	-0.438779
O10	O	1.705317	0.061676	0.061221
O11	O	1.391738	-0.398692	-0.496300
O12	O	1.891738	0.101308	0.003700
O13	O	1.256340	-0.489566	-0.264545
O14	O	1.756340	0.010434	0.235455
O15	O	1.154080	-0.259236	-0.387779
O16	O	1.654080	0.240764	0.112221
O17	O	1.391632	-0.495908	-0.399198
O18	O	1.891632	0.004092	0.100802
O19	O	1.256588	-0.264042	-0.489803
O20	O	1.756588	0.235958	0.010197
O21	O	1.153939	-0.387544	-0.259623
O22	O	1.653939	0.112456	0.240377
O23	O	1.018904	-0.380867	-0.381265
O24	O	1.518904	0.119133	0.118735
O25	O	1.154283	-0.484173	-0.613006
O26	O	1.654283	0.015827	-0.113006
O27	O	1.018992	-0.477830	-0.478354
O28	O	1.518992	0.022170	0.021646
O29	O	1.256703	-0.392015	-0.617942
O30	O	1.756703	0.107985	-0.117942
O31	O	1.256456	-0.617539	-0.392684
O32	O	1.756456	-0.117539	0.107316
O33	O	1.154142	-0.612480	-0.484850
O34	O	1.654142	-0.112480	0.015150
C35	C	1.205319	-0.643691	-0.438784
C36	C	1.705319	-0.143691	0.061216
C37	C	1.205396	-0.731551	-0.438816
C38	C	1.705396	-0.231551	0.061184
C39	C	0.988696	-0.427892	-0.428354
C40	C	1.488696	0.072108	0.071646
C41	C	0.896025	-0.423448	-0.423912
C42	C	1.396025	0.076552	0.076088
C43	C	1.205523	-0.438055	-0.644958
C44	C	1.705523	0.061945	-0.144958
C45	C	1.205611	-0.437941	-0.732819
C46	C	1.705611	0.062059	-0.232819
C47	C	0.726354	-0.415317	-0.415811
C48	C	1.226354	0.084683	0.084189
C49	C	0.685120	-0.461390	-0.461805
C50	C	1.185120	0.038610	0.038195
C51	C	0.590709	-0.456866	-0.457297
C52	C	1.090709	0.043134	0.042703
C53	C	0.820773	-0.419840	-0.420318
C54	C	1.320773	0.080160	0.079682
C55	C	1.422783	-0.448798	-0.449245
C56	C	1.922783	0.051202	0.050755
C57	C	1.515454	-0.453261	-0.453706
C58	C	2.015454	0.046739	0.046294
C59	C	1.205337	-0.232157	-0.438793
C60	C	1.705337	0.267843	0.061207
C61	C	1.205346	-0.144301	-0.438799
C62	C	1.705346	0.355699	0.061201
C63	C	1.258763	0.224673	-0.491933
C64	C	1.758763	0.724673	0.008067
C65	C	1.152021	0.229672	-0.385695
C66	C	1.652021	0.729672	0.114305
C67	C	1.152008	0.147127	-0.385691
C68	C	1.652008	0.647127	0.114309
C69	C	1.205375	0.103351	-0.438809
C70	C	1.705375	0.603351	0.061191
C71	C	1.258754	0.142120	-0.491930
C72	C	1.758754	0.642120	0.008070
C73	C	1.098636	0.108351	-0.332566
C74	C	1.598636	0.608351	0.167434
C75	C	1.098623	0.025801	-0.332559
C76	C	1.598623	0.525801	0.167441
C77	C	1.151986	-0.017977	-0.385682
C78	C	1.651986	0.482023	0.114318
C79	C	1.205367	0.020797	-0.438805
C80	C	1.705367	0.520797	0.061195
C81	C	1.258733	-0.022979	-0.491923
C82	C	1.758733	0.477021	0.008077
C83	C	1.312110	0.015794	-0.545052
C84	C	1.812110	0.515794	-0.045052
C85	C	1.312117	0.098342	-0.545052
C86	C	1.812117	0.598342	-0.045052
C87	C	1.151979	-0.100525	-0.385681
C88	C	1.651979	0.399475	0.114319
C89	C	1.258725	-0.105532	-0.491920
C90	C	1.758725	0.394468	0.008080
C91	C	1.205159	-0.438538	-0.233405
C92	C	1.705159	0.061462	0.266595
C93	C	1.205233	-0.438438	-0.145552
C94	C	1.705233	0.061562	0.354448
C95	C	1.152635	-0.486357	0.228683
C96	C	1.652635	0.013643	0.728683
C97	C	1.258509	-0.389623	0.223130
C98	C	1.758509	0.110377	0.723130
C99	C	1.258436	-0.389723	0.140587
C100	C	1.758436	0.110277	0.640587
C101	C	1.205460	-0.438139	0.102089
C102	C	1.705460	0.061861	0.602089
C103	C	1.152558	-0.486456	0.146134
C104	C	1.652558	0.013544	0.646134
C105	C	1.311331	-0.341401	0.096537
C106	C	1.811331	0.158599	0.596537
C107	C	1.311259	-0.341498	0.013990
C108	C	1.811259	0.158502	0.513990
C109	C	1.258287	-0.389919	-0.024509
C110	C	1.758287	0.110081	0.475491
C111	C	1.205383	-0.438239	0.019540
C112	C	1.705383	0.061761	0.519540
C113	C	1.152408	-0.486655	-0.018958
C114	C	1.652408	0.013345	0.481042
C115	C	1.099508	-0.534979	0.025090
C116	C	1.599508	-0.034979	0.525090
C117	C	1.099586	-0.534878	0.107634
C118	C	1.599586	-0.034878	0.607634
C119	C	1.258208	-0.390021	-0.107054
C120	C	1.758208	0.109979	0.392946
C121	C	1.152331	-0.486755	-0.101508
C122	C	1.652331	0.013245	0.398492
H123	H	0.720723	-0.504232	-0.504568
H124	H	1.220723	-0.004232	-0.004568
H125	H	0.690753	-0.372478	-0.373051
H126	H	1.190753	0.127522	0.126949
Cl127	Cl	1.325814	-0.160558	-0.558705
Cl128	Cl	1.825814	0.339442	-0.058705
Cl129	Cl	1.379202	-0.039248	-0.611820
Cl130	Cl	1.879202	0.460752	-0.111820
Cl131	Cl	1.031555	0.163386	-0.265791
Cl132	Cl	1.531555	0.663386	0.234209
H133	H	1.355576	0.129916	-0.588307
H134	H	1.855576	0.629916	-0.088307
H135	H	1.354458	-0.301980	0.127889
H136	H	1.854458	0.198020	0.627889
Cl137	Cl	1.325855	0.273413	-0.558726
Cl138	Cl	1.825855	0.773413	-0.058726
H139	H	1.301272	-0.350670	-0.142914
H140	H	1.801272	0.149330	0.357086
H141	H	1.108575	0.265317	-0.342444
H142	H	1.608575	0.765317	0.157556
H143	H	1.055160	-0.005761	-0.289300
H144	H	1.555160	0.494239	0.210700
H145	H	1.354334	-0.302151	-0.021867
H146	H	1.854334	0.197849	0.478133
H147	H	1.108523	-0.132090	-0.342422
H148	H	1.608523	0.367910	0.157578
Cl149	Cl	1.085733	-0.547629	-0.149898
Cl150	Cl	1.585733	-0.047629	0.350102
Cl151	Cl	1.086137	-0.547105	0.284054
Cl152	Cl	1.586137	-0.047105	0.784054
Cl153	Cl	1.032907	-0.595838	-0.023317
Cl154	Cl	1.532907	-0.095838	0.476683
H155	H	1.056517	-0.574220	0.143505
H156	H	1.556517	-0.074220	0.643505
H157	H	1.301636	-0.350201	0.254480
H158	H	1.801636	0.149799	0.754480
