data_functionalizedCrystal
_audit_creation_method	'MofGen! by Chris Wilmer'
_symmetry_space_group_name_H-M	'P1'
_symmetry_Int_Tables_number	1
_symmetry_cell_setting	triclinic
loop_
_symmetry_equiv_pos_as_xyz
  x,y,z
_cell_length_a	14.044220
_cell_length_b	14.044220
_cell_length_c	10.868271
_cell_angle_alpha	89.993930
_cell_angle_beta	90.000690
_cell_angle_gamma	93.188878
loop_
_atom_site_label
_atom_site_type_symbol
_atom_site_fract_x
_atom_site_fract_y
_atom_site_fract_z
O1	O	1.277168	0.230168	-0.102196
O2	O	1.777168	0.730168	0.397804
O3	O	1.000496	0.221862	-0.102227
O4	O	1.500496	0.721862	0.397773
O5	O	1.134679	0.087679	-0.102200
O6	O	1.634679	0.587679	0.397800
O7	O	1.142985	0.364351	-0.102223
O8	O	1.642985	0.864351	0.397777
O9	O	1.134667	0.087673	0.102445
O10	O	1.634667	0.587673	0.602445
O11	O	1.000484	0.221856	0.102417
O12	O	1.500484	0.721856	0.602417
O13	O	1.277155	0.230161	0.102448
O14	O	1.777155	0.730161	0.602448
Zn15	Zn	1.138817	0.226007	0.134925
Zn16	Zn	1.638817	0.726007	0.634925
Zn17	Zn	1.138834	0.226016	-0.134704
Zn18	Zn	1.638834	0.726016	0.365296
O19	O	1.142972	0.364344	0.102421
O20	O	1.642972	0.864344	0.602421
C21	C	0.964868	0.218223	0.000091
C22	C	1.464868	0.718223	0.500091
C23	C	0.858725	0.207379	0.000080
C24	C	1.358725	0.707379	0.500080
C25	C	0.664388	0.187553	0.000106
C26	C	1.164388	0.687553	0.500106
C27	C	0.613258	0.264467	0.000105
C28	C	1.113258	0.764467	0.500105
C29	C	0.505122	0.253435	0.000119
C30	C	1.005122	0.753435	0.500119
C31	C	0.772534	0.198583	0.000091
C32	C	1.272534	0.698583	0.500091
C33	C	1.131037	0.052054	0.000122
C34	C	1.631037	0.552054	0.500122
C35	C	1.120193	-0.054088	0.000123
C36	C	1.620193	0.445912	0.500123
C37	C	1.100366	-0.248426	0.000103
C38	C	1.600366	0.251574	0.500103
C39	C	1.177281	-0.299556	0.000108
C40	C	1.677281	0.200444	0.500108
C41	C	1.166249	-0.407692	0.000097
C42	C	1.666249	0.092308	0.500097
C43	C	1.111397	-0.140280	0.000114
C44	C	1.611397	0.359720	0.500114
C45	C	1.312783	0.233800	0.000127
C46	C	1.812783	0.733800	0.500127
C47	C	1.418926	0.244645	0.000131
C48	C	1.918926	0.744645	0.500131
C49	C	1.146614	0.399969	0.000096
C50	C	1.646614	0.899969	0.500096
C51	C	1.157459	0.506112	0.000088
C52	C	1.657459	1.006112	0.500088
N53	N	1.138813	0.226001	0.318939
N54	N	1.638813	0.726001	0.818939
N55	N	1.138845	0.226015	-0.318718
N56	N	1.638845	0.726015	0.181282
C57	C	1.138829	0.226014	0.569945
C58	C	1.638829	0.726014	1.069945
C59	C	1.138817	0.226010	0.430267
C60	C	1.638817	0.726010	0.930267
H61	H	0.626951	0.113425	0.000119
H62	H	1.126951	0.613425	0.500119
C63	C	1.277433	-0.248979	0.000136
C64	C	1.777433	0.251021	0.500136
N65	N	1.352864	-0.210881	0.000164
N66	N	1.852864	0.289119	0.500164
H67	H	1.026239	-0.285863	0.000091
H68	H	1.526239	0.214137	0.500091
H69	H	0.650697	0.338600	0.000092
H70	H	1.150697	0.838600	0.500092
