data_functionalizedCrystal
_audit_creation_method	'MofGen! by Chris Wilmer'
_symmetry_space_group_name_H-M	'P1'
_symmetry_Int_Tables_number	1
_symmetry_cell_setting	triclinic
loop_
_symmetry_equiv_pos_as_xyz
  x,y,z
_cell_length_a	19.121275
_cell_length_b	19.121063
_cell_length_c	16.120297
_cell_angle_alpha	84.820568
_cell_angle_beta	84.562302
_cell_angle_gamma	89.926756
loop_
_atom_site_label
_atom_site_type_symbol
_atom_site_fract_x
_atom_site_fract_y
_atom_site_fract_z
Zn1	Zn	1.040429	-0.342623	0.435980
Zn2	Zn	1.540429	0.157377	0.935980
Zn3	Zn	1.041284	-0.454395	0.302176
Zn4	Zn	1.541284	0.045605	0.802176
Zn5	Zn	0.929166	-0.332161	0.301693
Zn6	Zn	1.429166	0.167839	0.801693
Zn7	Zn	0.917630	-0.455309	0.447854
Zn8	Zn	1.417630	0.044691	0.947854
O9	O	0.982127	-0.396122	0.371926
O10	O	1.482127	0.103878	0.871926
O11	O	1.138856	-0.361446	0.413463
O12	O	1.638856	0.138554	0.913463
O13	O	1.031596	-0.433420	0.184946
O14	O	1.531596	0.066580	0.684946
O15	O	0.948395	-0.235233	0.314335
O16	O	1.448395	0.264767	0.814335
O17	O	1.139484	-0.443565	0.315158
O18	O	1.639484	0.056435	0.815158
O19	O	1.030139	-0.242920	0.412995
O20	O	1.530139	0.257080	0.912995
O21	O	0.949224	-0.343615	0.184591
O22	O	1.449224	0.156385	0.684591
O23	O	0.829322	-0.344500	0.325849
O24	O	1.329322	0.155500	0.825849
O25	O	0.928735	-0.445121	0.563445
O26	O	1.428735	0.054879	1.063445
O27	O	0.820847	-0.434977	0.433233
O28	O	1.320847	0.065023	0.933233
O29	O	1.018954	-0.362331	0.554721
O30	O	1.518954	0.137669	1.054721
O31	O	1.020411	-0.552832	0.326672
O32	O	1.520411	-0.052832	0.826672
O33	O	0.929563	-0.553503	0.433701
O34	O	1.429563	-0.053503	0.933701
C35	C	0.799593	-0.388703	0.380777
C36	C	1.299593	0.111297	0.880777
C37	C	0.721502	-0.385547	0.384585
C38	C	1.221502	0.114453	0.884585
C39	C	0.685146	-0.426742	0.335108
C40	C	1.185146	0.073258	0.835108
C41	C	0.611771	-0.423778	0.338697
C42	C	1.111771	0.076222	0.838697
C43	C	0.574754	-0.379613	0.391758
C44	C	1.074754	0.120387	0.891758
C45	C	0.611115	-0.338415	0.441241
C46	C	1.111115	0.161585	0.941241
C47	C	0.684489	-0.341384	0.437656
C48	C	1.184489	0.158616	0.937656
C49	C	0.353197	-0.368516	0.405151
C50	C	0.853197	0.131484	0.905151
C51	C	0.279819	-0.365549	0.408730
C52	C	0.779819	0.134451	0.908730
C53	C	0.280480	-0.450912	0.306187
C54	C	0.780480	0.049088	0.806187
C55	C	0.353855	-0.453874	0.302603
C56	C	0.853855	0.046126	0.802603
C57	C	0.390210	-0.412680	0.352089
C58	C	0.890210	0.087320	0.852089
C59	C	0.499753	-0.376579	0.395426
C60	C	0.999753	0.123421	0.895426
C61	C	0.465209	-0.415717	0.348425
C62	C	0.965209	0.084283	0.848425
C63	C	0.973847	-0.578661	0.381544
C64	C	1.473847	-0.078661	0.881544
C65	C	0.970367	-0.656755	0.385684
C66	C	1.470367	-0.156755	0.885684
C67	C	1.016065	-0.693075	0.331948
C68	C	1.516065	-0.193075	0.831948
C69	C	1.012796	-0.766453	0.335846
C70	C	1.512796	-0.266453	0.835846
C71	C	0.963826	-0.803511	0.393477
C72	C	1.463826	-0.303511	0.893477
C73	C	0.918127	-0.767186	0.447220
C74	C	1.418127	-0.267186	0.947220
C75	C	0.921399	-0.693809	0.443325
C76	C	1.421399	-0.193809	0.943325
C77	C	0.951581	-1.025080	0.408027
C78	C	1.451581	-0.525080	0.908027
C79	C	0.948311	-1.098462	0.411916
C80	C	1.448311	-0.598462	0.911916
C81	C	1.042982	-1.097724	0.300542
C82	C	1.542982	-0.597724	0.800542
C83	C	1.046247	-1.024346	0.296649
C84	C	1.546247	-0.524346	0.796649
C85	C	1.000550	-0.988028	0.350395
C86	C	1.500550	-0.488028	0.850395
C87	C	0.960483	-0.878515	0.397462
C88	C	1.460483	-0.378515	0.897462
C89	C	1.003897	-0.913025	0.346414
C90	C	1.503897	-0.413025	0.846414
C91	C	1.165374	-0.403570	0.363040
C92	C	1.665374	0.096430	0.863040
C93	C	1.243463	-0.406744	0.359253
C94	C	1.743463	0.093256	0.859253
C95	C	0.972462	-0.404995	0.590312
C96	C	1.472462	0.095005	1.090312
C97	C	0.968344	-0.408776	0.683376
C98	C	1.468344	0.091224	1.183376
C99	C	0.990458	-0.212872	0.362287
C100	C	1.490458	0.287128	0.862287
C101	C	0.994009	-0.134782	0.358179
C102	C	1.494009	0.365218	0.858179
C103	C	0.991797	-0.387234	0.154384
C104	C	1.491797	0.112766	0.654384
C105	C	0.996061	-0.383260	0.061304
C106	C	1.496061	0.116740	0.561304
C107	C	0.960799	-0.415663	0.853764
C108	C	1.460799	0.084337	1.353764
C109	C	1.003603	-0.376375	0.890921
C110	C	1.503603	0.123625	1.390921
C111	C	0.999405	-0.380207	0.985731
C112	C	1.499405	0.119793	1.485731
C113	C	0.964996	-0.411832	0.758946
C114	C	1.464996	0.088168	1.258946
H115	H	0.715280	-0.462703	0.291896
H116	H	1.215280	0.037297	0.791896
H117	H	0.469606	-0.340619	0.438628
H118	H	0.969606	0.159381	0.938628
C119	C	0.907035	-0.464988	0.906979
C120	C	1.407035	0.035012	1.406979
N121	N	0.866541	-0.502138	0.947071
N122	N	1.366541	-0.002138	1.447071
H123	H	0.582173	-0.457323	0.298407
H124	H	1.082173	0.042677	0.798407
H125	H	0.383989	-0.489837	0.259393
H126	H	0.883989	0.010163	0.759393
H127	H	0.382788	-0.334973	0.445447
H128	H	0.882788	0.165027	0.945447
H129	H	0.250872	-0.484452	0.265900
H130	H	0.750872	0.015548	0.765900
C131	C	1.057762	-0.872259	0.283019
C132	C	1.557762	-0.372259	0.783019
N133	N	1.098330	-0.841548	0.235267
N134	N	1.598330	-0.341548	0.735267
H135	H	1.055939	-0.662907	0.285014
H136	H	1.555939	-0.162907	0.785014
C137	C	0.239102	-0.316965	0.467109
C138	C	0.739102	0.183035	0.967109
N139	N	0.208433	-0.280374	0.511077
N140	N	0.708433	0.219626	1.011077
C141	C	0.570395	-0.289824	0.499598
C142	C	1.070395	0.210176	0.999598
N143	N	0.539725	-0.253218	0.543547
N144	N	1.039725	0.246782	1.043547
H145	H	1.080187	-1.127302	0.256787
H146	H	1.580187	-0.627302	0.756787
H147	H	1.050008	-0.796021	0.292087
H148	H	1.550008	-0.296021	0.792087
H149	H	0.884188	-0.664238	0.487084
H150	H	1.384188	-0.164238	0.987084
C151	C	0.864256	-0.807952	0.510613
C152	C	1.364256	-0.307952	1.010613
N153	N	0.823678	-0.838655	0.558358
N154	N	1.323678	-0.338655	1.058358
C155	C	1.100101	-0.983586	0.233229
C156	C	1.600101	-0.483586	0.733229
N157	N	1.140657	-0.952886	0.185451
N158	N	1.640657	-0.452886	0.685451
C159	C	0.505930	-0.464294	0.290055
C160	C	1.005930	0.035706	0.790055
N161	N	0.536608	-0.500879	0.246087
N162	N	1.036608	-0.000879	0.746087
C163	C	0.724480	-0.296064	0.492083
C164	C	1.224480	0.203936	0.992083
N165	N	0.754601	-0.261928	0.533080
N166	N	1.254601	0.238072	1.033080
C167	C	0.901346	-0.985143	0.467190
C168	C	1.401346	-0.485143	0.967190
N169	N	0.863519	-0.955061	0.511770
N170	N	1.363519	-0.455061	1.011770
C171	C	0.894442	-1.139224	0.475323
C172	C	1.394442	-0.639224	0.975323
N173	N	0.853870	-1.169926	0.523079
N174	N	1.353870	-0.669926	1.023079
C175	C	1.057376	-0.327053	0.837705
C176	C	1.557376	0.172947	1.337705
N177	N	1.097878	-0.289908	0.797619
N178	N	1.597878	0.210092	1.297619
H179	H	0.920610	-0.908695	0.444384
H180	H	1.420610	-0.408695	0.944384
