data_functionalizedCrystal
_audit_creation_method	'MofGen! by Chris Wilmer'
_symmetry_space_group_name_H-M	'P1'
_symmetry_Int_Tables_number	1
_symmetry_cell_setting	triclinic
loop_
_symmetry_equiv_pos_as_xyz
  x,y,z
_cell_length_a	10.723024
_cell_length_b	19.288865
_cell_length_c	17.766277
_cell_angle_alpha	90.011603
_cell_angle_beta	90.009043
_cell_angle_gamma	83.802058
loop_
_atom_site_label
_atom_site_type_symbol
_atom_site_fract_x
_atom_site_fract_y
_atom_site_fract_z
O1	O	-1.655151	-0.097418	-0.062599
O2	O	-1.155151	0.402582	0.437401
O3	O	-1.291803	-0.106743	-0.062602
O4	O	-0.791803	0.393257	0.437398
O5	O	-1.483976	-0.001018	-0.062586
O6	O	-0.983976	0.498982	0.437414
O7	O	-1.462978	-0.203142	-0.062616
O8	O	-0.962978	0.296858	0.437384
O9	O	-1.483943	-0.001013	0.062603
O10	O	-0.983943	0.498987	0.562603
O11	O	-1.291769	-0.106737	0.062586
O12	O	-0.791769	0.393263	0.562586
O13	O	-1.655118	-0.097412	0.062590
O14	O	-1.155118	0.402588	0.562590
Cu15	Cu	-1.473440	-0.102074	0.074018
Cu16	Cu	-0.973440	0.397926	0.574018
Cu17	Cu	-1.473480	-0.102081	-0.074031
Cu18	Cu	-0.973480	0.397919	0.425969
O19	O	-1.462944	-0.203137	0.062573
O20	O	-0.962944	0.296863	0.562573
C21	C	-1.245301	-0.106061	-0.000008
C22	C	-0.745301	0.393939	0.499992
C23	C	-1.106789	-0.104031	-0.000009
C24	C	-0.606789	0.395969	0.499991
C25	C	-1.483284	0.024865	0.000011
C26	C	-0.983284	0.524865	0.500011
C27	C	-1.481256	0.101982	0.000017
C28	C	-0.981256	0.601982	0.500017
C29	C	-1.701620	-0.098094	-0.000006
C30	C	-1.201620	0.401906	0.499994
C31	C	-1.840131	-0.100124	-0.000010
C32	C	-1.340131	0.399876	0.499990
C33	C	-1.030564	-0.163189	-0.000018
C34	C	-0.530564	0.336811	0.499982
C35	C	-0.887405	-0.161092	-0.000019
C36	C	-0.387405	0.338908	0.499981
C37	C	-1.463637	-0.229020	-0.000025
C38	C	-0.963637	0.270980	0.499975
C39	C	-1.465665	-0.306137	-0.000037
C40	C	-0.965665	0.193863	0.499963
N41	N	-1.473422	-0.102069	0.178149
N42	N	-0.973422	0.397931	0.678149
C43	C	-1.594014	0.145945	0.000022
C44	C	-1.094014	0.645945	0.500022
C45	C	-1.592109	0.218404	0.000010
C46	C	-1.092109	0.718404	0.500010
C47	C	-1.477438	0.246898	0.000009
C48	C	-0.977438	0.746898	0.500009
C49	C	-1.364665	0.202925	-0.000000
C50	C	-0.864665	0.702925	0.500000
C51	C	-1.366574	0.130468	0.000004
C52	C	-0.866574	0.630468	0.500004
C53	C	-1.387282	0.355774	0.043859
C54	C	-0.887282	0.855774	0.543859
C55	C	-1.385378	0.428231	0.043859
C56	C	-0.885378	0.928231	0.543859
C57	C	-1.471547	0.470382	-0.000008
C58	C	-0.971547	0.970382	0.499992
C59	C	-1.559640	0.440069	-0.043866
C60	C	-1.059640	0.940069	0.456134
C61	C	-1.561549	0.367611	-0.043862
C62	C	-1.061549	0.867611	0.456138
C63	C	-1.475356	0.325465	0.000003
C64	C	-0.975356	0.825465	0.500003
C65	C	-1.582247	0.592914	-0.000018
C66	C	-1.082247	1.092914	0.499982
C67	C	-1.580336	0.665374	-0.000034
C68	C	-1.080336	1.165374	0.499966
C69	C	-1.352890	0.649894	-0.000037
C70	C	-0.852890	1.149894	0.499963
C71	C	-1.354803	0.577435	-0.000028
C72	C	-0.854803	1.077435	0.499972
C73	C	-1.469485	0.548949	-0.000015
C74	C	-0.969485	1.048949	0.499985
N75	N	-1.473509	-0.102081	-0.178162
N76	N	-0.973509	0.397919	0.321838
C77	C	-1.558543	-0.055278	0.217543
C78	C	-1.058543	0.444722	0.717543
C79	C	-1.558550	-0.055275	0.296345
C80	C	-1.058550	0.444725	0.796345
C81	C	-1.473448	-0.102075	0.335749
C82	C	-0.973448	0.397925	0.835749
C83	C	-1.388310	-0.148870	0.296346
C84	C	-0.888310	0.351130	0.796346
C85	C	-1.388297	-0.148867	0.217545
C86	C	-0.888297	0.351133	0.717545
C87	C	-1.456743	-0.165254	0.460578
C88	C	-0.956743	0.334746	0.960578
C89	C	-1.456765	-0.165258	0.539377
C90	C	-0.956765	0.334742	1.039377
C91	C	-1.473481	-0.102083	0.578796
C92	C	-0.973481	0.397917	1.078796
C93	C	-1.490202	-0.038903	0.539406
C94	C	-0.990202	0.461097	1.039406
C95	C	-1.490189	-0.038900	0.460606
C96	C	-0.990189	0.461100	0.960606
C97	C	-1.473452	-0.102083	0.421195
C98	C	-0.973452	0.397917	0.921195
C99	C	-1.558615	-0.055285	0.703636
C100	C	-1.058615	0.444715	1.203636
C101	C	-1.558614	-0.055281	0.782439
C102	C	-1.058614	0.444719	1.282439
C103	C	-1.388380	-0.148882	0.782438
C104	C	-0.888380	0.351118	1.282438
C105	C	-1.388375	-0.148880	0.703637
C106	C	-0.888375	0.351120	1.203637
C107	C	-1.473500	-0.102082	0.664240
C108	C	-0.973500	0.397918	1.164240
H109	H	-0.821909	-0.211735	-0.000030
H110	H	-0.321909	0.288265	0.499970
O111	O	-1.296575	-0.199351	0.661136
O112	O	-0.796575	0.300649	1.161136
H113	H	-1.312171	-0.253580	0.676235
H114	H	-0.812171	0.246420	1.176235
O115	O	-0.926871	-0.033033	0.000008
O116	O	-0.426871	0.466967	0.500008
H117	H	-0.986914	-0.030922	-0.051012
H118	H	-0.486914	0.469078	0.448988
O119	O	-1.290367	0.460920	0.091161
O120	O	-0.790367	0.960920	0.591161
H121	H	-1.339967	0.497369	0.132355
H122	H	-0.839967	0.997369	0.632355
H123	H	-1.066063	-0.051832	-0.000021
H124	H	-0.566063	0.448168	0.499979
O125	O	-1.296628	-0.199380	0.824932
O126	O	-0.796628	0.300620	1.324932
H127	H	-1.237445	-0.231925	0.784295
H128	H	-0.737445	0.268075	1.284295
O129	O	-1.705936	0.562187	-0.000014
O130	O	-1.205936	1.062187	0.499986
H131	H	-1.688321	0.504416	-0.000001
H132	H	-1.188321	1.004416	0.499999
H133	H	-1.271299	0.226130	-0.000003
H134	H	-0.771299	0.726130	0.499997
O135	O	-1.084501	-0.232336	-0.000023
O136	O	-0.584501	0.267664	0.499977
H137	H	-1.006888	-0.275352	-0.000023
H138	H	-0.506888	0.224648	0.499977
H139	H	-1.687397	0.122757	0.000030
H140	H	-1.187397	0.622757	0.500030
O141	O	-1.233176	0.530018	-0.000019
O142	O	-0.733176	1.030018	0.499981
H143	H	-1.228607	0.496627	-0.051044
H144	H	-0.728607	0.996627	0.448956
O145	O	-1.244945	0.083049	0.000004
O146	O	-0.744945	0.583049	0.500004
H147	H	-1.265538	0.027878	0.000005
H148	H	-0.765538	0.527878	0.500005
H149	H	-1.317110	0.321459	0.079585
H150	H	-0.817110	0.821459	0.579585
H151	H	-1.627853	-0.017171	0.185469
H152	H	-1.127853	0.482829	0.685469
H153	H	-1.627869	-0.017170	0.328426
H154	H	-1.127869	0.482830	0.828426
H155	H	-1.683933	0.254205	0.000011
H156	H	-1.183933	0.754205	0.500011
H157	H	-1.633275	0.342933	-0.079573
H158	H	-1.133275	0.842933	0.420427
H159	H	-1.629806	0.474387	-0.079587
H160	H	-1.129806	0.974387	0.420413
O161	O	-1.438757	-0.233398	0.581860
O162	O	-0.938757	0.266602	1.081860
H163	H	-1.427114	-0.277326	0.541213
H164	H	-0.927114	0.222674	1.041213
H165	H	-1.672162	0.701169	-0.000034
H166	H	-1.172162	1.201169	0.499966
O167	O	-1.229203	0.680614	-0.000035
O168	O	-0.729203	1.180614	0.499965
H169	H	-1.246817	0.738385	-0.000033
H170	H	-0.746817	1.238385	0.499967
H171	H	-1.443109	-0.216701	0.428489
H172	H	-0.943109	0.283299	0.928489
H173	H	-1.503800	0.012544	0.428538
H174	H	-1.003800	0.512544	0.928538
O175	O	-1.508223	0.029244	0.581908
O176	O	-1.008223	0.529244	1.081908
H177	H	-1.505405	0.018631	0.643320
H178	H	-1.005405	0.518631	1.143320
H179	H	-1.627925	-0.017177	0.671558
H180	H	-1.127925	0.482823	1.171558
H181	H	-1.627926	-0.017174	0.814515
H182	H	-1.127926	0.482826	1.314515
H183	H	-1.319016	-0.186974	0.328433
H184	H	-0.819016	0.313026	0.828433
H185	H	-1.318979	-0.186971	0.185470
H186	H	-0.818979	0.313029	0.685470
