data_functionalizedCrystal
_audit_creation_method	'MofGen! by Chris Wilmer'
_symmetry_space_group_name_H-M	'P1'
_symmetry_Int_Tables_number	1
_symmetry_cell_setting	triclinic
loop_
_symmetry_equiv_pos_as_xyz
  x,y,z
_cell_length_a	14.519731
_cell_length_b	14.519731
_cell_length_c	12.996460
_cell_angle_alpha	89.992872
_cell_angle_beta	90.006690
_cell_angle_gamma	96.311147
loop_
_atom_site_label
_atom_site_type_symbol
_atom_site_fract_x
_atom_site_fract_y
_atom_site_fract_z
O1	O	-1.223866	0.120985	-0.085596
O2	O	-0.890533	0.454319	0.247738
O3	O	-0.557199	0.787652	0.581071
O4	O	-0.955393	0.135201	-0.085592
O5	O	-0.622059	0.468535	0.247741
O6	O	-0.288726	0.801868	0.581074
O7	O	-1.096737	-0.006143	-0.085585
O8	O	-0.763404	0.327190	0.247749
O9	O	-0.430071	0.660523	0.581082
O10	O	-1.082521	0.262330	-0.085603
O11	O	-0.749188	0.595663	0.247730
O12	O	-0.415855	0.928996	0.581063
O13	O	-1.096723	-0.006151	0.085549
O14	O	-0.763389	0.327182	0.418882
O15	O	-0.430056	0.660515	0.752216
O16	O	-0.955378	0.135193	0.085542
O17	O	-0.622045	0.468527	0.418875
O18	O	-0.288711	0.801860	0.752208
O19	O	-1.223851	0.120977	0.085538
O20	O	-0.890518	0.454311	0.418871
O21	O	-0.557184	0.787644	0.752205
Cu22	Cu	-1.089613	0.128085	0.101166
Cu23	Cu	-0.756280	0.461418	0.434499
Cu24	Cu	-0.422947	0.794751	0.767832
Cu25	Cu	-1.089631	0.128094	-0.101220
Cu26	Cu	-0.756297	0.461427	0.232114
Cu27	Cu	-0.422964	0.794761	0.565447
O28	O	-1.082507	0.262322	0.085531
O29	O	-0.749173	0.595655	0.418864
O30	O	-0.415840	0.928989	0.752197
C31	C	-0.921026	0.134531	-0.000025
C32	C	-0.587693	0.467864	0.333309
C33	C	-0.254359	0.801198	0.666642
C34	C	-0.818645	0.132535	-0.000023
C35	C	-0.485312	0.465868	0.333310
C36	C	-0.151979	0.799202	0.666644
C37	C	-1.096064	-0.040507	-0.000018
C38	C	-0.762730	0.292827	0.333316
C39	C	-0.429397	0.626160	0.666649
C40	C	-1.094068	-0.142887	-0.000017
C41	C	-0.760734	0.190446	0.333316
C42	C	-0.427401	0.523780	0.666650
C43	C	-0.735501	0.130913	-0.000026
C44	C	-0.402168	0.464247	0.333308
C45	C	-0.068835	0.797580	0.666641
C46	C	-0.631192	0.128887	-0.000024
C47	C	-0.297859	0.462220	0.333310
C48	C	0.035474	0.795553	0.666643
C49	C	-0.548053	0.127278	-0.000022
C50	C	-0.214720	0.460612	0.333311
C51	C	0.118614	0.793945	0.666645
C52	C	-0.443738	0.125252	-0.000022
C53	C	-0.110404	0.458585	0.333311
C54	C	0.222929	0.791919	0.666645
C55	C	-1.092446	-0.226031	-0.000019
C56	C	-0.759113	0.107302	0.333314
C57	C	-0.425779	0.440635	0.666647
C58	C	-1.090419	-0.330340	-0.000027
C59	C	-0.757086	0.002993	0.333306
C60	C	-0.423753	0.336326	0.666640
C61	C	-1.088811	-0.413479	-0.000034
C62	C	-0.755478	-0.080146	0.333300
C63	C	-0.422144	0.253187	0.666633
C64	C	-1.086785	-0.517795	-0.000040
C65	C	-0.753451	-0.184462	0.333294
C66	C	-0.420118	0.148872	0.666627
C67	C	-0.258218	0.121648	-0.000027
C68	C	0.075115	0.454981	0.333307
C69	C	0.408449	0.788314	0.666640
C70	C	-0.360598	0.123644	-0.000020
C71	C	-0.027265	0.456977	0.333313
C72	C	0.306068	0.790310	0.666647
C73	C	-1.083180	0.296685	-0.000039
C74	C	-0.749847	0.630019	0.333295
C75	C	-0.416513	0.963352	0.666628
C76	C	-1.085176	0.399066	-0.000046
C77	C	-0.751843	0.732399	0.333287
C78	C	-0.418509	1.065732	0.666620
N79	N	-1.089608	0.128078	0.243513
N80	N	-0.756274	0.461411	0.576846
N81	N	-0.422941	0.794744	0.910180
N82	N	-1.089644	0.128094	-0.243567
N83	N	-0.756310	0.461427	0.089766
N84	N	-0.422977	0.794760	0.423100
C85	C	-1.089629	0.128095	0.663327
C86	C	-0.756296	0.461428	0.996660
C87	C	-0.422963	0.794762	1.329994
C88	C	-1.089621	0.128093	0.546522
C89	C	-0.756287	0.461427	0.879855
C90	C	-0.422954	0.794760	1.213189
C91	C	-1.089619	0.128087	0.453424
C92	C	-0.756286	0.461420	0.786757
C93	C	-0.422952	0.794754	1.120090
C94	C	-1.089609	0.128084	0.336611
C95	C	-0.756276	0.461417	0.669944
C96	C	-0.422943	0.794750	1.003278
