data_functionalizedCrystal
_audit_creation_method	'MofGen! by Chris Wilmer'
_symmetry_space_group_name_H-M	'P1'
_symmetry_Int_Tables_number	1
_symmetry_cell_setting	triclinic
loop_
_symmetry_equiv_pos_as_xyz
  x,y,z
_cell_length_a	13.262390
_cell_length_b	16.109295
_cell_length_c	14.586319
_cell_angle_alpha	90.002929
_cell_angle_beta	105.923165
_cell_angle_gamma	96.034104
loop_
_atom_site_label
_atom_site_type_symbol
_atom_site_fract_x
_atom_site_fract_y
_atom_site_fract_z
O1	O	1.392677	-0.111956	0.423508
O2	O	1.892677	0.388044	0.923508
O3	O	1.087079	-0.124137	0.347306
O4	O	1.587079	0.375863	0.847306
O5	O	1.248276	0.002954	0.387502
O6	O	1.748276	0.502954	0.887502
O7	O	1.231480	-0.239047	0.383311
O8	O	1.731480	0.260953	0.883311
O9	O	1.248256	0.002946	0.235016
O10	O	1.748256	0.502946	0.735016
O11	O	1.087059	-0.124145	0.194820
O12	O	1.587059	0.375855	0.694820
O13	O	1.392657	-0.111963	0.271022
O14	O	1.892657	0.388037	0.771022
Cu15	Cu	1.239856	-0.118055	0.218998
Cu16	Cu	1.739856	0.381945	0.718998
Cu17	Cu	1.239880	-0.118046	0.399330
Cu18	Cu	1.739880	0.381954	0.899330
O19	O	1.231460	-0.239055	0.230826
O20	O	1.731460	0.260945	0.730826
C21	C	1.047964	-0.123459	0.261312
C22	C	1.547964	0.376541	0.761312
C23	C	0.931444	-0.121418	0.232258
C24	C	1.431444	0.378582	0.732258
C25	C	0.603043	-0.115636	0.482852
C26	C	1.103043	0.384364	0.982852
C27	C	0.712521	-0.117550	0.510152
C28	C	1.212521	0.382450	1.010152
C29	C	0.767257	-0.118517	0.440680
C30	C	1.267257	0.381483	0.940680
C31	C	0.712505	-0.117570	0.343905
C32	C	1.212505	0.382430	0.843905
C33	C	0.603018	-0.115649	0.316603
C34	C	1.103018	0.384351	0.816603
C35	C	0.767231	-0.118531	0.274431
C36	C	1.267231	0.381469	0.774431
C37	C	0.712479	-0.117583	0.177656
C38	C	1.212479	0.382417	0.677656
C39	C	0.603003	-0.115664	0.150358
C40	C	1.103003	0.384336	0.650358
C41	C	0.548267	-0.114696	0.219829
C42	C	1.048267	0.385304	0.719829
C43	C	0.876718	-0.120451	0.301733
C44	C	1.376718	0.379549	0.801733
C45	C	0.876693	-0.120465	0.135484
C46	C	1.376693	0.379535	0.635484
C47	C	0.767215	-0.118551	0.108184
C48	C	1.267215	0.381449	0.608184
C49	C	1.247587	0.033928	0.311092
C50	C	1.747587	0.533928	0.811092
C51	C	1.245550	0.126231	0.310591
C52	C	1.745550	0.626231	0.810591
C53	C	1.431772	-0.112641	0.357018
C54	C	1.931772	0.387359	0.857018
C55	C	1.548292	-0.114683	0.386078
C56	C	2.048292	0.385317	0.886078
C57	C	1.336464	0.348171	0.333294
C58	C	1.836464	0.848171	0.833294
C59	C	1.334542	0.434899	0.332830
C60	C	1.834542	0.934899	0.832830
C61	C	1.143291	0.415724	0.285136
C62	C	1.643291	0.915724	0.785136
C63	C	1.145213	0.328998	0.285607
C64	C	1.645213	0.828998	0.785607
C65	C	1.241803	0.295224	0.309682
C66	C	1.741803	0.795224	0.809682
C67	C	1.237958	0.468678	0.308747
C68	C	1.737958	0.968678	0.808747
C69	C	1.235874	0.562712	0.308244
C70	C	1.735874	1.062712	0.808244
C71	C	1.243888	0.201184	0.310188
C72	C	1.743888	0.701184	0.810188
N73	N	1.239848	-0.118061	0.092164
N74	N	1.739848	0.381939	0.592164
C75	C	1.232156	0.729972	0.307261
C76	C	1.732156	1.229972	0.807261
C77	C	1.234211	0.637671	0.307839
C78	C	1.734211	1.137671	0.807839
C79	C	1.303504	-0.168722	-0.126970
C80	C	1.803504	0.331278	0.373030
C81	C	1.303515	-0.168716	-0.222948
C82	C	1.803515	0.331284	0.277052
C83	C	1.176238	-0.067366	-0.254694
C84	C	1.676238	0.432634	0.245306
C85	C	1.176233	-0.067368	-0.158716
C86	C	1.676233	0.432632	0.341284
C87	C	1.239864	-0.118051	-0.094857
C88	C	1.739864	0.381949	0.405143
C89	C	1.239880	-0.118043	-0.286813
C90	C	1.739880	0.381957	0.213187
C91	C	1.239891	-0.118037	-0.390878
C92	C	1.739891	0.381963	0.109122
C93	C	1.239855	-0.118057	0.009215
C94	C	1.739855	0.381943	0.509215
N95	N	1.239897	-0.118034	0.526166
N96	N	1.739897	0.381966	1.026166
H97	H	0.921286	-0.121224	0.380529
H98	H	1.421286	0.378776	0.880529
N99	N	1.440637	0.311741	0.359261
N100	N	1.940637	0.811741	0.859261
H101	H	1.500311	0.358446	0.374150
H102	H	2.000311	0.858446	0.874150
H103	H	1.445606	0.276173	0.417022
H104	H	1.945606	0.776173	0.917022
N105	N	1.436639	0.492007	0.358298
N106	N	1.936639	0.992007	0.858298
H107	H	1.498116	0.457448	0.373619
H108	H	1.998116	0.957448	0.873619
H109	H	1.439999	0.528411	0.302614
H110	H	1.939999	1.028411	0.802614
N111	N	1.043104	0.271891	0.260130
N112	N	1.543104	0.771891	0.760130
H113	H	1.039637	0.235483	0.202738
H114	H	1.539637	0.735483	0.702738
H115	H	1.039701	0.235533	0.315840
H116	H	1.539701	0.735533	0.815840
H117	H	1.064650	0.443233	0.265533
H118	H	1.564650	0.943233	0.765533
H119	H	1.355317	-0.209991	-0.074978
H120	H	1.855317	0.290009	0.425022
H121	H	1.355338	-0.209977	-0.249089
H122	H	1.855338	0.290023	0.250911
N123	N	0.885337	-0.120573	0.470120
N124	N	1.385337	0.379427	0.970120
H125	H	0.911717	-0.121025	0.541968
H126	H	1.411717	0.378975	1.041968
H127	H	0.903099	-0.172516	0.441878
H128	H	1.403099	0.327484	0.941878
N129	N	0.708151	-0.117519	0.003810
N130	N	1.208151	0.382481	0.503810
H131	H	0.734719	-0.065784	-0.025346
H132	H	1.234719	0.434216	0.474654
H133	H	0.719873	-0.168792	-0.030087
H134	H	1.219873	0.331208	0.469913
N135	N	1.107609	-0.012704	-0.323570
N136	N	1.607609	0.487296	0.176430
H137	H	1.117266	-0.020392	-0.389246
H138	H	1.617266	0.479608	0.110754
H139	H	1.031267	-0.028834	-0.325839
H140	H	1.531267	0.471166	0.174161
H141	H	1.124409	-0.026101	-0.132570
H142	H	1.624409	0.473899	0.367430
H143	H	0.558468	-0.114840	0.539405
H144	H	1.058468	0.385160	1.039405
N145	N	0.771574	-0.118562	0.614522
N146	N	1.271574	0.381438	1.114522
H147	H	0.720290	-0.117657	0.654390
H148	H	1.220290	0.382343	1.154390
H149	H	0.808477	-0.170834	0.627353
H150	H	1.308477	0.329166	1.127353
H151	H	0.558429	-0.114877	0.071558
H152	H	1.058429	0.385123	0.571558
N153	N	0.430186	-0.112622	0.190383
N154	N	0.930186	0.387378	0.690383
H155	H	0.395287	-0.163633	0.214317
H156	H	0.895287	0.336367	0.714317
H157	H	0.412446	-0.060646	0.218578
H158	H	0.912446	0.439354	0.718578
H159	H	0.921259	-0.121251	0.078915
H160	H	1.421259	0.378749	0.578915
