data_functionalizedCrystal
_audit_creation_method	'MofGen! by Chris Wilmer'
_symmetry_space_group_name_H-M	'P1'
_symmetry_Int_Tables_number	1
_symmetry_cell_setting	triclinic
loop_
_symmetry_equiv_pos_as_xyz
  x,y,z
_cell_length_a	17.038272
_cell_length_b	15.944551
_cell_length_c	14.421503
_cell_angle_alpha	90.003141
_cell_angle_beta	90.004327
_cell_angle_gamma	92.694853
loop_
_atom_site_label
_atom_site_type_symbol
_atom_site_fract_x
_atom_site_fract_y
_atom_site_fract_z
O1	O	0.100827	-1.121728	-0.077015
O2	O	0.600827	-0.621728	0.422985
O3	O	0.113259	-0.878066	-0.077039
O4	O	0.613259	-0.378066	0.422961
O5	O	-0.006773	-0.998449	-0.077020
O6	O	0.493227	-0.498449	0.422980
O7	O	0.220859	-1.001345	-0.077034
O8	O	0.720859	-0.501345	0.422966
O9	O	-0.006755	-0.998429	0.077204
O10	O	0.493245	-0.498429	0.577204
O11	O	0.113277	-0.878046	0.077185
O12	O	0.613277	-0.378046	0.577185
O13	O	0.100845	-1.121708	0.077208
O14	O	0.600845	-0.621708	0.577208
Cu15	Cu	0.107062	-0.999875	0.091278
Cu16	Cu	0.607062	-0.499875	0.591278
Cu17	Cu	0.107041	-0.999899	-0.091109
Cu18	Cu	0.607041	-0.499899	0.408891
O19	O	0.220877	-1.001325	0.077189
O20	O	0.720877	-0.501325	0.577189
C21	C	0.112752	-0.846725	0.000070
C22	C	0.612752	-0.346725	0.500070
C23	C	0.111205	-0.753369	0.000062
C24	C	0.611205	-0.253369	0.500062
C25	C	-0.035893	-0.995805	0.000092
C26	C	0.464107	-0.495805	0.500092
C27	C	-0.122688	-0.987945	0.000091
C28	C	0.377312	-0.487945	0.500091
N29	N	0.107077	-0.999865	0.219560
N30	N	0.607077	-0.499865	0.719560
C31	C	-0.172781	-1.060103	0.000098
C32	C	0.327219	-0.560103	0.500098
C33	C	-0.254334	-1.052713	0.000089
C34	C	0.245666	-0.552713	0.500089
C35	C	-0.285792	-0.973165	0.000078
C36	C	0.214208	-0.473165	0.500078
C37	C	-0.235693	-0.901002	0.000068
C38	C	0.264307	-0.401002	0.500068
C39	C	-0.154142	-0.908393	0.000071
C40	C	0.345858	-0.408393	0.500071
C41	C	-0.531558	-0.947056	0.000063
C42	C	-0.031558	-0.447056	0.500063
C43	C	-0.613115	-0.939671	0.000063
C44	C	-0.113115	-0.439671	0.500063
C45	C	-0.631751	-1.091383	0.000083
C46	C	-0.131751	-0.591383	0.500083
C47	C	-0.550197	-1.098766	0.000091
C48	C	-0.050197	-0.598766	0.500091
C49	C	-0.500105	-1.026603	0.000075
C50	C	-0.000105	-0.526603	0.500075
C51	C	-0.369152	-0.965610	0.000071
C52	C	0.130848	-0.465610	0.500071
C53	C	-0.416747	-1.034159	0.000076
C54	C	0.083253	-0.534159	0.500076
C55	C	0.249997	-1.003969	0.000076
C56	C	0.749997	-0.503969	0.500076
C57	C	0.336792	-1.011829	0.000071
C58	C	0.836792	-0.511829	0.500071
C59	C	0.101352	-1.153049	0.000097
C60	C	0.601352	-0.653049	0.500097
C61	C	0.102899	-1.246405	0.000100
C62	C	0.602899	-0.746405	0.500100
C63	C	0.033105	-0.532936	0.000085
C64	C	0.533105	-0.032936	0.500085
C65	C	0.069363	-0.474515	-0.075958
C66	C	0.569363	0.025485	0.424042
C67	C	0.108405	-0.582443	0.000073
C68	C	0.608405	-0.082443	0.500073
C69	C	0.069398	-0.474519	0.076094
C70	C	0.569398	0.025481	0.576094
C71	C	0.105696	-0.417337	0.000088
C72	C	0.605696	0.082663	0.500088
C73	C	0.144684	-0.525252	-0.076033
C74	C	0.644684	-0.025252	0.423967
C75	C	0.144709	-0.525261	0.076088
C76	C	0.644709	-0.025261	0.576088
C77	C	0.181022	-0.466862	0.000027
C78	C	0.681022	0.033138	0.500027
C79	C	0.109964	-0.677557	0.000063
C80	C	0.609964	-0.177557	0.500063
C81	C	0.104143	-0.322225	0.000090
C82	C	0.604143	0.177775	0.500090
N83	N	0.107021	-0.999916	-0.219390
N84	N	0.607021	-0.499916	0.280610
C85	C	0.162555	-0.944187	0.469205
C86	C	0.662555	-0.444187	0.969205
C87	C	0.177734	-1.021171	0.531013
C88	C	0.677734	-0.521171	1.031013
C89	C	0.107058	-0.999884	0.408721
C90	C	0.607058	-0.499884	0.908721
C91	C	0.091897	-0.922921	0.531006
C92	C	0.591897	-0.422921	1.031006
C93	C	0.107042	-0.999895	0.591442
C94	C	0.607042	-0.499895	1.091442
C95	C	0.122272	-1.076908	0.469169
C96	C	0.622272	-0.576908	0.969169
C97	C	0.036405	-0.978606	0.469156
C98	C	0.536405	-0.478606	0.969156
C99	C	0.051554	-1.055642	0.530937
C100	C	0.551554	-0.555642	1.030937
C101	C	0.107070	-0.999876	0.303460
C102	C	0.607070	-0.499876	0.803460
C103	C	0.107030	-0.999912	0.696701
C104	C	0.607030	-0.499912	1.196701
H105	H	-0.147175	-1.124879	0.000113
H106	H	0.352825	-0.624879	0.500113
Br107	Br	-0.063140	-0.948555	0.423832
Br108	Br	0.436860	-0.448555	0.923832
H109	H	0.176539	-0.547656	0.140376
H110	H	0.676539	-0.047656	0.640376
H111	H	-0.029389	-0.561807	-0.000006
H112	H	0.470611	-0.061807	0.499994
H113	H	-0.295117	-1.111472	0.000097
H114	H	0.204883	-0.611472	0.500097
Br115	Br	-0.699736	-1.189313	0.000104
Br116	Br	-0.199736	-0.689313	0.500104
Br117	Br	-0.655808	-0.831706	0.000058
Br118	Br	-0.155808	-0.331706	0.500058
H119	H	-0.113356	-0.849634	0.000064
H120	H	0.386644	-0.349634	0.500064
Br121	Br	0.143748	-1.185433	0.424094
Br122	Br	0.643748	-0.685433	0.924094
Br123	Br	0.277307	-1.051189	0.576299
Br124	Br	0.777307	-0.551189	1.076299
Br125	Br	-0.411852	-0.857655	0.000048
Br126	Br	0.088148	-0.357655	0.500048
H127	H	-0.490782	-0.888296	0.000051
H128	H	0.009218	-0.388296	0.500051
Br129	Br	-0.374052	-1.142114	0.000082
Br130	Br	0.125948	-0.642114	0.500082
H131	H	0.037543	-0.452149	0.140380
H132	H	0.537543	0.047851	0.640380
Br133	Br	0.016271	-0.437224	-0.183108
Br134	Br	0.516271	0.062776	0.316892
Br135	Br	0.070535	-0.814433	0.576284
Br136	Br	0.570535	-0.314433	1.076284
Br137	Br	-0.278385	-0.793043	0.000038
Br138	Br	0.221615	-0.293043	0.500038
H139	H	0.176502	-0.547520	-0.140391
H140	H	0.676502	-0.047520	0.359609
Br141	Br	0.285287	-0.419036	-0.000045
Br142	Br	0.785287	0.080964	0.499955
Br143	Br	0.240835	-0.865772	0.424021
Br144	Br	0.740835	-0.365772	0.924021
H145	H	0.004613	-1.102803	0.557872
H146	H	0.504613	-0.602803	1.057872
H147	H	-0.524590	-1.163543	0.000100
H148	H	-0.024590	-0.663543	0.500100
