data_functionalizedCrystal
_audit_creation_method	'MofGen! by Chris Wilmer'
_symmetry_space_group_name_H-M	'P1'
_symmetry_Int_Tables_number	1
_symmetry_cell_setting	triclinic
loop_
_symmetry_equiv_pos_as_xyz
  x,y,z
_cell_length_a	15.995350
_cell_length_b	10.540539
_cell_length_c	9.616153
_cell_angle_alpha	90.000094
_cell_angle_beta	90.003218
_cell_angle_gamma	84.008933
loop_
_atom_site_label
_atom_site_type_symbol
_atom_site_fract_x
_atom_site_fract_y
_atom_site_fract_z
O1	O	-1.111967	-0.163613	-0.115521
O2	O	-0.868313	-0.183817	-0.115549
O3	O	-0.995699	0.011068	-0.115533
O4	O	-0.984581	-0.358498	-0.115537
O5	O	-0.995681	0.011064	0.115759
O6	O	-0.868295	-0.183822	0.115742
O7	O	-1.111950	-0.163617	0.115770
Zn8	Zn	-0.990120	-0.173720	0.152479
Zn9	Zn	-0.990143	-0.173714	-0.152258
O10	O	-0.984563	-0.358502	0.115754
C11	C	-0.994856	0.058357	0.000110
C12	C	-0.992362	0.199271	0.000103
C13	C	-0.837104	-0.182984	0.000093
C14	C	-0.744139	-0.180480	0.000082
C15	C	-1.143158	-0.164450	0.000125
C16	C	-1.236123	-0.166954	0.000127
C17	C	-0.406337	-0.171487	0.000111
C18	C	-0.452942	-0.032693	0.000629
C19	C	-0.549647	-0.035198	0.000098
C20	C	-0.573925	-0.175948	0.000098
C21	C	-0.533257	-0.244403	-0.131976
C22	C	-0.436600	-0.240916	-0.132077
C23	C	-0.436259	-0.243789	0.130944
C24	C	-0.533204	-0.243756	0.132680
C25	C	-0.668637	-0.178476	0.000085
C26	C	-0.311625	-0.168962	0.000114
C27	C	-0.985406	-0.405792	0.000108
C28	C	-0.987900	-0.546705	0.000107
N29	N	-0.990110	-0.173723	0.360453
C30	C	-0.896779	0.381384	-0.000427
C31	C	-0.899307	0.234801	0.000094
C32	C	-1.037134	0.261542	0.132187
C33	C	-1.033958	0.408043	0.132297
C34	C	-1.035871	0.408592	-0.130724
C35	C	-1.036728	0.261622	-0.132470
N36	N	-0.990159	-0.173701	-0.360232
C37	C	-0.921759	-0.277630	0.580815
C38	C	-0.921909	-0.278013	0.419647
C39	C	-1.077651	-0.202653	0.418913
C40	C	-1.077278	-0.203387	0.580130
C41	C	-0.971792	-0.040536	0.580364
C42	C	-0.969783	-0.041429	0.419137
H43	H	-0.434081	0.022785	0.095345
H44	H	-0.860162	0.411087	0.093754
H45	H	-1.105470	0.240127	0.137105
N46	N	-0.586876	0.036069	0.125508
H47	H	-0.540470	0.069401	0.181633
H48	H	-0.627794	0.109884	0.093861
H49	H	-0.856864	-0.260776	0.380125
H50	H	-0.933411	-0.375893	0.621314
H51	H	-1.100881	0.456931	0.138297
H52	H	-0.549182	-0.346395	0.140658
N53	N	-1.031404	0.065817	0.365788
H54	H	-1.016777	0.149529	0.405207
H55	H	-1.028522	0.068618	0.260930
N56	N	-0.852302	0.178828	0.125712
H57	H	-0.829861	0.249391	0.180967
H58	H	-0.891645	0.133575	0.185791
H59	H	-0.561354	-0.196853	-0.230268
N60	N	-0.852652	0.177723	-0.125332
H61	H	-0.854213	0.082179	-0.125235
H62	H	-0.880202	0.215020	-0.212801
N63	N	-0.395004	-0.379339	0.132136
H64	H	-0.357114	-0.393899	0.048387
H65	H	-0.360651	-0.394502	0.219818
H66	H	-1.093342	-0.300504	0.617719
H67	H	-0.856510	-0.260674	0.619618
N68	N	-1.146748	-0.106896	0.631799
H69	H	-1.177483	-0.064081	0.549844
H70	H	-1.187363	-0.151472	0.690021
N71	N	-1.126599	0.230792	-0.143030
H72	H	-1.134461	0.183490	-0.232645
H73	H	-1.139830	0.175768	-0.061597
H74	H	-1.006018	0.218513	0.230472
N75	N	-1.146725	-0.105059	0.368137
H76	H	-1.121876	-0.041001	0.306600
H77	H	-1.189137	-0.149286	0.313455
H78	H	-0.418001	-0.190992	-0.230806
H79	H	-1.003968	0.220315	-0.230182
H80	H	-1.000854	0.435785	0.231025
H81	H	-0.404962	-0.342816	-0.138071
H82	H	-1.103084	0.456741	-0.131604
H83	H	-0.548001	-0.347808	-0.136888
N84	N	-0.426543	0.040486	-0.124106
H85	H	-0.384529	-0.015878	-0.180950
H86	H	-0.477478	0.068181	-0.182999
N87	N	-0.408698	-0.183675	0.263549
H88	H	-0.459734	-0.153020	0.320912
H89	H	-0.371348	-0.248814	0.318314
H90	H	-1.005761	0.439733	-0.230835
N91	N	-0.568976	-0.177571	0.262114
H92	H	-0.611382	-0.103970	0.234998
H93	H	-0.597346	-0.240094	0.320694
N94	N	-0.937323	-0.409004	0.368527
H95	H	-0.944076	-0.466710	0.450723
H96	H	-0.990134	-0.402500	0.310265
H97	H	-1.094072	-0.298665	0.378523
H98	H	-0.860027	0.409481	-0.095147
N99	N	-0.889010	-0.003695	0.634269
H100	H	-0.862573	-0.072963	0.697753
H101	H	-0.850156	0.007544	0.553427
N102	N	-0.884450	-0.012381	0.368628
H103	H	-0.859062	-0.084601	0.307971
H104	H	-0.890632	0.069389	0.313097
N105	N	-1.037848	0.061917	0.630854
H106	H	-1.079474	0.022337	0.691908
H107	H	-1.010053	0.127460	0.685977
H108	H	-0.577188	0.018979	-0.094742
