data_functionalizedCrystal
_audit_creation_method	'MofGen! by Chris Wilmer'
_symmetry_space_group_name_H-M	'P1'
_symmetry_Int_Tables_number	1
_symmetry_cell_setting	triclinic
loop_
_symmetry_equiv_pos_as_xyz
  x,y,z
_cell_length_a	10.654550
_cell_length_b	10.654550
_cell_length_c	9.730223
_cell_angle_alpha	90.002824
_cell_angle_beta	89.996813
_cell_angle_gamma	95.515083
loop_
_atom_site_label
_atom_site_type_symbol
_atom_site_fract_x
_atom_site_fract_y
_atom_site_fract_z
O1	O	1.667840	-0.176396	-0.114281
O2	O	1.302361	-0.193202	-0.114285
O3	O	1.493503	-0.002059	-0.114274
O4	O	1.476697	-0.367538	-0.114292
O5	O	1.493490	-0.002059	0.114306
O6	O	1.302348	-0.193202	0.114295
O7	O	1.667826	-0.176396	0.114299
Zn8	Zn	1.485085	-0.184799	0.150589
Zn9	Zn	1.485103	-0.184799	-0.150575
O10	O	1.476684	-0.367538	0.114288
C11	C	1.255556	-0.191968	0.000004
C12	C	1.116113	-0.188276	0.000002
C13	C	1.714631	-0.177630	0.000007
C14	C	1.854074	-0.181321	-0.000001
C15	C	1.492263	0.044739	0.000015
C16	C	1.488571	0.184182	0.000013
C17	C	1.933560	-0.068780	-0.000001
C18	C	2.064581	-0.072257	0.000006
C19	C	2.036617	-0.300826	0.000006
C20	C	1.905599	-0.297348	0.000010
C21	C	1.949705	0.063183	-0.000007
C22	C	2.080726	0.059706	-0.000000
C23	C	1.477925	-0.414336	-0.000004
C24	C	1.481617	-0.553779	-0.000011
N25	N	1.485082	-0.184798	0.356125
C26	C	1.601112	0.263667	0.000014
C27	C	1.597636	0.394688	-0.000003
C28	C	1.369066	0.366725	-0.000016
C29	C	1.372544	0.235707	-0.000009
N30	N	1.485116	-0.184789	-0.356111
C31	C	1.561913	-0.261680	0.428043
C32	C	1.561934	-0.261673	0.571926
C33	C	1.408281	-0.107899	0.571960
C34	C	1.408268	-0.107900	0.428080
H35	H	2.078585	-0.395291	0.000017
O36	O	1.256472	0.416987	0.000037
C37	C	1.277531	0.549672	0.000001
H38	H	1.375270	0.579585	0.043277
H39	H	1.203219	0.590540	0.066362
H40	H	1.271134	0.586184	-0.109661
O41	O	1.333435	-0.033357	0.358278
C42	C	1.206270	-0.066950	0.393485
H43	H	1.195009	-0.168120	0.433032
H44	H	1.144411	-0.059058	0.298876
H45	H	1.176559	-0.000838	0.477012
H46	H	1.624460	-0.324295	0.369462
H47	H	1.840885	-0.388991	0.000026
H48	H	1.920346	0.114798	0.095650
H49	H	1.624499	-0.324276	0.630476
O50	O	1.713785	0.213556	0.000263
C51	C	1.722624	0.138591	0.118632
H52	H	1.656720	0.170144	0.201376
H53	H	1.823739	0.149478	0.158366
H54	H	1.694561	0.035536	0.091872
O55	O	1.707077	0.471720	0.000063
C56	C	1.810223	0.398141	0.000046
H57	H	1.779191	0.300653	0.043328
H58	H	1.889140	0.445781	0.066412
H59	H	1.845745	0.388492	-0.109611
H60	H	1.914079	0.105204	-0.098701
H61	H	1.345740	-0.045293	0.630563
H62	H	1.280893	0.170986	-0.000014
H63	H	2.126368	0.099582	0.098698
O64	O	2.130477	0.118825	-0.114262
C65	C	2.078698	0.057204	-0.232435
H66	H	2.042943	-0.044084	-0.205470
H67	H	2.154245	0.057043	-0.315390
H68	H	1.997039	0.108821	-0.272004
