data_functionalizedCrystal
_audit_creation_method	'MofGen! by Chris Wilmer'
_symmetry_space_group_name_H-M	'P1'
_symmetry_Int_Tables_number	1
_symmetry_cell_setting	triclinic
loop_
_symmetry_equiv_pos_as_xyz
  x,y,z
_cell_length_a	10.654549
_cell_length_b	8.559649
_cell_length_c	9.130313
_cell_angle_alpha	89.996748
_cell_angle_beta	89.997498
_cell_angle_gamma	77.131721
loop_
_atom_site_label
_atom_site_type_symbol
_atom_site_fract_x
_atom_site_fract_y
_atom_site_fract_z
O1	O	1.644682	0.224182	-0.121760
O2	O	1.276997	0.245542	-0.121770
O3	O	1.493233	0.002619	-0.121761
O4	O	1.428446	0.467105	-0.121769
O5	O	1.493221	0.002612	0.121838
O6	O	1.276985	0.245534	0.121829
O7	O	1.644670	0.224175	0.121839
Cu8	Cu	1.460826	0.234854	0.144076
Cu9	Cu	1.460841	0.234862	-0.144008
O10	O	1.428434	0.467098	0.121829
C11	C	1.230355	0.243970	0.000028
C12	C	1.091396	0.239278	0.000024
C13	C	1.498136	-0.056860	0.000036
C14	C	1.512751	-0.234078	0.000030
C15	C	0.866564	0.377886	0.000028
C16	C	0.997128	0.382307	0.000019
C17	C	1.055096	0.091818	0.000024
C18	C	0.924534	0.087400	0.000022
C19	C	1.691312	0.225747	0.000037
C20	C	1.830270	0.230439	0.000031
C21	C	1.423530	0.526577	0.000029
C22	C	1.408916	0.703795	0.000025
N23	N	1.460825	0.234847	0.346699
N24	N	1.460853	0.234857	-0.346630
C25	C	1.556598	0.127327	0.423355
C26	C	1.556610	0.127327	0.576692
C27	C	1.365070	0.342382	0.576703
C28	C	1.365054	0.342373	0.423369
H29	H	0.789816	0.494358	0.000034
H30	H	1.287058	0.429930	0.360952
O31	O	0.889113	-0.055742	0.000220
C32	C	0.815342	-0.067009	0.126395
H33	H	0.770622	0.058432	0.168458
H34	H	0.735794	-0.131576	0.098014
H35	H	0.879954	-0.136994	0.214740
O36	O	1.632054	-0.332584	-0.000035
C37	C	1.620578	-0.493532	-0.000000
H38	H	1.522626	-0.500848	-0.046118
H39	H	1.699902	-0.568260	-0.070724
H40	H	1.629929	-0.541636	0.116866
H41	H	1.308831	-0.213808	0.000034
O42	O	1.649774	0.022826	0.650928
C43	C	1.734273	-0.072103	0.550370
H44	H	1.729362	-0.006645	0.441063
H45	H	1.836798	-0.095262	0.594655
H46	H	1.704991	-0.191163	0.534077
H47	H	1.026669	0.502374	0.000014
H48	H	1.131861	-0.024638	0.000019
O49	O	1.649434	0.022738	0.348748
C50	C	1.591707	-0.076555	0.260153
H51	H	1.487440	-0.014085	0.237160
H52	H	1.646497	-0.101298	0.152335
H53	H	1.594507	-0.194570	0.319321
H54	H	1.287097	0.429930	0.639143
