data_functionalizedCrystal
_audit_creation_method	'MofGen! by Chris Wilmer'
_symmetry_space_group_name_H-M	'P1'
_symmetry_Int_Tables_number	1
_symmetry_cell_setting	triclinic
loop_
_symmetry_equiv_pos_as_xyz
  x,y,z
_cell_length_a	14.519709
_cell_length_b	23.532407
_cell_length_c	12.996460
_cell_angle_alpha	89.989202
_cell_angle_beta	90.000034
_cell_angle_gamma	83.264412
loop_
_atom_site_label
_atom_site_type_symbol
_atom_site_fract_x
_atom_site_fract_y
_atom_site_fract_z
O1	O	1.222985	0.074654	-0.085444
O2	O	1.722985	0.574654	0.414556
O3	O	0.954405	0.083445	-0.085477
O4	O	1.454405	0.583445	0.414523
O5	O	1.096794	-0.003845	-0.085440
O6	O	1.596794	0.496155	0.414560
O7	O	1.080596	0.161945	-0.085480
O8	O	1.580596	0.661945	0.414520
O9	O	1.096779	-0.003850	0.085693
O10	O	1.596779	0.496150	0.585693
O11	O	0.954390	0.083441	0.085657
O12	O	1.454390	0.583441	0.585657
O13	O	1.222971	0.074649	0.085690
O14	O	1.722971	0.574649	0.585690
Cu15	Cu	1.088679	0.079044	0.101299
Cu16	Cu	1.588679	0.579044	0.601299
Cu17	Cu	1.088696	0.079050	-0.101086
Cu18	Cu	1.588696	0.579050	0.398914
O19	O	1.080581	0.161940	0.085654
O20	O	1.580581	0.661940	0.585654
C21	C	0.920042	0.083033	0.000086
C22	C	1.420042	0.583033	0.500086
C23	C	0.817676	0.081805	0.000075
C24	C	1.317676	0.581805	0.500075
C25	C	1.096374	-0.025066	0.000129
C26	C	1.596374	0.474934	0.500129
C27	C	1.095134	-0.088288	0.000137
C28	C	1.595134	0.411712	0.500137
C29	C	0.442833	0.077286	0.000123
C30	C	0.942833	0.577286	0.500123
C31	C	0.547126	0.078541	0.000109
C32	C	1.047126	0.578541	0.500109
C33	C	0.630251	0.079545	0.000098
C34	C	1.130251	0.579545	0.500098
C35	C	0.734551	0.080801	0.000086
C36	C	1.234551	0.580801	0.500086
C37	C	1.171619	-0.487046	0.000090
C38	C	1.671619	0.012954	0.500090
C39	C	1.170467	-0.546452	0.000082
C40	C	1.670467	-0.046452	0.500082
O41	O	1.241369	-0.582876	0.000052
O42	O	1.741369	-0.082876	0.500052
N43	N	1.085816	-0.569460	0.000072
N44	N	1.585816	-0.069460	0.500072
C45	C	1.002312	-0.533059	0.000060
C46	C	1.502312	-0.033059	0.500060
O47	O	0.930205	-0.558084	0.000050
O48	O	1.430205	-0.058084	0.500050
C49	C	1.003465	-0.473655	0.000061
C50	C	1.503465	0.026345	0.500061
C51	C	1.088121	-0.450650	0.000081
C52	C	1.588121	0.049350	0.500081
C53	C	1.256268	-0.464041	0.000109
C54	C	1.756268	0.035959	0.500109
C55	C	1.257420	-0.404640	0.000119
C56	C	1.757420	0.095360	0.500119
C57	C	1.173922	-0.368244	0.000110
C58	C	1.673922	0.131756	0.500110
C59	C	1.089273	-0.391249	0.000091
C60	C	1.589273	0.108751	0.500091
C61	C	0.919962	-0.437255	0.000041
C62	C	1.419962	0.062745	0.500041
C63	C	0.921123	-0.377847	0.000041
C64	C	1.421123	0.122153	0.500041
C65	C	1.005779	-0.354843	0.000061
C66	C	1.505779	0.145157	0.500061
C67	C	1.006927	-0.295451	0.000091
C68	C	1.506927	0.204549	0.500091
N69	N	1.091578	-0.272443	0.000101
N70	N	1.591578	0.227557	0.500101
C71	C	1.175075	-0.308839	0.000110
C72	C	1.675075	0.191161	0.500110
C73	C	0.999897	-0.657813	0.000057
C74	C	1.499897	-0.157813	0.500057
C75	C	0.998743	-0.717216	0.000064
C76	C	1.498743	-0.217216	0.500064
C77	C	1.166898	-0.730604	0.000084
C78	C	1.666898	-0.230604	0.500084
C79	C	1.168051	-0.671200	0.000084
C80	C	1.668051	-0.171200	0.500084
C81	C	1.084548	-0.634804	0.000067
C82	C	1.584548	-0.134804	0.500067
C83	C	1.177487	-0.184092	0.000132
C84	C	1.677487	0.315908	0.500132
C85	C	1.178632	-0.124685	0.000146
C86	C	1.678632	0.375315	0.500146
C87	C	1.010477	-0.111301	0.000121
C88	C	1.510477	0.388699	0.500121
C89	C	1.009332	-0.170703	0.000112
C90	C	1.509332	0.329297	0.500112
C91	C	1.092845	-0.207098	0.000114
C92	C	1.592845	0.292902	0.500114
O93	O	0.936062	-0.258992	0.000117
O94	O	1.436062	0.241008	0.500117
O95	O	1.247171	-0.283806	0.000106
O96	O	1.747171	0.216194	0.500106
C97	C	1.257333	0.075061	0.000125
C98	C	1.757333	0.575061	0.500125
C99	C	1.359700	0.076289	0.000130
C100	C	1.859700	0.576289	0.500130
C101	C	1.081001	0.183160	0.000082
C102	C	1.581001	0.683160	0.500082
C103	C	1.082241	0.246383	0.000067
C104	C	1.582241	0.746383	0.500067
N105	N	1.088673	0.079040	0.243647
N106	N	1.588673	0.579040	0.743647
N107	N	1.088709	0.079050	-0.243433
N108	N	1.588709	0.579050	0.256567
C109	C	1.088695	0.079051	0.663461
C110	C	1.588695	0.579051	1.163461
C111	C	1.088686	0.079050	0.546656
C112	C	1.588686	0.579050	1.046656
C113	C	1.088685	0.079046	0.453557
C114	C	1.588685	0.579046	0.953557
C115	C	1.088675	0.079044	0.336745
C116	C	1.588675	0.579044	0.836745
H117	H	1.247572	-0.105958	0.000165
H118	H	1.747572	0.394042	0.500165
H119	H	0.853122	-0.348216	0.000025
H120	H	1.353122	0.151784	0.500025
H121	H	0.940399	-0.189434	0.000124
H122	H	1.440399	0.310566	0.500124
H123	H	1.324266	-0.493670	0.000112
H124	H	1.824266	0.006330	0.500112
H125	H	1.245491	-0.213718	0.000129
H126	H	1.745491	0.286282	0.500129
H127	H	0.942496	-0.081657	0.000117
H128	H	1.442496	0.418343	0.500117
O129	O	1.247987	-0.765988	-0.000102
O130	O	1.747987	-0.265988	0.499898
C131	C	1.252335	-0.800747	-0.088726
C132	C	1.752335	-0.300747	0.411274
H133	H	1.204974	-0.779032	-0.150673
H134	H	1.704974	-0.279032	0.349327
H135	H	1.326682	-0.807343	-0.118476
H136	H	1.826682	-0.307343	0.381524
H137	H	1.228865	-0.843970	-0.068696
H138	H	1.728865	-0.343970	0.431304
H139	H	1.326355	-0.385915	0.000131
H140	H	1.826355	0.114085	0.500131
O141	O	1.250308	-0.648882	-0.000089
O142	O	1.750308	-0.148882	0.499911
C143	C	1.301187	-0.667481	-0.088701
C144	C	1.801187	-0.167481	0.411299
H145	H	1.251678	-0.679885	-0.150653
H146	H	1.751678	-0.179885	0.349347
H147	H	1.340090	-0.631452	-0.118451
H148	H	1.840090	-0.131452	0.381549
H149	H	1.352934	-0.706142	-0.068654
H150	H	1.852934	-0.206142	0.431346
O151	O	0.916427	-0.739464	0.000010
O152	O	1.416427	-0.239464	0.500010
C153	C	0.842984	-0.694595	0.000032
C154	C	1.342984	-0.194595	0.500032
H155	H	0.868465	-0.654210	-0.032357
H156	H	1.368465	-0.154210	0.467643
H157	H	0.783850	-0.707063	-0.049662
H158	H	1.283850	-0.207063	0.450338
H159	H	0.817250	-0.686228	0.082132
H160	H	1.317250	-0.186228	0.582132
H161	H	0.931894	-0.628182	0.000052
H162	H	1.431894	-0.128182	0.500052
O163	O	0.837645	-0.459498	-0.000029
O164	O	1.337645	0.040502	0.499971
C165	C	0.764208	-0.414624	-0.000017
C166	C	1.264208	0.085376	0.499983
H167	H	0.789699	-0.374242	-0.032404
H168	H	1.289699	0.125758	0.467596
H169	H	0.705077	-0.427090	-0.049720
H170	H	1.205077	0.072910	0.450280
H171	H	0.738465	-0.406256	0.082078
H172	H	1.238465	0.093744	0.582078
