data_functionalizedCrystal
_audit_creation_method	'MofGen! by Chris Wilmer'
_symmetry_space_group_name_H-M	'P1'
_symmetry_Int_Tables_number	1
_symmetry_cell_setting	triclinic
loop_
_symmetry_equiv_pos_as_xyz
  x,y,z
_cell_length_a	16.109302
_cell_length_b	15.995350
_cell_length_c	15.186229
_cell_angle_alpha	89.998487
_cell_angle_beta	89.994701
_cell_angle_gamma	83.477078
loop_
_atom_site_label
_atom_site_type_symbol
_atom_site_fract_x
_atom_site_fract_y
_atom_site_fract_z
O1	O	1.103159	0.107627	-0.073264
O2	O	1.436493	0.440960	0.260070
O3	O	1.769826	0.774294	0.593403
O4	O	0.861101	0.121020	-0.073256
O5	O	1.194434	0.454353	0.260077
O6	O	1.527768	0.787687	0.593410
O7	O	0.988747	-0.007566	-0.073259
O8	O	1.322080	0.325767	0.260074
O9	O	1.655414	0.659101	0.593407
O10	O	0.975513	0.236213	-0.073261
O11	O	1.308847	0.569546	0.260073
O12	O	1.642180	0.902880	0.593406
O13	O	0.988738	-0.007568	0.073198
O14	O	1.322072	0.325766	0.406531
O15	O	1.655405	0.659099	0.739865
O16	O	0.861092	0.121018	0.073201
O17	O	1.194426	0.454352	0.406534
O18	O	1.527759	0.787685	0.739868
O19	O	1.103151	0.107625	0.073194
O20	O	1.436484	0.440958	0.406527
O21	O	1.769817	0.774292	0.739860
Zn22	Zn	0.982120	0.114321	0.096451
Zn23	Zn	1.315454	0.447655	0.429784
Zn24	Zn	1.648787	0.780988	0.763117
Zn25	Zn	0.982131	0.114324	-0.096513
Zn26	Zn	1.315465	0.447657	0.236820
Zn27	Zn	1.648798	0.780990	0.570153
O28	O	0.975505	0.236211	0.073197
O29	O	1.308838	0.569544	0.406530
O30	O	1.642171	0.902878	0.739863
C31	C	0.830122	0.120476	-0.000027
C32	C	1.163455	0.453810	0.333307
C33	C	1.496788	0.787143	0.666640
C34	C	0.737826	0.118850	-0.000024
C35	C	1.071159	0.452183	0.333309
C36	C	1.404493	0.785516	0.666643
C37	C	0.525479	0.115087	0.079801
C38	C	0.858813	0.448420	0.413134
C39	C	1.192146	0.781754	0.746468
C40	C	0.438759	0.113549	0.079798
C41	C	0.772092	0.446883	0.413131
C42	C	1.105426	0.780216	0.746465
C43	C	0.438779	0.113556	-0.079878
C44	C	0.772112	0.446889	0.253456
C45	C	1.105445	0.780222	0.586789
C46	C	0.525498	0.115087	-0.079874
C47	C	0.858832	0.448421	0.253460
C48	C	1.192165	0.781754	0.586793
C49	C	0.568846	0.115857	-0.000032
C50	C	0.902179	0.449190	0.333302
C51	C	1.235513	0.782524	0.666635
C52	C	0.395406	0.112788	-0.000039
C53	C	0.728739	0.446121	0.333295
C54	C	1.062072	0.779455	0.666628
C55	C	0.301380	0.111121	-0.000043
C56	C	0.634713	0.444454	0.333291
C57	C	0.968046	0.777788	0.666624
C58	C	0.662878	0.117523	-0.000027
C59	C	0.996212	0.450856	0.333306
C60	C	1.329545	0.784189	0.666639
C61	C	0.988196	-0.038761	-0.000032
C62	C	1.321529	0.294572	0.333301
C63	C	1.654862	0.627905	0.666634
C64	C	0.986555	-0.131711	-0.000037
C65	C	1.319889	0.201622	0.333296
C66	C	1.653222	0.534955	0.666629
C67	C	0.980665	-0.469457	-0.000034
C68	C	1.313998	-0.136124	0.333299
C69	C	1.647332	0.197209	0.666633
C70	C	0.889758	-0.421999	-0.000360
C71	C	1.223091	-0.088665	0.332973
C72	C	1.556425	0.244668	0.666307
C73	C	0.891398	-0.325309	-0.000030
C74	C	1.224732	0.008024	0.333304
C75	C	1.558065	0.341358	0.666637
C76	C	0.983587	-0.301898	-0.000036
C77	C	1.316920	0.031436	0.333297
C78	C	1.650253	0.364769	0.666630
C79	C	1.028420	-0.342988	0.083595
C80	C	1.361754	-0.009655	0.416928
C81	C	1.695087	0.323678	0.750262
C82	C	1.026137	-0.439623	0.083665
C83	C	1.359470	-0.106290	0.416999
C84	C	1.692803	0.227043	0.750332
C85	C	1.028024	-0.439980	-0.082884
C86	C	1.361358	-0.106647	0.250449
C87	C	1.694691	0.226687	0.583782
C88	C	1.028003	-0.343035	-0.083989
C89	C	1.361336	-0.009701	0.249344
C90	C	1.694670	0.323632	0.582677
C91	C	0.985243	-0.207201	-0.000034
C92	C	1.318576	0.126133	0.333299
C93	C	1.651910	0.459466	0.666632
C94	C	0.979012	-0.564155	-0.000030
C95	C	1.312345	-0.230821	0.333303
C96	C	1.645678	0.102512	0.666637
C97	C	1.134130	0.108169	-0.000038
C98	C	1.467463	0.441502	0.333295
C99	C	1.800797	0.774835	0.666629
C100	C	1.226426	0.109796	-0.000046
C101	C	1.559759	0.443129	0.333287
C102	C	1.893092	0.776462	0.666620
C103	C	0.976056	0.267407	-0.000032
C104	C	1.309389	0.600740	0.333301
C105	C	1.642723	0.934073	0.666634
C106	C	0.977696	0.360357	-0.000033
C107	C	1.311030	0.693690	0.333300
C108	C	1.644363	1.027023	0.666634
N109	N	0.982119	0.114319	0.228143
N110	N	1.315452	0.447653	0.561477
N111	N	1.648785	0.780986	0.894810
N112	N	0.982140	0.114319	-0.228206
N113	N	1.315473	0.447653	0.105127
N114	N	1.648806	0.780986	0.438461
C115	C	1.038660	0.057401	0.453865
C116	C	1.371993	0.390734	0.787198
C117	C	1.705326	0.724067	1.120531
C118	C	1.038662	0.057399	0.546054
C119	C	1.371995	0.390732	0.879388
C120	C	1.705329	0.724065	1.212721
C121	C	0.925593	0.171241	0.546066
C122	C	1.258926	0.504574	0.879400
C123	C	1.592259	0.837907	1.212733
C124	C	0.925587	0.171238	0.453878
C125	C	1.258920	0.504571	0.787212
C126	C	1.592253	0.837905	1.120545
C127	C	0.982125	0.114319	0.407780
C128	C	1.315458	0.447652	0.741113
C129	C	1.648792	0.780986	1.074447
C130	C	0.982133	0.114320	0.592157
C131	C	1.315467	0.447653	0.925491
C132	C	1.648800	0.780986	1.258824
C133	C	0.982136	0.114318	0.692114
C134	C	1.315469	0.447651	1.025447
C135	C	1.648803	0.780985	1.358780
C136	C	0.982122	0.114319	0.307817
C137	C	1.315455	0.447653	0.641151
C138	C	1.648788	0.780986	0.974484
H139	H	0.856156	-0.296877	-0.059980
H140	H	1.189489	0.036457	0.273353
H141	H	1.522822	0.369790	0.606687
H142	H	0.403454	0.112923	0.144806
H143	H	0.736787	0.446256	0.478139
H144	H	1.070120	0.779589	0.811473
H145	H	0.403474	0.112930	-0.144882
H146	H	0.736808	0.446263	0.188451
H147	H	1.070141	0.779596	0.521784
F148	F	0.842350	-0.447879	0.077382
F149	F	1.175683	-0.114545	0.410715
F150	F	1.509016	0.218788	0.744049
F151	F	0.865426	0.231817	0.595133
F152	F	1.198759	0.565151	0.928467
F153	F	1.532092	0.898484	1.261800
F154	F	0.842267	-0.446205	-0.078750
F155	F	1.175601	-0.112871	0.254583
F156	F	1.508934	0.220462	0.587916
H157	H	0.560809	0.115712	-0.144887
H158	H	0.894142	0.449045	0.188446
H159	H	1.227475	0.782379	0.521780
F160	F	0.865409	0.231818	0.404827
F161	F	1.198742	0.565151	0.738161
F162	F	1.532075	0.898485	1.071494
H163	H	0.993437	-0.457917	0.146185
H164	H	1.326770	-0.124583	0.479519
H165	H	1.660103	0.208750	0.812852
F166	F	0.571611	0.115903	0.164776
F167	F	0.904944	0.449236	0.498109
F168	F	1.238277	0.782570	0.831443
H169	H	0.855912	-0.297435	0.060025
H170	H	1.189245	0.035898	0.393358
H171	H	1.522579	0.369231	0.726691
H172	H	1.092879	-0.471890	0.087455
H173	H	1.426213	-0.138556	0.420789
H174	H	1.759546	0.194777	0.754122
H175	H	1.084697	0.011050	0.583574
H176	H	1.418030	0.344383	0.916907
H177	H	1.751363	0.677716	1.250241
H178	H	1.096149	-0.328881	0.086701
H179	H	1.429482	0.004452	0.420034
H180	H	1.762815	0.337786	0.753367
H181	H	0.997274	-0.314599	0.145835
H182	H	1.330608	0.018734	0.479168
H183	H	1.663941	0.352068	0.812502
H184	H	0.998306	-0.460511	-0.146272
H185	H	1.331639	-0.127177	0.187061
H186	H	1.664973	0.206156	0.520395
F187	F	1.115874	-0.322975	-0.090602
F188	F	1.449207	0.010358	0.242732
F189	F	1.782541	0.343691	0.576065
F190	F	0.985488	-0.307017	-0.164868
F191	F	1.318821	0.026316	0.168465
F192	F	1.652154	0.359649	0.501799
F193	F	1.115631	-0.481518	-0.083627
F194	F	1.448964	-0.148184	0.249706
F195	F	1.782297	0.185149	0.583040
F196	F	1.098830	-0.003180	0.404807
F197	F	1.432164	0.330153	0.738140
F198	F	1.765497	0.663487	1.071474
