data_functionalizedCrystal
_audit_creation_method	'MofGen! by Chris Wilmer'
_symmetry_space_group_name_H-M	'P1'
_symmetry_Int_Tables_number	1
_symmetry_cell_setting	triclinic
loop_
_symmetry_equiv_pos_as_xyz
  x,y,z
_cell_length_a	19.805407
_cell_length_b	18.215405
_cell_length_c	18.215399
_cell_angle_alpha	90.026474
_cell_angle_beta	90.018864
_cell_angle_gamma	90.019338
loop_
_atom_site_label
_atom_site_type_symbol
_atom_site_fract_x
_atom_site_fract_y
_atom_site_fract_z
Zn1	Zn	1.034763	-0.293045	0.416104
Zn2	Zn	1.284763	-0.043045	0.666104
Zn3	Zn	1.534763	0.206955	0.916104
Zn4	Zn	1.784763	0.456955	1.166104
Zn5	Zn	1.034685	-0.416116	0.293041
Zn6	Zn	1.284685	-0.166116	0.543041
Zn7	Zn	1.534685	0.083884	0.793041
Zn8	Zn	1.784685	0.333884	1.043041
Zn9	Zn	0.921576	-0.293062	0.293054
Zn10	Zn	1.171576	-0.043062	0.543054
Zn11	Zn	1.421576	0.206938	0.793054
Zn12	Zn	1.671576	0.456938	1.043054
Zn13	Zn	0.921550	-0.416068	0.416068
Zn14	Zn	1.171550	-0.166068	0.666068
Zn15	Zn	1.421550	0.083932	0.916068
Zn16	Zn	1.671550	0.333932	1.166068
O17	O	0.978144	-0.354573	0.354567
O18	O	1.228144	-0.104573	0.604567
O19	O	1.478144	0.145427	0.854567
O20	O	1.728144	0.395427	1.104567
O21	O	1.129470	-0.309383	0.399790
O22	O	1.379470	-0.059383	0.649790
O23	O	1.629470	0.190617	0.899790
O24	O	1.879470	0.440617	1.149790
O25	O	1.019659	-0.399820	0.190059
O26	O	1.269659	-0.149820	0.440059
O27	O	1.519659	0.100180	0.690059
O28	O	1.769659	0.350180	0.940059
O29	O	0.936634	-0.190075	0.309397
O30	O	1.186634	0.059925	0.559397
O31	O	1.436634	0.309925	0.809397
O32	O	1.686634	0.559925	1.059397
O33	O	1.129412	-0.399803	0.309376
O34	O	1.379412	-0.149803	0.559376
O35	O	1.629412	0.100197	0.809376
O36	O	1.879412	0.350197	1.059376
O37	O	1.019792	-0.190063	0.399802
O38	O	1.269792	0.059937	0.649802
O39	O	1.519792	0.309937	0.899802
O40	O	1.769792	0.559937	1.149802
O41	O	0.936558	-0.309412	0.190068
O42	O	1.186558	-0.059412	0.440068
O43	O	1.436558	0.190588	0.690068
O44	O	1.686558	0.440588	0.940068
O45	O	0.826856	-0.309366	0.309362
O46	O	1.076856	-0.059366	0.559362
O47	O	1.326856	0.190634	0.809362
O48	O	1.576856	0.440634	1.059362
O49	O	0.936590	-0.399722	0.519057
O50	O	1.186590	-0.149722	0.769057
O51	O	1.436590	0.100278	1.019057
O52	O	1.686590	0.350278	1.269057
O53	O	0.826837	-0.399738	0.399740
O54	O	1.076837	-0.149738	0.649740
O55	O	1.326837	0.100262	0.899740
O56	O	1.576837	0.350262	1.149740
O57	O	1.019768	-0.309337	0.519084
O58	O	1.269768	-0.059337	0.769084
O59	O	1.519768	0.190663	1.019084
O60	O	1.769768	0.440663	1.269084
O61	O	1.019634	-0.519094	0.309341
O62	O	1.269634	-0.269094	0.559341
O63	O	1.519634	-0.019094	0.809341
O64	O	1.769634	0.230906	1.059341
O65	O	0.936514	-0.519059	0.399728
O66	O	1.186514	-0.269059	0.649728
O67	O	1.436514	-0.019059	0.899728
O68	O	1.686514	0.230941	1.149728
C69	C	0.978081	-0.545779	0.354545
C70	C	1.228081	-0.295779	0.604545
C71	C	1.478081	-0.045779	0.854545
C72	C	1.728081	0.204221	1.104545
C73	C	0.978116	-0.627578	0.354560
C74	C	1.228116	-0.377578	0.604560
C75	C	1.478116	-0.127578	0.854560
C76	C	1.728116	0.122422	1.104560
C77	C	0.802288	-0.354550	0.354549
C78	C	1.052288	-0.104550	0.604549
C79	C	1.302288	0.145450	0.854549
C80	C	1.552288	0.395450	1.104549
C81	C	0.727056	-0.354557	0.354559
C82	C	0.977056	-0.104557	0.604559
C83	C	1.227056	0.145443	0.854559
C84	C	1.477056	0.395443	1.104559
C85	C	1.021457	-0.892571	0.401706
C86	C	1.271457	-0.642571	0.651706
C87	C	1.521457	-0.392571	0.901706
C88	C	1.771457	-0.142571	1.151706
C89	C	1.021434	-0.815712	0.401695
C90	C	1.271434	-0.565712	0.651695
C91	C	1.521434	-0.315712	0.901695
C92	C	1.771434	-0.065712	1.151695
C93	C	0.934917	-0.815833	0.307470
C94	C	1.184917	-0.565833	0.557470
C95	C	1.434917	-0.315833	0.807470
C96	C	1.684917	-0.065833	1.057470
C97	C	0.934943	-0.892690	0.307478
C98	C	1.184943	-0.642690	0.557478
C99	C	1.434943	-0.392690	0.807478
C100	C	1.684943	-0.142690	1.057478
C101	C	0.978212	-0.931057	0.354600
C102	C	1.228212	-0.681057	0.604600
C103	C	1.478212	-0.431057	0.854600
C104	C	1.728212	-0.181057	1.104600
C105	C	0.978163	-0.777341	0.354581
C106	C	1.228163	-0.527341	0.604581
C107	C	1.478163	-0.277341	0.854581
C108	C	1.728163	-0.027341	1.104581
C109	C	0.978138	-0.694008	0.354569
C110	C	1.228138	-0.444008	0.604569
C111	C	1.478138	-0.194008	0.854569
C112	C	1.728138	0.055992	1.104569
C113	C	0.978239	-1.014396	0.354612
C114	C	1.228239	-0.764396	0.604612
C115	C	1.478239	-0.514396	0.854612
C116	C	1.728239	-0.264396	1.104612
C117	C	0.691742	-0.307559	0.401709
C118	C	0.941742	-0.057559	0.651709
C119	C	1.191742	0.192441	0.901709
C120	C	1.441742	0.442441	1.151709
C121	C	0.621054	-0.307563	0.401712
C122	C	0.871054	-0.057563	0.651712
C123	C	1.121054	0.192437	0.901712
C124	C	1.371054	0.442437	1.151712
C125	C	0.585680	-0.354569	0.354568
C126	C	0.835680	-0.104569	0.604568
C127	C	1.085680	0.145431	0.854568
C128	C	1.335680	0.395431	1.104568
C129	C	0.620998	-0.401570	0.307412
C130	C	0.870998	-0.151570	0.557412
C131	C	1.120998	0.098430	0.807412
C132	C	1.370998	0.348430	1.057412
C133	C	0.691686	-0.401562	0.307406
C134	C	0.941686	-0.151562	0.557406
C135	C	1.191686	0.098438	0.807406
C136	C	1.441686	0.348438	1.057406
C137	C	0.335925	-0.401603	0.307435
C138	C	0.585925	-0.151603	0.557435
C139	C	0.835925	0.098397	0.807435
C140	C	1.085925	0.348397	1.057435
C141	C	0.265233	-0.401609	0.307446
C142	C	0.515233	-0.151609	0.557446
C143	C	0.765233	0.098391	0.807446
C144	C	1.015233	0.348391	1.057446
C145	C	0.265293	-0.307604	0.401740
C146	C	0.515293	-0.057604	0.651740
C147	C	0.765293	0.192396	0.901740
C148	C	1.015293	0.442396	1.151740
C149	C	0.335980	-0.307596	0.401734
C150	C	0.585980	-0.057596	0.651734
C151	C	0.835980	0.192404	0.901734
C152	C	1.085980	0.442404	1.151734
C153	C	0.371293	-0.354593	0.354577
C154	C	0.621293	-0.104593	0.604577
C155	C	0.871293	0.145407	0.854577
C156	C	1.121293	0.395407	1.104577
C157	C	0.447941	-0.354588	0.354573
C158	C	0.697941	-0.104588	0.604573
C159	C	0.947941	0.145412	0.854573
C160	C	1.197941	0.395412	1.104573
C161	C	0.509033	-0.354579	0.354574
C162	C	0.759033	-0.104579	0.604574
C163	C	1.009033	0.145421	0.854574
C164	C	1.259033	0.395421	1.104574
C165	C	1.154686	-0.354596	0.354585
C166	C	1.404686	-0.104596	0.604585
C167	C	1.654686	0.145404	0.854585
C168	C	1.904686	0.395404	1.104585
C169	C	1.229918	-0.354606	0.354593
C170	C	1.479918	-0.104606	0.604593
C171	C	1.729918	0.145394	0.854593
C172	C	1.979918	0.395394	1.104593
C173	C	0.978185	-0.354522	0.546520
C174	C	1.228185	-0.104522	0.796520
C175	C	1.478185	0.145478	1.046520
C176	C	1.728185	0.395478	1.296520
C177	C	0.978202	-0.354500	0.628319
C178	C	1.228202	-0.104500	0.878319
C179	C	1.478202	0.145500	1.128319
C180	C	1.728202	0.395500	1.378319
C181	C	0.978225	-0.162620	0.354605
C182	C	1.228225	0.087380	0.604605
C183	C	1.478225	0.337380	0.854605
C184	C	1.728225	0.587380	1.104605
C185	C	0.978260	-0.080821	0.354621
C186	C	1.228260	0.169179	0.604621
C187	C	1.478260	0.419179	0.854621
C188	C	1.728260	0.669179	1.104621
C189	C	0.978141	-0.354570	0.163361
C190	C	1.228141	-0.104570	0.413361
C191	C	1.478141	0.145430	0.663361
C192	C	1.728141	0.395430	0.913361
C193	C	0.978255	-0.354384	0.081562
C194	C	1.228255	-0.104384	0.331562
C195	C	1.478255	0.145616	0.581562
C196	C	1.728255	0.395616	0.831562
C197	C	1.021528	-0.307393	0.816528
C198	C	1.271528	-0.057393	1.066528
C199	C	1.521528	0.192607	1.316528
C200	C	1.771528	0.442607	1.566528
C201	C	1.021536	-0.307371	0.893387
C202	C	1.271536	-0.057371	1.143387
C203	C	1.521536	0.192629	1.393387
C204	C	1.771536	0.442629	1.643387
C205	C	0.934924	-0.401494	0.893348
C206	C	1.184924	-0.151494	1.143348
C207	C	1.434924	0.098506	1.393348
C208	C	1.684924	0.348506	1.643348
C209	C	0.934913	-0.401511	0.816490
C210	C	1.184913	-0.151511	1.066490
C211	C	1.434913	0.098489	1.316490
C212	C	1.684913	0.348489	1.566490
C213	C	0.978219	-0.354462	0.778082
C214	C	1.228219	-0.104462	1.028082
C215	C	1.478219	0.145538	1.278082
C216	C	1.728219	0.395538	1.528082
C217	C	0.978238	-0.354423	0.931799
C218	C	1.228238	-0.104423	1.181799
C219	C	1.478238	0.145577	1.431799
C220	C	1.728238	0.395577	1.681799
C221	C	0.978247	-0.354400	1.015132
C222	C	1.228247	-0.104400	1.265132
C223	C	1.478247	0.145600	1.515132
C224	C	1.728247	0.395600	1.765132
C225	C	0.978210	-0.354483	0.694743
C226	C	1.228210	-0.104483	0.944743
C227	C	1.478210	0.145517	1.194743
C228	C	1.728210	0.395517	1.444743
H229	H	1.056687	-0.923807	0.440079
H230	H	1.306687	-0.673807	0.690079
H231	H	1.556687	-0.423807	0.940079
H232	H	1.806687	-0.173807	1.190079
H233	H	1.056802	-0.269042	0.924686
H234	H	1.306802	-0.019042	1.174686
H235	H	1.556802	0.230958	1.424686
H236	H	1.806802	0.480958	1.674686
H237	H	0.899641	-0.439839	0.785187
H238	H	1.149641	-0.189839	1.035187
H239	H	1.399641	0.060161	1.285187
H240	H	1.649641	0.310161	1.535187
H241	H	0.364778	-0.269321	0.440126
H242	H	0.614778	-0.019321	0.690126
H243	H	0.864778	0.230679	0.940126
H244	H	1.114778	0.480679	1.190126
H245	H	0.592305	-0.269293	0.440108
H246	H	0.842305	-0.019293	0.690108
H247	H	1.092305	0.230707	0.940108
H248	H	1.342305	0.480707	1.190108
Br249	Br	1.080299	-0.243539	0.764405
Br250	Br	1.330299	0.006461	1.014405
Br251	Br	1.580299	0.256461	1.264405
Br252	Br	1.830299	0.506461	1.514405
H253	H	0.899687	-0.784587	0.269105
H254	H	1.149687	-0.534587	0.519105
H255	H	1.399687	-0.284587	0.769105
H256	H	1.649687	-0.034587	1.019105
Br257	Br	1.080129	-0.763483	0.465624
Br258	Br	1.330129	-0.513483	0.715624
Br259	Br	1.580129	-0.263483	0.965624
Br260	Br	1.830129	-0.013483	1.215624
H261	H	0.899668	-0.439801	0.924629
H262	H	1.149668	-0.189801	1.174629
H263	H	1.399668	0.060199	1.424629
H264	H	1.649668	0.310199	1.674629
H265	H	0.720538	-0.269283	0.440101
H266	H	0.970538	-0.019283	0.690101
H267	H	1.220538	0.230717	0.940101
H268	H	1.470538	0.480717	1.190101
Br269	Br	0.217366	-0.243820	0.465741
Br270	Br	0.467366	0.006180	0.715741
Br271	Br	0.717366	0.256180	0.965741
Br272	Br	0.967366	0.506180	1.215741
Br273	Br	0.876255	-0.944927	0.243539
Br274	Br	1.126255	-0.694927	0.493539
Br275	Br	1.376255	-0.444927	0.743539
Br276	Br	1.626255	-0.194927	0.993539
H277	H	0.236434	-0.439889	0.269053
H278	H	0.486434	-0.189889	0.519053
H279	H	0.736434	0.060111	0.769053
H280	H	0.986434	0.310111	1.019053
Br281	Br	0.383840	-0.465366	0.243416
Br282	Br	0.633840	-0.215366	0.493416
Br283	Br	0.883840	0.034634	0.743416
Br284	Br	1.133840	0.284634	0.993416
H285	H	0.592191	-0.439840	0.269023
H286	H	0.842191	-0.189840	0.519023
H287	H	1.092191	0.060160	0.769023
H288	H	1.342191	0.310160	1.019023
H289	H	0.720437	-0.439832	0.269011
H290	H	0.970437	-0.189832	0.519011
H291	H	1.220437	0.060168	0.769011
H292	H	1.470437	0.310168	1.019011
