data_functionalizedCrystal
_audit_creation_method	'MofGen! by Chris Wilmer'
_symmetry_space_group_name_H-M	'P1'
_symmetry_Int_Tables_number	1
_symmetry_cell_setting	triclinic
loop_
_symmetry_equiv_pos_as_xyz
  x,y,z
_cell_length_a	8.559649
_cell_length_b	9.482900
_cell_length_c	8.559649
_cell_angle_alpha	81.982926
_cell_angle_beta	69.778664
_cell_angle_gamma	97.965061
loop_
_atom_site_label
_atom_site_type_symbol
_atom_site_fract_x
_atom_site_fract_y
_atom_site_fract_z
O1	O	2.155278	0.120873	-0.083533
O2	O	1.679795	0.120878	0.000246
O3	O	1.959426	0.120874	-0.279385
O4	O	1.875646	0.120878	0.196098
O5	O	1.902602	-0.120918	-0.222383
O6	O	1.622970	-0.120913	0.057249
O7	O	2.098454	-0.120919	-0.026531
Cu8	Cu	1.855523	-0.142993	0.020564
Cu9	Cu	1.922725	0.142953	-0.046848
O10	O	1.818822	-0.120914	0.253101
C11	C	1.591073	-0.000017	0.035097
C12	C	1.411375	-0.000014	0.053995
N13	N	1.808269	-0.344113	0.067975
C14	C	1.908777	-0.416314	-0.032871
C15	C	1.869471	-0.583730	0.006587
C16	C	2.187175	-0.000020	-0.061382
C17	C	2.366876	-0.000013	-0.080283
C18	C	1.937364	-0.000019	-0.311194
C19	C	1.956265	-0.000012	-0.490895
N20	N	1.969993	0.344073	-0.094274
C21	C	1.840885	-0.000018	0.284909
C22	C	1.821986	-0.000016	0.464607
H23	H	1.466256	-0.000007	-0.209704
H24	H	1.311989	-0.000005	0.183421
O25	O	2.046006	-0.342241	-0.170890
C26	C	2.186009	-0.295336	-0.475652
C27	C	2.030483	-0.379302	-0.319508
H28	H	2.173530	-0.325291	-0.595845
H29	H	2.193216	-0.173509	-0.483007
H30	H	2.306495	-0.325122	-0.463675
H31	H	1.909912	-0.349638	-0.331376
H32	H	2.023427	-0.501108	-0.312204
O33	O	1.667448	-0.000069	-0.417046
C34	C	1.371400	0.000031	-0.360181
C35	C	1.546308	0.000055	-0.494383
H36	H	1.273419	0.000162	-0.422664
H37	H	1.331781	-0.101177	-0.255423
H38	H	1.379549	0.101202	-0.303115
H39	H	1.538296	-0.101048	-0.551581
H40	H	1.585863	0.101330	-0.599038
H41	H	2.085690	-0.000025	-0.590280
H42	H	2.085143	-0.593805	-0.209838
O43	O	1.671006	-0.418444	0.205801
C44	C	1.506578	-0.653076	0.370695
C45	C	1.662109	-0.569084	0.214572
H46	H	1.499314	-0.774884	0.377817
H47	H	1.519087	-0.623343	0.490971
H48	H	1.386109	-0.623167	0.358808
H49	H	1.782654	-0.598948	0.226293
H50	H	1.649452	-0.598824	0.094357
H51	H	1.754311	-0.645853	0.122140
