data_functionalizedCrystal
_audit_creation_method	'MofGen! by Chris Wilmer'
_symmetry_space_group_name_H-M	'P1'
_symmetry_Int_Tables_number	1
_symmetry_cell_setting	triclinic
loop_
_symmetry_equiv_pos_as_xyz
  x,y,z
_cell_length_a	14.908520
_cell_length_b	14.908792
_cell_length_c	14.908308
_cell_angle_alpha	90.212689
_cell_angle_beta	96.360765
_cell_angle_gamma	83.210459
loop_
_atom_site_label
_atom_site_type_symbol
_atom_site_fract_x
_atom_site_fract_y
_atom_site_fract_z
Zn1	Zn	-0.317697	-1.325973	-0.605069
Zn2	Zn	-0.460348	-1.325871	-0.462434
Zn3	Zn	-0.316708	-1.184347	-0.445983
Zn4	Zn	-0.477732	-1.165838	-0.604992
O5	O	-0.393121	-1.250507	-0.529619
O6	O	-0.329758	-1.452205	-0.593065
O7	O	-0.433605	-1.314800	-0.334012
O8	O	-0.189751	-1.210923	-0.460233
O9	O	-0.434563	-1.452129	-0.488271
O10	O	-0.190477	-1.314975	-0.577113
O11	O	-0.328073	-1.210823	-0.321926
O12	O	-0.344930	-1.055647	-0.460159
O13	O	-0.464192	-1.179378	-0.731242
O14	O	-0.463233	-1.042049	-0.576983
O15	O	-0.346615	-1.297028	-0.731298
O16	O	-0.589742	-1.296853	-0.488197
O17	O	-0.602514	-1.179278	-0.592934
C18	C	-0.405861	-1.016114	-0.516778
C19	C	-0.411335	-0.915836	-0.511307
C20	C	-0.473514	-0.774474	-0.448941
C21	C	-0.468374	-0.868693	-0.454082
C22	C	-0.359429	-0.868754	-0.563394
C23	C	-0.364568	-0.774535	-0.558254
C24	C	-0.421614	-0.727398	-0.501026
C25	C	-0.426757	-0.633176	-0.495892
C26	C	-0.317807	-0.633240	-0.605198
C27	C	-0.312668	-0.727459	-0.610339
C28	C	-0.629081	-1.236070	-0.542364
C29	C	-0.730023	-1.229974	-0.547850
C30	C	-0.906342	-1.341063	-0.449197
C31	C	-1.001185	-1.335338	-0.454349
C32	C	-1.014555	-1.212806	-0.563312
C33	C	-0.919711	-1.218530	-0.558159
C34	C	-0.865608	-1.282660	-0.501099
C35	C	-0.770763	-1.288379	-0.495942
C36	C	-0.784134	-1.165851	-0.604909
C37	C	-0.878978	-1.160127	-0.610061
C38	C	-0.156240	-1.265025	-0.516847
C39	C	-0.055295	-1.271211	-0.511404
C40	C	-0.407452	-1.236150	-0.764918
C41	C	-0.413560	-1.230031	-0.865188
C42	C	-0.380324	-0.485817	-0.542505
C43	C	-0.374851	-0.586094	-0.547978
C44	C	-0.302582	-1.341042	-1.053665
C45	C	-0.308317	-1.335296	-1.147878
C46	C	-0.430760	-1.212790	-1.147827
C47	C	-0.425025	-1.218536	-1.053614
C48	C	-0.360935	-1.282665	-1.006537
C49	C	-0.355205	-1.288414	-0.912323
C50	C	-0.477642	-1.165905	-0.912273
C51	C	-0.483377	-1.160159	-1.006486
C52	C	-0.378777	-1.264865	-0.295236
C53	C	-0.372404	-1.271174	-0.194962
H54	H	-0.510636	-0.907019	-0.411668
Cl55	Cl	-0.563942	-1.079544	-1.065678
Cl56	Cl	-0.545244	-0.715210	-0.377019
Cl57	Cl	-0.274637	-1.369034	-0.853141
Cl58	Cl	-1.052391	-1.408765	-0.389100
Cl59	Cl	-0.702748	-1.368995	-0.424207
H60	H	-1.058622	-1.160600	-0.609774
Cl61	Cl	-0.287718	-0.928028	-0.635327
H62	H	-0.862290	-1.393274	-0.402729
H63	H	-0.923041	-1.107917	-0.656521
H64	H	-0.473209	-0.594798	-0.449297
H65	H	-0.750958	-1.118293	-0.647168
Cl66	Cl	-0.240959	-0.786725	-0.682278
Cl67	Cl	-0.252560	-0.574053	-0.670683
H68	H	-0.250401	-1.393262	-1.015334
H69	H	-0.260798	-1.382831	-1.186246
H70	H	-0.482938	-1.160580	-1.186174
Cl71	Cl	-0.551014	-1.092521	-0.853022
