data_functionalizedCrystal
_audit_creation_method	'MofGen! by Chris Wilmer'
_symmetry_space_group_name_H-M	'P1'
_symmetry_Int_Tables_number	1
_symmetry_cell_setting	triclinic
loop_
_symmetry_equiv_pos_as_xyz
  x,y,z
_cell_length_a	12.759401
_cell_length_b	12.759394
_cell_length_c	12.759393
_cell_angle_alpha	89.967706
_cell_angle_beta	89.981504
_cell_angle_gamma	90.014998
loop_
_atom_site_label
_atom_site_type_symbol
_atom_site_fract_x
_atom_site_fract_y
_atom_site_fract_z
Zn1	Zn	1.606254	-0.418200	-0.593976
Zn2	Zn	1.606148	-0.593919	-0.418294
Zn3	Zn	1.430556	-0.418255	-0.418315
Zn4	Zn	1.430545	-0.593838	-0.593935
O5	O	1.518376	-0.506053	-0.506130
O6	O	1.753261	-0.441520	-0.570679
O7	O	1.582816	-0.570674	-0.271276
O8	O	1.453912	-0.271227	-0.441643
O9	O	1.753183	-0.570620	-0.441607
O10	O	1.582997	-0.271186	-0.570700
O11	O	1.453810	-0.441614	-0.271291
O12	O	1.283534	-0.441536	-0.441604
O13	O	1.453892	-0.570482	-0.740962
O14	O	1.283525	-0.570536	-0.570631
O15	O	1.582986	-0.441442	-0.740992
O16	O	1.582805	-0.740929	-0.441567
O17	O	1.453789	-0.740870	-0.570610
C18	C	1.245409	-0.506034	-0.506116
C19	C	1.128632	-0.506051	-0.506135
C20	C	1.073793	-0.573329	-0.573208
C21	C	0.964069	-0.573342	-0.573219
C22	C	0.964032	-0.438796	-0.439075
C23	C	1.073755	-0.438779	-0.439070
C24	C	1.073813	-0.651011	-0.650652
C25	C	0.964089	-0.651024	-0.650664
C26	C	1.518313	-0.779021	-0.506105
C27	C	1.518382	-0.895797	-0.506129
C28	C	1.652826	-0.895806	-0.371857
C29	C	1.720076	-0.950671	-0.304734
C30	C	1.720138	-1.060392	-0.304762
C31	C	1.652945	-1.115251	-0.371924
C32	C	1.585695	-1.060386	-0.439047
C33	C	1.585638	-0.950662	-0.439009
C34	C	1.451257	-1.060378	-0.573323
C35	C	1.451189	-0.950656	-0.573291
C36	C	1.384064	-1.115237	-0.640484
C37	C	1.316808	-1.060372	-0.707604
C38	C	1.316748	-0.950644	-0.707572
C39	C	1.383939	-0.895791	-0.640414
C40	C	1.792409	-0.506073	-0.506145
C41	C	1.909186	-0.506082	-0.506151
C42	C	1.518449	-0.505947	-0.780164
C43	C	1.518481	-0.505902	-0.896940
C44	C	1.518468	-0.232020	-0.506179
C45	C	1.518507	-0.115243	-0.506199
C46	C	1.585709	-0.438704	-0.951820
C47	C	1.585734	-0.438666	-1.061544
C48	C	1.451300	-0.573033	-1.061500
C49	C	1.451270	-0.573065	-0.951778
C50	C	1.663327	-0.361132	-0.951846
C51	C	1.663352	-0.361094	-1.061570
C52	C	1.518363	-0.506083	-0.233163
C53	C	1.518535	-0.505832	-0.116387
H54	H	0.934293	-0.732374	-0.628730
O55	O	1.109561	-0.625188	-0.747717
C56	C	1.220062	-0.625201	-0.747522
H57	H	1.249681	-0.677057	-0.681053
H58	H	1.249999	-0.656773	-0.825547
H59	H	1.249862	-0.541786	-0.735807
O60	O	1.652592	-0.789223	-0.371731
C61	C	1.551881	-0.752676	-0.344692
H62	H	1.508504	-0.815985	-0.298878
H63	H	1.559379	-0.679309	-0.294297
H64	H	1.506325	-0.733182	-0.419035
H65	H	1.774903	-1.105063	-0.250110
H66	H	1.383890	-0.806450	-0.640375
O67	O	1.653110	-1.221834	-0.371794
C68	C	1.726899	-1.258496	-0.298174
H69	H	1.741605	-1.195309	-0.236780
H70	H	1.695261	-1.331965	-0.258307
H71	H	1.803499	-1.277859	-0.339902
H72	H	1.107827	-0.728263	-0.621367
O73	O	0.923573	-0.616542	-0.743025
C74	C	0.957841	-0.682129	-0.825057
H75	H	0.980357	-0.761981	-0.791878
H76	H	0.892043	-0.692119	-0.884645
H77	H	1.028831	-0.645324	-0.864981
H78	H	1.774786	-0.905995	-0.250053
O79	O	0.910885	-0.373357	-0.373894
C80	C	0.982820	-0.313993	-0.314670
H81	H	1.061052	-0.310397	-0.357704
H82	H	0.951125	-0.231206	-0.303610
H83	H	0.994452	-0.352371	-0.234810
H84	H	1.384124	-1.204578	-0.640507
H85	H	1.396523	-0.627780	-0.907099
H86	H	1.262110	-1.105047	-0.762287
O87	O	1.251476	-0.897464	-0.772926
C88	C	1.274431	-0.924149	-0.877662
H89	H	1.314863	-1.003779	-0.879890
H90	H	1.198592	-0.927926	-0.924721
H91	H	1.328398	-0.862321	-0.913068
H92	H	1.740598	-0.390300	-0.917810
H93	H	1.396577	-0.627712	-1.106161
H94	H	1.634238	-0.283785	-1.095619
H95	H	1.744722	-0.382886	-1.091348
O96	O	1.127139	-0.373563	-0.373869
C97	C	1.190556	-0.433278	-0.305877
H98	H	1.207004	-0.512942	-0.342781
H99	H	1.267710	-0.390449	-0.291872
H100	H	1.148238	-0.444728	-0.228001
O101	O	1.637166	-0.264102	-0.916390
C102	C	1.536553	-0.237265	-0.953331
H103	H	1.491151	-0.311706	-0.972806
H104	H	1.492906	-0.191456	-0.890270
H105	H	1.544241	-0.186933	-1.026785
