data_functionalizedCrystal
_audit_creation_method	'MofGen! by Chris Wilmer'
_symmetry_space_group_name_H-M	'P1'
_symmetry_Int_Tables_number	1
_symmetry_cell_setting	triclinic
loop_
_symmetry_equiv_pos_as_xyz
  x,y,z
_cell_length_a	12.759401
_cell_length_b	18.050589
_cell_length_c	12.759393
_cell_angle_alpha	89.969379
_cell_angle_beta	89.981504
_cell_angle_gamma	90.028382
loop_
_atom_site_label
_atom_site_type_symbol
_atom_site_fract_x
_atom_site_fract_y
_atom_site_fract_z
Zn1	Zn	1.606157	-0.295612	-0.593988
Zn2	Zn	2.106157	0.204388	-0.093988
Zn3	Zn	1.606010	-0.419823	-0.418311
Zn4	Zn	2.106010	0.080177	0.081689
Zn5	Zn	1.430459	-0.295651	-0.418328
Zn6	Zn	1.930459	0.204349	0.081672
Zn7	Zn	1.430406	-0.419766	-0.593953
Zn8	Zn	1.930406	0.080234	-0.093953
O9	O	1.518258	-0.357713	-0.506145
O10	O	2.018258	0.142287	-0.006145
O11	O	1.753158	-0.312097	-0.570692
O12	O	2.253158	0.187903	-0.070692
O13	O	1.582683	-0.403391	-0.271292
O14	O	2.082683	0.096609	0.228708
O15	O	1.453849	-0.191722	-0.441651
O16	O	1.953849	0.308278	0.058349
O17	O	1.753050	-0.403354	-0.441623
O18	O	2.253050	0.096646	0.058377
O19	O	1.582934	-0.191693	-0.570708
O20	O	2.082934	0.308307	-0.070708
O21	O	1.453706	-0.312163	-0.271304
O22	O	1.953706	0.187837	0.228696
O23	O	1.283431	-0.312108	-0.441617
O24	O	1.783431	0.187892	0.058383
O25	O	1.453759	-0.403256	-0.740979
O26	O	1.953759	0.096744	-0.240979
O27	O	1.283392	-0.403294	-0.570648
O28	O	1.783392	0.096706	-0.070648
O29	O	1.582882	-0.312041	-0.741005
O30	O	2.082882	0.187959	-0.241005
O31	O	1.582632	-0.523740	-0.441589
O32	O	2.082632	-0.023740	0.058411
O33	O	1.453616	-0.523698	-0.570632
O34	O	1.953616	-0.023698	-0.070632
C35	C	1.245290	-0.357699	-0.506131
C36	C	1.745290	0.142301	-0.006131
C37	C	1.128514	-0.357711	-0.506149
C38	C	1.628514	0.142289	-0.006149
C39	C	1.073659	-0.405268	-0.573225
C40	C	1.573659	0.094732	-0.073225
C41	C	0.963935	-0.405277	-0.573236
C42	C	1.463935	0.094723	-0.073236
C43	C	0.963930	-0.310171	-0.439088
C44	C	1.463930	0.189829	0.060912
C45	C	1.073652	-0.310159	-0.439083
C46	C	1.573652	0.189841	0.060917
C47	C	1.073661	-0.460179	-0.650671
C48	C	1.573661	0.039821	-0.150671
C49	C	0.963937	-0.460188	-0.650683
C50	C	1.463937	0.039812	-0.150683
C51	C	1.518131	-0.550665	-0.506127
C52	C	2.018131	-0.050665	-0.006127
C53	C	1.518173	-0.633211	-0.506155
C54	C	2.018173	-0.133211	-0.006155
C55	C	1.448083	-0.832666	-0.576304
C56	C	1.948083	-0.332666	-0.076304
C57	C	1.422469	-0.882114	-0.480436
C58	C	1.922469	-0.382114	0.019564
C59	C	1.518276	-0.784341	-0.506169
C60	C	2.018276	-0.284341	-0.006169
C61	C	1.543942	-0.881974	-0.602048
C62	C	2.043942	-0.381974	-0.102048
C63	C	1.518374	-0.930326	-0.506191
C64	C	2.018374	-0.430326	-0.006191
C65	C	1.492611	-0.832703	-0.410250
C66	C	1.992611	-0.332703	0.089750
C67	C	1.614129	-0.832558	-0.531927
C68	C	2.114129	-0.332558	-0.031927
C69	C	1.588551	-0.881985	-0.435992
C70	C	2.088551	-0.381985	0.064008
C71	C	1.518217	-0.700243	-0.506158
C72	C	2.018217	-0.200243	-0.006158
C73	C	1.518433	-1.014423	-0.506191
C74	C	2.018433	-0.514423	-0.006191
C75	C	1.792291	-0.357727	-0.506160
C76	C	2.292291	0.142273	-0.006160
C77	C	1.909068	-0.357733	-0.506166
C78	C	2.409068	0.142267	-0.006166
C79	C	1.518331	-0.357638	-0.780178
C80	C	2.018331	0.142362	-0.280178
C81	C	1.518363	-0.357606	-0.896955
C82	C	2.018363	0.142394	-0.396955
C83	C	1.518414	-0.164007	-0.506185
C84	C	2.018414	0.335993	-0.006185
C85	C	1.518480	-0.081462	-0.506203
C86	C	2.018480	0.418538	-0.006203
C87	C	1.585606	-0.310106	-0.951832
C88	C	2.085606	0.189894	-0.451832
C89	C	1.585631	-0.310079	-1.061557
C90	C	2.085631	0.189921	-0.561557
C91	C	1.451166	-0.405059	-1.061516
C92	C	1.951166	0.094941	-0.561516
C93	C	1.451136	-0.405081	-0.951794
C94	C	1.951136	0.094919	-0.451794
C95	C	1.663242	-0.255273	-0.951857
C96	C	2.163242	0.244727	-0.451857
C97	C	1.663267	-0.255246	-1.061581
C98	C	2.163267	0.244754	-0.561581
C99	C	1.518245	-0.357734	-0.233178
C100	C	2.018245	0.142266	0.266822
C101	C	1.518417	-0.357557	-0.116401
C102	C	2.018417	0.142443	0.383599
H103	H	1.107657	-0.514786	-0.621388
H104	H	1.607657	-0.014786	-0.121388
H105	H	1.396430	-0.443710	-1.106180
H106	H	1.896430	0.056290	-0.606180
H107	H	1.634172	-0.200598	-1.095627
H108	H	2.134172	0.299402	-0.595627
H109	H	1.647952	-0.903503	-0.376622
H110	H	2.147952	-0.403503	0.123378
H111	H	1.565611	-0.903618	-0.683124
H112	H	2.065611	-0.403618	-0.183124
C113	C	1.377149	-0.457317	-0.891432
C114	C	1.877149	0.042683	-0.391432
H115	H	1.337121	-0.485589	-0.939810
H116	H	1.837121	0.014411	-0.439810
H117	H	1.331393	-0.428903	-0.848643
H118	H	1.831393	0.071097	-0.348643
H119	H	1.417289	-0.489696	-0.848616
H120	H	1.917289	0.010304	-0.348616
H121	H	1.341455	-0.903898	-0.458669
H122	H	1.841455	-0.403898	0.041331
H123	H	1.695124	-0.810777	-0.553739
H124	H	2.195124	-0.310777	-0.053739
C125	C	0.918004	-0.432459	-0.755171
C126	C	1.418004	0.067541	-0.255171
H127	H	0.843642	-0.433406	-0.751611
H128	H	1.343642	0.066594	-0.251611
H129	H	0.940999	-0.463652	-0.810523
H130	H	1.440999	0.036348	-0.310523
H131	H	0.941022	-0.383199	-0.767828
H132	H	1.441022	0.116801	-0.267828
C133	C	1.113944	-0.439454	-0.760636
C134	C	1.613944	0.060546	-0.260636
H135	H	1.056054	-0.430931	-0.805863
H136	H	1.556054	0.069069	-0.305863
H137	H	1.155297	-0.478835	-0.787573
H138	H	1.655297	0.021165	-0.287573
H139	H	1.155324	-0.395795	-0.756310
H140	H	1.655324	0.104205	-0.256310
H141	H	1.641493	-0.197759	-0.922099
H142	H	2.141493	0.302241	-0.422099
H143	H	0.934122	-0.517692	-0.628752
H144	H	1.434122	-0.017692	-0.128752
H145	H	1.388636	-0.811010	-0.635531
H146	H	1.888636	-0.311010	-0.135531
C147	C	0.903579	-0.257870	-0.365317
C148	C	1.403579	0.242130	0.134683
H149	H	0.830376	-0.264690	-0.374923
H150	H	1.330376	0.235310	0.125077
H151	H	0.921594	-0.207984	-0.380814
H152	H	1.421594	0.292016	0.119186
H153	H	0.921526	-0.268682	-0.294695
H154	H	1.421526	0.231318	0.205305
H155	H	1.744633	-0.270650	-1.091359
H156	H	2.244633	0.229350	-0.591359
H157	H	1.118311	-0.271429	-0.384470
H158	H	1.618311	0.228571	0.115530
H159	H	1.740507	-0.275891	-0.917821
H160	H	2.240507	0.224109	-0.417821
H161	H	1.470848	-0.811149	-0.329152
H162	H	1.970848	-0.311149	0.170848
