data_functionalizedCrystal
_audit_creation_method	'MofGen! by Chris Wilmer'
_symmetry_space_group_name_H-M	'P1'
_symmetry_Int_Tables_number	1
_symmetry_cell_setting	triclinic
loop_
_symmetry_equiv_pos_as_xyz
  x,y,z
_cell_length_a	6.817900
_cell_length_b	19.453067
_cell_length_c	19.453046
_cell_angle_alpha	96.319331
_cell_angle_beta	101.708137
_cell_angle_gamma	101.708464
loop_
_atom_site_label
_atom_site_type_symbol
_atom_site_fract_x
_atom_site_fract_y
_atom_site_fract_z
V1	V	-3.997989	-0.097929	-0.219328
V2	V	-3.497989	0.402071	0.280672
O3	O	-3.995096	0.003937	-0.214819
O4	O	-3.495096	0.503937	0.285181
O5	O	-3.941004	-0.193437	-0.218149
O6	O	-3.441004	0.306563	0.281851
O7	O	-3.941009	-0.096759	-0.314838
O8	O	-3.441009	0.403241	0.185162
O9	O	-3.995090	-0.093409	-0.117460
O10	O	-3.495090	0.406591	0.382540
V11	V	-4.483842	-0.085704	-0.207105
V12	V	-3.983842	0.414296	0.292895
O13	O	-4.254138	-0.124743	-0.246140
O14	O	-3.754138	0.375257	0.253860
O15	O	-4.677890	-0.058890	-0.180292
O16	O	-4.177890	0.441110	0.319708
O17	O	-4.317621	0.009804	-0.208284
O18	O	-3.817621	0.509804	0.291716
O19	O	-4.604132	-0.187571	-0.211613
O20	O	-4.104132	0.312429	0.288387
O21	O	-4.604138	-0.090224	-0.308972
O22	O	-4.104138	0.409776	0.191028
O23	O	-4.317615	-0.086874	-0.111595
O24	O	-3.817615	0.413126	0.388405
C25	C	-3.784194	-0.216709	-0.214771
C26	C	-3.284194	0.283291	0.285229
C27	C	-3.818831	-0.294791	-0.214444
C28	C	-3.318831	0.205209	0.285556
C29	C	-3.784200	-0.093387	-0.338107
C30	C	-3.284200	0.406613	0.161893
C31	C	-3.818839	-0.093063	-0.416189
C32	C	-3.318839	0.406937	0.083811
C33	C	-4.034528	-0.841962	-0.147827
C34	C	-3.534528	-0.341962	0.352173
C35	C	-4.001964	-0.768594	-0.148127
C36	C	-3.501964	-0.268594	0.351873
C37	C	-4.017290	-0.742116	-0.212597
C38	C	-3.517290	-0.242116	0.287403
C39	C	-4.065132	-0.789011	-0.276770
C40	C	-3.565132	-0.289011	0.223230
C41	C	-4.097674	-0.862376	-0.276467
C42	C	-3.597674	-0.362376	0.223533
N43	N	-4.103237	-0.636832	-0.263559
N44	N	-3.603237	-0.136832	0.236441
N45	N	-4.072326	-0.567137	-0.263842
N46	N	-3.572326	-0.067137	0.236158
C47	C	-3.919241	-0.521071	-0.213514
C48	C	-3.419241	-0.021071	0.286486
N49	N	-3.798254	-0.547332	-0.162881
N50	N	-3.298254	-0.047332	0.337119
N51	N	-3.829176	-0.617032	-0.162595
N52	N	-3.329176	-0.117032	0.337405
C53	C	-3.982006	-0.662565	-0.212933
C54	C	-3.482006	-0.162565	0.287067
C55	C	-3.836082	-0.394632	-0.149670
C56	C	-3.336082	0.105368	0.350330
C57	C	-3.803506	-0.321264	-0.149973
C58	C	-3.303506	0.178736	0.350027
C59	C	-3.866696	-0.341683	-0.278618
C60	C	-3.366696	0.158317	0.221382
C61	C	-3.899249	-0.415049	-0.278313
C62	C	-3.399249	0.084951	0.221687
C63	C	-3.883949	-0.441520	-0.213837
C64	C	-3.383949	0.058480	0.286163
C65	C	-4.099589	-0.155080	-0.983811
C66	C	-3.599589	0.344920	-0.483811
C67	C	-4.067030	-0.155389	-0.910445
C68	C	-3.567030	0.344611	-0.410445
C69	C	-4.017287	-0.091185	-0.863510
C70	C	-3.517287	0.408815	-0.363510
C71	C	-4.000053	-0.026666	-0.889945
C72	C	-3.500053	0.473334	-0.389945
C73	C	-4.032593	-0.026358	-0.963309
C74	C	-3.532593	0.473642	-0.463309
N75	N	-4.054593	-0.045960	-0.742933
N76	N	-3.554593	0.454040	-0.242933
N77	N	-4.023688	-0.046257	-0.673240
N78	N	-3.523688	0.453743	-0.173240
C79	C	-3.919240	-0.092110	-0.642466
C80	C	-3.419240	0.407890	-0.142466
N81	N	-3.846894	-0.137666	-0.684020
N82	N	-3.346894	0.362334	-0.184020
N83	N	-3.877812	-0.137371	-0.753719
N84	N	-3.377812	0.362629	-0.253719
C85	C	-3.981998	-0.091512	-0.783957
C86	C	-3.481998	0.408488	-0.283957
C87	C	-3.901156	-0.156961	-0.536488
C88	C	-3.401156	0.343039	-0.036488
C89	C	-3.868582	-0.157267	-0.463120
C90	C	-3.368582	0.342733	0.036880
C91	C	-3.801626	-0.028543	-0.442621
C92	C	-3.301626	0.471457	0.057379
C93	C	-3.834180	-0.028237	-0.515987
C94	C	-3.334180	0.471763	-0.015987
C95	C	-3.883954	-0.092449	-0.562917
C96	C	-3.383954	0.407551	-0.062917
C97	C	-4.137773	0.033073	-0.211659
C98	C	-3.637773	0.533073	0.288341
C99	C	-4.082373	0.111153	-0.211991
C100	C	-3.582373	0.611153	0.288009
C101	C	-4.137767	-0.090249	-0.088322
C102	C	-3.637767	0.409751	0.411678
C103	C	-4.082367	-0.090569	-0.010239
C104	C	-3.582367	0.409431	0.489761
H105	H	-4.022061	-0.863508	-0.095325
H106	H	-3.522061	-0.363508	0.404675
H107	H	-4.136633	-0.900551	-0.328719
H108	H	-3.636633	-0.400551	0.171281
C109	C	-3.770331	-0.367082	-0.022541
C110	C	-3.270331	0.132918	0.477459
C111	C	-3.819236	-0.423734	-0.078800
C112	C	-3.319236	0.076266	0.421200
H113	H	-3.759918	-0.385049	0.021210
H114	H	-3.259918	0.114951	0.521210
H115	H	-3.875249	-0.341256	-0.028008
H116	H	-3.375249	0.158744	0.471992
H117	H	-3.642636	-0.336529	-0.022667
H118	H	-3.142636	0.163471	0.477333
H119	H	-3.946939	-0.454285	-0.078678
H120	H	-3.446939	0.045715	0.421322
H121	H	-3.714310	-0.449572	-0.073332
H122	H	-3.214310	0.050428	0.426668
C123	C	-4.201487	0.045345	-1.037305
C124	C	-3.701487	0.545345	-0.537305
C125	C	-4.013681	0.044556	-0.992365
C126	C	-3.513681	0.544556	-0.492365
H127	H	-4.189806	0.089123	-1.055246
H128	H	-3.689806	0.589123	-0.555246
H129	H	-4.306245	0.040306	-1.011402
H130	H	-3.806245	0.540306	-0.511402
H131	H	-4.235756	0.007146	-1.075752
H132	H	-3.735756	0.507146	-0.575752
H133	H	-3.979418	0.082752	-0.953915
H134	H	-3.479418	0.582752	-0.453915
H135	H	-3.908890	0.049602	-1.018268
H136	H	-3.408890	0.549602	-0.518268
H137	H	-3.879164	-0.320125	-0.331111
H138	H	-3.379164	0.179875	0.168889
H139	H	-3.761103	0.023734	-0.404406
H140	H	-3.261103	0.523734	0.095594
C141	C	-3.764749	0.098966	-0.488354
C142	C	-3.264749	0.598966	0.011646
C143	C	-3.815279	0.042675	-0.545041
C144	C	-3.315279	0.542675	-0.045041
H145	H	-3.753088	0.142745	-0.506292
H146	H	-3.253088	0.642745	-0.006292
H147	H	-3.637364	0.098418	-0.457872
H148	H	-3.137364	0.598418	0.042128
H149	H	-3.869552	0.093914	-0.462461
H150	H	-3.369552	0.593914	0.037539
H151	H	-3.710469	0.047725	-0.570931
H152	H	-3.210469	0.547725	-0.070931
H153	H	-3.942682	0.043224	-0.575535
H154	H	-3.442682	0.543224	-0.075535
C155	C	-3.942876	-0.755775	-0.020939
C156	C	-3.442876	-0.255775	0.479061
C157	C	-3.949417	-0.717047	-0.077594
C158	C	-3.449417	-0.217047	0.422406
H159	H	-3.910460	-0.723952	0.022603
H160	H	-3.410460	-0.223952	0.522603
H161	H	-3.840554	-0.782439	-0.020805
H162	H	-3.340554	-0.282439	0.479195
H163	H	-4.073196	-0.787190	-0.026189
H164	H	-3.573196	-0.287190	0.473811
H165	H	-3.819091	-0.685636	-0.072347
H166	H	-3.319091	-0.185636	0.427653
H167	H	-4.051744	-0.690371	-0.077727
H168	H	-3.551744	-0.190371	0.422273
C169	C	-3.938310	-0.284478	-0.490762
C170	C	-3.438310	0.215522	0.009238
C171	C	-3.887671	-0.228186	-0.434072
C172	C	-3.387671	0.271814	0.065928
H173	H	-3.950152	-0.328262	-0.472828
H174	H	-3.450152	0.171738	0.027172
H175	H	-3.833492	-0.279472	-0.516640
H176	H	-3.333492	0.220528	-0.016640
H177	H	-4.065651	-0.283884	-0.521258
H178	H	-3.565651	0.216116	-0.021258
H179	H	-3.760322	-0.228778	-0.403578
H180	H	-3.260322	0.271222	0.096422
H181	H	-3.992496	-0.233194	-0.408183
H182	H	-3.492496	0.266806	0.091817
H183	H	-3.941667	-0.209245	-0.574700
H184	H	-3.441667	0.290755	-0.074700
H185	H	-4.077603	-0.767448	-0.329262
H186	H	-3.577603	-0.267448	0.170738
C187	C	-3.901711	-0.230397	-0.079634
C188	C	-3.401711	0.269603	0.420366
C189	C	-3.750907	-0.269723	-0.079438
C190	C	-3.250907	0.230277	0.420562
H191	H	-3.869226	-0.198575	-0.036089
H192	H	-3.369226	0.301425	0.463911
H193	H	-4.032009	-0.261804	-0.084866
H194	H	-3.532009	0.238196	0.415134
H195	H	-3.906141	-0.204132	-0.118076
H196	H	-3.406141	0.295868	0.381924
H197	H	-3.746486	-0.295993	-0.040999
H198	H	-3.246486	0.204007	0.459001
H199	H	-3.620573	-0.238312	-0.074199
H200	H	-3.120573	0.261688	0.425801
C201	C	-4.179223	-0.211769	-1.105373
C202	C	-3.679223	0.288231	-0.605373
C203	C	-4.154289	-0.225659	-1.035396
C204	C	-3.654289	0.274341	-0.535396
H205	H	-4.213004	-0.255343	-1.137220
H206	H	-3.713004	0.244657	-0.637220
H207	H	-4.054712	-0.183034	-1.110887
H208	H	-3.554712	0.316966	-0.610887
H209	H	-4.286891	-0.187520	-1.115474
H210	H	-3.786891	0.312480	-0.615474
H211	H	-4.046610	-0.249904	-1.025294
H212	H	-3.546610	0.250096	-0.525294
H213	H	-4.278816	-0.254406	-1.029880
H214	H	-3.778816	0.245594	-0.529880
C215	C	-4.240341	-0.233861	-0.843282
C216	C	-3.740341	0.266139	-0.343282
C217	C	-4.085887	-0.226342	-0.881459
C218	C	-3.585887	0.273658	-0.381459
H219	H	-4.251949	-0.277674	-0.825408
H220	H	-3.751949	0.222326	-0.325408
H221	H	-4.367736	-0.233302	-0.873752
H222	H	-3.867736	0.266698	-0.373752
H223	H	-4.206065	-0.195711	-0.804787
H224	H	-3.706065	0.304289	-0.304787
H225	H	-4.120172	-0.264490	-0.919958
H226	H	-3.620172	0.235510	-0.419958
H227	H	-3.958465	-0.226908	-0.850988
H228	H	-3.458465	0.273092	-0.350988
H229	H	-3.938221	-0.453225	-0.330563
H230	H	-3.438221	0.046775	0.169437
H231	H	-3.959543	0.025609	-0.851725
H232	H	-3.459543	0.525609	-0.351725
