data_functionalizedCrystal
_audit_creation_method	'MofGen! by Chris Wilmer'
_symmetry_space_group_name_H-M	'P1'
_symmetry_Int_Tables_number	1
_symmetry_cell_setting	triclinic
loop_
_symmetry_equiv_pos_as_xyz
  x,y,z
_cell_length_a	11.169417
_cell_length_b	12.759400
_cell_length_c	11.169409
_cell_angle_alpha	89.967324
_cell_angle_beta	89.980487
_cell_angle_gamma	90.014415
loop_
_atom_site_label
_atom_site_type_symbol
_atom_site_fract_x
_atom_site_fract_y
_atom_site_fract_z
Zn1	Zn	1.834939	-0.418146	-0.678530
Zn2	Zn	1.834818	-0.593872	-0.477846
Zn3	Zn	1.634225	-0.418211	-0.477865
Zn4	Zn	1.634222	-0.593788	-0.678492
O5	O	1.734551	-0.506004	-0.578183
O6	O	2.002872	-0.441465	-0.651917
O7	O	1.808160	-0.570633	-0.309898
O8	O	1.660901	-0.271182	-0.504508
O9	O	2.002784	-0.570570	-0.504475
O10	O	1.808365	-0.271134	-0.651936
O11	O	1.660784	-0.441576	-0.309913
O12	O	1.466275	-0.441494	-0.504471
O13	O	1.660897	-0.570426	-0.846447
O14	O	1.466273	-0.570489	-0.651870
O15	O	1.808363	-0.441383	-0.846475
O16	O	1.808157	-0.740882	-0.504437
O17	O	1.660780	-0.740820	-0.651851
C18	C	1.422726	-0.505990	-0.578169
C19	C	1.289326	-0.506009	-0.578192
C20	C	1.734488	-0.778972	-0.578164
C21	C	1.734571	-0.895748	-0.578196
C22	C	1.811317	-0.950506	-0.655025
C23	C	1.811373	-1.060230	-0.655054
C24	C	1.657933	-1.060429	-0.501416
C25	C	1.657872	-0.950707	-0.501394
C26	C	1.888016	-0.895547	-0.731827
C27	C	1.964769	-0.950304	-0.808661
C28	C	1.964825	-1.060028	-0.808690
C29	C	1.888127	-1.114995	-0.731885
C30	C	2.047593	-0.506019	-0.578198
C31	C	2.180993	-0.506026	-0.578204
C32	C	1.734643	-0.505888	-0.891226
C33	C	1.734682	-0.505838	-1.024626
C34	C	1.734647	-0.231971	-0.578228
C35	C	1.734688	-0.115194	-0.578248
C36	C	1.734528	-0.506045	-0.266358
C37	C	1.734721	-0.505798	-0.132959
H38	H	1.887981	-0.806204	-0.731809
H39	H	2.027206	-0.905545	-0.871199
H40	H	2.027311	-1.104609	-0.871261
H41	H	1.888165	-1.204339	-0.731929
H42	H	1.595491	-1.105192	-0.438885
N43	N	1.575093	-0.891638	-0.418537
H44	H	1.526520	-0.943102	-0.369881
H45	H	1.623948	-0.846115	-0.363028
