data_functionalizedCrystal
_audit_creation_method	'MofGen! by Chris Wilmer'
_symmetry_space_group_name_H-M	'P1'
_symmetry_Int_Tables_number	1
_symmetry_cell_setting	triclinic
loop_
_symmetry_equiv_pos_as_xyz
  x,y,z
_cell_length_a	14.971486
_cell_length_b	14.971486
_cell_length_c	13.448316
_cell_angle_alpha	89.998144
_cell_angle_beta	89.999879
_cell_angle_gamma	96.385872
loop_
_atom_site_label
_atom_site_type_symbol
_atom_site_fract_x
_atom_site_fract_y
_atom_site_fract_z
O1	O	-1.186946	0.116561	0.082565
O2	O	-0.926545	0.130520	0.082591
O3	O	-1.063725	-0.006660	0.082584
O4	O	-1.049766	0.253741	0.082571
O5	O	-1.063711	-0.006661	-0.082799
O6	O	-0.926532	0.130519	-0.082793
O7	O	-1.186932	0.116560	-0.082819
Cu8	Cu	-1.056731	0.123539	-0.097907
Cu9	Cu	-1.056747	0.123541	0.097679
O10	O	-1.049752	0.253739	-0.082813
C11	C	-0.893214	0.129895	-0.000098
C12	C	-0.793917	0.128024	-0.000087
C13	C	-1.050384	0.287065	-0.000123
C14	C	-1.052254	0.386362	-0.000128
C15	C	-1.063094	-0.039985	-0.000103
C16	C	-1.061223	-0.139282	-0.000091
C17	C	-1.220263	0.117185	-0.000128
C18	C	-1.319561	0.119056	-0.000132
C19	C	-0.736691	0.208614	-0.000093
C20	C	-0.643392	0.206850	-0.000108
C21	C	-0.607320	0.124497	-0.000110
C22	C	-0.664552	0.043902	-0.000107
C23	C	-0.757850	0.045666	-0.000100
C24	C	-0.470090	0.040231	-0.000121
C25	C	-0.376786	0.038466	-0.000127
C26	C	-0.355632	0.201415	-0.000129
C27	C	-0.448930	0.203179	-0.000121
C28	C	-0.506156	0.122584	-0.000117
C29	C	-0.971665	0.443587	-0.000119
C30	C	-0.973428	0.536887	-0.000106
C31	C	-1.055781	0.572959	-0.000109
C32	C	-1.136377	0.515726	-0.000115
C33	C	-1.134613	0.422429	-0.000121
C34	C	-1.140048	0.710189	-0.000104
C35	C	-1.141812	0.803493	-0.000100
C36	C	-0.978863	0.824647	-0.000090
C37	C	-0.977099	0.731349	-0.000096
C38	C	-1.057695	0.674123	-0.000103
N39	N	-1.056726	0.123538	-0.235471
C40	C	-1.111028	0.177879	-0.287516
C41	C	-1.111039	0.177875	-0.391619
C42	C	-1.056743	0.123534	-0.443676
C43	C	-1.002438	0.069187	-0.391624
C44	C	-1.002432	0.069186	-0.287522
C45	C	-1.002452	0.069193	-0.608604
C46	C	-1.002456	0.069194	-0.712712
C47	C	-1.111059	0.177881	-0.712700
C48	C	-1.111053	0.177881	-0.608599
C49	C	-1.056747	0.123535	-0.556554
N50	N	-1.056759	0.123535	0.235243
H51	H	-0.596802	0.272474	-0.000111
H52	H	-0.910040	0.701982	-0.000098
H53	H	-1.155237	0.222135	-0.245139
N54	N	-0.487827	0.292007	-0.000118
H55	H	-0.526070	0.296371	-0.061423
H56	H	-0.526016	0.296317	0.061234
N57	N	-0.531815	-0.046695	-0.000123
H58	H	-0.494808	-0.099134	-0.000122
H59	H	-0.570982	-0.049511	0.061191
H60	H	-0.958214	0.024937	-0.245149
H61	H	-0.958242	0.024946	-0.755094
N62	N	-1.169652	0.236442	-0.447754
H63	H	-1.204057	0.270856	-0.398980
H64	H	-1.130741	0.280113	-0.490979
H65	H	-0.958233	0.024937	-0.434017
H66	H	-1.205678	0.663597	-0.000103
H67	H	-0.347419	-0.028593	-0.000130
N68	N	-1.221533	0.360702	-0.000126
H69	H	-1.273972	0.397709	-0.000128
H70	H	-1.224348	0.321535	-0.061437
N71	N	-0.882836	0.404692	-0.000125
H72	H	-0.847529	0.425548	0.061187
H73	H	-0.894015	0.336911	-0.000172
N74	N	-1.225201	0.554631	-0.000127
H75	H	-1.275986	0.504219	-0.000133
H76	H	-1.229489	0.592877	0.061182
N77	N	-0.819569	-0.041259	-0.000091
H78	H	-0.858749	-0.044162	0.061218
H79	H	-0.858692	-0.044107	-0.061439
H80	H	-1.155262	0.222134	-0.566217
N81	N	-0.886507	0.598609	-0.000095
H82	H	-0.834070	0.561600	-0.000100
H83	H	-0.883688	0.637787	-0.061400
H84	H	-0.913239	0.871245	-0.000087
N85	N	-1.230633	0.842403	-0.000102
H86	H	-1.281423	0.791996	-0.000100
H87	H	-1.234909	0.880650	0.061209
H88	H	-0.635175	-0.023152	-0.000123
H89	H	-0.309033	0.267039	-0.000137
N90	N	-1.169653	0.236460	-0.768854
H91	H	-1.234705	0.218908	-0.750724
H92	H	-1.152021	0.301501	-0.750748
N93	N	-0.775595	0.297438	-0.000079
H94	H	-0.725182	0.348223	-0.000086
H95	H	-0.813849	0.301722	-0.061384
N96	N	-0.943885	0.010573	-0.552467
H97	H	-0.909487	-0.023850	-0.601239
H98	H	-0.900199	0.049502	-0.509278
