data_functionalizedCrystal
_audit_creation_method	'MofGen! by Chris Wilmer'
_symmetry_space_group_name_H-M	'P1'
_symmetry_Int_Tables_number	1
_symmetry_cell_setting	triclinic
loop_
_symmetry_equiv_pos_as_xyz
  x,y,z
_cell_length_a	10.654545
_cell_length_b	10.723023
_cell_length_c	9.730223
_cell_angle_alpha	89.996605
_cell_angle_beta	89.997167
_cell_angle_gamma	84.475313
loop_
_atom_site_label
_atom_site_type_symbol
_atom_site_fract_x
_atom_site_fract_y
_atom_site_fract_z
O1	O	1.667815	0.175248	-0.114273
O2	O	1.302334	0.191953	-0.114278
O3	O	1.493505	0.002025	-0.114270
O4	O	1.476644	0.365175	-0.114281
O5	O	1.493493	0.002020	0.114310
O6	O	1.302321	0.191948	0.114302
O7	O	1.667803	0.175243	0.114307
Zn8	Zn	1.485060	0.183594	0.150596
Zn9	Zn	1.485077	0.183601	-0.150568
O10	O	1.476631	0.365170	0.114298
C11	C	1.255530	0.190725	0.000011
C12	C	1.116087	0.187059	0.000009
C13	C	1.050576	0.185330	0.124609
C14	C	0.919557	0.181865	0.124609
C15	C	0.919571	0.181862	-0.124602
C16	C	1.050588	0.185318	-0.124600
C17	C	1.492272	-0.044477	0.000019
C18	C	1.488602	-0.183032	0.000014
C19	C	1.486972	-0.244795	-0.118399
C20	C	1.483178	-0.387999	-0.118406
C21	C	1.714607	0.176471	0.000015
C22	C	1.854050	0.180137	0.000008
C23	C	1.477864	0.411673	0.000007
C24	C	1.481535	0.550227	0.000002
N25	N	1.485058	0.183589	0.356133
N26	N	1.485088	0.183597	-0.356104
C27	C	1.569738	0.099525	0.428062
C28	C	1.569751	0.099525	0.571945
C29	C	1.400399	0.267665	0.571956
C30	C	1.400382	0.267657	0.428076
H31	H	1.103929	0.186723	-0.226071
C32	C	1.307258	0.360133	0.651107
N33	N	1.237101	0.429782	0.710722
C34	C	0.847509	0.179958	-0.261664
N35	N	0.793233	0.178528	-0.364903
C36	C	1.488889	-0.173012	-0.255354
N37	N	1.490337	-0.118948	-0.358513
C38	C	1.662875	0.007037	0.348930
N39	N	1.733024	-0.062632	0.289331
C40	C	1.662895	0.007038	0.651061
N41	N	1.733052	-0.062633	0.710651
C42	C	1.307280	0.360197	0.348949
N43	N	1.237178	0.429913	0.289350
C44	C	1.481284	-0.459751	-0.255369
N45	N	1.479855	-0.513798	-0.358533
C46	C	0.847499	0.179978	0.261679
N47	N	0.793225	0.178560	0.364926
C48	C	1.122621	0.187230	0.261682
N49	N	1.176883	0.188654	0.364930
C50	C	1.483426	-0.378028	0.136970
N51	N	1.484847	-0.323981	0.240135
H52	H	1.487181	-0.236171	0.101386
