data_functionalizedCrystal
_audit_creation_method	'MofGen! by Chris Wilmer'
_symmetry_space_group_name_H-M	'P1'
_symmetry_Int_Tables_number	1
_symmetry_cell_setting	triclinic
loop_
_symmetry_equiv_pos_as_xyz
  x,y,z
_cell_length_a	15.995355
_cell_length_b	9.730217
_cell_length_c	10.654541
_cell_angle_alpha	90.004878
_cell_angle_beta	96.010933
_cell_angle_gamma	90.000450
loop_
_atom_site_label
_atom_site_type_symbol
_atom_site_fract_x
_atom_site_fract_y
_atom_site_fract_z
O1	O	-1.111921	0.114156	0.161901
O2	O	-0.868263	0.114188	0.181884
O3	O	-0.995695	0.114163	-0.010920
O4	O	-0.984489	0.114181	0.354705
O5	O	-0.995686	-0.114417	-0.010928
O6	O	-0.868253	-0.114392	0.181877
O7	O	-1.111912	-0.114424	0.161893
Zn8	Zn	-0.990081	-0.150700	0.171884
Zn9	Zn	-0.990093	0.150464	0.171894
O10	O	-0.984480	-0.114399	0.354698
C11	C	-0.837059	-0.000098	0.181053
C12	C	-0.744094	-0.000086	0.178574
C13	C	-0.573882	-0.000105	0.174072
C14	C	-0.549730	-0.000112	0.034890
C15	C	-0.453037	-0.000639	0.032265
C16	C	-0.406298	-0.000123	0.169639
C17	C	-0.435790	-0.130390	0.239619
C18	C	-0.532591	-0.130491	0.241276
C19	C	-0.532524	0.129457	0.243323
C20	C	-0.436000	0.131160	0.238178
C21	C	-0.311586	-0.000137	0.167141
C22	C	-0.668594	-0.000100	0.176575
N23	N	-0.990079	-0.356237	0.171876
C24	C	-0.887648	-0.356287	0.019436
C25	C	-0.836441	-0.428252	-0.056787
C26	C	-0.836454	-0.572131	-0.056788
C27	C	-0.887676	-0.644050	0.019446
C28	C	-0.938883	-0.572085	0.095669
C29	C	-0.938867	-0.428202	0.095658
C30	C	-1.041309	-0.572035	0.248114
C31	C	-1.041302	-0.428155	0.248110
C32	C	-1.092532	-0.643953	0.324348
C33	C	-1.143744	-0.571988	0.400566
C34	C	-1.143730	-0.428099	0.400562
C35	C	-1.092509	-0.356190	0.324333
C36	C	-0.143118	-0.000136	0.162708
C37	C	-0.236086	-0.000142	0.165138
C38	C	-0.994868	-0.000126	-0.057711
C39	C	-0.992408	-0.000124	-0.197122
N40	N	-0.990102	0.356000	0.171891
C41	C	-1.144788	-0.000161	-0.227080
C42	C	-1.219819	-0.000182	-0.307553
C43	C	-1.217502	-0.000178	-0.438541
C44	C	-1.140146	-0.000148	-0.489057
C45	C	-1.065115	-0.000126	-0.408585
C46	C	-1.067440	-0.000135	-0.277596
C47	C	-0.912736	-0.000079	-0.378627
C48	C	-0.915052	-0.000094	-0.247639
C49	C	-0.835380	-0.000049	-0.429144
C50	C	-0.760348	-0.000038	-0.348671
C51	C	-0.762668	-0.000044	-0.217676
C52	C	-0.840021	-0.000072	-0.167166
C53	C	-0.985307	-0.000107	0.401489
C54	C	-0.987767	-0.000100	0.540900
H55	H	-0.578402	-0.093394	-0.018181
C56	C	-1.137601	-0.000138	-0.633148
N57	N	-1.135684	-0.000134	-0.741680
H58	H	-0.841918	-0.000086	-0.060511
H59	H	-0.701568	-0.000021	-0.152161
C60	C	-0.675265	-0.000012	-0.404248
N61	N	-0.611180	0.000001	-0.446115
H62	H	-1.092534	-0.761107	0.324348
C63	C	-0.393553	-0.136448	0.376202
N64	N	-0.361736	-0.141010	0.479075
H65	H	-1.278598	-0.000184	-0.504063
H66	H	-0.434280	-0.094572	-0.022265
H67	H	-1.185424	-0.369514	0.462639
H68	H	-1.185441	-0.630555	0.462636
C69	C	-1.092488	-0.197918	0.324322
N70	N	-1.092467	-0.078706	0.324315
C71	C	-0.568400	-0.262545	0.176556
N72	N	-0.595367	-0.362009	0.127803
H73	H	-0.547757	-0.136056	0.343342
H74	H	-1.146682	-0.000183	-0.120425
C75	C	-0.780124	-0.651295	-0.140636
N76	N	-0.737698	-0.710921	-0.203793
C77	C	-1.304907	-0.000227	-0.251975
N78	N	-1.368995	-0.000262	-0.210116
H79	H	-0.833499	-0.000037	-0.535802
C80	C	-0.410528	0.261360	0.169340
N81	N	-0.391337	0.359425	0.117490
C82	C	-0.426918	0.125475	-0.041761
N83	N	-0.407250	0.220463	-0.097530
H84	H	-0.577428	0.093289	-0.019053
H85	H	-0.415416	-0.227708	0.191598
C86	C	-0.570371	0.262891	0.183999
N87	N	-0.598878	0.363388	0.139302
C88	C	-0.552267	0.131170	0.381719
N89	N	-0.567143	0.132452	0.485955
C90	C	-0.392286	0.142314	0.373612
N91	N	-0.359363	0.150703	0.475628
C92	C	-0.887680	-0.802321	0.019452
N93	N	-0.887683	-0.921534	0.019457
H94	H	-0.887639	-0.239132	0.019419
H95	H	-0.794735	-0.369680	-0.118853
