data_functionalizedCrystal
_audit_creation_method	'MofGen! by Chris Wilmer'
_symmetry_space_group_name_H-M	'P1'
_symmetry_Int_Tables_number	1
_symmetry_cell_setting	triclinic
loop_
_symmetry_equiv_pos_as_xyz
  x,y,z
_cell_length_a	14.971486
_cell_length_b	14.044220
_cell_length_c	13.448316
_cell_angle_alpha	89.992660
_cell_angle_beta	89.998199
_cell_angle_gamma	88.401503
loop_
_atom_site_label
_atom_site_type_symbol
_atom_site_fract_x
_atom_site_fract_y
_atom_site_fract_z
O1	O	1.196679	0.123538	-0.082579
O2	O	0.937445	0.138332	-0.082607
O3	O	1.063171	-0.007054	-0.082584
O4	O	1.070953	0.268924	-0.082602
O5	O	1.063153	-0.007063	0.082800
O6	O	0.937427	0.138323	0.082777
O7	O	1.196661	0.123529	0.082804
Cu8	Cu	1.067042	0.130925	0.097892
Cu9	Cu	1.067064	0.130936	-0.097694
O10	O	1.070935	0.268915	0.082781
C11	C	0.904059	0.137666	0.000082
C12	C	0.804606	0.135683	0.000072
C13	C	1.059755	-0.042377	0.000108
C14	C	1.049594	-0.147614	0.000108
C15	C	0.754109	0.221093	0.000067
C16	C	0.660662	0.219225	0.000082
C17	C	0.617714	0.131945	0.000094
C18	C	0.668218	0.046528	0.000102
C19	C	0.761663	0.048398	0.000094
C20	C	0.473449	0.042638	0.000116
C21	C	0.379997	0.040767	0.000122
C22	C	0.372448	0.213465	0.000104
C23	C	0.465893	0.215334	0.000096
C24	C	0.516390	0.129917	0.000102
C25	C	1.031018	-0.340297	0.000092
C26	C	1.103085	-0.397848	0.000097
C27	C	1.092748	-0.505063	0.000088
C28	C	1.041353	-0.233071	0.000101
C29	C	1.230047	0.124195	0.000114
C30	C	1.329501	0.126178	0.000117
C31	C	1.074351	0.304238	0.000087
C32	C	1.084512	0.409475	0.000080
N33	N	1.067034	0.130917	0.235456
N34	N	1.067079	0.130936	-0.235258
C35	C	1.122727	0.066567	0.287506
C36	C	1.122732	0.066566	0.391610
C37	C	1.067049	0.130921	0.443660
C38	C	1.011350	0.195274	0.391603
C39	C	1.011341	0.195270	0.287501
C40	C	1.011376	0.195281	0.608583
C41	C	1.011386	0.195287	0.712691
C42	C	1.122767	0.066577	0.712691
C43	C	1.122757	0.066572	0.608590
C44	C	1.067060	0.130927	0.556539
H45	H	0.789070	0.292167	0.000056
H46	H	1.168103	0.014175	0.566210
O47	O	0.948136	-0.377525	-0.000090
C48	C	0.901389	-0.346593	-0.085730
H49	H	0.951135	-0.325868	-0.145596
H50	H	0.858653	-0.406612	-0.114484
H51	H	0.856581	-0.282290	-0.066362
H52	H	0.633242	-0.024537	0.000126
O53	O	1.176845	0.003960	0.237103
C54	C	1.226016	-0.052822	0.305373
H55	H	1.189261	-0.053952	0.379585
H56	H	1.233624	-0.128506	0.275309
H57	H	1.294923	-0.021924	0.316429
H58	H	1.168080	0.014166	0.433989
O59	O	1.176826	0.003930	0.763135
C60	C	1.154795	-0.089941	0.737731
H61	H	1.120314	-0.089888	0.662154
H62	H	1.218317	-0.136500	0.734162
H63	H	1.107943	-0.119343	0.796334
O64	O	0.957200	0.257822	0.763101
C65	C	0.908042	0.314628	0.694840
H66	H	0.903937	0.275763	0.620636
H67	H	0.837757	0.328939	0.724928
H68	H	0.942681	0.385114	0.683759
H69	H	0.966017	0.247682	0.566206
H70	H	0.802776	-0.021152	0.000097
O71	O	0.957172	0.257821	0.442007
C72	C	0.908027	0.314631	0.373739
H73	H	0.903914	0.275759	0.299539
H74	H	0.837744	0.328963	0.403824
H75	H	0.942681	0.385107	0.362650
O76	O	0.957369	0.257822	0.236826
C77	C	1.009932	0.316403	0.176608
H78	H	1.076919	0.278771	0.161009
H79	H	0.973783	0.331329	0.103406
H80	H	1.021598	0.386480	0.216712
O81	O	1.185908	-0.360465	-0.000016
C82	C	1.196199	-0.303921	-0.085673
H83	H	1.127632	-0.279484	-0.114245
H84	H	1.236920	-0.239066	-0.066392
H85	H	1.232365	-0.347490	-0.145646
O86	O	0.611744	0.302281	0.000032
C87	C	0.669689	0.379716	0.000039
H88	H	0.737404	0.355734	-0.031279
H89	H	0.640045	0.439568	-0.047979
H90	H	0.678474	0.406463	0.079377
H91	H	0.500859	0.286405	0.000077
H92	H	0.331329	0.283015	0.000104
H93	H	0.514561	-0.026919	0.000122
O94	O	0.338418	-0.044097	0.000180
C95	C	0.403023	-0.119088	0.000165
H96	H	0.468528	-0.092448	0.031472
H97	H	0.378660	-0.180016	0.048189
H98	H	0.414122	-0.145440	-0.079174
