data_functionalizedCrystal
_audit_creation_method	'MofGen! by Chris Wilmer'
_symmetry_space_group_name_H-M	'P1'
_symmetry_Int_Tables_number	1
_symmetry_cell_setting	triclinic
loop_
_symmetry_equiv_pos_as_xyz
  x,y,z
_cell_length_a	9.065218
_cell_length_b	15.186229
_cell_length_c	9.065218
_cell_angle_alpha	89.998407
_cell_angle_beta	85.015885
_cell_angle_gamma	90.005739
loop_
_atom_site_label
_atom_site_type_symbol
_atom_site_fract_x
_atom_site_fract_y
_atom_site_fract_z
O1	O	1.960405	0.073227	0.216347
O2	O	2.293738	0.406560	0.549680
O3	O	2.627072	0.739894	0.883014
O4	O	1.531120	0.073228	0.234093
O5	O	1.864453	0.406561	0.567427
O6	O	2.197787	0.739895	0.900760
O7	O	1.754636	0.073226	0.010578
O8	O	2.087969	0.406559	0.343911
O9	O	2.421302	0.739892	0.677244
O10	O	1.736889	0.073229	0.439863
O11	O	2.070223	0.406563	0.773196
O12	O	2.403556	0.739896	1.106529
O13	O	1.754609	-0.073232	0.010590
O14	O	2.087943	0.260102	0.343924
O15	O	2.421276	0.593435	0.677257
O16	O	1.531094	-0.073229	0.234106
O17	O	1.864427	0.260104	0.567439
O18	O	2.197760	0.593437	0.900773
O19	O	1.960379	-0.073230	0.216359
O20	O	2.293712	0.260103	0.549693
O21	O	2.627045	0.593436	0.883026
Zn22	Zn	1.745732	-0.096483	0.225235
Zn23	Zn	2.079065	0.236850	0.558568
Zn24	Zn	2.412399	0.570184	0.891901
Zn25	Zn	1.745767	0.096481	0.225218
Zn26	Zn	2.079100	0.429814	0.558552
Zn27	Zn	2.412433	0.763147	0.891885
O28	O	1.736863	-0.073228	0.439875
O29	O	2.070196	0.260105	0.773208
O30	O	2.403530	0.593439	1.106542
C31	C	1.476120	-0.000001	0.232394
C32	C	1.809454	0.333333	0.565727
C33	C	2.142787	0.666666	0.899061
C34	C	1.312277	-0.000000	0.227294
C35	C	1.645611	0.333333	0.560628
C36	C	1.978944	0.666666	0.893961
N37	N	1.745719	-0.228176	0.225245
N38	N	2.079052	0.105158	0.558579
N39	N	2.412386	0.438491	0.891912
C40	C	1.836430	-0.453898	0.315964
C41	C	2.169764	-0.120565	0.649297
C42	C	2.503097	0.212769	0.982631
C43	C	1.836446	-0.546088	0.315954
C44	C	2.169779	-0.212754	0.649287
C45	C	2.503113	0.120579	0.982620
C46	C	1.655076	-0.546098	0.134467
C47	C	1.988410	-0.212765	0.467800
C48	C	2.321743	0.120569	0.801134
C49	C	1.655069	-0.453910	0.134471
C50	C	1.988402	-0.120577	0.467804
C51	C	2.321736	0.212757	0.801137
C52	C	1.745744	-0.407812	0.225228
C53	C	2.079077	-0.074479	0.558561
C54	C	2.412410	0.258854	0.891894
C55	C	1.745767	-0.592190	0.225214
C56	C	2.079100	-0.258857	0.558547
C57	C	2.412433	0.074477	0.891880
C58	C	1.745783	-0.692146	0.225202
C59	C	2.079117	-0.358813	0.558535
C60	C	2.412450	-0.025480	0.891868
C61	C	1.745729	-0.307850	0.225238
C62	C	2.079063	0.025483	0.558571
C63	C	2.412396	0.358817	0.891905
C64	C	2.015378	0.000000	0.218059
C65	C	2.348712	0.333333	0.551392
C66	C	2.682045	0.666667	0.884725
C67	C	2.179221	0.000005	0.223158
C68	C	2.512555	0.333339	0.556492
C69	C	2.845888	0.666672	0.889825
C70	C	1.752917	-0.000002	-0.044403
C71	C	2.086250	0.333332	0.288931
C72	C	2.419584	0.666665	0.622264
C73	C	1.747817	0.000003	-0.208245
C74	C	2.081151	0.333336	0.125088
C75	C	2.414484	0.666669	0.458421
N76	N	1.745791	0.228173	0.225196
N77	N	2.079125	0.561507	0.558529
N78	N	2.412458	0.894840	0.891863
C79	C	1.738582	0.000001	0.494855
C80	C	2.071915	0.333334	0.828189
C81	C	2.405248	0.666668	1.161522
C82	C	1.743681	0.000003	0.658698
C83	C	2.077015	0.333336	0.992032
C84	C	2.410348	0.666669	1.325365
H85	H	1.910263	-0.416368	0.389864
H86	H	2.243597	-0.083035	0.723197
H87	H	2.576930	0.250299	1.056531
F88	F	1.932970	-0.595131	0.412526
F89	F	2.266303	-0.261798	0.745859
F90	F	2.599636	0.071535	1.079192
H91	H	1.581251	-0.583642	0.060578
H92	H	1.914584	-0.250309	0.393911
H93	H	2.247917	0.083025	0.727244
F94	F	1.558541	-0.404860	0.037893
F95	F	1.891874	-0.071526	0.371227
F96	F	2.225207	0.261807	0.704560
