data_functionalizedCrystal
_audit_creation_method	'MofGen! by Chris Wilmer'
_symmetry_space_group_name_H-M	'P1'
_symmetry_Int_Tables_number	1
_symmetry_cell_setting	triclinic
loop_
_symmetry_equiv_pos_as_xyz
  x,y,z
_cell_length_a	10.868271
_cell_length_b	14.853567
_cell_length_c	14.853576
_cell_angle_alpha	96.363315
_cell_angle_beta	90.003322
_cell_angle_gamma	89.998656
loop_
_atom_site_label
_atom_site_type_symbol
_atom_site_fract_x
_atom_site_fract_y
_atom_site_fract_z
O1	O	0.102232	-1.196368	0.117704
O2	O	0.602232	-0.696368	0.617704
O3	O	0.102253	-0.933909	0.131726
O4	O	0.602253	-0.433909	0.631726
O5	O	0.102240	-1.072145	-0.006514
O6	O	0.602240	-0.572145	0.493486
O7	O	0.102246	-1.058132	0.255944
O8	O	0.602246	-0.558132	0.755944
O9	O	-0.102405	-1.072134	-0.006520
O10	O	0.397595	-0.572134	0.493480
O11	O	-0.102392	-0.933898	0.131720
O12	O	0.397608	-0.433898	0.631720
O13	O	-0.102412	-1.196357	0.117699
O14	O	0.397588	-0.696357	0.617699
Zn15	Zn	-0.134894	-1.065125	0.124709
Zn16	Zn	0.365106	-0.565125	0.624709
Zn17	Zn	0.134734	-1.065140	0.124716
Zn18	Zn	0.634734	-0.565140	0.624716
O19	O	-0.102399	-1.058121	0.255939
O20	O	0.397601	-0.558121	0.755939
C21	C	-0.000067	-0.900315	0.131088
C22	C	0.499933	-0.400315	0.631088
C23	C	-0.000059	-0.800231	0.129184
C24	C	0.499941	-0.300231	0.629184
N25	N	-0.318908	-1.065122	0.124703
N26	N	0.181092	-0.565122	0.624703
C27	C	-0.000081	-1.071503	-0.040106
C28	C	0.499919	-0.571503	0.459894
C29	C	-0.000075	-1.069596	-0.140189
C30	C	0.499925	-0.569596	0.359811
C31	C	-0.569914	-1.065136	0.124714
C32	C	-0.069914	-0.565136	0.624714
C33	C	-0.430236	-1.065125	0.124711
C34	C	0.069764	-0.565125	0.624711
N35	N	0.318748	-1.065151	0.124714
N36	N	0.818748	-0.565151	0.624714
C37	C	-0.000090	-1.229951	0.118337
C38	C	0.499910	-0.729951	0.618337
C39	C	-0.000090	-1.330035	0.120241
C40	C	0.499910	-0.830035	0.620241
C41	C	-0.000088	-0.387694	0.039018
C42	C	0.499912	0.112306	0.539018
C43	C	-0.000083	-0.366418	0.203251
C44	C	0.499917	0.133582	0.703251
C45	C	-0.000080	-0.460452	0.205041
C46	C	0.499920	0.039548	0.705041
C47	C	-0.000078	-0.518111	0.123818
C48	C	0.499922	-0.018111	0.623818
C49	C	-0.000081	-0.481737	0.040806
C50	C	0.499919	0.018263	0.540806
C51	C	-0.000064	-0.496834	0.288052
C52	C	0.499936	0.003166	0.788052
C53	C	-0.000059	-0.590873	0.289845
C54	C	0.499941	-0.090873	0.789845
C55	C	-0.000067	-0.648534	0.208622
C56	C	0.499933	-0.148534	0.708622
C57	C	-0.000071	-0.612154	0.125606
C58	C	0.499929	-0.112154	0.625606
C59	C	-0.000069	-0.669814	0.044384
C60	C	0.499931	-0.169814	0.544384
C61	C	-0.000082	-0.633436	-0.038633
C62	C	0.499918	-0.133436	0.461367
C63	C	-0.000088	-0.539398	-0.040417
C64	C	0.499912	-0.039398	0.459583
C65	C	-0.000060	-0.742572	0.210406
C66	C	0.499940	-0.242572	0.710406
C67	C	-0.000062	-0.763856	0.046171
C68	C	0.499938	-0.263856	0.546171
C69	C	-0.000076	-1.058763	0.289530
C70	C	0.499924	-0.558763	0.789530
C71	C	-0.000074	-1.060669	0.389613
C72	C	0.499926	-0.560669	0.889613
C73	C	0.111482	-1.061573	0.436636
C74	C	0.611482	-0.561573	0.936636
C75	C	-0.111629	-1.061550	0.436634
C76	C	0.388371	-0.561550	0.936634
C77	C	-0.111631	-1.063337	0.530668
C78	C	0.388369	-0.563337	1.030668
C79	C	-0.000075	-1.064241	0.577691
C80	C	0.499925	-0.564241	1.077691
C81	C	0.111484	-1.063357	0.530679
C82	C	0.611484	-0.563357	1.030679
C83	C	-0.223188	-1.064211	0.577688
C84	C	0.276812	-0.564211	1.077688
C85	C	-0.223194	-1.065997	0.671728
C86	C	0.276806	-0.565997	1.171728
C87	C	-0.111637	-1.066907	0.718752
C88	C	0.388363	-0.566907	1.218752
C89	C	-0.000074	-1.066025	0.671734
C90	C	0.499926	-0.566025	1.171734
C91	C	0.111483	-1.066929	0.718756
C92	C	0.611483	-0.566929	1.218756
C93	C	0.223047	-1.066053	0.671739
C94	C	0.723047	-0.566053	1.171739
C95	C	0.223041	-1.064268	0.577702
C96	C	0.723041	-0.564268	1.077702
C97	C	-0.111631	-1.068693	0.812789
C98	C	0.388369	-0.568693	1.312789
C99	C	0.111484	-1.068713	0.812799
C100	C	0.611484	-0.568713	1.312799
H101	H	-0.000065	-0.810798	-0.019971
H102	H	0.499935	-0.310798	0.480029
F103	F	0.230211	-1.060649	0.386597
F104	F	0.730211	-0.560649	0.886597
F105	F	0.341765	-1.063339	0.527657
F106	F	0.841765	-0.563339	1.027657
H107	H	-0.202453	-1.060808	0.398344
H108	H	0.297547	-0.560808	0.898344
F109	F	-0.000072	-0.694811	-0.125072
F110	F	0.499928	-0.194811	0.374928
H111	H	-0.000128	-0.509770	-0.108005
H112	H	0.499872	-0.009770	0.391995
H113	H	-0.000049	-0.620483	0.357442
H114	H	0.499951	-0.120483	0.857442
F115	F	-0.000070	-0.305052	0.289688
F116	F	0.499930	0.194948	0.789688
H117	H	-0.000053	-0.449881	0.354178
H118	H	0.499947	0.050119	0.854178
F119	F	0.341769	-1.067016	0.721794
F120	F	0.841769	-0.567016	1.221794
F121	F	-0.000038	-0.781284	0.298752
F122	F	0.499962	-0.281284	0.798752
H123	H	0.202328	-1.069453	0.851078
H124	H	0.702328	-0.569453	1.351078
H125	H	-0.314011	-1.063471	0.539396
H126	H	0.185989	-0.563471	1.039396
F127	F	-0.230357	-1.069622	0.862824
F128	F	0.269643	-0.569622	1.362824
F129	F	-0.000108	-0.348979	-0.049329
F130	F	0.499892	0.151021	0.450671
F131	F	-0.341929	-1.066926	0.721759
F132	F	0.158071	-0.566926	1.221759
