data_functionalizedCrystal
_audit_creation_method	'MofGen! by Chris Wilmer'
_symmetry_space_group_name_H-M	'P1'
_symmetry_Int_Tables_number	1
_symmetry_cell_setting	triclinic
loop_
_symmetry_equiv_pos_as_xyz
  x,y,z
_cell_length_a	10.654546
_cell_length_b	10.489763
_cell_length_c	9.730223
_cell_angle_alpha	89.995222
_cell_angle_beta	90.003777
_cell_angle_gamma	95.484078
loop_
_atom_site_label
_atom_site_type_symbol
_atom_site_fract_x
_atom_site_fract_y
_atom_site_fract_z
O1	O	1.667940	-0.179131	0.114336
O2	O	1.302470	-0.196204	0.114334
O3	O	1.493506	-0.002067	0.114309
O4	O	1.476903	-0.373268	0.114361
O5	O	1.493494	-0.002078	-0.114271
O6	O	1.302458	-0.196215	-0.114246
O7	O	1.667927	-0.179141	-0.114244
Zn8	Zn	1.485191	-0.187680	-0.150537
Zn9	Zn	1.485207	-0.187666	0.150627
O10	O	1.476891	-0.373279	-0.114219
C11	C	1.255665	-0.194957	0.000043
C12	C	1.116220	-0.191209	0.000041
C13	C	1.050731	-0.189430	0.124646
C14	C	0.919708	-0.185898	0.124657
C15	C	0.919675	-0.185920	-0.124554
C16	C	1.050695	-0.189461	-0.124563
C17	C	1.116256	-0.191178	0.249250
C18	C	1.050767	-0.189397	0.373865
C19	C	0.919744	-0.185865	0.373876
C20	C	0.854210	-0.184114	0.249271
C21	C	1.492240	0.045458	0.000016
C22	C	1.488471	0.187084	0.000005
C23	C	1.366905	0.255163	0.000007
C24	C	1.424315	0.347308	-0.112703
C25	C	1.424356	0.347293	0.112659
C26	C	1.545931	0.277363	-0.112798
C27	C	1.545956	0.277339	0.112665
C28	C	1.603454	0.369456	-0.000072
C29	C	1.714732	-0.180389	0.000050
C30	C	1.854178	-0.184137	0.000061
N31	N	1.485189	-0.187689	-0.356073
C32	C	1.478137	0.579194	0.000054
C33	C	1.481847	0.437560	0.000003
C34	C	1.562061	-0.265766	-0.428001
C35	C	1.562080	-0.265742	-0.571884
C36	C	1.408343	-0.109561	-0.571899
C37	C	1.408332	-0.109579	-0.428019
C38	C	1.638918	-0.343876	-0.356055
C39	C	1.715796	-0.421961	-0.427983
C40	C	1.715814	-0.421937	-0.571866
C41	C	1.638956	-0.343828	-0.643821
N42	N	1.485219	-0.187647	0.356163
H43	H	0.866425	-0.184428	0.475343
H44	H	1.597354	0.246325	0.207955
H45	H	0.747521	-0.181253	0.249290
Cl46	Cl	0.837290	-0.183713	-0.281187
Cl47	Cl	1.280970	-0.195613	0.249245
H48	H	1.372909	0.378236	0.207945
H49	H	1.104131	-0.190834	0.475313
Cl50	Cl	1.133030	-0.191701	-0.281212
Cl51	Cl	1.212603	0.178429	-0.000153
Cl52	Cl	1.344896	0.395142	-0.259816
Cl53	Cl	1.625274	0.229803	-0.260063
H54	H	1.638908	-0.343908	-0.238898
H55	H	1.703487	0.418930	-0.000138
Cl56	Cl	1.638997	-0.343786	-0.824704
Cl57	Cl	1.812424	-0.520137	-0.337527
Cl58	Cl	1.812468	-0.520088	-0.662285
H59	H	1.345766	-0.045971	-0.630497
Cl60	Cl	1.311716	-0.011397	-0.337589
