data_functionalizedCrystal
_audit_creation_method	'MofGen! by Chris Wilmer'
_symmetry_space_group_name_H-M	'P1'
_symmetry_Int_Tables_number	1
_symmetry_cell_setting	triclinic
loop_
_symmetry_equiv_pos_as_xyz
  x,y,z
_cell_length_a	6.394989
_cell_length_b	10.723024
_cell_length_c	9.198806
_cell_angle_alpha	90.003648
_cell_angle_beta	90.000201
_cell_angle_gamma	85.482790
loop_
_atom_site_label
_atom_site_type_symbol
_atom_site_fract_x
_atom_site_fract_y
_atom_site_fract_z
O1	O	-0.293022	-1.660298	-0.120873
O2	O	-0.321070	-1.297443	-0.120877
O3	O	-0.003055	-1.484021	-0.120876
O4	O	-0.611036	-1.473720	-0.120874
O5	O	-0.003054	-1.484006	0.120909
O6	O	-0.321069	-1.297428	0.120908
O7	O	-0.293021	-1.660282	0.120912
Cu8	Cu	-0.307045	-1.478854	0.142987
Cu9	Cu	-0.307046	-1.478872	-0.142952
O10	O	-0.611035	-1.473705	0.120911
C11	C	-0.319028	-1.250914	0.000015
C12	C	-0.312921	-1.112295	0.000013
N13	N	-0.307043	-1.478850	0.344101
N14	N	-0.307031	-1.478885	-0.344066
C15	C	0.074796	-1.481977	0.000011
C16	C	0.311120	-1.475752	0.000010
C17	C	-0.295062	-1.706811	0.000017
C18	C	-0.301169	-1.845430	0.000010
C19	C	-0.490865	-1.039201	0.000013
C20	C	-0.484558	-0.895931	0.000011
C21	C	-0.172929	-1.557183	0.416299
C22	C	-0.172922	-1.557202	0.583711
H23	H	-0.647879	-1.082689	0.000022
C24	C	-0.103607	-1.054253	-0.000290
C25	C	-0.089351	-0.980188	-0.124702
C26	C	0.103456	-0.926718	-0.125042
H27	H	-0.093364	-1.003831	0.083926
H28	H	0.007278	-1.118655	-0.000370
H29	H	-0.200205	-0.915795	-0.124610
H30	H	-0.099556	-1.030581	-0.208939
H31	H	0.214342	-0.991120	-0.125122
H32	H	0.113682	-0.876302	-0.040820
H33	H	0.113163	-0.876468	-0.209460
H34	H	-0.421850	-1.411796	0.406229
C35	C	-0.019537	-1.646443	0.333511
C36	C	0.186006	-1.622678	0.370361
C37	C	0.327349	-1.704872	0.294099
H38	H	-0.042803	-1.730225	0.358289
H39	H	-0.039798	-1.634518	0.231993
H40	H	0.206259	-1.634614	0.471857
H41	H	0.209339	-1.538912	0.345580
H42	H	0.307088	-1.692947	0.192581
H43	H	0.304063	-1.788649	0.318883
H44	H	0.466825	-1.688751	0.319081
H45	H	-0.636892	-0.833115	0.000005
C46	C	-0.460255	-1.389657	0.572985
C47	C	-0.588669	-1.458437	0.485563
C48	C	-0.729826	-1.376284	0.409105
H49	H	-0.544594	-1.340493	0.639848
H50	H	-0.384549	-1.336445	0.513532
H51	H	-0.664369	-1.511626	0.545011
H52	H	-0.504388	-1.507597	0.418673
H53	H	-0.654120	-1.323072	0.349652
H54	H	-0.814150	-1.327124	0.475978
H55	H	-0.816958	-1.422938	0.349771
H56	H	-0.148827	-0.908239	0.000001
H57	H	-0.058109	-1.624270	0.645797
