data_functionalizedCrystal
_audit_creation_method	'MofGen! by Chris Wilmer'
_symmetry_space_group_name_H-M	'P1'
_symmetry_Int_Tables_number	1
_symmetry_cell_setting	triclinic
loop_
_symmetry_equiv_pos_as_xyz
  x,y,z
_cell_length_a	10.654545
_cell_length_b	16.109301
_cell_length_c	9.730223
_cell_angle_alpha	90.005822
_cell_angle_beta	90.002833
_cell_angle_gamma	83.972280
loop_
_atom_site_label
_atom_site_type_symbol
_atom_site_fract_x
_atom_site_fract_y
_atom_site_fract_z
O1	O	1.666258	0.116756	0.114281
O2	O	1.300628	0.127885	0.114287
O3	O	1.493487	0.001349	0.114270
O4	O	1.473399	0.243292	0.114298
O5	O	1.493475	0.001346	-0.114310
O6	O	1.300616	0.127882	-0.114293
O7	O	1.666246	0.116752	-0.114299
Zn8	Zn	1.483429	0.122317	-0.150588
Zn9	Zn	1.483445	0.122321	0.150576
O10	O	1.473387	0.243289	-0.114282
C11	C	1.253835	0.127067	-0.000002
C12	C	1.114425	0.124625	-0.000000
C13	C	1.048929	0.123473	-0.124600
C14	C	0.917941	0.121164	-0.124600
C15	C	0.917955	0.121162	0.124610
C16	C	1.048942	0.123465	0.124609
C17	C	1.492668	-0.029632	-0.000021
C18	C	1.490228	-0.121942	-0.000023
C19	C	1.598994	-0.343569	-0.000003
C20	C	1.596692	-0.430303	0.000009
C21	C	1.367871	-0.411787	0.000007
C22	C	1.370175	-0.325054	0.000006
C23	C	1.485740	-0.290948	-0.000006
C24	C	1.481134	-0.464414	0.000007
C25	C	1.478638	-0.558455	0.000019
C26	C	1.488237	-0.196901	-0.000016
C27	C	1.713039	0.117571	-0.000007
C28	C	1.852450	0.120013	0.000001
C29	C	1.474207	0.274270	0.000012
C30	C	1.476646	0.366580	0.000023
N31	N	1.483427	0.122313	-0.356124
C32	C	1.568854	0.066307	-0.428058
C33	C	1.568866	0.066307	-0.571941
C34	C	1.398021	0.178327	-0.571944
C35	C	1.398004	0.178322	-0.428063
N36	N	1.483457	0.122318	0.356113
H37	H	0.864620	0.120227	-0.226062
C38	C	1.724333	-0.306378	-0.000069
C39	C	1.702117	-0.219158	-0.000108
C40	C	1.817551	-0.184872	-0.000182
H41	H	1.771058	-0.324298	0.079624
H42	H	1.770977	-0.324355	-0.079808
H43	H	1.655492	-0.201188	0.079624
H44	H	1.655411	-0.201214	-0.079795
H45	H	1.864195	-0.202849	-0.079921
H46	H	1.864268	-0.202798	0.079512
H47	H	1.802493	-0.125690	-0.000221
C48	C	0.847088	0.119881	0.260038
C49	C	0.932491	0.121363	0.369158
C50	C	0.867259	0.120177	0.493936
H51	H	0.786391	0.167370	0.265414
H52	H	0.805617	0.070569	0.265294
H53	H	0.973941	0.170669	0.363905
H54	H	0.993190	0.073877	0.363828
H55	H	0.825788	0.070866	0.499192
H56	H	0.806564	0.167667	0.499298
H57	H	0.925196	0.121175	0.567989
H58	H	1.277943	-0.282208	0.000007
H59	H	1.102270	0.124401	0.226079
H60	H	1.102241	0.124417	-0.226065
H61	H	1.688916	-0.473144	0.000015
H62	H	1.273782	-0.439567	0.000014
H63	H	1.638409	0.020699	-0.369488
C64	C	1.661761	0.005465	-0.649792
C65	C	1.736582	-0.043570	-0.555989
C66	C	1.822183	-0.099622	-0.627653
H67	H	1.616763	-0.029503	-0.705940
H68	H	1.714092	0.035677	-0.705873
H69	H	1.684257	-0.073780	-0.499930
H70	H	1.781607	-0.008625	-0.499837
H71	H	1.874514	-0.069410	-0.683735
H72	H	1.777174	-0.134584	-0.683799
H73	H	1.872966	-0.132893	-0.564019
H74	H	1.328473	0.223930	-0.630531
H75	H	1.328433	0.223930	-0.369491
