data_functionalizedCrystal
_audit_creation_method	'MofGen! by Chris Wilmer'
_symmetry_space_group_name_H-M	'P1'
_symmetry_Int_Tables_number	1
_symmetry_cell_setting	triclinic
loop_
_symmetry_equiv_pos_as_xyz
  x,y,z
_cell_length_a	27.732048
_cell_length_b	15.995350
_cell_length_c	14.472310
_cell_angle_alpha	90.001162
_cell_angle_beta	89.992508
_cell_angle_gamma	83.067515
loop_
_atom_site_label
_atom_site_type_symbol
_atom_site_fract_x
_atom_site_fract_y
_atom_site_fract_z
O1	O	0.641363	0.099622	-0.076718
O2	O	1.141363	0.599622	0.423282
O3	O	0.500635	0.114770	-0.076745
O4	O	1.000635	0.614770	0.423255
O5	O	0.574846	-0.014741	-0.076730
O6	O	1.074846	0.485259	0.423270
O7	O	0.567152	0.229134	-0.076733
O8	O	1.067152	0.729134	0.423267
O9	O	0.574827	-0.014733	0.076952
O10	O	1.074827	0.485267	0.576952
O11	O	0.500616	0.114778	0.076937
O12	O	1.000616	0.614778	0.576937
O13	O	0.641344	0.099630	0.076964
O14	O	1.141344	0.599630	0.576964
Cu15	Cu	0.570978	0.107205	0.090983
Cu16	Cu	1.070978	0.607205	0.590983
Cu17	Cu	0.571001	0.107196	-0.090764
Cu18	Cu	1.071001	0.607196	0.409236
O19	O	0.567133	0.229141	0.076949
O20	O	1.067133	0.729141	0.576949
C21	C	0.482617	0.114456	0.000092
C22	C	0.982617	0.614456	0.500092
C23	C	0.428958	0.113499	0.000082
C24	C	0.928958	0.613499	0.500082
C25	C	0.574518	-0.045928	0.000109
C26	C	1.074518	0.454072	0.500109
C27	C	0.573565	-0.138866	0.000104
C28	C	1.073565	0.361134	0.500104
C29	C	0.570140	-0.476569	0.000106
C30	C	1.070140	0.023431	0.500106
C31	C	0.517289	-0.428451	-0.000249
C32	C	1.017289	0.071549	0.499751
C33	C	0.518242	-0.331773	0.000098
C34	C	1.018242	0.168227	0.500098
C35	C	0.571839	-0.309031	0.000105
C36	C	1.071839	0.190969	0.500105
C37	C	0.597896	-0.350441	0.087868
C38	C	1.097896	0.149559	0.587868
C39	C	0.596569	-0.447060	0.087941
C40	C	1.096569	0.052940	0.587941
C41	C	0.597682	-0.447441	-0.086824
C42	C	1.097682	0.052559	0.413176
C43	C	0.597670	-0.350495	-0.087984
C44	C	1.097670	0.149505	0.412016
C45	C	0.572802	-0.214346	0.000107
C46	C	1.072802	0.285654	0.500107
C47	C	0.569179	-0.571255	0.000110
C48	C	1.069179	-0.071255	0.500110
C49	C	0.090447	0.184004	0.000121
C50	C	0.590447	0.684004	0.500121
C51	C	-0.111228	0.180451	0.000129
C52	C	0.388772	0.680451	0.500129
O53	O	-0.142205	0.244923	0.000168
O54	O	0.357795	0.744923	0.500168
N55	N	-0.130683	0.103656	0.000128
N56	N	0.369317	0.603656	0.500128
C57	C	-0.099715	0.027744	0.000132
C58	C	0.400285	0.527744	0.500132
O59	O	-0.120891	-0.037657	0.000141
O60	O	0.379109	0.462343	0.500141
C61	C	0.101958	0.031297	0.000130
C62	C	0.601958	0.531297	0.500130
C63	C	0.121410	0.108097	0.000121
C64	C	0.621410	0.608097	0.500121
C65	C	0.109900	0.260797	0.000113
C66	C	0.609900	0.760797	0.500113
C67	C	0.160315	0.261685	0.000106
C68	C	0.660315	0.761685	0.500106
C69	C	0.191279	0.185778	0.000107
C70	C	0.691279	0.685778	0.500107
C71	C	0.171826	0.108985	0.000114
C72	C	0.671826	0.608985	0.500114
C73	C	0.132925	-0.044614	0.000140
C74	C	0.632925	0.455386	0.500140
C75	C	0.183346	-0.043719	0.000142
C76	C	0.683346	0.456281	0.500142
C77	C	0.202798	0.033081	0.000133
C78	C	0.702798	0.533081	0.500133
C79	C	0.253205	0.033965	0.000108
C80	C	0.753205	0.533965	0.500108
N81	N	0.272660	0.110761	0.000108
N82	N	0.772660	0.610761	0.500108
C83	C	0.241697	0.186667	0.000108
C84	C	0.741697	0.686667	0.500108
C85	C	-0.205598	0.025883	0.000131
C86	C	0.294402	0.525883	0.500131
C87	C	-0.256016	0.024995	0.000130
C88	C	0.243984	0.524995	0.500130
C89	C	-0.267525	0.177703	0.000129
C90	C	0.232475	0.677703	0.500129
C91	C	-0.217106	0.178590	0.000123
C92	C	0.282894	0.678590	0.500123
C93	C	-0.186143	0.102679	0.000132
C94	C	0.313857	0.602679	0.500132
C95	C	0.347574	0.188525	0.000092
C96	C	0.847574	0.688525	0.500092
C97	C	0.397995	0.189405	0.000081
C98	C	0.897995	0.689405	0.500081
C99	C	0.409499	0.036698	0.000087
C100	C	0.909499	0.536698	0.500087
C101	C	0.359083	0.035817	0.000093
C102	C	0.859083	0.535817	0.500093
C103	C	0.328121	0.111737	0.000099
C104	C	0.828121	0.611737	0.500099
O105	O	0.284211	-0.030472	0.000079
O106	O	0.784211	0.469528	0.500079
O107	O	0.262881	0.252058	0.000119
O108	O	0.762881	0.752058	0.500119
C109	C	0.040031	0.183116	0.000128
C110	C	0.540031	0.683116	0.500128
C111	C	0.020579	0.106323	0.000136
C112	C	0.520579	0.606323	0.500136
C113	C	0.051542	0.030416	0.000136
C114	C	0.551542	0.530416	0.500136
C115	C	-0.029839	0.105434	0.000134
C116	C	0.470161	0.605434	0.500134
C117	C	-0.060803	0.181340	0.000134
C118	C	0.439197	0.681340	0.500134
C119	C	-0.041348	0.258135	0.000134
C120	C	0.458652	0.758135	0.500134
C121	C	0.009068	0.259023	0.000127
C122	C	0.509068	0.759023	0.500127
C123	C	0.032087	-0.046379	0.000136
C124	C	0.532087	0.453621	0.500136
C125	C	-0.018329	-0.047260	0.000142
C126	C	0.481671	0.452740	0.500142
C127	C	-0.049292	0.028646	0.000141
C128	C	0.450708	0.528646	0.500141
C129	C	0.659362	0.099944	0.000125
C130	C	1.159362	0.599944	0.500125
C131	C	0.713021	0.100901	0.000129
C132	C	1.213021	0.600901	0.500129
C133	C	0.567461	0.260328	0.000108
C134	C	1.067461	0.760328	0.500108
C135	C	0.568414	0.353266	0.000107
C136	C	1.068414	0.853266	0.500107
N137	N	0.570966	0.107210	0.218814
N138	N	1.070966	0.607210	0.718814
N139	N	0.571017	0.107183	-0.218595
N140	N	1.071017	0.607183	0.281405
C141	C	0.571000	0.107192	0.592905
C142	C	1.071000	0.607192	1.092905
C143	C	0.531158	0.176262	0.553731
C144	C	1.031158	0.676262	1.053731
C145	C	0.531250	0.176511	0.446643
C146	C	1.031250	0.676511	0.946643
C147	C	0.570983	0.107201	0.407314
C148	C	1.070983	0.607201	0.907314
C149	C	0.621417	0.125630	0.446161
C150	C	1.121417	0.625630	0.946161
C151	C	0.621193	0.126121	0.553282
C152	C	1.121193	0.626121	1.053282
C153	C	0.560858	0.019484	0.553433
C154	C	1.060858	0.519484	1.053433
C155	C	0.559701	0.020084	0.446305
C156	C	1.059701	0.520084	0.946305
C157	C	0.570976	0.107205	0.302426
C158	C	1.070976	0.607205	0.802426
C159	C	0.571010	0.107190	0.697793
C160	C	1.071010	0.607190	1.197793
H161	H	0.497759	-0.303089	-0.062815
H162	H	0.997759	0.196911	0.437185
H163	H	0.524880	0.001601	0.580494
H164	H	1.024880	0.501601	1.080494
H165	H	0.084694	0.322613	0.000116
H166	H	0.584694	0.822613	0.500116
H167	H	0.496172	-0.446713	-0.063186
H168	H	0.996172	0.053287	0.436814
H169	H	0.537727	0.241612	0.421009
H170	H	1.037727	0.741612	0.921009
Cl171	Cl	0.569930	-0.306261	0.188698
Cl172	Cl	1.069930	0.193739	0.688698
H173	H	0.522601	0.006083	0.420916
H174	H	1.022601	0.506083	0.920916
Cl175	Cl	0.571011	-0.478799	-0.189525
Cl176	Cl	1.071011	0.021201	0.310475
H177	H	0.577551	-0.465112	0.153541
H178	H	1.077551	0.034888	0.653541
Cl179	Cl	0.601599	-0.062914	0.404992
Cl180	Cl	1.101599	0.437086	0.904992
H181	H	0.578618	-0.323003	-0.152909
H182	H	1.078618	0.176997	0.347091
Cl183	Cl	0.668298	0.051272	0.593294
Cl184	Cl	1.168298	0.551272	1.093294
H185	H	-0.201272	0.241128	0.000121
H186	H	0.298728	0.741128	0.500121
H187	H	0.537545	0.240997	0.580641
H188	H	1.037545	0.740997	1.080641
H189	H	0.635371	-0.479810	0.091928
H190	H	1.135371	0.020190	0.591928
Cl191	Cl	0.634991	0.224847	0.591849
Cl192	Cl	1.134991	0.724847	1.091849
Cl193	Cl	-0.042776	-0.143819	0.000141
Cl194	Cl	0.457224	0.356181	0.500141
Cl195	Cl	0.484716	-0.458634	0.096082
Cl196	Cl	0.984716	0.041366	0.596082
Cl197	Cl	0.668287	0.049985	0.406832
Cl198	Cl	1.168287	0.549985	0.906832
H199	H	0.589913	-0.031908	0.578765
H200	H	1.089913	0.468092	1.078765
H201	H	0.497605	-0.303639	0.063110
H202	H	0.997605	0.196361	0.563110
H203	H	0.637272	-0.336825	0.091136
H204	H	1.137272	0.163175	0.591136
H205	H	-0.292744	0.239509	0.000128
H206	H	0.207256	0.739509	0.500128
H207	H	0.636755	-0.335639	-0.093278
H208	H	1.136755	0.164361	0.406722
H209	H	0.057293	-0.108193	0.000138
H210	H	0.557293	0.391807	0.500138
Cl211	Cl	-0.280463	-0.071558	0.000118
Cl212	Cl	0.219537	0.428442	0.500118
H213	H	0.636649	-0.479706	-0.087409
H214	H	1.136649	0.020294	0.412591
H215	H	0.630568	0.188843	0.419325
H216	H	1.130568	0.688843	0.919325
Cl217	Cl	0.308658	0.283969	0.000098
Cl218	Cl	0.808658	0.783969	0.500098
Cl219	Cl	0.422445	0.285961	0.000067
Cl220	Cl	0.922445	0.785961	0.500067
H221	H	0.176148	0.324223	0.000099
H222	H	0.676148	0.824223	0.500099
H223	H	-0.180391	-0.035937	0.000138
H224	H	0.319609	0.464063	0.500138
Cl225	Cl	0.108484	-0.141169	0.000136
Cl226	Cl	0.608484	0.358831	0.500136
Cl227	Cl	0.334628	-0.060733	0.000108
Cl228	Cl	0.834628	0.439267	0.500108
Cl229	Cl	0.222268	-0.139157	0.000154
Cl230	Cl	0.722268	0.360843	0.500154
Cl231	Cl	-0.080283	0.353560	0.000130
Cl232	Cl	0.419717	0.853560	0.500130
H233	H	0.434719	-0.025103	0.000084
H234	H	0.934719	0.474897	0.500084
Cl235	Cl	0.473361	0.159763	0.406090
Cl236	Cl	0.973361	0.659763	0.906090
Cl237	Cl	0.473087	0.159739	0.593512
Cl238	Cl	0.973087	0.659739	1.093512
Cl239	Cl	0.033514	0.355577	0.000118
Cl240	Cl	0.533514	0.855577	0.500118
