data_functionalizedCrystal
_audit_creation_method	'MofGen! by Chris Wilmer'
_symmetry_space_group_name_H-M	'P1'
_symmetry_Int_Tables_number	1
_symmetry_cell_setting	triclinic
loop_
_symmetry_equiv_pos_as_xyz
  x,y,z
_cell_length_a	10.723024
_cell_length_b	9.798715
_cell_length_c	10.723024
_cell_angle_alpha	89.998022
_cell_angle_beta	95.532131
_cell_angle_gamma	90.004017
loop_
_atom_site_label
_atom_site_type_symbol
_atom_site_fract_x
_atom_site_fract_y
_atom_site_fract_z
O1	O	-1.657187	-0.113498	0.175024
O2	O	-1.294035	-0.113498	0.191778
O3	O	-1.483988	-0.113493	0.001825
O4	O	-1.467234	-0.113503	0.364977
O5	O	-1.483974	0.113489	0.001824
O6	O	-1.294021	0.113484	0.191777
O7	O	-1.657173	0.113484	0.175024
Zn8	Zn	-1.475595	0.149522	0.183401
Zn9	Zn	-1.475613	-0.149537	0.183401
O10	O	-1.467220	0.113479	0.364977
C11	C	-1.247528	-0.000007	0.190558
C12	C	-1.108974	-0.000007	0.186911
C13	C	-1.482762	-0.000004	-0.044675
C14	C	-1.479114	-0.000009	-0.183229
C15	C	-1.033991	-0.000010	0.293198
C16	C	-0.890788	-0.000010	0.289431
N17	N	-1.475591	0.353622	0.183399
C18	C	-0.703680	-0.000007	0.176243
C19	C	-0.842234	-0.000007	0.179891
N20	N	-1.475627	-0.353636	0.183393
C21	C	-1.555347	0.421401	0.103292
C22	C	-1.555367	0.578564	0.103288
C23	C	-1.585401	-0.000010	-0.258212
C24	C	-1.581634	-0.000015	-0.401415
C25	C	-1.468447	-0.000014	0.411477
C26	C	-1.472094	-0.000018	0.550031
H27	H	-0.826355	-0.000018	0.380421
H28	H	-1.381099	-0.000007	-0.385544
H29	H	-0.906659	-0.000013	0.088896
C30	C	-1.352407	-0.000011	-0.239713
C31	C	-1.318927	0.117851	-0.325449
C32	C	-1.192215	0.117848	-0.381929
C33	C	-1.098984	-0.000017	-0.352673
C34	C	-1.132462	-0.117888	-0.266933
C35	C	-1.259173	-0.117885	-0.210453
H36	H	-1.387944	0.205110	-0.347110
H37	H	-1.167434	0.205105	-0.445400
H38	H	-1.005185	-0.000019	-0.394483
H39	H	-1.063444	-0.205147	-0.245272
H40	H	-1.283955	-0.205142	-0.146982
H41	H	-1.407319	0.411945	0.251975
C42	C	-1.647579	0.342627	0.010638
C43	C	-1.647312	0.185471	0.010653
C44	C	-1.739548	0.106703	-0.082005
C45	C	-1.832051	0.185091	-0.174678
C46	C	-1.832322	0.342256	-0.174697
C47	C	-1.740086	0.421024	-0.082039
H48	H	-1.578832	0.127436	0.079259
H49	H	-1.739347	-0.009642	-0.081991
H50	H	-1.900329	0.126782	-0.243269
H51	H	-1.900801	0.400291	-0.243303
H52	H	-1.740286	0.537368	-0.082053
C53	C	-1.052490	-0.000004	0.060204
C54	C	-1.081732	0.117865	-0.033036
C55	C	-1.025252	0.117868	-0.159747
C56	C	-0.939530	0.000003	-0.193219
C57	C	-0.910284	-0.117874	-0.099978
C58	C	-0.966763	-0.117877	0.026734
H59	H	-1.145192	0.205123	-0.008260
H60	H	-1.046903	0.205129	-0.228771
H61	H	-0.897720	0.000006	-0.287019
H62	H	-0.846823	-0.205132	-0.124754
H63	H	-0.945113	-0.205138	0.095757
C64	C	-1.383372	0.567641	0.276054
C65	C	-1.288099	0.468574	0.226635
C66	C	-1.195845	0.389840	0.319296
C67	C	-1.198863	0.410173	0.461375
C68	C	-1.294140	0.509245	0.510801
C69	C	-1.386395	0.587979	0.418140
H70	H	-1.285861	0.453518	0.121453
H71	H	-1.125314	0.316501	0.282707
H72	H	-1.130571	0.351890	0.529969
H73	H	-1.296378	0.524301	0.615983
H74	H	-1.456925	0.661319	0.454729
H75	H	-1.075814	-0.000005	0.386984
H76	H	-1.623654	0.636851	0.034709
H77	H	-1.679187	-0.000002	-0.216390
H78	H	-1.672624	-0.000011	-0.465848
