data_functionalizedCrystal
_audit_creation_method	'MofGen! by Chris Wilmer'
_symmetry_space_group_name_H-M	'P1'
_symmetry_Int_Tables_number	1
_symmetry_cell_setting	triclinic
loop_
_symmetry_equiv_pos_as_xyz
  x,y,z
_cell_length_a	14.971491
_cell_length_b	16.109304
_cell_length_c	14.048226
_cell_angle_alpha	89.996377
_cell_angle_beta	89.991693
_cell_angle_gamma	83.539437
loop_
_atom_site_label
_atom_site_type_symbol
_atom_site_fract_x
_atom_site_fract_y
_atom_site_fract_z
O1	O	1.186789	0.108368	-0.079195
O2	O	1.686789	0.608368	0.420805
O3	O	0.926371	0.121338	-0.079188
O4	O	1.426371	0.621338	0.420812
O5	O	1.063733	-0.006169	-0.079192
O6	O	1.563733	0.493831	0.420808
O7	O	1.049427	0.235875	-0.079191
O8	O	1.549427	0.735875	0.420809
O9	O	1.063716	-0.006176	0.079129
O10	O	1.563716	0.493824	0.579129
O11	O	0.926354	0.121331	0.079134
O12	O	1.426354	0.621331	0.579134
O13	O	1.186773	0.108361	0.079126
O14	O	1.686773	0.608361	0.579126
Zn15	Zn	1.056561	0.114844	0.104267
Zn16	Zn	1.556561	0.614844	0.604267
Zn17	Zn	1.056583	0.114854	-0.104328
Zn18	Zn	1.556583	0.614854	0.395672
O19	O	1.049411	0.235867	0.079131
O20	O	1.549411	0.735867	0.579131
C21	C	0.893039	0.120754	-0.000026
C22	C	1.393039	0.620754	0.499974
C23	C	0.793745	0.119013	-0.000023
C24	C	1.293745	0.619013	0.499977
C25	C	0.366059	0.111507	-0.086346
C26	C	0.866059	0.611507	0.413654
C27	C	0.459357	0.113140	-0.086343
C28	C	0.959357	0.613140	0.413657
C29	C	0.505992	0.113957	-0.000038
C30	C	1.005992	0.613957	0.499962
C31	C	0.459326	0.113134	0.086268
C32	C	0.959326	0.613134	0.586268
C33	C	0.366031	0.111495	0.086263
C34	C	0.866031	0.611495	0.586263
C35	C	0.653783	0.116552	0.086271
C36	C	1.153783	0.616552	0.586271
C37	C	0.747085	0.118192	0.086276
C38	C	1.247085	0.618192	0.586276
C39	C	0.747109	0.118196	-0.086335
C40	C	1.247109	0.618196	0.413665
C41	C	0.653814	0.116558	-0.086339
C42	C	1.153814	0.616558	0.413661
C43	C	0.607154	0.115736	-0.000032
C44	C	1.107154	0.615736	0.499968
C45	C	1.063144	-0.037148	-0.000034
C46	C	1.563144	0.462852	0.499966
C47	C	1.061406	-0.129445	-0.000040
C48	C	1.561406	0.370555	0.499960
C49	C	1.057398	-0.341784	-0.086337
C50	C	1.557398	0.158216	0.413663
C51	C	1.055756	-0.428506	-0.086336
C52	C	1.555756	0.071494	0.413664
C53	C	1.055743	-0.428511	0.086274
C54	C	1.555743	0.071489	0.586274
C55	C	1.057378	-0.341790	0.086272
C56	C	1.557378	0.158210	0.586272
C57	C	1.058210	-0.298429	-0.000036
C58	C	1.558210	0.201571	0.499964
C59	C	1.054933	-0.471872	-0.000033
C60	C	1.554933	0.028128	0.499967
C61	C	1.053153	-0.565900	-0.000032
C62	C	1.553153	-0.065900	0.499968
C63	C	1.059989	-0.204394	-0.000038
C64	C	1.559989	0.295606	0.499962
C65	C	1.220105	0.108945	-0.000038
C66	C	1.720105	0.608945	0.499962
C67	C	1.319399	0.110686	-0.000047
C68	C	1.819399	0.610686	0.499953
C69	C	1.049999	0.266847	-0.000030
C70	C	1.549999	0.766847	0.499970
C71	C	1.051738	0.359144	-0.000030
C72	C	1.551738	0.859144	0.499970
N73	N	1.056553	0.114837	0.246628
N74	N	1.556553	0.614837	0.746628
N75	N	1.056598	0.114855	-0.246689
N76	N	1.556598	0.614855	0.253311
C77	C	1.117395	0.058400	0.296444
C78	C	1.617395	0.558400	0.796444
C79	C	1.117401	0.058400	0.396101
C80	C	1.617401	0.558400	0.896101
C81	C	1.056568	0.114841	0.445941
C82	C	1.556568	0.614841	0.945941
C83	C	0.995719	0.171280	0.396118
C84	C	1.495719	0.671280	0.896118
C85	C	0.995709	0.171276	0.296462
C86	C	1.495709	0.671276	0.796462
C87	C	0.995745	0.171286	0.603832
C88	C	1.495745	0.671286	1.103832
C89	C	0.995755	0.171292	0.703495
C90	C	1.495755	0.671292	1.203495
C91	C	1.117437	0.058410	0.703471
C92	C	1.617437	0.558410	1.203471
C93	C	1.117427	0.058406	0.603815
C94	C	1.617427	0.558406	1.103815
C95	C	1.056579	0.114847	0.553999
C96	C	1.556579	0.614847	1.053999
H97	H	0.615845	0.115897	-0.156616
H98	H	1.115845	0.615897	0.343384
H99	H	0.328040	0.110835	0.156537
H100	H	0.828040	0.610835	0.656537
H101	H	1.058035	-0.306489	0.156553
H102	H	1.558035	0.193511	0.656553
H103	H	1.055067	-0.463826	0.156544
H104	H	1.555067	0.036174	0.656544
Cl105	Cl	0.595128	0.115509	0.194773
Cl106	Cl	1.095128	0.615509	0.694773
Cl107	Cl	1.193881	-0.012555	0.233798
Cl108	Cl	1.693881	0.487445	0.733798
Cl109	Cl	0.517954	0.114160	0.194766
Cl110	Cl	1.017954	0.614160	0.694766
H111	H	0.328094	0.110847	-0.156625
H112	H	0.828094	0.610847	0.343375
H113	H	1.166944	0.012444	0.436661
H114	H	1.666944	0.512444	0.936661
Cl115	Cl	1.058439	-0.287275	-0.194839
Cl116	Cl	1.558439	0.212725	0.305161
H117	H	0.946218	0.217251	0.744070
H118	H	1.446218	0.717251	1.244070
Cl119	Cl	1.054733	-0.483005	-0.194834
Cl120	Cl	1.554733	0.016995	0.305166
Cl121	Cl	1.193908	-0.012543	0.541158
Cl122	Cl	1.693908	0.487457	1.041158
Cl123	Cl	0.518011	0.114168	-0.194839
Cl124	Cl	1.018011	0.614168	0.305161
Cl125	Cl	0.805765	0.119240	-0.194834
Cl126	Cl	1.305765	0.619240	0.305166
Cl127	Cl	1.193932	-0.012541	0.766100
Cl128	Cl	1.693932	0.487459	1.266100
Cl129	Cl	0.919245	0.242241	0.541210
Cl130	Cl	1.419245	0.742241	1.041210
Cl131	Cl	0.919237	0.242232	0.458772
Cl132	Cl	1.419237	0.742232	0.958772
Cl133	Cl	0.919214	0.242226	0.233837
Cl134	Cl	1.419214	0.742226	0.733837
Cl135	Cl	0.805712	0.119214	0.194775
Cl136	Cl	1.305712	0.619214	0.694775
