data_functionalizedCrystal
_audit_creation_method	'MofGen! by Chris Wilmer'
_symmetry_space_group_name_H-M	'P1'
_symmetry_Int_Tables_number	1
_symmetry_cell_setting	triclinic
loop_
_symmetry_equiv_pos_as_xyz
  x,y,z
_cell_length_a	10.654550
_cell_length_b	16.992695
_cell_length_c	9.730223
_cell_angle_alpha	89.998169
_cell_angle_beta	89.996251
_cell_angle_gamma	87.576563
loop_
_atom_site_label
_atom_site_type_symbol
_atom_site_fract_x
_atom_site_fract_y
_atom_site_fract_z
O1	O	1.677356	0.110186	-0.114405
O2	O	1.312785	0.120685	-0.114384
O3	O	1.493609	0.001285	-0.114383
O4	O	1.496532	0.229586	-0.114405
O5	O	1.493607	0.001288	0.114196
O6	O	1.312783	0.120688	0.114196
O7	O	1.677354	0.110189	0.114175
Zn8	Zn	1.495068	0.115439	0.150477
Zn9	Zn	1.495071	0.115435	-0.150686
O10	O	1.496530	0.229589	0.114174
C11	C	1.265919	0.119915	-0.000091
C12	C	1.126277	0.117609	-0.000082
C13	C	1.052866	0.187910	-0.000109
C14	C	0.921658	0.185738	-0.000132
C15	C	0.937282	0.042959	-0.000108
C16	C	1.068488	0.045131	-0.000075
C17	C	1.043844	0.270342	-0.000129
C18	C	0.912636	0.268171	-0.000152
C19	C	1.489848	-0.027947	-0.000093
C20	C	1.478628	-0.115052	-0.000093
C21	C	1.586879	-0.164704	-0.000098
C22	C	1.576330	-0.246548	-0.000111
C23	C	1.457529	-0.278738	-0.000108
C24	C	1.349270	-0.229080	-0.000107
C25	C	1.359820	-0.147237	-0.000105
C26	C	1.413802	-0.522574	-0.000124
C27	C	1.403260	-0.604422	-0.000123
C28	C	1.630321	-0.621884	-0.000129
C29	C	1.640861	-0.540040	-0.000118
C30	C	1.532602	-0.490389	-0.000124
N31	N	1.446743	-0.362396	-0.000116
N32	N	1.543389	-0.406733	-0.000126
C33	C	1.724220	0.110959	-0.000121
C34	C	1.863862	0.113265	-0.000139
C35	C	1.500291	0.258821	-0.000119
C36	C	1.511510	0.345926	-0.000128
N37	N	1.495075	0.115441	0.356014
N38	N	1.495073	0.115427	-0.356223
C39	C	1.575168	0.062589	0.427940
C40	C	1.575164	0.062580	0.571823
C41	C	1.414971	0.168281	0.571841
C42	C	1.414970	0.168286	0.427961
C43	C	1.667658	0.001565	0.427931
C44	C	1.667654	0.001556	0.571814
H45	H	1.081769	0.296589	-0.098819
N46	N	1.243074	-0.093673	-0.000071
H47	H	1.242388	-0.059322	-0.084801
H48	H	1.166270	-0.126531	-0.000008
H49	H	0.869116	0.293084	0.098529
H50	H	1.075960	0.302583	0.095534
N51	N	1.328562	0.225276	0.350380
H52	H	1.277818	0.258750	0.417794
H53	H	1.380124	0.260248	0.290674
N54	N	1.620754	-0.073930	0.630940
H55	H	1.598093	-0.110396	0.553681
H56	H	1.688761	-0.100184	0.689373
N57	N	1.297039	-0.469031	-0.000125
H58	H	1.321740	-0.412298	-0.000135
H59	H	1.245630	-0.479529	-0.084864
N60	N	0.860897	0.309308	-0.126870
H61	H	0.932447	0.329227	-0.183406
H62	H	0.812378	0.271047	-0.183310
N63	N	1.715016	-0.129987	-0.000088
H64	H	1.781990	-0.173863	-0.000095
H65	H	1.724342	-0.096406	-0.084823
H66	H	1.664480	-0.286971	-0.000112
N67	N	1.768996	-0.505321	-0.000113
H68	H	1.835974	-0.549195	-0.000117
H69	H	1.778323	-0.471740	-0.084847
H70	H	1.718459	-0.662319	-0.000126
H71	H	1.349751	0.211306	0.630436
H72	H	1.765327	0.014998	0.610857
H73	H	1.306513	-0.630628	-0.000099
H74	H	1.760493	0.020673	0.383297
H75	H	1.252539	-0.255296	-0.000114
N76	N	0.874939	-0.035205	-0.000110
H77	H	0.901206	-0.066041	-0.084834
H78	H	0.901186	-0.065972	0.084691
N79	N	1.147657	-0.030697	-0.000017
H80	H	1.128264	-0.062294	-0.084745
H81	H	1.239517	-0.018266	0.000062
H82	H	1.641004	-0.058735	0.388884
