data_functionalizedCrystal
_audit_creation_method	'MofGen! by Chris Wilmer'
_symmetry_space_group_name_H-M	'P1'
_symmetry_Int_Tables_number	1
_symmetry_cell_setting	triclinic
loop_
_symmetry_equiv_pos_as_xyz
  x,y,z
_cell_length_a	19.288867
_cell_length_b	14.044190
_cell_length_c	17.766277
_cell_angle_alpha	89.989261
_cell_angle_beta	89.992126
_cell_angle_gamma	88.164423
loop_
_atom_site_label
_atom_site_type_symbol
_atom_site_fract_x
_atom_site_fract_y
_atom_site_fract_z
O1	O	0.928950	0.118224	-0.062576
O2	O	0.727715	0.134169	-0.062584
O3	O	0.825309	-0.011776	-0.062566
O4	O	0.831356	0.264168	-0.062595
O5	O	0.825290	-0.011783	0.062623
O6	O	0.727695	0.134161	0.062604
O7	O	0.928931	0.118216	0.062612
Cu8	Cu	0.828312	0.126188	0.074039
Cu9	Cu	0.828334	0.126197	-0.074011
O10	O	0.831336	0.264161	0.062594
C11	C	0.701796	0.133652	0.000009
C12	C	0.624593	0.132111	0.000006
C13	C	0.822655	-0.047083	0.000031
C14	C	0.814765	-0.152275	0.000037
C15	C	0.068325	0.121014	-0.068224
C16	C	0.140865	0.122457	-0.068227
C17	C	0.177130	0.123178	0.000013
C18	C	0.140849	0.122433	0.068261
C19	C	0.068311	0.120981	0.068262
C20	C	0.290164	0.180977	0.052288
C21	C	0.362701	0.182435	0.052284
C22	C	0.400863	0.127652	0.000013
C23	C	0.366479	0.071423	-0.052267
C24	C	0.293940	0.069972	-0.052266
C25	C	0.255786	0.124752	0.000020
C26	C	0.515792	0.129954	-0.068234
C27	C	0.588333	0.131391	-0.068234
C28	C	0.588316	0.131377	0.068256
C29	C	0.515776	0.129931	0.068254
C30	C	0.479518	0.129224	0.000007
C31	C	0.856297	-0.402738	0.000009
C32	C	0.800352	-0.344871	0.000012
C33	C	0.808373	-0.237701	0.000026
C34	C	0.848277	-0.509918	-0.000005
C35	C	0.954850	0.118734	0.000017
C36	C	1.032053	0.120275	0.000015
C37	C	0.833991	0.299468	-0.000004
C38	C	0.841881	0.404660	-0.000016
N39	N	0.828301	0.126182	0.178169
N40	N	0.828350	0.126196	-0.178141
C41	C	0.871533	0.061589	0.217565
C42	C	0.871537	0.061585	0.296366
C43	C	0.828316	0.126189	0.335770
C44	C	0.785075	0.190787	0.296365
C45	C	0.785067	0.190783	0.217565
C46	C	0.824566	0.212532	0.460598
C47	C	0.824579	0.212537	0.539397
C48	C	0.828335	0.126200	0.578816
C49	C	0.832093	0.039855	0.539427
C50	C	0.832086	0.039851	0.460626
C51	C	0.828319	0.126200	0.421216
C52	C	0.871574	0.061598	0.703657
C53	C	0.871572	0.061592	0.782461
C54	C	0.785115	0.190802	0.782458
C55	C	0.785112	0.190800	0.703656
C56	C	0.828345	0.126198	0.664261
H57	H	0.038808	0.120435	-0.123796
C58	C	0.408451	0.011156	-0.109770
N59	N	0.440068	-0.034235	-0.153079
H60	H	0.835152	-0.030449	0.571520
C61	C	0.929136	-0.360934	0.000031
N62	N	0.983997	-0.329435	0.000053
H63	H	0.746432	-0.375817	0.000006
C64	C	0.919084	-0.009484	0.174234
N65	N	0.954897	-0.063019	0.141596
C66	C	0.180772	0.123281	-0.143298
N67	N	0.210828	0.123907	-0.199842
C68	C	0.919121	-0.009485	0.825795
N69	N	0.954932	-0.063026	0.858436
C70	C	0.919105	-0.009466	0.339710
N71	N	0.954936	-0.062977	0.372354
C72	C	0.836211	-0.055127	0.417301
N73	N	0.839313	-0.126666	0.384668
C74	C	0.400517	0.244286	0.109793
N75	N	0.428998	0.290872	0.153112
H76	H	0.486269	0.129376	-0.123805
C77	C	0.248193	0.241241	0.109798
N78	N	0.216582	0.286628	0.153115
H79	H	0.617842	0.131961	0.123818
H80	H	0.170381	0.123019	0.123823
H81	H	0.906775	0.008992	0.671580
C82	C	0.737571	0.261869	0.825797
N83	N	0.701760	0.315398	0.858444
H84	H	0.038778	0.120382	0.123832
H85	H	0.265947	0.024187	-0.094833
C86	C	0.628233	0.132193	-0.143307
N87	N	0.658286	0.132796	-0.199853
H88	H	0.749911	0.243401	0.671578
H89	H	0.821523	0.282845	0.571462
C90	C	0.820434	0.307516	0.417246
N91	N	0.817322	0.379055	0.384593
C92	C	0.737529	0.261848	0.339710
N93	N	0.701713	0.315370	0.372358
C94	C	0.737539	0.261884	0.174229
N95	N	0.701753	0.315454	0.141587
H96	H	0.486242	0.129332	0.123822
