data_functionalizedCrystal
_audit_creation_method	'MofGen! by Chris Wilmer'
_symmetry_space_group_name_H-M	'P1'
_symmetry_Int_Tables_number	1
_symmetry_cell_setting	triclinic
loop_
_symmetry_equiv_pos_as_xyz
  x,y,z
_cell_length_a	16.109301
_cell_length_b	10.489741
_cell_length_c	14.586319
_cell_angle_alpha	89.996488
_cell_angle_beta	89.998857
_cell_angle_gamma	84.000379
loop_
_atom_site_label
_atom_site_type_symbol
_atom_site_fract_x
_atom_site_fract_y
_atom_site_fract_z
O1	O	1.104141	0.163948	-0.076189
O2	O	1.604141	0.663948	0.423811
O3	O	0.862205	0.184351	-0.076202
O4	O	1.362205	0.684351	0.423798
O5	O	0.988678	-0.011528	-0.076190
O6	O	1.488678	0.488472	0.423810
O7	O	0.977668	0.359827	-0.076202
O8	O	1.477668	0.859827	0.423798
O9	O	0.988669	-0.011531	0.076291
O10	O	1.488669	0.488469	0.576291
O11	O	0.862196	0.184348	0.076279
O12	O	1.362196	0.684348	0.576279
O13	O	1.104132	0.163946	0.076291
O14	O	1.604132	0.663946	0.576291
Cu15	Cu	0.983163	0.174147	0.090208
Cu16	Cu	1.483163	0.674147	0.590208
Cu17	Cu	0.983174	0.174150	-0.090119
Cu18	Cu	1.483174	0.674150	0.409881
O19	O	0.977659	0.359825	0.076279
O20	O	1.477659	0.859825	0.576279
C21	C	0.831221	0.183523	0.000037
C22	C	1.331221	0.683523	0.500037
C23	C	0.738910	0.181045	0.000032
C24	C	1.238910	0.681045	0.500032
C25	C	0.430578	0.289176	0.000044
C26	C	0.930578	0.789176	0.500044
C27	C	0.517313	0.291516	0.000039
C28	C	1.017313	0.791516	0.500039
C29	C	0.535754	0.059112	0.000034
C30	C	1.035754	0.559112	0.500034
C31	C	0.449021	0.056773	0.000033
C32	C	0.949021	0.556773	0.500033
C33	C	0.396435	0.171809	0.000043
C34	C	0.896435	0.671809	0.500043
C35	C	0.569903	0.176488	0.000038
C36	C	1.069903	0.676488	0.500038
C37	C	0.663944	0.179024	0.000033
C38	C	1.163944	0.679024	0.500033
C39	C	0.302387	0.169273	0.000047
C40	C	0.802387	0.669273	0.500047
C41	C	0.987842	-0.059049	0.000050
C42	C	1.487842	0.440951	0.500050
C43	C	0.985354	-0.200642	0.000048
C44	C	1.485354	0.299358	0.500048
C45	C	0.904883	-0.267615	0.000037
C46	C	1.404883	0.232385	0.500037
C47	C	0.942893	-0.360291	0.075220
C48	C	1.442893	0.139709	0.575220
C49	C	0.942920	-0.360263	-0.075114
C50	C	1.442920	0.139737	0.424886
C51	C	1.023397	-0.291453	0.075293
C52	C	1.523397	0.208547	0.575293
C53	C	1.023414	-0.291415	-0.075109
C54	C	1.523414	0.208585	0.424891
C55	C	1.061481	-0.384064	0.000093
C56	C	1.561481	0.115936	0.500093
C57	C	1.135117	0.164773	0.000051
C58	C	1.635117	0.664773	0.500051
C59	C	1.227427	0.167251	0.000049
C60	C	1.727427	0.667251	0.500049
C61	C	0.978495	0.407346	0.000037
C62	C	1.478495	0.907346	0.500037
C63	C	0.980983	0.548939	0.000033
C64	C	1.480983	1.048939	0.500033
N65	N	0.983162	0.174143	0.217039
N66	N	1.483162	0.674143	0.717039
N67	N	0.983182	0.174143	-0.216950
N68	N	1.483182	0.674143	0.283050
C69	C	1.039183	0.087437	0.452051
C70	C	1.539183	0.587437	0.952051
C71	C	1.039186	0.087434	0.548033
C72	C	1.539186	0.587434	1.048033
C73	C	0.927155	0.260853	0.548031
C74	C	1.427155	0.760853	1.048031
C75	C	0.927149	0.260849	0.452052
C76	C	1.427149	0.760849	0.952052
C77	C	0.983168	0.174143	0.404064
C78	C	1.483168	0.674143	0.904064
C79	C	0.983176	0.174144	0.596025
C80	C	1.483176	0.674144	1.096025
C81	C	0.983178	0.174141	0.700092
C82	C	1.483178	0.674141	1.200092
C83	C	0.983165	0.174143	0.299990
C84	C	1.483165	0.674143	0.799990
H85	H	0.545108	0.387087	0.000040
H86	H	1.045108	0.887087	0.500040
N87	N	0.897786	-0.400704	0.159412
N88	N	1.397786	0.099296	0.659412
H89	H	0.847832	-0.445014	0.140234
H90	H	1.347832	0.054986	0.640234
H91	H	0.936846	-0.461502	0.197042
H92	H	1.436846	0.038498	0.697042
H93	H	0.881530	0.331456	0.412978
H94	H	1.381530	0.831456	0.912978
N95	N	1.068459	-0.251284	0.159582
N96	N	1.568459	0.248716	0.659582
H97	H	1.069841	-0.155247	0.159081
H98	H	1.569841	0.344753	0.659081
H99	H	1.038261	-0.277000	0.216249
H100	H	1.538261	0.223000	0.716249
N101	N	1.068489	-0.250944	-0.159298
N102	N	1.568489	0.249056	0.340702
H103	H	1.038045	-0.275683	-0.216063
H104	H	1.538045	0.224317	0.283937
H105	H	1.070302	-0.155005	-0.158264
H106	H	1.570302	0.344995	0.341736
H107	H	0.578579	-0.034546	0.000028
H108	H	1.078579	0.465454	0.500028
H109	H	0.908865	-0.390731	-0.138682
H110	H	1.408865	0.109269	0.361318
H111	H	1.127704	-0.434449	0.000138
H112	H	1.627704	0.065551	0.500138
H113	H	0.421221	-0.038807	0.000028
H114	H	0.921221	0.461193	0.500028
N115	N	0.817245	-0.200573	0.000121
N116	N	1.317245	0.299427	0.500121
H117	H	0.786955	-0.225429	0.056964
H118	H	1.286955	0.274571	0.556964
H119	H	0.819613	-0.104744	-0.000495
H120	H	1.319613	0.395256	0.499505
H121	H	1.084796	0.016834	0.412982
H122	H	1.584796	0.516834	0.912982
N123	N	1.099614	-0.006066	0.599791
N124	N	1.599614	0.493934	1.099791
H125	H	1.135102	-0.060984	0.554824
H126	H	1.635102	0.439016	1.054824
H127	H	1.136654	0.042805	0.639601
H128	H	1.636654	0.542805	1.139601
N129	N	0.866737	0.354369	0.599789
N130	N	1.366737	0.854369	1.099789
H131	H	0.875240	0.341219	0.667874
H132	H	1.375240	0.841219	1.167874
H133	H	0.876879	0.444858	0.583004
H134	H	1.376879	0.944858	1.083004
H135	H	0.387765	0.382845	0.000052
H136	H	0.887765	0.882845	0.500052
