data_functionalizedCrystal
_audit_creation_method	'MofGen! by Chris Wilmer'
_symmetry_space_group_name_H-M	'P1'
_symmetry_Int_Tables_number	1
_symmetry_cell_setting	triclinic
loop_
_symmetry_equiv_pos_as_xyz
  x,y,z
_cell_length_a	16.109318
_cell_length_b	14.044220
_cell_length_c	14.586319
_cell_angle_alpha	89.995213
_cell_angle_beta	90.000075
_cell_angle_gamma	88.328720
loop_
_atom_site_label
_atom_site_type_symbol
_atom_site_fract_x
_atom_site_fract_y
_atom_site_fract_z
O1	O	1.112192	0.121913	-0.076166
O2	O	0.871259	0.137058	-0.076185
O3	O	0.988109	-0.008498	-0.076167
O4	O	0.995342	0.267470	-0.076184
O5	O	0.988100	-0.008500	0.076314
O6	O	0.871250	0.137056	0.076296
O7	O	1.112183	0.121911	0.076315
Cu8	Cu	0.991716	0.129484	0.090228
Cu9	Cu	0.991726	0.129486	-0.090098
O10	O	0.995333	0.267468	0.076297
C11	C	0.840234	0.136441	0.000053
C12	C	0.747802	0.134593	0.000046
C13	C	0.984939	-0.043813	0.000074
C14	C	0.975495	-0.149036	0.000074
C15	C	0.448289	0.128626	-0.083054
C16	C	0.535139	0.130356	-0.083060
C17	C	0.535147	0.130341	0.083183
C18	C	0.448299	0.128604	0.083188
C19	C	0.404872	0.127752	0.000066
C20	C	0.578570	0.131218	0.000056
C21	C	0.672737	0.133094	0.000050
C22	C	0.310699	0.125874	0.000071
C23	C	0.958230	-0.341693	0.000060
C24	C	1.025209	-0.399342	0.000062
C25	C	1.015602	-0.506544	0.000054
C26	C	0.967835	-0.234482	0.000068
C27	C	1.143208	0.122529	0.000075
C28	C	1.235640	0.124377	0.000076
C29	C	0.998503	0.302782	0.000054
C30	C	1.007947	0.408006	0.000048
N31	N	0.991714	0.129481	0.217060
N32	N	0.991734	0.129481	-0.216930
C33	C	1.043476	0.065051	0.452074
C34	C	1.043478	0.065048	0.548056
C35	C	0.939967	0.193915	0.548049
C36	C	0.939961	0.193912	0.452069
C37	C	0.991720	0.129481	0.404085
C38	C	0.991728	0.129481	0.596045
C39	C	0.991730	0.129479	0.700112
C40	C	0.991717	0.129481	0.300011
H41	H	0.412933	0.127931	-0.150737
H42	H	0.570485	0.131067	-0.150745
H43	H	0.570516	0.131037	0.150857
H44	H	1.085621	0.012582	0.587126
O45	O	0.406245	0.127800	0.164018
C46	C	0.415413	0.127908	0.328908
C47	C	0.463141	0.128849	0.237441
H48	H	0.461393	0.128736	0.388294
H49	H	0.372081	0.193404	0.333128
H50	H	0.377423	0.060814	0.333012
H51	H	0.501178	0.195899	0.233276
H52	H	0.506422	0.063308	0.233260
O53	O	1.102167	-0.362025	0.000118
C54	C	1.182030	-0.219596	0.000091
C55	C	1.094832	-0.261736	0.000045
H56	H	1.176130	-0.138508	0.000012
H57	H	1.217262	-0.244495	0.063923
H58	H	1.217259	-0.244599	-0.063703
H59	H	1.059534	-0.236753	0.063795
H60	H	1.059664	-0.236842	-0.063830
O61	O	0.889801	0.256547	0.405347
C62	C	0.881704	0.386025	0.297009
C63	C	0.938601	0.315137	0.349848
H64	H	0.921137	0.433427	0.252141
H65	H	0.837149	0.345135	0.252019
H66	H	0.844698	0.432038	0.347809
H67	H	0.975661	0.269106	0.299114
H68	H	0.983103	0.356085	0.394851
O69	O	1.093610	0.002382	0.405381
C70	C	1.101631	-0.127171	0.297142
C71	C	1.044774	-0.056209	0.349932
H72	H	1.062169	-0.174573	0.252314
H73	H	1.146206	-0.086343	0.252117
H74	H	1.138616	-0.173176	0.347974
H75	H	1.007736	-0.010186	0.299166
H76	H	1.000253	-0.097095	0.394971
O77	O	0.881277	-0.379010	0.000098
C78	C	0.801425	-0.521448	0.000041
C79	C	0.888620	-0.479298	0.000014
H80	H	0.807332	-0.602536	-0.000046
H81	H	0.766185	-0.496572	0.063872
H82	H	0.766202	-0.496430	-0.063754
H83	H	0.923912	-0.504298	0.063767
H84	H	0.923798	-0.504170	-0.063858
O85	O	0.889774	0.256470	0.594805
C86	C	0.843875	0.313555	0.742663
C87	C	0.900772	0.242671	0.689830
H88	H	0.852735	0.302410	0.819500
H89	H	0.860340	0.389499	0.723849
H90	H	0.776378	0.301188	0.723745
H91	H	0.968287	0.254951	0.708719
H92	H	0.884237	0.166752	0.708649
