data_functionalizedCrystal
_audit_creation_method	'MofGen! by Chris Wilmer'
_symmetry_space_group_name_H-M	'P1'
_symmetry_Int_Tables_number	1
_symmetry_cell_setting	triclinic
loop_
_symmetry_equiv_pos_as_xyz
  x,y,z
_cell_length_a	14.044220
_cell_length_b	10.489741
_cell_length_c	12.503572
_cell_angle_alpha	93.559494
_cell_angle_beta	86.164750
_cell_angle_gamma	88.864026
loop_
_atom_site_label
_atom_site_type_symbol
_atom_site_fract_x
_atom_site_fract_y
_atom_site_fract_z
O1	O	1.265220	0.300990	-0.089205
O2	O	0.989177	0.289883	-0.089232
O3	O	1.133479	0.110477	-0.089211
O4	O	1.120918	0.480397	-0.089225
O5	O	1.122627	0.123993	0.089429
O6	O	0.978325	0.303400	0.089408
O7	O	1.254368	0.314507	0.089436
Cu8	Cu	1.115355	0.310188	0.105733
Cu9	Cu	1.128189	0.294203	-0.105530
O10	O	1.110065	0.493914	0.089415
C11	C	0.948403	0.291780	0.000085
C12	C	0.843079	0.277280	0.000074
C13	C	0.650235	0.250773	0.000097
C14	C	0.593304	0.353611	0.000097
C15	C	0.485999	0.338862	0.000110
C16	C	0.757550	0.265520	0.000084
C17	C	1.127104	0.069607	0.000108
C18	C	1.124266	-0.072311	0.000106
C19	C	1.032451	-0.149764	0.000089
C20	C	1.070473	-0.230823	0.088172
C21	C	1.081194	-0.244122	-0.087953
C22	C	1.162321	-0.151494	0.088262
C23	C	1.173035	-0.164791	-0.087943
C24	C	1.211122	-0.245814	0.000162
C25	C	1.295142	0.312610	0.000116
C26	C	1.400466	0.327110	0.000120
C27	C	1.116440	0.534783	0.000093
C28	C	1.119279	0.676700	0.000088
N29	N	1.106335	0.321431	0.254324
N30	N	1.137217	0.282950	-0.254121
C31	C	1.093067	0.337981	0.473438
C32	C	1.150482	0.266404	0.526773
C33	C	1.143099	0.275613	0.648695
C34	C	1.100449	0.328774	0.351504
H35	H	0.625152	0.452730	0.000088
H36	H	1.216375	-0.135444	-0.162407
O37	O	1.215638	0.184764	0.472177
C38	C	1.271427	-0.033607	0.437920
C39	C	1.197572	0.058766	0.499729
H40	H	1.256858	-0.135493	0.460191
H41	H	1.265928	-0.026914	0.347877
H42	H	1.346222	-0.006776	0.459992
H43	H	1.122744	0.031996	0.477748
H44	H	1.203155	0.052058	0.589758
H45	H	1.038372	0.406172	0.519337
O46	O	0.612096	0.132620	0.000051
C47	C	0.468798	0.010022	0.000122
C48	C	0.511881	0.143901	0.000153
H49	H	0.387767	0.019099	0.000227
H50	H	0.497838	-0.049739	-0.074661
H51	H	0.488902	-0.038408	0.074860
H52	H	0.491795	0.192441	-0.074535
H53	H	0.482842	0.203569	0.074985
H54	H	1.027100	-0.260141	0.162633
O55	O	0.942360	-0.099693	0.000370
C56	C	0.786562	-0.076294	0.093512
C57	C	0.888557	-0.133050	0.093335
H58	H	0.743027	-0.103264	0.168655
H59	H	0.789553	0.032181	0.092815
H60	H	0.751576	-0.115861	0.019143
H61	H	0.923602	-0.093582	0.167692
H62	H	0.885501	-0.241524	0.093976
O63	O	1.040378	-0.292459	-0.176907
C64	C	1.047186	-0.311979	-0.370324
C65	C	1.093528	-0.257195	-0.269682
H66	H	1.090126	-0.283466	-0.445358
H67	H	1.046078	-0.420594	-0.369968
H68	H	0.970996	-0.272358	-0.370146
H69	H	1.169736	-0.296718	-0.269794
H70	H	1.094561	-0.148580	-0.270077
O71	O	1.203165	-0.103082	0.177171
C72	C	1.251715	0.085819	0.276891
C73	C	1.205429	0.031162	0.176170
H74	H	1.253579	0.194360	0.276104
H75	H	1.208281	0.058206	0.351894
H76	H	1.327622	0.045334	0.277204
H77	H	1.129527	0.071618	0.175754
H78	H	1.248934	0.058764	0.101213
O79	O	1.301261	-0.295568	0.000414
C80	C	1.445823	-0.304367	0.093480
C81	C	1.343755	-0.247947	0.093334
H82	H	1.480217	-0.265867	0.168586
H83	H	1.443099	-0.412958	0.092835
H84	H	1.489742	-0.275976	0.019072
H85	H	1.299777	-0.276242	0.167729
H86	H	1.346551	-0.139366	0.093923
