data_functionalizedCrystal
_audit_creation_method	'MofGen! by Chris Wilmer'
_symmetry_space_group_name_H-M	'P1'
_symmetry_Int_Tables_number	1
_symmetry_cell_setting	triclinic
loop_
_symmetry_equiv_pos_as_xyz
  x,y,z
_cell_length_a	19.188930
_cell_length_b	17.666332
_cell_length_c	19.188924
_cell_angle_alpha	90.008552
_cell_angle_beta	83.143372
_cell_angle_gamma	90.023234
loop_
_atom_site_label
_atom_site_type_symbol
_atom_site_fract_x
_atom_site_fract_y
_atom_site_fract_z
O1	O	0.926147	0.063195	0.087169
O2	O	1.426147	0.563195	0.587169
O3	O	0.722836	0.063144	0.098903
O4	O	1.222836	0.563144	0.598903
O5	O	0.830361	0.063162	-0.008620
O6	O	1.330361	0.563162	0.491380
O7	O	0.818622	0.063177	0.194692
O8	O	1.318622	0.563177	0.694692
O9	O	0.830343	-0.062735	-0.008625
O10	O	1.330343	0.437265	0.491375
O11	O	0.722817	-0.062753	0.098898
O12	O	1.222817	0.437247	0.598898
O13	O	0.926129	-0.062702	0.087163
O14	O	1.426129	0.437298	0.587163
Cu15	Cu	0.824471	-0.074223	0.093030
Cu16	Cu	1.324471	0.425777	0.593030
Cu17	Cu	0.824493	0.074665	0.093037
Cu18	Cu	1.324493	0.574665	0.593037
O19	O	0.818603	-0.062720	0.194687
O20	O	1.318603	0.437280	0.694687
C21	C	0.696815	0.000189	0.098521
C22	C	1.196815	0.500189	0.598521
C23	C	0.619311	0.000169	0.097380
C24	C	1.119311	0.500169	0.597380
N25	N	0.824461	-0.178942	0.093025
N26	N	1.324461	0.321058	0.593025
C27	C	0.574386	0.000185	0.160471
C28	C	1.074386	0.500185	0.660471
C29	C	0.501562	0.000193	0.159399
C30	C	1.001562	0.500193	0.659399
C31	C	0.473667	0.000200	0.095233
C32	C	0.973667	0.500200	0.595233
C33	C	0.518602	0.000180	0.032134
C34	C	1.018602	0.500180	0.532134
C35	C	0.591424	0.000164	0.033207
C36	C	1.091424	0.500164	0.533207
N37	N	0.365694	0.043075	0.046188
N38	N	0.865694	0.543075	0.546188
N39	N	0.296516	0.043092	0.045172
N40	N	0.796516	0.543092	0.545172
C41	C	0.254258	0.000246	0.091995
C42	C	0.754258	0.500246	0.591995
N43	N	0.283791	-0.042607	0.139882
N44	N	0.783791	0.457393	0.639882
N45	N	0.352976	-0.042620	0.140899
N46	N	0.852976	0.457380	0.640899
C47	C	0.394704	0.000217	0.094062
C48	C	0.894704	0.500217	0.594062
C49	C	0.130368	0.000271	0.153928
C50	C	0.630368	0.500271	0.653928
C51	C	0.057543	0.000274	0.152854
C52	C	0.557543	0.500274	0.652854
C53	C	0.074585	0.000268	0.025586
C54	C	0.574585	0.500268	0.525586
C55	C	0.147409	0.000257	0.026663
C56	C	0.647409	0.500257	0.526663
C57	C	0.175295	0.000262	0.090835
C58	C	0.675295	0.500262	0.590835
C59	C	0.872088	-0.218544	0.045437
C60	C	1.372088	0.281456	0.545437
C61	C	0.872092	-0.297791	0.045433
C62	C	1.372092	0.202209	0.545433
C63	C	0.824475	-0.337434	0.093030
C64	C	1.324475	0.162566	0.593030
C65	C	0.776839	-0.297823	0.140622
C66	C	1.276839	0.202177	0.640622
C67	C	0.776831	-0.218577	0.140619
C68	C	1.276831	0.281423	0.640619
N69	N	0.815398	-0.461850	0.154838
N70	N	1.315398	0.038150	0.654838
N71	N	0.815409	-0.537130	0.154838
N72	N	1.315409	-0.037130	0.654838
C73	C	0.824494	-0.576198	0.093040
C74	C	1.324494	-0.076198	0.593040
N75	N	0.833581	-0.537142	0.031239
N76	N	1.333581	-0.037142	0.531239
N77	N	0.833573	-0.461855	0.031240
N78	N	1.333573	0.038145	0.531240
C79	C	0.824478	-0.423363	0.093038
C80	C	1.324478	0.076637	0.593038
C81	C	0.872128	-0.701729	0.045444
C82	C	1.372128	-0.201729	0.545444
C83	C	0.872128	-0.780978	0.045440
C84	C	1.372128	-0.280978	0.545440
C85	C	0.776878	-0.781009	0.140634
C86	C	1.276878	-0.281009	0.640634
C87	C	0.776875	-0.701761	0.140633
C88	C	1.276875	-0.201761	0.640633
C89	C	0.824504	-0.662126	0.093038
C90	C	1.324504	-0.162126	0.593038
C91	C	0.952149	0.000255	0.087546
C92	C	1.452149	0.500255	0.587546
C93	C	1.029654	0.000280	0.088687
C94	C	1.529654	0.500280	0.588687
C95	C	0.829973	0.000213	-0.034634
C96	C	1.329973	0.500213	0.465366
C97	C	0.828834	0.000210	-0.112138
C98	C	1.328834	0.500210	0.387862
N99	N	0.824509	0.179384	0.093036
N100	N	1.324509	0.679384	0.593036
C101	C	0.828313	0.068837	-0.148534
C102	C	1.328313	0.568837	0.351466
C103	C	0.827233	0.068842	-0.221357
C104	C	1.327233	0.568842	0.278643
C105	C	0.826688	0.000217	-0.257783
C106	C	1.326688	0.500217	0.242217
C107	C	0.827205	-0.068418	-0.221378
C108	C	1.327205	0.431582	0.278622
C109	C	0.828278	-0.068421	-0.148556
C110	C	1.328278	0.431579	0.351444
N111	N	0.864728	-0.050849	-0.377448
N112	N	1.364728	0.449151	0.122552
N113	N	0.863710	-0.050841	-0.446627
N114	N	1.363710	0.449159	0.053373
C115	C	0.823454	0.000224	-0.477192
C116	C	1.323454	0.500224	0.022808
N117	N	0.784262	0.051292	-0.435967
N118	N	1.284262	0.551292	0.064033
N119	N	0.785283	0.051286	-0.366783
N120	N	1.285283	0.551286	0.133217
C121	C	0.825524	0.000214	-0.336746
C122	C	1.325524	0.500214	0.163254
C123	C	0.821761	0.068861	-0.592550
C124	C	1.321761	0.568861	-0.092550
C125	C	0.820676	0.068864	-0.665374
C126	C	1.320676	0.568864	-0.165374
C127	C	0.820656	-0.068399	-0.665394
C128	C	1.320656	0.431601	-0.165394
C129	C	0.821734	-0.068399	-0.592571
C130	C	1.321734	0.431601	-0.092571
C131	C	0.822289	0.000233	-0.556154
C132	C	1.322289	0.500233	-0.056154
C133	C	0.818992	0.000231	0.220700
C134	C	1.318992	0.500231	0.720700
C135	C	0.820131	0.000238	0.298205
C136	C	1.320131	0.500238	0.798205
H137	H	0.597086	0.000191	0.212725
H138	H	1.097086	0.500191	0.712725
O139	O	0.826816	0.135467	-0.256800
O140	O	1.326816	0.635467	0.243200
C141	C	0.886659	0.139609	-0.307006
C142	C	1.386659	0.639609	0.192994
H143	H	0.906644	0.080031	-0.320635
H144	H	1.406644	0.580031	0.179365
H145	H	0.872311	0.168665	-0.356383
H146	H	1.372311	0.668665	0.143617
H147	H	0.929412	0.173479	-0.284598
H148	H	1.429412	0.673479	0.215402
O149	O	0.458010	0.000250	0.220753
O150	O	0.958010	0.500250	0.720753
C151	C	0.498240	0.000231	0.277622
C152	C	0.998240	0.500231	0.777622
H153	H	0.552664	0.024046	0.259734
H154	H	1.052664	0.524046	0.759734
H155	H	0.471261	0.036799	0.321810
H156	H	0.971261	0.536799	0.821810
H157	H	0.503325	-0.060166	0.297309
H158	H	1.003325	0.439834	0.797309
O159	O	0.820217	-0.135106	-0.700711
O160	O	1.320217	0.364894	-0.200711
C161	C	0.880934	-0.176844	-0.691043
C162	C	1.380934	0.323156	-0.191043
H163	H	0.901878	-0.157339	-0.640864
H164	H	1.401878	0.342661	-0.140864
H165	H	0.867359	-0.239629	-0.686748
H166	H	1.367359	0.260371	-0.186748
H167	H	0.922662	-0.167315	-0.737696
H168	H	1.422662	0.332685	-0.237696
H169	H	0.051874	0.000321	-0.026659
H170	H	0.551874	0.500321	0.473341
O171	O	0.822156	-0.135113	-0.557279
O172	O	1.322156	0.364887	-0.057279
C173	C	0.761426	-0.176873	-0.566971
C174	C	1.261426	0.323127	-0.066971
H175	H	0.740491	-0.157362	-0.617141
H176	H	1.240491	0.342638	-0.117141
H177	H	0.774980	-0.239652	-0.571296
H178	H	1.274980	0.260348	-0.071296
H179	H	0.719699	-0.167376	-0.520315
H180	H	1.219699	0.332624	-0.020315
O181	O	0.918328	-0.336192	-0.000891
O182	O	1.418328	0.163808	0.499109
C183	C	0.907186	-0.316868	-0.069984
C184	C	1.407186	0.183132	0.430016
H185	H	0.880276	-0.259341	-0.069839
H186	H	1.380276	0.240659	0.430161
H187	H	0.959774	-0.314145	-0.104498
H188	H	1.459774	0.185855	0.395502
H189	H	0.872501	-0.361490	-0.091485
H190	H	1.372501	0.138510	0.408515
O191	O	0.826649	-0.135148	-0.256647
O192	O	1.326649	0.364852	0.243353
C193	C	0.827358	-0.195723	-0.208905
C194	C	1.327358	0.304277	0.291095
H195	H	0.806025	-0.175612	-0.154034
H196	H	1.306025	0.324388	0.345966
H197	H	0.793151	-0.243728	-0.225418
H198	H	1.293151	0.256272	0.274582
H199	H	0.883469	-0.216812	-0.208659
H200	H	1.383469	0.283188	0.291341
H201	H	0.738047	-0.186333	0.179372
H202	H	1.238047	0.313667	0.679372
O203	O	0.918319	-0.663231	-0.000867
O204	O	1.418319	-0.163231	0.499133
C205	C	0.907223	-0.682591	-0.069972
C206	C	1.407223	-0.182591	0.430028
H207	H	0.851337	-0.704420	-0.070202
H208	H	1.351337	-0.204420	0.429798
H209	H	0.915354	-0.630455	-0.105005
H210	H	1.415354	-0.130455	0.394995
H211	H	0.946006	-0.728550	-0.090590
H212	H	1.446006	-0.228550	0.409410
H213	H	0.183988	0.000248	-0.024713
H214	H	0.683988	0.500248	0.475287
O215	O	0.828665	-0.135068	-0.113149
O216	O	1.328665	0.364932	0.386851
C217	C	0.768841	-0.139181	-0.062917
C218	C	1.268841	0.360819	0.437083
H219	H	0.726268	-0.100246	-0.079198
H220	H	1.226268	0.399754	0.420802
H221	H	0.748551	-0.199884	-0.059380
H222	H	1.248551	0.300116	0.440620
H223	H	0.783329	-0.120739	-0.009556
H224	H	1.283329	0.379261	0.490444
O225	O	0.730612	-0.336244	0.186953
O226	O	1.230612	0.163756	0.686953
C227	C	0.741749	-0.316871	0.256043
C228	C	1.241749	0.183129	0.756043
H229	H	0.768656	-0.259319	0.255889
H230	H	1.268656	0.240681	0.755889
H231	H	0.689160	-0.314181	0.290554
H232	H	1.189160	0.185819	0.790554
H233	H	0.776436	-0.361448	0.277554
H234	H	1.276436	0.138552	0.777554
O235	O	0.918423	-0.819535	-0.000694
O236	O	1.418423	-0.319535	0.499306
C237	C	0.961387	-0.865332	0.036598
C238	C	1.461387	-0.365332	0.536598
H239	H	0.933404	-0.877207	0.091301
H240	H	1.433404	-0.377207	0.591301
H241	H	0.972528	-0.921058	0.007429
H242	H	1.472528	-0.421058	0.507429
H243	H	1.012969	-0.834765	0.041219
H244	H	1.512969	-0.334765	0.541219
H245	H	0.495885	0.000196	-0.020111
H246	H	0.995885	0.500196	0.479889
O247	O	0.730592	-0.819591	0.186774
O248	O	1.230592	-0.319591	0.686774
C249	C	0.687629	-0.865444	0.149488
C250	C	1.187629	-0.365444	0.649488
H251	H	0.715608	-0.877313	0.094784
H252	H	1.215608	-0.377313	0.594784
H253	H	0.676494	-0.921170	0.178660
H254	H	1.176494	-0.421170	0.678660
H255	H	0.636043	-0.834930	0.144869
H256	H	1.136043	-0.334930	0.644869
H257	H	0.628003	0.000151	-0.018171
H258	H	1.128003	0.500151	0.481829
O259	O	0.730588	-0.663405	0.186933
O260	O	1.230588	-0.163405	0.686933
C261	C	0.688548	-0.715385	0.228932
C262	C	1.188548	-0.215385	0.728932
H263	H	0.717174	-0.771859	0.229652
H264	H	1.217174	-0.271859	0.729652
H265	H	0.677720	-0.692482	0.284718
H266	H	1.177720	-0.192482	0.784718
H267	H	0.636755	-0.723845	0.206390
H268	H	1.136755	-0.223845	0.706390
O269	O	0.822346	0.135458	-0.557068
O270	O	1.322346	0.635458	-0.057068
C271	C	0.823405	0.120740	-0.484988
C272	C	1.323405	0.620740	0.015012
H273	H	0.845624	0.061756	-0.478014
H274	H	1.345624	0.561756	0.021986
H275	H	0.857732	0.164563	-0.461854
H276	H	1.357732	0.664563	0.038146
H277	H	0.767716	0.124001	-0.456809
H278	H	1.267716	0.624001	0.043191
H279	H	0.153075	0.000264	0.206181
H280	H	0.653075	0.500264	0.706181
H281	H	0.820249	0.124750	-0.695006
H282	H	1.320249	0.624750	-0.195006
H283	H	0.020965	0.000283	0.204232
H284	H	0.520965	0.500283	0.704232
O285	O	0.828694	0.135546	-0.113207
O286	O	1.328694	0.635546	0.386793
C287	C	0.767979	0.177241	-0.122970
C288	C	1.267979	0.677241	0.377030
H289	H	0.725447	0.137034	-0.137319
H290	H	1.225447	0.637034	0.362681
H291	H	0.748367	0.208405	-0.072388
H292	H	1.248367	0.708405	0.427612
H293	H	0.781025	0.220000	-0.167097
H294	H	1.281025	0.720000	0.332903
H295	H	0.910869	-0.186275	0.006681
H296	H	1.410869	0.313725	0.506681
