data_functionalizedCrystal
_audit_creation_method	'MofGen! by Chris Wilmer'
_symmetry_space_group_name_H-M	'P1'
_symmetry_Int_Tables_number	1
_symmetry_cell_setting	triclinic
loop_
_symmetry_equiv_pos_as_xyz
  x,y,z
_cell_length_a	6.817900
_cell_length_b	11.102285
_cell_length_c	12.200875
_cell_angle_alpha	92.494657
_cell_angle_beta	107.143593
_cell_angle_gamma	108.605686
loop_
_atom_site_label
_atom_site_type_symbol
_atom_site_fract_x
_atom_site_fract_y
_atom_site_fract_z
V1	V	-4.094473	-0.176129	-0.357667
O2	O	-4.053827	0.008167	-0.350852
O3	O	-4.071370	-0.348948	-0.355226
O4	O	-4.063813	-0.173550	-0.513655
O5	O	-4.061436	-0.168446	-0.191327
V6	V	-4.572524	-0.154070	-0.337770
O7	O	-4.367734	-0.224518	-0.401311
O8	O	-4.749460	-0.105681	-0.294126
O9	O	-4.372420	0.018750	-0.340211
O10	O	-4.730567	-0.338365	-0.344585
O11	O	-4.722958	-0.161753	-0.504110
O12	O	-4.379977	-0.156648	-0.181782
C13	C	-3.921951	-0.391074	-0.349585
C14	C	-3.984467	-0.532356	-0.348630
C15	C	-4.068996	-0.616969	-0.453227
C16	C	-4.127709	-0.749717	-0.452318
C17	C	-4.017362	-0.713226	-0.242206
C18	C	-3.958636	-0.580481	-0.243116
C19	C	-4.156151	-0.948886	-0.573608
C20	C	-4.240720	-1.033506	-0.678212
C21	C	-4.388487	-1.010696	-0.774938
C22	C	-4.451737	-0.903272	-0.767067
C23	C	-4.367189	-0.818660	-0.662462
C24	C	-4.219376	-0.841467	-0.565738
C25	C	-3.930214	-0.381311	-0.121834
C26	C	-3.845678	-0.296696	-0.017228
C27	C	-3.697917	-0.319502	0.079508
C28	C	-3.634693	-0.426929	0.071647
C29	C	-3.719229	-0.511543	-0.032959
C30	C	-3.866982	-0.488729	-0.129695
C31	C	-3.912310	-0.167334	-0.551675
C32	C	-3.968693	-0.166369	-0.679197
C33	C	-4.071882	-0.164604	-0.912671
C34	C	-4.014452	-0.165586	-0.782749
C35	C	-4.185182	0.060869	-0.345849
C36	C	-4.101906	0.202150	-0.346812
C37	C	-4.194823	-0.162868	-0.143756
C38	C	-4.117677	-0.163827	-0.016233
H39	H	-4.572089	-0.884721	-0.845830
H40	H	-3.629106	-0.250602	0.164685
H41	H	-3.897184	-0.209230	-0.010831
H42	H	-4.050528	-0.362729	-0.200602
H43	H	-4.090042	-0.577792	-0.539143
H44	H	-3.996345	-0.752426	-0.156301
H45	H	-4.418691	-0.731200	-0.656052
H46	H	-4.189204	-1.120969	-0.684613
O47	O	-4.470353	-1.092988	-0.876478
C48	C	-4.382895	-1.192709	-0.862675
H49	H	-4.221869	-1.158906	-0.787594
H50	H	-4.352456	-1.219669	-0.945840
H51	H	-4.503637	-1.280188	-0.843430
H52	H	-4.035805	-0.967460	-0.494856
O53	O	-3.657521	-0.615812	-0.040414
C54	C	-3.509026	-0.617827	0.067408
H55	H	-3.427111	-0.516508	0.118591
H56	H	-3.379081	-0.654228	0.052384
H57	H	-3.600806	-0.684371	0.118436
O58	O	-3.491363	-0.449051	0.165735
C59	C	-3.579965	-0.463978	0.257218
H60	H	-3.706828	-0.414747	0.243750
H61	H	-3.443533	-0.418556	0.343211
H62	H	-3.661175	-0.570697	0.258669
