data_functionalizedCrystal
_audit_creation_method	'MofGen! by Chris Wilmer'
_symmetry_space_group_name_H-M	'P1'
_symmetry_Int_Tables_number	1
_symmetry_cell_setting	triclinic
loop_
_symmetry_equiv_pos_as_xyz
  x,y,z
_cell_length_a	17.699083
_cell_length_b	10.723024
_cell_length_c	16.176319
_cell_angle_alpha	89.994397
_cell_angle_beta	89.998611
_cell_angle_gamma	83.875442
loop_
_atom_site_label
_atom_site_type_symbol
_atom_site_fract_x
_atom_site_fract_y
_atom_site_fract_z
O1	O	1.005074	0.157797	-0.068628
O2	O	0.784825	0.178327	-0.068655
O3	O	0.900030	-0.013601	-0.068638
O4	O	0.889869	0.349725	-0.068646
O5	O	0.900014	-0.013613	0.068855
O6	O	0.784809	0.178315	0.068838
O7	O	1.005058	0.157785	0.068865
Cu8	Cu	0.894932	0.168049	0.081406
Cu9	Cu	0.894951	0.168063	-0.081196
O10	O	0.889853	0.349713	0.068848
C11	C	0.756616	0.177585	0.000088
C12	C	0.672584	0.175378	0.000078
C13	C	0.624673	0.288036	0.000076
C14	C	0.545717	0.285955	0.000086
C15	C	0.514672	0.171215	0.000093
C16	C	0.562589	0.058549	0.000098
C17	C	0.641544	0.060631	0.000093
C18	C	0.244173	0.050148	0.000118
C19	C	0.165212	0.048075	0.000121
C20	C	0.148346	0.275473	0.000112
C21	C	0.227301	0.277555	0.000107
C22	C	0.275210	0.164889	0.000116
C23	C	0.360824	0.167147	0.000106
C24	C	0.429060	0.168956	0.000097
C25	C	0.899283	-0.060094	0.000107
C26	C	0.897070	-0.198610	0.000104
C27	C	0.961533	-0.274698	0.000111
C28	C	0.959248	-0.417863	0.000108
C29	C	1.033268	0.158527	0.000120
C30	C	1.117300	0.160734	0.000125
C31	C	0.890601	0.396206	0.000100
C32	C	0.892813	0.534723	0.000098
N33	N	0.894924	0.168038	0.195771
N34	N	0.894965	0.168064	-0.195561
C35	C	0.945953	0.083087	0.239042
C36	C	0.945957	0.083085	0.325590
C37	C	0.894935	0.168042	0.368863
C38	C	0.843901	0.252997	0.325586
C39	C	0.843894	0.252992	0.239040
C40	C	0.843927	0.253021	0.674614
C41	C	0.843940	0.253022	0.761165
C42	C	0.945989	0.083115	0.761163
C43	C	0.945983	0.083109	0.674618
C44	C	0.894946	0.168059	0.631348
C45	C	0.894942	0.168058	0.537503
C46	C	0.894943	0.168050	0.462706
H47	H	0.506711	0.377693	0.000084
H48	H	0.987507	0.013911	0.360821
H49	H	0.987503	0.013910	0.203815
C50	C	1.002105	-0.010346	0.627016
C51	C	0.972032	-0.105713	0.567531
C52	C	1.028153	-0.199174	0.519930
C53	C	1.114348	-0.197266	0.531815
C54	C	1.144425	-0.101895	0.591303
C55	C	1.088304	-0.008435	0.638904
H56	H	0.908222	-0.107129	0.558730
H57	H	1.005887	-0.269774	0.475892
H58	H	1.155892	-0.266451	0.496578
H59	H	1.208235	-0.100480	0.600103
H60	H	1.110570	0.062165	0.682941
C61	C	1.002126	-0.010345	0.808762
C62	C	1.002137	-0.010357	0.903958
C63	C	1.058274	-0.103811	0.951554
C64	C	1.114399	-0.197253	0.903953
C65	C	1.114389	-0.197245	0.808751
C66	C	1.058253	-0.103791	0.761155
H67	H	0.960588	0.058818	0.939201
H68	H	1.058281	-0.103816	1.022029
H69	H	1.155955	-0.266433	0.939186
H70	H	1.155938	-0.266420	0.773509
H71	H	1.058246	-0.103786	0.690680
C72	C	0.787808	0.346473	0.808769
C73	C	0.731667	0.439913	0.761176
C74	C	0.675539	0.533358	0.808780
C75	C	0.675553	0.533365	0.903977
C76	C	0.731696	0.439922	0.951575
C77	C	0.787824	0.346477	0.903971
H78	H	0.731655	0.439911	0.690701
H79	H	0.633979	0.602531	0.773545
H80	H	0.634004	0.602539	0.939217
H81	H	0.731708	0.439924	1.022050
H82	H	0.829385	0.277304	0.939207
C83	C	0.787775	0.346454	0.373182
C84	C	0.787815	0.346530	0.468379
C85	C	0.731690	0.439992	0.515972
C86	C	0.675524	0.533378	0.468369
C87	C	0.675483	0.533306	0.373167
C88	C	0.731608	0.439843	0.325574
H89	H	0.829394	0.277397	0.503622
H90	H	0.731721	0.440045	0.586447
H91	H	0.633977	0.602565	0.503601
H92	H	0.633904	0.602439	0.337924
H93	H	0.731577	0.439790	0.255099
H94	H	0.649943	0.381471	0.000069
H95	H	0.802373	0.322192	0.639390
C96	C	0.820223	-0.253777	0.000093
C97	C	0.763683	-0.223545	-0.071310
C98	C	0.686834	-0.278707	-0.071321
C99	C	0.666525	-0.364101	0.000071
C100	C	0.723066	-0.394338	0.071479
C101	C	0.799916	-0.339175	0.071491
H102	H	0.778716	-0.160328	-0.124163
H103	H	0.644978	-0.256324	-0.124183
H104	H	0.609636	-0.404936	0.000063
H105	H	0.708033	-0.457555	0.124333
H106	H	0.841771	-0.361559	0.124352
H107	H	0.252572	0.370988	0.000098
H108	H	0.802341	0.322166	0.203809
H109	H	0.109328	0.367210	0.000109
H110	H	0.283172	-0.041591	0.000126
C111	C	0.528441	-0.067667	0.000105
C112	C	0.476479	-0.100373	0.071503
C113	C	0.442333	-0.226591	0.071507
C114	C	0.460148	-0.320104	0.000114
C115	C	0.512112	-0.287400	-0.071289
C116	C	0.546258	-0.161182	-0.071293
H117	H	0.463289	-0.031147	0.124357
H118	H	0.403865	-0.250800	0.124365
H119	H	0.434870	-0.413538	0.000117
H120	H	0.525302	-0.356626	-0.124143
H121	H	0.584726	-0.136973	-0.124151
H122	H	0.139939	-0.045366	0.000127
H123	H	1.018413	-0.233851	0.000123
H124	H	0.680552	-0.031107	0.000094
H125	H	1.014433	-0.483241	0.000117
H126	H	0.837625	-0.399906	0.000098
