data_functionalizedCrystal
_audit_creation_method	'MofGen! by Chris Wilmer'
_symmetry_space_group_name_H-M	'P1'
_symmetry_Int_Tables_number	1
_symmetry_cell_setting	triclinic
loop_
_symmetry_equiv_pos_as_xyz
  x,y,z
_cell_length_a	11.026660
_cell_length_b	10.489716
_cell_length_c	10.065875
_cell_angle_alpha	98.882384
_cell_angle_beta	79.302288
_cell_angle_gamma	96.556985
loop_
_atom_site_label
_atom_site_type_symbol
_atom_site_fract_x
_atom_site_fract_y
_atom_site_fract_z
O1	O	1.632410	0.520467	-0.113468
O2	O	1.278579	0.459529	-0.113472
O3	O	1.463562	0.306172	-0.113475
O4	O	1.447427	0.673824	-0.113465
O5	O	1.428289	0.335565	0.113515
O6	O	1.243306	0.488922	0.113517
O7	O	1.597137	0.549860	0.113522
Zn8	Zn	1.414621	0.524058	0.149559
Zn9	Zn	1.461094	0.485331	-0.149509
O10	O	1.412154	0.703217	0.113524
C11	C	1.215635	0.462983	0.000022
C12	C	1.080632	0.429470	0.000020
C13	C	0.868094	0.487380	0.000017
C14	C	1.007626	0.522021	0.000021
C15	C	1.444714	0.273069	0.000016
C16	C	1.441089	0.130639	0.000003
C17	C	1.554524	0.057919	0.000017
C18	C	1.511972	-0.047119	-0.111898
C19	C	1.477170	-0.018110	0.111896
C20	C	1.398599	0.027465	-0.112004
C21	C	1.363798	0.056496	0.111890
C22	C	1.321167	-0.048515	-0.000052
C23	C	1.660082	0.546405	0.000025
C24	C	1.795086	0.579917	0.000018
C25	C	1.431002	0.736319	0.000031
C26	C	1.434629	0.878749	0.000034
N27	N	1.382914	0.550489	0.353665
N28	N	1.492812	0.458892	-0.353615
C29	C	1.450055	0.494517	0.421443
C30	C	1.425661	0.514872	0.578610
H31	H	1.653212	0.104285	-0.000095
H32	H	1.574561	-0.092333	-0.206514
H33	H	0.827295	0.382513	0.000034
Cl34	Cl	1.347437	0.059123	-0.258250
Cl35	Cl	1.070591	0.683944	0.000037
Cl36	Cl	1.168728	-0.119787	-0.000141
Cl37	Cl	1.017666	0.267548	0.000026
Cl38	Cl	0.858057	0.741834	0.000034
Cl39	Cl	1.566411	0.396916	0.331400
H40	H	1.301250	0.101743	0.206510
H41	H	1.510378	-0.038792	0.206509
H42	H	1.350110	0.577859	0.636932
Cl43	Cl	1.609713	0.361966	0.556351
H44	H	1.307368	0.613472	0.411992
