data_functionalizedCrystal
_audit_creation_method	'MofGen! by Chris Wilmer'
_symmetry_space_group_name_H-M	'P1'
_symmetry_Int_Tables_number	1
_symmetry_cell_setting	triclinic
loop_
_symmetry_equiv_pos_as_xyz
  x,y,z
_cell_length_a	16.625545
_cell_length_b	21.395364
_cell_length_c	21.395356
_cell_angle_alpha	89.980845
_cell_angle_beta	89.974643
_cell_angle_gamma	90.030606
loop_
_atom_site_label
_atom_site_type_symbol
_atom_site_fract_x
_atom_site_fract_y
_atom_site_fract_z
Zn1	Zn	-0.320913	0.957876	-0.354197
Zn2	Zn	0.179087	1.457876	0.145803
Zn3	Zn	-0.455750	0.957789	-0.249424
Zn4	Zn	0.044250	1.457789	0.250576
Zn5	Zn	-0.320947	0.853092	-0.249442
Zn6	Zn	0.179053	1.353092	0.250558
Zn7	Zn	-0.455720	0.853069	-0.354172
Zn8	Zn	0.044280	1.353069	0.145828
O9	O	-0.388333	0.905457	-0.301809
O10	O	0.111667	1.405457	0.198191
O11	O	-0.338799	1.045542	-0.340302
O12	O	0.161201	1.545542	0.159698
O13	O	-0.437895	0.943875	-0.161749
O14	O	0.062105	1.443875	0.338251
O15	O	-0.208110	0.867038	-0.263356
O16	O	0.291890	1.367038	0.236644
O17	O	-0.437862	1.045479	-0.263325
O18	O	0.062138	1.545479	0.236675
O19	O	-0.208086	0.944022	-0.340319
O20	O	0.291914	1.444022	0.159681
O21	O	-0.338856	0.866954	-0.161762
O22	O	0.161144	1.366954	0.338238
O23	O	-0.338826	0.765411	-0.263332
O24	O	0.161174	1.265411	0.236668
O25	O	-0.437811	0.866998	-0.441854
O26	O	0.062189	1.366998	0.058146
O27	O	-0.437843	0.765394	-0.340277
O28	O	0.062157	1.265394	0.159723
O29	O	-0.338769	0.943999	-0.441872
O30	O	0.161231	1.443999	0.058128
O31	O	-0.568579	0.943852	-0.263301
O32	O	-0.068579	1.443852	0.236699
O33	O	-0.568556	0.866915	-0.340259
O34	O	-0.068556	1.366915	0.159741
C35	C	-0.388336	0.742669	-0.301804
C36	C	0.111664	1.242669	0.198196
C37	C	-0.388356	0.673028	-0.301817
C38	C	0.111644	1.173028	0.198183
C39	C	-0.597824	0.905388	-0.301789
C40	C	-0.097824	1.405388	0.198211
C41	C	-0.687445	0.905417	-0.301802
C42	C	-0.187445	1.405417	0.198198
C43	C	-0.760227	0.905441	-0.301814
C44	C	-0.260227	1.405441	0.198186
C45	C	-0.851535	0.905477	-0.301828
C46	C	-0.351535	1.405477	0.198172
C47	C	-0.924312	0.905510	-0.301836
C48	C	-0.424312	1.405510	0.198164
C49	C	-1.015626	0.905546	-0.301849
C50	C	-0.515626	1.405546	0.198151
C51	C	-0.388283	0.905506	-0.465232
C52	C	0.111717	1.405506	0.034768
C53	C	-0.388261	0.905527	-0.534874
C54	C	0.111739	1.405527	-0.034874
C55	C	-0.178024	0.905542	-0.301843
C56	C	0.321976	1.405542	0.198157
C57	C	-0.088403	0.905578	-0.301857
C58	C	0.411597	1.405578	0.198143
C59	C	-0.388330	1.068880	-0.301814
C60	C	0.111670	1.568880	0.198186
C61	C	-0.388329	1.138521	-0.301817
C62	C	0.111671	1.638521	0.198183
C63	C	-0.336787	1.640351	-0.341898
C64	C	0.163213	2.140351	0.158102
C65	C	-0.336778	1.574916	-0.341896
C66	C	0.163222	2.074916	0.158104
C67	C	-0.388353	1.542159	-0.301819
C68	C	0.111647	2.042159	0.198181
C69	C	-0.439927	1.574844	-0.261731
C70	C	0.060073	2.074844	0.238269
C71	C	-0.439928	1.640278	-0.261729
C72	C	0.060072	2.140278	0.238271
C73	C	-0.460997	1.438459	-0.296862
C74	C	0.039003	1.938459	0.203138
C75	C	-0.460996	1.373026	-0.296868
C76	C	0.039004	1.873026	0.203132
C77	C	-0.388348	1.340339	-0.301820
C78	C	0.111652	1.840339	0.198180
C79	C	-0.315697	1.373092	-0.306779
C80	C	0.184303	1.873092	0.193221
C81	C	-0.315699	1.438526	-0.306778
C82	C	0.184301	1.938526	0.193222
C83	C	-0.388357	1.471207	-0.301816
C84	C	0.111643	1.971207	0.198184
C85	C	-0.336764	1.236710	-0.341901
C86	C	0.163236	1.736710	0.158099
C87	C	-0.336754	1.171273	-0.341894
C88	C	0.163246	1.671273	0.158106
C89	C	-0.439910	1.171202	-0.261732
C90	C	0.060090	1.671202	0.238268
C91	C	-0.439913	1.236638	-0.261736
C92	C	0.060087	1.736638	0.238264
C93	C	-0.388341	1.269387	-0.301823
C94	C	0.111659	1.769387	0.198177
C95	C	-0.336686	0.865485	-0.567584
C96	C	0.163314	1.365485	-0.067584
C97	C	-0.336671	0.865483	-0.633019
C98	C	0.163329	1.365483	-0.133019
C99	C	-0.388223	0.905534	-0.665742
C100	C	0.111777	1.405534	-0.165742
C101	C	-0.439809	0.945578	-0.633024
C102	C	0.060191	1.445578	-0.133024
C103	C	-0.439828	0.945575	-0.567590
C104	C	0.060172	1.445575	-0.067590
C105	C	-0.394556	0.961986	-0.769424
C106	C	0.105444	1.461986	-0.269424
C107	C	-0.394531	0.961991	-0.834857
C108	C	0.105469	1.461991	-0.334857
C109	C	-0.388169	0.905544	-0.867563
C110	C	0.111831	1.405544	-0.367563
C111	C	-0.381814	0.849091	-0.834828
C112	C	0.118186	1.349091	-0.334828
C113	C	-0.381833	0.849088	-0.769393
C114	C	0.118167	1.349088	-0.269393
C115	C	-0.388208	0.905542	-0.736695
C116	C	0.111792	1.405542	-0.236695
C117	C	-0.336574	0.865497	-0.971226
C118	C	0.163426	1.365497	-0.471226
C119	C	-0.336565	0.865493	-1.036662
C120	C	0.163435	1.365493	-0.536662
C121	C	-0.439698	0.945594	-1.036666
C122	C	0.060302	1.445594	-0.536666
C123	C	-0.439712	0.945592	-0.971230
C124	C	0.060288	1.445592	-0.471230
C125	C	-0.388145	0.905544	-0.938514
C126	C	0.111855	1.405544	-0.438514
C127	C	-0.388324	0.905444	-0.139022
C128	C	0.111676	1.405444	0.360978
C129	C	-0.388118	0.905544	-0.069381
C130	C	0.111882	1.405544	0.430619
H131	H	-0.294792	1.667012	-0.374540
H132	H	0.205208	2.167012	0.125460
H133	H	-0.294699	0.832873	-0.540950
H134	H	0.205301	1.332873	-0.040950
H135	H	-0.294568	0.832882	-1.063294
H136	H	0.205432	1.332882	-0.563294
H137	H	-0.294755	1.144669	-0.374532
H138	H	0.205245	1.644669	0.125468
H139	H	-0.481919	1.548169	-0.229100
H140	H	0.018081	2.048169	0.270900
H141	H	-0.294766	1.263376	-0.374538
H142	H	0.205234	1.763376	0.125462
H143	H	-0.376628	0.803127	-0.861455
H144	H	0.123372	1.303127	-0.361455
H145	H	-0.481910	1.263243	-0.229100
H146	H	0.018090	1.763243	0.270900
H147	H	-0.481904	1.144533	-0.229101
H148	H	0.018096	1.644533	0.270899
H149	H	-0.520160	1.465068	-0.292830
H150	H	-0.020160	1.965068	0.207170
H151	H	-0.294668	0.832877	-0.659657
H152	H	0.205332	1.332877	-0.159657
H153	H	-0.481826	0.978184	-0.540958
H154	H	0.018174	1.478184	-0.040958
H155	H	-0.520153	1.346363	-0.292833
H156	H	-0.020153	1.846363	0.207167
H157	H	-0.376661	0.803122	-0.742743
H158	H	0.123339	1.303122	-0.242743
H159	H	-0.294586	0.832887	-0.944587
H160	H	0.205414	1.332887	-0.444587
H161	H	-0.481671	0.978206	-1.063308
H162	H	0.018329	1.478206	-0.563308
H163	H	-0.481708	0.978200	-0.944597
H164	H	0.018292	1.478200	-0.444597
H165	H	-0.256540	1.346479	-0.310811
H166	H	0.243460	1.846479	0.189189
H167	H	-0.399701	1.007958	-0.861505
H168	H	0.100299	1.507958	-0.361505
H169	H	-0.481924	1.666883	-0.229090
H170	H	0.018076	2.166883	0.270910
H171	H	-0.399730	1.007956	-0.742801
H172	H	0.100270	1.507956	-0.242801
H173	H	-0.294780	1.548305	-0.374533
H174	H	0.205220	2.048305	0.125467
H175	H	-0.256544	1.465191	-0.310813
H176	H	0.243456	1.965191	0.189187
H177	H	-0.481783	0.978188	-0.659671
H178	H	0.018217	1.478188	-0.159671
