data_functionalizedCrystal
_audit_creation_method	'MofGen! by Chris Wilmer'
_symmetry_space_group_name_H-M	'P1'
_symmetry_Int_Tables_number	1
_symmetry_cell_setting	triclinic
loop_
_symmetry_equiv_pos_as_xyz
  x,y,z
_cell_length_a	12.827893
_cell_length_b	12.827892
_cell_length_c	12.759393
_cell_angle_alpha	90.029972
_cell_angle_beta	90.020760
_cell_angle_gamma	90.015552
loop_
_atom_site_label
_atom_site_type_symbol
_atom_site_fract_x
_atom_site_fract_y
_atom_site_fract_z
Zn1	Zn	1.597685	-0.415978	0.594019
Zn2	Zn	1.597575	-0.590755	0.418341
Zn3	Zn	1.422922	-0.416029	0.418355
Zn4	Zn	1.422912	-0.590678	0.593978
O5	O	1.510273	-0.503360	0.506173
O6	O	1.743906	-0.439173	0.570726
O7	O	1.574365	-0.567631	0.271321
O8	O	1.446155	-0.269787	0.441680
O9	O	1.743825	-0.567582	0.441656
O10	O	1.574553	-0.269749	0.570740
O11	O	1.446048	-0.439261	0.271332
O12	O	1.276684	-0.439186	0.441640
O13	O	1.446138	-0.567450	0.741005
O14	O	1.276677	-0.567500	0.570670
O15	O	1.574543	-0.439099	0.741035
O16	O	1.574355	-0.736981	0.441617
O17	O	1.446031	-0.736924	0.570657
C18	C	1.238763	-0.503341	0.506153
C19	C	1.122610	-0.503358	0.506170
C20	C	0.950741	-0.566817	0.442235
C21	C	1.070792	-0.566801	0.442217
C22	C	1.510208	-0.774870	0.506154
C23	C	1.510276	-0.891023	0.506181
C24	C	1.573782	-0.942706	0.570101
C25	C	1.573854	-1.062756	0.570130
C26	C	1.782843	-0.503380	0.506194
C27	C	1.898996	-0.503389	0.506203
C28	C	1.510351	-0.503260	0.780207
C29	C	1.510385	-0.503217	0.896983
C30	C	1.510367	-0.230790	0.506216
C31	C	1.510407	-0.114637	0.506234
C32	C	1.510255	-0.503385	0.233206
C33	C	1.510425	-0.503133	0.116430
C34	C	1.577250	-0.436374	0.951863
C35	C	1.577268	-0.436329	1.061587
C36	C	1.443552	-0.569979	1.061543
C37	C	1.443529	-0.570018	0.951821
H38	H	1.115291	-0.621109	0.387458
O39	O	1.638814	-1.115610	0.635459
C40	C	1.697769	-1.044054	0.694887
H41	H	1.701441	-0.966253	0.651907
H42	H	1.780086	-1.075593	0.706157
H43	H	1.659453	-1.032453	0.774648
O44	O	1.069424	-0.438715	0.571563
C45	C	1.006336	-0.498358	0.639289
H46	H	0.990063	-0.577526	0.602087
H47	H	0.929553	-0.455890	0.653385
H48	H	1.048377	-0.509887	0.717158
H49	H	0.943573	-0.449070	0.560949
H50	H	1.628097	-0.898079	0.624809
H51	H	1.456037	-1.070198	0.451502
H52	H	1.455953	-0.935653	0.451483
O53	O	1.642217	-0.371381	0.898755
C54	C	1.701254	-0.312391	0.970727
H55	H	1.658467	-0.308744	1.048934
H56	H	1.712423	-0.230067	0.939042
H57	H	1.780611	-0.350660	0.982404
O58	O	1.642072	-0.371284	1.114940
C59	C	1.582613	-0.303772	1.178421
H60	H	1.500304	-0.297326	1.145342
H61	H	1.620437	-0.223352	1.179677
H62	H	1.579019	-0.336043	1.261575
H63	H	1.389123	-0.624369	1.106205
O64	O	1.378686	-0.635105	0.898550
C65	C	1.401472	-0.739252	0.925363
H66	H	1.484959	-0.744528	0.955541
H67	H	1.392439	-0.790900	0.853191
H68	H	1.345445	-0.766543	0.989034
O69	O	0.897524	-0.631728	0.377064
C70	C	0.834388	-0.699225	0.436830
H71	H	0.867387	-0.705804	0.519531
H72	H	0.833009	-0.779601	0.398696
H73	H	0.751716	-0.666852	0.440593
