data_functionalizedCrystal
_audit_creation_method	'MofGen! by Chris Wilmer'
_symmetry_space_group_name_H-M	'P1'
_symmetry_Int_Tables_number	1
_symmetry_cell_setting	triclinic
loop_
_symmetry_equiv_pos_as_xyz
  x,y,z
_cell_length_a	12.759395
_cell_length_b	12.759394
_cell_length_c	21.395356
_cell_angle_alpha	89.977448
_cell_angle_beta	89.985381
_cell_angle_gamma	90.014617
loop_
_atom_site_label
_atom_site_type_symbol
_atom_site_fract_x
_atom_site_fract_y
_atom_site_fract_z
Zn1	Zn	1.606208	-0.418267	-0.354255
Zn2	Zn	1.606121	-0.593961	-0.249487
Zn3	Zn	1.430526	-0.418299	-0.249495
Zn4	Zn	1.430502	-0.593907	-0.354231
O5	O	1.518339	-0.506108	-0.301867
O6	O	1.753218	-0.441582	-0.340364
O7	O	1.582802	-0.570695	-0.161811
O8	O	1.453878	-0.271273	-0.263404
O9	O	1.753154	-0.570664	-0.263392
O10	O	1.582951	-0.271250	-0.340371
O11	O	1.453793	-0.441637	-0.161816
O12	O	1.283502	-0.441584	-0.263381
O13	O	1.453836	-0.570571	-0.441912
O14	O	1.283484	-0.570602	-0.340331
O15	O	1.582927	-0.441529	-0.441929
O16	O	1.582778	-0.740975	-0.263369
O17	O	1.453751	-0.740935	-0.340324
C18	C	1.245372	-0.506092	-0.301855
C19	C	1.128595	-0.506110	-0.301864
C20	C	0.909227	-0.371937	-0.382166
C21	C	0.964126	-0.304829	-0.422298
C22	C	1.073848	-0.304811	-0.422287
C23	C	1.128673	-0.371911	-0.382141
C24	C	1.073773	-0.439019	-0.342008
C25	C	0.964049	-0.439028	-0.342022
C26	C	1.073696	-0.573219	-0.261732
C27	C	0.963974	-0.573233	-0.261738
C28	C	1.128520	-0.640319	-0.221585
C29	C	1.073621	-0.707424	-0.181448
C30	C	0.963892	-0.707438	-0.181460
C31	C	0.909074	-0.640342	-0.221606
C32	C	1.518281	-0.779076	-0.301857
C33	C	1.518352	-0.895852	-0.301873
C34	C	1.652655	-0.895670	-0.382079
C35	C	1.719840	-0.950439	-0.422186
C36	C	1.719902	-1.060161	-0.422200
C37	C	1.652770	-1.115115	-0.382103
C38	C	1.585586	-1.060346	-0.341995
C39	C	1.585533	-0.950622	-0.341985
C40	C	1.451279	-1.060529	-0.261794
C41	C	1.451220	-0.950807	-0.261776
C42	C	1.384148	-1.115483	-0.221697
C43	C	1.316967	-1.060714	-0.181585
C44	C	1.316908	-0.950986	-0.181573
C45	C	1.384036	-0.896038	-0.221669
C46	C	1.792373	-0.506126	-0.301880
C47	C	1.909149	-0.506133	-0.301885
C48	C	1.518388	-0.506041	-0.465290
C49	C	1.518409	-0.506012	-0.534932
C50	C	1.518427	-0.232075	-0.301891
C51	C	1.518464	-0.115298	-0.301901
C52	C	1.585725	-0.438652	-1.036738
C53	C	1.585717	-0.438678	-0.971303
C54	C	1.518499	-0.505872	-0.938570
C55	C	1.451303	-0.573065	-0.971278
C56	C	1.451321	-0.573045	-1.036713
C57	C	1.423812	-0.514194	-0.834896
C58	C	1.423793	-0.514206	-0.769463
C59	C	1.518445	-0.505939	-0.736749
C60	C	1.613120	-0.497638	-0.769476
C61	C	1.613137	-0.497618	-0.834910
C62	C	1.518473	-0.505901	-0.867618
C63	C	1.585633	-0.438783	-0.633096
C64	C	1.585626	-0.438816	-0.567660
C65	C	1.451203	-0.573198	-0.567637
C66	C	1.451219	-0.573170	-0.633072
C67	C	1.518432	-0.505958	-0.665798
C68	C	1.518351	-0.506100	-0.139079
C69	C	1.518534	-0.505832	-0.069438
H70	H	0.819886	-0.371922	-0.382165
H71	H	1.218014	-0.371900	-0.382141
H72	H	0.919476	-0.250200	-0.454986
C73	C	1.659670	-0.364724	-1.072733
N74	N	1.715369	-0.309043	-1.099845
C75	C	1.133934	-0.781223	-0.137290
N76	N	1.179367	-0.836806	-0.104028
H77	H	1.217861	-0.640306	-0.221583
C78	C	1.384231	-1.236180	-0.221706
N79	N	1.384300	-1.327090	-0.221707
H80	H	1.346703	-0.520965	-0.742822
H81	H	1.640432	-0.383968	-0.944673
H82	H	1.774599	-1.104754	-0.454865
C83	C	1.652600	-0.774973	-0.382063
N84	N	1.652559	-0.684062	-0.382053
C85	C	0.788378	-0.640352	-0.221623
N86	N	0.697467	-0.640360	-0.221640
H87	H	1.262308	-1.105467	-0.148945
H88	H	0.919200	-0.762091	-0.148782
C89	C	1.793684	-0.889981	-0.466289
N90	N	1.849304	-0.844446	-0.499507
H91	H	1.383999	-0.806697	-0.221660
H92	H	1.690224	-0.490862	-0.861554
C93	C	1.717246	-0.488550	-0.733496
N94	N	1.795672	-0.481704	-0.706392
H95	H	1.118547	-0.250167	-0.454968
C96	C	1.652847	-1.235812	-0.382117
N97	N	1.652909	-1.326722	-0.382125
H98	H	1.346729	-0.520926	-0.861527
H99	H	1.262194	-0.906398	-0.148915
C100	C	1.659579	-0.364859	-0.669097
N101	N	1.715278	-0.309181	-0.696211
H102	H	1.640349	-0.384113	-0.541036
H103	H	1.396575	-0.627777	-0.944624
C104	C	1.377263	-0.647114	-0.531635
N105	N	1.321572	-0.702792	-0.504515
H106	H	1.396500	-0.627871	-0.659697
H107	H	1.396604	-0.627753	-1.063337
