data_functionalizedCrystal
_audit_creation_method	'MofGen! by Chris Wilmer'
_symmetry_space_group_name_H-M	'P1'
_symmetry_Int_Tables_number	1
_symmetry_cell_setting	triclinic
loop_
_symmetry_equiv_pos_as_xyz
  x,y,z
_cell_length_a	19.288840
_cell_length_b	27.731996
_cell_length_c	18.366186
_cell_angle_alpha	89.987769
_cell_angle_beta	89.983729
_cell_angle_gamma	82.873701
loop_
_atom_site_label
_atom_site_type_symbol
_atom_site_fract_x
_atom_site_fract_y
_atom_site_fract_z
O1	O	0.920972	0.060244	-0.060681
O2	O	0.718656	0.068391	-0.060657
O3	O	0.826116	-0.006063	-0.060654
O4	O	0.813511	0.134697	-0.060684
O5	O	0.826098	-0.006066	0.060446
O6	O	0.718638	0.068387	0.060443
O7	O	0.920954	0.060240	0.060419
Zn8	Zn	0.819793	0.064313	0.079658
Zn9	Zn	0.819817	0.064318	-0.079896
O10	O	0.813493	0.134694	0.060416
C11	C	0.692772	0.068129	-0.000104
C12	C	0.615672	0.067348	-0.000094
C13	C	0.579481	0.066975	-0.066107
C14	C	0.507039	0.066236	-0.066116
C15	C	0.470793	0.065860	-0.000108
C16	C	0.506992	0.066236	0.065914
C17	C	0.579432	0.066980	0.065921
C18	C	0.361649	0.036367	0.050460
C19	C	0.289212	0.035620	0.050450
C20	C	0.247364	0.063568	-0.000126
C21	C	0.277964	0.092256	-0.050705
C22	C	0.350404	0.093000	-0.050698
C23	C	0.392244	0.065054	-0.000108
C24	C	0.132623	0.062394	-0.066153
C25	C	0.060179	0.061658	-0.066159
C26	C	0.060134	0.061653	0.065873
C27	C	0.132576	0.062394	0.065877
C28	C	0.168816	0.062762	-0.000138
C29	C	0.825848	-0.024073	-0.000101
C30	C	0.825068	-0.077731	-0.000094
C31	C	0.820171	-0.410460	-0.066140
C32	C	0.817210	-0.612127	-0.066153
O33	O	0.816805	-0.638197	-0.122293
N34	N	0.816832	-0.637347	-0.000142
C35	C	0.817190	-0.612147	0.065877
O36	O	0.816794	-0.638225	0.122022
C37	C	0.820147	-0.410481	0.065888
C38	C	0.820532	-0.385264	-0.000127
C39	C	0.820555	-0.385243	-0.132150
C40	C	0.821299	-0.334830	-0.132146
C41	C	0.821660	-0.309633	-0.066133
C42	C	0.821276	-0.334850	-0.000123
C43	C	0.820500	-0.385281	0.131906
C44	C	0.821237	-0.334861	0.131903
C45	C	0.821622	-0.309644	0.065888
C46	C	0.822380	-0.259241	0.065894
N47	N	0.822758	-0.234020	-0.000116
C48	C	0.822398	-0.259217	-0.066130
C49	C	0.815639	-0.718025	0.065866
C50	C	0.814901	-0.768442	0.065863
C51	C	0.814920	-0.768418	-0.066166
C52	C	0.815663	-0.718001	-0.066163
C53	C	0.816017	-0.692805	-0.000145
C54	C	0.823961	-0.153345	-0.066117
C55	C	0.824708	-0.102928	-0.066107
C56	C	0.824686	-0.102955	0.065922
C57	C	0.823943	-0.153369	0.065912
C58	C	0.823578	-0.178562	-0.000113
O59	O	0.822777	-0.233139	0.122005
O60	O	0.822779	-0.233129	-0.122267
C61	C	0.819427	-0.460873	-0.066144
C62	C	0.819043	-0.486090	-0.000134
C63	C	0.819403	-0.460894	0.065879
C64	C	0.818305	-0.536507	-0.000137
C65	C	0.817945	-0.561703	-0.066150
C66	C	0.818323	-0.536483	-0.132161
C67	C	0.819067	-0.486070	-0.132157
C68	C	0.819026	-0.486114	0.131890
C69	C	0.818282	-0.536528	0.131881
C70	C	0.817922	-0.561724	0.065867
C71	C	0.946838	0.060502	-0.000136
C72	C	1.023937	0.061283	-0.000150
C73	C	0.813761	0.152703	-0.000138
C74	C	0.814541	0.206362	-0.000150
N75	N	0.819782	0.064309	0.188549
N76	N	0.819833	0.064318	-0.188787
C77	C	0.867380	0.031358	0.226651
C78	C	0.867385	0.031355	0.302879
C79	C	0.819797	0.064313	0.341002
C80	C	0.772189	0.097268	0.302891
C81	C	0.772182	0.097266	0.226664
C82	C	0.810212	0.108358	0.461753
C83	C	0.810225	0.108361	0.537978
C84	C	0.819817	0.064320	0.576109
C85	C	0.829411	0.020274	0.538006
C86	C	0.829403	0.020272	0.461779
C87	C	0.819800	0.064319	0.423656
C88	C	0.867423	0.031363	0.696866
C89	C	0.867423	0.031360	0.773095
C90	C	0.772230	0.097276	0.773106
C91	C	0.772227	0.097275	0.696878
C92	C	0.819827	0.064319	0.658763
H93	H	0.030712	0.061357	-0.119917
C94	C	0.823521	-0.181109	0.138526
H95	H	0.823839	-0.158880	0.177841
H96	H	0.863747	-0.204561	0.141270
H97	H	0.782700	-0.196990	0.141271
H98	H	0.608983	0.067275	-0.119861
C99	C	0.839967	-0.028175	0.579936
H100	H	0.845686	-0.054405	0.546326
H101	H	0.800315	-0.030788	0.609689
H102	H	0.880430	-0.029224	0.609654
C103	C	0.231942	0.123003	-0.106340
H104	H	0.184416	0.118457	-0.099097
H105	H	0.245810	0.113172	-0.154261
H106	H	0.237196	0.156350	-0.099974
C107	C	0.919769	-0.004892	0.654932
H108	H	0.912953	-0.000171	0.604077
H109	H	0.912581	-0.037139	0.667440
H110	H	0.966071	0.000273	0.667404
H111	H	0.395717	0.013607	0.091649
C112	C	0.799665	0.156806	0.419817
H113	H	0.793965	0.183037	0.453425
H114	H	0.759209	0.157861	0.390094
H115	H	0.839328	0.159411	0.390067
H116	H	0.820259	-0.405752	-0.185909
C117	C	0.020275	0.061242	0.138482
H118	H	0.052207	0.061573	0.177800
H119	H	-0.002373	0.032771	0.141232
H120	H	-0.013597	0.089140	0.141216
H121	H	0.906181	0.004524	0.804118
C122	C	0.172390	0.062798	0.138492
H123	H	0.140430	0.062465	0.177804
H124	H	0.195034	0.091270	0.141234
H125	H	0.206261	0.034902	0.141243
C126	C	0.719884	0.133530	0.815032
H127	H	0.726708	0.128814	0.865888
H128	H	0.673586	0.128365	0.802560
H129	H	0.727074	0.165779	0.802525
C130	C	0.821709	-0.307096	-0.204763
H131	H	0.821380	-0.329328	-0.244073
H132	H	0.862516	-0.291205	-0.207523
H133	H	0.781469	-0.283651	-0.207500
C134	C	0.384053	0.124620	-0.106245
H135	H	0.433184	0.121076	-0.098973
H136	H	0.365521	0.157708	-0.099803
H137	H	0.374218	0.114597	-0.154207
H138	H	0.824983	-0.082432	0.119668
C139	C	0.172488	0.062808	-0.138765
H140	H	0.140554	0.062488	-0.178083
H141	H	0.206362	0.034916	-0.141505
H142	H	0.195132	0.091284	-0.141507
C143	C	0.255556	0.004055	0.106070
H144	H	0.206422	0.007607	0.098814
H145	H	0.265421	0.014125	0.153996
H146	H	0.274057	-0.029047	0.099700
C147	C	0.820070	-0.413008	0.204524
H148	H	0.820380	-0.390774	0.243833
H149	H	0.860298	-0.436457	0.207277
H150	H	0.779251	-0.428892	0.207269
H151	H	0.477476	0.065931	0.119658
H152	H	0.608898	0.067284	0.119679
H153	H	0.825023	-0.082398	-0.119867
H154	H	0.823660	-0.173851	-0.119881
C155	C	0.817856	-0.564263	0.204500
H156	H	0.817363	-0.597899	0.195051
H157	H	0.777450	-0.552219	0.231621
H158	H	0.858497	-0.559786	0.231624
C159	C	0.467217	0.065823	-0.138731
H160	H	0.418884	0.065329	-0.129278
H161	H	0.484713	0.037761	-0.165845
H162	H	0.473480	0.094130	-0.165863
H163	H	0.733441	0.124102	0.333935
C164	C	0.816079	-0.690266	-0.138778
H165	H	0.815755	-0.712497	-0.178090
H166	H	0.856886	-0.674375	-0.141531
H167	H	0.775839	-0.666821	-0.141520
C168	C	0.814517	-0.796139	-0.138780
H169	H	0.814016	-0.829776	-0.129320
H170	H	0.855158	-0.791655	-0.165918
H171	H	0.774111	-0.784094	-0.165891
C172	C	0.817936	-0.564204	-0.204776
H173	H	0.818277	-0.541969	-0.244095
H174	H	0.777130	-0.580094	-0.207518
H175	H	0.858177	-0.587649	-0.207515
C176	C	0.814484	-0.796175	0.138479
H177	H	0.814798	-0.773944	0.177791
H178	H	0.854715	-0.819623	0.141225
H179	H	0.773668	-0.812062	0.141227
C180	C	0.839945	-0.028173	0.419866
H181	H	0.845755	-0.054403	0.453486
H182	H	0.880338	-0.029197	0.390031
H183	H	0.800234	-0.030809	0.390230
H184	H	0.821516	-0.314348	0.185664
C185	C	0.816039	-0.690316	0.138490
H186	H	0.815716	-0.712562	0.177798
H187	H	0.775807	-0.666869	0.141251
H188	H	0.856854	-0.674431	0.141231
C189	C	0.799676	0.156808	0.579885
H190	H	0.793951	0.183036	0.546260
H191	H	0.839338	0.159420	0.609601
H192	H	0.759222	0.157859	0.609639
C193	C	0.819483	-0.458337	-0.204774
H194	H	0.819155	-0.480569	-0.244085
H195	H	0.860292	-0.442447	-0.207530
H196	H	0.779245	-0.434891	-0.207516
H197	H	0.906147	0.004521	0.333907
C198	C	0.919731	-0.004898	0.184728
H199	H	0.948076	-0.024526	0.218342
H200	H	0.948448	0.012435	0.154970
H201	H	0.894960	-0.024978	0.155014
H202	H	0.819320	-0.465605	0.185647
C203	C	0.719882	0.133530	0.654961
H204	H	0.726692	0.128808	0.604104
H205	H	0.727075	0.165777	0.667441
H206	H	0.673581	0.128367	0.667470
C207	C	0.719826	0.133518	0.184751
H208	H	0.691486	0.153149	0.218370
H209	H	0.691104	0.116183	0.155029
H210	H	0.744593	0.153596	0.155002
