data_functionalizedCrystal
_audit_creation_method	'MofGen! by Chris Wilmer'
_symmetry_space_group_name_H-M	'P1'
_symmetry_Int_Tables_number	1
_symmetry_cell_setting	triclinic
loop_
_symmetry_equiv_pos_as_xyz
  x,y,z
_cell_length_a	12.759401
_cell_length_b	12.594516
_cell_length_c	12.759393
_cell_angle_alpha	90.030800
_cell_angle_beta	90.019377
_cell_angle_gamma	90.013522
loop_
_atom_site_label
_atom_site_type_symbol
_atom_site_fract_x
_atom_site_fract_y
_atom_site_fract_z
Zn1	Zn	1.606276	-0.423631	0.594012
Zn2	Zn	1.606180	-0.601650	0.418334
Zn3	Zn	1.430578	-0.423691	0.418348
Zn4	Zn	1.430576	-0.601573	0.593973
O5	O	1.518403	-0.512636	0.506167
O6	O	1.753285	-0.447252	0.570718
O7	O	1.582846	-0.578101	0.271315
O8	O	1.453927	-0.274738	0.441673
O9	O	1.753213	-0.578042	0.441648
O10	O	1.583011	-0.274693	0.570732
O11	O	1.453833	-0.447356	0.271325
O12	O	1.283557	-0.447281	0.441635
O13	O	1.453922	-0.577911	0.740999
O14	O	1.283555	-0.577970	0.570666
O15	O	1.583009	-0.447178	0.741028
O16	O	1.582844	-0.750586	0.441611
O17	O	1.453829	-0.750529	0.570652
C18	C	1.245435	-0.512624	0.506148
C19	C	1.128659	-0.512645	0.506165
C20	C	0.964115	-0.444661	0.573488
C21	C	1.073839	-0.444658	0.573476
C22	C	1.073749	-0.580646	0.438869
C23	C	0.964027	-0.580653	0.438886
C24	C	0.964167	-0.366146	0.651199
C25	C	1.073891	-0.366143	0.651188
C26	C	1.518354	-0.789177	0.506148
C27	C	1.518429	-0.907483	0.506176
C28	C	1.588682	-0.976728	0.436065
C29	C	1.614358	-1.047419	0.531958
C30	C	1.492885	-1.047591	0.410344
C31	C	1.544154	-0.976615	0.602119
C32	C	1.422637	-0.976781	0.480440
C33	C	1.448276	-1.047440	0.576399
C34	C	1.792436	-0.512649	0.506186
C35	C	1.909212	-0.512655	0.506194
C36	C	1.518476	-0.512529	0.780200
C37	C	1.518508	-0.512483	0.896977
C38	C	1.518480	-0.235015	0.506208
C39	C	1.518513	-0.116710	0.506226
C40	C	1.518390	-0.512667	0.233199
C41	C	1.518562	-0.512412	0.116423
C42	C	1.585732	-0.444404	0.951856
C43	C	1.585757	-0.444365	1.061580
C44	C	1.451330	-0.580495	1.061537
C45	C	1.451300	-0.580527	0.951815
C46	C	1.663346	-0.365814	0.951881
C47	C	1.663371	-0.365775	1.061605
H48	H	0.930133	-0.287809	0.622191
H49	H	1.471245	-1.078766	0.329280
H50	H	1.740619	-0.395362	0.917847
N51	N	1.771150	-0.395015	1.101065
H52	H	1.819226	-0.408098	1.039532
H53	H	1.766380	-0.461480	1.145057
H54	H	1.103674	-0.283683	0.629518
N55	N	1.132865	-0.653981	0.366268
H56	H	1.178400	-0.703354	0.408875
H57	H	1.178313	-0.610591	0.317660
N58	N	1.378858	-0.653892	1.120688
H59	H	1.336268	-0.697026	1.069270
H60	H	1.330261	-0.610548	1.166217
N61	N	1.369636	-1.088309	0.655060
H62	H	1.369659	-1.168499	0.654229
H63	H	1.297498	-1.061396	0.636210
H64	H	1.634253	-0.287455	1.095652
N65	N	1.667380	-0.935592	0.357596
H66	H	1.739754	-0.961286	0.377197
H67	H	1.666229	-0.855410	0.357692
H68	H	1.641573	-0.283385	0.922124
H69	H	0.934428	-0.388318	0.732538
N70	N	0.904809	-0.653999	0.366317
H71	H	0.956185	-0.697070	0.323676
H72	H	0.859267	-0.610624	0.317772
H73	H	1.341614	-0.945727	0.458616
N74	N	1.119025	-0.405373	0.753497
H75	H	1.060130	-0.424327	0.802941
H76	H	1.163630	-0.347773	0.785859
H77	H	1.695404	-1.078450	0.553754
N78	N	1.572942	-0.935500	0.709529
H79	H	1.638482	-0.890812	0.704466
H80	H	1.585928	-0.997380	0.758138
N81	N	1.378755	-0.653914	0.892622
H82	H	1.336179	-0.697004	0.944013
H83	H	1.421459	-0.703203	0.847072
