data_functionalizedCrystal
_audit_creation_method	'MofGen! by Chris Wilmer'
_symmetry_space_group_name_H-M	'P1'
_symmetry_Int_Tables_number	1
_symmetry_cell_setting	triclinic
loop_
_symmetry_equiv_pos_as_xyz
  x,y,z
_cell_length_a	19.805407
_cell_length_b	18.050590
_cell_length_c	19.805399
_cell_angle_alpha	89.972574
_cell_angle_beta	89.979591
_cell_angle_gamma	90.020493
loop_
_atom_site_label
_atom_site_type_symbol
_atom_site_fract_x
_atom_site_fract_y
_atom_site_fract_z
Zn1	Zn	1.034773	-0.295638	-0.382736
Zn2	Zn	1.034703	-0.419830	-0.269548
Zn3	Zn	0.921587	-0.295663	-0.269558
Zn4	Zn	0.921566	-0.419795	-0.382693
O5	O	0.978157	-0.357732	-0.326134
O6	O	1.129480	-0.312117	-0.367734
O7	O	1.019678	-0.403384	-0.174832
O8	O	0.936639	-0.191735	-0.284594
O9	O	1.129429	-0.403360	-0.284576
O10	O	1.019796	-0.191717	-0.367745
O11	O	0.936572	-0.312159	-0.174840
O12	O	0.826868	-0.312125	-0.284553
O13	O	0.936604	-0.403300	-0.477415
O14	O	0.826853	-0.403324	-0.367672
O15	O	1.019776	-0.312083	-0.477446
O16	O	1.019657	-0.523750	-0.284534
O17	O	0.936536	-0.523724	-0.367661
C18	C	0.802301	-0.357724	-0.326109
C19	C	0.727069	-0.357739	-0.326115
C20	C	0.978105	-0.550684	-0.326107
C21	C	0.978145	-0.633230	-0.326118
C22	C	0.265308	-0.310310	-0.369527
C23	C	0.335997	-0.310311	-0.369522
C24	C	0.371308	-0.357743	-0.326155
C25	C	0.335926	-0.405181	-0.282796
C26	C	0.265239	-0.405183	-0.282805
C27	C	0.621000	-0.405176	-0.282760
C28	C	0.691692	-0.405169	-0.282753
C29	C	0.691757	-0.310304	-0.369477
C30	C	0.621070	-0.310306	-0.369486
C31	C	0.585695	-0.357747	-0.326129
C32	C	0.509047	-0.357746	-0.326136
C33	C	0.447955	-0.357741	-0.326145
C34	C	1.023440	-0.832667	-0.280976
C35	C	1.039973	-0.882000	-0.342751
C36	C	0.978183	-0.784360	-0.326145
C37	C	0.961720	-0.882108	-0.264397
C38	C	0.978222	-0.930345	-0.326165
C39	C	0.994748	-0.832606	-0.387952
C40	C	0.916466	-0.832709	-0.309557
C41	C	0.932975	-0.882020	-0.371374
C42	C	0.978163	-0.700262	-0.326132
C43	C	0.978242	-1.014441	-0.326185
C44	C	1.154700	-0.357740	-0.326158
C45	C	1.229932	-0.357743	-0.326169
C46	C	0.978195	-0.357685	-0.502676
C47	C	0.978211	-0.357665	-0.577908
C48	C	0.978228	-0.164026	-0.326175
C49	C	0.978258	-0.081480	-0.326193
C50	C	1.021520	-0.310166	-0.613270
C51	C	1.021527	-0.310144	-0.683958
C52	C	0.978228	-0.357626	-0.719284
C53	C	0.934915	-0.405128	-0.683917
C54	C	0.934905	-0.405145	-0.613230
C55	C	0.934953	-0.405058	-0.968991
C56	C	0.934968	-0.405039	-1.039683
C57	C	1.021575	-0.310058	-1.039719
C58	C	1.021565	-0.310075	-0.969032
C59	C	0.978250	-0.357573	-0.933672
C60	C	0.978242	-0.357595	-0.857023
C61	C	0.978239	-0.357609	-0.795931
C62	C	0.978158	-0.357725	-0.150278
C63	C	0.978273	-0.357535	-0.075046
H64	H	0.236563	-0.271681	-0.404837
C65	C	1.075161	-0.803381	-0.229431
N66	N	1.114119	-0.781319	-0.190611
C67	C	1.110505	-0.911259	-0.361722
N68	N	1.163630	-0.933295	-0.376005
H69	H	0.720440	-0.443796	-0.247438
C70	C	0.374908	-0.258125	-0.417213
N71	N	0.404215	-0.218814	-0.453135
H72	H	0.592206	-0.443803	-0.247454
H73	H	0.720568	-0.271677	-0.404782
C74	C	0.887329	-0.457270	-1.078540
N75	N	0.851448	-0.496609	-1.107807
H76	H	0.592324	-0.271679	-0.404797
C77	C	0.374771	-0.457354	-0.235089
N78	N	0.404028	-0.496648	-0.199153
C79	C	0.226325	-0.457362	-0.235106
N80	N	0.197016	-0.496665	-0.199179
H81	H	1.008637	-0.810954	-0.440225
C82	C	0.887302	-0.457306	-0.930104
N83	N	0.851408	-0.496660	-0.900811
C84	C	1.069216	-0.257799	-1.078622
N85	N	1.105097	-0.218438	-1.107922
H86	H	0.894719	-0.903554	-0.409625
H87	H	0.864271	-0.811040	-0.295495
H88	H	0.899632	-0.443816	-0.584440
H89	H	0.947779	-0.903852	-0.212170
C90	C	1.069153	-0.257930	-0.574418
N91	N	1.105028	-0.218582	-0.545157
H92	H	1.056795	-0.271467	-0.712747
C93	C	0.887279	-0.457351	-0.722778
N94	N	0.851398	-0.496687	-0.752047
C95	C	1.069195	-0.257838	-0.930178
N96	N	1.105067	-0.218489	-0.900914
