data_functionalizedCrystal
_audit_creation_method	'MofGen! by Chris Wilmer'
_symmetry_space_group_name_H-M	'P1'
_symmetry_Int_Tables_number	1
_symmetry_cell_setting	triclinic
loop_
_symmetry_equiv_pos_as_xyz
  x,y,z
_cell_length_a	19.805407
_cell_length_b	18.101397
_cell_length_c	19.805399
_cell_angle_alpha	90.029325
_cell_angle_beta	90.019573
_cell_angle_gamma	90.020466
loop_
_atom_site_label
_atom_site_type_symbol
_atom_site_fract_x
_atom_site_fract_y
_atom_site_fract_z
Zn1	Zn	1.034764	-0.294847	0.382711
Zn2	Zn	1.034690	-0.418690	0.269520
Zn3	Zn	0.921578	-0.294867	0.269536
Zn4	Zn	0.921554	-0.418651	0.382667
O5	O	0.978146	-0.356764	0.326108
O6	O	1.129470	-0.311283	0.367708
O7	O	1.019665	-0.402290	0.174805
O8	O	0.936634	-0.191232	0.284575
O9	O	1.129417	-0.402270	0.284547
O10	O	1.019790	-0.191217	0.367724
O11	O	0.936562	-0.311318	0.174817
O12	O	0.826858	-0.311279	0.284531
O13	O	0.936591	-0.402203	0.477389
O14	O	0.826840	-0.402223	0.367648
O15	O	1.019766	-0.311245	0.477422
O16	O	1.019641	-0.522318	0.284503
O17	O	0.936520	-0.522289	0.367632
C18	C	0.802290	-0.356750	0.326087
C19	C	0.727058	-0.356761	0.326093
C20	C	0.691722	-0.404187	0.369302
C21	C	0.621034	-0.404188	0.369311
C22	C	0.585683	-0.356767	0.326108
C23	C	0.621024	-0.309336	0.282898
C24	C	0.691711	-0.309332	0.282892
C25	C	0.335950	-0.309353	0.282920
C26	C	0.265258	-0.309362	0.282928
C27	C	0.265274	-0.404209	0.369339
C28	C	0.335961	-0.404205	0.369334
C29	C	0.371295	-0.356771	0.326126
C30	C	0.447944	-0.356770	0.326117
C31	C	0.509036	-0.356772	0.326113
C32	C	0.978088	-0.549174	0.326076
C33	C	0.978126	-0.631488	0.326084
C34	C	0.978212	-0.930579	0.326146
C35	C	1.030364	-0.899242	0.273704
C36	C	1.030544	-0.813623	0.273840
C37	C	0.978169	-0.782197	0.326115
C38	C	0.997504	-0.813206	0.397460
C39	C	0.997908	-0.898851	0.397174
C40	C	0.906586	-0.899088	0.307861
C41	C	0.906940	-0.813438	0.306268
C42	C	0.978144	-0.698337	0.326101
C43	C	0.978239	-1.014439	0.326164
C44	C	1.154689	-0.356779	0.326131
C45	C	1.229921	-0.356785	0.326140
C46	C	0.978184	-0.356717	0.502651
C47	C	0.978201	-0.356697	0.577883
C48	C	0.978223	-0.163602	0.326156
C49	C	0.978256	-0.081288	0.326177
C50	C	0.978148	-0.356757	0.150252
C51	C	0.978263	-0.356568	0.075021
C52	C	1.021511	-0.309333	0.613246
C53	C	1.021518	-0.309311	0.683934
C54	C	0.978217	-0.356659	0.719259
C55	C	0.934902	-0.404025	0.683892
C56	C	0.934893	-0.404042	0.613204
C57	C	0.934941	-0.403956	0.968965
C58	C	0.934955	-0.403937	1.039657
C59	C	1.021566	-0.309225	1.039695
C60	C	1.021556	-0.309242	0.969008
C61	C	0.978239	-0.356606	0.933646
C62	C	0.978231	-0.356627	0.856998
C63	C	0.978228	-0.356641	0.795906
H64	H	0.720480	-0.270709	0.247711
F65	F	0.887879	-0.786954	0.237643
H66	H	0.720500	-0.442805	0.404481
F67	F	0.888866	-0.454332	1.077251
H68	H	1.083130	-0.920710	0.285663
H69	H	1.056834	-0.270657	1.068494
F70	F	1.065171	-0.785097	0.418048
F71	F	1.014698	-0.786221	0.204702
F72	F	0.583430	-0.454665	0.415300
F73	F	0.227662	-0.454692	0.415326
F74	F	0.373547	-0.258868	0.236936
H75	H	0.364740	-0.442822	0.404512
H76	H	1.056818	-0.270690	0.940250
H77	H	0.899644	-0.442573	0.712659
F78	F	0.227636	-0.258887	0.236944
F79	F	0.583398	-0.258862	0.236922
H80	H	0.899618	-0.442604	0.584413
H81	H	0.888996	-0.920747	0.256738
H82	H	0.899679	-0.442533	0.940182
H83	H	1.083601	-0.793080	0.285938
H84	H	1.018413	-0.919883	0.220644
F85	F	0.853417	-0.785488	0.352537
H86	H	1.050263	-0.918770	0.412663
F87	F	0.950409	-0.925946	0.449982
H88	H	0.960681	-0.792847	0.437584
F89	F	0.855797	-0.925579	0.357784
F90	F	1.067601	-0.258942	0.575657
F91	F	1.067638	-0.258925	0.721566
