data_functionalizedCrystal
_audit_creation_method	'MofGen! by Chris Wilmer'
_symmetry_space_group_name_H-M	'P1'
_symmetry_Int_Tables_number	1
_symmetry_cell_setting	triclinic
loop_
_symmetry_equiv_pos_as_xyz
  x,y,z
_cell_length_a	12.827893
_cell_length_b	17.640280
_cell_length_c	12.827885
_cell_angle_alpha	78.769218
_cell_angle_beta	89.980538
_cell_angle_gamma	78.800662
loop_
_atom_site_label
_atom_site_type_symbol
_atom_site_fract_x
_atom_site_fract_y
_atom_site_fract_z
Zn1	Zn	1.681788	-0.314632	-0.506827
Zn2	Zn	2.181788	0.185368	-0.006827
Zn3	Zn	1.717024	-0.446826	-0.296785
Zn4	Zn	2.217024	0.053174	0.203215
Zn5	Zn	1.507039	-0.314670	-0.332090
Zn6	Zn	2.007039	0.185330	0.167910
Zn7	Zn	1.542341	-0.446767	-0.471501
Zn8	Zn	2.042341	0.053233	0.028499
O9	O	1.612048	-0.380724	-0.401801
O10	O	2.112048	0.119276	0.098199
O11	O	1.832701	-0.332176	-0.478973
O12	O	2.332701	0.167824	0.021027
O13	O	1.689141	-0.429336	-0.155221
O14	O	2.189141	0.070664	0.344779
O15	O	1.500700	-0.204058	-0.384829
O16	O	2.000700	0.295942	0.115171
O17	O	1.858588	-0.429298	-0.324656
O18	O	2.358588	0.070702	0.175344
O19	O	1.629087	-0.204030	-0.513207
O20	O	2.129087	0.295970	-0.013207
O21	O	1.534866	-0.332242	-0.181160
O22	O	2.034866	0.167758	0.318840
O23	O	1.365484	-0.332185	-0.350575
O24	O	1.865484	0.167815	0.149425
O25	O	1.560867	-0.429198	-0.622434
O26	O	2.060867	0.070802	-0.122434
O27	O	1.391420	-0.429235	-0.452999
O28	O	1.891420	0.070765	0.047001
O29	O	1.663318	-0.332119	-0.648388
O30	O	2.163318	0.167881	-0.148388
O31	O	1.723372	-0.557424	-0.290402
O32	O	2.223372	-0.057424	0.209598
O33	O	1.595033	-0.557381	-0.418765
O34	O	2.095033	-0.057381	0.081235
C35	C	1.340534	-0.380708	-0.401785
C36	C	1.840534	0.119292	0.098215
C37	C	1.224384	-0.380721	-0.401798
C38	C	1.724384	0.119279	0.098202
C39	C	1.185481	-0.428820	-0.452363
C40	C	1.685481	0.071180	0.047637
C41	C	1.065435	-0.428834	-0.452377
C42	C	1.565435	0.071166	0.047623
C43	C	1.666885	-0.586082	-0.346942
C44	C	2.166885	-0.086082	0.153058
C45	C	1.690440	-0.673935	-0.323508
C46	C	2.190440	-0.173935	0.176492
C47	C	1.433531	-0.962898	-0.580206
C48	C	1.933531	-0.462898	-0.080206
C49	C	1.455667	-1.045449	-0.558153
C50	C	1.955667	-0.545449	-0.058153
C51	C	1.589389	-1.045429	-0.424624
C52	C	2.089389	-0.545429	0.075376
C53	C	1.567268	-0.962876	-0.446669
C54	C	2.067268	-0.462876	0.053331
C55	C	1.489337	-0.921617	-0.524461
C56	C	1.989337	-0.421617	-0.024461
C57	C	1.623074	-0.921595	-0.390924
C58	C	2.123074	-0.421595	0.109076
C59	C	1.600950	-0.839049	-0.412964
C60	C	2.100950	-0.339049	0.087036
C61	C	1.523021	-0.797784	-0.490750
C62	C	2.023021	-0.297784	0.009250
C63	C	1.467214	-0.839071	-0.546501
C64	C	1.967214	-0.339071	-0.046501
C65	C	1.700999	-0.962855	-0.313128
C66	C	2.200999	-0.462855	0.186872
C67	C	1.756805	-0.921574	-0.257382
C68	C	2.256805	-0.421574	0.242618
C69	C	1.734687	-0.839027	-0.279427
C70	C	2.234687	-0.339027	0.220573
C71	C	1.656758	-0.797762	-0.357213
C72	C	2.156758	-0.297762	0.142787
C73	C	1.790494	-0.797740	-0.223676
C74	C	2.290494	-0.297740	0.276324
C75	C	1.768371	-0.715194	-0.245716
C76	C	2.268371	-0.215194	0.254284
C77	C	1.634634	-0.715216	-0.379253
C78	C	2.134634	-0.215216	0.120747
C79	C	1.884622	-0.380739	-0.401817
C80	C	2.384622	0.119261	0.098183
C81	C	2.000777	-0.380746	-0.401824
C82	C	2.500777	0.119254	0.098176
C83	C	1.612100	-0.380648	-0.674391
C84	C	2.112100	0.119352	-0.174391
C85	C	1.612122	-0.380615	-0.790553
C86	C	2.112122	0.119385	-0.290553
C87	C	1.557025	-0.174563	-0.456897
C88	C	2.057025	0.325437	0.043103
C89	C	1.533578	-0.086710	-0.480375
C90	C	2.033578	0.413290	0.019625
C91	C	1.535800	-0.332561	-0.855176
C92	C	2.035800	0.167439	-0.355176
C93	C	1.535821	-0.332526	-0.975235
C94	C	2.035821	0.167474	-0.475235
C95	C	1.612041	-0.380742	-0.130286
C96	C	2.112041	0.119258	0.369714
C97	C	1.612162	-0.380552	-0.014184
C98	C	2.112162	0.119448	0.485816
H99	H	1.168816	-0.339549	-0.358523
H100	H	1.668816	0.160451	0.141477
Br101	Br	1.426913	-0.263943	-1.067775
Br102	Br	1.926913	0.236057	-0.567775
H103	H	1.031930	-0.470015	-0.495664
H104	H	1.531930	0.029985	0.004336
Br105	Br	1.426870	-0.264017	-0.799259
Br106	Br	1.926870	0.235983	-0.299259
H107	H	1.571183	-0.681621	-0.442607
H108	H	2.071183	-0.181621	0.057393
Br109	Br	1.056607	-0.312111	-0.329653
Br110	Br	1.556607	0.187889	0.170347
Br111	Br	1.695149	-1.101430	-0.319054
Br112	Br	2.195149	-0.601430	0.180946
Br113	Br	1.493258	-0.685756	-0.520930
Br114	Br	1.993258	-0.185756	-0.020930
H115	H	1.677511	-0.421692	-0.958666
H116	H	2.177511	0.078308	-0.458666
Br117	Br	1.379905	-1.101472	-0.633800
Br118	Br	1.879905	-0.601472	-0.133800
H119	H	1.813813	-0.681583	-0.200321
H120	H	2.313813	-0.181583	0.299679
Br121	Br	1.721056	-0.449155	-0.846471
Br122	Br	2.221056	0.050845	-0.346471
H123	H	1.403762	-0.805476	-0.609854
H124	H	1.903762	-0.305476	-0.109854
Br125	Br	1.278088	-0.497444	-0.524499
Br126	Br	1.778088	0.002556	-0.024499
Br127	Br	1.862565	-0.977575	-0.151813
Br128	Br	2.362565	-0.477575	0.348187
H129	H	1.719011	-1.030069	-0.295188
H130	H	2.219011	-0.530069	0.204812
Br131	Br	1.327780	-0.906896	-0.685795
Br132	Br	1.827780	-0.406896	-0.185795
H133	H	1.853938	-0.831345	-0.160332
H134	H	2.353938	-0.331345	0.339668
