data_functionalizedCrystal
_audit_creation_method	'MofGen! by Chris Wilmer'
_symmetry_space_group_name_H-M	'P1'
_symmetry_Int_Tables_number	1
_symmetry_cell_setting	triclinic
loop_
_symmetry_equiv_pos_as_xyz
  x,y,z
_cell_length_a	16.109302
_cell_length_b	16.109304
_cell_length_c	15.186229
_cell_angle_alpha	89.999066
_cell_angle_beta	89.994701
_cell_angle_gamma	83.462209
loop_
_atom_site_label
_atom_site_type_symbol
_atom_site_fract_x
_atom_site_fract_y
_atom_site_fract_z
O1	O	1.103131	0.106869	-0.073263
O2	O	0.861070	0.120167	-0.073255
O3	O	0.988749	-0.007513	-0.073259
O4	O	0.975452	0.234549	-0.073258
O5	O	0.988740	-0.007514	0.073198
O6	O	0.861061	0.120166	0.073202
O7	O	1.103123	0.106867	0.073195
Zn8	Zn	0.982091	0.113516	0.096452
Zn9	Zn	0.982102	0.113518	-0.096512
O10	O	0.975444	0.234547	0.073199
C11	C	0.830090	0.119628	-0.000025
C12	C	0.737795	0.118012	-0.000023
C13	C	0.525450	0.114276	0.079802
C14	C	0.438729	0.112750	0.079799
C15	C	0.438749	0.112756	-0.079876
C16	C	0.525468	0.114277	-0.079872
C17	C	0.568816	0.115041	-0.000030
C18	C	0.395377	0.111994	-0.000038
C19	C	0.301351	0.110338	-0.000041
C20	C	0.662848	0.116695	-0.000026
C21	C	0.988206	-0.038488	-0.000033
C22	C	0.986590	-0.130784	-0.000039
C23	C	0.982861	-0.343120	-0.079869
C24	C	0.981334	-0.429840	-0.079868
C25	C	0.981329	-0.429839	0.079807
C26	C	0.982849	-0.343120	0.079806
C27	C	0.983619	-0.299763	-0.000035
C28	C	0.980573	-0.473202	-0.000033
C29	C	0.978918	-0.567228	-0.000031
C30	C	0.985272	-0.205731	-0.000037
C31	C	1.134102	0.107407	-0.000037
C32	C	1.226397	0.109022	-0.000045
C33	C	0.975987	0.265523	-0.000029
C34	C	0.977603	0.357818	-0.000029
N35	N	0.982089	0.113514	0.228144
N36	N	0.982110	0.113514	-0.228205
C37	C	1.038645	0.056996	0.453865
C38	C	1.038647	0.056994	0.546055
C39	C	0.925548	0.170034	0.546068
C40	C	0.925542	0.170032	0.453880
C41	C	0.982095	0.113514	0.407781
C42	C	0.982104	0.113514	0.592159
C43	C	0.982106	0.113513	0.692115
C44	C	0.982092	0.113514	0.307819
H45	H	0.983485	-0.307821	-0.144881
H46	H	0.980704	-0.465151	0.144811
H47	H	0.403424	0.112127	0.144807
O48	O	0.980452	-0.471975	-0.157396
C49	C	0.907619	-0.512715	-0.162162
H50	H	0.857777	-0.479984	-0.116856
H51	H	0.883451	-0.510530	-0.232773
H52	H	0.922732	-0.580571	-0.140713
H53	H	0.983463	-0.307817	0.144820
O54	O	1.093507	0.002138	0.408948
C55	C	1.081348	0.014221	0.317697
H56	H	1.050306	0.080329	0.305093
H57	H	1.144296	0.004923	0.282632
H58	H	1.039610	-0.032819	0.291579
O59	O	1.093661	0.002064	0.590684
C60	C	1.143556	-0.047833	0.530224
H61	H	1.144481	-0.013744	0.464509
H62	H	1.209954	-0.060497	0.556850
H63	H	1.116580	-0.109604	0.520424
O64	O	0.870701	0.224907	0.590987
C65	C	0.882819	0.212780	0.682237
H66	H	0.948925	0.181723	0.694818
H67	H	0.873557	0.275742	0.717270
H68	H	0.835775	0.171069	0.708411
O69	O	0.396506	0.112055	-0.157352
C70	C	0.310668	0.110530	-0.140239
H71	H	0.295366	0.136625	-0.071625
H72	H	0.272427	0.150297	-0.191226
H73	H	0.294798	0.043439	-0.144029
H74	H	0.879489	0.216055	0.416356
O75	O	0.567543	0.115168	-0.157450
C76	C	0.536912	0.186751	-0.206028
H77	H	0.506469	0.236629	-0.159316
H78	H	0.590781	0.211906	-0.242235
H79	H	0.488717	0.169601	-0.255815
O80	O	0.567436	0.114971	0.157436
C81	C	0.510556	0.113987	0.227897
H82	H	0.452192	0.086600	0.204484
H83	H	0.540894	0.074079	0.283731
H84	H	0.492590	0.180483	0.252452
