data_functionalizedCrystal
_audit_creation_method	'MofGen! by Chris Wilmer'
_symmetry_space_group_name_H-M	'P1'
_symmetry_Int_Tables_number	1
_symmetry_cell_setting	triclinic
loop_
_symmetry_equiv_pos_as_xyz
  x,y,z
_cell_length_a	10.654558
_cell_length_b	10.654551
_cell_length_c	9.730223
_cell_angle_alpha	89.998531
_cell_angle_beta	89.999600
_cell_angle_gamma	84.486839
loop_
_atom_site_label
_atom_site_type_symbol
_atom_site_fract_x
_atom_site_fract_y
_atom_site_fract_z
O1	O	1.667829	0.176443	0.114261
O2	O	1.302351	0.193238	0.114267
O3	O	1.493492	0.002102	0.114265
O4	O	1.476688	0.367580	0.114264
O5	O	1.493490	0.002107	-0.114315
O6	O	1.302349	0.193243	-0.114313
O7	O	1.667826	0.176448	-0.114319
Zn8	Zn	1.485087	0.184846	-0.150608
Zn9	Zn	1.485090	0.184840	0.150556
O10	O	1.476686	0.367584	-0.114316
C11	C	1.255553	0.192005	-0.000022
C12	C	1.116110	0.188309	-0.000019
C13	C	1.492257	-0.044694	-0.000022
C14	C	1.488565	-0.184137	-0.000013
C15	C	0.919572	0.183111	0.124580
C16	C	1.050595	0.186573	0.124581
C17	C	1.050597	0.186571	-0.124629
C18	C	0.919577	0.183100	-0.124629
C19	C	0.854063	0.181387	0.249189
C20	C	0.919567	0.183123	0.373799
C21	C	1.050590	0.186585	0.373801
C22	C	1.116108	0.188311	0.249191
C23	C	1.486834	-0.249652	0.124584
C24	C	1.483353	-0.380672	0.124578
C25	C	1.483341	-0.380653	-0.124633
C26	C	1.486812	-0.249633	-0.124625
C27	C	1.488586	-0.184156	0.249196
C28	C	1.486857	-0.249671	0.373803
C29	C	1.483377	-0.380691	0.373797
C30	C	1.481626	-0.446197	0.249184
C31	C	1.714625	0.177681	-0.000026
C32	C	1.854068	0.181377	-0.000020
C33	C	1.477921	0.414380	-0.000026
C34	C	1.481613	0.553823	-0.000027
N35	N	1.485095	0.184850	-0.356144
C36	C	1.569754	0.100244	-0.428071
C37	C	1.569750	0.100228	-0.571954
C38	C	1.400425	0.269437	-0.571970
C39	C	1.400423	0.269445	-0.428090
C40	C	1.654425	0.015648	-0.356125
C41	C	1.739092	-0.068964	-0.428053
C42	C	1.739089	-0.068979	-0.571936
C43	C	1.654419	0.015618	-0.643891
N44	N	1.485093	0.184826	0.356093
H45	H	0.747377	0.178572	0.249202
F46	F	0.849840	0.181261	0.506409
H47	H	1.331491	0.338313	-0.630566
H48	H	1.331485	0.338338	-0.369526
F49	F	1.488660	-0.179905	-0.257235
H50	H	1.103922	0.187986	0.475264
H51	H	1.222797	0.191122	0.249203
H52	H	0.866240	0.181712	-0.226089
F53	F	1.654412	0.015585	-0.797026
H54	H	1.103952	0.187979	-0.226080
F55	F	1.654439	0.015663	-0.202993
H56	H	1.491424	-0.077473	0.249215
F57	F	1.477910	-0.585640	0.249184
F58	F	1.488716	-0.179953	0.506417
H59	H	1.481955	-0.434028	0.475257
H60	H	1.481916	-0.433998	-0.226086
F61	F	1.829190	-0.159002	-0.351472
H62	H	1.808019	-0.137882	-0.630497
