data_functionalizedCrystal
_audit_creation_method	'MofGen! by Chris Wilmer'
_symmetry_space_group_name_H-M	'P1'
_symmetry_Int_Tables_number	1
_symmetry_cell_setting	triclinic
loop_
_symmetry_equiv_pos_as_xyz
  x,y,z
_cell_length_a	12.827893
_cell_length_b	21.295417
_cell_length_c	12.827885
_cell_angle_alpha	89.961900
_cell_angle_beta	89.980728
_cell_angle_gamma	90.030477
loop_
_atom_site_label
_atom_site_type_symbol
_atom_site_fract_x
_atom_site_fract_y
_atom_site_fract_z
Zn1	Zn	1.597560	-0.250579	-0.590788
Zn2	Zn	2.097560	0.249421	-0.090788
Zn3	Zn	1.597408	-0.355861	-0.416023
Zn4	Zn	2.097408	0.144139	0.083977
Zn5	Zn	1.422801	-0.250610	-0.416062
Zn6	Zn	1.922801	0.249390	0.083938
Zn7	Zn	1.422740	-0.355814	-0.590723
Zn8	Zn	1.922740	0.144186	-0.090723
O9	O	1.510127	-0.303216	-0.503399
O10	O	2.010127	0.196784	-0.003399
O11	O	1.743776	-0.264552	-0.567616
O12	O	2.243776	0.235448	-0.067616
O13	O	1.574208	-0.341932	-0.269792
O14	O	2.074208	0.158068	0.230208
O15	O	1.446072	-0.162516	-0.439283
O16	O	1.946072	0.337484	0.060717
O17	O	1.743664	-0.341902	-0.439217
O18	O	2.243664	0.158098	0.060783
O19	O	1.574467	-0.162494	-0.567654
O20	O	2.074467	0.337506	-0.067654
O21	O	1.445925	-0.264604	-0.269821
O22	O	1.945925	0.235396	0.230179
O23	O	1.276557	-0.264559	-0.439220
O24	O	1.776557	0.235441	0.060780
O25	O	1.445969	-0.341822	-0.736968
O26	O	1.945969	0.158178	-0.236968
O27	O	1.276512	-0.341852	-0.567543
O28	O	1.776512	0.158148	-0.067543
O29	O	1.574408	-0.264506	-0.737016
O30	O	2.074408	0.235494	-0.237016
O31	O	1.574149	-0.443944	-0.439154
O32	O	2.074149	0.056056	0.060846
O33	O	1.445821	-0.443910	-0.567505
O34	O	1.945821	0.056090	-0.067505
C35	C	1.238617	-0.303204	-0.503379
C36	C	1.738617	0.196796	-0.003379
C37	C	1.122464	-0.303214	-0.503396
C38	C	1.622464	0.196786	-0.003396
C39	C	1.070685	-0.341521	-0.566796
C40	C	1.570685	0.158479	-0.066796
C41	C	0.950635	-0.341532	-0.566814
C42	C	1.450635	0.158468	-0.066814
C43	C	1.509990	-0.466768	-0.503341
C44	C	2.009990	0.033232	-0.003341
C45	C	1.510027	-0.536736	-0.503351
C46	C	2.010027	-0.036736	-0.003351
C47	C	1.576907	-0.569600	-0.436587
C48	C	2.076907	-0.069600	0.063413
C49	C	1.576956	-0.635342	-0.436611
C50	C	2.076956	-0.135342	0.063389
C51	C	1.510107	-0.668218	-0.503387
C52	C	2.010107	-0.168218	-0.003387
C53	C	1.443222	-0.635347	-0.570165
C54	C	1.943222	-0.135347	-0.070165
C55	C	1.443183	-0.569606	-0.570147
C56	C	1.943183	-0.069606	-0.070147
N57	N	1.418690	-0.771484	-0.511347
N58	N	1.918690	-0.271484	-0.011347
N59	N	1.418731	-0.833935	-0.511358
N60	N	1.918731	-0.333935	-0.011358
C61	C	1.510224	-0.866293	-0.503447
C62	C	2.010224	-0.366293	-0.003447
N63	N	1.601676	-0.833840	-0.495504
N64	N	2.101676	-0.333840	0.004496
N65	N	1.601635	-0.771383	-0.495488
N66	N	2.101635	-0.271383	0.004512
C67	C	1.510143	-0.739504	-0.503415
C68	C	2.010143	-0.239504	-0.003415
C69	C	1.577162	-0.970442	-0.436705
C70	C	2.077162	-0.470442	0.063295
C71	C	1.577213	-1.036186	-0.436736
C72	C	2.077213	-0.536186	0.063264
C73	C	1.443470	-1.036189	-0.570284
C74	C	1.943470	-0.536189	-0.070284
C75	C	1.443429	-0.970447	-0.570259
C76	C	1.943429	-0.470447	-0.070259
C77	C	1.510273	-0.937577	-0.503464
C78	C	2.010273	-0.437577	-0.003464
C79	C	1.782697	-0.303229	-0.503420
C80	C	2.282697	0.196771	-0.003420
C81	C	1.898851	-0.303234	-0.503428
C82	C	2.398851	0.196766	-0.003428
C83	C	1.510198	-0.303156	-0.775969
C84	C	2.010198	0.196844	-0.275969
C85	C	1.510229	-0.303130	-0.892123
C86	C	2.010229	0.196870	-0.392123
C87	C	1.510293	-0.139026	-0.503480
C88	C	2.010293	0.360974	-0.003480
C89	C	1.510364	-0.069058	-0.503515
C90	C	2.010364	0.430942	-0.003515
C91	C	1.573791	-0.264864	-0.943931
C92	C	2.073791	0.235136	-0.443931
C93	C	1.573824	-0.264837	-1.063982
C94	C	2.073824	0.235163	-0.563982
C95	C	1.510117	-0.303231	-0.231889
C96	C	2.010117	0.196769	0.268111
C97	C	1.510289	-0.303079	-0.115737
C98	C	2.010289	0.196921	0.384263
H99	H	0.943373	-0.270439	-0.449143
H100	H	1.443373	0.229561	0.050857
H101	H	1.631421	-0.662105	-0.382244
H102	H	2.131421	-0.162105	0.117756
H103	H	1.455871	-0.335844	-1.071189
H104	H	1.955871	0.164156	-0.571189
O105	O	0.897360	-0.380601	-0.631539
O106	O	1.397360	0.119399	-0.131539
C107	C	0.789357	-0.371922	-0.617136
C108	C	1.289357	0.128078	-0.117136
H109	H	0.774568	-0.323311	-0.583047
H110	H	1.274568	0.176689	-0.083047
H111	H	0.747836	-0.376229	-0.695367
H112	H	1.247836	0.123771	-0.195367
H113	H	0.758331	-0.409208	-0.561348
H114	H	1.258331	0.090792	-0.061348
H115	H	1.628246	-0.232078	-1.108535
H116	H	2.128246	0.267922	-0.608535
O117	O	1.123774	-0.380571	-0.631689
O118	O	1.623774	0.119429	-0.131689
C119	C	1.097217	-0.366915	-0.735910
C120	C	1.597217	0.133085	-0.235910
H121	H	1.067176	-0.316650	-0.741372
H122	H	1.567176	0.183350	-0.241372
H123	H	1.169067	-0.372327	-0.787446
H124	H	1.669067	0.127673	-0.287446
H125	H	1.033939	-0.400726	-0.763190
H126	H	1.533939	0.099274	-0.263190
H127	H	1.631680	-1.062942	-0.382371
H128	H	2.131680	-0.562942	0.117629
O129	O	1.445235	-0.342212	-0.945065
O130	O	1.945235	0.157788	-0.445065
C131	C	1.386149	-0.377809	-0.873585
C132	C	1.886149	0.122191	-0.373585
H133	H	1.382464	-0.352086	-0.795765
H134	H	1.882464	0.147914	-0.295765
H135	H	1.303844	-0.384497	-0.905194
H136	H	1.803844	0.115503	-0.405194
H137	H	1.424357	-0.425628	-0.861997
H138	H	1.924357	0.074372	-0.361997
O139	O	1.069492	-0.264037	-0.438619
O140	O	1.569492	0.235963	0.061381
C141	C	1.140945	-0.228429	-0.379646
C142	C	1.640945	0.271571	0.120354
H143	H	1.218800	-0.226230	-0.422372
H144	H	1.718800	0.273770	0.077628
H145	H	1.109354	-0.178844	-0.368682
H146	H	1.609354	0.321156	0.131318
H147	H	1.152460	-0.251418	-0.300197
H148	H	1.652460	0.248582	0.199803
O149	O	1.641797	-0.537742	-0.371568
O150	O	2.141797	-0.037742	0.128432
C151	C	1.619010	-0.553859	-0.267398
C152	C	2.119010	-0.053859	0.232602
H153	H	1.578860	-0.601611	-0.265209
H154	H	2.078860	-0.101611	0.234791
H155	H	1.694457	-0.556095	-0.220610
H156	H	2.194457	-0.056095	0.279390
H157	H	1.565287	-0.516902	-0.232140
H158	H	2.065287	-0.016902	0.267860
O159	O	1.378429	-0.667349	-0.635081
O160	O	1.878429	-0.167349	-0.135081
C161	C	1.437913	-0.705301	-0.702654
C162	C	1.937913	-0.205301	-0.202654
H163	H	1.517132	-0.715125	-0.665868
H164	H	2.017132	-0.215125	-0.165868
H165	H	1.395366	-0.751546	-0.716632
H166	H	1.895366	-0.251546	-0.216632
H167	H	1.449339	-0.679921	-0.780100
H168	H	1.949339	-0.179921	-0.280100
O169	O	1.378111	-0.537776	-0.635034
O170	O	1.878111	-0.037776	-0.135034
C171	C	1.319139	-0.580887	-0.694005
C172	C	1.819139	-0.080887	-0.194005
H173	H	1.315572	-0.627775	-0.651216
H174	H	1.815572	-0.127775	-0.151216
H175	H	1.236786	-0.561931	-0.705075
H176	H	1.736786	-0.061931	-0.205075
H177	H	1.357371	-0.587815	-0.773407
H178	H	1.857371	-0.087815	-0.273407
H179	H	1.631594	-0.943679	-0.382320
H180	H	2.131594	-0.443679	0.117680
O181	O	1.378569	-1.068215	-0.635058
O182	O	1.878569	-0.568215	-0.135058
C183	C	1.392967	-1.133288	-0.620783
C184	C	1.892967	-0.633288	-0.120783
H185	H	1.427238	-1.142290	-0.540167
H186	H	1.927238	-0.642290	-0.040167
H187	H	1.314705	-1.158313	-0.627816
H188	H	1.814705	-0.658313	-0.127816
H189	H	1.448600	-1.151879	-0.682821
H190	H	1.948600	-0.651879	-0.182821
O191	O	1.378352	-0.938617	-0.635137
O192	O	1.878352	-0.438617	-0.135137
C193	C	1.319376	-0.981729	-0.694101
C194	C	1.819376	-0.481729	-0.194101
H195	H	1.315812	-1.028616	-0.651309
H196	H	1.815812	-0.528616	-0.151309
H197	H	1.237021	-0.962774	-0.705165
H198	H	1.737021	-0.462774	-0.205165
H199	H	1.357601	-0.988659	-0.773505
H200	H	1.857601	-0.488659	-0.273505
O201	O	1.638544	-0.225774	-0.890710
O202	O	2.138544	0.274226	-0.390710
C203	C	1.579016	-0.185151	-0.827608
C204	C	2.079016	0.314849	-0.327608
H205	H	1.499777	-0.207359	-0.811351
H206	H	1.999777	0.292641	-0.311351
H207	H	1.621499	-0.176780	-0.750817
H208	H	2.121499	0.323220	-0.250817
H209	H	1.567638	-0.138467	-0.869627
H210	H	2.067638	0.361533	-0.369627
