data_functionalizedCrystal
_audit_creation_method	'MofGen! by Chris Wilmer'
_symmetry_space_group_name_H-M	'P1'
_symmetry_Int_Tables_number	1
_symmetry_cell_setting	triclinic
loop_
_symmetry_equiv_pos_as_xyz
  x,y,z
_cell_length_a	10.654554
_cell_length_b	8.559649
_cell_length_c	7.088929
_cell_angle_alpha	95.344185
_cell_angle_beta	96.267970
_cell_angle_gamma	102.867246
loop_
_atom_site_label
_atom_site_type_symbol
_atom_site_fract_x
_atom_site_fract_y
_atom_site_fract_z
O1	O	1.630232	-0.240468	-0.158817
O2	O	1.262545	-0.261823	-0.158856
O3	O	1.478782	-0.018902	-0.158831
O4	O	1.413994	-0.483388	-0.158842
O5	O	1.507687	0.013636	0.159148
O6	O	1.291450	-0.229285	0.159123
O7	O	1.659137	-0.207930	0.159162
Cu8	Cu	1.477932	-0.215636	0.188176
Cu9	Cu	1.443749	-0.254116	-0.187870
O10	O	1.442899	-0.450850	0.159137
C11	C	1.230361	-0.243985	0.000128
C12	C	1.091402	-0.239291	0.000113
C13	C	1.498144	0.056842	0.000155
C14	C	1.512757	0.234059	0.000146
C15	C	1.691320	-0.225768	0.000174
C16	C	1.830278	-0.230463	0.000176
C17	C	1.997148	-0.382323	0.000119
C18	C	1.866586	-0.377909	0.000157
C19	C	1.924543	-0.087419	0.000176
C20	C	2.055104	-0.091834	0.000152
C21	C	2.033446	-0.529781	0.000081
C22	C	1.939190	-0.672825	0.000084
C23	C	1.808627	-0.668411	0.000122
C24	C	1.772321	-0.520952	0.000157
C25	C	1.423537	-0.526595	0.000146
C26	C	1.408922	-0.703813	0.000143
N27	N	1.501985	-0.188571	0.452667
N28	N	1.419708	-0.281169	-0.452361
H29	H	1.968762	-0.792878	0.000072
H30	H	1.334439	-0.377128	0.465983
H31	H	2.139752	-0.533392	0.000041
H32	H	1.731888	-0.784882	0.000144
H33	H	1.666008	-0.517367	0.000218
H34	H	1.894968	0.032631	0.000173
H35	H	2.131849	0.024635	0.000142
H36	H	1.308844	0.213801	0.000138
H37	H	1.587268	-0.092617	0.534333
H38	H	1.612844	0.316456	0.000172
