data_functionalizedCrystal
_audit_creation_method	'MofGen! by Chris Wilmer'
_symmetry_space_group_name_H-M	'P1'
_symmetry_Int_Tables_number	1
_symmetry_cell_setting	triclinic
loop_
_symmetry_equiv_pos_as_xyz
  x,y,z
_cell_length_a	14.044220
_cell_length_b	23.532407
_cell_length_c	12.503572
_cell_angle_alpha	93.496478
_cell_angle_beta	86.164750
_cell_angle_gamma	88.018778
loop_
_atom_site_label
_atom_site_type_symbol
_atom_site_fract_x
_atom_site_fract_y
_atom_site_fract_z
O1	O	1.261903	0.134222	-0.089227
O2	O	1.761903	0.634222	0.410773
O3	O	0.985982	0.129269	-0.089253
O4	O	1.485982	0.629269	0.410747
O5	O	1.132262	0.049265	-0.089219
O6	O	1.632262	0.549265	0.410781
O7	O	1.115623	0.214225	-0.089260
O8	O	1.615623	0.714225	0.410740
O9	O	1.121261	0.055293	0.089420
O10	O	1.621261	0.555293	0.589420
O11	O	0.974981	0.135296	0.089386
O12	O	1.474981	0.635296	0.589386
O13	O	1.250902	0.140249	0.089413
O14	O	1.750902	0.640249	0.589413
Cu15	Cu	1.111937	0.138323	0.105711
Cu16	Cu	1.611937	0.638323	0.605711
Cu17	Cu	1.124947	0.131195	-0.105551
Cu18	Cu	1.624947	0.631195	0.394449
O19	O	1.104622	0.220253	0.089379
O20	O	1.604622	0.720253	0.589379
C21	C	0.945188	0.130115	0.000063
C22	C	1.445188	0.630115	0.500063
C23	C	0.840023	0.123648	0.000054
C24	C	1.340023	0.623648	0.500054
C25	C	0.647472	0.111828	0.000078
C26	C	1.147472	0.611828	0.500078
C27	C	0.589407	0.157687	0.000072
C28	C	1.089407	0.657687	0.500072
C29	C	0.482265	0.151110	0.000085
C30	C	0.982265	0.651110	0.500085
C31	C	0.754624	0.118404	0.000065
C32	C	1.254624	0.618404	0.500065
C33	C	1.126337	0.031040	0.000103
C34	C	1.626337	0.531040	0.500103
C35	C	1.125063	-0.032246	0.000111
C36	C	1.625063	0.467754	0.500111
C37	C	1.203641	-0.427092	0.000060
C38	C	1.703641	0.072908	0.500060
C39	C	1.202458	-0.486556	0.000051
C40	C	1.702458	0.013444	0.500051
O41	O	1.275300	-0.519354	0.000019
O42	O	1.775300	-0.019354	0.500019
N43	N	1.115494	-0.513896	0.000044
N44	N	1.615494	-0.013896	0.500044
C45	C	1.029708	-0.481769	0.000034
C46	C	1.529708	0.018231	0.500034
O47	O	0.955630	-0.510484	0.000026
O48	O	1.455630	-0.010484	0.500026
C49	C	1.030893	-0.422305	0.000034
C50	C	1.530893	0.077695	0.500034
C51	C	1.117862	-0.394968	0.000053
C52	C	1.617862	0.105032	0.500053
C53	C	1.290603	-0.399754	0.000077
C54	C	1.790603	0.100246	0.500077
C55	C	1.291786	-0.340294	0.000087
C56	C	1.791786	0.159706	0.500087
C57	C	1.206006	-0.308170	0.000080
C58	C	1.706006	0.191830	0.500080
C59	C	1.119044	-0.335508	0.000063
C60	C	1.619044	0.164492	0.500063
C61	C	0.945109	-0.390179	0.000016
C62	C	1.445109	0.109821	0.500016
C63	C	0.946301	-0.330712	0.000016
C64	C	1.446301	0.169288	0.500016
C65	C	1.033270	-0.303375	0.000035
C66	C	1.533270	0.196625	0.500035
C67	C	1.034447	-0.243924	0.000066
C68	C	1.534447	0.256076	0.500066
N69	N	1.121411	-0.216584	0.000074
N70	N	1.621411	0.283416	0.500074
C71	C	1.207191	-0.248707	0.000081
C72	C	1.707191	0.251293	0.500081
C73	C	1.027228	-0.606646	0.000031
C74	C	1.527228	-0.106646	0.500031
C75	C	1.026042	-0.666108	0.000038
C76	C	1.526042	-0.166108	0.500038
C77	C	1.198792	-0.670891	0.000053
C78	C	1.698792	-0.170891	0.500053
C79	C	1.199976	-0.611428	0.000054
C80	C	1.699976	-0.111428	0.500054
C81	C	1.114192	-0.579306	0.000038
C82	C	1.614192	-0.079306	0.500038
C83	C	1.209668	-0.123835	0.000103
C84	C	1.709668	0.376165	0.500103
C85	C	1.210842	-0.064369	0.000118
C86	C	1.710842	0.435631	0.500118
C87	C	1.038093	-0.059591	0.000097
C88	C	1.538093	0.440409	0.500097
C89	C	1.036917	-0.119052	0.000088
C90	C	1.536917	0.380948	0.500088
C91	C	1.122713	-0.151173	0.000087
C92	C	1.622713	0.348827	0.500087
O93	O	0.961644	-0.211090	0.000095
O94	O	1.461644	0.288910	0.500095
O95	O	1.281258	-0.219985	0.000075
O96	O	1.781258	0.280015	0.500075
C97	C	1.291696	0.139403	0.000094
C98	C	1.791696	0.639403	0.500094
C99	C	1.396861	0.145869	0.000096
C100	C	1.896861	0.645869	0.500096
C101	C	1.110547	0.238478	0.000054
C102	C	1.610547	0.738478	0.500054
C103	C	1.111822	0.301763	0.000039
C104	C	1.611822	0.801763	0.500039
N105	N	1.102793	0.143337	0.254301
N106	N	1.602793	0.643337	0.754301
N107	N	1.134098	0.126177	-0.254141
N108	N	1.634098	0.626177	0.245859
C109	C	1.089342	0.150717	0.473413
C110	C	1.589342	0.650717	0.973413
C111	C	1.147546	0.118799	0.526753
C112	C	1.647546	0.618799	1.026753
C113	C	1.140062	0.122905	0.648675
C114	C	1.640062	0.622905	1.148675
C115	C	1.096825	0.146611	0.351480
C116	C	1.596825	0.646611	0.851480
H117	H	1.281666	-0.042114	0.000136
H118	H	1.781666	0.457886	0.500136
H119	H	1.360460	-0.425903	0.000079
H120	H	1.860460	0.074097	0.500079
H121	H	1.202998	0.088389	0.480853
H122	H	1.702998	0.588389	0.980853
N123	N	1.293780	-0.581948	0.000070
N124	N	1.793780	-0.081948	0.500070
H125	H	1.302208	-0.559613	-0.066150
H126	H	1.802208	-0.059613	0.433850
H127	H	1.293984	-0.555184	0.066338
H128	H	1.793984	-0.055184	0.566338
H129	H	1.033896	0.181126	0.519308
H130	H	1.533896	0.681126	1.019308
N131	N	0.606732	0.053285	0.000101
N132	N	1.106732	0.553285	0.500101
H133	H	0.570312	0.046286	-0.066116
H134	H	1.070312	0.546286	0.433884
H135	H	0.660454	0.023627	0.000143
H136	H	1.160454	0.523627	0.500143
N137	N	0.630128	0.216239	0.000041
N138	N	1.130128	0.716239	0.500041
H139	H	0.666550	0.223250	0.066253
H140	H	1.166550	0.723250	0.566253
H141	H	0.674635	0.218732	-0.066234
H142	H	1.174635	0.718732	0.433766
N143	N	1.302201	-0.158475	0.000103
N144	N	1.802201	0.341525	0.500103
H145	H	1.357464	-0.132126	0.000118
H146	H	1.857464	0.367874	0.500118
H147	H	1.301397	-0.181022	0.066325
H148	H	1.801397	0.318978	0.566325
N149	N	1.385588	-0.310813	0.000103
N150	N	1.885588	0.189187	0.500103
H151	H	1.439742	-0.340193	0.000104
H152	H	1.939742	0.159807	0.500104
H153	H	1.393925	-0.288475	-0.066120
H154	H	1.893925	0.211525	0.433880
H155	H	0.957366	-0.580495	0.000027
H156	H	1.457366	-0.080495	0.500027
N157	N	1.291315	-0.705544	0.000061
N158	N	1.791315	-0.205544	0.500061
H159	H	1.277361	-0.747361	0.000054
H160	H	1.777361	-0.247361	0.500054
H161	H	1.333318	-0.698427	-0.066159
H162	H	1.833318	-0.198427	0.433841
N163	N	0.932233	-0.695583	0.000043
N164	N	1.432233	-0.195583	0.500043
H165	H	0.898755	-0.686413	-0.066180
H166	H	1.398755	-0.186413	0.433820
H167	H	0.944560	-0.738119	0.000082
H168	H	1.444560	-0.238119	0.500082
N169	N	0.851305	-0.419654	0.000010
N170	N	1.351305	0.080346	0.500010
H171	H	0.797153	-0.390273	0.000004
H172	H	1.297153	0.109727	0.500004
H173	H	0.851119	-0.446451	-0.066214
H174	H	1.351119	0.053549	0.433786
H175	H	0.876442	-0.304561	0.000002
H176	H	1.376442	0.195439	0.500002
N177	N	0.943118	-0.148541	0.000083
N178	N	1.443118	0.351459	0.500083
H179	H	0.888957	-0.119165	0.000083
H180	H	1.388957	0.380835	0.500083
H181	H	0.942943	-0.175332	-0.066150
H182	H	1.442943	0.324668	0.433850
N183	N	0.945575	-0.024937	0.000118
N184	N	1.445575	0.475063	0.500118
H185	H	0.959529	0.016880	0.000130
H186	H	1.459529	0.516880	0.500130
H187	H	0.911717	-0.036506	-0.066106
H188	H	1.411717	0.463494	0.433894
