data_functionalizedCrystal
_audit_creation_method	'MofGen! by Chris Wilmer'
_symmetry_space_group_name_H-M	'P1'
_symmetry_Int_Tables_number	1
_symmetry_cell_setting	triclinic
loop_
_symmetry_equiv_pos_as_xyz
  x,y,z
_cell_length_a	15.944551
_cell_length_b	12.837942
_cell_length_c	11.295483
_cell_angle_alpha	85.469583
_cell_angle_beta	85.890183
_cell_angle_gamma	90.836161
loop_
_atom_site_label
_atom_site_type_symbol
_atom_site_fract_x
_atom_site_fract_y
_atom_site_fract_z
O1	O	1.130324	-0.126707	-0.099142
O2	O	0.887092	-0.143192	-0.099119
O3	O	1.003314	0.015953	-0.099122
O4	O	1.014102	-0.285852	-0.099138
O5	O	0.993105	0.001997	0.098929
O6	O	0.876882	-0.157149	0.098932
O7	O	1.120114	-0.140664	0.098909
Cu8	Cu	0.997566	-0.150180	0.117005
Cu9	Cu	1.009640	-0.133675	-0.117214
O10	O	1.003892	-0.299809	0.098913
C11	C	0.850638	-0.149486	-0.000090
C12	C	0.757228	-0.147435	-0.000081
C13	C	0.994566	0.047596	-0.000097
C14	C	0.983698	0.162674	-0.000098
C15	C	1.156568	-0.134369	-0.000122
C16	C	1.249979	-0.136420	-0.000139
C17	C	1.473118	-0.239970	-0.000117
C18	C	1.535326	-0.185004	-0.097763
C19	C	1.421001	-0.140132	-0.000121
C20	C	1.525236	-0.198741	0.097500
C21	C	1.586200	-0.143726	-0.000100
C22	C	1.481982	-0.085133	-0.097848
C23	C	1.471883	-0.098890	0.097502
C24	C	1.534068	-0.043850	-0.000167
C25	C	1.325834	-0.138065	-0.000135
C26	C	1.681366	-0.145785	-0.000095
C27	C	1.012641	-0.331451	-0.000115
C28	C	1.023509	-0.446528	-0.000122
N29	N	0.989080	-0.161789	0.281741
C30	C	1.114352	0.403626	-0.000135
C31	C	1.104145	0.511752	-0.000136
C32	C	0.953077	0.487056	-0.000110
C33	C	0.963284	0.378930	-0.000109
C34	C	1.043924	0.337218	-0.000120
C35	C	1.054130	0.229089	-0.000110
C36	C	0.903064	0.204396	-0.000092
C37	C	0.892856	0.312522	-0.000093
N38	N	1.018133	-0.122059	-0.281950
C39	C	1.079217	-0.038438	0.531028
C40	C	1.072811	-0.047218	0.655692
C41	C	0.969856	-0.188122	0.655735
C42	C	0.976263	-0.179343	0.531071
C43	C	1.030946	-0.104499	0.468722
C44	C	1.037357	-0.095725	0.344056
C45	C	0.934398	-0.236624	0.344101
C46	C	0.927991	-0.245403	0.468765
H47	H	1.446447	-0.322834	-0.000218
H48	H	1.444118	-0.062517	0.180064
H49	H	0.925328	-0.249051	0.706516
H50	H	0.845716	0.150314	-0.000070
N51	N	0.869010	-0.326119	0.536016
H52	H	0.872274	-0.321657	0.624445
H53	H	0.885722	-0.398131	0.514221
H54	H	0.895095	-0.290418	0.293358
H55	H	1.563074	-0.221416	-0.180317
H56	H	0.887423	0.521038	-0.000113
H57	H	1.180012	0.369663	-0.000133
N58	N	1.138188	0.042298	0.463793
H59	H	1.105067	0.091862	0.412094
H60	H	1.181203	0.006239	0.412114
H61	H	1.112117	0.006577	0.706418
N62	N	1.456681	-0.021534	-0.207323
H63	H	1.480363	-0.053766	-0.280989
H64	H	1.479410	0.052330	-0.207547
H65	H	1.544444	-0.246803	0.180052
N66	N	1.569193	0.066023	-0.000208
H67	H	1.553516	0.108789	-0.073992
H68	H	1.632449	0.063927	0.000545
N69	N	0.805885	0.357517	-0.000066
H70	H	0.762817	0.299037	-0.000052
H71	H	0.802136	0.407010	-0.073485
N72	N	1.141101	0.184095	-0.000114
H73	H	1.184167	0.242575	-0.000128
H74	H	1.152409	0.144938	-0.073533
H75	H	1.161495	0.565818	-0.000153
H76	H	1.081885	-0.034787	0.293292
