data_functionalizedCrystal
_audit_creation_method	'MofGen! by Chris Wilmer'
_symmetry_space_group_name_H-M	'P1'
_symmetry_Int_Tables_number	1
_symmetry_cell_setting	triclinic
loop_
_symmetry_equiv_pos_as_xyz
  x,y,z
_cell_length_a	19.077105
_cell_length_b	19.077068
_cell_length_c	19.077569
_cell_angle_alpha	89.935763
_cell_angle_beta	94.700723
_cell_angle_gamma	90.115316
loop_
_atom_site_label
_atom_site_type_symbol
_atom_site_fract_x
_atom_site_fract_y
_atom_site_fract_z
Zn1	Zn	1.081898	-0.305533	0.453630
Zn2	Zn	1.415232	0.027801	0.786963
Zn3	Zn	1.748565	0.361134	1.120296
Zn4	Zn	1.072367	-0.427395	0.340438
Zn5	Zn	1.405700	-0.094062	0.673772
Zn6	Zn	1.739034	0.239271	1.007105
Zn7	Zn	0.959280	-0.305543	0.331026
Zn8	Zn	1.292613	0.027790	0.664359
Zn9	Zn	1.625947	0.361124	0.997692
Zn10	Zn	0.959616	-0.418291	0.453207
Zn11	Zn	1.292949	-0.084957	0.786540
Zn12	Zn	1.626282	0.248376	1.119874
O13	O	1.018290	-0.364190	0.394575
O14	O	1.351624	-0.030857	0.727908
O15	O	1.684957	0.302476	1.061242
O16	O	1.179137	-0.325504	0.442731
O17	O	1.512470	0.007829	0.776064
O18	O	1.845804	0.341162	1.109397
O19	O	1.053237	-0.415046	0.240685
O20	O	1.386570	-0.081713	0.574019
O21	O	1.719903	0.251621	0.907352
O22	O	0.979394	-0.207356	0.343527
O23	O	1.312727	0.125977	0.676861
O24	O	1.646061	0.459310	1.010194
O25	O	1.172134	-0.415036	0.359569
O26	O	1.505468	-0.081703	0.692903
O27	O	1.838801	0.251631	1.026236
O28	O	1.069481	-0.207349	0.433604
O29	O	1.402815	0.125984	0.766937
O30	O	1.736148	0.459318	1.100271
O31	O	0.970152	-0.325521	0.233770
O32	O	1.303485	0.007812	0.567103
O33	O	1.636819	0.341145	0.900437
O34	O	0.860822	-0.316693	0.343117
O35	O	1.194155	0.016640	0.676450
O36	O	1.527488	0.349974	1.009784
O37	O	0.979966	-0.399519	0.551767
O38	O	1.313299	-0.066185	0.885101
O39	O	1.646633	0.267148	1.218434
O40	O	0.861068	-0.399528	0.432883
O41	O	1.194402	-0.066195	0.766216
O42	O	1.527735	0.267138	1.099550
O43	O	1.069807	-0.316676	0.552078
O44	O	1.403140	0.016658	0.885411
O45	O	1.736473	0.349991	1.218745
O46	O	1.053562	-0.524373	0.359159
O47	O	1.386895	-0.191039	0.692493
O48	O	1.720229	0.142294	1.025826
O49	O	0.970724	-0.517684	0.442010
O50	O	1.304057	-0.184350	0.775343
O51	O	1.637391	0.148983	1.108677
C52	C	0.835404	-0.357124	0.386933
C53	C	1.168738	-0.023791	0.720267
C54	C	1.502071	0.309542	1.053600
C55	C	0.757165	-0.354118	0.383681
C56	C	1.090498	-0.020784	0.717015
C57	C	1.423831	0.312549	1.050348
C58	C	0.720549	-0.395903	0.428822
C59	C	1.053882	-0.062570	0.762155
C60	C	1.387216	0.270763	1.095489
C61	C	0.647035	-0.393069	0.425769
C62	C	0.980368	-0.059736	0.759103
C63	C	1.313702	0.273598	1.092436
C64	C	0.610138	-0.348452	0.377573
C65	C	0.943472	-0.015119	0.710906
C66	C	1.276805	0.318215	1.044239
C67	C	0.646759	-0.306662	0.332430
C68	C	0.980093	0.026672	0.665764
C69	C	1.313426	0.360005	0.999097
C70	C	0.720272	-0.309493	0.335487
C71	C	1.053605	0.023841	0.668820
C72	C	1.386939	0.357174	1.002153
C73	C	0.390264	-0.335349	0.363431
C74	C	0.723597	-0.002015	0.696764
C75	C	1.056931	0.331318	1.030097
C76	C	0.316746	-0.332522	0.360376
C77	C	0.650079	0.000811	0.693710
C78	C	0.983413	0.334145	1.027043
C79	C	0.317027	-0.418929	0.453717
C80	C	0.650360	-0.085595	0.787050
C81	C	0.983693	0.247738	1.120383
C82	C	0.390541	-0.421759	0.456766
C83	C	0.723874	-0.088426	0.790099
C84	C	1.057207	0.244908	1.123433
C85	C	0.427156	-0.379966	0.411626
C86	C	0.760489	-0.046633	0.744959
C87	C	1.093822	0.286701	1.078293
N88	N	0.534995	-0.345555	0.374450
N89	N	0.868329	-0.012222	0.707783
N90	N	1.201662	0.321111	1.041117
N91	N	0.502298	-0.382860	0.414753
N92	N	0.835631	-0.049526	0.748086
N93	N	1.168964	0.283807	1.081419
C94	C	1.011165	-0.546487	0.401576
C95	C	1.344498	-0.213153	0.734910
C96	C	1.677832	0.120180	1.068243
C97	C	1.008182	-0.624475	0.404598
C98	C	1.341515	-0.291142	0.737931
C99	C	1.674849	0.042191	1.071264
C100	C	1.049946	-0.664574	0.362920
C101	C	1.383280	-0.331240	0.696253
C102	C	1.716613	0.002093	1.029587
C103	C	1.047145	-0.737852	0.365766
C104	C	1.380478	-0.404519	0.699100
C105	C	1.713812	-0.071186	1.032433
C106	C	1.002575	-0.771031	0.410287
C107	C	1.335909	-0.437697	0.743620
C108	C	1.669242	-0.104364	1.076953
C109	C	0.960809	-0.730927	0.451969
C110	C	1.294143	-0.397594	0.785302
C111	C	1.627476	-0.064260	1.118636
C112	C	0.963615	-0.657650	0.449126
C113	C	1.296948	-0.324317	0.782460
C114	C	1.630281	0.009017	1.115793
C115	C	0.989560	-0.989815	0.423414
C116	C	1.322893	-0.656481	0.756747
C117	C	1.656226	-0.323148	1.090081
C118	C	0.986756	-1.063097	0.426252
C119	C	1.320089	-0.729764	0.759585
C120	C	1.653422	-0.396430	1.092919
C121	C	1.073093	-1.070017	0.340050
C122	C	1.406426	-0.736684	0.673383
C123	C	1.739760	-0.403351	1.006717
C124	C	1.075891	-0.996738	0.337208
C125	C	1.409225	-0.663405	0.670541
C126	C	1.742558	-0.330072	1.003875
C127	C	1.034128	-0.956641	0.378893
C128	C	1.367461	-0.623308	0.712226
C129	C	1.700795	-0.289974	1.045560
N130	N	0.999709	-0.845933	0.413195
N131	N	1.333043	-0.512600	0.746529
N132	N	1.666376	-0.179266	1.079862
N133	N	1.036998	-0.881740	0.375988
N134	N	1.370332	-0.548407	0.709321
N135	N	1.703665	-0.215073	1.042654
C136	C	1.201891	-0.371285	0.402247
C137	C	1.535224	-0.037951	0.735581
C138	C	1.868557	0.295382	1.068914
C139	C	1.280130	-0.374308	0.405517
C140	C	1.613463	-0.040974	0.738850
C141	C	1.946797	0.292359	1.072183
C142	C	1.025987	-0.357080	0.578178
C143	C	1.359320	-0.023747	0.911511
C144	C	1.692654	0.309586	1.244845
C145	C	1.029267	-0.354051	0.656418
C146	C	1.362600	-0.020717	0.989752
C147	C	1.695933	0.312616	1.323085
C148	C	1.025463	-0.181182	0.387563
C149	C	1.358797	0.152151	0.720896
C150	C	1.692130	0.485484	1.054229
C151	C	1.028520	-0.103195	0.384575
C152	C	1.361854	0.230138	0.717908
C153	C	1.695187	0.563471	1.051241
C154	C	1.010666	-0.371224	0.211686
C155	C	1.343999	-0.037890	0.545020
C156	C	1.677333	0.295443	0.878353
C157	C	1.007530	-0.374061	0.133444
C158	C	1.340864	-0.040728	0.466778
C159	C	1.674197	0.292606	0.800111
C160	C	0.984034	-0.395756	0.693015
C161	C	1.317367	-0.062422	1.026349
C162	C	1.650700	0.270911	1.359682
C163	C	0.987121	-0.392909	0.766531
C164	C	1.320455	-0.059576	1.099864
C165	C	1.653788	0.273758	1.433198
C166	C	1.035439	-0.348353	0.803448
C167	C	1.368772	-0.015020	1.136781
C168	C	1.702106	0.318314	1.470115
C169	C	1.080677	-0.306647	0.766846
C170	C	1.414010	0.026687	1.100179
C171	C	1.747344	0.360020	1.433513
C172	C	1.077592	-0.309497	0.693332
C173	C	1.410926	0.023836	1.026665
C174	C	1.744259	0.357169	1.359999
C175	C	1.049684	-0.335205	1.023329
C176	C	1.383017	-0.001872	1.356662
C177	C	1.716350	0.331461	1.689995
C178	C	1.052764	-0.332356	1.096848
C179	C	1.386097	0.000977	1.430181
C180	C	1.719430	0.334311	1.763514
C181	C	0.959208	-0.418620	1.096527
C182	C	1.292541	-0.085287	1.429861
C183	C	1.625875	0.248047	1.763194
C184	C	0.956125	-0.421464	1.023012
C185	C	1.289458	-0.088130	1.356345
C186	C	1.622791	0.245203	1.689678
C187	C	1.001365	-0.379760	0.986417
C188	C	1.334699	-0.046427	1.319750
C189	C	1.668032	0.286907	1.653083
N190	N	1.038595	-0.345441	0.878593
N191	N	1.371928	-0.012107	1.211926
N192	N	1.705261	0.321226	1.545259
N193	N	0.998213	-0.382676	0.911274
N194	N	1.331546	-0.049343	1.244607
N195	N	1.664879	0.283990	1.577940
H196	H	0.287207	-0.452953	0.490468
H197	H	0.620540	-0.119620	0.823801
H198	H	0.953874	0.213713	1.157135
Br199	Br	0.597345	-0.449779	0.487036
Br200	Br	0.930678	-0.116446	0.820369
Br201	Br	1.264011	0.216888	1.153703
Br202	Br	1.103833	-0.792269	0.309205
Br203	Br	1.437166	-0.458936	0.642539
Br204	Br	1.770499	-0.125603	0.975872
H205	H	0.944680	-0.432029	0.662962
H206	H	1.278013	-0.098696	0.996295
H207	H	1.611347	0.234638	1.329629
H208	H	0.950288	-0.426870	0.796325
H209	H	1.283622	-0.093537	1.129658
H210	H	1.616955	0.239796	1.462991
H211	H	1.086237	-0.637565	0.326664
H212	H	1.419570	-0.304232	0.659997
H213	H	1.752903	0.029102	0.993330
H214	H	0.924523	-0.757947	0.488222
H215	H	1.257856	-0.424613	0.821555
H216	H	1.591189	-0.091280	1.154888
H217	H	0.950471	-1.090108	0.462519
H218	H	1.283804	-0.756775	0.795852
H219	H	1.617137	-0.423442	1.129185
Br220	Br	1.146258	-0.246183	0.816947
Br221	Br	1.479591	0.087151	1.150281
Br222	Br	1.812924	0.420484	1.483614
H223	H	1.086522	-0.301247	0.993542
H224	H	1.419855	0.032086	1.326875
H225	H	1.753189	0.365419	1.660208
H226	H	0.420577	-0.458093	0.496011
H227	H	0.753910	-0.124759	0.829345
H228	H	1.087244	0.208574	1.162678
Br229	Br	1.136391	-0.951715	0.276794
Br230	Br	1.469724	-0.618382	0.610128
Br231	Br	1.803057	-0.285049	0.943461
Br232	Br	1.129772	-1.124438	0.283484
Br233	Br	1.463105	-0.791105	0.616818
Br234	Br	1.796439	-0.457772	0.950151
Br235	Br	0.890542	-0.481928	0.972914
Br236	Br	1.223876	-0.148595	1.306248
Br237	Br	1.557209	0.184738	1.639581
H238	H	0.955553	-0.957173	0.457354
H239	H	1.288886	-0.623839	0.790688
H240	H	1.622220	-0.290506	1.124021
Br241	Br	0.906937	-0.603229	0.505696
Br242	Br	1.240270	-0.269896	0.839029
Br243	Br	1.573604	0.063437	1.172362
H244	H	0.922376	-0.452573	1.126331
H245	H	1.255709	-0.119240	1.459664
H246	H	1.589043	0.214094	1.792998
H247	H	0.286707	-0.296181	0.321132
H248	H	0.620040	0.037152	0.654466
H249	H	0.953374	0.370485	0.987799
Br250	Br	1.118308	-0.271847	1.146946
Br251	Br	1.451641	0.061487	1.480280
Br252	Br	1.784975	0.394820	1.813613
H253	H	1.114426	-0.275537	0.663536
H254	H	1.447759	0.057797	0.996869
H255	H	1.781093	0.391130	1.330203
H256	H	0.420066	-0.301323	0.326669
H257	H	0.753400	0.032010	0.660003
H258	H	1.086733	0.365344	0.993336
Br259	Br	0.596687	-0.246102	0.267026
Br260	Br	0.930020	0.087231	0.600359
Br261	Br	1.263353	0.420565	0.933692
Br262	Br	0.769966	-0.252777	0.274226
Br263	Br	1.103300	0.080556	0.607559
Br264	Br	1.436633	0.413889	0.940892
Br265	Br	0.770616	-0.456464	0.494230
Br266	Br	1.103949	-0.123130	0.827563
Br267	Br	1.437282	0.210203	1.160897
