data_functionalizedCrystal
_audit_creation_method	'MofGen! by Chris Wilmer'
_symmetry_space_group_name_H-M	'P1'
_symmetry_Int_Tables_number	1
_symmetry_cell_setting	triclinic
loop_
_symmetry_equiv_pos_as_xyz
  x,y,z
_cell_length_a	19.288865
_cell_length_b	19.288840
_cell_length_c	17.766277
_cell_angle_alpha	89.983415
_cell_angle_beta	89.988397
_cell_angle_gamma	83.131131
loop_
_atom_site_label
_atom_site_type_symbol
_atom_site_fract_x
_atom_site_fract_y
_atom_site_fract_z
O1	O	0.086566	0.921364	-0.062729
O2	O	0.098273	0.719101	-0.062704
O3	O	-0.008711	0.826077	-0.062702
O4	O	0.193550	0.814388	-0.062730
O5	O	-0.008717	0.826058	0.062487
O6	O	0.098267	0.719082	0.062485
O7	O	0.086560	0.921345	0.062460
Cu8	Cu	0.092413	0.820212	0.073903
Cu9	Cu	0.092420	0.820234	-0.074147
O10	O	0.193545	0.814369	0.062458
C11	C	0.097896	0.693215	-0.000106
C12	C	0.096774	0.616110	-0.000096
C13	C	0.096238	0.579917	-0.068338
C14	C	0.095176	0.507470	-0.068347
C15	C	0.094636	0.471221	-0.000110
C16	C	0.095176	0.507423	0.068141
C17	C	0.096245	0.579867	0.068148
C18	C	0.052256	0.361886	0.052164
C19	C	0.051183	0.289443	0.052155
C20	C	0.091342	0.247778	-0.000129
C21	C	0.132566	0.278565	-0.052416
C22	C	0.133635	0.351010	-0.052408
C23	C	0.093477	0.392667	-0.000110
C24	C	0.089655	0.133029	-0.068386
C25	C	0.088598	0.060580	-0.068392
C26	C	0.088591	0.060535	0.068098
C27	C	0.089656	0.132982	0.068102
C28	C	0.090185	0.169225	-0.000142
C29	C	-0.034591	0.825692	-0.000105
C30	C	-0.111694	0.824563	-0.000099
C31	C	-0.156396	0.887331	-0.000103
C32	C	-0.228843	0.886270	-0.000114
C33	C	-0.256585	0.822438	-0.000107
C34	C	-0.211873	0.759661	-0.000107
C35	C	-0.139428	0.760723	-0.000103
C36	C	-0.364870	0.772251	0.043750
C37	C	-0.437314	0.771191	0.043750
C38	C	-0.480030	0.819158	-0.000123
C39	C	-0.450295	0.868196	-0.043988
C40	C	-0.377849	0.869259	-0.043984
C41	C	-0.335139	0.821278	-0.000112
C42	C	-0.603288	0.880781	-0.000141
C43	C	-0.675736	0.879717	-0.000158
C44	C	-0.658764	0.753106	-0.000143
C45	C	-0.586318	0.754171	-0.000134
C46	C	-0.558584	0.818010	-0.000130
C47	C	0.219424	0.814755	-0.000140
C48	C	0.296527	0.815884	-0.000152
C49	C	0.086937	0.947232	-0.000139
C50	C	0.088059	1.024336	-0.000154
N51	N	0.092409	0.820202	0.178034
N52	N	0.092419	0.820250	-0.178277
C53	C	0.045059	0.867586	0.217421
C54	C	0.045056	0.867590	0.296223
C55	C	0.092414	0.820216	0.335634
C56	C	0.139767	0.772823	0.296237
C57	C	0.139764	0.772816	0.217437
C58	C	0.155703	0.810917	0.460464
C59	C	0.155706	0.810930	0.539263
C60	C	0.092422	0.820235	0.578680
C61	C	0.029132	0.829543	0.539290
C62	C	0.029129	0.829535	0.460489
C63	C	0.092422	0.820219	0.421080
C64	C	0.045065	0.867626	0.703514
C65	C	0.045061	0.867625	0.782317
C66	C	0.139779	0.772862	0.782330
C67	C	0.139777	0.772859	0.703528
C68	C	0.092421	0.820245	0.664125
H69	H	0.096669	0.609422	-0.123907
Br70	Br	-0.118760	0.973970	-0.000118
Br71	Br	0.189580	0.392791	-0.123362
H72	H	-0.265246	0.937386	-0.000121
H73	H	0.207239	0.803328	0.428377
Br74	Br	0.187074	0.222028	-0.123376
Br75	Br	-0.337494	0.935804	-0.103515
Br76	Br	0.096974	0.628990	0.160770
Br77	Br	-0.508257	0.933300	-0.103535
H78	H	0.090094	0.162539	-0.123954
Br79	Br	0.094450	0.458339	-0.160968
Br80	Br	-0.565645	0.967417	-0.000128
Br81	Br	-0.736406	0.964911	-0.000171
H82	H	0.207241	0.803355	0.571329
Br83	Br	0.204042	0.708552	0.650067
Br84	Br	-0.019205	0.931932	0.650036
Br85	Br	-0.078756	0.675530	-0.000100
H86	H	0.006497	0.906177	0.328298
H87	H	0.088165	0.031112	-0.123965
Br88	Br	0.087869	0.011347	0.160707
Br89	Br	0.204035	0.708525	0.349720
H90	H	-0.022404	0.837112	0.428420
H91	H	0.090088	0.162451	0.123672
H92	H	-0.461518	0.731258	0.079463
Br93	Br	-0.004745	0.247665	0.123128
H94	H	0.178336	0.734287	0.814418
H95	H	0.019552	0.395805	0.094744
Br96	Br	-0.696406	0.666474	-0.000141
Br97	Br	0.094451	0.458229	0.160749
Br98	Br	-0.525647	0.668980	-0.000128
H99	H	-0.330095	0.733189	0.079481
Br100	Br	-0.249520	0.673029	-0.000107
Br101	Br	-0.019210	0.931931	0.835776
H102	H	0.006498	0.906168	0.185341
Br103	Br	-0.056759	0.842181	0.592774
Br104	Br	0.204029	0.708503	0.163977
