data_functionalizedCrystal
_audit_creation_method	'MofGen! by Chris Wilmer'
_symmetry_space_group_name_H-M	'P1'
_symmetry_Int_Tables_number	1
_symmetry_cell_setting	triclinic
loop_
_symmetry_equiv_pos_as_xyz
  x,y,z
_cell_length_a	16.109302
_cell_length_b	14.971486
_cell_length_c	14.048226
_cell_angle_alpha	89.996181
_cell_angle_beta	90.006791
_cell_angle_gamma	96.462045
loop_
_atom_site_label
_atom_site_type_symbol
_atom_site_fract_x
_atom_site_fract_y
_atom_site_fract_z
O1	O	1.103275	-0.114973	0.079204
O2	O	1.603275	0.385027	0.579204
O3	O	0.861231	-0.129280	0.079196
O4	O	1.361231	0.370720	0.579196
O5	O	0.988741	0.008083	0.079194
O6	O	1.488741	0.508083	0.579194
O7	O	0.975766	-0.252336	0.079207
O8	O	1.475766	0.247664	0.579207
O9	O	0.988729	0.008084	-0.079128
O10	O	1.488729	0.508084	0.420872
O11	O	0.861219	-0.129279	-0.079125
O12	O	1.361219	0.370721	0.420875
O13	O	1.103263	-0.114972	-0.079118
O14	O	1.603263	0.385028	0.420882
Zn15	Zn	0.982239	-0.122125	-0.104258
Zn16	Zn	1.482239	0.377875	0.395742
Zn17	Zn	0.982255	-0.122127	0.104337
Zn18	Zn	1.482255	0.377873	0.604337
O19	O	0.975754	-0.252335	-0.079115
O20	O	1.475754	0.247665	0.420885
C21	C	0.830250	-0.128700	0.000035
C22	C	1.330250	0.371300	0.500035
C23	C	0.737952	-0.126962	0.000032
C24	C	1.237952	0.373038	0.500032
C25	C	0.525600	-0.122943	-0.086260
C26	C	1.025600	0.377057	0.413740
C27	C	0.438877	-0.121301	-0.086257
C28	C	0.938877	0.378699	0.413743
C29	C	0.438901	-0.121306	0.086354
C30	C	0.938901	0.378694	0.586354
C31	C	0.525623	-0.122942	0.086350
C32	C	1.025623	0.377058	0.586350
C33	C	0.568969	-0.123765	0.000040
C34	C	1.068969	0.376235	0.500040
C35	C	0.395526	-0.120487	0.000047
C36	C	0.895526	0.379513	0.500047
C37	C	0.301498	-0.118706	0.000051
C38	C	0.801498	0.381294	0.500051
C39	C	0.663003	-0.125545	0.000035
C40	C	1.163003	0.374455	0.500035
C41	C	0.988154	0.041407	0.000033
C42	C	1.488154	0.541407	0.500033
C43	C	0.986416	0.140702	0.000034
C44	C	1.486416	0.640702	0.500034
C45	C	1.134245	-0.115552	0.000046
C46	C	1.634245	0.384448	0.500046
C47	C	1.226542	-0.117290	0.000055
C48	C	1.726542	0.382710	0.500055
C49	C	0.976340	-0.285659	0.000048
C50	C	1.476340	0.214341	0.500048
C51	C	0.978079	-0.384954	0.000053
C52	C	1.478079	0.115046	0.500053
N53	N	0.982234	-0.122124	-0.246619
N54	N	1.482234	0.377876	0.253381
C55	C	1.061324	0.198035	0.000036
C56	C	1.561324	0.698035	0.500036
C57	C	1.059685	0.291332	0.000045
C58	C	1.559685	0.791332	0.500045
C59	C	0.983137	0.327294	0.000046
C60	C	1.483137	0.827294	0.500046
C61	C	0.908223	0.269954	0.000047
C62	C	1.408223	0.769954	0.500047
C63	C	0.909863	0.176658	0.000045
C64	C	1.409863	0.676658	0.500045
C65	C	0.904811	0.464411	0.000051
C66	C	1.404811	0.964411	0.500051
C67	C	0.903171	0.557713	0.000052
C68	C	1.403171	1.057713	0.500052
C69	C	1.054633	0.579085	0.000051
C70	C	1.554633	1.079085	0.500051
C71	C	1.056273	0.485790	0.000048
C72	C	1.556273	0.985790	0.500048
C73	C	0.981358	0.428456	0.000048
C74	C	1.481358	0.928456	0.500048
C75	C	1.032709	-0.176392	-0.296428
C76	C	1.532709	0.323608	0.203572
C77	C	1.032720	-0.176388	-0.396086
C78	C	1.532720	0.323612	0.103914
C79	C	0.982251	-0.122120	-0.445932
C80	C	1.482251	0.377880	0.054068
C81	C	0.931774	-0.067845	-0.396116
C82	C	1.431774	0.432155	0.103884
C83	C	0.931768	-0.067845	-0.296460
C84	C	1.431768	0.432155	0.203540
C85	C	0.931788	-0.067852	-0.603830
C86	C	1.431788	0.432148	-0.103830
C87	C	0.931792	-0.067853	-0.703493
C88	C	1.431792	0.432147	-0.203493
C89	C	1.032739	-0.176395	-0.703456
C90	C	1.532739	0.323605	-0.203456
C91	C	1.032733	-0.176394	-0.603800
C92	C	1.532733	0.323606	-0.103800
C93	C	0.982255	-0.122121	-0.553991
C94	C	1.482255	0.377879	-0.053991
N95	N	0.982267	-0.122121	0.246698
N96	N	1.482267	0.377879	0.746698
H97	H	1.120683	0.338010	0.000044
H98	H	1.620683	0.838010	0.500044
O99	O	0.882658	-0.015107	-0.248220
O100	O	1.382658	0.484893	0.251780
C101	C	0.838128	0.032809	-0.313582
C102	C	1.338128	0.532809	0.186418
H103	H	0.833313	-0.004219	-0.384618
H104	H	1.333313	0.495781	0.115382
H105	H	0.772748	0.038383	-0.284801
H106	H	1.272748	0.538383	0.215199
H107	H	0.872314	0.103006	-0.324181
H108	H	1.372314	0.603006	0.175819
H109	H	1.118605	0.456513	0.000041
H110	H	1.618605	0.956513	0.500041
H111	H	0.890686	-0.023655	-0.436709
H112	H	1.390686	0.476345	0.063291
H113	H	0.560935	-0.123610	0.156630
H114	H	1.060935	0.376390	0.656630
O115	O	1.135756	0.163254	0.000079
O116	O	1.635756	0.663254	0.500079
C117	C	1.201520	0.233869	0.000062
C118	C	1.701520	0.733869	0.500062
H119	H	1.178149	0.297237	0.030034
H120	H	1.678149	0.797237	0.530034
H121	H	1.254960	0.214387	0.046031
H122	H	1.754960	0.714387	0.546031
H123	H	1.224628	0.247083	-0.075891
H124	H	1.724628	0.747083	0.424109
O125	O	1.081631	-0.229154	-0.444579
O126	O	1.581631	0.270846	0.055421
C127	C	1.030999	-0.290181	-0.502218
C128	C	1.530999	0.209819	-0.002218
H129	H	0.969289	-0.262321	-0.517162
H130	H	1.469289	0.237679	-0.017162
H131	H	1.064434	-0.300151	-0.572289
H132	H	1.564434	0.199849	-0.072289
H133	H	1.018332	-0.357417	-0.463815
H134	H	1.518332	0.142583	0.036185
H135	H	1.115631	0.625771	0.000055
H136	H	1.615631	1.125771	0.500055
O137	O	0.396857	-0.120386	-0.170151
O138	O	0.896857	0.379614	0.329849
C139	C	0.427374	-0.043355	-0.222646
C140	C	0.927374	0.456645	0.277354
H141	H	0.493456	-0.018736	-0.198105
H142	H	0.993456	0.481264	0.301895
H143	H	0.428233	-0.060822	-0.301598
H144	H	0.928233	0.439178	0.198402
H145	H	0.385111	0.011781	-0.210685
H146	H	0.885111	0.511781	0.289315
O147	O	0.567832	-0.123775	-0.170012
O148	O	1.067832	0.376225	0.329988
C149	C	0.653678	-0.125373	-0.151515
C150	C	1.153678	0.374627	0.348485
H151	H	0.662119	-0.153905	-0.077347
H152	H	1.162119	0.346095	0.422653
H153	H	0.681392	-0.169388	-0.206638
H154	H	1.181392	0.330612	0.293362
H155	H	0.686939	-0.054121	-0.155604
H156	H	1.186939	0.445879	0.344396
O157	O	0.396659	-0.120552	0.170105
O158	O	0.896659	0.379448	0.670105
C159	C	0.310818	-0.118912	0.151606
C160	C	0.810818	0.381088	0.651606
H161	H	0.295550	-0.146985	0.077436
H162	H	0.795550	0.353015	0.577436
H163	H	0.272632	-0.161694	0.206726
H164	H	0.772632	0.338306	0.706726
H165	H	0.294860	-0.046733	0.155699
H166	H	0.794860	0.453267	0.655699
H167	H	0.840839	0.586990	0.000037
H168	H	1.340839	1.086990	0.500037
H169	H	0.843807	0.417732	0.000053
H170	H	1.343807	0.917732	0.500053
H171	H	0.845896	0.299241	0.000054
H172	H	1.345896	0.799241	0.500054
O173	O	1.081799	-0.228986	-0.555269
O174	O	1.581799	0.271014	-0.055269
C175	C	1.138484	-0.174465	-0.497630
C176	C	1.638484	0.325535	0.002370
H177	H	1.112553	-0.108083	-0.482722
H178	H	1.612553	0.391917	0.017278
H179	H	1.147763	-0.210422	-0.427543
H180	H	1.647763	0.289578	0.072457
H181	H	1.200971	-0.160802	-0.536016
H182	H	1.700971	0.339198	-0.036016
O183	O	0.837019	0.121090	0.000001
O184	O	1.337019	0.621090	0.500001
C185	C	0.769104	0.172834	0.000027
C186	C	1.269104	0.672834	0.500027
H187	H	0.790131	0.242472	-0.029950
H188	H	1.290131	0.742472	0.470050
H189	H	0.716606	0.138403	-0.045935
H190	H	1.216606	0.638403	0.454065
H191	H	0.745655	0.179467	0.075983
H192	H	1.245655	0.679467	0.575983
O193	O	1.081682	-0.229246	-0.751795
O194	O	1.581682	0.270754	-0.251795
C195	C	1.058740	-0.320028	-0.727429
C196	C	1.558740	0.179972	-0.227429
H197	H	0.991702	-0.328650	-0.700049
H198	H	1.491702	0.171350	-0.200049
H199	H	1.063628	-0.364032	-0.792964
H200	H	1.563628	0.135968	-0.292964
H201	H	1.102337	-0.340810	-0.669572
H202	H	1.602337	0.159190	-0.169572
H203	H	1.073802	-0.220589	-0.255850
H204	H	1.573802	0.279411	0.244150
O205	O	0.882749	-0.015048	-0.751765
O206	O	1.382749	0.484952	-0.251765
C207	C	0.838187	0.032842	-0.686430
C208	C	1.338187	0.532842	-0.186430
H209	H	0.872594	0.038048	-0.615385
H210	H	1.372594	0.538048	-0.115385
H211	H	0.832974	0.103182	-0.715233
H212	H	1.332974	0.603182	-0.215233
H213	H	0.772961	-0.003975	-0.675842
H214	H	1.272961	0.496025	-0.175842
H215	H	0.890684	-0.023655	-0.563278
H216	H	1.390684	0.476345	-0.063278
