data_functionalizedCrystal
_audit_creation_method	'MofGen! by Chris Wilmer'
_symmetry_space_group_name_H-M	'P1'
_symmetry_Int_Tables_number	1
_symmetry_cell_setting	triclinic
loop_
_symmetry_equiv_pos_as_xyz
  x,y,z
_cell_length_a	25.639233
_cell_length_b	16.959455
_cell_length_c	16.959454
_cell_angle_alpha	90.017022
_cell_angle_beta	90.012406
_cell_angle_gamma	90.012273
loop_
_atom_site_label
_atom_site_type_symbol
_atom_site_fract_x
_atom_site_fract_y
_atom_site_fract_z
Zn1	Zn	-0.295627	-1.208368	0.314842
Zn2	Zn	-0.208201	-1.208295	0.447001
Zn3	Zn	-0.208206	-1.076201	0.314834
Zn4	Zn	-0.295606	-1.076161	0.446975
O5	O	-0.251910	-1.142256	0.380913
O6	O	-0.284037	-1.318969	0.332388
O7	O	-0.135037	-1.190759	0.429477
O8	O	-0.219814	-1.093780	0.204224
O9	O	-0.219805	-1.318916	0.429485
O10	O	-0.284042	-1.190883	0.204230
O11	O	-0.135041	-1.093710	0.332374
O12	O	-0.219794	-0.965585	0.332348
O13	O	-0.368774	-1.093712	0.429440
O14	O	-0.284006	-0.965555	0.429432
O15	O	-0.368790	-1.190844	0.332362
O16	O	-0.219785	-1.190720	0.557609
O17	O	-0.284001	-1.093642	0.557590
C18	C	-0.251898	-0.936890	0.380887
C19	C	-0.251906	-0.849033	0.380895
C20	C	-0.251901	-1.142190	0.586280
C21	C	-0.251915	-1.142234	0.674136
C22	C	-0.388283	-1.142282	0.380899
C23	C	-0.446397	-1.142293	0.380893
C24	C	-0.806774	-1.192933	0.330195
C25	C	-0.861379	-1.192943	0.330173
O26	O	-0.889627	-1.235936	0.287160
N27	N	-0.888680	-1.142380	0.380708
C28	C	-0.861374	-1.091798	0.431263
O29	O	-0.889610	-1.048790	0.474244
C30	C	-0.806771	-1.091784	0.431280
C31	C	-0.779472	-1.142357	0.380747
C32	C	-0.779476	-1.243501	0.279666
C33	C	-0.724875	-1.243492	0.279689
C34	C	-0.697573	-1.192915	0.330241
C35	C	-0.724872	-1.142348	0.380770
C36	C	-0.779466	-1.041199	0.481830
C37	C	-0.724859	-1.041190	0.481843
C38	C	-0.697561	-1.091762	0.431310
C39	C	-0.642969	-1.091762	0.431346
N40	N	-0.615668	-1.142326	0.380811
C41	C	-0.642970	-1.192902	0.330258
C42	C	-0.976045	-1.091828	0.431222
C43	C	-1.030647	-1.091845	0.431209
C44	C	-1.030648	-1.192989	0.330118
C45	C	-0.976045	-1.192976	0.330135
C46	C	-0.948744	-1.142391	0.380687
C47	C	-0.528305	-1.192880	0.330311
C48	C	-0.473699	-1.192869	0.330341
C49	C	-0.473704	-1.091722	0.431429
C50	C	-0.528304	-1.091736	0.431402
C51	C	-0.555603	-1.142317	0.380837
O52	O	-0.614686	-1.048789	0.474334
O53	O	-0.614727	-1.235895	0.287277
C54	C	-0.116068	-1.142276	0.380870
C55	C	-0.057954	-1.142418	0.380653
C56	C	-0.251923	-1.348424	0.380940
C57	C	-0.251928	-1.436281	0.380951
C58	C	-0.218545	-0.477549	0.330320
C59	C	-0.285306	-0.477567	0.431571
C60	C	-0.285303	-0.560113	0.431560
C61	C	-0.251919	-0.601380	0.380929
C62	C	-0.218539	-0.560102	0.330309
C63	C	-0.318678	-0.601397	0.482184
C64	C	-0.318676	-0.683948	0.482176
C65	C	-0.285295	-0.725217	0.431540
C66	C	-0.251914	-0.683934	0.380918
C67	C	-0.218531	-0.725202	0.330287
C68	C	-0.185152	-0.683920	0.279659
C69	C	-0.185159	-0.601371	0.279673
C70	C	-0.285289	-0.807766	0.431526
C71	C	-0.218526	-0.807755	0.330275
C72	C	-0.251931	-1.142344	0.174745
C73	C	-0.251939	-1.142382	0.086888
C74	C	-0.285344	-1.091781	1.045632
C75	C	-0.218530	-1.192952	1.045592
C76	C	-0.218525	-1.192924	0.963046
C77	C	-0.251930	-1.142323	0.921789
C78	C	-0.285339	-1.091750	0.963078
C79	C	-0.185112	-1.243491	0.921750
C80	C	-0.185106	-1.243465	0.839200
C81	C	-0.218514	-1.192867	0.797941
C82	C	-0.251925	-1.142292	0.839235
C83	C	-0.285330	-1.091691	0.797979
C84	C	-0.318744	-1.041120	0.839271
C85	C	-0.318747	-1.041152	0.921820
C86	C	-0.218510	-1.192835	0.715393
C87	C	-0.285325	-1.091661	0.715425
H88	H	-0.451475	-1.234054	0.289190
N89	N	-0.354776	-0.986603	0.966358
H90	H	-0.375939	-0.954542	0.927699
H91	H	-0.378993	-1.018762	1.000580
N92	N	-0.321284	-0.852287	0.486128
H93	H	-0.345550	-0.886554	0.454061
H94	H	-0.299952	-0.886475	0.522691
H95	H	-0.312529	-1.050458	0.681839
H96	H	-0.157912	-1.284681	0.955348
N97	N	-0.149074	-1.298013	0.794665
H98	H	-0.127914	-1.330074	0.833328
H99	H	-0.170382	-1.334556	0.760388
H100	H	-0.345853	-0.567791	0.523411
N101	N	-0.808901	-0.986652	0.536333
H102	H	-0.783312	-0.954611	0.568351
H103	H	-0.831552	-0.950089	0.504144
H104	H	-0.345940	-0.999917	0.805671
N105	N	-0.695442	-1.298036	0.225175
H106	H	-0.704951	-1.285776	0.168699
H107	H	-0.656715	-1.290342	0.232912
N108	N	-0.321384	-1.037240	1.090161
H109	H	-0.316321	-1.044935	1.148716
H110	H	-0.313210	-0.980791	1.075774
H111	H	-0.157970	-0.717531	0.238439
H112	H	-0.550532	-1.050563	0.472557
H113	H	-0.191330	-1.234144	1.079188
N114	N	-0.182540	-0.433033	0.275724
H115	H	-0.145170	-0.447387	0.287921
H116	H	-0.190765	-0.447434	0.219286
N117	N	-0.182476	-1.247368	0.670850
H118	H	-0.145113	-1.235132	0.685239
H119	H	-0.190672	-1.303821	0.685192
N120	N	-0.557744	-1.247431	0.275771
H121	H	-0.532158	-1.279459	0.243768
H122	H	-0.580403	-1.284004	0.307937
H123	H	-0.312482	-0.443962	0.472797
N124	N	-0.808911	-1.298054	0.225127
H125	H	-0.799405	-1.354520	0.237417
H126	H	-0.847638	-1.290336	0.232793
H127	H	-1.052887	-1.234169	0.288953
N128	N	-0.354674	-0.728470	0.536777
H129	H	-0.375822	-0.689801	0.568854
H130	H	-0.378906	-0.762735	0.504652
H131	H	-0.191344	-0.841349	0.289040
N132	N	-0.946603	-1.247524	0.275636
H133	H	-0.923945	-1.215421	0.239005
H134	H	-0.923982	-1.284122	0.307834
N135	N	-1.060088	-1.037310	0.485723
H136	H	-1.034502	-1.005273	0.517749
H137	H	-1.082740	-1.000745	0.453538
H138	H	-0.953820	-1.050635	0.472391
H139	H	-0.702634	-0.999988	0.523000
H140	H	-0.157983	-0.567752	0.238457
H141	H	-0.451465	-1.050546	0.472590
