data_functionalizedCrystal
_audit_creation_method	'MofGen! by Chris Wilmer'
_symmetry_space_group_name_H-M	'P1'
_symmetry_Int_Tables_number	1
_symmetry_cell_setting	triclinic
loop_
_symmetry_equiv_pos_as_xyz
  x,y,z
_cell_length_a	17.699083
_cell_length_b	23.532407
_cell_length_c	16.176319
_cell_angle_alpha	89.988536
_cell_angle_beta	89.998611
_cell_angle_gamma	83.065847
loop_
_atom_site_label
_atom_site_type_symbol
_atom_site_fract_x
_atom_site_fract_y
_atom_site_fract_z
O1	O	1.003713	0.072020	-0.068639
O2	O	0.783287	0.081390	-0.068667
O3	O	0.900147	-0.006208	-0.068637
O4	O	0.886853	0.159618	-0.068669
O5	O	0.900131	-0.006213	0.068856
O6	O	0.783271	0.081384	0.068826
O7	O	1.003697	0.072014	0.068854
Cu8	Cu	0.893483	0.076699	0.081394
Cu9	Cu	0.893502	0.076705	-0.081207
O10	O	0.886837	0.159612	0.068824
C11	C	0.755084	0.081051	0.000076
C12	C	0.671071	0.080044	0.000066
C13	C	0.899801	-0.027427	0.000111
C14	C	0.898783	-0.090647	0.000118
C15	C	0.622189	0.131462	0.000056
C16	C	0.543251	0.130512	0.000067
C17	C	0.513196	0.078144	0.000082
C18	C	0.562084	0.026722	0.000094
C19	C	0.641021	0.027672	0.000089
C20	C	0.243740	0.022888	0.000115
C21	C	0.164797	0.021942	0.000117
C22	C	0.145970	0.125728	0.000093
C23	C	0.224907	0.126678	0.000088
C24	C	0.273788	0.075257	0.000105
C25	C	0.359382	0.076287	0.000094
C26	C	0.427603	0.077113	0.000086
C27	C	0.961554	-0.489570	0.000080
C28	C	0.960609	-0.548973	0.000074
O29	O	1.018799	-0.585550	0.000051
N30	N	0.891136	-0.571799	0.000066
C31	C	0.822604	-0.535218	0.000055
O32	O	0.763424	-0.560088	0.000047
C33	C	0.823550	-0.475816	0.000056
C34	C	0.893028	-0.452994	0.000073
C35	C	1.031026	-0.466747	0.000096
C36	C	1.031972	-0.407348	0.000104
C37	C	0.963445	-0.370772	0.000096
C38	C	0.893973	-0.393595	0.000080
C39	C	0.755019	-0.439237	0.000040
C40	C	0.755971	-0.379832	0.000039
C41	C	0.825448	-0.357009	0.000056
C42	C	0.826391	-0.297620	0.000081
N43	N	0.895864	-0.274795	0.000089
C44	C	0.964391	-0.311371	0.000097
C45	C	0.820622	-0.659966	0.000053
C46	C	0.819674	-0.719367	0.000058
C47	C	0.957680	-0.733118	0.000075
C48	C	0.958626	-0.673716	0.000076
C49	C	0.890095	-0.637141	0.000061
C50	C	0.966371	-0.186628	0.000114
C51	C	0.967310	-0.127223	0.000125
C52	C	0.829305	-0.113478	0.000104
C53	C	0.828365	-0.172877	0.000097
C54	C	0.896904	-0.209452	0.000099
O55	O	0.768232	-0.261008	0.000100
O56	O	1.023560	-0.286493	0.000094
C57	C	1.031901	0.072353	0.000109
C58	C	1.115914	0.073360	0.000114
C59	C	0.887184	0.180832	0.000073
C60	C	0.888202	0.244052	0.000062
N61	N	0.893475	0.076694	0.195759
N62	N	0.893516	0.076706	-0.195573
C63	C	0.945236	0.037921	0.239037
C64	C	0.945240	0.037921	0.325584
C65	C	0.893486	0.076696	0.368852
C66	C	0.841719	0.115470	0.325568
C67	C	0.841713	0.115467	0.239023
C68	C	0.841745	0.115481	0.674597
C69	C	0.841758	0.115481	0.761148
C70	C	0.945273	0.037934	0.761158
C71	C	0.945266	0.037932	0.674612
C72	C	0.893497	0.076704	0.631336
C73	C	0.893493	0.076703	0.537492
C74	C	0.893493	0.076700	0.462695
H75	H	0.646653	0.174106	0.000044
C76	C	1.002163	-0.004745	0.373185
N77	N	1.045033	-0.036889	0.409038
H78	H	0.799563	0.147039	0.203787
H79	H	1.013478	-0.762909	0.000079
C80	C	0.489484	0.187076	0.000071
N81	N	0.448986	0.229683	0.000080
H82	H	1.015201	-0.655139	0.000089
H83	H	0.987411	0.006359	0.639386
C84	C	0.743244	-0.744464	0.000050
N85	N	0.685673	-0.763365	0.000039
C86	C	1.106419	-0.506973	0.000114
N87	N	1.163209	-0.537267	0.000136
H88	H	0.987424	0.006362	0.796402
H89	H	0.799610	0.147058	0.796376
C90	C	0.784896	0.158205	0.627004
N91	N	0.742109	0.190413	0.591155
H92	H	0.249373	0.169322	0.000072
C93	C	0.784782	0.158118	0.373166
N94	N	0.741896	0.190241	0.409016
H95	H	0.764811	-0.630189	0.000048
H96	H	0.283530	-0.018983	0.000129
H97	H	0.537607	-0.015917	0.000117
H98	H	0.106161	0.167598	0.000084
H99	H	0.771791	-0.191460	0.000106
H100	H	0.698442	-0.457808	0.000021
H101	H	0.140330	-0.020705	0.000130
H102	H	0.680820	-0.014197	0.000096
C103	C	1.002170	-0.004735	0.191450
N104	N	1.045053	-0.036867	0.155610
C105	C	1.043744	-0.102123	0.000141
N106	N	1.101312	-0.083220	0.000151
C107	C	1.041768	-0.226852	0.000124
N108	N	1.098557	-0.257148	0.000139
C109	C	0.680578	-0.339602	0.000026
N110	N	0.623793	-0.309301	0.000019
H111	H	1.088547	-0.388773	0.000114
H112	H	0.773512	-0.083687	0.000101
