data_functionalizedCrystal
_audit_creation_method	'MofGen! by Chris Wilmer'
_symmetry_space_group_name_H-M	'P1'
_symmetry_Int_Tables_number	1
_symmetry_cell_setting	triclinic
loop_
_symmetry_equiv_pos_as_xyz
  x,y,z
_cell_length_a	11.169417
_cell_length_b	18.050589
_cell_length_c	11.169409
_cell_angle_alpha	90.038363
_cell_angle_beta	90.019824
_cell_angle_gamma	90.021413
loop_
_atom_site_label
_atom_site_type_symbol
_atom_site_fract_x
_atom_site_fract_y
_atom_site_fract_z
Zn1	Zn	1.834877	-0.295582	0.678492
Zn2	Zn	1.834731	-0.419797	0.477788
Zn3	Zn	1.634163	-0.295627	0.477827
Zn4	Zn	1.634135	-0.419736	0.678433
O5	O	1.734477	-0.357686	0.578135
O6	O	2.002808	-0.312066	0.651877
O7	O	1.808076	-0.403370	0.309844
O8	O	1.660861	-0.191697	0.504487
O9	O	2.002700	-0.403326	0.504421
O10	O	1.808325	-0.191663	0.651915
O11	O	1.660719	-0.312143	0.309872
O12	O	1.466210	-0.312084	0.504429
O13	O	1.660813	-0.403223	0.846391
O14	O	1.466189	-0.403267	0.651814
O15	O	1.808298	-0.312007	0.846434
O16	O	1.808048	-0.523714	0.504363
O17	O	1.660671	-0.523669	0.651776
C18	C	1.422652	-0.357674	0.578120
C19	C	1.289252	-0.357687	0.578142
C20	C	1.734374	-0.550638	0.578085
C21	C	1.734439	-0.633184	0.578104
C22	C	1.814792	-0.882006	0.498074
C23	C	1.705286	-0.832679	0.468602
C24	C	1.734590	-0.930304	0.578196
C25	C	1.844014	-0.832549	0.607566
C26	C	1.734522	-0.784319	0.578148
C27	C	1.625028	-0.882064	0.548668
C28	C	1.763829	-0.881938	0.687683
C29	C	1.654248	-0.832634	0.658253
C30	C	1.734631	-1.014402	0.578221
C31	C	1.734468	-0.700222	0.578123
C32	C	2.047519	-0.357697	0.578151
C33	C	2.180919	-0.357703	0.578158
C34	C	1.734569	-0.357603	0.891178
C35	C	1.734608	-0.357568	1.024578
C36	C	1.734613	-0.163980	0.578212
C37	C	1.734671	-0.081434	0.578244
C38	C	1.734454	-0.357714	0.266310
C39	C	1.734647	-0.357540	0.132911
H40	H	1.882560	-0.903684	0.430285
C41	C	1.671837	-0.803432	0.343493
N42	N	1.646655	-0.781402	0.249259
C43	C	1.499939	-0.911319	0.514929
N44	N	1.405725	-0.933356	0.489511
C45	C	1.562477	-0.803523	0.749755
N46	N	1.493351	-0.781592	0.818666
C47	C	1.797339	-0.911203	0.812757
N48	N	1.822594	-0.933249	0.906962
C49	C	1.969069	-0.803172	0.641157
N50	N	2.063262	-0.781048	0.666450
