data_functionalizedCrystal
_audit_creation_method	'MofGen! by Chris Wilmer'
_symmetry_space_group_name_H-M	'P1'
_symmetry_Int_Tables_number	1
_symmetry_cell_setting	triclinic
loop_
_symmetry_equiv_pos_as_xyz
  x,y,z
_cell_length_a	16.625548
_cell_length_b	21.395361
_cell_length_c	21.395355
_cell_angle_alpha	89.978489
_cell_angle_beta	89.975473
_cell_angle_gamma	90.031776
loop_
_atom_site_label
_atom_site_type_symbol
_atom_site_fract_x
_atom_site_fract_y
_atom_site_fract_z
Zn1	Zn	1.232666	-0.249493	-0.354248
Zn2	Zn	1.232540	-0.354253	-0.249465
Zn3	Zn	1.097818	-0.249495	-0.249485
Zn4	Zn	1.097779	-0.354239	-0.354205
O5	O	1.165201	-0.301870	-0.301851
O6	O	1.345481	-0.263395	-0.340358
O7	O	1.214633	-0.340364	-0.161790
O8	O	1.115775	-0.161817	-0.263408
O9	O	1.345389	-0.340362	-0.263374
O10	O	1.214847	-0.161816	-0.340377
O11	O	1.115653	-0.263398	-0.161804
O12	O	0.984981	-0.263385	-0.263366
O13	O	1.115708	-0.340337	-0.441889
O14	O	0.984951	-0.340339	-0.340304
O15	O	1.214809	-0.263381	-0.441920
O16	O	1.214595	-0.441929	-0.263333
O17	O	1.115586	-0.441919	-0.340285
C18	C	1.165094	-0.464658	-0.301816
C19	C	1.165122	-0.534299	-0.301822
C20	C	0.955710	-0.301861	-0.301833
C21	C	0.866089	-0.301872	-0.301841
C22	C	1.216722	-0.566997	-0.261794
C23	C	1.216760	-0.632432	-0.261808
C24	C	1.165183	-0.665167	-0.301843
C25	C	1.113580	-0.632462	-0.341879
C26	C	1.113550	-0.567028	-0.341868
C27	C	1.092583	-0.768884	-0.306753
C28	C	1.092612	-0.834316	-0.306760
C29	C	1.165277	-0.866988	-0.301880
C30	C	1.237915	-0.834219	-0.296981
C31	C	1.237885	-0.768784	-0.296970
C32	C	1.165211	-0.736120	-0.301860
C33	C	1.216922	-0.970638	-0.261865
C34	C	1.216960	-1.036075	-0.261884
C35	C	1.113774	-1.036103	-0.341952
C36	C	1.113742	-0.970668	-0.341936
C37	C	1.165315	-0.937939	-0.301890
C38	C	0.537913	-0.301877	-0.301867
C39	C	0.629222	-0.301874	-0.301858
C40	C	0.701998	-0.301875	-0.301853
C41	C	0.793312	-0.301871	-0.301845
C42	C	1.375510	-0.301880	-0.301869
C43	C	1.465131	-0.301884	-0.301876
C44	C	1.165268	-0.301857	-0.465274
C45	C	1.165296	-0.301852	-0.534915
C46	C	1.165330	-0.138447	-0.301899
C47	C	1.165384	-0.068806	-0.301920
C48	C	1.216896	-0.261779	-0.567646
C49	C	1.216895	-0.261752	-0.633081
C50	C	1.165302	-0.301809	-0.665784
C51	C	1.113693	-0.341885	-0.633045
C52	C	1.113690	-0.341906	-0.567611
C53	C	1.158899	-0.358225	-0.769446
C54	C	1.158908	-0.358204	-0.834879
C55	C	1.165307	-0.301743	-0.867605
C56	C	1.171715	-0.245300	-0.834889
C57	C	1.171712	-0.245322	-0.769455
C58	C	1.165300	-0.301790	-0.736736
C59	C	1.216909	-0.261638	-0.971288
C60	C	1.216902	-0.261610	-1.036724
C61	C	1.113704	-0.341748	-1.036687
C62	C	1.113707	-0.341770	-0.971252
C63	C	1.165313	-0.301716	-0.938556
C64	C	1.165180	-0.301838	-0.139063
C65	C	1.165308	-0.301666	-0.069422
H66	H	1.258781	-0.659060	-0.229213
O67	O	1.267096	-0.938938	-0.222949
C68	C	1.312639	-0.981833	-0.187613
H69	H	1.315442	-1.028460	-0.213289
H70	H	1.283143	-0.988844	-0.140009
C71	C	1.395002	-0.898969	-0.147099
C72	C	1.398451	-0.956234	-0.178638
H73	H	1.447934	-0.883177	-0.141560
H74	H	1.364317	-0.870069	-0.170903
H75	H	1.370419	-0.904819	-0.107432
H76	H	1.423024	-0.950382	-0.218306
H77	H	1.429142	-0.985133	-0.154839
H78	H	1.153695	-0.404164	-0.861511
H79	H	1.297028	-0.742105	-0.292983
H80	H	1.071587	-0.659119	-0.374477
O81	O	1.266709	-0.535179	-0.222831
C82	C	1.220816	-0.497371	-0.182334
H83	H	1.157321	-0.517133	-0.178422
H84	H	1.218009	-0.447770	-0.201694
C85	C	1.338234	-0.472105	-0.122031
C86	C	1.260250	-0.496380	-0.117223
H87	H	1.362560	-0.471491	-0.081869
H88	H	1.369154	-0.497575	-0.149316
H89	H	1.335884	-0.430773	-0.138167
H90	H	1.262602	-0.537714	-0.101095
H91	H	1.229331	-0.470917	-0.089934
H92	H	1.258912	-0.229117	-0.659736
H93	H	1.071721	-0.944044	-0.374528
O94	O	1.063625	-0.380749	-1.068374
C95	C	1.081214	-0.443201	-1.052397
H96	H	1.112211	-0.444513	-1.004898
H97	H	1.122650	-0.464295	-1.089237
C98	C	0.964508	-0.479540	-1.107679
C99	C	1.002574	-0.481152	-1.049338
H100	H	0.916001	-0.502952	-1.105795
H101	H	0.952660	-0.437465	-1.118446
H102	H	0.999047	-0.497118	-1.138373
H103	H	0.968040	-0.463568	-1.018647
H104	H	1.014414	-0.523225	-1.038566
O105	O	1.267104	-0.222660	-1.068424
C106	C	1.312636	-0.187304	-1.025531
H107	H	1.315404	-0.212985	-0.978888
H108	H	1.283152	-0.139718	-1.018562
C109	C	1.395058	-0.146734	-1.108385
C110	C	1.398465	-0.178278	-1.051099
H111	H	1.448001	-0.141163	-1.124157
H112	H	1.364382	-0.170551	-1.137284
H113	H	1.370486	-0.107082	-1.102570
H114	H	1.423028	-0.217932	-1.056916
H115	H	1.429148	-0.154466	-1.022202
H116	H	1.033466	-0.860992	-0.310743
H117	H	1.071667	-0.374538	-0.540962
H118	H	1.258925	-0.229020	-0.944665
H119	H	1.071530	-0.540404	-0.374465
H120	H	1.071693	-0.374406	-0.944602
H121	H	1.258917	-0.229163	-0.541029
O122	O	1.177899	-0.190440	-0.737771
C123	C	1.183570	-0.140598	-0.780680
H124	H	1.156470	-0.155413	-0.827317
H125	H	1.249471	-0.127586	-0.787656
C126	C	1.170637	-0.065525	-0.697848
C127	C	1.137345	-0.083719	-0.755126
H128	H	1.142127	-0.030438	-0.682085
H129	H	1.166819	-0.099104	-0.668938
H130	H	1.225553	-0.054686	-0.703669
H131	H	1.082434	-0.094565	-0.749303
H132	H	1.141153	-0.050140	-0.784034
H133	H	1.297086	-0.860818	-0.293008
H134	H	1.258984	-1.062696	-0.229289
H135	H	1.033406	-0.742289	-0.310729
H136	H	1.176928	-0.199324	-0.861532
H137	H	1.071783	-1.062755	-0.374552
H138	H	1.153472	-0.404191	-0.742807
O139	O	1.063617	-0.380885	-0.664740
C140	C	1.081200	-0.443338	-0.648762
H141	H	1.112191	-0.444652	-0.601261
H142	H	1.122641	-0.464432	-0.685599
C143	C	0.964501	-0.479673	-0.704055
C144	C	1.002559	-0.481287	-0.645711
H145	H	0.915992	-0.503084	-0.702175
H146	H	0.952656	-0.437598	-0.714822
H147	H	0.999043	-0.497251	-0.734746
H148	H	0.968021	-0.463703	-0.615022
H149	H	1.014396	-0.523361	-0.634938
