data_functionalizedCrystal
_audit_creation_method	'MofGen! by Chris Wilmer'
_symmetry_space_group_name_H-M	'P1'
_symmetry_Int_Tables_number	1
_symmetry_cell_setting	triclinic
loop_
_symmetry_equiv_pos_as_xyz
  x,y,z
_cell_length_a	21.395364
_cell_length_b	19.121063
_cell_length_c	21.395355
_cell_angle_alpha	87.579260
_cell_angle_beta	90.024552
_cell_angle_gamma	92.483930
loop_
_atom_site_label
_atom_site_type_symbol
_atom_site_fract_x
_atom_site_fract_y
_atom_site_fract_z
Zn1	Zn	0.947240	-0.279421	0.364885
Zn2	Zn	1.197240	-0.029421	0.614885
Zn3	Zn	1.447240	0.220579	0.864885
Zn4	Zn	1.697240	0.470579	1.114885
Zn5	Zn	0.942679	-0.396856	0.264572
Zn6	Zn	1.192679	-0.146856	0.514572
Zn7	Zn	1.442679	0.103144	0.764572
Zn8	Zn	1.692679	0.353144	1.014572
Zn9	Zn	0.842454	-0.279451	0.260123
Zn10	Zn	1.092454	-0.029451	0.510123
Zn11	Zn	1.342454	0.220549	0.760123
Zn12	Zn	1.592454	0.470549	1.010123
Zn13	Zn	0.837960	-0.396868	0.369313
Zn14	Zn	1.087960	-0.146868	0.619313
Zn15	Zn	1.337960	0.103132	0.869313
Zn16	Zn	1.587960	0.353132	1.119313
O17	O	0.892583	-0.338149	0.314723
O18	O	1.142583	-0.088149	0.564723
O19	O	1.392583	0.161851	0.814723
O20	O	1.642583	0.411851	1.064723
O21	O	1.034313	-0.294981	0.351587
O22	O	1.284313	-0.044981	0.601587
O23	O	1.534313	0.205019	0.851587
O24	O	1.784313	0.455019	1.101587
O25	O	0.929356	-0.381290	0.176304
O26	O	1.179356	-0.131290	0.426304
O27	O	1.429356	0.118710	0.676304
O28	O	1.679356	0.368710	0.926304
O29	O	0.860143	-0.181161	0.270304
O30	O	1.110143	0.068839	0.520304
O31	O	1.360143	0.318839	0.770304
O32	O	1.610143	0.568839	1.020304
O33	O	1.030963	-0.381260	0.277888
O34	O	1.280963	-0.131260	0.527888
O35	O	1.530963	0.118740	0.777888
O36	O	1.780963	0.368740	1.027888
O37	O	0.937129	-0.181138	0.347273
O38	O	1.187129	0.068862	0.597273
O39	O	1.437129	0.318862	0.847273
O40	O	1.687129	0.568862	1.097273
O41	O	0.855721	-0.295033	0.173035
O42	O	1.105721	-0.045033	0.423035
O43	O	1.355721	0.204967	0.673035
O44	O	1.605721	0.454967	0.923035
O45	O	0.754179	-0.295045	0.274598
O46	O	1.004179	-0.045045	0.524598
O47	O	1.254179	0.204955	0.774598
O48	O	1.504179	0.454955	1.024598
O49	O	0.852485	-0.381281	0.456403
O50	O	1.102485	-0.131281	0.706403
O51	O	1.352485	0.118719	0.956403
O52	O	1.602485	0.368719	1.206403
O53	O	0.750878	-0.381311	0.354820
O54	O	1.000878	-0.131311	0.604820
O55	O	1.250878	0.118689	0.854820
O56	O	1.500878	0.368689	1.104820
O57	O	0.932772	-0.294993	0.453150
O58	O	1.182772	-0.044993	0.703150
O59	O	1.432772	0.205007	0.953150
O60	O	1.682772	0.455007	1.203150
O61	O	0.924999	-0.495144	0.282182
O62	O	1.174999	-0.245144	0.532182
O63	O	1.424999	0.004856	0.782182
O64	O	1.674999	0.254856	1.032182
O65	O	0.848062	-0.495153	0.359134
O66	O	1.098062	-0.245153	0.609134
O67	O	1.348062	0.004847	0.859134
O68	O	1.598062	0.254847	1.109134
C69	C	0.729794	-0.338183	0.314707
C70	C	0.979794	-0.088183	0.564707
C71	C	1.229794	0.161817	0.814707
C72	C	1.479794	0.411817	1.064707
C73	C	0.660152	-0.338215	0.314715
C74	C	0.910152	-0.088215	0.564715
C75	C	1.160152	0.161785	0.814715
C76	C	1.410152	0.411785	1.064715
C77	C	0.629203	-0.293363	0.353155
C78	C	0.879203	-0.043363	0.603155
C79	C	1.129203	0.206637	0.853155
C80	C	1.379203	0.456637	1.103155
C81	C	0.563768	-0.293344	0.353157
C82	C	0.813768	-0.043344	0.603157
C83	C	1.063768	0.206656	0.853157
C84	C	1.313768	0.456656	1.103157
C85	C	0.529284	-0.338190	0.314726
C86	C	0.779284	-0.088190	0.564726
C87	C	1.029284	0.161810	0.814726
C88	C	1.279284	0.411810	1.064726
C89	C	0.560241	-0.383045	0.276278
C90	C	0.810241	-0.133045	0.526278
C91	C	1.060241	0.116955	0.776278
C92	C	1.310241	0.366955	1.026278
C93	C	0.625675	-0.383058	0.276273
C94	C	0.875675	-0.133058	0.526273
C95	C	1.125675	0.116942	0.776273
C96	C	1.375675	0.366942	1.026273
C97	C	0.423156	-0.401442	0.312093
C98	C	0.673156	-0.151442	0.562093
C99	C	0.923156	0.098558	0.812093
C100	C	1.173156	0.348558	1.062093
C101	C	0.357724	-0.401431	0.312103
C102	C	0.607724	-0.151431	0.562103
C103	C	0.857724	0.098569	0.812103
C104	C	1.107724	0.348569	1.062103
C105	C	0.327465	-0.338151	0.314738
C106	C	0.577465	-0.088151	0.564738
C107	C	0.827465	0.161849	0.814738
C108	C	1.077465	0.411849	1.064738
C109	C	0.362647	-0.274881	0.317377
C110	C	0.612647	-0.024881	0.567377
C111	C	0.862647	0.225119	0.817377
C112	C	1.112647	0.475119	1.067377
C113	C	0.428081	-0.274894	0.317372
C114	C	0.678081	-0.024894	0.567372
C115	C	0.928081	0.225106	0.817372
C116	C	1.178081	0.475106	1.067372
C117	C	0.458332	-0.338181	0.314727
C118	C	0.708332	-0.088181	0.564727
C119	C	0.958332	0.161819	0.814727
C120	C	1.208332	0.411819	1.064727
C121	C	0.225565	-0.293275	0.353182
C122	C	0.475565	-0.043275	0.603182
C123	C	0.725565	0.206725	0.853182
C124	C	0.975565	0.456725	1.103182
C125	C	0.160129	-0.293255	0.353179
C126	C	0.410129	-0.043255	0.603179
C127	C	0.660129	0.206745	0.853179
C128	C	0.910129	0.456745	1.103179
C129	C	0.156603	-0.382963	0.276304
C130	C	0.406603	-0.132963	0.526304
C131	C	0.656603	0.117037	0.776304
C132	C	0.906603	0.367037	1.026304
C133	C	0.222038	-0.382976	0.276303
C134	C	0.472038	-0.132976	0.526303
C135	C	0.722038	0.117024	0.776303
C136	C	0.972038	0.367024	1.026303
C137	C	0.256515	-0.338134	0.314746
C138	C	0.506515	-0.088134	0.564746
C139	C	0.756515	0.161866	0.814746
C140	C	1.006515	0.411866	1.064746
C141	C	0.885565	-0.520633	0.321635
C142	C	1.135565	-0.270633	0.571635
C143	C	1.385565	-0.020633	0.821635
C144	C	1.635565	0.229367	1.071635
C145	C	0.882620	-0.598701	0.324613
C146	C	1.132620	-0.348701	0.574613
C147	C	1.382620	-0.098701	0.824613
C148	C	1.632620	0.151299	1.074613
C149	C	0.921324	-0.635349	0.285980
C150	C	1.171324	-0.385349	0.535980
C151	C	1.421324	-0.135349	0.785980
C152	C	1.671324	0.114651	1.035980
C153	C	0.918558	-0.708702	0.288784
C154	C	1.168558	-0.458702	0.538784
C155	C	1.418558	-0.208702	0.788784
C156	C	1.668558	0.041298	1.038784
C157	C	0.877084	-0.745405	0.330218
C158	C	1.127084	-0.495405	0.580218
C159	C	1.377084	-0.245405	0.830218
C160	C	1.627084	0.004595	1.080218
C161	C	0.838379	-0.708752	0.368856
C162	C	1.088379	-0.458752	0.618856
C163	C	1.338379	-0.208752	0.868856
C164	C	1.588379	0.041248	1.118856
C165	C	0.841148	-0.635400	0.366054
C166	C	1.091148	-0.385400	0.616054
C167	C	1.341148	-0.135400	0.866054
C168	C	1.591148	0.114600	1.116054
C169	C	0.866719	-0.966880	0.340683
C170	C	1.116719	-0.716880	0.590683
C171	C	1.366719	-0.466880	0.840683
C172	C	1.616719	-0.216880	1.090683
C173	C	0.863951	-1.040237	0.343480
C174	C	1.113951	-0.790237	0.593480
C175	C	1.363951	-0.540237	0.843480
C176	C	1.613951	-0.290237	1.093480
C177	C	0.944132	-1.040182	0.263409
C178	C	1.194132	-0.790182	0.513409
C179	C	1.444132	-0.540182	0.763409
C180	C	1.694132	-0.290182	1.013409
C181	C	0.946895	-0.966829	0.260609
C182	C	1.196895	-0.716829	0.510609
C183	C	1.446895	-0.466829	0.760609
C184	C	1.696895	-0.216829	1.010609
C185	C	0.908192	-0.930182	0.299248
C186	C	1.158192	-0.680182	0.549248
C187	C	1.408192	-0.430182	0.799248
C188	C	1.658192	-0.180182	1.049248
C189	C	0.874255	-0.820383	0.333084
C190	C	1.124255	-0.570383	0.583084
C191	C	1.374255	-0.320383	0.833084
C192	C	1.624255	-0.070383	1.083084
C193	C	0.911025	-0.855205	0.296385
C194	C	1.161025	-0.605205	0.546385
C195	C	1.411025	-0.355205	0.796385
C196	C	1.661025	-0.105205	1.046385
C197	C	1.056008	-0.338115	0.314740
C198	C	1.306008	-0.088115	0.564740
C199	C	1.556008	0.161885	0.814740
C200	C	1.806008	0.411885	1.064740
C201	C	1.125650	-0.338101	0.314747
C202	C	1.375650	-0.088101	0.564747
C203	C	1.625650	0.161899	0.814747
C204	C	1.875650	0.411899	1.064747
C205	C	0.892636	-0.338135	0.478146
C206	C	1.142636	-0.088135	0.728146
C207	C	1.392636	0.161865	0.978146
C208	C	1.642636	0.411865	1.228146
C209	C	0.892658	-0.338129	0.547787
C210	C	1.142658	-0.088129	0.797787
C211	C	1.392658	0.161871	1.047787
C212	C	1.642658	0.411871	1.297787
C213	C	0.899646	-0.154952	0.307798
C214	C	1.149646	0.095048	0.557798
C215	C	1.399646	0.345048	0.807798
C216	C	1.649646	0.595048	1.057798
C217	C	0.902655	-0.076885	0.304847
C218	C	1.152655	0.173115	0.554847
C219	C	1.402655	0.423115	0.804847
C220	C	1.652655	0.673115	1.054847
C221	C	0.892569	-0.338113	0.151934
C222	C	1.142569	-0.088113	0.401934
C223	C	1.392569	0.161887	0.651934
C224	C	1.642569	0.411887	0.901934
C225	C	0.892675	-0.337921	0.082286
C226	C	1.142675	-0.087921	0.332286
C227	C	1.392675	0.162079	0.582286
C228	C	1.642675	0.412079	0.832286
C229	C	0.934462	-0.293197	0.578807
C230	C	1.184462	-0.043197	0.828807
C231	C	1.434462	0.206803	1.078807
C232	C	1.684462	0.456803	1.328807
C233	C	0.934462	-0.293166	0.644241
C234	C	1.184462	-0.043166	0.894241
C235	C	1.434462	0.206834	1.144241
C236	C	1.684462	0.456834	1.394241
C237	C	0.892665	-0.338081	0.678654
C238	C	1.142665	-0.088081	0.928654
C239	C	1.392665	0.161919	1.178654
C240	C	1.642665	0.411919	1.428654
C241	C	0.850853	-0.383016	0.647626
C242	C	1.100853	-0.133016	0.897626
C243	C	1.350853	0.116984	1.147626
C244	C	1.600853	0.366984	1.397626
C245	C	0.850850	-0.383040	0.582193
C246	C	1.100850	-0.133040	0.832193
C247	C	1.350850	0.116960	1.082193
C248	C	1.600850	0.366960	1.332193
C249	C	0.885285	-0.401324	0.784724
C250	C	1.135285	-0.151324	1.034724
C251	C	1.385285	0.098676	1.284724
C252	C	1.635285	0.348676	1.534724
C253	C	0.885293	-0.401301	0.850156
C254	C	1.135293	-0.151301	1.100156
C255	C	1.385293	0.098699	1.350156
C256	C	1.635293	0.348699	1.600156
C257	C	0.892672	-0.338007	0.880472
C258	C	1.142672	-0.088007	1.130472
C259	C	1.392672	0.161993	1.380472
C260	C	1.642672	0.411993	1.630472
C261	C	0.900056	-0.274733	0.845347
C262	C	1.150056	-0.024733	1.095347
C263	C	1.400056	0.225267	1.345347
C264	C	1.650056	0.475267	1.595347
C265	C	0.900052	-0.274757	0.779914
C266	C	1.150052	-0.024757	1.029914
C267	C	1.400052	0.225243	1.279914
C268	C	1.650052	0.475243	1.529914
C269	C	0.892664	-0.338060	0.749605
C270	C	1.142664	-0.088060	0.999605
C271	C	1.392664	0.161940	1.249605
C272	C	1.642664	0.411940	1.499605
C273	C	0.934478	-0.293038	0.982443
C274	C	1.184478	-0.043038	1.232443
C275	C	1.434478	0.206962	1.482443
C276	C	1.684478	0.456962	1.732443
C277	C	0.934474	-0.293006	1.047878
C278	C	1.184474	-0.043006	1.297878
C279	C	1.434474	0.206994	1.547878
C280	C	1.684474	0.456994	1.797878
C281	C	0.850868	-0.382863	1.051262
C282	C	1.100868	-0.132863	1.301262
C283	C	1.350868	0.117137	1.551262
C284	C	1.600868	0.367137	1.801262
C285	C	0.850869	-0.382888	0.985827
C286	C	1.100869	-0.132888	1.235827
C287	C	1.350869	0.117112	1.485827
C288	C	1.600869	0.367112	1.735827
C289	C	0.892677	-0.337976	0.951422
C290	C	1.142677	-0.087976	1.201422
C291	C	1.392677	0.162024	1.451422
C292	C	1.642677	0.412024	1.701422
H293	H	0.134932	-0.256727	0.384481
H294	H	0.384932	-0.006727	0.634481
H295	H	0.634932	0.243273	0.884481
H296	H	0.884932	0.493273	1.134481
F297	F	0.819800	-1.079297	0.387576
F298	F	1.069800	-0.829297	0.637576
F299	F	1.319800	-0.579297	0.887576
F300	F	1.569800	-0.329297	1.137576
F301	F	0.907911	-0.207366	0.877606
F302	F	1.157911	0.042634	1.127606
F303	F	1.407911	0.292634	1.377606
F304	F	1.657911	0.542634	1.627606
F305	F	0.530823	-0.245603	0.394071
F306	F	0.780823	0.004397	0.644071
F307	F	1.030823	0.254397	0.894071
F308	F	1.280823	0.504397	1.144071
H309	H	0.835204	-0.937048	0.372144
H310	H	1.085204	-0.687048	0.622144
H311	H	1.335204	-0.437048	0.872144
H312	H	1.585204	-0.187048	1.122144
F313	F	0.330450	-0.207529	0.320182
F314	F	0.580450	0.042471	0.570182
F315	F	0.830450	0.292471	0.820182
F316	F	1.080450	0.542471	1.070182
H317	H	0.955094	-0.605470	0.252237
H318	H	1.205094	-0.355470	0.502237
H319	H	1.455094	-0.105470	0.752237
H320	H	1.705094	0.144530	1.002237
H321	H	0.968505	-0.256625	0.550798
H322	H	1.218505	-0.006625	0.800798
H323	H	1.468505	0.243375	1.050798
H324	H	1.718505	0.493375	1.300798
H325	H	0.968515	-0.256413	1.073134
H326	H	1.218515	-0.006413	1.323134
H327	H	1.468515	0.243587	1.573134
H328	H	1.718515	0.493587	1.823134
H329	H	0.456724	-0.223377	0.319519
H330	H	0.706724	0.026623	0.569519
H331	H	0.956724	0.276623	0.819519
H332	H	1.206724	0.526623	1.069519
F333	F	0.978971	-0.245237	0.945824
F334	F	1.228971	0.004763	1.195824
F335	F	1.478971	0.254763	1.445824
F336	F	1.728971	0.504763	1.695824
H337	H	0.253638	-0.256757	0.384480
H338	H	0.503638	-0.006757	0.634480
H339	H	0.753638	0.243243	0.884480
H340	H	1.003638	0.493243	1.134480
F341	F	0.794242	-0.747816	0.412957
F342	F	1.044242	-0.497816	0.662957
F343	F	1.294242	-0.247816	0.912957
F344	F	1.544242	0.002184	1.162957
H345	H	0.816829	-0.419426	1.079279
H346	H	1.066829	-0.169426	1.329279
H347	H	1.316829	0.080574	1.579279
H348	H	1.566829	0.330574	1.829279
H349	H	0.816831	-0.419481	0.960571
H350	H	1.066831	-0.169481	1.210571
H351	H	1.316831	0.080519	1.460571
H352	H	1.566831	0.330519	1.710571
F353	F	0.959755	-0.747702	0.247667
F354	F	1.209755	-0.497702	0.497667
F355	F	1.459755	-0.247702	0.747667
F356	F	1.709755	0.002298	0.997667
F357	F	0.254977	-0.430712	0.235388
F358	F	0.504977	-0.180712	0.485388
F359	F	0.754977	0.069288	0.735388
F360	F	1.004977	0.319288	0.985388
H361	H	0.816819	-0.419584	0.675648
H362	H	1.066819	-0.169584	0.925648
H363	H	1.316819	0.080416	1.175648
H364	H	1.566819	0.330416	1.425648
H365	H	0.329083	-0.452949	0.309957
H366	H	0.579083	-0.202949	0.559957
H367	H	0.829083	0.047051	0.809957
H368	H	1.079083	0.297051	1.059957
H369	H	0.816805	-0.419629	0.556936
H370	H	1.066805	-0.169629	0.806936
H371	H	1.316805	0.080371	1.056936
H372	H	1.566805	0.330371	1.306936
H373	H	0.840485	-0.850275	0.366819
H374	H	1.090485	-0.600275	0.616819
H375	H	1.340485	-0.350275	0.866819
H376	H	1.590485	-0.100275	1.116819
F377	F	0.877440	-0.468642	0.887532
F378	F	1.127440	-0.218642	1.137532
F379	F	1.377440	0.031358	1.387532
F380	F	1.627440	0.281358	1.637532
H381	H	0.944796	-0.825319	0.262651
H382	H	1.194796	-0.575319	0.512651
H383	H	1.444796	-0.325319	0.762651
H384	H	1.694796	-0.075319	1.012651
H385	H	0.809632	-0.605562	0.397514
H386	H	1.059632	-0.355562	0.647514
H387	H	1.309632	-0.105562	0.897514
H388	H	1.559632	0.144438	1.147514
H389	H	0.879110	-0.452852	0.760046
H390	H	1.129110	-0.202852	1.010046
H391	H	1.379110	0.047148	1.260046
H392	H	1.629110	0.297148	1.510046
F393	F	0.991045	-0.927772	0.216515
F394	F	1.241045	-0.677772	0.466515
F395	F	1.491045	-0.427772	0.716515
F396	F	1.741045	-0.177772	0.966515
H397	H	0.128527	-0.419477	0.245013
H398	H	0.378527	-0.169477	0.495013
H399	H	0.628527	0.080523	0.745013
H400	H	0.878527	0.330523	0.995013
H401	H	0.447787	-0.452975	0.309947
H402	H	0.697787	-0.202975	0.559947
H403	H	0.947787	0.047025	0.809947
H404	H	1.197787	0.297025	1.059947
H405	H	0.657270	-0.256848	0.384458
H406	H	0.907270	-0.006848	0.634458
H407	H	1.157270	0.243152	0.884458
H408	H	1.407270	0.493152	1.134458
H409	H	0.532160	-0.419558	0.244987
H410	H	0.782160	-0.169558	0.494987
H411	H	1.032160	0.080442	0.744987
H412	H	1.282160	0.330442	0.994987
F413	F	0.978948	-0.245330	0.677262
F414	F	1.228948	0.004670	0.927262
F415	F	1.478948	0.254670	1.177262
F416	F	1.728948	0.504670	1.427262
H417	H	0.975643	-1.070027	0.231952
H418	H	1.225643	-0.820027	0.481952
H419	H	1.475643	-0.570027	0.731952
H420	H	1.725643	-0.320027	0.981952
H421	H	0.650873	-0.419583	0.244970
H422	H	0.900873	-0.169583	0.494970
H423	H	1.150873	0.080417	0.744970
H424	H	1.400873	0.330417	0.994970
F425	F	0.907908	-0.207419	0.742535
F426	F	1.157908	0.042581	0.992535
F427	F	1.407908	0.292581	1.242535
F428	F	1.657908	0.542581	1.492535
