data_functionalizedCrystal
_audit_creation_method	'MofGen! by Chris Wilmer'
_symmetry_space_group_name_H-M	'P1'
_symmetry_Int_Tables_number	1
_symmetry_cell_setting	triclinic
loop_
_symmetry_equiv_pos_as_xyz
  x,y,z
_cell_length_a	10.686220
_cell_length_b	12.827892
_cell_length_c	10.686551
_cell_angle_alpha	85.594733
_cell_angle_beta	90.307919
_cell_angle_gamma	94.397169
loop_
_atom_site_label
_atom_site_type_symbol
_atom_site_fract_x
_atom_site_fract_y
_atom_site_fract_z
Zn1	Zn	1.972286	-0.254765	-0.562394
Zn2	Zn	1.956055	-0.443910	-0.352637
Zn3	Zn	1.746404	-0.281498	-0.368711
Zn4	Zn	1.762485	-0.441793	-0.578414
O5	O	1.859308	-0.355491	-0.465539
O6	O	2.145675	-0.269554	-0.521138
O7	O	1.914722	-0.434439	-0.179224
O8	O	1.776431	-0.131710	-0.394426
O9	O	2.133750	-0.408517	-0.367031
O10	O	1.942385	-0.112070	-0.536725
O11	O	1.760692	-0.315116	-0.191034
O12	O	1.572995	-0.313063	-0.409960
O13	O	1.803838	-0.404909	-0.751835
O14	O	1.584810	-0.430831	-0.564028
O15	O	1.957978	-0.267501	-0.740065
O16	O	1.930315	-0.589870	-0.382565
O17	O	1.788100	-0.588315	-0.548442
C18	C	1.533387	-0.374619	-0.490478
C19	C	1.393958	-0.382825	-0.501176
C20	C	1.859227	-0.627008	-0.465522
C21	C	1.859311	-0.743154	-0.465548
C22	C	1.941402	-0.785133	-0.536033
C23	C	1.941490	-0.905176	-0.536061
C24	C	2.186501	-0.336290	-0.440504
C25	C	2.325932	-0.328107	-0.429836
C26	C	1.884513	-0.332987	-0.792739
C27	C	1.895253	-0.323397	-0.932173
C28	C	1.859424	-0.082911	-0.465582
C29	C	1.859474	0.033246	-0.465599
C30	C	1.834273	-0.377829	-0.139607
C31	C	1.823775	-0.387110	-0.000156
H32	H	2.011614	-0.732205	-0.596362
F33	F	2.033362	-0.952409	-0.614932
H34	H	1.374363	-0.274985	-0.360563
F35	F	1.733050	-0.468004	-0.936808
H36	H	1.789090	-0.796084	-0.405231
F37	F	1.330665	-0.452268	-0.591706
F38	F	1.767610	-0.919528	-0.386712
H39	H	1.964676	-0.261512	-0.980646
