data_functionalizedCrystal
_audit_creation_method	'MofGen! by Chris Wilmer'
_symmetry_space_group_name_H-M	'P1'
_symmetry_Int_Tables_number	1
_symmetry_cell_setting	triclinic
loop_
_symmetry_equiv_pos_as_xyz
  x,y,z
_cell_length_a	14.044220
_cell_length_b	14.519731
_cell_length_c	13.596369
_cell_angle_alpha	89.994584
_cell_angle_beta	90.004689
_cell_angle_gamma	91.561135
loop_
_atom_site_label
_atom_site_type_symbol
_atom_site_fract_x
_atom_site_fract_y
_atom_site_fract_z
O1	O	-0.124370	1.233888	-0.081792
O2	O	0.125630	1.483888	0.168208
O3	O	0.375630	1.733888	0.418208
O4	O	0.625630	1.983888	0.668208
O5	O	-0.138983	0.966592	-0.081793
O6	O	0.111017	1.216592	0.168207
O7	O	0.361017	1.466592	0.418207
O8	O	0.611017	1.716592	0.668207
O9	O	0.006315	1.096228	-0.081788
O10	O	0.256315	1.346228	0.168212
O11	O	0.506315	1.596228	0.418212
O12	O	0.756315	1.846228	0.668212
O13	O	-0.269668	1.104252	-0.081797
O14	O	-0.019668	1.354252	0.168203
O15	O	0.230332	1.604252	0.418203
O16	O	0.480332	1.854252	0.668203
O17	O	0.006323	1.096213	0.081795
O18	O	0.256323	1.346213	0.331795
O19	O	0.506323	1.596213	0.581795
O20	O	0.756323	1.846213	0.831795
O21	O	-0.138975	0.966578	0.081790
O22	O	0.111025	1.216578	0.331790
O23	O	0.361025	1.466578	0.581790
O24	O	0.611025	1.716578	0.831790
O25	O	-0.124362	1.233873	0.081791
O26	O	0.125638	1.483873	0.331791
O27	O	0.375638	1.733873	0.581791
O28	O	0.625638	1.983873	0.831791
Zn29	Zn	-0.131667	1.100223	0.107763
Zn30	Zn	0.118333	1.350223	0.357763
Zn31	Zn	0.368333	1.600223	0.607763
Zn32	Zn	0.618333	1.850223	0.857763
Zn33	Zn	-0.131678	1.100242	-0.107765
Zn34	Zn	0.118322	1.350242	0.142235
Zn35	Zn	0.368322	1.600242	0.392235
Zn36	Zn	0.618322	1.850242	0.642235
O37	O	-0.269660	1.104238	0.081786
O38	O	-0.019660	1.354238	0.331786
O39	O	0.230340	1.604238	0.581786
O40	O	0.480340	1.854238	0.831786
C41	C	-0.138295	0.932170	-0.000002
C42	C	0.111705	1.182170	0.249998
C43	C	0.361705	1.432170	0.499998
C44	C	0.611705	1.682170	0.749998
C45	C	-0.136243	0.829625	-0.000002
C46	C	0.113757	1.079625	0.249998
C47	C	0.363757	1.329625	0.499998
C48	C	0.613757	1.579625	0.749998
C49	C	-0.134575	0.746346	-0.000006
C50	C	0.115425	0.996346	0.249994
C51	C	0.365425	1.246346	0.499994
C52	C	0.615425	1.496346	0.749994
C53	C	-0.132492	0.641869	-0.000006
C54	C	0.117508	0.891869	0.249994
C55	C	0.367508	1.141869	0.499994
C56	C	0.617508	1.391869	0.749994
C57	C	-0.130839	0.558597	-0.000006
C58	C	0.119161	0.808597	0.249994
C59	C	0.369161	1.058597	0.499994
C60	C	0.619161	1.308597	0.749994
C61	C	-0.128756	0.454113	-0.000008
C62	C	0.121244	0.704113	0.249992
C63	C	0.371244	0.954113	0.499992
C64	C	0.621244	1.204113	0.749992
C65	C	-0.304985	1.107757	-0.000006
C66	C	-0.054985	1.357757	0.249994
C67	C	0.195015	1.607757	0.499994
C68	C	0.445015	1.857757	0.749994
C69	C	-0.410229	1.118234	-0.000010
C70	C	-0.160229	1.368234	0.249990
C71	C	0.089771	1.618234	0.499990
C72	C	0.339771	1.868234	0.749990
C73	C	-0.602925	1.137389	-0.000005
C74	C	-0.352925	1.387389	0.249995
C75	C	-0.102925	1.637389	0.499995
C76	C	0.147075	1.887389	0.749995
C77	C	-0.660426	1.063081	-0.000005
C78	C	-0.410426	1.313081	0.249995
C79	C	-0.160426	1.563081	0.499995
C80	C	0.089574	1.813081	0.749995
C81	C	-0.767648	1.073739	-0.000002
C82	C	-0.517648	1.323739	0.249998
C83	C	-0.267648	1.573739	0.499998
C84	C	-0.017648	1.823739	0.749998
C85	C	-0.495692	1.126732	-0.000008
C86	C	-0.245692	1.376732	0.249992
C87	C	0.004308	1.626732	0.499992
C88	C	0.254308	1.876732	0.749992
C89	C	0.041640	1.092708	0.000003
C90	C	0.291640	1.342708	0.250003
C91	C	0.541640	1.592708	0.500003
C92	C	0.791640	1.842708	0.750003
C93	C	0.146884	1.082231	-0.000000
C94	C	0.396884	1.332231	0.250000
C95	C	0.646884	1.582231	0.500000
C96	C	0.896884	1.832231	0.750000
C97	C	-0.125050	1.268295	-0.000002
C98	C	0.124950	1.518295	0.249998
C99	C	0.374950	1.768295	0.499998
C100	C	0.624950	2.018295	0.749998
C101	C	-0.127102	1.370841	-0.000008
C102	C	0.122898	1.620841	0.249992
C103	C	0.372898	1.870841	0.499992
C104	C	0.622898	2.120841	0.749992
N105	N	-0.131660	1.100217	0.254855
N106	N	0.118340	1.350217	0.504855
N107	N	0.368340	1.600217	0.754855
N108	N	0.618340	1.850217	1.004855
N109	N	-0.131678	1.100256	-0.254856
N110	N	0.118322	1.350256	-0.004856
N111	N	0.368322	1.600256	0.245144
N112	N	0.618322	1.850256	0.495144
C113	C	-0.131679	1.100241	0.656146
C114	C	0.118321	1.350241	0.906146
C115	C	0.368321	1.600241	1.156146
C116	C	0.618321	1.850241	1.406146
C117	C	-0.131677	1.100232	0.544494
C118	C	0.118323	1.350232	0.794494
C119	C	0.368323	1.600232	1.044494
C120	C	0.618323	1.850232	1.294494
C121	C	-0.131670	1.100229	0.455504
C122	C	0.118330	1.350229	0.705504
C123	C	0.368330	1.600229	0.955504
C124	C	0.618330	1.850229	1.205504
C125	C	-0.131667	1.100219	0.343845
C126	C	0.118333	1.350219	0.593845
C127	C	0.368333	1.600219	0.843845
C128	C	0.618333	1.850219	1.093845
H129	H	-0.629128	0.991460	-0.000004
H130	H	-0.379128	1.241460	0.249996
H131	H	-0.129128	1.491460	0.499996
H132	H	0.120872	1.741460	0.749996
O133	O	-0.644370	1.232257	0.000006
O134	O	-0.394370	1.482257	0.250006
O135	O	-0.144370	1.732257	0.500006
O136	O	0.105630	1.982257	0.750006
H137	H	-0.723305	1.225845	0.000017
H138	H	-0.473305	1.475845	0.250017
H139	H	-0.223305	1.725845	0.500017
H140	H	0.026695	1.975845	0.750017
