data_functionalizedCrystal
_audit_creation_method	'MofGen! by Chris Wilmer'
_symmetry_space_group_name_H-M	'P1'
_symmetry_Int_Tables_number	1
_symmetry_cell_setting	triclinic
loop_
_symmetry_equiv_pos_as_xyz
  x,y,z
_cell_length_a	9.065218
_cell_length_b	27.732048
_cell_length_c	7.540329
_cell_angle_alpha	89.991480
_cell_angle_beta	89.996962
_cell_angle_gamma	83.829270
loop_
_atom_site_label
_atom_site_type_symbol
_atom_site_fract_x
_atom_site_fract_y
_atom_site_fract_z
O1	O	1.955892	0.070866	-0.147510
O2	O	1.526237	0.076679	-0.147514
O3	O	1.754409	0.003467	-0.147478
O4	O	1.727721	0.144079	-0.147546
O5	O	1.754395	0.003466	0.147487
O6	O	1.526224	0.076678	0.147451
O7	O	1.955878	0.070866	0.147455
Cu8	Cu	1.741050	0.073772	0.174386
Cu9	Cu	1.741066	0.073773	-0.174444
O10	O	1.727707	0.144078	0.147419
C11	C	1.471280	0.076120	-0.000031
C12	C	1.307543	0.074450	-0.000032
C13	C	1.753842	-0.014544	0.000010
C14	C	1.752155	-0.068210	0.000024
C15	C	1.876369	-0.406178	-0.000066
C16	C	1.870110	-0.607880	-0.000090
O17	O	1.983695	-0.638360	-0.000167
N18	N	1.734814	-0.627927	-0.000090
C19	C	1.601073	-0.597545	-0.000095
O20	O	1.485852	-0.619225	-0.000114
C21	C	1.607334	-0.395844	-0.000083
C22	C	1.742639	-0.375800	-0.000065
C23	C	2.011663	-0.386133	-0.000050
C24	C	2.013226	-0.335710	-0.000034
C25	C	1.879496	-0.305332	-0.000034
C26	C	1.744202	-0.325377	-0.000050
C27	C	1.473594	-0.365463	-0.000101
C28	C	1.475171	-0.315035	-0.000103
C29	C	1.610476	-0.294991	-0.000085
C30	C	1.612034	-0.244577	-0.000034
N31	N	1.747331	-0.224529	-0.000034
C32	C	1.881061	-0.254907	-0.000034
C33	C	1.597796	-0.703442	-0.000098
C34	C	1.596230	-0.753867	-0.000098
C35	C	1.865268	-0.764198	-0.000096
C36	C	1.866832	-0.713772	-0.000084
C37	C	1.733092	-0.683395	-0.000098
C38	C	1.884334	-0.149016	0.000001
C39	C	1.885886	-0.098588	0.000024
C40	C	1.616849	-0.088262	0.000013
C41	C	1.615296	-0.138685	-0.000001
C42	C	1.749051	-0.169061	-0.000013
O43	O	1.498510	-0.214067	0.000023
O44	O	1.996266	-0.233218	-0.000055
C45	C	1.874806	-0.456600	-0.000082
C46	C	1.739512	-0.476645	-0.000097
C47	C	1.605781	-0.446267	-0.000097
C48	C	1.737946	-0.527070	-0.000097
C49	C	1.871677	-0.557448	-0.000097
C50	C	2.006973	-0.537401	-0.000098
C51	C	2.008537	-0.486978	-0.000082
C52	C	1.470485	-0.466314	-0.000097
C53	C	1.468933	-0.516737	-0.000111
C54	C	1.602663	-0.547115	-0.000111
C55	C	2.010836	0.071425	-0.000031
C56	C	2.174573	0.073095	-0.000042
C57	C	1.728274	0.162089	-0.000072
C58	C	1.729961	0.215755	-0.000098
N59	N	1.741050	0.073771	0.419734
N60	N	1.741078	0.073770	-0.419793
H61	H	1.996072	-0.082271	0.000043
H62	H	1.974157	-0.788940	-0.000096
C63	C	1.469752	-0.054839	0.000005
C64	C	1.433871	-0.018745	-0.153169
C65	C	1.286775	0.014679	-0.153193
C66	C	1.175559	0.012011	-0.000042
C67	C	1.211438	-0.024084	0.153143
C68	C	1.358534	-0.057509	0.153167
H69	H	1.516202	-0.016768	-0.266550
H70	H	1.260216	0.041399	-0.266591
H71	H	1.066670	0.036754	-0.000060
H72	H	1.129107	-0.026061	0.266524
H73	H	1.385093	-0.084229	0.266566
H74	H	1.993250	-0.173743	-0.000016
H75	H	2.123406	-0.319395	-0.000027
H76	H	2.120569	-0.410862	-0.000057
C77	C	1.447391	-0.775911	-0.000096
C78	C	1.336623	-0.764716	0.153065
C79	C	1.187778	-0.786758	0.153056
C80	C	1.149701	-0.819995	-0.000113
C81	C	1.260472	-0.831192	-0.153286
C82	C	1.409317	-0.809150	-0.153277
H83	H	1.364808	-0.740111	0.266461
H84	H	1.105779	-0.778469	0.266445
H85	H	1.039517	-0.836311	-0.000120
H86	H	1.232287	-0.855797	-0.266681
H87	H	1.491316	-0.817439	-0.266666
H88	H	1.977009	-0.697456	-0.000071
H89	H	1.488882	-0.678712	-0.000110
H90	H	1.363415	-0.381774	-0.000126
H91	H	1.366261	-0.290304	-0.000117
H92	H	1.505120	-0.155005	0.000034
H93	H	2.118716	-0.470663	-0.000068
H94	H	2.115862	-0.562143	-0.000090
H95	H	1.358743	-0.533052	-0.000110
H96	H	1.361583	-0.441585	-0.000101
