data_functionalizedCrystal
_audit_creation_method	'MofGen! by Chris Wilmer'
_symmetry_space_group_name_H-M	'P1'
_symmetry_Int_Tables_number	1
_symmetry_cell_setting	triclinic
loop_
_symmetry_equiv_pos_as_xyz
  x,y,z
_cell_length_a	17.077404
_cell_length_b	25.639240
_cell_length_c	17.077396
_cell_angle_alpha	90.038257
_cell_angle_beta	90.018362
_cell_angle_gamma	90.030728
loop_
_atom_site_label
_atom_site_type_symbol
_atom_site_fract_x
_atom_site_fract_y
_atom_site_fract_z
Zn1	Zn	1.200001	-0.208179	0.443765
Zn2	Zn	1.199885	-0.295617	0.312477
Zn3	Zn	1.068733	-0.208194	0.312516
Zn4	Zn	1.068678	-0.295582	0.443703
O5	O	1.134324	-0.251893	0.378115
O6	O	1.309832	-0.219786	0.426360
O7	O	1.182462	-0.284041	0.202635
O8	O	1.086217	-0.135027	0.329969
O9	O	1.309747	-0.284026	0.329902
O10	O	1.182659	-0.135016	0.426397
O11	O	1.086105	-0.219811	0.202664
O12	O	0.958878	-0.219778	0.329909
O13	O	1.086124	-0.283967	0.553559
O14	O	0.958838	-0.283982	0.426291
O15	O	1.182606	-0.219753	0.553604
O16	O	1.182409	-0.368777	0.329842
O17	O	1.086012	-0.368752	0.426254
C18	C	0.930376	-0.251878	0.378098
C19	C	0.843126	-0.251884	0.378109
C20	C	0.802181	-0.218494	0.428411
C21	C	0.720201	-0.218498	0.428414
C22	C	0.679167	-0.251894	0.378120
C23	C	0.720118	-0.285286	0.327812
C24	C	0.802097	-0.285280	0.327805
C25	C	0.549248	-0.285298	0.327832
C26	C	0.467263	-0.285305	0.327840
C27	C	0.467352	-0.218516	0.428441
C28	C	0.549331	-0.218509	0.428434
C29	C	0.590276	-0.251902	0.378127
C30	C	1.134213	-0.387736	0.378054
C31	C	1.134238	-0.445850	0.378054
C32	C	1.184566	-0.806168	0.428416
C33	C	1.184590	-0.860773	0.428432
O34	O	1.227249	-0.888972	0.471189
N35	N	1.134433	-0.888132	0.378191
C36	C	1.084244	-0.860884	0.327937
O37	O	1.041584	-0.889169	0.285205
C38	C	1.084218	-0.806281	0.327925
C39	C	1.134383	-0.778924	0.378164
C40	C	1.234727	-0.778812	0.478651
C41	C	1.234705	-0.724211	0.478634
C42	C	1.184522	-0.696967	0.428382
C43	C	1.134361	-0.724324	0.378147
C44	C	1.034026	-0.779034	0.277675
C45	C	1.034003	-0.724427	0.277669
C46	C	1.084169	-0.697071	0.327907
C47	C	1.084156	-0.642479	0.327877
N48	N	1.134312	-0.615120	0.378118
C49	C	1.184495	-0.642364	0.428371
C50	C	1.084303	-0.975555	0.327966
C51	C	1.084333	-1.030157	0.327972
C52	C	1.184677	-1.030042	0.428469
C53	C	1.184651	-0.975439	0.428458
C54	C	1.134460	-0.948196	0.378206
C55	C	1.184445	-0.527699	0.428330
C56	C	1.184421	-0.473094	0.428306
C57	C	1.084074	-0.473214	0.327813
C58	C	1.084101	-0.527814	0.327833
C59	C	1.134289	-0.555056	0.378099
O60	O	1.041516	-0.614245	0.285145
O61	O	1.227141	-0.614072	0.471102
C62	C	1.339068	-0.251908	0.378134
C63	C	1.426318	-0.251915	0.378141
C64	C	1.134372	-0.251855	0.582860
C65	C	1.134392	-0.251838	0.670110
C66	C	1.134457	-0.115520	0.378194
C67	C	1.134513	-0.057406	0.378228
C68	C	1.134322	-0.251894	0.174168
C69	C	1.134454	-0.251763	0.086918
C70	C	1.184632	-0.218399	0.711125
C71	C	1.184641	-0.218381	0.793105
C72	C	1.134414	-0.251806	0.834069
C73	C	1.084168	-0.285247	0.793048
C74	C	1.084156	-0.285262	0.711069
C75	C	1.084200	-0.285216	0.963918
C76	C	1.084214	-0.285202	1.045903
C77	C	1.184686	-0.218335	1.045955
C78	C	1.184673	-0.218350	0.963976
C79	C	1.134428	-0.251792	0.922960
H80	H	0.433856	-0.312500	0.286886
Br81	Br	0.857862	-0.173171	0.496678
H82	H	1.043312	-0.312419	1.079254
H83	H	1.043217	-0.451023	0.286895
Br84	Br	0.604816	-0.330620	0.259562
H85	H	1.043273	-0.312439	0.930526
Br86	Br	1.015965	-0.330642	0.655405
Br87	Br	0.664635	-0.173180	0.496685
Br88	Br	1.252879	-0.172952	1.101617
Br89	Br	0.664430	-0.330607	0.259548
H90	H	1.043270	-0.312460	0.826407
H91	H	0.582738	-0.191318	0.469393
Br92	Br	0.965938	-0.816147	0.209492
Br93	Br	0.857667	-0.330596	0.259534
Br94	Br	1.016184	-0.938587	0.259757
H95	H	0.993129	-0.702248	0.236749
H96	H	0.434010	-0.191325	0.469401
Br97	Br	1.252559	-0.564661	0.496546
Br98	Br	1.252510	-0.435970	0.496489
Br99	Br	1.302785	-0.687093	0.546824
Br100	Br	1.252735	-0.938318	0.496641
H101	H	1.225535	-0.191182	0.677778
Br102	Br	1.302838	-0.815776	0.546865
H103	H	1.225538	-1.052234	0.469389
H104	H	1.043491	-1.052426	0.287055
H105	H	1.225554	-0.191153	0.826496
H106	H	1.225577	-0.191135	0.930625
Br107	Br	1.016031	-0.564942	0.259640
