data_functionalizedCrystal
_audit_creation_method	'MofGen! by Chris Wilmer'
_symmetry_space_group_name_H-M	'P1'
_symmetry_Int_Tables_number	1
_symmetry_cell_setting	triclinic
loop_
_symmetry_equiv_pos_as_xyz
  x,y,z
_cell_length_a	6.817900
_cell_length_b	11.102288
_cell_length_c	11.102182
_cell_angle_alpha	91.949627
_cell_angle_beta	108.603774
_cell_angle_gamma	108.605689
loop_
_atom_site_label
_atom_site_type_symbol
_atom_site_fract_x
_atom_site_fract_y
_atom_site_fract_z
V1	V	-4.111514	-0.175852	-0.396258
O2	O	-4.070547	0.008437	-0.388715
O3	O	-4.088291	-0.348673	-0.393548
O4	O	-4.088287	-0.173153	-0.569080
O5	O	-4.070550	-0.168297	-0.211968
V6	V	-4.588617	-0.153809	-0.374215
O7	O	-4.386854	-0.224207	-0.444610
O8	O	-4.763475	-0.105454	-0.325863
O9	O	-4.388634	0.019012	-0.376925
O10	O	-4.746981	-0.338098	-0.381759
O11	O	-4.746978	-0.161363	-0.558505
O12	O	-4.388637	-0.156508	-0.201394
C13	C	-3.938602	-0.390802	-0.387297
C14	C	-4.001069	-0.532085	-0.386233
C15	C	-4.214424	-0.604933	-0.392074
C16	C	-4.273112	-0.737685	-0.391084
C17	C	-3.905066	-0.724726	-0.378408
C18	C	-3.846386	-0.591979	-0.379406
C19	C	-3.938596	-0.166908	-0.611203
C20	C	-4.001056	-0.165845	-0.752486
C21	C	-4.090570	-0.281724	-0.837022
C22	C	-4.149274	-0.280709	-0.969770
C23	C	-4.028931	-0.047925	-0.933433
C24	C	-3.970244	-0.048942	-0.800688
C25	C	-4.160041	-0.416120	-0.858001
C26	C	-4.218744	-0.415105	-0.990749
C27	C	-4.201665	0.061135	-0.383173
C28	C	-4.118437	0.202416	-0.384245
C29	C	-4.201670	-0.162757	-0.159263
C30	C	-4.118447	-0.163813	-0.017979
H31	H	-3.672644	-0.532664	-0.374654
H32	H	-3.897385	0.045417	-0.731863
O33	O	-3.999051	0.065518	-0.980471
C34	C	-4.036267	0.170249	-1.168872
C35	C	-4.070182	0.041683	-1.115778
H36	H	-4.093802	0.151021	-1.278275
H37	H	-3.853780	0.232338	-1.128944
H38	H	-4.136260	0.222571	-1.138695
H39	H	-3.970321	-0.010746	-1.145935
H40	H	-4.252714	-0.020312	-1.155701
H41	H	-4.312059	-0.472872	-0.834997
H42	H	-3.779136	-0.773508	-0.372847
H43	H	-4.340380	-0.556172	-0.397631
H44	H	-4.017643	-0.453111	-0.818215
O45	O	-4.480444	-0.808542	-0.396967
C46	C	-4.817439	-0.983245	-0.513746
C47	C	-4.582696	-0.903080	-0.507262
H48	H	-4.900162	-1.059715	-0.602898
H49	H	-4.918060	-0.917709	-0.518878
H50	H	-4.807814	-1.031716	-0.424196
H51	H	-4.592114	-0.854599	-0.596790
H52	H	-4.482166	-0.968679	-0.502066
O53	O	-4.440112	-0.470563	-1.053560
C54	C	-4.795990	-0.575634	-1.035580
C55	C	-4.545335	-0.512908	-0.964291
H56	H	-4.881142	-0.609863	-0.963435
H57	H	-4.830197	-0.661137	-1.108679
H58	H	-4.862212	-0.502247	-1.087407
H59	H	-4.478943	-0.586199	-0.912390
H60	H	-4.511277	-0.427382	-0.891265
H61	H	-4.120074	-0.461554	-1.029867
