data_functionalizedCrystal
_audit_creation_method	'MofGen! by Chris Wilmer'
_symmetry_space_group_name_H-M	'P1'
_symmetry_Int_Tables_number	1
_symmetry_cell_setting	triclinic
loop_
_symmetry_equiv_pos_as_xyz
  x,y,z
_cell_length_a	13.032831
_cell_length_b	16.625546
_cell_length_c	13.032268
_cell_angle_alpha	97.144614
_cell_angle_beta	90.886977
_cell_angle_gamma	82.826778
loop_
_atom_site_label
_atom_site_type_symbol
_atom_site_fract_x
_atom_site_fract_y
_atom_site_fract_z
Zn1	Zn	1.498429	-0.544521	-0.780776
Zn2	Zn	1.520160	-0.664651	-0.608784
Zn3	Zn	1.348291	-0.510838	-0.587021
Zn4	Zn	1.326409	-0.660292	-0.758909
O5	O	1.423322	-0.595075	-0.683873
O6	O	1.645231	-0.576377	-0.776220
O7	O	1.515614	-0.631976	-0.461981
O8	O	1.368270	-0.402484	-0.612767
O9	O	1.661197	-0.664636	-0.649858
O10	O	1.478576	-0.427231	-0.755118
O11	O	1.389342	-0.518970	-0.445992
O12	O	1.201469	-0.514743	-0.591563
O13	O	1.330976	-0.657206	-0.905725
O14	O	1.185392	-0.624546	-0.717849
O15	O	1.457358	-0.572150	-0.921791
O16	O	1.494396	-0.776895	-0.628654
O17	O	1.352048	-0.773692	-0.738951
C18	C	1.156114	-0.565517	-0.649972
C19	C	1.041798	-0.552893	-0.635494
C20	C	1.423230	-0.804552	-0.683817
C21	C	1.423281	-0.894180	-0.683840
C22	C	0.982917	-0.601664	-0.691429
C23	C	0.864766	-0.588618	-0.676466
C24	C	1.423447	-1.222385	-0.683970
C25	C	1.423397	-1.131068	-0.683936
C26	C	1.423363	-1.058285	-0.683904
C27	C	1.423315	-0.966963	-0.683872
C28	C	1.691574	-0.624750	-0.717906
C29	C	1.805887	-0.637396	-0.732409
C30	C	1.389302	-0.617949	-0.952117
C31	C	1.374805	-0.627696	-1.066427
C32	C	1.423440	-0.384786	-0.683954
C33	C	1.423490	-0.295173	-0.683989
C34	C	1.430873	-0.589958	-1.125339
C35	C	1.415890	-0.600031	-1.243485
C36	C	1.457270	-0.572239	-0.416679
C37	C	1.471966	-0.562287	-0.302395
H38	H	0.827708	-0.537199	-0.617501
O39	O	1.027229	-0.662906	-0.761841
C40	C	1.080942	-0.629567	-0.836202
H41	H	1.101521	-0.567090	-0.802083
H42	H	1.029953	-0.622774	-0.907241
C43	C	1.155419	-0.763457	-0.909462
C44	C	1.180703	-0.686724	-0.867553
H45	H	1.216954	-0.798715	-0.928805
H46	H	1.119229	-0.785919	-0.859367
H47	H	1.112926	-0.757784	-0.968656
H48	H	1.223184	-0.692396	-0.808353
H49	H	1.216902	-0.664265	-0.917639
O50	O	1.345529	-0.647586	-1.287709
C51	C	1.396229	-0.711383	-1.357278
H52	H	1.481312	-0.722574	-1.335114
H53	H	1.389538	-0.693736	-1.439114
C54	C	1.241218	-0.776048	-1.379883
C55	C	1.345717	-0.789797	-1.352657
H56	H	1.210058	-0.824417	-1.377038
H57	H	1.207058	-0.733066	-1.333017
H58	H	1.235656	-0.761341	-1.448079
H59	H	1.351277	-0.804494	-1.284458
H60	H	1.379876	-0.832784	-1.399512
H61	H	1.531059	-0.522512	-1.265370
H62	H	1.489963	-0.550187	-1.088309
H63	H	0.842942	-0.688808	-0.791385
O64	O	1.304447	-0.675249	-1.110656
C65	C	1.355148	-0.739046	-1.180225
H66	H	1.440231	-0.750236	-1.158061
H67	H	1.348456	-0.721399	-1.262061
C68	C	1.200137	-0.803711	-1.202831
C69	C	1.304635	-0.817460	-1.175604
H70	H	1.168976	-0.852080	-1.199985
H71	H	1.165977	-0.760728	-1.155964
H72	H	1.194574	-0.789003	-1.271026
H73	H	1.310196	-0.832157	-1.107406
H74	H	1.338795	-0.860447	-1.222459
H75	H	1.004736	-0.501477	-0.576533
