data_functionalizedCrystal
_audit_creation_method	'MofGen! by Chris Wilmer'
_symmetry_space_group_name_H-M	'P1'
_symmetry_Int_Tables_number	1
_symmetry_cell_setting	triclinic
loop_
_symmetry_equiv_pos_as_xyz
  x,y,z
_cell_length_a	16.956985
_cell_length_b	10.654541
_cell_length_c	15.455301
_cell_angle_alpha	92.976450
_cell_angle_beta	86.830763
_cell_angle_gamma	99.731441
loop_
_atom_site_label
_atom_site_type_symbol
_atom_site_fract_x
_atom_site_fract_y
_atom_site_fract_z
O1	O	-1.061469	0.056581	0.072161
O2	O	-0.561469	0.556581	0.572161
O3	O	-0.829555	0.100647	0.072156
O4	O	-0.329555	0.600647	0.572156
O5	O	-0.950845	-0.104753	0.072154
O6	O	-0.450845	0.395247	0.572154
O7	O	-0.940179	0.261980	0.072164
O8	O	-0.440179	0.761980	0.572164
O9	O	-0.944552	-0.113918	-0.072109
O10	O	-0.444552	0.386082	0.427891
O11	O	-0.823262	0.091482	-0.072107
O12	O	-0.323262	0.591482	0.427893
O13	O	-1.055177	0.047416	-0.072102
O14	O	-0.555177	0.547416	0.427898
Cu15	Cu	-0.938645	0.068612	-0.085277
Cu16	Cu	-0.438645	0.568612	0.414723
Cu17	Cu	-0.946087	0.079450	0.085331
Cu18	Cu	-0.446087	0.579450	0.585331
O19	O	-0.933886	0.252816	-0.072099
O20	O	-0.433886	0.752816	0.427901
C21	C	-0.796713	0.098321	0.000024
C22	C	-0.296713	0.598321	0.500024
C23	C	-0.708229	0.105030	0.000022
C24	C	-0.208229	0.605030	0.500022
C25	C	-0.946916	-0.156041	0.000023
C26	C	-0.446916	0.343959	0.500023
C27	C	-0.944574	-0.295209	0.000024
C28	C	-0.444574	0.204791	0.500024
C29	C	-0.675525	-0.007137	0.000017
C30	C	-0.175525	0.492863	0.500017
C31	C	-0.592385	-0.000826	0.000021
C32	C	-0.092385	0.499174	0.500021
C33	C	-0.541950	0.117653	0.000025
C34	C	-0.041950	0.617653	0.500025
C35	C	-0.574659	0.229829	0.000033
C36	C	-0.074659	0.729829	0.500033
C37	C	-0.657798	0.223517	0.000035
C38	C	-0.157798	0.723517	0.500035
C39	C	-0.292350	0.148899	0.000025
C40	C	0.207650	0.648899	0.500025
C41	C	-0.209206	0.155202	0.000021
C42	C	0.290794	0.655202	0.500021
C43	C	-0.226937	-0.075453	0.000011
C44	C	0.273063	0.424547	0.500011
C45	C	-0.310076	-0.081755	0.000007
C46	C	0.189924	0.418245	0.500007
C47	C	-0.342779	0.030420	0.000020
C48	C	0.157221	0.530420	0.500020
N49	N	-0.456967	0.124107	0.000026
N50	N	0.043033	0.624107	0.500026
N51	N	-0.427761	0.023965	0.000025
N52	N	0.072239	0.523965	0.500025
C53	C	-1.089609	-0.340229	0.000016
C54	C	-0.589609	0.159771	0.500016
C55	C	-1.161023	-0.428118	0.000010
C56	C	-0.661023	0.071882	0.500010
C57	C	-1.158818	-0.558877	0.000013
C58	C	-0.658818	-0.058877	0.500013
C59	C	-1.085191	-0.601747	0.000024
C60	C	-0.585191	-0.101747	0.500024
C61	C	-1.013777	-0.513858	0.000030
C62	C	-0.513777	-0.013858	0.500030
C63	C	-1.015990	-0.383099	0.000024
C64	C	-0.515990	0.116901	0.500024
C65	C	-0.868744	-0.468838	0.000044
C66	C	-0.368744	0.031162	0.500044
C67	C	-0.870947	-0.338080	0.000035
C68	C	-0.370947	0.161920	0.500035
C69	C	-0.795117	-0.511708	0.000055
C70	C	-0.295117	-0.011708	0.500055
C71	C	-0.723701	-0.423819	0.000054
C72	C	-0.223701	0.076181	0.500054
C73	C	-0.725909	-0.293054	0.000051
C74	C	-0.225909	0.206946	0.500051
C75	C	-0.799533	-0.250191	0.000041
C76	C	-0.299533	0.249809	0.500041
C77	C	-0.088018	0.049742	0.000026
C78	C	0.411982	0.549742	0.500026
C79	C	-0.176501	0.043035	0.000015
C80	C	0.323499	0.543035	0.500015
C81	C	-0.937816	0.304104	0.000034
C82	C	-0.437816	0.804104	0.500034
C83	C	-0.940158	0.443273	0.000038
C84	C	-0.440158	0.943273	0.500038
N85	N	-0.933416	0.060988	-0.205273
N86	N	-0.433416	0.560988	0.294727
C87	C	-0.980192	0.129257	-0.250660
C88	C	-0.480192	0.629257	0.249340
C89	C	-0.976248	0.123482	-0.341469
C90	C	-0.476248	0.623482	0.158531
C91	C	-0.925524	0.049444	-0.386888
C92	C	-0.425524	0.549444	0.113112
C93	C	-0.878747	-0.018833	-0.341495
C94	C	-0.378747	0.481167	0.158505
C95	C	-0.882696	-0.013065	-0.250688
C96	C	-0.382696	0.486935	0.249312
C97	C	-0.908493	0.024555	-0.658472
C98	C	-0.408493	0.524555	-0.158472
C99	C	-0.904546	0.018795	-0.749285
C100	C	-0.404546	0.518795	-0.249285
C101	C	-1.002048	0.161109	-0.749253
C102	C	-0.502048	0.661109	-0.249253
C103	C	-1.005989	0.166877	-0.658445
C104	C	-0.505989	0.666877	-0.158445
C105	C	-0.959215	0.098595	-0.613059
C106	C	-0.459215	0.598595	-0.113059
N107	N	-0.921490	0.043543	-0.479709
N108	N	-0.421490	0.543543	0.020291
N109	N	-0.963253	0.104490	-0.520240
N110	N	-0.463253	0.604490	-0.020240
N111	N	-0.951321	0.087064	0.205327
N112	N	-0.451321	0.587064	0.705327
H113	H	-0.716584	-0.103617	0.000010
H114	H	-0.216584	0.396383	0.500010
H115	H	-1.047295	0.227163	-0.621470
H116	H	-0.547295	0.727163	-0.121470
H117	H	-0.351136	-0.178234	0.000000
H118	H	0.148864	0.321766	0.500000
H119	H	-1.216970	-0.630437	0.000015
H120	H	-0.716970	-0.130437	0.500015
O121	O	-1.034896	0.209125	-0.201676
O122	O	-0.534896	0.709125	0.298324
H123	H	-1.079190	0.147182	-0.160291
H124	H	-0.579190	0.647182	0.339709
H125	H	-0.168142	0.251687	0.000020
H126	H	0.331858	0.751687	0.500020
O127	O	-0.644295	-0.470053	0.000059
O128	O	-0.144295	0.029947	0.500059
H129	H	-0.654759	-0.575743	0.000058
H130	H	-0.154759	-0.075743	0.500058
O131	O	-0.849832	-0.061064	-0.798275
O132	O	-0.349832	0.438936	-0.298275
H133	H	-0.885869	-0.135064	-0.839653
H134	H	-0.385869	0.364936	-0.339653
H135	H	-0.200301	-0.166780	0.000010
H136	H	0.299699	0.333220	0.500010
H137	H	-0.793327	-0.618180	0.000062
H138	H	-0.293327	-0.118180	0.500062
O139	O	-0.557107	-0.121806	-0.000001
O140	O	-0.057107	0.378194	0.499999
H141	H	-0.606144	-0.205252	-0.000019
H142	H	-0.106144	0.294748	0.499981
H143	H	-0.318966	0.240240	0.000042
H144	H	0.181034	0.740240	0.500042
O145	O	-1.091981	-0.199195	0.000001
O146	O	-0.591981	0.300805	0.500001
H147	H	-1.126434	-0.170679	0.058795
H148	H	-0.626434	0.329321	0.558795
H149	H	-1.014339	0.179072	-0.378419
H150	H	-0.514339	0.679072	0.121581
O151	O	-0.520267	0.357622	0.000027
O152	O	-0.020267	0.857622	0.500027
H153	H	-0.456960	0.343169	0.000012
H154	H	0.043040	0.843169	0.500012
O155	O	-0.801912	-0.109158	0.000039
O156	O	-0.301912	0.390842	0.500039
H157	H	-0.865105	-0.094118	0.000038
H158	H	-0.365105	0.405882	0.500038
O159	O	-1.240434	-0.381884	-0.000003
O160	O	-0.740434	0.118116	0.499997
H161	H	-1.229974	-0.276196	-0.000012
H162	H	-0.729974	0.223804	0.499988
O163	O	-0.824048	-0.098705	-0.390483
O164	O	-0.324048	0.401295	0.109517
H165	H	-0.792194	-0.145223	-0.343664
H166	H	-0.292194	0.354777	0.156336
O167	O	-0.858027	-0.049066	-0.609532
O168	O	-0.358027	0.450934	-0.109532
H169	H	-0.869293	-0.032627	-0.538757
H170	H	-0.369293	0.467373	-0.038757
O171	O	-1.082813	-0.742780	0.000026
O172	O	-0.582813	-0.242780	0.500026
H173	H	-1.116110	-0.783233	0.058821
H174	H	-0.616110	-0.283233	0.558821
O175	O	-1.052511	0.234730	-0.798202
O176	O	-0.552511	0.734730	-0.298202
H177	H	-1.041255	0.218271	-0.868976
H178	H	-0.541255	0.718271	-0.368976
O179	O	-0.832242	-0.086689	-0.201727
O180	O	-0.332242	0.413311	0.298273
H181	H	-0.796300	-0.139132	-0.248564
H182	H	-0.296300	0.360868	0.251436
H183	H	-0.667755	-0.221499	0.000059
H184	H	-0.167755	0.278501	0.500059
H185	H	-0.684424	0.314855	0.000035
H186	H	-0.184424	0.814855	0.500035
