data_functionalizedCrystal
_audit_creation_method	'MofGen! by Chris Wilmer'
_symmetry_space_group_name_H-M	'P1'
_symmetry_Int_Tables_number	1
_symmetry_cell_setting	triclinic
loop_
_symmetry_equiv_pos_as_xyz
  x,y,z
_cell_length_a	11.792241
_cell_length_b	11.792254
_cell_length_c	14.586319
_cell_angle_alpha	89.996031
_cell_angle_beta	90.000696
_cell_angle_gamma	84.196007
loop_
_atom_site_label
_atom_site_type_symbol
_atom_site_fract_x
_atom_site_fract_y
_atom_site_fract_z
O1	O	1.506914	0.155566	-0.076152
O2	O	1.176574	0.171598	-0.076173
O3	O	1.349753	-0.001588	-0.076155
O4	O	1.333735	0.328752	-0.076169
O5	O	1.349741	-0.001590	0.076325
O6	O	1.176562	0.171596	0.076308
O7	O	1.506902	0.155563	0.076329
Cu8	Cu	1.341731	0.163579	0.090241
Cu9	Cu	1.341745	0.163582	-0.090085
O10	O	1.333723	0.328749	0.076311
C11	C	1.348738	-0.043880	0.000085
C12	C	1.345718	-0.169893	0.000084
C13	C	1.134277	0.170590	0.000065
C14	C	1.008263	0.167576	0.000057
C15	C	1.343264	-0.272229	0.000080
C16	C	1.340196	-0.400616	0.000072
C17	C	0.777551	0.162033	0.000083
C18	C	0.905936	0.165112	0.000069
C19	C	1.549199	0.156571	0.000089
C20	C	1.675213	0.159586	0.000091
C21	C	1.334738	0.371041	0.000069
C22	C	1.337758	0.497054	0.000064
N23	N	1.341729	0.163576	0.217073
N24	N	1.341756	0.163576	-0.216917
C25	C	1.418439	0.086915	0.452087
C26	C	1.418442	0.086913	0.548068
C27	C	1.265038	0.240240	0.548062
C28	C	1.265031	0.240237	0.452083
C29	C	1.341737	0.163576	0.404098
C30	C	1.341748	0.163577	0.596058
C31	C	1.341751	0.163574	0.700125
C32	C	1.341733	0.163576	0.300024
H33	H	1.480898	0.024488	0.587139
N34	N	1.182309	0.322922	0.599817
H35	H	1.193953	0.311295	0.667903
H36	H	1.195914	0.403529	0.583032
N37	N	1.182288	0.322922	0.400322
H38	H	1.195853	0.403569	0.417014
H39	H	1.193956	0.311186	0.332255
N40	N	1.501166	0.004234	0.400330
H41	H	1.549754	-0.044331	0.445299
H42	H	1.457402	-0.046236	0.360512
