data_functionalizedCrystal
_audit_creation_method	'MofGen! by Chris Wilmer'
_symmetry_space_group_name_H-M	'P1'
_symmetry_Int_Tables_number	1
_symmetry_cell_setting	triclinic
loop_
_symmetry_equiv_pos_as_xyz
  x,y,z
_cell_length_a	11.026607
_cell_length_b	9.730217
_cell_length_c	11.026607
_cell_angle_alpha	89.998291
_cell_angle_beta	71.413983
_cell_angle_gamma	90.000989
loop_
_atom_site_label
_atom_site_type_symbol
_atom_site_fract_x
_atom_site_fract_y
_atom_site_fract_z
O1	O	1.726727	0.114287	-0.533620
O2	O	1.360147	0.114289	-0.472857
O3	O	1.513056	0.114283	-0.319948
O4	O	1.573819	0.114292	-0.686528
O5	O	1.513049	-0.114297	-0.319945
O6	O	1.360141	-0.114291	-0.472854
O7	O	1.726721	-0.114293	-0.533617
Zn8	Zn	1.543430	-0.150584	-0.503235
Zn9	Zn	1.543438	0.150580	-0.503239
O10	O	1.573813	-0.114288	-0.686525
C11	C	1.312485	-0.000001	-0.461645
C12	C	1.170471	-0.000000	-0.428228
N13	N	1.543434	-0.356121	-0.503233
C14	C	1.116821	0.000003	-0.520498
C15	C	0.970043	0.000004	-0.485962
C16	C	1.678915	-0.356117	-0.367898
C17	C	1.746665	-0.428055	-0.300236
C18	C	1.746678	-0.571934	-0.300238
C19	C	1.678930	-0.643880	-0.367907
C20	C	1.611180	-0.571942	-0.435569
C21	C	1.611178	-0.428059	-0.435562
C22	C	1.475693	-0.571946	-0.570895
C23	C	1.475686	-0.428066	-0.570902
C24	C	1.407945	-0.643891	-0.638563
C25	C	1.340201	-0.571953	-0.706234
C26	C	1.340192	-0.428065	-0.706230
C27	C	1.407936	-0.356128	-0.638564
C28	C	1.774384	-0.000001	-0.544828
C29	C	1.916398	0.000007	-0.578245
C30	C	1.501843	-0.000005	-0.272287
C31	C	1.468426	-0.000000	-0.130273
N32	N	1.543443	0.356116	-0.503233
C33	C	1.585026	0.000004	-0.734187
C34	C	1.618443	0.000008	-0.876200
C35	C	1.560695	0.000001	-0.076624
C36	C	1.526160	0.000006	0.070155
H37	H	1.179555	-0.000002	-0.625061
H38	H	1.665258	-0.000008	-0.139357
N39	N	1.756959	-0.000010	0.040721
H40	H	1.813788	-0.000011	0.096691
H41	H	1.774840	0.084724	-0.015092
N42	N	0.886953	0.000002	-0.347450
H43	H	0.905659	0.084735	-0.303566
H44	H	0.905693	-0.084790	-0.303670
H45	H	1.421590	0.000016	0.132884
H46	H	1.407952	-0.761046	-0.638555
H47	H	1.285039	-0.630540	-0.761318
H48	H	1.678932	-0.761034	-0.367891
N49	N	1.329916	0.000014	-0.047192
H50	H	1.324878	0.000019	0.045885
H51	H	1.286109	-0.084724	-0.065999
N52	N	1.267106	-0.350478	-0.779197
H53	H	1.224192	-0.417892	-0.822057
H54	H	1.328184	-0.290773	-0.846228
N55	N	1.678902	-0.200933	-0.367915
H56	H	1.769535	-0.166267	-0.405431
H57	H	1.641405	-0.166382	-0.277247
N58	N	1.087379	-0.000016	-0.289722
H59	H	1.031563	0.084716	-0.271735
H60	H	1.143429	-0.000073	-0.232975
N61	N	0.999472	-0.000002	-0.716763
H62	H	1.092550	-0.000005	-0.721804
H63	H	0.980662	0.084736	-0.760568
N64	N	1.819697	-0.350460	-0.227217
H65	H	1.809404	-0.248396	-0.237471
H66	H	1.913326	-0.375584	-0.261723
H67	H	1.801840	-0.630506	-0.245137
H68	H	1.407940	-0.238974	-0.638560
