data_functionalizedCrystal
_audit_creation_method	'MofGen! by Chris Wilmer'
_symmetry_space_group_name_H-M	'P1'
_symmetry_Int_Tables_number	1
_symmetry_cell_setting	triclinic
loop_
_symmetry_equiv_pos_as_xyz
  x,y,z
_cell_length_a	16.109301
_cell_length_b	16.109301
_cell_length_c	7.540329
_cell_angle_alpha	89.994987
_cell_angle_beta	89.999404
_cell_angle_gamma	83.461532
loop_
_atom_site_label
_atom_site_type_symbol
_atom_site_fract_x
_atom_site_fract_y
_atom_site_fract_z
O1	O	1.103130	0.106867	-0.147391
O2	O	1.436463	0.440200	0.185943
O3	O	1.769797	0.773534	0.519276
O4	O	0.861068	0.120166	-0.147416
O5	O	1.194401	0.453499	0.185917
O6	O	1.527735	0.786833	0.519250
O7	O	0.988749	-0.007515	-0.147385
O8	O	1.322082	0.325819	0.185949
O9	O	1.655415	0.659152	0.519282
O10	O	0.975449	0.234547	-0.147422
O11	O	1.308783	0.567881	0.185911
O12	O	1.642116	0.901214	0.519244
O13	O	0.988741	-0.007516	0.147580
O14	O	1.322074	0.325817	0.480914
O15	O	1.655408	0.659151	0.814247
O16	O	0.861060	0.120164	0.147549
O17	O	1.194394	0.453498	0.480882
O18	O	1.527727	0.786831	0.814215
O19	O	1.103122	0.106865	0.147574
O20	O	1.436456	0.440199	0.480908
O21	O	1.769789	0.773532	0.814241
Cu22	Cu	0.982091	0.113515	0.174494
Cu23	Cu	1.315424	0.446848	0.507828
Cu24	Cu	1.648757	0.780181	0.841161
Cu25	Cu	0.982100	0.113517	-0.174336
Cu26	Cu	1.315433	0.446850	0.158997
Cu27	Cu	1.648766	0.780183	0.492331
O28	O	0.975442	0.234546	0.147543
O29	O	1.308775	0.567879	0.480876
O30	O	1.642108	0.901213	0.814210
C31	C	0.830089	0.119627	0.000063
C32	C	1.163423	0.452960	0.333396
C33	C	1.496756	0.786293	0.666730
C34	C	0.737794	0.118011	0.000054
C35	C	1.071127	0.451345	0.333387
C36	C	1.404461	0.784678	0.666721
C37	C	0.428796	0.188494	0.000074
C38	C	0.762129	0.521828	0.333407
C39	C	1.095463	0.855161	0.666741
C40	C	0.515516	0.190020	0.000063
C41	C	0.848849	0.523353	0.333397
C42	C	1.182183	0.856686	0.666730
C43	C	0.535389	0.038531	0.000063
C44	C	0.868723	0.371864	0.333397
C45	C	1.202056	0.705198	0.666730
C46	C	0.448671	0.037007	0.000061
C47	C	0.782004	0.370340	0.333394
C48	C	1.115337	0.703673	0.666728
C49	C	0.395376	0.111991	0.000075
C50	C	0.728709	0.445324	0.333409
C51	C	1.062042	0.778657	0.666742
C52	C	0.568815	0.115041	0.000067
C53	C	0.902148	0.448374	0.333400
C54	C	1.235481	0.781707	0.666734
C55	C	0.662841	0.116694	0.000056
C56	C	0.996174	0.450027	0.333389
C57	C	1.329507	0.783361	0.666722
C58	C	0.301344	0.110338	0.000084
C59	C	0.634677	0.443671	0.333417
C60	C	0.968010	0.777004	0.666750
C61	C	0.988206	-0.038490	0.000099
C62	C	1.321540	0.294843	0.333432
C63	C	1.654873	0.628177	0.666765
C64	C	0.986591	-0.130785	0.000101
C65	C	1.319924	0.202548	0.333434
C66	C	1.653258	0.535881	0.666768
C67	C	1.058599	-0.353058	0.000081
C68	C	1.391932	-0.019724	0.333414
C69	C	1.725265	0.313609	0.666747
C70	C	1.057075	-0.439778	0.000066
C71	C	1.390408	-0.106445	0.333399
C72	C	1.723741	0.226888	0.666732
C73	C	0.905586	-0.419904	0.000057
C74	C	1.238919	-0.086571	0.333390
C75	C	1.572253	0.246763	0.666723
C76	C	0.907111	-0.333185	0.000059
C77	C	1.240444	0.000148	0.333392
C78	C	1.573778	0.333481	0.666725
C79	C	0.983620	-0.299765	0.000080
C80	C	1.316953	0.033569	0.333413
C81	C	1.650286	0.366902	0.666746
C82	C	0.980571	-0.473204	0.000063
C83	C	1.313904	-0.139871	0.333396
C84	C	1.647237	0.193463	0.666730
C85	C	0.978918	-0.567230	0.000047
C86	C	1.312251	-0.233897	0.333380
C87	C	1.645584	0.099437	0.666714
C88	C	0.985273	-0.205733	0.000092
C89	C	1.318607	0.127601	0.333426
C90	C	1.651940	0.460934	0.666759
C91	C	1.134101	0.107405	0.000091
C92	C	1.467434	0.440738	0.333424
C93	C	1.800768	0.774072	0.666758
C94	C	1.226396	0.109020	0.000089
C95	C	1.559730	0.442353	0.333422
C96	C	1.893063	0.775687	0.666755
C97	C	0.975984	0.265522	0.000056
C98	C	1.309318	0.598855	0.333389
C99	C	1.642651	0.932188	0.666722
C100	C	0.977599	0.357817	0.000042
C101	C	1.310933	0.691150	0.333375
C102	C	1.644266	1.024484	0.666708
N103	N	0.982091	0.113513	0.419843
N104	N	1.315424	0.446846	0.753176
N105	N	1.648757	0.780180	1.086509
N106	N	0.982107	0.113512	-0.419685
N107	N	1.315440	0.446845	-0.086351
N108	N	1.648773	0.780178	0.246982
H109	H	0.421461	-0.025296	0.000057
H110	H	0.754794	0.308038	0.333390
H111	H	1.088127	0.641371	0.666723
H112	H	0.846050	-0.289791	0.000053
H113	H	1.179383	0.043542	0.333386
H114	H	1.512717	0.376875	0.666719
O115	O	1.141114	-0.317006	0.000067
O116	O	1.474448	0.016327	0.333400
O117	O	1.807781	0.349660	0.666734
H118	H	1.192995	-0.368637	0.000042
H119	H	1.526328	-0.035304	0.333375
H120	H	1.859662	0.298029	0.666709
H121	H	0.578792	-0.022518	0.000056
H122	H	0.912126	0.310815	0.333389
H123	H	1.245459	0.644148	0.666722
H124	H	0.542722	0.252317	0.000061
H125	H	0.876055	0.585650	0.333394
H126	H	1.209389	0.918983	0.666727
O127	O	1.137944	-0.497262	0.000089
O128	O	1.471277	-0.163929	0.333423
O129	O	1.804611	0.169405	0.666756
H130	H	1.191398	-0.459450	0.000121
H131	H	1.524731	-0.126117	0.333455
H132	H	1.858064	0.207217	0.666788
H133	H	0.843295	-0.447126	0.000043
H134	H	1.176628	-0.113793	0.333376
H135	H	1.509962	0.219541	0.666710
H136	H	0.385405	0.249551	0.000084
H137	H	0.718738	0.582885	0.333418
H138	H	1.052072	0.916218	0.666751
