data_functionalizedCrystal
_audit_creation_method	'MofGen! by Chris Wilmer'
_symmetry_space_group_name_H-M	'P1'
_symmetry_Int_Tables_number	1
_symmetry_cell_setting	triclinic
loop_
_symmetry_equiv_pos_as_xyz
  x,y,z
_cell_length_a	15.538191
_cell_length_b	27.732048
_cell_length_c	14.185569
_cell_angle_alpha	76.951782
_cell_angle_beta	97.875798
_cell_angle_gamma	64.957374
loop_
_atom_site_label
_atom_site_type_symbol
_atom_site_fract_x
_atom_site_fract_y
_atom_site_fract_z
O1	O	1.230624	-0.142649	-0.083403
O2	O	1.730624	0.357351	0.416597
O3	O	0.955548	-0.086692	-0.083413
O4	O	1.455548	0.413308	0.416587
O5	O	1.101634	-0.186537	-0.083389
O6	O	1.601634	0.313463	0.416611
O7	O	1.084538	-0.042804	-0.083428
O8	O	1.584538	0.457196	0.416572
O9	O	1.144789	-0.216030	0.083453
O10	O	1.644789	0.283970	0.583453
O11	O	0.998703	-0.116185	0.083429
O12	O	1.498703	0.383815	0.583429
O13	O	1.273779	-0.172142	0.083438
O14	O	1.773779	0.327858	0.583438
Cu15	Cu	1.140181	-0.146856	0.098667
Cu16	Cu	1.640181	0.353144	0.598667
Cu17	Cu	1.089145	-0.111978	-0.098642
Cu18	Cu	1.589145	0.388022	0.401358
O19	O	1.127693	-0.072297	0.083414
O20	O	1.627693	0.427703	0.583414
C21	C	0.941944	-0.095584	0.000007
C22	C	1.441944	0.404416	0.500007
C23	C	0.837116	-0.078145	0.000004
C24	C	1.337116	0.421855	0.500004
C25	C	0.551856	-0.251395	0.000035
C26	C	1.051856	0.248605	0.500035
C27	C	0.453350	-0.234996	0.000030
C28	C	0.953350	0.265004	0.500030
C29	C	0.429558	-0.142756	0.000005
C30	C	0.929558	0.357244	0.500005
C31	C	0.528065	-0.159148	0.000015
C32	C	1.028065	0.340852	0.500015
C33	C	0.589206	-0.213468	0.000029
C34	C	1.089206	0.286532	0.500029
C35	C	0.565415	-0.121222	0.000009
C36	C	1.065415	0.378778	0.500009
C37	C	0.663913	-0.137612	0.000014
C38	C	1.163913	0.362388	0.500014
C39	C	0.725059	-0.191928	0.000025
C40	C	1.225059	0.308072	0.500025
C41	C	0.687703	-0.229858	0.000034
C42	C	1.187703	0.270142	0.500034
C43	C	0.504271	-0.066901	-0.000012
C44	C	1.004271	0.433099	0.499988
C45	C	0.541621	-0.028974	-0.000018
C46	C	1.041621	0.471026	0.499982
C47	C	0.640122	-0.045365	-0.000006
C48	C	1.140122	0.454635	0.499994
C49	C	0.701268	-0.099682	0.000005
C50	C	1.201268	0.400318	0.500005
C51	C	0.677478	-0.007436	-0.000015
C52	C	1.177478	0.492564	0.499985
C53	C	0.775975	-0.023826	-0.000010
C54	C	1.275975	0.476174	0.499990
C55	C	0.799766	-0.116072	0.000010
C56	C	1.299766	0.383928	0.500010
C57	C	1.122854	-0.219229	0.000035
C58	C	1.622854	0.280771	0.500035
C59	C	1.121776	-0.272700	0.000043
C60	C	1.621776	0.227300	0.500043
C61	C	1.201288	-0.625155	-0.000006
C62	C	1.701288	-0.125155	0.499994
C63	C	1.197277	-0.826124	-0.000020
C64	C	1.697277	-0.326124	0.499980
O65	O	1.269986	-0.869853	-0.000061
O66	O	1.769986	-0.369853	0.499939
N67	N	1.110657	-0.830382	-0.000022
N68	N	1.610657	-0.330382	0.499978
C69	C	1.025032	-0.784391	-0.000027
C70	C	1.525032	-0.284391	0.499973
O71	O	0.951262	-0.792622	-0.000040
O72	O	1.451262	-0.292622	0.499960
C73	C	1.029042	-0.583422	-0.000020
C74	C	1.529042	-0.083422	0.499980
C75	C	1.115670	-0.579170	-0.000008
C76	C	1.615670	-0.079170	0.499992
C77	C	1.287908	-0.620901	0.000005
C78	C	1.787908	-0.120901	0.500005
C79	C	1.288912	-0.570663	0.000014
C80	C	1.788912	-0.070663	0.500014
C81	C	1.203294	-0.524678	0.000012
C82	C	1.703294	-0.024678	0.500012
C83	C	1.116673	-0.528931	0.000001
C84	C	1.616673	-0.028931	0.500001
C85	C	0.943416	-0.537431	-0.000033
C86	C	1.443416	-0.037431	0.499967
C87	C	0.944426	-0.487187	-0.000033
C88	C	1.444426	0.012813	0.499967
C89	C	1.031054	-0.482935	-0.000021
C90	C	1.531054	0.017065	0.499979
C91	C	1.032059	-0.432708	0.000008
C92	C	1.532059	0.067292	0.500008
N93	N	1.118679	-0.428450	0.000010
N94	N	1.618679	0.071550	0.500010
C95	C	1.204296	-0.474435	0.000012
C96	C	1.704296	0.025565	0.500012
C97	C	1.022933	-0.889905	-0.000029
C98	C	1.522933	-0.389905	0.499971
C99	C	1.021931	-0.940147	-0.000029
C100	C	1.521931	-0.440147	0.499971
C101	C	1.194176	-0.981877	-0.000023
C102	C	1.694176	-0.481877	0.499977
C103	C	1.195179	-0.931634	-0.000016
C104	C	1.695179	-0.431634	0.499984
C105	C	1.109553	-0.885647	-0.000027
C106	C	1.609553	-0.385647	0.499973
C107	C	1.206397	-0.368929	0.000032
C108	C	1.706397	0.131071	0.500032
C109	C	1.207393	-0.318685	0.000045
C110	C	1.707393	0.181315	0.500045
C111	C	1.035148	-0.276959	0.000034
C112	C	1.535148	0.223041	0.500034
C113	C	1.034152	-0.327200	0.000027
C114	C	1.534152	0.172800	0.500027
C115	C	1.119783	-0.373185	0.000022
C116	C	1.619783	0.126815	0.500022
O117	O	0.959386	-0.388955	0.000038
O118	O	1.459386	0.111045	0.500038
O119	O	1.278050	-0.466190	0.000002
O120	O	1.778050	0.033810	0.500002
C121	C	1.200284	-0.675394	-0.000015
C122	C	1.700284	-0.175394	0.499985
C123	C	1.113664	-0.679647	-0.000026
C124	C	1.613664	-0.179647	0.499974
C125	C	1.028046	-0.633662	-0.000028
C126	C	1.528046	-0.133662	0.499972
C127	C	1.112661	-0.729890	-0.000026
C128	C	1.612661	-0.229890	0.499974
C129	C	1.198279	-0.775875	-0.000024
C130	C	1.698279	-0.275875	0.499976
C131	C	1.284899	-0.771617	-0.000022
C132	C	1.784899	-0.271617	0.499978
C133	C	1.285902	-0.721379	-0.000013
C134	C	1.785902	-0.221379	0.499987
C135	C	0.941426	-0.637919	-0.000030
C136	C	1.441426	-0.137919	0.499970
C137	C	0.940430	-0.688160	-0.000038
C138	C	1.440430	-0.188160	0.499962
C139	C	1.026048	-0.734145	-0.000036
C140	C	1.526048	-0.234145	0.499964
C141	C	1.287382	-0.163249	0.000016
C142	C	1.787382	0.336751	0.500016
C143	C	1.392208	-0.180687	0.000012
C144	C	1.892208	0.319313	0.500012
C145	C	1.106473	-0.039604	-0.000012
C146	C	1.606473	0.460396	0.499988
C147	C	1.107549	0.013868	-0.000027
C148	C	1.607549	0.513868	0.499973
N149	N	1.176084	-0.171389	0.237444
N150	N	1.676084	0.328611	0.737444
N151	N	1.053250	-0.087450	-0.237419
N152	N	1.553250	0.412550	0.262581
C153	C	0.947768	-0.015393	0.605056
C154	C	1.447768	0.484607	1.105056
C155	C	0.974970	-0.033974	0.710083
C156	C	1.474970	0.466026	1.210083
C157	C	1.104355	-0.122366	0.710065
C158	C	1.604355	0.377634	1.210065
C159	C	1.077161	-0.103793	0.605037
C160	C	1.577161	0.396207	1.105037
C161	C	0.998867	-0.050306	0.552541
C162	C	1.498867	0.449694	1.052541
C163	C	1.128260	-0.138707	0.552521
C164	C	1.628260	0.361293	1.052521
C165	C	1.101070	-0.120134	0.447502
C166	C	1.601070	0.379866	0.947502
C167	C	1.022782	-0.066648	0.394999
C168	C	1.522782	0.433352	0.894999
C169	C	0.971678	-0.031733	0.447522
C170	C	1.471678	0.468267	0.947522
C171	C	1.206558	-0.192193	0.605019
C172	C	1.706558	0.307807	1.105019
C173	C	1.257657	-0.227106	0.552503
C174	C	1.757657	0.272894	1.052503
C175	C	1.230463	-0.208535	0.447482
C176	C	1.730463	0.291465	0.947482
C177	C	1.152174	-0.155049	0.394979
C178	C	1.652174	0.344951	0.894979
C179	C	1.281567	-0.243450	0.394959
C180	C	1.781567	0.256550	0.894959
C181	C	1.254378	-0.224877	0.289940
C182	C	1.754378	0.275123	0.789940
C183	C	1.124985	-0.136476	0.289960
C184	C	1.624985	0.363524	0.789960
H185	H	0.424068	-0.053557	-0.000019
H186	H	0.924068	0.446443	0.499981
H187	H	0.422944	-0.265884	0.000033
H188	H	0.922944	0.234116	0.500033
H189	H	1.295989	-0.253307	0.247182
H190	H	1.795989	0.246693	0.747182
H191	H	0.849553	-0.160306	0.000027
H192	H	1.349553	0.339694	0.500027
H193	H	0.965441	-0.239510	0.000036
H194	H	1.465441	0.260490	0.500036
N195	N	0.863313	0.042296	0.548429
N196	N	1.363313	0.542296	1.048429
H197	H	0.878407	0.071558	0.566693
H198	H	1.378407	0.571558	1.066693
H199	H	0.853886	0.048710	0.473950
H200	H	1.353886	0.548710	0.973950
H201	H	0.933353	-0.005538	0.752836
H202	H	1.433353	0.494462	1.252836
H203	H	0.627680	0.036793	-0.000036
H204	H	1.127680	0.536793	0.499964
N205	N	1.188801	-0.180053	0.766688
N206	N	1.688801	0.319947	1.266688
H207	H	1.198275	-0.186522	0.841186
H208	H	1.698275	0.313478	1.341186
H209	H	1.173642	-0.209276	0.748341
H210	H	1.673642	0.290724	1.248341
N211	N	1.342093	-0.284797	0.609122
N212	N	1.842093	0.215203	1.109122
H213	H	1.404301	-0.287722	0.590827
H214	H	1.904301	0.212278	1.090827
H215	H	1.351481	-0.291232	0.683603
H216	H	1.851481	0.208768	1.183603
H217	H	1.277940	-0.315230	0.000058
H218	H	1.777940	0.184770	0.500058
N219	N	1.288610	-0.927049	-0.000010
N220	N	1.788610	-0.427049	0.499990
H221	H	1.308865	-0.918072	0.061839
H222	H	1.808865	-0.418072	0.561839
H223	H	1.342627	-0.963819	-0.000043
H224	H	1.842627	-0.463819	0.499957
N225	N	0.849082	-0.588325	-0.000019
N226	N	1.349082	-0.088325	0.499981
H227	H	0.829649	-0.555607	-0.061862
H228	H	1.329649	-0.055607	0.438138
H229	H	0.794126	-0.598700	0.000017
H230	H	1.294126	-0.098700	0.500017
H231	H	1.276125	-0.406366	0.000024
H232	H	1.776125	0.093634	0.500024
H233	H	0.805258	-0.205270	0.000015
H234	H	1.305258	0.294730	0.500015
N235	N	1.377241	-0.821220	-0.000029
N236	N	1.877241	-0.321220	0.499971
H237	H	1.432275	-0.810907	-0.000025
H238	H	1.932275	-0.310907	0.499975
H239	H	1.396571	-0.853914	0.061818
H240	H	1.896571	-0.353914	0.561818
H241	H	1.345321	-0.286998	0.437715
H242	H	1.845321	0.213002	0.937715
H243	H	1.061224	-0.092923	0.247216
H244	H	1.561224	0.407077	0.747216
N245	N	0.363610	-0.084170	-0.000015
N246	N	0.863610	0.415830	0.499985
H247	H	0.295543	-0.079540	-0.000019
H248	H	0.795543	0.420460	0.499981
H249	H	0.391629	-0.077829	0.061834
H250	H	0.891629	0.422171	0.561834
N251	N	0.846987	-0.692737	-0.000039
N252	N	1.346987	-0.192737	0.499961
H253	H	0.793519	-0.663929	-0.061889
H254	H	1.293519	-0.163929	0.438111
H255	H	0.859415	-0.731557	-0.000006
H256	H	1.359415	-0.231557	0.499994
H257	H	0.491826	0.015254	-0.000033
H258	H	0.991826	0.515254	0.499967
H259	H	1.356443	-0.717924	-0.000003
H260	H	1.856443	-0.217924	0.499997
N261	N	0.993442	-0.046607	0.281728
N262	N	1.493442	0.453393	0.781728
H263	H	1.050943	-0.046316	0.256408
H264	H	1.550943	0.453684	0.756408
H265	H	0.973614	-0.072665	0.256516
H266	H	1.473614	0.427335	0.756516
N267	N	1.286519	-1.031482	-0.000020
N268	N	1.786519	-0.531482	0.499980
H269	H	1.273932	-1.042317	-0.061870
H270	H	1.773932	-0.542317	0.438130
H271	H	1.341509	-1.021132	0.000016
H272	H	1.841509	-0.521132	0.500016
H273	H	0.737490	-0.274092	0.000051
H274	H	1.237490	0.225908	0.500051
N275	N	0.816268	0.017079	-0.000021
N276	N	1.316268	0.517079	0.499979
H277	H	0.762591	0.053976	-0.000027
H278	H	1.262591	0.553976	0.499973
H279	H	0.872616	0.001353	0.061830
H280	H	1.372616	0.501353	0.561830
H281	H	1.359452	-0.567207	0.000020
H282	H	1.859452	-0.067207	0.500020
H283	H	0.907917	0.011820	0.404778
H284	H	1.407917	0.511820	0.904778
H285	H	0.601643	-0.295628	0.000052
H286	H	1.101643	0.204372	0.500052
N287	N	1.380261	-0.670497	0.000009
N288	N	1.880261	-0.170497	0.500009
H289	H	1.435278	-0.660169	0.000017
H290	H	1.935278	-0.160169	0.500017
H291	H	1.399598	-0.703188	0.061863
H292	H	1.899598	-0.203188	0.561863
N293	N	0.928504	-0.944735	-0.000015
N294	N	1.428504	-0.444735	0.499985
H295	H	0.874423	-0.907977	-0.000016
H296	H	1.374423	-0.407977	0.499984
H297	H	0.908330	-0.953734	-0.061863
H298	H	1.408330	-0.453734	0.438137
N299	N	1.235882	-0.212224	0.718290
N300	N	1.735882	0.287776	1.218290
H301	H	1.229186	-0.247221	0.743596
H302	H	1.729186	0.252779	1.243596
H303	H	1.306475	-0.220846	0.743488
H304	H	1.806475	0.279154	1.243488
H305	H	0.953202	-0.852463	-0.000037
H306	H	1.453202	-0.352463	0.499963
H307	H	0.872873	-0.540880	-0.000049
H308	H	1.372873	-0.040880	0.499951
H309	H	0.963620	-0.330666	0.000044
H310	H	1.463620	0.169334	0.500044
N311	N	0.852069	-0.437585	-0.000049
N312	N	1.352069	0.062415	0.499951
H313	H	0.797045	-0.447907	-0.000058
H314	H	1.297045	0.052093	0.499942
H315	H	0.864724	-0.426768	0.061803
H316	H	1.364724	0.073232	0.561803
