data_functionalizedCrystal
_audit_creation_method	'MofGen! by Chris Wilmer'
_symmetry_space_group_name_H-M	'P1'
_symmetry_Int_Tables_number	1
_symmetry_cell_setting	triclinic
loop_
_symmetry_equiv_pos_as_xyz
  x,y,z
_cell_length_a	17.038272
_cell_length_b	17.019294
_cell_length_c	12.996460
_cell_angle_alpha	93.879262
_cell_angle_beta	90.000822
_cell_angle_gamma	87.244363
loop_
_atom_site_label
_atom_site_type_symbol
_atom_site_fract_x
_atom_site_fract_y
_atom_site_fract_z
O1	O	1.037223	0.171281	0.100612
O2	O	1.537223	0.671281	0.600612
O3	O	0.809595	0.168561	0.100401
O4	O	1.309595	0.668561	0.600401
O5	O	0.929759	0.055515	0.090364
O6	O	1.429759	0.555515	0.590364
O7	O	0.917059	0.284327	0.110649
O8	O	1.417059	0.784327	0.610649
O9	O	0.929743	0.055521	-0.080769
O10	O	1.429743	0.555521	0.419231
O11	O	0.809580	0.168567	-0.070732
O12	O	1.309580	0.668567	0.429268
O13	O	1.037208	0.171287	-0.070521
O14	O	1.537208	0.671287	0.429479
Cu15	Cu	0.923392	0.169927	-0.086252
Cu16	Cu	1.423392	0.669927	0.413748
Cu17	Cu	0.923411	0.169920	0.116132
Cu18	Cu	1.423411	0.669920	0.616132
O19	O	0.917044	0.284333	-0.060484
O20	O	1.417044	0.784333	0.439516
C21	C	0.780461	0.166090	0.014619
C22	C	1.280461	0.666090	0.514619
C23	C	0.693674	0.158710	0.013977
C24	C	1.193674	0.658710	0.513977
C25	C	0.929269	0.026096	0.002191
C26	C	1.429269	0.526096	0.502191
C27	C	0.927824	-0.061571	-0.005573
C28	C	1.427824	0.438429	0.494427
C29	C	0.643503	0.226470	0.019983
C30	C	1.143503	0.726470	0.519983
C31	C	0.561958	0.219530	0.019354
C32	C	1.061958	0.719530	0.519354
C33	C	0.530587	0.144830	0.012725
C34	C	1.030587	0.644830	0.512725
C35	C	0.580765	0.077065	0.006715
C36	C	1.080765	0.577065	0.506715
C37	C	0.662308	0.084005	0.007338
C38	C	1.162308	0.584005	0.507338
C39	C	0.284850	0.120313	0.010524
C40	C	0.784850	0.620313	0.510524
C41	C	0.203300	0.113378	0.009906
C42	C	0.703300	0.613378	0.509906
C43	C	0.184499	0.255843	0.022542
C44	C	0.684499	0.755843	0.522542
C45	C	0.266044	0.262777	0.023170
C46	C	0.766044	0.762777	0.523170
C47	C	0.316215	0.195012	0.017155
C48	C	0.816215	0.695012	0.517155
C49	C	0.447235	0.137736	0.012085
C50	C	0.947235	0.637736	0.512085
C51	C	0.399565	0.202107	0.017788
C52	C	0.899565	0.702107	0.517788
C53	C	0.927156	-0.102755	0.084063
C54	C	1.427156	0.397245	0.584063
C55	C	0.925793	-0.185128	0.076764
C56	C	1.425793	0.314872	0.576764
C57	C	0.925105	-0.226314	-0.020172
C58	C	1.425105	0.273686	0.479828
C59	C	0.925771	-0.185123	-0.109815
C60	C	1.425771	0.314877	0.390185
C61	C	0.927128	-0.102752	-0.102515
C62	C	1.427128	0.397248	0.397485
C63	C	0.921002	-0.475020	-0.046881
C64	C	1.421002	0.024980	0.453119
C65	C	0.919647	-0.557397	-0.054174
C66	C	1.419647	-0.057397	0.445826
C67	C	0.919668	-0.557396	0.132406
C68	C	1.419668	-0.057396	0.632406
C69	C	0.921030	-0.475024	0.139698
C70	C	1.421030	0.024976	0.639698
C71	C	0.921692	-0.433840	0.050055
C72	C	1.421692	0.066160	0.550055
C73	C	0.923714	-0.310511	-0.027635
C74	C	1.423714	0.189489	0.472365
C75	C	0.923076	-0.349644	0.057519
C76	C	1.423076	0.150356	0.557519
C77	C	1.066342	0.173757	0.015263
C78	C	1.566342	0.673757	0.515263
C79	C	1.153128	0.181138	0.015912
C80	C	1.653128	0.681138	0.515912
C81	C	0.917534	0.313751	0.027691
C82	C	1.417534	0.813751	0.527691
C83	C	0.918978	0.401418	0.035462
C84	C	1.418978	0.901418	0.535462
N85	N	0.923385	0.169932	-0.228599
N86	N	1.423385	0.669932	0.271401
C87	C	0.923389	0.169934	-0.321705
C88	C	1.423389	0.669934	0.178295
C89	C	0.923396	0.169929	-0.438510
C90	C	1.423396	0.669929	0.061490
C91	C	0.923406	0.169921	-0.531609
C92	C	1.423406	0.669921	-0.031609
C93	C	0.923414	0.169917	-0.648422
C94	C	1.423414	0.669917	-0.148422
N95	N	0.923424	0.169909	0.258479
N96	N	1.423424	0.669909	0.758479
H97	H	0.669038	0.287298	0.025382
H98	H	1.169038	0.787298	0.525382
H99	H	0.919127	-0.590937	0.205388
H100	H	1.419127	-0.090937	0.705388
C101	C	0.919073	-0.602160	-0.159404
C102	C	1.419073	-0.102160	0.340596
C103	C	0.985541	-0.653784	-0.169442
C104	C	1.485541	-0.153784	0.330558
C105	C	0.985053	-0.695021	-0.266368
C106	C	1.485053	-0.195021	0.233632
H107	H	0.873034	-0.631413	-0.165981
H108	H	1.373034	-0.131413	0.334019
H109	H	0.919707	-0.565857	-0.211772
H110	H	1.419707	-0.065857	0.288228
H111	H	0.984900	-0.690082	-0.117090
H112	H	1.484900	-0.190082	0.382910
H113	H	1.031590	-0.624551	-0.162885
H114	H	1.531590	-0.124551	0.337115
H115	H	0.985688	-0.658718	-0.318736
H116	H	1.485688	-0.158718	0.181264
H117	H	0.939012	-0.724270	-0.272936
H118	H	1.439012	-0.224270	0.227064
H119	H	1.030154	-0.730047	-0.273195
H120	H	1.530154	-0.230047	0.226805
H121	H	0.555216	0.016243	0.001304
H122	H	1.055216	0.516243	0.501304
H123	H	0.521111	0.274708	0.024246
H124	H	1.021111	0.774708	0.524246
H125	H	0.921557	-0.441499	-0.119874
H126	H	1.421557	0.058501	0.380126
H127	H	0.925206	-0.218663	-0.188743
H128	H	1.425206	0.281337	0.311257
C129	C	0.927881	-0.058178	-0.199956
C130	C	1.427881	0.441822	0.300044
C131	C	0.927003	-0.111876	-0.286412
C132	C	1.427003	0.388124	0.213588
C133	C	0.927697	-0.070845	-0.376194
C134	C	1.427697	0.429155	0.123806
H135	H	0.882850	-0.023092	-0.200852
H136	H	1.382850	0.476908	0.299148
H137	H	0.973992	-0.029014	-0.201324
H138	H	1.473992	0.470986	0.298676
H139	H	0.880898	-0.141027	-0.285045
H140	H	1.380898	0.358973	0.214955
H141	H	0.972031	-0.146964	-0.285550
H142	H	1.472031	0.353036	0.214450
H143	H	0.973808	-0.041680	-0.377562
H144	H	1.473808	0.458320	0.122438
H145	H	0.882665	-0.035760	-0.377080
H146	H	1.382665	0.464240	0.122920
H147	H	0.927109	-0.107273	-0.434865
H148	H	1.427109	0.392727	0.065135
H149	H	0.923156	-0.344054	-0.106561
H150	H	1.423156	0.155946	0.393439
H151	H	0.923632	-0.316106	0.136444
H152	H	1.423632	0.183894	0.636444
H153	H	0.921591	-0.441496	0.218633
H154	H	1.421591	0.058504	0.718633
H155	H	0.291580	0.323605	0.028580
H156	H	0.791580	0.823605	0.528580
C157	C	0.130157	0.329507	0.029124
C158	C	0.630157	0.829507	0.529124
C159	C	0.175084	0.396410	0.035087
C160	C	0.675084	0.896410	0.535087
C161	C	0.125052	0.464286	0.041162
C162	C	0.625052	0.964286	0.541162
H163	H	0.097940	0.329876	-0.030507
H164	H	0.597940	0.829876	0.469493
H165	H	0.097965	0.329804	0.088851
H166	H	0.597965	0.829804	0.588851
H167	H	0.207262	0.396113	-0.024633
H168	H	0.707262	0.896113	0.475367
H169	H	0.207299	0.396067	0.094716
H170	H	0.707299	0.896067	0.594716
H171	H	0.092860	0.464583	0.100888
H172	H	0.592860	0.964583	0.600888
H173	H	0.092837	0.464647	-0.018471
H174	H	0.592837	0.964647	0.481529
H175	H	0.155527	0.509688	0.045218
H176	H	0.655527	1.009688	0.545218
C177	C	0.169343	0.032222	0.002862
C178	C	0.669343	0.532222	0.502862
C179	C	0.194865	-0.009082	0.087228
C180	C	0.694865	0.490918	0.587228
C181	C	0.163605	-0.083844	0.080772
C182	C	0.663605	0.416156	0.580772
H183	H	0.113596	0.037687	0.003402
H184	H	0.613596	0.537687	0.503402
H185	H	0.186587	0.004052	-0.059285
H186	H	0.686587	0.504052	0.440715
H187	H	0.177616	0.019080	0.149359
H188	H	0.677616	0.519080	0.649359
H189	H	0.250607	-0.014570	0.086705
H190	H	0.750607	0.485430	0.586705
H191	H	0.180850	-0.112013	0.018625
H192	H	0.680850	0.387987	0.518625
H193	H	0.107860	-0.078370	0.081310
H194	H	0.607860	0.421630	0.581310
H195	H	0.180923	-0.111880	0.138007
H196	H	0.680923	0.388120	0.638007
C197	C	0.339403	0.046805	0.004174
C198	C	0.839403	0.546805	0.504174
C199	C	0.386777	0.046631	0.092194
C200	C	0.886777	0.546631	0.592194
C201	C	0.437051	-0.021071	0.086376
C202	C	0.937051	0.478929	0.586376
H203	H	0.309134	0.001269	0.000191
H204	H	0.809134	0.501269	0.500191
H205	H	0.371652	0.046543	-0.055494
H206	H	0.871652	0.546543	0.444506
H207	H	0.354532	0.046885	0.151845
H208	H	0.854532	0.546885	0.651845
H209	H	0.417063	0.092152	0.096194
H210	H	0.917063	0.592152	0.596194
H211	H	0.469300	-0.021333	0.026708
H212	H	0.969300	0.478667	0.526708
H213	H	0.406775	-0.066602	0.082391
H214	H	0.906775	0.433398	0.582391
H215	H	0.469205	-0.021195	0.146090
H216	H	0.969205	0.478805	0.646090
H217	H	0.703158	0.028828	0.002447
H218	H	1.203158	0.528828	0.502447
H219	H	0.425111	0.262928	0.023179
H220	H	0.925111	0.762928	0.523179
C221	C	0.927736	-0.058081	0.189344
C222	C	1.427736	0.441919	0.689344
C223	C	0.860170	-0.073750	0.244222
C224	C	1.360170	0.426250	0.744222
C225	C	0.860667	-0.032607	0.341210
C226	C	1.360667	0.467393	0.841210
H227	H	0.973030	-0.074503	0.226339
H228	H	1.473030	0.425497	0.726339
H229	H	0.928597	-0.003113	0.180912
H230	H	1.428597	0.496887	0.680912
H231	H	0.859316	-0.128706	0.252659
H232	H	1.359316	0.371294	0.752659
H233	H	0.814865	-0.057325	0.207259
H234	H	1.314865	0.442675	0.707259
H235	H	0.861528	0.022361	0.332778
H236	H	1.361528	0.522361	0.832778
H237	H	0.905964	-0.049033	0.378195
H238	H	1.405964	0.450967	0.878195
H239	H	0.814821	-0.043227	0.378453
H240	H	1.314821	0.456773	0.878453
C241	C	0.924918	-0.229860	0.174063
C242	C	1.424918	0.270140	0.674063
C243	C	0.856905	-0.272773	0.175768
C244	C	1.356905	0.227227	0.675768
C245	C	0.856070	-0.313975	0.265400
C246	C	1.356070	0.186025	0.765400
H247	H	0.969905	-0.265009	0.174920
H248	H	1.469905	0.234991	0.674920
H249	H	0.925487	-0.193545	0.232855
H250	H	1.425487	0.306455	0.732855
H251	H	0.856343	-0.309084	0.116991
H252	H	1.356343	0.190916	0.616991
H253	H	0.811907	-0.237643	0.174928
H254	H	1.311907	0.262357	0.674928
H255	H	0.856639	-0.277660	0.324193
H256	H	1.356639	0.222340	0.824193
H257	H	0.901059	-0.349119	0.266249
H258	H	1.401059	0.150881	0.766249
H259	H	0.809921	-0.343090	0.266574
H260	H	1.309921	0.156910	0.766574
H261	H	0.421684	0.076914	0.006659
H262	H	0.921684	0.576914	0.506659
