data_functionalizedCrystal
_audit_creation_method	'MofGen! by Chris Wilmer'
_symmetry_space_group_name_H-M	'P1'
_symmetry_Int_Tables_number	1
_symmetry_cell_setting	triclinic
loop_
_symmetry_equiv_pos_as_xyz
  x,y,z
_cell_length_a	15.297475
_cell_length_b	16.959454
_cell_length_c	15.296720
_cell_angle_alpha	99.648278
_cell_angle_beta	91.617114
_cell_angle_gamma	80.323279
loop_
_atom_site_label
_atom_site_type_symbol
_atom_site_fract_x
_atom_site_fract_y
_atom_site_fract_z
Zn1	Zn	1.253421	-0.615181	-0.726635
Zn2	Zn	1.278688	-0.729000	-0.580157
Zn3	Zn	1.132298	-0.570776	-0.554873
Zn4	Zn	1.106914	-0.721230	-0.701285
O5	O	1.192830	-0.659047	-0.640738
O6	O	1.379352	-0.652115	-0.728395
O7	O	1.280466	-0.692679	-0.454228
O8	O	1.148414	-0.466067	-0.577685
O9	O	1.397915	-0.735737	-0.620778
O10	O	1.237403	-0.498691	-0.703878
O11	O	1.172914	-0.576432	-0.435651
O12	O	1.006352	-0.568898	-0.553104
O13	O	1.105151	-0.722495	-0.827223
O14	O	0.987702	-0.679437	-0.660673
O15	O	1.212790	-0.644581	-0.845848
O16	O	1.255853	-0.838569	-0.596198
O17	O	1.129651	-0.832860	-0.685190
C18	C	0.965244	-0.618506	-0.601395
C19	C	0.867878	-0.601185	-0.584584
C20	C	0.554738	-0.782854	-0.760885
C21	C	0.646218	-0.799134	-0.776677
C22	C	0.701637	-0.749648	-0.728655
C23	C	0.665567	-0.683879	-0.664839
C24	C	0.574078	-0.667601	-0.649041
C25	C	0.720978	-0.634395	-0.616811
C26	C	0.684908	-0.568627	-0.552995
C27	C	0.593428	-0.552351	-0.537200
C28	C	0.538009	-0.601837	-0.585221
C29	C	0.812467	-0.650673	-0.632609
C30	C	0.831808	-0.535421	-0.520765
C31	C	0.740327	-0.519141	-0.504973
C32	C	1.192759	-0.864398	-0.640710
C33	C	1.192804	-0.952266	-0.640741
C34	C	1.127199	-1.320817	-0.687084
C35	C	1.258690	-1.326729	-0.594523
C36	C	1.258660	-1.244176	-0.594509
C37	C	1.192899	-1.199940	-0.640783
C38	C	1.127167	-1.238256	-0.687070
C39	C	1.324386	-1.205852	-0.548216
C40	C	1.324359	-1.123295	-0.548200
C41	C	1.258601	-1.079058	-0.594479
C42	C	1.192866	-1.117379	-0.640769
C43	C	1.127105	-1.073143	-0.687042
C44	C	1.061373	-1.111464	-0.733338
C45	C	1.061408	-1.194019	-0.733349
C46	C	1.258566	-0.996503	-0.594468
C47	C	1.127072	-0.990582	-0.687028
C48	C	1.421305	-0.699746	-0.680234
C49	C	1.518668	-0.717090	-0.697066
C50	C	1.153320	-0.687624	-0.869207
C51	C	1.136484	-0.699803	-0.966567
C52	C	1.192922	-0.452900	-0.640788
C53	C	1.192961	-0.365053	-0.640810
C54	C	1.313198	-0.571876	-1.279796
C55	C	1.329022	-0.560436	-1.188322
C56	C	1.280889	-0.595276	-1.132879
C57	C	1.216928	-0.641559	-1.168918
C58	C	1.201107	-0.653005	-1.260401
C59	C	1.168798	-0.676406	-1.113484
C60	C	1.104838	-0.722688	-1.149523
C61	C	1.089019	-0.734131	-1.240998
C62	C	1.137153	-0.699291	-1.296441
C63	C	1.184620	-0.664960	-1.022001
C64	C	1.072529	-0.746089	-1.002606
C65	C	1.056705	-0.757528	-1.094080
C66	C	1.232237	-0.630532	-0.413166
C67	C	1.249243	-0.618162	-0.315836
H68	H	0.776125	-0.762907	-0.741517
O69	O	0.994522	-0.802485	-1.128944
C70	C	0.885051	-0.881791	-1.100068
C71	C	0.955431	-0.830881	-1.060465
H72	H	0.853440	-0.904778	-1.044724
H73	H	0.831806	-0.842726	-1.134954
H74	H	0.917855	-0.935608	-1.149864
H75	H	0.922707	-0.777059	-1.010634
H76	H	1.008669	-0.870002	-1.025635
O77	O	0.847439	-0.714477	-0.694719
C78	C	0.849645	-0.776692	-0.848471
C79	C	0.809986	-0.704375	-0.778218
H80	H	0.819367	-0.768557	-0.915992
H81	H	0.924547	-0.779838	-0.851595
H82	H	0.834337	-0.835253	-0.829814
H83	H	0.825228	-0.645774	-0.796824
H84	H	0.735095	-0.701301	-0.775107
O85	O	0.681105	-0.863026	-0.838723
C86	C	0.652268	-0.975653	-0.947949
C87	C	0.612640	-0.903307	-0.877718
H88	H	0.596936	-1.008251	-0.979483
H89	H	0.687152	-0.952834	-1.001274
H90	H	0.702074	-1.019471	-0.915034
H91	H	0.562800	-0.859461	-0.910554
H92	H	0.577812	-0.926184	-0.824400
H93	H	0.509609	-0.823142	-0.799972
H94	H	1.377920	-1.241873	-0.510535
H95	H	1.007892	-1.225228	-0.771039
H96	H	1.033337	-0.774460	-0.957464
O97	O	0.558258	-0.488449	-0.475292
C98	C	0.456993	-0.361899	-0.445830
C99	C	0.496742	-0.434216	-0.516038
H100	H	0.407264	-0.318025	-0.478750
H101	H	0.422028	-0.384752	-0.392588
H102	H	0.512319	-0.329355	-0.414181
H103	H	0.441470	-0.466791	-0.547756
H104	H	0.531730	-0.411313	-0.569225
O105	O	0.449172	-0.586000	-0.569706
C106	C	0.332408	-0.572356	-0.463014
C107	C	0.433036	-0.590287	-0.480464
H108	H	0.319330	-0.575832	-0.390869
H109	H	0.304392	-0.509021	-0.476950
H110	H	0.299000	-0.619000	-0.508334
H111	H	0.466519	-0.543695	-0.435156
H112	H	0.460986	-0.653644	-0.466557
H113	H	0.876931	-0.495126	-0.481661
O114	O	0.705144	-0.455313	-0.442983
C115	C	0.572769	-0.379138	-0.369123
C116	C	0.612499	-0.451458	-0.439337
H117	H	0.497858	-0.375988	-0.366165
H118	H	0.602892	-0.387265	-0.301537
H119	H	0.588146	-0.320582	-0.387732
H120	H	0.597135	-0.510048	-0.420811
H121	H	0.582374	-0.443261	-0.506904
H122	H	1.073684	-1.352022	-0.724779
O123	O	1.388300	-1.086209	-0.503224
C124	C	1.518699	-1.100783	-0.411379
C125	C	1.446349	-1.142887	-0.462289
H126	H	1.565640	-1.146585	-0.378254
H127	H	1.557559	-1.075311	-0.459510
H128	H	1.486415	-1.049257	-0.358629
H129	H	1.478559	-1.194445	-0.515039
H130	H	1.407496	-1.168302	-0.414103
O131	O	1.063104	-0.947726	-0.731996
C132	C	0.932725	-0.950589	-0.823863
C133	C	1.005101	-0.999214	-0.772955
H134	H	0.885821	-0.992200	-0.857007
H135	H	0.893829	-0.898810	-0.775726
H136	H	0.964986	-0.924764	-0.876597
H137	H	0.972912	-1.025092	-0.720221
H138	H	1.043990	-1.050951	-0.821147
O139	O	1.246634	-0.619923	-0.986883
C140	C	1.276311	-0.502356	-0.885724
C141	C	1.205993	-0.553305	-0.925405
H142	H	1.243477	-0.448475	-0.836025
H143	H	1.329505	-0.541382	-0.850740
H144	H	1.308005	-0.479464	-0.941086
H145	H	1.174232	-0.576207	-0.870096
H146	H	1.152855	-0.514245	-0.960412
O147	O	0.997519	-1.068598	-0.778418
C148	C	0.929156	-1.054321	-0.920015
C149	C	1.001490	-1.102954	-0.869069
H150	H	0.932355	-1.082068	-0.993318
H151	H	0.861182	-1.056116	-0.892448
H152	H	0.940423	-0.988731	-0.911996
H153	H	0.990307	-1.168563	-0.877067
H154	H	1.069439	-1.101092	-0.896647
H155	H	1.312225	-1.362749	-0.556843
H156	H	1.036946	-0.771825	-1.270339
O157	O	1.296434	-0.584191	-1.044053
C158	C	1.403126	-0.603074	-0.927316
C159	C	1.385636	-0.615670	-1.027935
H160	H	1.475239	-0.628533	-0.914252
H161	H	1.389351	-0.535524	-0.899323
H162	H	1.357708	-0.635892	-0.893876
H163	H	1.431042	-0.582899	-1.061449
H164	H	1.399383	-0.683234	-1.055862
O165	O	1.121787	-0.710550	-1.385302
C166	C	1.121608	-0.806740	-1.520464
C167	C	1.139018	-0.794109	-1.419831
H168	H	1.135550	-0.874293	-1.548414
H169	H	1.049475	-0.781419	-1.533625
H170	H	1.166974	-0.773843	-1.553866
H171	H	1.093708	-0.827004	-1.386363
H172	H	1.211173	-0.819407	-1.406735
H173	H	1.312080	-0.965304	-0.556770
O174	O	1.391150	-0.515426	-1.153456
C175	C	1.500695	-0.436206	-1.182359
C176	C	1.430344	-0.487149	-1.221959
H177	H	1.532416	-0.413344	-1.237727
H178	H	1.467944	-0.382315	-1.132620
H179	H	1.553853	-0.475298	-1.147410
H180	H	1.377165	-0.448125	-1.256954
H181	H	1.463159	-0.541046	-1.271652
H182	H	1.352386	-0.543519	-1.324946
