data_functionalizedCrystal
_audit_creation_method	'MofGen! by Chris Wilmer'
_symmetry_space_group_name_H-M	'P1'
_symmetry_Int_Tables_number	1
_symmetry_cell_setting	triclinic
loop_
_symmetry_equiv_pos_as_xyz
  x,y,z
_cell_length_a	19.288864
_cell_length_b	14.044220
_cell_length_c	18.366186
_cell_angle_alpha	89.993222
_cell_angle_beta	89.977106
_cell_angle_gamma	88.162561
loop_
_atom_site_label
_atom_site_type_symbol
_atom_site_fract_x
_atom_site_fract_y
_atom_site_fract_z
O1	O	0.928948	0.118214	-0.060787
O2	O	0.727712	0.134161	-0.060738
O3	O	0.825310	-0.011784	-0.060755
O4	O	0.831351	0.264160	-0.060770
O5	O	0.825291	-0.011791	0.060345
O6	O	0.727694	0.134154	0.060362
O7	O	0.928930	0.118207	0.060312
Zn8	Zn	0.828309	0.126180	0.079564
Zn9	Zn	0.828333	0.126189	-0.079990
O10	O	0.831332	0.264152	0.060329
C11	C	0.701794	0.133645	-0.000182
C12	C	0.624591	0.132104	-0.000163
C13	C	0.585397	0.217738	-0.000179
C14	C	0.512857	0.216291	-0.000187
C15	C	0.479514	0.129205	-0.000193
C16	C	0.518717	0.043560	-0.000173
C17	C	0.591256	0.045010	-0.000157
C18	C	0.366860	0.060749	-0.042640
C19	C	0.294322	0.059303	-0.042660
C20	C	0.255781	0.124731	-0.000237
C21	C	0.289785	0.191621	0.042196
C22	C	0.362323	0.193071	0.042212
C23	C	0.400858	0.127624	-0.000209
C24	C	0.137930	0.208802	-0.000261
C25	C	0.065389	0.207351	-0.000264
C26	C	0.071251	0.034617	-0.000257
C27	C	0.143790	0.036071	-0.000247
C28	C	0.177126	0.123165	-0.000252
C29	C	0.822656	-0.047091	-0.000204
C30	C	0.814768	-0.152283	-0.000201
C31	C	0.800348	-0.344882	-0.000208
C32	C	0.856291	-0.402755	-0.000224
C33	C	0.848267	-0.509924	-0.000228
C34	C	0.808370	-0.237703	-0.000204
C35	C	0.954848	0.118724	-0.000245
C36	C	1.032051	0.120264	-0.000269
C37	C	0.833986	0.299459	-0.000223
C38	C	0.841874	0.404651	-0.000231
N39	N	0.828297	0.126173	0.188455
N40	N	0.828350	0.126188	-0.188881
C41	C	0.871531	0.061580	0.226548
C42	C	0.871535	0.061575	0.302776
C43	C	0.828313	0.126180	0.340908
C44	C	0.785071	0.190778	0.302806
C45	C	0.785063	0.190774	0.226579
C46	C	0.824562	0.212524	0.461665
C47	C	0.824575	0.212529	0.537890
C48	C	0.828333	0.126192	0.576015
C49	C	0.832093	0.039847	0.537907
C50	C	0.832085	0.039843	0.461681
C51	C	0.828316	0.126191	0.423563
C52	C	0.871574	0.061589	0.696763
C53	C	0.871573	0.061584	0.772993
C54	C	0.785113	0.190795	0.773021
C55	C	0.785110	0.190792	0.696793
C56	C	0.828344	0.126190	0.658669
H57	H	0.480939	0.286027	-0.000198
H58	H	0.258406	0.244899	0.076742
H59	H	0.398235	0.007467	-0.077190
C60	C	0.929135	-0.360968	-0.000233
H61	H	0.963180	-0.411373	-0.000246
H62	H	0.934573	-0.322888	0.041998
H63	H	0.934593	-0.322869	-0.042467
C64	C	0.634374	-0.049189	-0.000145
H65	H	0.682350	-0.035852	-0.000133
H66	H	0.623712	-0.084912	-0.042374
H67	H	0.623669	-0.084912	0.042091
H68	H	0.746431	-0.375822	-0.000197
C69	C	0.919095	-0.009474	0.344691
H70	H	0.912904	-0.000221	0.395548
H71	H	0.966074	0.000662	0.332172
H72	H	0.907638	-0.072700	0.332216
H73	H	0.390007	0.247532	0.076765
C74	C	0.034582	-0.061176	-0.000269
H75	H	-0.014233	-0.049776	-0.000285
H76	H	0.047650	-0.096432	0.041963
H77	H	0.047699	-0.096414	-0.042502
C78	C	0.919078	-0.009489	0.184616
H79	H	0.944823	-0.047965	0.218224
H80	H	0.950092	0.024494	0.154856
H81	H	0.891647	-0.048857	0.154903
H82	H	0.033478	0.277088	-0.000273
H83	H	0.266642	0.004840	-0.077215
C84	C	0.186906	-0.058128	-0.000240
H85	H	0.156661	-0.110202	-0.000251
H86	H	0.215303	-0.061158	0.041995
H87	H	0.215347	-0.061147	-0.042471
C88	C	0.836210	-0.055127	0.419762
H89	H	0.838545	-0.106547	0.453378
H90	H	0.876467	-0.057130	0.389922
H91	H	0.796149	-0.060300	0.390130
H92	H	0.821518	0.282836	0.568912
H93	H	0.491565	-0.027346	-0.000188
C94	C	0.174602	0.304600	-0.000259
H95	H	0.140867	0.355395	-0.000260
H96	H	0.202799	0.308759	-0.042485
H97	H	0.202755	0.308751	0.041980
C98	C	0.836222	-0.055129	0.579835
H99	H	0.835679	-0.042764	0.630690
H100	H	0.877922	-0.089078	0.567328
H101	H	0.797599	-0.092130	0.567362
H102	H	0.906776	0.008984	0.665721
C103	C	0.919134	-0.009470	0.814895
H104	H	0.944884	-0.047936	0.781270
H105	H	0.891720	-0.048836	0.844650
H106	H	0.950152	0.024532	0.844610
H107	H	0.749918	0.243394	0.804067
H108	H	0.749856	0.243374	0.195563
C109	C	0.737560	0.261855	0.654889
H110	H	0.711823	0.300338	0.688514
H111	H	0.706541	0.227868	0.625171
H112	H	0.764986	0.301218	0.625136
C113	C	0.820433	0.307500	0.419733
H114	H	0.818207	0.358923	0.453345
H115	H	0.780117	0.309564	0.390016
H116	H	0.860441	0.312612	0.389979
H117	H	0.749878	0.243379	0.333857
H118	H	0.612534	0.288658	-0.000185
