data_functionalizedCrystal
_audit_creation_method	'MofGen! by Chris Wilmer'
_symmetry_space_group_name_H-M	'P1'
_symmetry_Int_Tables_number	1
_symmetry_cell_setting	triclinic
loop_
_symmetry_equiv_pos_as_xyz
  x,y,z
_cell_length_a	17.917559
_cell_length_b	14.395555
_cell_length_c	17.917603
_cell_angle_alpha	90.004294
_cell_angle_beta	60.142335
_cell_angle_gamma	63.039569
loop_
_atom_site_label
_atom_site_type_symbol
_atom_site_fract_x
_atom_site_fract_y
_atom_site_fract_z
Zr1	Zr	0.806723	0.948061	-0.128915
O2	O	0.951742	0.814794	-0.249438
O3	O	0.654514	0.982525	-0.087282
O4	O	0.796347	0.999380	-0.242671
O5	O	0.820601	0.791911	0.023195
O6	O	0.796342	1.152254	-0.242665
O7	O	0.809908	0.797939	-0.094048
O8	O	0.542628	1.122103	0.035298
O9	O	1.074315	0.822062	-0.254769
O10	O	0.719779	1.119031	-0.075183
O11	O	0.727762	1.000445	0.012309
O12	O	0.894753	1.020290	-0.170642
O13	O	0.902736	0.901704	-0.083150
Zr14	Zr	0.823768	1.182264	0.058084
Zr15	Zr	0.806715	1.191877	-0.128905
Zr16	Zr	0.823776	0.938448	0.058074
Zr17	Zr	1.002213	0.959653	-0.137417
Zr18	Zr	0.628278	1.170672	0.066586
O19	O	0.975978	1.147800	0.016451
O20	O	0.951730	1.161468	-0.249423
O21	O	0.975989	0.801125	0.016436
O22	O	0.678750	1.315531	0.178607
O23	O	0.654502	1.329199	-0.087267
O24	O	0.678761	0.968857	0.178592
O25	O	0.809891	1.338414	-0.094025
O26	O	0.834144	1.130944	0.171840
O27	O	0.834149	0.978071	0.171834
O28	O	0.820583	1.332386	0.023217
O29	O	1.074308	1.015863	-0.254761
O30	O	0.556183	1.114462	0.183930
O31	O	0.556177	1.308263	0.183938
O32	O	0.542622	1.315904	0.035307
O33	O	1.087869	0.814421	-0.106138
O34	O	1.087863	1.008222	-0.106129
O35	O	0.735738	1.110035	0.099811
O36	O	0.727755	1.228621	0.012319
O37	O	0.902729	1.129880	-0.083140
O38	O	0.910712	1.011294	0.004352
C39	C	0.570718	1.050662	-0.024780
C40	C	0.487727	1.045741	-0.021171
C41	C	0.294770	1.093494	-0.056309
C42	C	0.335726	1.036834	-0.014524
C43	C	0.420307	1.041791	-0.018223
C44	C	0.210181	1.088538	-0.052611
C45	C	0.815255	0.760186	-0.035428
C46	C	0.815259	0.656680	-0.035433
C47	C	0.910663	0.542253	-0.087474
C48	C	0.857643	0.510238	-0.119875
C49	C	0.868274	0.504273	-0.003038
C50	C	0.762234	0.626031	-0.067882
C51	C	0.772884	0.620061	0.049000
C52	C	0.719793	0.588113	0.016622
C53	C	1.059773	1.079662	-0.046051
C54	C	1.142764	1.084584	-0.049660
C55	C	0.793915	1.077187	-0.269310
C56	C	0.786675	1.081268	-0.348692
C57	C	0.815236	1.370138	-0.035403
C58	C	0.815232	1.473645	-0.035398
C59	C	0.773451	1.088746	-0.494048
C60	C	0.857035	1.041582	-0.576785
C61	C	0.849678	1.045742	-0.657667
C62	C	0.780807	1.084586	-0.413158
C63	C	0.836576	1.053138	0.198479
C64	C	0.843816	1.049057	0.277861
C65	C	0.570708	1.355638	-0.024767
C66	C	0.487714	1.454223	-0.021154
C67	C	0.592048	1.038638	0.209114
C68	C	0.516297	1.029636	0.292105
C69	C	0.592039	1.343614	0.209127
C70	C	0.516284	1.438118	0.292123
C71	C	1.038453	0.786711	-0.279958
C72	C	1.114207	0.692207	-0.362954
C73	C	1.059783	0.774686	-0.046064
C74	C	1.142777	0.676101	-0.049677
C75	C	1.038443	1.091687	-0.279945
C76	C	1.114194	1.100689	-0.362936
C77	C	0.444575	1.443316	-0.065139
C78	C	0.366603	1.535939	-0.061762
C79	C	0.331766	1.639468	-0.014392
C80	C	0.374912	1.650374	0.029594
C81	C	0.452888	1.557752	0.026211
C82	C	0.484888	1.082613	0.376762
C83	C	0.413723	1.074150	0.454747
C84	C	0.373964	1.012717	0.448075
C85	C	0.405380	0.959734	0.363409
C86	C	0.476549	0.968190	0.285425
C87	C	0.476542	1.544409	0.285428
C88	C	0.405373	1.633216	0.363404
C89	C	0.373942	1.615729	0.448073
C90	C	0.413692	1.509427	0.454765
C91	C	0.484865	1.420623	0.376790
C92	C	1.153959	0.585916	-0.356259
C93	C	1.225152	0.497111	-0.434236
C94	C	1.256587	0.514598	-0.518905
C95	C	1.216832	0.620900	-0.525598
C96	C	1.145646	0.709703	-0.447622
C97	C	1.185924	0.687010	-0.005700
C98	C	1.263916	0.594389	-0.009099
C99	C	1.298755	0.490860	-0.056471
C100	C	1.255605	0.479954	-0.100454
C101	C	1.177619	0.572574	-0.097060
C102	C	1.153931	1.162131	-0.356235
C103	C	1.225097	1.170611	-0.434206
C104	C	1.256531	1.117641	-0.518878
C105	C	1.216786	1.056197	-0.525578
C106	C	1.145616	1.047724	-0.447607
H107	H	0.991330	0.523888	-0.131544
H108	H	0.488003	1.566648	0.062035
H109	H	0.316015	1.005840	0.511582
H110	H	0.639051	0.606691	0.060639
O111	O	0.298073	0.967610	0.036527
H112	H	0.216654	1.020074	0.090734
O113	O	0.959147	0.983935	-0.590161
H114	H	0.966551	1.042717	-0.558506
O115	O	1.131084	0.560798	-0.144494
H116	H	1.049271	0.594781	-0.094642
H117	H	0.737102	0.667502	0.120373
O118	O	0.527769	1.148871	0.383969
H119	H	0.493971	1.184270	0.455943
O120	O	0.247658	1.739357	-0.010748
H121	H	0.274976	1.793953	-0.040637
O122	O	1.267956	1.236885	-0.426968
H123	H	1.306795	1.202697	-0.392308
O124	O	0.379829	1.131319	0.546059
H125	H	0.419418	1.175476	0.537591
H126	H	1.157564	0.771300	0.032882
H127	H	1.314483	1.124549	-0.582360
O128	O	0.332470	1.162663	-0.107390
H129	H	0.393961	1.155732	-0.102325
H130	H	0.893459	0.462796	-0.191265
H131	H	1.299036	0.603290	0.026721
O132	O	0.362543	1.747861	0.356166
H133	H	0.307793	1.806685	0.424605
H134	H	1.128350	1.205267	-0.287298
O135	O	0.702899	0.695377	-0.104279
H136	H	0.703413	0.772187	-0.104043
O137	O	1.102761	0.981445	-0.454835
H138	H	1.164931	0.895662	-0.493903
H139	H	0.913119	0.451766	0.024346
O140	O	1.333366	0.418806	-0.603001
H141	H	1.348558	0.448814	-0.663007
O142	O	1.250733	0.639755	-0.616921
H143	H	1.306901	0.560140	-0.670010
H144	H	0.696373	1.132245	-0.483960
O145	O	0.482150	1.331658	-0.116243
H146	H	0.439054	1.339653	-0.146268
O147	O	0.362465	0.893510	0.356218
H148	H	0.307684	0.896559	0.424674
O149	O	0.527701	1.305982	0.384025
H150	H	0.566517	1.296333	0.418710
O151	O	0.320066	1.524164	-0.109198
H152	H	0.357382	1.436610	-0.142688
H153	H	1.113279	0.796247	-0.453083
O154	O	0.297164	1.711514	0.532173
H155	H	0.274805	1.788359	0.513285
H156	H	0.502112	0.925053	0.216498
H157	H	0.346537	1.734680	0.068161
O158	O	1.250703	0.999055	-0.616905
H159	H	1.306878	1.015263	-0.669990
H160	H	0.502122	1.558668	0.216493
O161	O	0.379774	1.490571	0.546090
H162	H	0.323594	1.570185	0.599179
O163	O	1.120067	0.567043	-0.264942
H164	H	1.159689	0.478208	-0.273403
O165	O	1.268005	0.382463	-0.427008
H166	H	1.234163	0.385231	-0.355030
O167	O	1.382863	0.390958	-0.060127
H168	H	1.355537	0.336363	-0.030250
H169	H	1.283983	0.395648	-0.139024
