data_functionalizedCrystal
_audit_creation_method	'MofGen! by Chris Wilmer'
_symmetry_space_group_name_H-M	'P1'
_symmetry_Int_Tables_number	1
_symmetry_cell_setting	triclinic
loop_
_symmetry_equiv_pos_as_xyz
  x,y,z
_cell_length_a	10.723024
_cell_length_b	22.010155
_cell_length_c	10.723024
_cell_angle_alpha	89.996780
_cell_angle_beta	95.532131
_cell_angle_gamma	90.015411
loop_
_atom_site_label
_atom_site_type_symbol
_atom_site_fract_x
_atom_site_fract_y
_atom_site_fract_z
O1	O	1.657209	0.050520	-0.175025
O2	O	1.294057	0.050521	-0.191778
O3	O	1.484010	0.050518	-0.001825
O4	O	1.467256	0.050523	-0.364977
O5	O	1.483952	-0.050532	-0.001824
O6	O	1.293999	-0.050529	-0.191777
O7	O	1.657151	-0.050531	-0.175024
Cu8	Cu	1.475570	-0.059757	-0.183400
Cu9	Cu	1.475638	0.059747	-0.183401
O10	O	1.467199	-0.050528	-0.364977
C11	C	1.247528	-0.000003	-0.190558
C12	C	1.108974	-0.000003	-0.186911
N13	N	1.475531	-0.143809	-0.183399
C14	C	1.033991	-0.000001	-0.293198
C15	C	0.890788	-0.000000	-0.289431
C16	C	1.551972	-0.563588	-0.259767
C17	C	1.551986	-0.627196	-0.259764
O18	O	1.616934	-0.660087	-0.324686
N19	N	1.475662	-0.659016	-0.183387
C20	C	1.399328	-0.627226	-0.106999
O21	O	1.334411	-0.660132	-0.042034
C22	C	1.399321	-0.563619	-0.106996
C23	C	1.475641	-0.531802	-0.183387
C24	C	1.628286	-0.531771	-0.336151
C25	C	1.628269	-0.468167	-0.336155
C26	C	1.551938	-0.436381	-0.259776
C27	C	1.475624	-0.468199	-0.183392
C28	C	1.322995	-0.531830	-0.030602
C29	C	1.322995	-0.468220	-0.030605
C30	C	1.399314	-0.436402	-0.106997
C31	C	1.399276	-0.372810	-0.107017
N32	N	1.475600	-0.340989	-0.183393
C33	C	1.551931	-0.372775	-0.259773
C34	C	1.399351	-0.760804	-0.107009
C35	C	1.399350	-0.824409	-0.107018
C36	C	1.552010	-0.824374	-0.259781
C37	C	1.552003	-0.760768	-0.259778
C38	C	1.475675	-0.728983	-0.183386
C39	C	1.551889	-0.239204	-0.259777
C40	C	1.551862	-0.175595	-0.259779
C41	C	1.399207	-0.175635	-0.107011
C42	C	1.399229	-0.239238	-0.107014
C43	C	1.475580	-0.271021	-0.183401
O44	O	1.334366	-0.339878	-0.042124
O45	O	1.616849	-0.339861	-0.324715
C46	C	1.703680	-0.000005	-0.176243
C47	C	1.842234	-0.000001	-0.179891
C48	C	1.482762	-0.000006	0.044675
C49	C	1.479114	-0.000004	0.183229
N50	N	1.475687	0.143800	-0.183393
C51	C	1.468447	-0.000002	-0.411477
C52	C	1.472094	0.000000	-0.550031
C53	C	1.585401	-0.000004	0.258212
C54	C	1.581634	-0.000002	0.401415
H55	H	0.826355	0.000004	-0.380421
O56	O	1.626228	-0.270005	-0.333912
C57	C	1.752591	-0.254446	-0.300479
H58	H	1.757520	-0.208267	-0.252117
H59	H	1.804432	-0.252249	-0.388325
H60	H	1.798002	-0.290240	-0.233962
O61	O	0.919212	0.000079	-0.071412
C62	C	0.995349	0.052422	-0.066681
H63	H	1.002664	0.069871	-0.165810
H64	H	1.092819	0.040651	-0.021148
H65	H	0.952135	0.089067	-0.009259
O66	O	1.690225	-0.000108	0.478221
C67	C	1.760172	-0.052435	0.454943
H68	H	1.694701	-0.089015	0.410948
H69	H	1.809308	-0.070000	0.546917
H70	H	1.833068	-0.040603	0.388145
O71	O	1.249028	-0.437317	0.043742
C72	C	1.324377	-0.400500	0.128176
H73	H	1.423566	-0.419647	0.140667
H74	H	1.283701	-0.399790	0.222547
H75	H	1.326794	-0.352292	0.089594
H76	H	1.067152	0.000012	-0.093125
O77	O	1.363565	0.000108	0.373067
C78	C	1.358895	0.052434	0.296906
H79	H	1.422273	0.089013	0.344096
H80	H	1.258515	0.070002	0.283005
H81	H	1.392118	0.040599	0.202032
O82	O	1.367145	-0.000082	0.232963
C83	C	1.298837	-0.052425	0.192813
H84	H	1.333482	-0.069877	0.102191
H85	H	1.195068	-0.040653	0.175773
H86	H	1.312725	-0.089070	0.268008
H87	H	1.690421	-0.442267	-0.398356
O88	O	1.083934	0.000106	-0.405058
C89	C	1.158486	0.052431	-0.413727
H90	H	1.127076	0.089011	-0.348307
H91	H	1.147813	0.069998	-0.514203
H92	H	1.260853	0.040596	-0.385682
O93	O	1.625935	-0.144756	-0.334164
C94	C	1.592419	-0.160295	-0.460516
H95	H	1.544073	-0.206485	-0.465421
H96	H	1.680223	-0.162459	-0.512424
H97	H	1.525863	-0.124508	-0.505875
O98	O	1.702471	-0.562547	-0.410472
C99	C	1.769840	-0.520812	-0.477853
H100	H	1.718228	-0.475482	-0.484638
H101	H	1.778411	-0.539175	-0.576066
H102	H	1.867353	-0.514033	-0.427345
O103	O	1.248724	-0.562756	0.043427
C104	C	1.164235	-0.599576	-0.031858
H105	H	1.151660	-0.580415	-0.131044
H106	H	1.069907	-0.600308	0.008902
H107	H	1.202814	-0.647777	-0.034307
O108	O	1.626261	-0.729957	-0.334012
C109	C	1.693600	-0.771660	-0.401449
H110	H	1.700439	-0.817001	-0.349852
H111	H	1.791793	-0.753271	-0.410091
H112	H	1.643024	-0.778429	-0.498933
H113	H	1.614162	-0.850266	-0.321975
H114	H	1.337189	-0.850309	-0.044827
H115	H	1.337183	-0.734928	-0.044806
H116	H	1.337068	-0.265145	-0.044825
H117	H	1.337057	-0.149744	-0.044828
O118	O	1.697186	-0.000032	0.208125
C119	C	1.676062	-0.000018	0.076294
H120	H	1.578900	-0.019147	0.046690
H121	H	1.749808	-0.029356	0.035596
H122	H	1.682398	0.048461	0.039992
