data_functionalizedCrystal
_audit_creation_method	'MofGen! by Chris Wilmer'
_symmetry_space_group_name_H-M	'P1'
_symmetry_Int_Tables_number	1
_symmetry_cell_setting	triclinic
loop_
_symmetry_equiv_pos_as_xyz
  x,y,z
_cell_length_a	14.971486
_cell_length_b	15.538191
_cell_length_c	13.448316
_cell_angle_alpha	89.995865
_cell_angle_beta	89.998199
_cell_angle_gamma	65.443111
loop_
_atom_site_label
_atom_site_type_symbol
_atom_site_fract_x
_atom_site_fract_y
_atom_site_fract_z
O1	O	1.146981	0.122716	-0.082571
O2	O	0.881795	0.137412	-0.082598
O3	O	1.066009	-0.007007	-0.082584
O4	O	0.962767	0.267135	-0.082585
O5	O	1.065994	-0.007016	0.082800
O6	O	0.881781	0.137403	0.082786
O7	O	1.146967	0.122707	0.082812
Cu8	Cu	1.014372	0.130054	0.097900
Cu9	Cu	1.014389	0.130065	-0.097685
O10	O	0.962753	0.267127	0.082799
C11	C	0.848677	0.136750	0.000091
C12	C	0.750021	0.134781	0.000080
C13	C	0.665165	0.219623	0.000082
C14	C	0.572470	0.217767	0.000096
C15	C	0.564634	0.131067	0.000103
C16	C	0.649500	0.046219	0.000105
C17	C	0.742193	0.048076	0.000097
C18	C	0.456296	0.042354	0.000119
C19	C	0.363597	0.040496	0.000124
C20	C	0.286573	0.212045	0.000118
C21	C	0.379266	0.213902	0.000110
C22	C	0.464126	0.129053	0.000110
C23	C	1.076803	-0.042095	0.000106
C24	C	1.108978	-0.146632	0.000099
C25	C	0.789329	-0.434783	0.000088
C26	C	0.819585	-0.533015	0.000094
C27	C	0.989766	-0.555266	0.000110
C28	C	0.959525	-0.457034	0.000100
C29	C	0.859305	-0.396800	0.000090
C30	C	1.029501	-0.419051	0.000102
C31	C	0.999261	-0.320828	0.000097
C32	C	0.899046	-0.260588	0.000090
C33	C	0.829066	-0.298577	0.000085
C34	C	1.129720	-0.479287	0.000119
C35	C	1.199696	-0.441304	0.000121
C36	C	1.169457	-0.343079	0.000109
C37	C	1.069242	-0.282839	0.000102
C38	C	1.239438	-0.305090	0.000113
C39	C	1.209198	-0.206867	0.000109
C40	C	1.039002	-0.184615	0.000097
C41	C	1.180085	0.123369	0.000122
C42	C	1.278740	0.125339	0.000126
C43	C	0.951958	0.302214	0.000107
C44	C	0.919784	0.406752	0.000107
N45	N	1.014367	0.130046	0.235464
N46	N	1.014404	0.130065	-0.235250
C47	C	1.095947	0.066124	0.287511
C48	C	1.095953	0.066123	0.391614
C49	C	1.014381	0.130050	0.443669
C50	C	0.932793	0.193976	0.391615
C51	C	0.932785	0.193971	0.287514
C52	C	0.932816	0.193982	0.608595
C53	C	0.932824	0.193988	0.712704
C54	C	1.095984	0.066134	0.712695
C55	C	1.095976	0.066130	0.608594
C56	C	1.014389	0.130057	0.556548
H57	H	0.357223	-0.030102	0.000131
H58	H	1.162401	0.014080	0.566211
H59	H	0.217474	0.281132	0.000122
H60	H	0.671534	0.290224	0.000075
H61	H	0.866377	0.246035	0.566223
O62	O	0.844799	0.262920	0.231370
H63	H	0.788081	0.307380	0.285054
H64	H	0.866399	0.246043	0.755082
O65	O	0.866429	-0.154645	0.000095
H66	H	0.784986	-0.119145	0.000099
H67	H	0.957393	-0.135569	0.000082
O68	O	1.307786	-0.506278	0.000134
H69	H	1.351364	-0.463361	0.000141
O70	O	0.547828	-0.049159	0.000114
H71	H	0.526809	-0.109760	0.000108
O72	O	0.844816	0.262932	0.447761
H73	H	0.788084	0.307378	0.394077
H74	H	0.707720	-0.385736	0.000073
O75	O	0.480943	0.309274	0.000098
H76	H	0.501964	0.369873	0.000080
O77	O	1.347527	-0.370064	0.000132
H78	H	1.382514	-0.356545	0.067548
H79	H	1.266180	-0.175941	0.000111
H80	H	0.643113	-0.024374	0.000124
H81	H	1.162375	0.014071	0.245134
O82	O	1.097858	-0.620235	0.000128
H83	H	1.115715	-0.665515	-0.067279
H84	H	1.154338	-0.559266	0.000114
H85	H	1.162381	0.014072	0.433990
O86	O	0.720970	-0.233599	0.000078
H87	H	0.685970	-0.247114	-0.067330
O88	O	0.387715	0.307415	0.000115
H89	H	0.351446	0.348201	-0.067284
O90	O	0.833724	-0.043431	0.000099
H91	H	0.834409	-0.084915	-0.067309
O92	O	0.744107	-0.573986	0.000083
H93	H	0.669341	-0.515597	0.000067
H94	H	1.162414	0.014083	0.755078
