data_functionalizedCrystal
_audit_creation_method	'MofGen! by Chris Wilmer'
_symmetry_space_group_name_H-M	'P1'
_symmetry_Int_Tables_number	1
_symmetry_cell_setting	triclinic
loop_
_symmetry_equiv_pos_as_xyz
  x,y,z
_cell_length_a	6.817900
_cell_length_b	10.943632
_cell_length_c	23.752930
_cell_angle_alpha	95.054996
_cell_angle_beta	100.066047
_cell_angle_gamma	108.838880
loop_
_atom_site_label
_atom_site_type_symbol
_atom_site_fract_x
_atom_site_fract_y
_atom_site_fract_z
V1	V	-4.016386	-0.180332	-0.178379
O2	O	-3.975974	0.006914	-0.174998
O3	O	-3.995021	-0.355883	-0.177146
O4	O	-3.951120	-0.178327	-0.256183
O5	O	-4.020179	-0.171872	-0.095413
V6	V	-4.498696	-0.157844	-0.168457
O7	O	-4.280305	-0.229660	-0.200143
O8	O	-4.684974	-0.108516	-0.146693
O9	O	-4.296854	0.017707	-0.169691
O10	O	-4.656505	-0.345090	-0.171839
O11	O	-4.612299	-0.166304	-0.251423
O12	O	-4.340755	-0.159850	-0.090654
C13	C	-3.847145	-0.398655	-0.174328
C14	C	-3.910851	-0.542175	-0.173838
C15	C	-3.757508	-0.619297	-0.170580
C16	C	-3.862006	-0.691503	-0.124392
C17	C	-3.919891	-0.725700	-0.219159
C18	C	-4.014487	-0.612477	-0.127617
C19	C	-4.072367	-0.646681	-0.222427
C20	C	-4.176980	-0.718849	-0.176230
C21	C	-3.791143	-0.172162	-0.275147
C22	C	-3.819243	-0.171684	-0.338752
C23	C	-4.176140	-0.175073	-0.736076
C24	C	-4.202563	-0.174607	-0.795838
O25	O	-4.371397	-0.179825	-0.829222
N26	N	-4.033296	-0.167910	-0.822815
C27	C	-3.837585	-0.161665	-0.790025
O28	O	-3.696036	-0.155924	-0.818459
C29	C	-3.811160	-0.162122	-0.730263
C30	C	-3.980447	-0.168833	-0.703291
C31	C	-4.345411	-0.181782	-0.709103
C32	C	-4.318990	-0.182250	-0.649345
C33	C	-4.123298	-0.176010	-0.616559
C34	C	-3.954026	-0.169301	-0.643532
C35	C	-3.615448	-0.155868	-0.697474
C36	C	-3.589036	-0.156324	-0.637708
C37	C	-3.758323	-0.163035	-0.610735
C38	C	-3.731912	-0.163529	-0.550989
N39	N	-3.901180	-0.170226	-0.524012
C40	C	-4.096872	-0.176467	-0.556797
C41	C	-3.893093	-0.160704	-0.915530
C42	C	-3.919520	-0.160256	-0.975291
C43	C	-4.284495	-0.173196	-0.981100
C44	C	-4.258070	-0.173653	-0.921338
C45	C	-4.062360	-0.167401	-0.888553
C46	C	-4.041373	-0.177451	-0.431300
C47	C	-4.014936	-0.177924	-0.371537
C48	C	-3.649961	-0.164978	-0.365733
C49	C	-3.676397	-0.164512	-0.425491
C50	C	-3.872117	-0.170744	-0.458274
O51	O	-3.563139	-0.158309	-0.517568
O52	O	-4.238384	-0.182189	-0.528355
C53	C	-4.108074	0.060472	-0.172507
C54	C	-4.023605	0.203991	-0.173001
C55	C	-4.164075	-0.166018	-0.071687
C56	C	-4.115213	-0.166490	-0.008081
H57	H	-3.579552	-0.575790	-0.168137
Br58	Br	-4.244705	-0.187041	-0.334936
Br59	Br	-3.384388	-0.156516	-0.321228
H60	H	-4.354918	-0.762096	-0.178602
H61	H	-3.880483	-0.774989	-0.257833
Br62	Br	-4.080031	-0.530584	-0.063062
Br63	Br	-4.306989	-0.185907	-0.475781
Br64	Br	-3.714892	-0.725530	-0.055319
H65	H	-4.160560	-0.626285	-0.263881
Br66	Br	-4.611025	-0.190255	-0.753587
H67	H	-4.443843	-0.178276	-1.007805
Br68	Br	-3.627472	-0.152234	-0.871042
H69	H	-3.538557	-0.159061	-0.447455
Br70	Br	-4.487827	-0.182760	-0.884739
Br71	Br	-3.689775	-0.151181	-1.011892
Br72	Br	-3.323410	-0.147826	-0.593216
H73	H	-4.456842	-0.187709	-0.627389
H74	H	-3.477590	-0.150404	-0.719424
