data_functionalizedCrystal
_audit_creation_method	'MofGen! by Chris Wilmer'
_symmetry_space_group_name_H-M	'P1'
_symmetry_Int_Tables_number	1
_symmetry_cell_setting	triclinic
loop_
_symmetry_equiv_pos_as_xyz
  x,y,z
_cell_length_a	27.731994
_cell_length_b	27.731996
_cell_length_c	12.996460
_cell_angle_alpha	89.987889
_cell_angle_beta	90.000496
_cell_angle_gamma	82.620961
loop_
_atom_site_label
_atom_site_type_symbol
_atom_site_fract_x
_atom_site_fract_y
_atom_site_fract_z
O1	O	0.640934	0.057395	-0.085433
O2	O	0.500135	0.066168	-0.085469
O3	O	0.574921	-0.008618	-0.085428
O4	O	0.566149	0.132181	-0.085475
O5	O	0.574913	-0.008622	0.085706
O6	O	0.500128	0.066164	0.085664
O7	O	0.640927	0.057391	0.085701
Cu8	Cu	0.570526	0.061777	0.101308
Cu9	Cu	0.570536	0.061782	-0.101077
O10	O	0.566141	0.132177	0.085659
C11	C	0.482124	0.065986	0.000093
C12	C	0.428468	0.065443	0.000080
C13	C	0.095746	0.062025	0.093406
C14	C	-0.105912	0.059964	0.093419
O15	O	-0.131988	0.059674	0.172754
N16	N	-0.131122	0.059710	0.000134
C17	C	-0.105915	0.059968	-0.093161
O18	O	-0.131985	0.059700	-0.172505
C19	C	0.095742	0.062026	-0.093172
C20	C	0.120950	0.062285	0.000119
C21	C	0.120953	0.062283	0.186690
C22	C	0.171364	0.062801	0.186686
C23	C	0.196568	0.063061	0.093398
C24	C	0.171361	0.062803	0.000115
C25	C	0.120949	0.062281	-0.186466
C26	C	0.171367	0.062795	-0.186460
C27	C	0.196574	0.063053	-0.093169
C28	C	0.246975	0.063581	-0.093177
N29	N	0.272186	0.063835	0.000108
C30	C	0.246982	0.063575	0.093396
C31	C	-0.211788	0.058889	-0.093148
C32	C	-0.262202	0.058375	-0.093146
C33	C	-0.262196	0.058369	0.093434
C34	C	-0.211781	0.058887	0.093431
C35	C	-0.186578	0.059142	0.000137
C36	C	0.352849	0.064663	0.093380
C37	C	0.403264	0.065183	0.093368
C38	C	0.403253	0.065186	-0.093211
C39	C	0.352842	0.064669	-0.093200
C40	C	0.327642	0.064406	0.000104
O41	O	0.273083	0.063865	-0.172470
O42	O	0.273062	0.063833	0.172728
C43	C	0.045335	0.061507	0.093410
C44	C	0.020128	0.061249	0.000127
C45	C	0.045331	0.061509	-0.093160
C46	C	-0.030287	0.060735	0.000130
C47	C	-0.055490	0.060475	0.093417
C48	C	-0.030280	0.060729	0.186702
C49	C	0.020131	0.061247	0.186698
C50	C	0.020121	0.061255	-0.186445
C51	C	-0.030291	0.060738	-0.186434
C52	C	-0.055494	0.060478	-0.093146
C53	C	0.574737	-0.026628	0.000142
C54	C	0.574194	-0.080284	0.000153
C55	C	0.570783	-0.412997	-0.093183
C56	C	0.568722	-0.614655	-0.093202
O57	O	0.568439	-0.640724	-0.172538
N58	N	0.568462	-0.639874	0.000082
C59	C	0.568714	-0.614676	0.093377
O60	O	0.568440	-0.640753	0.172721
C61	C	0.570772	-0.413018	0.093395
C62	C	0.571037	-0.387802	0.000105
C63	C	0.571048	-0.387781	-0.186466
C64	C	0.571566	-0.337370	-0.186460
C65	C	0.571819	-0.312175	-0.093172
C66	C	0.571555	-0.337391	0.000110
C67	C	0.571020	-0.387820	0.186689
C68	C	0.571533	-0.337402	0.186685
C69	C	0.571798	-0.312186	0.093395
C70	C	0.572326	-0.261785	0.093404
N71	N	0.572586	-0.236566	0.000120
C72	C	0.572333	-0.261761	-0.093168
C73	C	0.567635	-0.720549	0.093362
C74	C	0.567121	-0.770963	0.093358
C75	C	0.567129	-0.770939	-0.093222
C76	C	0.567646	-0.720524	-0.093217
C77	C	0.567895	-0.695329	0.000078
C78	C	0.573421	-0.155894	-0.093149
C79	C	0.573941	-0.105479	-0.093135
C80	C	0.573931	-0.105507	0.093444
C81	C	0.573413	-0.155918	0.093431
C82	C	0.573157	-0.181110	0.000126
O83	O	0.572604	-0.235685	0.172699
O84	O	0.572596	-0.235674	-0.172500
C85	C	0.570266	-0.463408	-0.093189
C86	C	0.570001	-0.488624	0.000094
C87	C	0.570254	-0.463429	0.093382
C88	C	0.569487	-0.539039	0.000089
C89	C	0.569234	-0.564234	-0.093199
C90	C	0.569494	-0.539014	-0.186483
C91	C	0.570012	-0.488603	-0.186477
C92	C	0.569994	-0.488649	0.186666
C93	C	0.569477	-0.539060	0.186653
C94	C	0.569223	-0.564255	0.093364
C95	C	0.658938	0.057573	0.000136
C96	C	0.712594	0.058115	0.000142
C97	C	0.566325	0.150186	0.000086
C98	C	0.566868	0.203842	0.000069
N99	N	0.570524	0.061773	0.243655
N100	N	0.570542	0.061781	-0.243424
C101	C	0.570535	0.061782	0.663470
C102	C	0.570530	0.061781	0.546665
C103	C	0.570529	0.061778	0.453566
C104	C	0.570524	0.061776	0.336754
H105	H	-0.282723	0.058172	-0.169113
F106	F	0.574224	-0.078645	-0.192432
F107	F	0.574201	-0.078684	0.192723
H108	H	0.100434	0.062070	-0.262433
H109	H	0.573209	-0.176399	-0.169127
F110	F	0.046938	0.061531	-0.285740
F111	F	-0.184958	0.059161	0.192722
H112	H	0.191885	0.063003	-0.262433
F113	F	0.430086	0.065461	-0.192489
F114	F	-0.184971	0.059161	-0.192451
F115	F	0.571845	-0.310539	-0.285754
F116	F	0.569227	-0.565838	-0.285767
H117	H	0.570840	-0.408289	-0.262437
F118	F	0.326013	0.064401	-0.192490
H119	H	-0.282725	0.058159	0.169393
H120	H	0.567861	-0.699996	-0.169182
H121	H	0.570228	-0.468077	-0.262444
F122	F	0.571798	-0.310591	0.285985
H123	H	0.566923	-0.791461	-0.169181
H124	H	0.566913	-0.791491	0.169324
H125	H	0.570805	-0.408342	0.262656
H126	H	0.573202	-0.176451	0.169395
H127	H	0.569265	-0.559587	0.262627
F128	F	0.046953	0.061523	0.285992
H129	H	0.570201	-0.468140	0.262634
F130	F	0.198186	0.063074	0.285980
H131	H	-0.050810	0.060520	0.262660
F132	F	0.567898	-0.693740	0.192665
F133	F	0.430089	0.065460	0.192665
F134	F	0.326036	0.064382	0.192685
H135	H	-0.050811	0.060531	-0.262408
F136	F	0.094137	0.062008	0.285988
