data_functionalizedCrystal
_audit_creation_method	'MofGen! by Chris Wilmer'
_symmetry_space_group_name_H-M	'P1'
_symmetry_Int_Tables_number	1
_symmetry_cell_setting	triclinic
loop_
_symmetry_equiv_pos_as_xyz
  x,y,z
_cell_length_a	16.992694
_cell_length_b	15.538191
_cell_length_c	15.455313
_cell_angle_alpha	91.603349
_cell_angle_beta	87.142206
_cell_angle_gamma	68.970158
loop_
_atom_site_label
_atom_site_type_symbol
_atom_site_fract_x
_atom_site_fract_y
_atom_site_fract_z
O1	O	0.989241	0.191780	-0.072014
O2	O	0.761568	0.189633	-0.072040
O3	O	0.919723	0.056913	-0.072026
O4	O	0.831085	0.324499	-0.072028
O5	O	0.910688	0.064469	0.072235
O6	O	0.752533	0.197189	0.072222
O7	O	0.980206	0.199336	0.072247
Cu8	Cu	0.865545	0.198952	0.085407
Cu9	Cu	0.876229	0.190016	-0.085199
O10	O	0.822051	0.332055	0.072233
C11	C	0.728624	0.190651	0.000088
C12	C	0.643924	0.182416	0.000078
C13	C	0.571070	0.261869	0.000078
C14	C	0.491487	0.254127	0.000090
C15	C	0.484758	0.166930	0.000095
C16	C	0.557620	0.087471	0.000098
C17	C	0.637201	0.095214	0.000092
C18	C	0.250294	0.134837	0.000119
C19	C	0.170704	0.127099	0.000122
C20	C	0.104576	0.293756	0.000116
C21	C	0.184162	0.301491	0.000105
C22	C	0.257016	0.222033	0.000112
N23	N	0.403412	0.159014	0.000105
N24	N	0.338360	0.229950	0.000108
C25	C	0.924480	0.026294	0.000103
C26	C	0.952104	-0.076201	0.000097
C27	C	0.677671	-0.384652	0.000085
C28	C	0.703646	-0.480962	0.000090
C29	C	0.849754	-0.492404	0.000106
C30	C	0.823791	-0.396094	0.000097
C31	C	0.737748	-0.342224	0.000087
C32	C	0.883868	-0.353667	0.000099
C33	C	0.857907	-0.257364	0.000095
C34	C	0.771868	-0.203488	0.000088
C35	C	0.711786	-0.245922	0.000083
C36	C	0.969911	-0.407537	0.000115
C37	C	1.029988	-0.365110	0.000117
C38	C	1.004027	-0.268806	0.000106
C39	C	0.917988	-0.214930	0.000099
C40	C	1.064108	-0.226373	0.000111
C41	C	1.038146	-0.130070	0.000107
C42	C	0.892026	-0.118628	0.000095
C43	C	1.013150	0.198318	0.000118
C44	C	1.097851	0.206553	0.000122
C45	C	0.817294	0.362675	0.000103
C46	C	0.789671	0.465169	0.000103
N47	N	0.858036	0.205237	0.205401
N48	N	0.883746	0.183724	-0.205194
C49	C	0.925237	0.148877	0.250801
C50	C	0.919563	0.153639	0.341609
C51	C	0.846689	0.214767	0.387015
C52	C	0.779482	0.271130	0.341608
C53	C	0.785154	0.266362	0.250803
C54	C	0.822212	0.235320	0.658594
C55	C	0.816545	0.240085	0.749406
C56	C	0.956626	0.122592	0.749400
C57	C	0.962294	0.117834	0.658593
C58	C	0.895085	0.174194	0.613194
N59	N	0.840889	0.219638	0.479834
N60	N	0.900884	0.169317	0.520376
H61	H	0.189632	0.372496	0.000090
C62	C	0.678631	0.355723	0.740296
C63	C	0.736429	0.307268	0.799318
H64	H	0.629172	0.397190	0.771112
H65	H	0.703334	0.389477	0.704874
H66	H	0.664179	0.313361	0.704883
H67	H	0.750886	0.349630	0.834727
H68	H	0.711722	0.273512	0.834755
H69	H	0.576539	0.332874	0.000072
H70	H	0.974283	0.107745	0.378573
H71	H	0.432169	0.318826	0.000089
H72	H	0.641722	-0.202058	0.000069
C73	C	0.768705	0.280198	0.519406
C74	C	0.748345	0.297285	0.608699
H75	H	0.723100	0.318456	0.488602
H76	H	0.818002	0.293318	0.504522
H77	H	0.778808	0.217234	0.504536
H78	H	0.738248	0.360248	0.623570
H79	H	0.699034	0.284172	0.623588
H80	H	0.919810	-0.536277	0.000117
H81	H	0.991046	-0.485953	0.000111
H82	H	0.045251	0.358447	0.000112
H83	H	0.607606	-0.340788	0.000071
C84	C	0.244061	-0.036864	0.000137
C85	C	0.163310	0.031245	0.000130
H86	H	0.239492	-0.096036	0.000145
H87	H	0.276872	-0.033019	-0.050166
H88	H	0.270577	-0.027737	0.050449
H89	H	0.136795	0.022122	-0.050185
H90	H	0.130486	0.027397	0.050439
H91	H	0.552135	0.016474	0.000115
H92	H	1.100044	-0.408983	0.000128
H93	H	1.134164	-0.270247	0.000128
C94	C	1.159329	-0.114044	-0.074060
C95	C	1.104179	-0.083422	0.000099
H96	H	1.200091	-0.085239	-0.074064
H97	H	1.187107	-0.179099	-0.074049
H98	H	1.128191	-0.098548	-0.124362
H99	H	1.135316	-0.098925	0.050401
H100	H	1.076399	-0.018353	0.000096
H101	H	0.984580	0.099104	0.213838
H102	H	1.021633	0.068059	0.621625
H103	H	0.730432	0.312256	0.213839
C104	C	1.045384	-0.032172	0.777362
C105	C	1.030492	0.060633	0.799305
H106	H	1.090990	-0.070426	0.808169
H107	H	0.996086	-0.045286	0.792254
H108	H	1.059191	-0.043746	0.716783
H109	H	1.016680	0.072209	0.859884
H110	H	1.079801	0.073752	0.784419
C111	C	0.662965	0.288564	0.443749
C112	C	0.699379	0.338321	0.391521
H113	H	0.613516	0.330049	0.474565
H114	H	0.648496	0.246227	0.408334
H115	H	0.702186	0.255683	0.483779
H116	H	0.660160	0.371197	0.351486
H117	H	0.713845	0.380675	0.426939
H118	H	0.309604	0.070135	0.000125
H119	H	0.696521	0.030515	0.000091
H120	H	0.821962	-0.074764	0.000081
H121	H	0.750731	-0.125072	0.000089
C122	C	0.678556	-0.623503	0.000098
C123	C	0.637602	-0.527599	0.000088
H124	H	0.637783	-0.652293	0.000105
H125	H	0.715970	-0.644269	-0.050205
H126	H	0.709680	-0.638989	0.050410
H127	H	0.606484	-0.512113	-0.050228
H128	H	0.600174	-0.506826	0.050396
