data_functionalizedCrystal
_audit_creation_method	'MofGen! by Chris Wilmer'
_symmetry_space_group_name_H-M	'P1'
_symmetry_Int_Tables_number	1
_symmetry_cell_setting	triclinic
loop_
_symmetry_equiv_pos_as_xyz
  x,y,z
_cell_length_a	14.908783
_cell_length_b	14.908520
_cell_length_c	14.908308
_cell_angle_alpha	83.639235
_cell_angle_beta	90.211273
_cell_angle_gamma	96.791586
loop_
_atom_site_label
_atom_site_type_symbol
_atom_site_fract_x
_atom_site_fract_y
_atom_site_fract_z
Zn1	Zn	1.325980	-0.317645	0.605030
Zn2	Zn	1.825980	0.182355	1.105030
Zn3	Zn	1.325877	-0.460296	0.462395
Zn4	Zn	1.825877	0.039704	0.962395
Zn5	Zn	1.184353	-0.316662	0.445949
Zn6	Zn	1.684353	0.183338	0.945949
Zn7	Zn	1.165844	-0.477686	0.604959
Zn8	Zn	1.665844	0.022314	1.104959
O9	O	1.250514	-0.393072	0.529583
O10	O	1.750514	0.106928	1.029583
O11	O	1.452212	-0.329701	0.593023
O12	O	1.952212	0.170299	1.093023
O13	O	1.314807	-0.433553	0.333974
O14	O	1.814807	0.066447	0.833974
O15	O	1.210929	-0.189703	0.460198
O16	O	1.710929	0.310297	0.960198
O17	O	1.452137	-0.434506	0.488229
O18	O	1.952137	0.065494	0.988229
O19	O	1.314982	-0.190425	0.577075
O20	O	1.814982	0.309575	1.077075
O21	O	1.210830	-0.328026	0.321891
O22	O	1.710830	0.171974	0.821891
O23	O	1.055652	-0.344889	0.460128
O24	O	1.555652	0.155111	0.960128
O25	O	1.179384	-0.464145	0.731208
O26	O	1.679384	0.035855	1.231208
O27	O	1.042054	-0.463192	0.576952
O28	O	1.542054	0.036808	1.076952
O29	O	1.297035	-0.346564	0.731260
O30	O	1.797035	0.153436	1.231260
O31	O	1.296860	-0.589691	0.488159
O32	O	1.796860	-0.089691	0.988159
O33	O	1.179284	-0.602468	0.592900
O34	O	1.679284	-0.102468	1.092900
C35	C	1.016119	-0.405822	0.516749
C36	C	1.516119	0.094178	1.016749
C37	C	0.915841	-0.411299	0.511280
C38	C	1.415841	0.088701	1.011280
C39	C	0.727464	-0.312628	0.610312
C40	C	1.227464	0.187372	1.110312
C41	C	0.633244	-0.317772	0.605177
C42	C	1.133244	0.182228	1.105177
C43	C	0.633180	-0.426725	0.495871
C44	C	1.133180	0.073275	0.995871
C45	C	0.727400	-0.421581	0.501006
C46	C	1.227400	0.078419	1.001006
C47	C	0.774539	-0.364532	0.558229
C48	C	1.274539	0.135468	1.058229
C49	C	0.868760	-0.359394	0.563369
C50	C	1.368760	0.140606	1.063369
C51	C	0.868694	-0.468341	0.454059
C52	C	1.368694	0.031659	0.954059
C53	C	0.774474	-0.473485	0.448924
C54	C	1.274474	0.026515	0.948924
C55	C	1.236076	-0.629032	0.542328
C56	C	1.736076	-0.129032	1.042328
C57	C	1.229980	-0.729974	0.547814
C58	C	1.729980	-0.229974	1.047814
C59	C	1.341070	-0.906289	0.449158
C60	C	1.841070	-0.406289	0.949158
C61	C	1.335345	-1.001133	0.454310
C62	C	1.835345	-0.501133	0.954310
C63	C	1.212812	-1.014508	0.563277
C64	C	1.712812	-0.514508	1.063277
C65	C	1.218536	-0.919664	0.558124
C66	C	1.718536	-0.419664	1.058124
C67	C	1.282666	-0.865558	0.501062
C68	C	1.782666	-0.365558	1.001062
C69	C	1.288386	-0.770712	0.495905
C70	C	1.788386	-0.270712	0.995905
C71	C	1.165857	-0.784088	0.604875
C72	C	1.665857	-0.284088	1.104875
C73	C	1.160133	-0.878932	0.610028
C74	C	1.660133	-0.378932	1.110028
C75	C	1.485824	-0.380273	0.542468
C76	C	1.985824	0.119727	1.042468
C77	C	1.586099	-0.374819	0.547959
C78	C	2.086099	0.125181	1.047959
C79	C	1.236156	-0.407404	0.764882
C80	C	1.736156	0.092596	1.264882
C81	C	1.230038	-0.413511	0.865152
C82	C	1.730038	0.086489	1.365152
C83	C	1.265031	-0.156190	0.516810
C84	C	1.765031	0.343810	1.016810
C85	C	1.271218	-0.055245	0.511367
C86	C	1.771218	0.444755	1.011367
C87	C	1.264871	-0.378727	0.295199
C88	C	1.764871	0.121273	0.795199
C89	C	1.271180	-0.372355	0.194925
C90	C	1.771180	0.127645	0.694925
C91	C	1.341049	-0.302529	1.053626
C92	C	1.841049	0.197471	1.553626
C93	C	1.335303	-0.308264	1.147839
C94	C	1.835303	0.191736	1.647839
C95	C	1.212797	-0.430712	1.147792
C96	C	1.712797	0.069288	1.647792
C97	C	1.218542	-0.424977	1.053579
C98	C	1.718542	0.075023	1.553579
C99	C	1.282672	-0.360884	1.006499
C100	C	1.782672	0.139116	1.506499
C101	C	1.288421	-0.355154	0.912285
C102	C	1.788421	0.144846	1.412285
C103	C	1.165911	-0.477597	0.912240
C104	C	1.665911	0.022403	1.412240
C105	C	1.160165	-0.483332	1.006452
C106	C	1.660165	0.016668	1.506452
H107	H	0.594785	-0.473160	0.449272
H108	H	1.094785	0.026840	0.949272
C109	C	0.779318	-0.249879	0.673261
C110	C	1.279318	0.250121	1.173261
N111	N	0.818374	-0.202615	0.720675
N112	N	1.318374	0.297385	1.220675
C113	C	1.411610	-0.846771	0.386388
C114	C	1.911610	-0.346771	0.886388
N115	N	1.464744	-0.801942	0.339109
N116	N	1.964744	-0.301942	0.839109
C117	C	1.089589	-0.938459	0.672788
C118	C	1.589589	-0.438459	1.172788
N119	N	1.036450	-0.983294	0.720055
N120	N	1.536450	-0.483294	1.220055
C121	C	1.399525	-0.244072	1.199675
C122	C	1.899525	0.255928	1.699675
N123	N	1.447901	-0.195719	1.238718
N124	N	1.947901	0.304281	1.738718
H125	H	1.393270	-0.250347	1.015294
H126	H	1.893270	0.249653	1.515294
H127	H	1.107951	-0.535512	1.044797
H128	H	1.607951	-0.035512	1.544797
C129	C	1.101692	-0.541792	0.860393
C130	C	1.601692	-0.041792	1.360393
N131	N	1.053325	-0.590144	0.821341
N132	N	1.553325	-0.090144	1.321341
H133	H	1.340602	-0.726660	0.449439
H134	H	1.840602	-0.226660	0.949439
C135	C	1.358961	-0.284649	0.860499
C136	C	1.858961	0.215351	1.360499
N137	N	1.412091	-0.231539	0.821496
N138	N	1.912091	0.268461	1.321496
C139	C	0.722611	-0.536236	0.385983
C140	C	1.222611	-0.036236	0.885983
N141	N	0.683548	-0.583504	0.338576
N142	N	1.183548	-0.083504	0.838576
C143	C	0.920484	-0.525440	0.396766
C144	C	1.420484	-0.025440	0.896766
N145	N	0.959492	-0.568449	0.353616
N146	N	1.459492	-0.068449	0.853616
C147	C	0.581466	-0.260677	0.662474
C148	C	1.081466	0.239323	1.162474
N149	N	0.542466	-0.217670	0.705634
N150	N	1.042466	0.282330	1.205634
C151	C	1.142273	-1.074040	0.626038
C152	C	1.642273	-0.574040	1.126038
N153	N	1.089140	-1.118881	0.673308
N154	N	1.589140	-0.618881	1.173308
C155	C	0.920611	-0.296636	0.626312
C156	C	1.420611	0.203364	1.126312
N157	N	0.959664	-0.249362	0.673719
N158	N	1.459664	0.250638	1.173719
H159	H	1.382905	-1.034293	0.412047
H160	H	1.882905	-0.534293	0.912047
C161	C	1.101609	-0.739276	0.661973
C162	C	1.601609	-0.239276	1.161973
N163	N	1.053218	-0.705523	0.704977
N164	N	1.553218	-0.205523	1.204977
H165	H	1.160586	-0.482893	1.186140
H166	H	1.660586	0.017107	1.686140
