data_functionalizedCrystal
_audit_creation_method	'MofGen! by Chris Wilmer'
_symmetry_space_group_name_H-M	'P1'
_symmetry_Int_Tables_number	1
_symmetry_cell_setting	triclinic
loop_
_symmetry_equiv_pos_as_xyz
  x,y,z
_cell_length_a	17.077404
_cell_length_b	12.759394
_cell_length_c	17.077396
_cell_angle_alpha	89.973684
_cell_angle_beta	89.980499
_cell_angle_gamma	90.015062
loop_
_atom_site_label
_atom_site_type_symbol
_atom_site_fract_x
_atom_site_fract_y
_atom_site_fract_z
Zn1	Zn	1.200099	-0.418260	-0.443855
Zn2	Zn	1.700099	0.081740	0.056145
Zn3	Zn	1.200024	-0.593961	-0.312593
Zn4	Zn	1.700024	-0.093961	0.187407
Zn5	Zn	1.068830	-0.418297	-0.312602
Zn6	Zn	1.568830	0.081703	0.187398
Zn7	Zn	1.068817	-0.593898	-0.443817
Zn8	Zn	1.568817	-0.093898	0.056183
O9	O	1.134442	-0.506104	-0.378217
O10	O	1.634442	-0.006104	0.121783
O11	O	1.309936	-0.441578	-0.426454
O12	O	1.809936	0.058422	0.073546
O13	O	1.182595	-0.570700	-0.202748
O14	O	1.682595	-0.070700	0.297252
O15	O	1.086280	-0.271271	-0.330033
O16	O	1.586280	0.228729	0.169967
O17	O	1.309881	-0.570664	-0.330017
O18	O	1.809881	-0.070664	0.169983
O19	O	1.182722	-0.271244	-0.426463
O20	O	1.682722	0.228756	0.073537
O21	O	1.086208	-0.441641	-0.202754
O22	O	1.586208	0.058359	0.297246
O23	O	0.958982	-0.441580	-0.329996
O24	O	1.458982	0.058420	0.170004
O25	O	1.086257	-0.570558	-0.553669
O26	O	1.586257	-0.070558	-0.053669
O27	O	0.958972	-0.570594	-0.426399
O28	O	1.458972	-0.070594	0.073601
O29	O	1.182709	-0.441517	-0.553697
O30	O	1.682709	0.058483	-0.053697
O31	O	1.182582	-0.740974	-0.329981
O32	O	1.682582	-0.240974	0.170019
O33	O	1.086185	-0.740928	-0.426391
O34	O	1.586185	-0.240928	0.073609
C35	C	0.930495	-0.506085	-0.378195
C36	C	1.430495	-0.006085	0.121805
C37	C	0.843245	-0.506102	-0.378205
C38	C	1.343245	-0.006102	0.121795
C39	C	1.134395	-0.779072	-0.378198
C40	C	1.634395	-0.279072	0.121802
C41	C	1.134447	-0.895848	-0.378216
C42	C	1.634447	-0.395848	0.121784
C43	C	0.802270	-0.573381	-0.428321
C44	C	1.302270	-0.073381	0.071679
C45	C	0.720290	-0.573383	-0.428334
C46	C	1.220290	-0.073383	0.071666
C47	C	0.679285	-0.506111	-0.378225
C48	C	1.179285	-0.006111	0.121775
C49	C	0.720266	-0.438825	-0.328107
C50	C	1.220266	0.061175	0.171893
C51	C	0.802245	-0.438818	-0.328099
C52	C	1.302245	0.061182	0.171901
C53	C	0.549396	-0.438846	-0.328125
C54	C	1.049396	0.061154	0.171875
C55	C	0.467411	-0.438854	-0.328132
C56	C	0.967411	0.061146	0.171868
C57	C	0.467441	-0.573411	-0.428360
C58	C	0.967441	-0.073411	0.071640
C59	C	0.549419	-0.573404	-0.428352
C60	C	1.049419	-0.073404	0.071648
C61	C	0.590394	-0.506119	-0.378233
C62	C	1.090394	-0.006119	0.121767
C63	C	1.234901	-0.895843	-0.277900
C64	C	1.734901	-0.395843	0.222100
C65	C	1.285148	-0.950701	-0.227751
C66	C	1.785148	-0.450701	0.272249
C67	C	1.285194	-1.060422	-0.227773
C68	C	1.785194	-0.560422	0.272227
C69	C	1.234989	-1.115288	-0.277950
C70	C	1.734989	-0.615288	0.222050
C71	C	1.184742	-1.060430	-0.328099
C72	C	1.684742	-0.560430	0.171901
C73	C	1.184700	-0.950706	-0.328070
C74	C	1.684700	-0.450706	0.171930
C75	C	1.084293	-1.060436	-0.428417
C76	C	1.584293	-0.560436	0.071583
C77	C	1.084242	-0.950714	-0.428393
C78	C	1.584242	-0.450714	0.071607
C79	C	1.034088	-1.115302	-0.478594
C80	C	1.534088	-0.615302	0.021406
C81	C	0.983835	-1.060444	-0.528740
C82	C	1.483835	-0.560444	-0.028740
C83	C	0.983791	-0.950716	-0.528716
C84	C	1.483791	-0.450716	-0.028716
C85	C	1.033994	-0.895856	-0.478542
C86	C	1.533994	-0.395856	0.021458
C87	C	1.339187	-0.506124	-0.378239
C88	C	1.839187	-0.006124	0.121761
C89	C	1.426436	-0.506132	-0.378249
C90	C	1.926436	-0.006132	0.121751
C91	C	1.134490	-0.506027	-0.582961
C92	C	1.634490	-0.006027	-0.082961
C93	C	1.134510	-0.505994	-0.670211
C94	C	1.634510	-0.005994	-0.170211
C95	C	1.134511	-0.232071	-0.378253
C96	C	1.634511	0.267929	0.121747
C97	C	1.134540	-0.115294	-0.378269
C98	C	1.634540	0.384706	0.121731
C99	C	1.184735	-0.438797	-0.711217
C100	C	1.684735	0.061203	-0.211217
C101	C	1.184744	-0.438762	-0.793197
C102	C	1.684744	0.061238	-0.293197
C103	C	1.134532	-0.505930	-0.834171
C104	C	1.634532	-0.005930	-0.334171
C105	C	1.084302	-0.573130	-0.793159
C106	C	1.584302	-0.073130	-0.293159
C107	C	1.084290	-0.573159	-0.711180
C108	C	1.584290	-0.073159	-0.211180
C109	C	1.084334	-0.573067	-0.964029
C110	C	1.584334	-0.073067	-0.464029
C111	C	1.084348	-0.573039	-1.046014
C112	C	1.584348	-0.073039	-0.546014
C113	C	1.184788	-0.438670	-1.046047
C114	C	1.684788	0.061330	-0.546047
C115	C	1.184776	-0.438699	-0.964068
C116	C	1.684776	0.061301	-0.464068
C117	C	1.134546	-0.505900	-0.923062
C118	C	1.634546	-0.005900	-0.423062
C119	C	1.134440	-0.506105	-0.174269
C120	C	1.634440	-0.006105	0.325731
C121	C	1.134572	-0.505842	-0.087020
C122	C	1.634572	-0.005842	0.412980
H123	H	0.835650	-0.628165	-0.469123
H124	H	1.335650	-0.128165	0.030877
O125	O	1.333801	-0.897354	-0.178926
O126	O	1.833801	-0.397354	0.321074
C127	C	1.289106	-0.833967	-0.128191
C128	C	1.789106	-0.333967	0.371809
H129	H	1.227298	-0.867107	-0.123300
H130	H	1.727298	-0.367107	0.376700
H131	H	1.317523	-0.832751	-0.067803
H132	H	1.817523	-0.332751	0.432197
H133	H	1.286356	-0.750790	-0.152442
H134	H	1.786356	-0.250790	0.347558
H135	H	0.582755	-0.384046	-0.287319
H136	H	1.082755	0.115954	0.212681
O137	O	1.035595	-0.638593	-0.671375
O138	O	1.535595	-0.138593	-0.171375
C139	C	1.052721	-0.743296	-0.691409
C140	C	1.552721	-0.243296	-0.191409
H141	H	1.115431	-0.748590	-0.713963
H142	H	1.615431	-0.248590	-0.213963
H143	H	1.045949	-0.795218	-0.637485
H144	H	1.545949	-0.295218	-0.137485
H145	H	1.010633	-0.770747	-0.738977
H146	H	1.510633	-0.270747	-0.238977
H147	H	1.225667	-0.384010	-0.930709
H148	H	1.725667	0.115990	-0.430709
H149	H	0.942876	-0.906056	-0.569557
H150	H	1.442876	-0.406056	-0.069557
O151	O	0.427651	-0.373552	-0.279365
O152	O	0.927651	0.126448	0.220635
C153	C	0.447610	-0.396359	-0.201085
C154	C	0.947610	0.103641	0.298915
H155	H	0.507132	-0.436720	-0.199373
H156	H	1.007132	0.063280	0.300627
H157	H	0.450386	-0.320461	-0.166000
H158	H	0.950386	0.179539	0.334000
H159	H	0.401452	-0.450337	-0.174584
H160	H	0.901452	0.049663	0.325416
O161	O	0.680608	-0.638849	-0.477032
O162	O	1.180608	-0.138849	0.022968
C163	C	0.734379	-0.698215	-0.521263
C164	C	1.234379	-0.198215	-0.021263
H165	H	0.792802	-0.701778	-0.489101
H166	H	1.292802	-0.201778	0.010899
H167	H	0.710687	-0.781013	-0.529517
H168	H	1.210687	-0.281013	-0.029517
H169	H	0.743126	-0.659860	-0.580936
H170	H	1.243126	-0.159860	-0.080936
O171	O	1.033949	-0.789274	-0.478373
O172	O	1.533949	-0.289274	0.021627
C173	C	1.013791	-0.752714	-0.403121
C174	C	1.513791	-0.252714	0.096879
H175	H	1.027245	-0.815978	-0.357932
H176	H	1.527245	-0.315978	0.142068
H177	H	1.049178	-0.679288	-0.389179
H178	H	1.549178	-0.179288	0.110821
H179	H	0.948653	-0.733313	-0.401402
H180	H	1.448653	-0.233313	0.098598
H181	H	1.225625	-0.384104	-0.677862
H182	H	1.725625	0.115896	-0.177862
O183	O	1.233497	-0.373339	-0.832938
O184	O	1.733497	0.126661	-0.332938
C185	C	1.216354	-0.268634	-0.812922
C186	C	1.716354	0.231366	-0.312922
H187	H	1.186165	-0.266485	-0.753396
H188	H	1.686165	0.233515	-0.253396
H189	H	1.273019	-0.221534	-0.810125
H190	H	1.773019	0.278466	-0.310125
H191	H	1.176017	-0.233215	-0.859057
H192	H	1.676017	0.266785	-0.359057
H193	H	0.582803	-0.628188	-0.469151
H194	H	1.082803	-0.128188	0.030849
O195	O	0.680521	-0.373528	-0.279323
O196	O	1.180521	0.126472	0.220677
C197	C	0.700500	-0.396367	-0.201055
C198	C	1.200500	0.103633	0.298945
H199	H	0.760017	-0.436743	-0.199368
H200	H	1.260017	0.063257	0.300632
H201	H	0.703298	-0.320482	-0.165955
H202	H	1.203298	0.179518	0.334045
H203	H	0.654343	-0.450343	-0.174550
H204	H	1.154343	0.049657	0.325450
H205	H	0.835606	-0.384028	-0.287293
H206	H	1.335606	0.115972	0.212707
O207	O	1.233498	-0.373408	-1.085996
O208	O	1.733498	0.126592	-0.585996
C209	C	1.222752	-0.387791	-1.167139
C210	C	1.722752	0.112209	-0.667139
H211	H	1.162168	-0.422198	-1.178318
H212	H	1.662168	0.077802	-0.678318
H213	H	1.228091	-0.309079	-1.198301
H214	H	1.728091	0.190921	-0.698301
H215	H	1.269305	-0.443725	-1.190412
H216	H	1.769305	0.056275	-0.690412
H217	H	1.043459	-0.627731	-1.079372
H218	H	1.543459	-0.127731	-0.579372
H219	H	1.234858	-0.806502	-0.277868
H220	H	1.734858	-0.306502	0.222132
H221	H	0.434075	-0.628194	-0.469172
H222	H	0.934075	-0.128194	0.030828
H223	H	1.326114	-1.105087	-0.186941
H224	H	1.826114	-0.605087	0.313059
H225	H	1.043416	-0.627816	-0.826526
H226	H	1.543416	-0.127816	-0.326526
O227	O	1.235185	-1.221871	-0.277978
O228	O	1.735185	-0.721871	0.222022
C229	C	1.310419	-1.258416	-0.298231
C230	C	1.810419	-0.758416	0.201769
H231	H	1.355610	-1.195144	-0.284843
H232	H	1.855610	-0.695144	0.215157
H233	H	1.324425	-1.331842	-0.262855
H234	H	1.824425	-0.831842	0.237145
H235	H	1.312057	-1.277812	-0.363370
H236	H	1.812057	-0.777812	0.136630
H237	H	1.034132	-1.204643	-0.478612
H238	H	1.534132	-0.704643	0.021388
H239	H	0.942966	-1.105125	-0.569594
H240	H	1.442966	-0.605125	-0.069594
O241	O	1.035530	-0.638462	-0.924316
O242	O	1.535530	-0.138462	-0.424316
C243	C	0.991209	-0.697735	-0.978057
C244	C	1.491209	-0.197735	-0.478057
H245	H	1.023362	-0.701330	-1.036505
H246	H	1.523362	-0.201330	-0.536505
H247	H	0.982835	-0.780528	-0.954364
H248	H	1.482835	-0.280528	-0.454364
H249	H	0.931592	-0.659278	-0.986759
H250	H	1.431592	-0.159278	-0.486759
