data_functionalizedCrystal
_audit_creation_method	'MofGen! by Chris Wilmer'
_symmetry_space_group_name_H-M	'P1'
_symmetry_Int_Tables_number	1
_symmetry_cell_setting	triclinic
loop_
_symmetry_equiv_pos_as_xyz
  x,y,z
_cell_length_a	23.532407
_cell_length_b	23.532407
_cell_length_c	22.010155
_cell_angle_alpha	89.995744
_cell_angle_beta	89.994271
_cell_angle_gamma	82.848747
loop_
_atom_site_label
_atom_site_type_symbol
_atom_site_fract_x
_atom_site_fract_y
_atom_site_fract_z
O1	O	0.755264	0.069127	-0.050498
O2	O	1.255264	0.569127	0.449502
O3	O	0.589400	0.079130	-0.050509
O4	O	1.089400	0.579130	0.449491
O5	O	0.677334	-0.008803	-0.050486
O6	O	1.177334	0.491197	0.449514
O7	O	0.667330	0.157061	-0.050521
O8	O	1.167330	0.657061	0.449479
O9	O	0.677318	-0.008790	0.050564
O10	O	1.177318	0.491210	0.550564
O11	O	0.589384	0.079144	0.050541
O12	O	1.089384	0.579144	0.550541
O13	O	0.755248	0.069141	0.050552
O14	O	1.255248	0.569141	0.550552
Cu15	Cu	0.672315	0.074143	0.059774
Cu16	Cu	1.172315	0.574143	0.559774
Cu17	Cu	0.672333	0.074128	-0.059730
Cu18	Cu	1.172333	0.574128	0.440270
O19	O	0.667314	0.157074	0.050530
O20	O	1.167314	0.657074	0.550530
C21	C	0.568176	0.078882	0.000015
C22	C	1.068176	0.578882	0.500015
C23	C	0.504959	0.078116	0.000012
C24	C	1.004959	0.578116	0.500012
C25	C	0.238792	0.022921	0.000040
C26	C	0.738792	0.522921	0.500040
C27	C	0.298192	0.023632	0.000039
C28	C	0.798192	0.523632	0.500039
O29	O	0.334937	-0.020153	0.000070
O30	O	0.834937	0.479847	0.500070
N31	N	0.320818	0.075909	0.000024
N32	N	0.820818	0.575909	0.500024
C33	C	0.284041	0.127477	0.000016
C34	C	0.784041	0.627477	0.500016
O35	O	0.308740	0.172007	0.000003
O36	O	0.808740	0.672007	0.500003
C37	C	0.224642	0.126765	0.000020
C38	C	0.724642	0.626765	0.500020
C39	C	0.202019	0.074485	0.000029
C40	C	0.702019	0.574485	0.500029
C41	C	0.216168	-0.029354	0.000049
C42	C	0.716168	0.470646	0.500049
C43	C	0.156772	-0.030066	0.000048
C44	C	0.656772	0.469934	0.500048
C45	C	0.119999	0.021499	0.000038
C46	C	0.619999	0.521499	0.500038
C47	C	0.142623	0.073774	0.000028
C48	C	0.642623	0.573774	0.500028
C49	C	0.187865	0.178333	0.000016
C50	C	0.687865	0.678333	0.500016
C51	C	0.128463	0.177616	0.000021
C52	C	0.628463	0.677616	0.500021
C53	C	0.105840	0.125336	0.000030
C54	C	0.605840	0.625336	0.500030
C55	C	0.046454	0.124627	0.000017
C56	C	0.546454	0.624627	0.500017
N57	N	0.023828	0.072351	0.000032
N58	N	0.523828	0.572351	0.500032
C59	C	0.060600	0.020787	0.000043
C60	C	0.560600	0.520787	0.500043
C61	C	0.408783	0.128968	0.000007
C62	C	0.908783	0.628968	0.500007
C63	C	0.468181	0.129681	-0.000002
C64	C	0.968181	0.629681	0.499998
C65	C	0.482328	0.025836	0.000023
C66	C	0.982328	0.525836	0.500023
C67	C	0.422929	0.025124	0.000027
C68	C	0.922929	0.525124	0.500027
C69	C	0.386157	0.076692	0.000022
C70	C	0.886157	0.576692	0.500022
C71	C	-0.064136	0.019297	0.000040
C72	C	0.435864	0.519297	0.500040
C73	C	-0.123538	0.018590	0.000037
C74	C	0.376462	0.518590	0.500037
C75	C	-0.137680	0.122435	0.000015
C76	C	0.362320	0.622435	0.500015
C77	C	-0.078284	0.123142	0.000016
C78	C	0.421716	0.623142	0.500016
C79	C	-0.041512	0.071568	0.000030
C80	C	0.458488	0.571568	0.500030
O81	O	0.009675	0.168390	-0.000011
O82	O	0.509675	0.668390	0.499989
O83	O	0.035892	-0.023737	0.000063
O84	O	0.535892	0.476263	0.500063
C85	C	0.677071	-0.030012	0.000042
C86	C	1.177071	0.469988	0.500042
C87	C	0.676305	-0.093229	0.000051
C88	C	1.176305	0.406771	0.500051
C89	C	0.621110	-0.359397	0.000010
C90	C	1.121110	0.140603	0.500010
C91	C	0.621821	-0.299997	0.000014
C92	C	1.121821	0.200003	0.500014
O93	O	0.578035	-0.263252	-0.000008
O94	O	1.078035	0.236748	0.499992
N95	N	0.674097	-0.277370	0.000025
N96	N	1.174097	0.222630	0.500025
C97	C	0.725666	-0.314148	0.000025
C98	C	1.225666	0.185852	0.500025
O99	O	0.770196	-0.289448	0.000033
O100	O	1.270196	0.210552	0.500033
C101	C	0.724953	-0.373547	0.000015
C102	C	1.224953	0.126453	0.500015
C103	C	0.672674	-0.396170	0.000011
C104	C	1.172674	0.103830	0.500011
C105	C	0.568834	-0.382020	0.000005
C106	C	1.068834	0.117980	0.500005
C107	C	0.568123	-0.441416	0.000001
C108	C	1.068123	0.058584	0.500001
C109	C	0.619687	-0.478189	0.000003
C110	C	1.119687	0.021811	0.500003
C111	C	0.671963	-0.455566	0.000008
C112	C	1.171963	0.044434	0.500008
C113	C	0.776521	-0.410323	0.000011
C114	C	1.276521	0.089677	0.500011
C115	C	0.775805	-0.469726	0.000001
C116	C	1.275805	0.030274	0.500001
C117	C	0.723525	-0.492348	-0.000003
C118	C	1.223525	0.007652	0.499997
C119	C	0.722816	-0.551735	0.000005
C120	C	1.222816	-0.051735	0.500005
N121	N	0.670539	-0.574361	-0.000005
N122	N	1.170539	-0.074361	0.499995
C123	C	0.618975	-0.537588	-0.000007
C124	C	1.118975	-0.037588	0.499993
C125	C	0.727157	-0.189405	0.000043
C126	C	1.227157	0.310595	0.500043
C127	C	0.727870	-0.130007	0.000056
C128	C	1.227870	0.369993	0.500056
C129	C	0.624025	-0.115860	0.000045
C130	C	1.124025	0.384140	0.500045
C131	C	0.623313	-0.175259	0.000036
C132	C	1.123313	0.324741	0.500036
C133	C	0.674881	-0.212031	0.000032
C134	C	1.174881	0.287969	0.500032
C135	C	0.617485	-0.662325	-0.000014
C136	C	1.117485	-0.162325	0.499986
C137	C	0.616779	-0.721727	-0.000015
C138	C	1.116779	-0.221727	0.499985
C139	C	0.720623	-0.735869	-0.000007
C140	C	1.220623	-0.235869	0.499993
C141	C	0.721330	-0.676472	-0.000002
C142	C	1.221330	-0.176472	0.499998
C143	C	0.669757	-0.639701	-0.000008
C144	C	1.169757	-0.139701	0.499992
O145	O	0.766579	-0.588514	0.000025
O146	O	1.266579	-0.088514	0.500025
O147	O	0.574452	-0.562296	-0.000023
O148	O	1.074452	-0.062296	0.499977
C149	C	0.776472	0.069389	0.000027
C150	C	1.276472	0.569389	0.500027
C151	C	0.839689	0.070155	0.000027
C152	C	1.339689	0.570155	0.500027
C153	C	0.667577	0.178283	-0.000000
C154	C	1.167577	0.678283	0.500000
C155	C	0.668343	0.241500	-0.000013
C156	C	1.168343	0.741500	0.499987
N157	N	0.672305	0.074154	0.143826
N158	N	1.172305	0.574154	0.643826
N159	N	0.672347	0.074113	-0.143783
N160	N	1.172347	0.574113	0.356217
C161	C	0.711273	0.035196	0.563616
C162	C	1.211273	0.535196	1.063616
C163	C	0.711275	0.035192	0.627223
C164	C	1.211275	0.535192	1.127223
O165	O	0.744383	0.002077	0.660123
O166	O	1.244383	0.502077	1.160123
N167	N	0.672333	0.074116	0.659033
N168	N	1.172333	0.574116	1.159033
C169	C	0.633382	0.113042	0.627232
C170	C	1.133382	0.613042	1.127232
O171	O	0.600259	0.146148	0.660130
O172	O	1.100259	0.646148	1.160130
C173	C	0.633377	0.113042	0.563626
C174	C	1.133377	0.613042	1.063626
C175	C	0.672326	0.074120	0.531819
C176	C	1.172326	0.574120	1.031819
C177	C	0.750217	-0.003723	0.531809
C178	C	1.250217	0.496277	1.031809
C179	C	0.750215	-0.003718	0.468206
C180	C	1.250215	0.496282	0.968206
C181	C	0.711268	0.035206	0.436409
C182	C	1.211268	0.535206	0.936409
C183	C	0.672324	0.074125	0.468216
C184	C	1.172324	0.574125	0.968216
C185	C	0.594424	0.151965	0.531826
C186	C	1.094424	0.651965	1.031826
C187	C	0.594422	0.151962	0.468215
C188	C	1.094422	0.651962	0.968215
C189	C	0.633370	0.113040	0.436409
C190	C	1.133370	0.613040	0.936409
C191	C	0.633375	0.113054	0.372816
C192	C	1.133375	0.613054	0.872816
N193	N	0.672317	0.074131	0.341006
N194	N	1.172317	0.574131	0.841006
C195	C	0.711263	0.035207	0.372803
C196	C	1.211263	0.535207	0.872803
C197	C	0.633395	0.113036	0.760810
C198	C	1.133395	0.613036	1.260810
C199	C	0.633402	0.113039	0.824415
C200	C	1.133402	0.613039	1.324415
C201	C	0.711294	0.035189	0.824402
C202	C	1.211294	0.535189	1.324402
C203	C	0.711290	0.035189	0.760795
C204	C	1.211290	0.535189	1.260795
C205	C	0.672337	0.074113	0.729000
C206	C	1.172337	0.574113	1.229000
C207	C	0.711256	0.035220	0.239231
C208	C	1.211256	0.535220	0.739231
C209	C	0.711252	0.035230	0.175623
C210	C	1.211252	0.535230	0.675623
C211	C	0.633358	0.113078	0.175642
C212	C	1.133358	0.613078	0.675642
C213	C	0.633364	0.113070	0.239245
C214	C	1.133364	0.613070	0.739245
C215	C	0.672315	0.074137	0.271038
C216	C	1.172315	0.574137	0.771038
O217	O	0.600282	0.146151	0.339876
O218	O	1.100282	0.646151	0.839876
O219	O	0.744376	0.002101	0.339897
O220	O	1.244376	0.502101	0.839897
H221	H	0.206274	0.220904	0.000006
H222	H	0.706274	0.720904	0.500006
H223	H	-0.141954	-0.023984	0.000043
H224	H	0.358046	0.476016	0.500043
H225	H	0.742971	0.003535	0.149727
H226	H	1.242971	0.503535	0.649727
C227	C	0.827214	-0.080664	0.525390
C228	C	1.327214	0.419336	1.025390
C229	C	0.793036	-0.046510	0.566752
C230	C	1.293036	0.453490	1.066752
H231	H	0.853654	-0.107076	0.546961
H232	H	1.353654	0.392924	1.046961
H233	H	0.803621	-0.101029	0.500592
H234	H	1.303621	0.398971	1.000592
H235	H	0.847551	-0.057048	0.500572
H236	H	1.347551	0.442952	1.000572
H237	H	0.772695	-0.070126	0.591567
H238	H	1.272695	0.429874	1.091567
H239	H	0.816632	-0.026143	0.591561
H240	H	1.316632	0.473857	1.091561
C241	C	0.521302	-0.107827	0.000031
C242	C	1.021302	0.392173	0.500031
C243	C	0.567342	-0.075432	0.000039
C244	C	1.067342	0.424568	0.500039
H245	H	0.486312	-0.082867	0.000031
H246	H	0.986312	0.417133	0.500031
H247	H	0.523188	-0.131283	-0.035207
H248	H	1.023188	0.368717	0.464793
H249	H	0.523177	-0.131295	0.035270
H250	H	1.023177	0.368705	0.535270
H251	H	0.565469	-0.051967	-0.035203
H252	H	1.065469	0.448033	0.464797
H253	H	0.565455	-0.051966	0.035281
H254	H	1.065455	0.448034	0.535281
C255	C	0.031127	0.222644	0.000018
C256	C	0.531127	0.722644	0.500018
C257	C	0.088043	0.234302	0.000014
C258	C	0.588043	0.734302	0.500014
H259	H	0.006175	0.257640	0.000016
H260	H	0.506175	0.757640	0.500016
H261	H	0.024304	0.201196	-0.035215
H262	H	0.524304	0.701196	0.464785
H263	H	0.024300	0.201197	0.035262
H264	H	0.524300	0.701197	0.535262
H265	H	0.094871	0.255746	-0.035233
H266	H	0.594871	0.755746	0.464767
H267	H	0.094868	0.255760	0.035250
H268	H	0.594868	0.755760	0.535250
H269	H	0.525551	-0.459830	-0.000008
H270	H	1.025551	0.040170	0.499992
H271	H	-0.059863	0.165712	0.000008
H272	H	0.440137	0.665712	0.500008
H273	H	0.601654	0.144769	0.265142
H274	H	1.101654	0.644769	0.765142
C275	C	-0.235021	0.167441	0.000017
C276	C	0.264979	0.667441	0.500017
C277	C	-0.178109	0.179112	0.000009
C278	C	0.321891	0.679112	0.500009
H279	H	-0.259979	0.202433	0.000021
H280	H	0.240021	0.702433	0.500021
H281	H	-0.241842	0.145994	-0.035217
H282	H	0.258158	0.645994	0.464783
H283	H	-0.241839	0.145989	0.035260
H284	H	0.258161	0.645989	0.535260
H285	H	-0.171289	0.200561	-0.035236
H286	H	0.328711	0.700561	0.464764
H287	H	-0.171285	0.200569	0.035247
H288	H	0.328715	0.700569	0.535247
H289	H	0.486595	0.172252	-0.000018
H290	H	0.986595	0.672252	0.499982
H291	H	0.526842	-0.352085	0.000001
H292	H	1.026842	0.147915	0.500001
H293	H	0.574205	-0.740143	-0.000015
H294	H	1.074205	-0.240143	0.499985
H295	H	0.512280	-0.016150	0.000031
H296	H	1.012280	0.483850	0.500031
C297	C	0.400775	0.231687	-0.000030
C298	C	0.900775	0.731687	0.499970
C299	C	0.368365	0.185657	-0.000012
C300	C	0.868365	0.685657	0.499988
H301	H	0.375824	0.266683	-0.000045
H302	H	0.875824	0.766683	0.499955
H303	H	0.424232	0.229810	0.035207
H304	H	0.924232	0.729810	0.535207
H305	H	0.424243	0.229789	-0.035270
H306	H	0.924243	0.729789	0.464730
H307	H	0.344900	0.187553	0.035231
H308	H	0.844900	0.687553	0.535231
H309	H	0.344898	0.187535	-0.035252
H310	H	0.844898	0.687535	0.464748
C311	C	0.878523	-0.477739	0.000007
C312	C	1.378523	0.022261	0.500007
C313	C	0.832491	-0.510145	0.000000
C314	C	1.332491	-0.010145	0.500000
H315	H	0.913518	-0.502692	0.000011
H316	H	1.413518	-0.002692	0.500011
H317	H	0.876644	-0.454274	-0.035228
H318	H	1.376644	0.045726	0.464772
H319	H	0.876631	-0.454279	0.035250
H320	H	1.376631	0.045721	0.535250
H321	H	0.834382	-0.533602	-0.035245
H322	H	1.334382	-0.033602	0.464755
H323	H	0.834372	-0.533620	0.035239
H324	H	1.334372	-0.033620	0.535239
C325	C	0.150566	-0.118812	-0.051868
C326	C	0.650566	0.381188	0.448132
C327	C	0.131914	-0.087535	0.000067
C328	C	0.631914	0.412465	0.500067
H329	H	0.135226	-0.154295	-0.051851
H330	H	0.635226	0.345705	0.448149
H331	H	0.137918	-0.097606	-0.087106
H332	H	0.637918	0.402394	0.412894
H333	H	0.191206	-0.125753	-0.051863
H334	H	0.691206	0.374247	0.448137
H335	H	0.091274	-0.080590	0.000060
H336	H	0.591274	0.419410	0.500060
H337	H	0.144559	-0.108745	0.035314
H338	H	0.644559	0.391255	0.535314
C339	C	0.514767	-0.654324	-0.000017
C340	C	1.014767	-0.154324	0.499983
C341	C	0.560795	-0.621912	-0.000015
C342	C	1.060795	-0.121912	0.499985
H343	H	0.479770	-0.629373	-0.000011
H344	H	0.979770	-0.129373	0.499989
H345	H	0.516657	-0.677779	-0.035256
H346	H	1.016657	-0.177779	0.464744
H347	H	0.516655	-0.677793	0.035221
H348	H	1.016655	-0.177793	0.535221
H349	H	0.558910	-0.598446	-0.035256
H350	H	1.058910	-0.098446	0.464744
H351	H	0.558905	-0.598447	0.035228
H352	H	1.058905	-0.098447	0.535228
C353	C	0.599347	0.211842	0.156042
C354	C	1.099347	0.711842	0.656042
C355	C	0.590549	0.155861	0.140681
C356	C	1.090549	0.655861	0.640681
H357	H	0.572919	0.238251	0.134454
H358	H	1.072919	0.738251	0.634454
H359	H	0.593769	0.217412	0.198470
H360	H	1.093769	0.717412	0.698470
H361	H	0.637321	0.217830	0.145612
H362	H	1.137321	0.717830	0.645612
H363	H	0.552577	0.149871	0.151116
H364	H	1.052577	0.649871	0.651116
H365	H	0.596123	0.150288	0.098244
H366	H	1.096123	0.650288	0.598244
C367	C	0.562274	-0.233835	-0.051927
C368	C	1.062274	0.266165	0.448073
C369	C	0.565847	-0.200125	0.000025
C370	C	1.065847	0.299875	0.500025
H371	H	0.526797	-0.249186	-0.051932
H372	H	1.026797	0.250814	0.448068
H373	H	0.564716	-0.210949	-0.087154
H374	H	1.064716	0.289051	0.412846
H375	H	0.592882	-0.264239	-0.051923
H376	H	1.092882	0.235761	0.448077
H377	H	0.535241	-0.169719	0.000018
H378	H	1.035241	0.330281	0.500018
H379	H	0.563399	-0.223013	0.035261
H380	H	1.063399	0.276987	0.535261
C381	C	0.830442	-0.149972	0.000065
C382	C	1.330442	0.350028	0.500065
C383	C	0.785337	-0.105145	0.000065
C384	C	1.285337	0.394855	0.500065
H385	H	0.865920	-0.134623	0.000064
H386	H	1.365920	0.365377	0.500064
H387	H	0.827997	-0.172847	0.035300
H388	H	1.327997	0.327153	0.535300
H389	H	0.828002	-0.172842	-0.035178
H390	H	1.328002	0.327158	0.464822
H391	H	0.787774	-0.082277	0.035310
H392	H	1.287774	0.417723	0.535310
H393	H	0.787783	-0.082261	-0.035173
H394	H	1.287783	0.417739	0.464827
C395	C	0.786626	-0.264398	-0.051905
C396	C	1.286626	0.235602	0.448095
C397	C	0.783847	-0.229822	0.000046
C398	C	1.283847	0.270178	0.500046
H399	H	0.821625	-0.289345	-0.051904
H400	H	1.321625	0.210655	0.448096
H401	H	0.755399	-0.286378	-0.051908
H402	H	1.255399	0.213622	0.448092
H403	H	0.784748	-0.240920	-0.087136
H404	H	1.284748	0.259080	0.412864
H405	H	0.785720	-0.253301	0.035278
H406	H	1.285720	0.246699	0.535278
H407	H	0.815082	-0.207841	0.000055
H408	H	1.315082	0.292159	0.500055
C409	C	0.291170	-0.088810	-0.051893
C410	C	0.791170	0.411190	0.448107
C411	C	0.256585	-0.086040	0.000056
C412	C	0.756585	0.413960	0.500056
H413	H	0.316120	-0.123807	-0.051889
H414	H	0.816120	0.376193	0.448111
H415	H	0.267702	-0.086928	-0.087122
H416	H	0.767702	0.413072	0.412878
H417	H	0.313150	-0.057577	-0.051893
H418	H	0.813150	0.442423	0.448107
H419	H	0.234601	-0.117271	0.000054
H420	H	0.734601	0.382729	0.500054
H421	H	0.280055	-0.087928	0.035294
H422	H	0.780055	0.412072	0.535294
C423	C	0.788281	-0.041761	0.767186
C424	C	1.288281	0.458239	1.267186
C425	C	0.754098	-0.007599	0.725837
C426	C	1.254098	0.492401	1.225837
H427	H	0.814707	-0.068180	0.745605
H428	H	1.314707	0.431820	1.245605
H429	H	0.808631	-0.018156	0.791985
H430	H	1.308631	0.481844	1.291985
H431	H	0.764687	-0.062122	0.792004
H432	H	1.264687	0.437878	1.292004
H433	H	0.777692	0.012766	0.701022
H434	H	1.277692	0.512766	1.201022
H435	H	0.733747	-0.031207	0.701027
H436	H	1.233747	0.468793	1.201027
H437	H	0.819093	-0.391915	0.000014
H438	H	1.319093	0.108085	0.500014
C439	C	0.782378	-0.617873	-0.051939
C440	C	1.282378	-0.117873	0.448061
C441	C	0.778793	-0.651597	0.000007
C442	C	1.278793	-0.151597	0.500007
H443	H	0.817853	-0.602516	-0.051934
H444	H	1.317853	-0.102516	0.448066
H445	H	0.779951	-0.640752	-0.087170
H446	H	1.279951	-0.140752	0.412830
H447	H	0.751766	-0.587474	-0.051935
H448	H	1.251766	-0.087474	0.448065
H449	H	0.809404	-0.681999	0.000001
H450	H	1.309404	-0.181999	0.500001
H451	H	0.781226	-0.628717	0.035247
H452	H	1.281226	-0.128717	0.535247
C453	C	-0.056135	-0.083421	0.000052
C454	C	0.443865	0.416579	0.500052
C455	C	-0.023723	-0.037393	0.000048
C456	C	0.476277	0.462607	0.500048
H457	H	-0.031185	-0.118418	0.000049
H458	H	0.468815	0.381582	0.500049
H459	H	-0.079597	-0.081535	0.035290
H460	H	0.420403	0.418465	0.535290
H461	H	-0.079598	-0.081531	-0.035188
H462	H	0.420402	0.418469	0.464812
H463	H	-0.000263	-0.039281	0.035290
H464	H	0.499737	0.460719	0.535290
H465	H	-0.000252	-0.039281	-0.035193
H466	H	0.499748	0.460719	0.464807
C467	C	0.823342	-0.743901	-0.000003
C468	C	1.323342	-0.243901	0.499997
C469	C	0.777302	-0.776297	-0.000008
C470	C	1.277302	-0.276297	0.499992
H471	H	0.858332	-0.768862	-0.000004
H472	H	1.358332	-0.268862	0.499996
H473	H	0.821465	-0.720434	-0.035236
H474	H	1.321465	-0.220434	0.464764
H475	H	0.821458	-0.720444	0.035242
H476	H	1.321458	-0.220444	0.535242
H477	H	0.779184	-0.799750	-0.035255
H478	H	1.279184	-0.299750	0.464745
H479	H	0.779180	-0.799774	0.035228
H480	H	1.279180	-0.299774	0.535228
H481	H	0.562708	0.183659	0.557714
H482	H	1.062708	0.683659	1.057714
C483	C	0.788842	0.022453	0.310740
C484	C	1.288842	0.522453	0.810740
C485	C	0.754074	-0.007574	0.274172
C486	C	1.254074	0.492426	0.774172
H487	H	0.815274	-0.003966	0.332312
H488	H	1.315274	0.496034	0.832312
H489	H	0.809184	0.046057	0.285922
H490	H	1.309184	0.546057	0.785922
H491	H	0.765646	0.045625	0.338791
H492	H	1.265646	0.545625	0.838791
H493	H	0.777270	-0.030743	0.246118
H494	H	1.277270	0.469257	0.746118
H495	H	0.733730	-0.031188	0.298992
H496	H	1.233730	0.468812	0.798992
H497	H	0.404515	-0.017447	0.000035
H498	H	0.904515	0.482553	0.500035
H499	H	0.743006	0.003494	0.850302
H500	H	1.243006	0.503494	1.350302
H501	H	0.781929	-0.035413	0.442312
H502	H	1.281929	0.464587	0.942312
C503	C	0.534625	0.146982	0.844005
C504	C	1.034625	0.646982	1.344005
C505	C	0.590592	0.155826	0.859374
C506	C	1.090592	0.655826	1.359374
H507	H	0.508195	0.173395	0.865589
H508	H	1.008195	0.673395	1.365589
H509	H	0.529058	0.152555	0.801577
H510	H	1.029058	0.652555	1.301577
H511	H	0.528665	0.109002	0.854436
H512	H	1.028665	0.609002	1.354436
H513	H	0.596554	0.193806	0.848939
H514	H	1.096554	0.693806	1.348939
H515	H	0.596162	0.150258	0.901812
H516	H	1.096162	0.650258	1.401812
C517	C	0.620588	0.190621	0.689284
C518	C	1.120588	0.690621	1.189284
C519	C	0.590582	0.155833	0.725862
C520	C	1.090582	0.655833	1.225862
H521	H	0.594156	0.217038	0.667709
H522	H	1.094156	0.717038	1.167709
H523	H	0.644176	0.210979	0.714093
H524	H	1.144176	0.710979	1.214093
H525	H	0.643773	0.167436	0.661234
H526	H	1.143773	0.667436	1.161234
H527	H	0.567399	0.179018	0.753915
H528	H	1.067399	0.679018	1.253915
H529	H	0.566983	0.135473	0.701051
H530	H	1.066983	0.635473	1.201051
C531	C	0.517426	0.228913	0.474622
C532	C	1.017426	0.728913	0.974622
C533	C	0.551606	0.194753	0.433267
C534	C	1.051606	0.694753	0.933267
H535	H	0.490998	0.255332	0.453046
H536	H	0.990998	0.755332	0.953046
H537	H	0.497080	0.205306	0.499432
H538	H	0.997080	0.705306	0.999432
H539	H	0.541022	0.249275	0.499430
H540	H	1.041022	0.749275	0.999430
H541	H	0.528010	0.174388	0.408462
H542	H	1.028010	0.674388	0.908462
H543	H	0.571954	0.218363	0.408447
H544	H	1.071954	0.718363	0.908447
