data_functionalizedCrystal
_audit_creation_method	'MofGen! by Chris Wilmer'
_symmetry_space_group_name_H-M	'P1'
_symmetry_Int_Tables_number	1
_symmetry_cell_setting	triclinic
loop_
_symmetry_equiv_pos_as_xyz
  x,y,z
_cell_length_a	14.519731
_cell_length_b	14.044190
_cell_length_c	13.101039
_cell_angle_alpha	93.663707
_cell_angle_beta	86.635759
_cell_angle_gamma	88.440315
loop_
_atom_site_label
_atom_site_type_symbol
_atom_site_fract_x
_atom_site_fract_y
_atom_site_fract_z
O1	O	1.238534	0.119144	-0.085228
O2	O	1.571867	0.452477	0.248105
O3	O	1.905201	0.785811	0.581438
O4	O	0.971239	0.133757	-0.085231
O5	O	1.304572	0.467091	0.248102
O6	O	1.637906	0.800424	0.581435
O7	O	1.100870	-0.011540	-0.085210
O8	O	1.434203	0.321793	0.248124
O9	O	1.767537	0.655127	0.581457
O10	O	1.108903	0.264441	-0.085250
O11	O	1.442236	0.597775	0.248083
O12	O	1.775570	0.931108	0.581417
O13	O	1.091571	-0.001098	0.085219
O14	O	1.424904	0.332235	0.418552
O15	O	1.758237	0.665569	0.751885
O16	O	0.961940	0.144200	0.085197
O17	O	1.295273	0.477533	0.418530
O18	O	1.628606	0.810866	0.751864
O19	O	1.229235	0.129586	0.085200
O20	O	1.562568	0.462919	0.418533
O21	O	1.895901	0.796253	0.751867
Zn22	Zn	1.094111	0.138551	0.112258
Zn23	Zn	1.427444	0.471884	0.445591
Zn24	Zn	1.760777	0.805217	0.778924
Zn25	Zn	1.106363	0.124793	-0.112289
Zn26	Zn	1.439696	0.458126	0.221044
Zn27	Zn	1.773030	0.791459	0.554378
O28	O	1.099604	0.274884	0.085178
O29	O	1.432937	0.608217	0.418512
O30	O	1.766270	0.941550	0.751845
C31	C	0.932175	0.138294	-0.000017
C32	C	1.265508	0.471627	0.333316
C33	C	1.598841	0.804960	0.666649
C34	C	0.829629	0.136242	-0.000017
C35	C	1.162962	0.469575	0.333316
C36	C	1.496296	0.802908	0.666649
C37	C	0.746350	0.134574	-0.000021
C38	C	1.079684	0.467908	0.333312
C39	C	1.413017	0.801241	0.666645
C40	C	0.641874	0.132491	-0.000021
C41	C	0.975207	0.465824	0.333312
C42	C	1.308540	0.799158	0.666645
C43	C	0.558601	0.130838	-0.000021
C44	C	0.891934	0.464171	0.333312
C45	C	1.225268	0.797504	0.666646
C46	C	0.454118	0.128754	-0.000023
C47	C	0.787451	0.462088	0.333310
C48	C	1.120784	0.795421	0.666644
C49	C	1.092707	-0.041639	0.000007
C50	C	1.426040	0.291694	0.333341
C51	C	1.759373	0.625027	0.666674
C52	C	1.082227	-0.146883	0.000016
C53	C	1.415560	0.186450	0.333350
C54	C	1.748893	0.519783	0.666683
C55	C	1.137394	-0.397075	-0.000023
C56	C	1.470727	-0.063741	0.333310
C57	C	1.804061	0.269592	0.666643
C58	C	1.063084	-0.339577	-0.000017
C59	C	1.396418	-0.006244	0.333316
C60	C	1.729751	0.327090	0.666650
C61	C	1.073738	-0.232353	0.000001
C62	C	1.407071	0.100981	0.333335
C63	C	1.740404	0.434314	0.666668
C64	C	1.126742	-0.504309	-0.000042
C65	C	1.460075	-0.170976	0.333292
C66	C	1.793409	0.162358	0.666625
C67	C	1.268299	0.125050	-0.000016
C68	C	1.601632	0.458383	0.333317
C69	C	1.934966	0.791716	0.666650
C70	C	1.370845	0.127101	-0.000023
C71	C	1.704179	0.460434	0.333311
C72	C	2.037512	0.793768	0.666644
C73	C	1.107767	0.304983	-0.000041
C74	C	1.441100	0.638316	0.333292
C75	C	1.774434	0.971649	0.666626
C76	C	1.118248	0.410226	-0.000057
C77	C	1.451581	0.743560	0.333277
C78	C	1.784914	1.076893	0.666610
N79	N	1.085755	0.147940	0.265505
N80	N	1.419089	0.481273	0.598838
N81	N	1.752422	0.814606	0.932171
N82	N	1.114725	0.115396	-0.265536
N83	N	1.448058	0.448730	0.067797
N84	N	1.781392	0.782063	0.401131
C85	C	1.074388	0.160722	0.474545
C86	C	1.407722	0.494056	0.807879
C87	C	1.741055	0.827389	1.141212
C88	C	1.126089	0.102617	0.525430
C89	C	1.459423	0.435950	0.858763
C90	C	1.792756	0.769283	1.192096
C91	C	1.119765	0.109729	0.641747
C92	C	1.453098	0.443062	0.975081
C93	C	1.786431	0.776396	1.308414
C94	C	1.080712	0.153611	0.358218
C95	C	1.414045	0.486944	0.691551
C96	C	1.747379	0.820278	1.024884
H97	H	0.991464	-0.370880	-0.000024
H98	H	1.324798	-0.037546	0.333310
H99	H	1.658131	0.295787	0.666643
H100	H	1.209008	-0.365773	-0.000012
H101	H	1.542341	-0.032440	0.333321
H102	H	1.875675	0.300893	0.666655
H103	H	1.175102	0.047530	0.481636
H104	H	1.508436	0.380863	0.814969
H105	H	1.841769	0.714197	1.148302
H106	H	1.025380	0.215807	0.518334
H107	H	1.358713	0.549140	0.851668
H108	H	1.692046	0.882473	1.185001
