data_functionalizedCrystal
_audit_creation_method	'MofGen! by Chris Wilmer'
_symmetry_space_group_name_H-M	'P1'
_symmetry_Int_Tables_number	1
_symmetry_cell_setting	triclinic
loop_
_symmetry_equiv_pos_as_xyz
  x,y,z
_cell_length_a	16.992694
_cell_length_b	15.995350
_cell_length_c	15.455313
_cell_angle_alpha	92.667328
_cell_angle_beta	87.142206
_cell_angle_gamma	87.080299
loop_
_atom_site_label
_atom_site_type_symbol
_atom_site_fract_x
_atom_site_fract_y
_atom_site_fract_z
O1	O	1.043823	0.174116	-0.072015
O2	O	1.543823	0.674116	0.427985
O3	O	0.815539	0.172167	-0.072041
O4	O	1.315539	0.672167	0.427959
O5	O	0.935921	0.051671	-0.072026
O6	O	1.435921	0.551671	0.427974
O7	O	0.923440	0.294611	-0.072029
O8	O	1.423440	0.794611	0.427971
O9	O	0.929037	0.058531	0.072235
O10	O	1.429037	0.558531	0.572235
O11	O	0.808655	0.179027	0.072221
O12	O	1.308655	0.679027	0.572221
O13	O	1.036939	0.180976	0.072246
O14	O	1.536939	0.680976	0.572246
Cu15	Cu	0.922168	0.180628	0.085406
Cu16	Cu	1.422168	0.680628	0.585406
Cu17	Cu	0.930309	0.172515	-0.085200
Cu18	Cu	1.430309	0.672515	0.414800
O19	O	0.916556	0.301471	0.072232
O20	O	1.416556	0.801471	0.572232
C21	C	0.782884	0.173091	0.000087
C22	C	1.282884	0.673091	0.500087
C23	C	0.695840	0.165614	0.000077
C24	C	1.195840	0.665614	0.500077
C25	C	0.645600	0.237750	0.000077
C26	C	1.145600	0.737750	0.500077
C27	C	0.563813	0.230720	0.000089
C28	C	1.063813	0.730720	0.500089
C29	C	0.532268	0.151555	0.000095
C30	C	1.032268	0.651555	0.500095
C31	C	0.582515	0.079414	0.000098
C32	C	1.082515	0.579414	0.500098
C33	C	0.664300	0.086445	0.000092
C34	C	1.164300	0.586445	0.500092
C35	C	0.288669	0.122418	0.000118
C36	C	0.788669	0.622418	0.500118
C37	C	0.206878	0.115393	0.000122
C38	C	0.706878	0.615393	0.500122
C39	C	0.188181	0.266700	0.000114
C40	C	0.688181	0.766700	0.500114
C41	C	0.269969	0.273723	0.000103
C42	C	0.769969	0.773723	0.500103
C43	C	0.320208	0.201582	0.000111
C44	C	0.820208	0.701582	0.500111
N45	N	0.448669	0.144368	0.000104
N46	N	0.948669	0.644368	0.500104
N47	N	0.403806	0.208770	0.000107
N48	N	0.903806	0.708770	0.500107
C49	C	0.931963	0.023872	0.000103
C50	C	1.431963	0.523872	0.500103
C51	C	0.930416	-0.069182	0.000098
C52	C	1.430416	0.430818	0.500098
C53	C	0.924861	-0.407301	0.000100
C54	C	1.424861	0.092699	0.500100
C55	C	0.839142	-0.365620	-0.000233
C56	C	1.339142	0.134380	0.499767
C57	C	0.840674	-0.268811	0.000092
C58	C	1.340674	0.231189	0.500092
C59	C	0.927617	-0.239556	0.000098
C60	C	1.427617	0.260444	0.500098
C61	C	0.965973	-0.273887	0.082482
C62	C	1.465973	0.226113	0.582482
C63	C	0.963816	-0.370663	0.082550
C64	C	1.463816	0.129337	0.582550
C65	C	0.973415	-0.378704	-0.081501
C66	C	1.473415	0.121296	0.418499
C67	C	0.973447	-0.281812	-0.082590
C68	C	1.473447	0.218188	0.417410
C69	C	0.929178	-0.144754	0.000100
C70	C	1.429178	0.355246	0.500100
C71	C	0.923301	-0.502103	0.000104
C72	C	1.423301	-0.002103	0.500104
C73	C	1.069593	0.180052	0.000117
C74	C	1.569593	0.680052	0.500117
C75	C	1.156637	0.187528	0.000121
C76	C	1.656637	0.687528	0.500121
C77	C	0.920514	0.329271	0.000101
C78	C	1.420514	0.829271	0.500101
C79	C	0.922061	0.422324	0.000101
C80	C	1.422061	0.922324	0.500101
N81	N	0.916448	0.186334	0.205401
N82	N	1.416448	0.686334	0.705401
N83	N	0.936036	0.166802	-0.205195
N84	N	1.436036	0.666802	0.294805
C85	C	0.967608	0.135164	0.250801
C86	C	1.467608	0.635164	0.750801
C87	C	0.963289	0.139488	0.341608
C88	C	1.463289	0.639488	0.841608
C89	C	0.907813	0.194986	0.387014
C90	C	1.407813	0.694986	0.887014
C91	C	0.856647	0.246157	0.341607
C92	C	1.356647	0.746157	0.841607
C93	C	0.860963	0.241829	0.250801
C94	C	1.360963	0.741829	0.750801
C95	C	0.889185	0.213646	0.658593
C96	C	1.389185	0.713646	1.158593
C97	C	0.884875	0.217972	0.749405
C98	C	1.384875	0.717972	1.249405
C99	C	0.991517	0.111301	0.749400
C100	C	1.491517	0.611301	1.249400
C101	C	0.995831	0.106981	0.658592
C102	C	1.495831	0.606981	1.158592
C103	C	0.944662	0.158150	0.613194
C104	C	1.444662	0.658150	1.113194
N105	N	0.903399	0.199408	0.479833
N106	N	1.403399	0.699408	0.979833
N107	N	0.949073	0.153722	0.520376
N108	N	1.449073	0.653722	1.020376
H109	H	0.147268	0.325432	0.000110
H110	H	0.647268	0.825432	0.500110
C111	C	0.918181	-0.394223	0.165729
C112	C	1.418181	0.105777	0.665729
H113	H	0.901129	-0.344675	0.199157
H114	H	1.401129	0.155325	0.699157
H115	H	0.951638	-0.428283	0.198670
H116	H	1.451638	0.071717	0.698670
H117	H	0.873606	-0.424232	0.150670
H118	H	1.373606	0.075768	0.650670
H119	H	1.033175	0.069641	0.786372
H120	H	1.533175	0.569641	1.286372
C121	C	0.172180	0.028307	0.000130
C122	C	0.672180	0.528307	0.500130
H123	H	0.213813	-0.013651	0.000140
H124	H	0.713813	0.486349	0.500140
H125	H	0.143059	0.020027	-0.050177
H126	H	0.643059	0.520027	0.449823
H127	H	0.138268	0.024819	0.050444
H128	H	0.638268	0.524819	0.550444
C129	C	0.922347	-0.234274	0.165301
C130	C	1.422347	0.265726	0.665301
H131	H	0.945996	-0.255442	0.214810
H132	H	1.445996	0.244558	0.714810
H133	H	0.868539	-0.247808	0.166036
H134	H	1.368539	0.252192	0.666036
H135	H	0.925602	-0.175128	0.166154
H136	H	1.425602	0.324872	0.666154
C137	C	1.048602	-0.408301	0.087623
C138	C	1.548602	0.091699	0.587623
H139	H	1.084209	-0.364432	0.089639
H140	H	1.584209	0.135568	0.589639
H141	H	1.061789	-0.444458	0.037950
H142	H	1.561789	0.055542	0.537950
H143	H	1.052114	-0.439221	0.138427
H144	H	1.552114	0.060779	0.638427
C145	C	0.823807	0.278975	0.799350
C146	C	1.323807	0.778975	1.299350
H147	H	0.793934	0.308811	0.759307
H148	H	1.293934	0.808811	1.259307
H149	H	0.850285	0.317440	0.834787
H150	H	1.350285	0.817440	1.334787
H151	H	0.789507	0.248287	0.834759
H152	H	1.289507	0.748287	1.334759
C153	C	1.058840	-0.415937	-0.082253
C154	C	1.558840	0.084063	0.417747
H155	H	1.064920	-0.448755	-0.033107
H156	H	1.564920	0.051245	0.466893
H157	H	1.094178	-0.371819	-0.080443
H158	H	1.594178	0.128181	0.419557
H159	H	1.070115	-0.450228	-0.133666
H160	H	1.570115	0.049772	0.366334
C161	C	0.935681	-0.251631	-0.164929
C162	C	1.435681	0.248369	0.335071
H163	H	0.963666	-0.277412	-0.214729
H164	H	1.463666	0.222588	0.285271
H165	H	0.937863	-0.192489	-0.166442
H166	H	1.437863	0.307511	0.333558
H167	H	0.882213	-0.266382	-0.164419
H168	H	1.382213	0.233618	0.335581
H169	H	1.037086	-0.262444	-0.087560
H170	H	1.537086	0.237556	0.412440
C171	C	0.343922	0.043066	0.000120
C172	C	0.843922	0.543066	0.500120
H173	H	0.313420	-0.005087	0.000116
H174	H	0.813420	0.494913	0.500116
H175	H	0.373821	0.045053	0.050426
H176	H	0.873821	0.545053	0.550426
H177	H	0.378609	0.040268	-0.050194
H178	H	0.878609	0.540268	0.449806
H179	H	0.847523	0.255311	0.621636
H180	H	1.347523	0.755311	1.121636
H181	H	1.029701	-0.255341	0.085550
H182	H	1.529701	0.244659	0.585550
H183	H	1.041003	0.061791	0.621625
H184	H	1.541003	0.561791	1.121625
H185	H	0.802224	-0.384703	0.058509
H186	H	1.302224	0.115297	0.558509
H187	H	0.556824	0.014957	0.000115
H188	H	1.056824	0.514957	0.500115
H189	H	0.705206	0.027704	0.000091
H190	H	1.205206	0.527704	0.500091
C191	C	0.795626	0.307205	0.391551
C192	C	1.295626	0.807205	0.891551
H193	H	0.800388	0.302462	0.452134
H194	H	1.300388	0.802462	0.952134
H195	H	0.744005	0.293871	0.376680
H196	H	1.244005	0.793871	0.876680
H197	H	0.804853	0.362955	0.376657
H198	H	1.304853	0.862955	0.876657
H199	H	1.004948	0.097821	0.378573
H200	H	1.504948	0.597821	0.878573
C201	C	1.028631	0.074115	0.200863
C202	C	1.528631	0.574115	0.700863
H203	H	1.058476	0.044254	0.240910
H204	H	1.558476	0.544254	0.740910
H205	H	1.062953	0.104748	0.165429
H206	H	1.562953	0.604748	0.665429
H207	H	1.002105	0.035664	0.165450
H208	H	1.502105	0.535664	0.665450
C209	C	0.804690	0.298115	0.200857
C210	C	1.304690	0.798115	0.700857
H211	H	0.815200	0.287584	0.140274
H212	H	1.315200	0.787584	0.640274
H213	H	0.812493	0.355282	0.215728
H214	H	1.312493	0.855282	0.715728
H215	H	0.751653	0.286190	0.215748
H216	H	1.251653	0.786190	0.715748
C217	C	0.680292	0.324832	0.000069
C218	C	1.180292	0.824832	0.500069
H219	H	0.638654	0.366786	0.000079
H220	H	1.138654	0.866786	0.500079
H221	H	0.714201	0.328329	-0.050239
H222	H	1.214201	0.828329	0.449761
H223	H	0.709413	0.333112	0.050381
H224	H	1.209413	0.833112	0.550381
C225	C	0.508552	0.310069	0.000086
C226	C	1.008552	0.810069	0.500086
H227	H	0.539053	0.358223	0.000070
H228	H	1.039053	0.858223	0.500070
H229	H	0.473866	0.312870	0.050396
H230	H	0.973866	0.812870	0.550396
H231	H	0.478652	0.308076	-0.050225
H232	H	0.978652	0.808076	0.449775
H233	H	0.295647	0.338187	0.000088
H234	H	0.795647	0.838187	0.500088
H235	H	0.810251	-0.245421	-0.058964
H236	H	1.310251	0.254579	0.441036
H237	H	0.948364	-0.404089	-0.143943
H238	H	1.448364	0.095911	0.356057
H239	H	0.807694	-0.389254	-0.059312
H240	H	1.307694	0.110746	0.440688
C241	C	0.791666	-0.230387	0.080003
C242	C	1.291666	0.269613	0.580003
H243	H	0.770748	-0.273952	0.112398
H244	H	1.270748	0.226048	0.612398
H245	H	0.749632	-0.195161	0.061635
H246	H	1.249632	0.304839	0.561635
H247	H	0.824393	-0.198354	0.115291
H248	H	1.324393	0.301646	0.615291
