data_functionalizedCrystal
_audit_creation_method	'MofGen! by Chris Wilmer'
_symmetry_space_group_name_H-M	'P1'
_symmetry_Int_Tables_number	1
_symmetry_cell_setting	triclinic
loop_
_symmetry_equiv_pos_as_xyz
  x,y,z
_cell_length_a	16.992694
_cell_length_b	16.974959
_cell_length_c	15.455313
_cell_angle_alpha	96.307475
_cell_angle_beta	92.857794
_cell_angle_gamma	92.971704
loop_
_atom_site_label
_atom_site_type_symbol
_atom_site_fract_x
_atom_site_fract_y
_atom_site_fract_z
O1	O	-1.043106	0.164928	-0.060460
O2	O	-0.543106	0.664928	0.439540
O3	O	-0.814829	0.163082	-0.060615
O4	O	-0.314829	0.663082	0.439385
O5	O	-0.935708	0.048945	-0.068597
O6	O	-0.435708	0.548945	0.431403
O7	O	-0.922227	0.279065	-0.052478
O8	O	-0.422227	0.779065	0.447522
O9	O	-0.928796	0.055443	0.076119
O10	O	-0.428796	0.555443	0.576119
O11	O	-0.807917	0.169580	0.084101
O12	O	-0.307917	0.669580	0.584101
O13	O	-1.036193	0.171426	0.084256
O14	O	-0.536193	0.671426	0.584256
Cu15	Cu	-0.921424	0.171097	0.097393
Cu16	Cu	-0.421424	0.671097	0.597393
Cu17	Cu	-0.929599	0.163412	-0.073752
Cu18	Cu	-0.429599	0.663412	0.426248
O19	O	-0.915315	0.285564	0.092238
O20	O	-0.415315	0.785564	0.592238
C21	C	-0.782171	0.163957	0.011573
C22	C	-0.282171	0.663957	0.511573
C23	C	-0.695158	0.156875	0.011067
C24	C	-0.195158	0.656875	0.511067
C25	C	-0.931865	0.022612	0.001687
C26	C	-0.431865	0.522612	0.501687
C27	C	-0.930701	-0.065532	-0.004493
C28	C	-0.430701	0.434468	0.495507
C29	C	-1.068852	0.170551	0.012066
C30	C	-0.568852	0.670551	0.512066
C31	C	-1.155865	0.177633	0.012566
C32	C	-0.655865	0.677633	0.512566
C33	C	-0.644621	0.225204	0.015854
C34	C	-0.144621	0.725204	0.515854
C35	C	-0.562863	0.218546	0.015400
C36	C	-0.062863	0.718546	0.515400
C37	C	-0.531644	0.143558	0.010152
C38	C	-0.031644	0.643558	0.510152
C39	C	-0.582188	0.075224	0.005368
C40	C	-0.082188	0.575224	0.505368
C41	C	-0.663944	0.081883	0.005828
C42	C	-0.163944	0.581883	0.505828
C43	C	-0.288165	0.115958	0.008242
C44	C	0.211835	0.615958	0.508242
C45	C	-0.206402	0.109304	0.007779
C46	C	0.293598	0.609304	0.507779
C47	C	-0.187083	0.252627	0.017813
C48	C	0.312917	0.752627	0.517813
C49	C	-0.268842	0.259279	0.018268
C50	C	0.231158	0.759279	0.518268
C51	C	-0.319378	0.190945	0.013488
C52	C	0.180622	0.690945	0.513488
N53	N	-0.448074	0.136750	0.009685
N54	N	0.051926	0.636750	0.509685
N55	N	-0.402946	0.197754	0.013962
N56	N	0.097054	0.697754	0.513962
C57	C	-0.924633	-0.562077	-0.047845
C58	C	-0.424633	-0.062077	0.452155
C59	C	-0.925717	-0.479255	-0.042021
C60	C	-0.425717	0.020745	0.457979
C61	C	-0.922486	-0.434318	0.039777
C62	C	-0.422486	0.065682	0.539777
C63	C	-0.918177	-0.472207	0.115755
C64	C	-0.418177	0.027793	0.615755
C65	C	-0.917098	-0.555028	0.109929
C66	C	-0.417098	-0.055028	0.609929
C67	C	-0.925314	-0.186242	0.065659
C68	C	-0.425314	0.313758	0.565659
C69	C	-0.926391	-0.103415	0.071479
C70	C	-0.426391	0.396585	0.571479
C71	C	-0.933932	-0.110469	-0.086298
C72	C	-0.433932	0.389531	0.413702
C73	C	-0.932848	-0.193291	-0.092116
C74	C	-0.432848	0.306709	0.407884
C75	C	-0.928544	-0.231173	-0.016138
C76	C	-0.428544	0.268827	0.483862
N77	N	-0.923592	-0.349660	0.045733
N78	N	-0.423592	0.150340	0.545733
N79	N	-0.927443	-0.315830	-0.022095
N80	N	-0.427443	0.184170	0.477905
C81	C	-0.919158	0.311896	0.021952
C82	C	-0.419158	0.811896	0.521952
C83	C	-0.920322	0.400040	0.028127
C84	C	-0.420322	0.900040	0.528127
N85	N	-0.915680	0.176502	0.217766
N86	N	-0.415680	0.676502	0.717766
N87	N	-0.935349	0.158001	-0.194126
N88	N	-0.435349	0.658001	0.305874
C89	C	-0.967051	0.128032	0.259771
C90	C	-0.467051	0.628032	0.759771
C91	C	-0.962715	0.132127	0.350865
C92	C	-0.462715	0.632127	0.850865
C93	C	-0.907010	0.184697	0.399953
C94	C	-0.407010	0.684697	0.899953
C95	C	-0.855634	0.233168	0.357943
C96	C	-0.355634	0.733168	0.857943
C97	C	-0.859967	0.229068	0.266850
C98	C	-0.359967	0.729068	0.766850
C99	C	-0.888306	0.202372	0.672771
C100	C	-0.388306	0.702372	1.172771
C101	C	-0.883978	0.206470	0.763870
C102	C	-0.383978	0.706470	1.263870
C103	C	-0.991058	0.105428	0.756786
C104	C	-0.491058	0.605428	1.256786
C105	C	-0.995390	0.101336	0.665692
C106	C	-0.495390	0.601336	1.165692
C107	C	-0.944011	0.149804	0.623689
C108	C	-0.444011	0.649804	1.123689
N109	N	-0.902578	0.188886	0.493066
N110	N	-0.402578	0.688886	0.993066
N111	N	-0.948440	0.145611	0.530577
N112	N	-0.448440	0.645611	1.030577
H113	H	-0.521718	0.274187	0.019297
H114	H	-0.021718	0.774187	0.519297
O115	O	-0.175946	0.036515	0.002655
O116	O	0.324054	0.536515	0.502655
C117	C	-0.058552	-0.037250	-0.002444
C118	C	0.441448	0.462750	0.497556
C119	C	-0.092939	0.045224	0.003342
C120	C	0.407061	0.545224	0.503342
H121	H	0.008564	-0.030236	-0.001872
H122	H	0.508564	0.469764	0.498128
H123	H	-0.082218	-0.074023	-0.065402
H124	H	0.417782	0.425977	0.434598
H125	H	-0.076550	-0.068548	0.055728
H126	H	0.423450	0.431452	0.555728
H127	H	-0.074955	0.076591	-0.054784
H128	H	0.425045	0.576591	0.445216
H129	H	-0.069275	0.081940	0.066336
H130	H	0.430725	0.581940	0.566336
H131	H	-1.032888	0.065966	0.790993
H132	H	-0.532888	0.565966	1.290993
O133	O	-0.674811	0.298111	0.020993
O134	O	-0.174811	0.798111	0.520993
C135	C	-0.647012	0.439561	0.030850
C136	C	-0.147012	0.939561	0.530850
C137	C	-0.612720	0.357043	0.025050
C138	C	-0.112720	0.857043	0.525050
H139	H	-0.596830	0.487229	0.034113
H140	H	-0.096830	0.987229	0.534113
H141	H	-0.681892	0.449036	0.091898
H142	H	-0.181892	0.949036	0.591898
H143	H	-0.687715	0.443502	-0.029236
H144	H	-0.187715	0.943502	0.470764
H145	H	-0.571984	0.353044	0.085091
H146	H	-0.071984	0.853044	0.585091
H147	H	-0.577887	0.347603	-0.036035
H148	H	-0.077887	0.847603	0.463965
O149	O	-0.299033	0.332186	0.023413
O150	O	0.200967	0.832186	0.523413
C151	C	-0.271242	0.473637	0.033269
C152	C	0.228758	0.973637	0.533269
C153	C	-0.236945	0.391121	0.027469
C154	C	0.263055	0.891121	0.527469
H155	H	-0.221062	0.521307	0.036532
H156	H	0.278938	1.021307	0.536532
H157	H	-0.306122	0.483110	0.094317
H158	H	0.193878	0.983110	0.594317
H159	H	-0.311946	0.477575	-0.026817
H160	H	0.188054	0.977575	0.473183
H161	H	-0.196208	0.387124	0.087510
H162	H	0.303792	0.887124	0.587510
H163	H	-0.202112	0.381683	-0.033616
H164	H	0.297888	0.881683	0.466384
O165	O	-1.012708	0.085023	0.391532
O166	O	-0.512708	0.585023	0.891532
C167	C	-1.119363	-0.015642	0.374891
C168	C	-0.619363	0.484358	0.874891
C169	C	-1.062800	0.037671	0.328727
C170	C	-0.562800	0.537671	0.828727
H171	H	-1.159865	-0.053951	0.324134
H172	H	-0.659865	0.446049	0.824134
H173	H	-1.156390	0.022998	0.420073
H174	H	-0.656390	0.522998	0.920073
H175	H	-1.083662	-0.055481	0.414651
H176	H	-0.583662	0.444519	0.914651
H177	H	-1.098438	0.077519	0.288921
H178	H	-0.598438	0.577519	0.788921
H179	H	-1.025771	-0.001016	0.283596
H180	H	-0.525771	0.498984	0.783596
H181	H	-0.838614	0.249282	0.803834
H182	H	-0.338614	0.749282	1.303834
O183	O	-0.337139	0.049499	0.003551
O184	O	0.162861	0.549499	0.503551
C185	C	-0.347664	-0.093358	-0.006396
C186	C	0.152336	0.406642	0.493604
C187	C	-0.292107	-0.018155	-0.001109
C188	C	0.207893	0.481845	0.498891
H189	H	-0.311277	-0.148074	-0.010146
H190	H	0.188723	0.351926	0.489854
H191	H	-0.389297	-0.096605	-0.067010
H192	H	0.110703	0.403395	0.432990
H193	H	-0.383552	-0.091059	0.054125
H194	H	0.116448	0.408941	0.554125
H195	H	-0.256168	-0.020402	-0.061585
H196	H	0.243832	0.479598	0.438415
H197	H	-0.250526	-0.014935	0.059544
H198	H	0.249474	0.485065	0.559544
O199	O	-0.137917	0.318939	0.022343
O200	O	0.362083	0.818939	0.522343
C201	C	-0.038002	0.391259	-0.047345
C202	C	0.461998	0.891259	0.452655
C203	C	-0.093629	0.316111	-0.052582
C204	C	0.406371	0.816111	0.447418
H205	H	-0.002192	0.389006	-0.107922
H206	H	0.497808	0.889006	0.392078
H207	H	0.003693	0.394450	0.013214
H208	H	0.503693	0.894450	0.513214
H209	H	-0.074373	0.445988	-0.043473
H210	H	0.425627	0.945988	0.456527
H211	H	-0.057321	0.261341	-0.056488
H212	H	0.442679	0.761341	0.443512
H213	H	-0.135326	0.312991	-0.113130
H214	H	0.364674	0.812991	0.386870
O215	O	-0.713063	0.015538	0.001330
O216	O	-0.213063	0.515538	0.501330
C217	C	-0.813046	-0.056732	0.070976
C218	C	-0.313046	0.443268	0.570976
C219	C	-0.757447	0.018434	0.076186
C220	C	-0.257447	0.518434	0.576186
H221	H	-0.848957	-0.054408	0.131480
H222	H	-0.348957	0.445592	0.631480
H223	H	-0.776727	-0.111498	0.067198
H224	H	-0.276727	0.388502	0.567198
H225	H	-0.854655	-0.059912	0.010351
H226	H	-0.354655	0.440088	0.510351
H227	H	-0.715827	0.021690	0.136806
H228	H	-0.215827	0.521690	0.636806
H229	H	-0.793815	0.073164	0.079916
H230	H	-0.293815	0.573164	0.579916
H231	H	-0.923735	-0.066828	0.138091
H232	H	-0.423735	0.433172	0.638091
H233	H	-0.937438	-0.079616	-0.148154
H234	H	-0.437438	0.420384	0.351846
O235	O	-0.914896	-0.428508	0.195191
O236	O	-0.414896	0.071492	0.695191
C237	C	-0.843844	-0.326201	0.293612
C238	C	-0.343844	0.173799	0.793612
C239	C	-0.847459	-0.375650	0.203632
C240	C	-0.347459	0.124350	0.703632
H241	H	-0.789335	-0.283442	0.300458
H242	H	-0.289335	0.216558	0.800458
H243	H	-0.840526	-0.367459	0.346955
H244	H	-0.340526	0.132541	0.846955
H245	H	-0.899038	-0.291056	0.300013
H246	H	-0.399038	0.208944	0.800013
H247	H	-0.792279	-0.410800	0.197145
H248	H	-0.292279	0.089200	0.697145
H249	H	-0.850818	-0.334350	0.150333
H250	H	-0.350818	0.165650	0.650333
H251	H	-0.556762	0.014167	0.001107
H252	H	-0.056762	0.514167	0.501107
O253	O	-0.927658	-0.605638	-0.127350
O254	O	-0.427658	-0.105638	0.372650
C255	C	-0.865817	-0.632370	-0.263629
C256	C	-0.365817	-0.132370	0.236371
C257	C	-0.862310	-0.582969	-0.173626
C258	C	-0.362310	-0.082969	0.326374
H259	H	-0.812981	-0.614071	-0.301062
H260	H	-0.312981	-0.114071	0.198938
H261	H	-0.922706	-0.621593	-0.301713
H262	H	-0.422706	-0.121593	0.198287
H263	H	-0.864335	-0.698068	-0.254713
H264	H	-0.364335	-0.198068	0.245287
H265	H	-0.863760	-0.517255	-0.182462
H266	H	-0.363760	-0.017255	0.317538
H267	H	-0.805426	-0.593813	-0.135573
H268	H	-0.305426	-0.093813	0.364427
H269	H	-0.929229	-0.448414	-0.103885
H270	H	-0.429229	0.051586	0.396115
O271	O	-0.936074	-0.236826	-0.171644
O272	O	-0.436074	0.263174	0.328356
C273	C	-0.943721	-0.235083	-0.327522
C274	C	-0.443721	0.264917	0.172478
C275	C	-0.940067	-0.185683	-0.237512
C276	C	-0.440067	0.314317	0.262488
H277	H	-0.946934	-0.193753	-0.380799
H278	H	-0.446934	0.306247	0.119201
H279	H	-0.998292	-0.277765	-0.334461
H280	H	-0.498292	0.222235	0.165539
H281	H	-0.888579	-0.270307	-0.333936
H282	H	-0.388579	0.229693	0.166064
H283	H	-0.995169	-0.150411	-0.231036
H284	H	-0.495169	0.349589	0.268964
H285	H	-0.885461	-0.143050	-0.230613
H286	H	-0.385461	0.356950	0.269387
H287	H	-0.921810	-0.217076	0.127525
H288	H	-0.421810	0.282924	0.627525
H289	H	-0.913587	-0.585872	0.171794
H290	H	-0.413587	-0.085872	0.671794
H291	H	-1.012415	0.085228	0.219809
H292	H	-0.512415	0.585228	0.719809
H293	H	-1.040749	0.058530	0.625725
H294	H	-0.540749	0.558530	1.125725
H295	H	-0.846472	0.241839	0.638579
H296	H	-0.346472	0.741839	1.138579
H297	H	-0.810274	0.275968	0.397915
H298	H	-0.310274	0.775968	0.897915
H299	H	-0.818134	0.268536	0.232651
H300	H	-0.318134	0.768536	0.732651
