data_functionalizedCrystal
_audit_creation_method	'MofGen! by Chris Wilmer'
_symmetry_space_group_name_H-M	'P1'
_symmetry_Int_Tables_number	1
_symmetry_cell_setting	triclinic
loop_
_symmetry_equiv_pos_as_xyz
  x,y,z
_cell_length_a	29.839134
_cell_length_b	29.839131
_cell_length_c	17.640968
_cell_angle_alpha	78.759880
_cell_angle_beta	78.771457
_cell_angle_gamma	90.015800
loop_
_atom_site_label
_atom_site_type_symbol
_atom_site_fract_x
_atom_site_fract_y
_atom_site_fract_z
Zn1	Zn	0.738147	-0.127747	-0.446907
Zn2	Zn	1.238147	0.372253	0.053093
Zn3	Zn	0.722879	-0.218066	-0.314692
Zn4	Zn	1.222879	0.281934	0.185308
Zn5	Zn	0.647826	-0.142921	-0.314731
Zn6	Zn	1.147826	0.357079	0.185269
Zn7	Zn	0.662978	-0.202833	-0.446839
Zn8	Zn	1.162978	0.297167	0.053161
O9	O	0.692957	-0.172892	-0.380792
O10	O	1.192957	0.327108	0.119208
O11	O	0.798990	-0.139753	-0.429381
O12	O	1.298990	0.360247	0.070619
O13	O	0.700191	-0.220823	-0.204076
O14	O	1.200191	0.279177	0.295924
O15	O	0.659856	-0.078036	-0.332310
O16	O	1.159856	0.421964	0.167690
O17	O	0.787772	-0.206110	-0.332242
O18	O	1.287772	0.293890	0.167758
O19	O	0.726215	-0.066887	-0.429419
O20	O	1.226215	0.433113	0.070581
O21	O	0.645050	-0.165614	-0.204105
O22	O	1.145050	0.334386	0.295895
O23	O	0.586967	-0.150844	-0.332244
O24	O	1.086967	0.349156	0.167756
O25	O	0.685681	-0.180147	-0.557469
O26	O	1.185681	0.319853	-0.057469
O27	O	0.598100	-0.194861	-0.429303
O28	O	1.098100	0.305139	0.070697
O29	O	0.740907	-0.124982	-0.557519
O30	O	1.240907	0.375018	-0.057519
O31	O	0.714884	-0.278918	-0.332176
O32	O	1.214884	0.221082	0.167824
O33	O	0.670875	-0.267726	-0.429264
O34	O	1.170875	0.232274	0.070736
C35	C	0.576232	-0.172846	-0.380770
C36	C	1.076232	0.327154	0.119230
C37	C	0.526299	-0.172835	-0.380780
C38	C	1.026299	0.327165	0.119220
C39	C	0.175562	-0.138388	-0.431472
C40	C	0.675562	0.361612	0.068528
C41	C	0.363233	-0.138354	-0.431454
C42	C	0.863233	0.361646	0.068546
O43	O	0.392471	-0.109009	-0.474550
O44	O	0.892471	0.390991	0.025450
N45	N	0.380856	-0.172862	-0.380798
N46	N	0.880856	0.327138	0.119202
C47	C	0.351559	-0.207384	-0.330148
C48	C	0.851559	0.292616	0.169852
O49	O	0.370855	-0.236737	-0.287068
O50	O	0.870855	0.263263	0.212932
C51	C	0.163889	-0.207419	-0.330171
C52	C	0.663889	0.292581	0.169829
C53	C	0.146268	-0.172906	-0.380823
C54	C	0.646268	0.327094	0.119177
C55	C	0.157940	-0.103878	-0.482121
C56	C	0.657940	0.396122	0.017879
C57	C	0.111025	-0.103885	-0.482122
C58	C	0.611025	0.396115	0.017878
C59	C	0.081731	-0.138403	-0.431474
C60	C	0.581731	0.361597	0.068526
C61	C	0.099353	-0.172913	-0.380824
C62	C	0.599353	0.327087	0.119176
C63	C	0.134593	-0.241942	-0.279525
C64	C	0.634593	0.258058	0.220475
C65	C	0.087673	-0.241948	-0.279536
C66	C	0.587673	0.258052	0.220464
C67	C	0.070052	-0.207435	-0.330189
C68	C	0.570052	0.292565	0.169811
C69	C	0.023143	-0.207438	-0.330177
C70	C	0.523143	0.292562	0.169823
N71	N	0.005520	-0.172930	-0.380832
N72	N	0.505520	0.327070	0.119168
C73	C	0.034814	-0.138412	-0.431481
C74	C	0.534814	0.361588	0.068519
C75	C	0.450088	-0.207362	-0.330138
C76	C	0.950088	0.292638	0.169862
C77	C	0.497005	-0.207353	-0.330131
C78	C	0.997005	0.292647	0.169869
C79	C	0.508676	-0.138323	-0.431438
C80	C	1.008676	0.361677	0.068562
C81	C	0.461758	-0.138331	-0.431441
C82	C	0.961758	0.361669	0.068559
C83	C	0.432465	-0.172853	-0.380793
C84	C	0.932465	0.327147	0.119207
C85	C	-0.063712	-0.138430	-0.431478
C86	C	0.436288	0.361570	0.068522
C87	C	-0.110632	-0.138440	-0.431473
C88	C	0.389368	0.361560	0.068527
C89	C	-0.122299	-0.207470	-0.330169
C90	C	0.377701	0.292530	0.169831
C91	C	-0.075383	-0.207459	-0.330171
C92	C	0.424617	0.292541	0.169829
C93	C	-0.046090	-0.172937	-0.380833
C94	C	0.453910	0.327063	0.119167
O95	O	-0.006120	-0.236771	-0.287109
O96	O	0.493880	0.263229	0.212891
O97	O	0.015510	-0.109069	-0.474567
O98	O	0.515510	0.390931	0.025433
C99	C	0.222477	-0.138380	-0.431471
C100	C	0.722477	0.361620	0.068529
C101	C	0.240099	-0.172891	-0.380821
C102	C	0.740099	0.327109	0.119179
C103	C	0.210805	-0.207408	-0.330173
C104	C	0.710805	0.292592	0.169827
C105	C	0.287016	-0.172881	-0.380815
C106	C	0.787016	0.327119	0.119185
C107	C	0.316309	-0.138364	-0.431463
C108	C	0.816309	0.361636	0.068537
C109	C	0.298686	-0.103855	-0.482118
C110	C	0.798686	0.396145	0.017882
C111	C	0.251771	-0.103863	-0.482119
C112	C	0.751771	0.396137	0.017881
C113	C	0.228428	-0.241917	-0.279518
C114	C	0.728428	0.258083	0.220482
C115	C	0.275344	-0.241906	-0.279520
C116	C	0.775344	0.258094	0.220480
C117	C	0.304638	-0.207389	-0.330169
C118	C	0.804638	0.292611	0.169831
C119	C	0.692881	-0.289622	-0.380726
C120	C	1.192881	0.210378	0.119274
C121	C	0.692893	-0.339557	-0.380724
C122	C	1.192893	0.160443	0.119276
C123	C	0.727512	-0.643344	-0.431429
C124	C	1.227512	-0.143344	0.068571
C125	C	0.727567	-0.831011	-0.431477
C126	C	1.227567	-0.331011	0.068523
O127	O	0.756929	-0.850303	-0.474539
O128	O	1.256929	-0.350303	0.025461
N129	N	0.693044	-0.860324	-0.380880
N130	N	1.193044	-0.360324	0.119120
C131	C	0.658503	-0.842716	-0.330272
C132	C	1.158503	-0.342716	0.169728
O133	O	0.629138	-0.871953	-0.287243
O134	O	1.129138	-0.371953	0.212757
C135	C	0.658448	-0.655049	-0.330229
C136	C	1.158448	-0.155049	0.169771
C137	C	0.692975	-0.625739	-0.380823
C138	C	1.192975	-0.125739	0.119177
C139	C	0.762037	-0.614035	-0.482020
C140	C	1.262037	-0.114035	0.017980
C141	C	0.762025	-0.567121	-0.482005
C142	C	1.262025	-0.067121	0.017995
C143	C	0.727487	-0.549517	-0.431398
C144	C	1.227487	-0.049517	0.068602
C145	C	0.692963	-0.578826	-0.380808
C146	C	1.192963	-0.078826	0.119192
C147	C	0.623905	-0.637441	-0.279625
C148	C	1.123905	-0.137441	0.220375
C149	C	0.623894	-0.590521	-0.279620
C150	C	1.123894	-0.090521	0.220380
C151	C	0.658422	-0.561211	-0.330214
C152	C	1.158422	-0.061211	0.169786
C153	C	0.658413	-0.514307	-0.330186
C154	C	1.158413	-0.014307	0.169814
N155	N	0.692936	-0.484995	-0.380783
N156	N	1.192936	0.015005	0.119217
C157	C	0.727473	-0.502600	-0.431389
C158	C	1.227473	-0.002600	0.068611
C159	C	0.658535	-0.941244	-0.330297
C160	C	1.158535	-0.441244	0.169703
C161	C	0.658550	-0.988160	-0.330306
C162	C	1.158550	-0.488160	0.169694
C163	C	0.727613	-0.976453	-0.431513
C164	C	1.227613	-0.476453	0.068487
C165	C	0.727600	-0.929535	-0.431498
C166	C	1.227600	-0.429535	0.068502
C167	C	0.693058	-0.911932	-0.380893
C168	C	1.193058	-0.411932	0.119107
C169	C	0.727445	-0.404078	-0.431352
C170	C	1.227445	0.095922	0.068648
C171	C	0.727430	-0.357161	-0.431330
C172	C	1.227430	0.142839	0.068670
C173	C	0.658366	-0.368873	-0.330127
C174	C	1.158366	0.131127	0.169873
C175	C	0.658381	-0.415786	-0.330146
C176	C	1.158381	0.084214	0.169854
C177	C	0.692923	-0.433387	-0.380765
C178	C	1.192923	0.066613	0.119235
O179	O	0.629063	-0.494983	-0.287152
O180	O	1.129063	0.005017	0.212848
O181	O	0.756828	-0.473354	-0.474423
O182	O	1.256828	0.026646	0.025577
C183	C	0.727525	-0.690258	-0.431445
C184	C	1.227525	-0.190258	0.068555
C185	C	0.693000	-0.719567	-0.380854
C186	C	1.193000	-0.219567	0.119146
C187	C	0.658463	-0.701962	-0.330248
C188	C	1.158463	-0.201962	0.169752
C189	C	0.693015	-0.766483	-0.380863
C190	C	1.193015	-0.266483	0.119137
C191	C	0.727552	-0.784088	-0.431470
C192	C	1.227552	-0.284088	0.068530
C193	C	0.762075	-0.754776	-0.482066
C194	C	1.262075	-0.254776	0.017934
C195	C	0.762062	-0.707862	-0.482051
C196	C	1.262062	-0.207862	0.017949
C197	C	0.623940	-0.731274	-0.279651
C198	C	1.123940	-0.231274	0.220349
C199	C	0.623956	-0.778187	-0.279670
C200	C	1.123956	-0.278187	0.220330
C201	C	0.658493	-0.795792	-0.330276
C202	C	1.158493	-0.295792	0.169724
C203	C	0.810138	-0.172938	-0.380815
C204	C	1.310138	0.327062	0.119185
C205	C	0.860074	-0.172957	-0.380824
C206	C	1.360074	0.327043	0.119176
C207	C	0.716687	-0.149172	-0.586978
C208	C	1.216687	0.350828	-0.086978
C209	C	0.726800	-0.139065	-0.674843
C210	C	1.226800	0.360935	-0.174843
C211	C	0.693048	-0.055704	-0.380877
C212	C	1.193048	0.444296	0.119123
C213	C	0.693087	-0.005765	-0.380912
C214	C	1.193087	0.494235	0.119088
C215	C	0.616308	-0.249434	-0.963686
C216	C	1.116308	0.250566	-0.463686
C217	C	0.625819	-0.239931	-1.046248
C218	C	1.125819	0.260069	-0.546248
C219	C	0.683322	-0.182492	-1.046290
C220	C	1.183322	0.317508	-0.546290
C221	C	0.673813	-0.191989	-0.963726
C222	C	1.173813	0.308011	-0.463726
C223	C	0.640306	-0.225461	-0.922431
C224	C	1.140306	0.274539	-0.422431
C225	C	0.697812	-0.168016	-0.922471
C226	C	1.197812	0.331984	-0.422471
C227	C	0.688306	-0.177514	-0.839915
C228	C	1.188306	0.322486	-0.339915
C229	C	0.654801	-0.210985	-0.798614
C230	C	1.154801	0.289015	-0.298614
C231	C	0.630800	-0.234959	-0.839875
C232	C	1.130800	0.265041	-0.339875
C233	C	0.731321	-0.134546	-0.963768
C234	C	1.231321	0.365454	-0.463768
C235	C	0.755320	-0.110573	-0.922513
C236	C	1.255320	0.389427	-0.422513
C237	C	0.745812	-0.120069	-0.839955
C238	C	1.245812	0.379931	-0.339955
C239	C	0.712307	-0.153540	-0.798654
C240	C	1.212307	0.346460	-0.298654
C241	C	0.769813	-0.096095	-0.798694
C242	C	1.269813	0.403905	-0.298694
C243	C	0.760307	-0.105593	-0.716138
C244	C	1.260307	0.394407	-0.216138
C245	C	0.702801	-0.163038	-0.716098
C246	C	1.202801	0.336962	-0.216098
C247	C	0.669346	-0.196486	-0.175408
C248	C	1.169346	0.303514	0.324592
C249	C	0.659320	-0.206467	-0.087545
C250	C	1.159320	0.293533	0.412455
H251	H	0.181787	-0.075768	-0.523369
H252	H	0.681787	0.424232	-0.023369
H253	H	0.589012	-0.276680	-0.930061
H254	H	1.089012	0.223320	-0.430061
H255	H	0.755569	-0.418402	-0.472576
H256	H	1.255569	0.081598	0.027424
Cl257	Cl	0.725444	-0.140416	-1.098211
Cl258	Cl	1.225444	0.359584	-0.598211
Cl259	Cl	0.580516	-0.709150	-0.216028
Cl260	Cl	1.080516	-0.209150	0.283972
Cl261	Cl	0.580495	-0.674276	-0.216019
Cl262	Cl	1.080495	-0.174276	0.283981
Cl263	Cl	0.805430	-0.530281	-0.545619
Cl264	Cl	1.305430	-0.030281	-0.045619
H265	H	0.426241	-0.235475	-0.288892
H266	H	0.926241	0.264525	0.211108
Cl267	Cl	0.743273	-0.122607	-1.067554
Cl268	Cl	1.243273	0.377393	-0.567554
H269	H	0.790162	-0.628362	-0.523234
H270	H	1.290162	-0.128362	-0.023234
H271	H	0.790197	-0.769118	-0.523269
H272	H	1.290197	-0.269118	-0.023269
H273	H	0.675506	-0.190283	-0.682473
H274	H	1.175506	0.309717	-0.182473
Cl275	Cl	0.790478	-0.075456	-0.664270
Cl276	Cl	1.290478	0.424544	-0.164270
Cl277	Cl	-0.053229	-0.250851	-0.266498
Cl278	Cl	0.446771	0.249149	0.233502
Cl279	Cl	0.797443	-0.068497	-0.974434
Cl280	Cl	1.297443	0.431503	-0.474434
H281	H	0.603505	-0.262204	-0.806250
H282	H	1.103505	0.237796	-0.306250
Cl283	Cl	0.642852	-0.222929	-0.694827
Cl284	Cl	1.142852	0.277071	-0.194827
H285	H	0.755715	-0.905674	-0.472697
H286	H	1.255715	-0.405674	0.027303
Cl287	Cl	0.580546	-0.815029	-0.216056
Cl288	Cl	1.080546	-0.315029	0.283944
Cl289	Cl	0.595644	-0.270071	-1.098109
Cl290	Cl	1.095644	0.229929	-0.598109
Cl291	Cl	0.335521	-0.060461	-0.545788
Cl292	Cl	0.835521	0.439539	-0.045788
Cl293	Cl	0.805470	-0.671022	-0.545660
Cl294	Cl	1.305470	-0.171022	-0.045660
Cl295	Cl	0.050851	-0.285352	-0.215866
Cl296	Cl	0.550851	0.214648	0.284134
Cl297	Cl	-0.132781	-0.095048	-0.495155
Cl298	Cl	0.367219	0.404952	0.004845
Cl299	Cl	-0.026894	-0.095029	-0.495166
Cl300	Cl	0.473106	0.404971	0.004834
H301	H	0.797097	-0.068845	-0.832329
H302	H	1.297097	0.431155	-0.332329
Cl303	Cl	0.439611	-0.094942	-0.495122
Cl304	Cl	0.939611	0.405058	0.004878
Cl305	Cl	0.088881	-0.060498	-0.545811
Cl306	Cl	0.588881	0.439502	-0.045811
Cl307	Cl	0.771030	-0.998593	-0.495132
Cl308	Cl	1.271030	-0.498593	0.004868
H309	H	0.755548	-0.333298	-0.472530
H310	H	1.255548	0.166702	0.027470
H311	H	0.630437	-1.012022	-0.289099
H312	H	1.130437	-0.512022	0.210901
Cl313	Cl	0.615106	-0.919120	-0.266674
Cl314	Cl	1.115106	-0.419120	0.233326
H315	H	0.532535	-0.110217	-0.472676
H316	H	1.032535	0.389783	0.027324
H317	H	0.630247	-0.354532	-0.288921
H318	H	1.130247	0.145468	0.211079
H319	H	0.511347	-0.235453	-0.288876
H320	H	1.011347	0.264547	0.211124
H321	H	0.148932	-0.270046	-0.238278
H322	H	0.648932	0.229954	0.261722
H323	H	0.630269	-0.439652	-0.288941
H324	H	1.130269	0.060348	0.211059
Cl325	Cl	0.229626	-0.060473	-0.545803
Cl326	Cl	0.729626	0.439527	-0.045803
Cl327	Cl	0.297489	-0.285296	-0.215828
Cl328	Cl	0.797489	0.214704	0.284172
Cl329	Cl	-0.159134	-0.250861	-0.266499
Cl330	Cl	0.340866	0.249139	0.233501
H331	H	0.595765	-0.576191	-0.238412
H332	H	1.095765	-0.076191	0.261588
Cl333	Cl	0.191607	-0.285311	-0.215829
Cl334	Cl	0.691607	0.214689	0.284171
