data_functionalizedCrystal
_audit_creation_method	'MofGen! by Chris Wilmer'
_symmetry_space_group_name_H-M	'P1'
_symmetry_Int_Tables_number	1
_symmetry_cell_setting	triclinic
loop_
_symmetry_equiv_pos_as_xyz
  x,y,z
_cell_length_a	10.654556
_cell_length_b	14.044220
_cell_length_c	9.130313
_cell_angle_alpha	90.000868
_cell_angle_beta	90.003471
_cell_angle_gamma	88.838143
loop_
_atom_site_label
_atom_site_type_symbol
_atom_site_fract_x
_atom_site_fract_y
_atom_site_fract_z
O1	O	1.681226	0.133253	0.121819
O2	O	1.317023	0.145940	0.121819
O3	O	1.493658	0.001576	0.121804
O4	O	1.504591	0.277617	0.121833
O5	O	1.493645	0.001585	-0.121794
O6	O	1.317011	0.145949	-0.121780
O7	O	1.681213	0.133261	-0.121780
Cu8	Cu	1.499111	0.139606	-0.144022
Cu9	Cu	1.499125	0.139596	0.144061
O10	O	1.504579	0.277626	-0.121765
C11	C	1.270125	0.145012	0.000019
C12	C	1.130402	0.142221	0.000019
C13	C	0.933484	0.138289	0.132816
C14	C	1.064769	0.140906	0.132810
C15	C	1.064743	0.140910	-0.132775
C16	C	0.933461	0.138286	-0.132767
C17	C	0.933500	0.138291	0.286150
C18	C	1.064785	0.140908	0.286144
C19	C	1.488866	-0.033766	0.000004
C20	C	1.474590	-0.139086	0.000003
C21	C	1.448491	-0.331919	0.000024
C22	C	1.549739	-0.388885	0.000028
C23	C	1.535218	-0.496184	0.000040
C24	C	1.463011	-0.224610	0.000012
C25	C	1.728111	0.134190	0.000023
C26	C	1.867834	0.136981	0.000033
C27	C	1.509371	0.312967	0.000038
C28	C	1.523646	0.418287	0.000049
N29	N	1.499110	0.139613	-0.346645
C30	C	1.581774	0.197676	-0.423305
C31	C	1.581790	0.197659	-0.576641
C32	C	1.416468	0.081511	-0.576646
C33	C	1.416458	0.081524	-0.423312
C34	C	1.677218	0.264737	-0.423304
C35	C	1.677234	0.264719	-0.576640
N36	N	1.499136	0.139582	0.346684
H37	H	0.901948	0.071314	0.345022
H38	H	0.888585	0.205845	0.333734
O39	O	1.106618	0.229626	0.364107
H40	H	1.022982	0.270989	0.402268
H41	H	1.109705	0.073348	0.333716
H42	H	1.768829	0.234904	-0.624176
O43	O	1.679006	-0.346748	0.000026
H44	H	1.750937	-0.405033	0.000041
O45	O	1.319229	-0.374048	0.000001
H46	H	1.327966	-0.452936	-0.000011
H47	H	1.349158	0.034233	-0.360901
O48	O	1.327315	0.018868	-0.659333
H49	H	1.341203	0.028616	-0.778836
H50	H	1.773927	0.241432	-0.381674
H51	H	1.644865	0.336163	-0.375762
H52	H	1.653818	0.339518	-0.618274
H53	H	0.880015	0.137202	-0.240892
H54	H	1.118193	0.141972	-0.240896
