data_functionalizedCrystal
_audit_creation_method	'MofGen! by Chris Wilmer'
_symmetry_space_group_name_H-M	'P1'
_symmetry_Int_Tables_number	1
_symmetry_cell_setting	triclinic
loop_
_symmetry_equiv_pos_as_xyz
  x,y,z
_cell_length_a	14.044220
_cell_length_b	14.044220
_cell_length_c	13.101039
_cell_angle_alpha	86.332523
_cell_angle_beta	86.335636
_cell_angle_gamma	86.811123
loop_
_atom_site_label
_atom_site_type_symbol
_atom_site_fract_x
_atom_site_fract_y
_atom_site_fract_z
O1	O	1.281975	-0.225342	-0.085218
O2	O	1.781975	0.274658	0.414782
O3	O	1.005303	-0.217036	-0.085220
O4	O	1.505303	0.282964	0.414780
O5	O	1.139486	-0.082854	-0.085209
O6	O	1.639486	0.417146	0.414791
O7	O	1.147792	-0.359524	-0.085229
O8	O	1.647792	0.140476	0.414771
O9	O	1.129860	-0.092499	0.085220
O10	O	1.629860	0.407501	0.585220
O11	O	0.995677	-0.226681	0.085209
O12	O	1.495677	0.273319	0.585209
O13	O	1.272349	-0.234987	0.085211
O14	O	1.772349	0.265013	0.585211
Zn15	Zn	1.132485	-0.232365	0.112270
Zn16	Zn	1.632485	0.267635	0.612270
Zn17	Zn	1.145167	-0.219658	-0.112278
Zn18	Zn	1.645167	0.280342	0.387722
O19	O	1.138166	-0.369169	0.085200
O20	O	1.638166	0.130831	0.585200
C21	C	0.964868	-0.218223	-0.000006
C22	C	1.464868	0.281777	0.499994
C23	C	0.858726	-0.207378	-0.000006
C24	C	1.358726	0.292622	0.499994
C25	C	1.131037	-0.052055	0.000006
C26	C	1.631037	0.447945	0.500006
C27	C	1.120192	0.054088	0.000007
C28	C	1.620192	0.554088	0.500007
C29	C	1.312784	-0.233800	-0.000005
C30	C	1.812784	0.266200	0.499995
C31	C	1.418927	-0.244644	-0.000011
C32	C	1.918927	0.255356	0.499989
C33	C	1.613264	-0.264471	-0.000012
C34	C	2.113264	0.235529	0.499988
C35	C	1.664394	-0.187556	-0.000006
C36	C	2.164394	0.312444	0.499994
C37	C	1.772530	-0.198588	-0.000006
C38	C	2.272530	0.301412	0.499994
C39	C	1.505118	-0.253440	-0.000012
C40	C	2.005118	0.246560	0.499988
C41	C	1.146615	-0.399968	-0.000017
C42	C	1.646615	0.100032	0.499983
C43	C	1.157460	-0.506111	-0.000025
C44	C	1.657460	-0.006111	0.499975
N45	N	1.123836	-0.241038	0.265517
N46	N	1.623836	0.258962	0.765517
C47	C	1.100367	0.248427	-0.000008
C48	C	1.600367	0.748427	0.499992
C49	C	1.177281	0.299557	-0.000010
C50	C	1.677281	0.799557	0.499990
C51	C	1.166250	0.407693	-0.000018
C52	C	1.666250	0.907693	0.499982
C53	C	1.111396	0.140280	0.000001
C54	C	1.611396	0.640280	0.500001
N55	N	1.153823	-0.210978	-0.265526
N56	N	1.653823	0.289022	0.234474
C57	C	1.112070	-0.252846	0.474559
C58	C	1.612070	0.247154	0.974559
C59	C	1.165586	-0.199173	0.525439
C60	C	1.665586	0.300827	1.025439
C61	C	1.159039	-0.205743	0.641757
C62	C	1.659039	0.294257	1.141757
C63	C	1.118616	-0.246277	0.358230
C64	C	1.618616	0.253723	0.858230
H65	H	1.626959	-0.113419	-0.000075
H66	H	2.126959	0.386581	0.499925
H67	H	1.026239	0.285864	-0.000011
H68	H	1.526239	0.785864	0.499989
H69	H	1.650702	-0.338598	-0.000018
H70	H	2.150702	0.161402	0.499982
C71	C	1.277428	0.248985	0.000014
C72	C	1.777428	0.748985	0.500014
H73	H	1.271803	0.181884	0.000031
H74	H	1.771803	0.681884	0.500031
H75	H	1.314500	0.270280	-0.059412
H76	H	1.814500	0.770280	0.440588
H77	H	1.307757	0.263577	0.059460
H78	H	1.807757	0.763577	0.559460
C79	C	1.234154	-0.130464	0.466279
C80	C	1.734154	0.369536	0.966279
H81	H	1.229635	-0.135022	0.394728
H82	H	1.729635	0.364978	0.894728
H83	H	1.217355	-0.066848	0.483790
H84	H	1.717355	0.433152	0.983790
H85	H	1.297791	-0.147158	0.483810
H86	H	1.797791	0.352842	0.983810
C87	C	1.043547	-0.321591	0.533718
C88	C	1.543547	0.178409	1.033718
H89	H	1.048091	-0.317050	0.605268
H90	H	1.548091	0.182950	1.105268
H91	H	0.979899	-0.304947	0.516212
H92	H	1.479899	0.195053	1.016212
H93	H	1.060394	-0.385199	0.516191
H94	H	1.560394	0.114801	1.016191
