data_functionalizedCrystal
_audit_creation_method	'MofGen! by Chris Wilmer'
_symmetry_space_group_name_H-M	'P1'
_symmetry_Int_Tables_number	1
_symmetry_cell_setting	triclinic
loop_
_symmetry_equiv_pos_as_xyz
  x,y,z
_cell_length_a	23.532407
_cell_length_b	13.339070
_cell_length_c	12.376457
_cell_angle_alpha	104.410245
_cell_angle_beta	101.199798
_cell_angle_gamma	80.761014
loop_
_atom_site_label
_atom_site_type_symbol
_atom_site_fract_x
_atom_site_fract_y
_atom_site_fract_z
O1	O	0.277209	-1.358915	-0.094091
O2	O	0.239795	-1.064762	-0.094078
O3	O	0.177002	-1.220704	-0.094064
O4	O	0.340002	-1.202972	-0.094105
O5	O	0.192673	-1.181733	0.093944
O6	O	0.255466	-1.025790	0.093930
O7	O	0.292880	-1.319944	0.093918
Zn8	Zn	0.276661	-1.166679	0.123774
Zn9	Zn	0.256014	-1.218026	-0.123935
O10	O	0.355673	-1.164001	0.093904
C11	C	0.163549	-1.200766	-0.000057
C12	C	0.100114	-1.199406	-0.000048
C13	C	0.241311	-1.007650	-0.000072
C14	C	0.222472	-0.895536	-0.000066
C15	C	0.291365	-1.377056	-0.000091
C16	C	0.310202	-1.489171	-0.000104
C17	C	-0.285491	-1.283186	-0.000114
C18	C	-0.345096	-1.281926	-0.000122
O19	O	-0.369326	-1.359588	-0.000168
N20	N	-0.382667	-1.189215	-0.000118
C21	C	-0.360632	-1.097761	-0.000116
O22	O	-0.398062	-1.018788	-0.000114
C23	C	-0.301029	-1.099024	-0.000115
C24	C	-0.263460	-1.191738	-0.000109
C25	C	-0.247923	-1.375893	-0.000109
C26	C	-0.188322	-1.377152	-0.000098
C27	C	-0.166291	-1.285704	-0.000093
C28	C	-0.203859	-1.192997	-0.000098
C29	C	-0.278996	-1.007572	-0.000122
C30	C	-0.219388	-1.008843	-0.000122
C31	C	-0.181819	-1.101558	-0.000115
C32	C	-0.122227	-1.102808	-0.000082
N33	N	-0.084656	-1.195519	-0.000087
C34	C	-0.106688	-1.286967	-0.000092
C35	C	-0.485801	-1.095117	-0.000119
C36	C	-0.545402	-1.093851	-0.000111
C37	C	-0.529862	-1.278017	-0.000120
C38	C	-0.470259	-1.279280	-0.000119
C39	C	-0.448230	-1.187828	-0.000124
C40	C	0.018477	-1.289604	-0.000069
C41	C	0.078082	-1.290854	-0.000054
C42	C	0.062536	-1.106690	-0.000051
C43	C	0.002937	-1.105438	-0.000060
C44	C	-0.019091	-1.196904	-0.000073
O45	O	-0.097956	-1.025189	-0.000042
O46	O	-0.069253	-1.365930	-0.000109
C47	C	0.369126	-1.183940	-0.000106
C48	C	0.432561	-1.185301	-0.000122
N49	N	0.290753	-1.131644	0.292830
C50	C	0.368949	-0.529282	-0.000121
C51	C	0.386650	-0.634619	-0.000130
C52	C	0.345607	-0.699853	-0.000113
C53	C	0.286860	-0.659741	-0.000089
C54	C	0.269156	-0.554396	-0.000089
C55	C	0.245815	-0.724966	-0.000082
C56	C	0.187068	-0.684854	-0.000057
C57	C	0.169367	-0.579519	-0.000056
C58	C	0.210410	-0.514285	-0.000073
C59	C	0.263518	-0.830312	-0.000082
C60	C	0.163726	-0.855425	-0.000050
C61	C	0.146025	-0.750088	-0.000041
N62	N	0.241919	-1.253069	-0.292990
C63	C	0.209197	-1.334398	0.647833
C64	C	0.199333	-1.358914	0.529495
C65	C	0.222187	-1.302098	0.470323
C66	C	0.254907	-1.220763	0.529500
C67	C	0.264775	-1.196250	0.647849
C68	C	0.277766	-1.163950	0.470339
C69	C	0.310485	-1.082615	0.529516
C70	C	0.320352	-1.058106	0.647854
C71	C	0.297498	-1.114922	0.707026
C72	C	0.267897	-1.188463	0.351990
C73	C	0.323476	-1.050315	0.352007
C74	C	0.333339	-1.025800	0.470344
H75	H	0.108670	-1.366356	-0.000045
H76	H	-0.439674	-1.354776	-0.000115
H77	H	0.000549	-1.364085	-0.000084
H78	H	-0.157738	-1.452651	-0.000097
Br79	Br	0.369631	-0.842812	-0.000124
Br80	Br	0.466373	-0.689053	-0.000172
Br81	Br	-0.277810	-1.500019	-0.000117
H82	H	-0.547811	-1.352480	-0.000128
H83	H	-0.201456	-0.934370	-0.000127
H84	H	0.241257	-1.254686	0.303819
Br85	Br	-0.048049	-0.979606	-0.000043
H86	H	-0.575985	-1.018350	-0.000097
H87	H	0.130305	-0.908540	-0.000042
Br88	Br	0.092449	-0.982588	-0.000043
Br89	Br	0.354498	-0.973210	0.271710
H90	H	0.402358	-0.476162	-0.000144
H91	H	0.190596	-1.380655	0.696018
Br92	Br	0.186389	-0.371319	-0.000054
Br93	Br	0.089636	-0.525091	-0.000069
Br94	Br	0.208800	-1.335369	0.309719
H95	H	0.305527	-1.094959	0.803387
H96	H	0.098191	-0.717415	-0.000030
Br97	Br	-0.455910	-0.970988	-0.000115
H98	H	-0.309576	-0.932076	-0.000134
Br99	Br	0.377743	-0.915417	0.550667
Br100	Br	0.154932	-1.469293	0.449184
Br101	Br	0.364768	-0.947738	0.728169
H102	H	0.311351	-0.862960	-0.000097
