data_functionalizedCrystal
_audit_creation_method	'MofGen! by Chris Wilmer'
_symmetry_space_group_name_H-M	'P1'
_symmetry_Int_Tables_number	1
_symmetry_cell_setting	triclinic
loop_
_symmetry_equiv_pos_as_xyz
  x,y,z
_cell_length_a	10.654541
_cell_length_b	14.421503
_cell_length_c	15.944551
_cell_angle_alpha	89.996660
_cell_angle_beta	83.991333
_cell_angle_gamma	90.006362
loop_
_atom_site_label
_atom_site_type_symbol
_atom_site_fract_x
_atom_site_fract_y
_atom_site_fract_z
O1	O	1.666325	0.077085	0.117955
O2	O	1.300701	0.077094	0.129197
O3	O	1.493497	0.077081	0.001359
O4	O	1.473529	0.077098	0.245794
O5	O	1.493465	-0.077142	0.001378
O6	O	1.300669	-0.077130	0.129216
O7	O	1.666293	-0.077138	0.117974
Cu8	Cu	1.483478	-0.091216	0.123597
Cu9	Cu	1.483516	0.091171	0.123575
O10	O	1.473497	-0.077125	0.245813
C11	C	1.253897	-0.000017	0.128382
C12	C	1.114486	-0.000014	0.125914
N13	N	1.483461	-0.219497	0.123612
C14	C	1.084537	0.000008	0.278779
C15	C	1.004069	0.000023	0.354048
C16	C	0.873081	0.000024	0.351724
C17	C	0.822560	0.000007	0.274122
C18	C	0.903028	-0.000008	0.198852
C19	C	1.034017	-0.000006	0.201185
C20	C	0.932976	-0.000037	0.045989
C21	C	1.063965	-0.000031	0.048311
C22	C	0.882455	-0.000054	-0.031613
C23	C	0.962924	-0.000062	-0.106885
C24	C	1.093919	-0.000062	-0.104557
C25	C	1.144433	-0.000046	-0.026958
C26	C	1.394296	-0.469145	0.182698
C27	C	1.507773	-0.530949	0.199661
C28	C	1.483491	-0.408658	0.123593
C29	C	1.370043	-0.530948	0.106649
C30	C	1.483511	-0.591380	0.123575
C31	C	1.597026	-0.469101	0.140594
C32	C	1.459221	-0.469096	0.047548
C33	C	1.572781	-0.530872	0.064480
C34	C	1.483478	-0.303397	0.123605
C35	C	1.483537	-0.696639	0.123563
C36	C	1.713097	-0.000025	0.118790
C37	C	1.852508	-0.000022	0.121258
C38	C	1.492652	-0.000031	-0.029930
C39	C	1.490167	-0.000031	-0.123190
N40	N	1.483543	0.219453	0.123553
C41	C	1.364722	-0.000016	-0.338772
C42	C	1.422959	-0.076058	-0.399443
C43	C	1.485671	-0.000024	-0.293942
C44	C	1.423019	0.075994	-0.399445
C45	C	1.481319	-0.000013	-0.458880
C46	C	1.543941	-0.076130	-0.353385
C47	C	1.543984	0.075991	-0.353381
C48	C	1.602309	-0.000070	-0.414034
C49	C	1.488175	-0.000031	-0.198925
C50	C	1.478825	-0.000013	-0.553896
C51	C	1.474342	-0.000011	0.277102
C52	C	1.476827	-0.000005	0.370362
H53	H	1.045218	0.000034	0.417231
C54	C	1.340244	0.079228	-0.065251
C55	C	1.288416	-0.000044	-0.024397
H56	H	1.429132	0.079228	-0.063661
H57	H	1.321681	0.079208	-0.122231
H58	H	1.305081	0.133009	-0.037556
H59	H	1.323572	-0.053825	-0.052096
H60	H	1.306989	-0.000032	0.032594
C61	C	0.856619	0.000060	0.503064
C62	C	0.784623	0.000045	0.434460
H63	H	0.802006	0.000080	0.554140
H64	H	0.908314	-0.053720	0.500810
H65	H	0.908350	0.053842	0.500776
H66	H	0.732898	-0.053741	0.436745
H67	H	0.732906	0.053831	0.436715
H68	H	0.715901	-0.000004	0.272236
C69	C	1.258580	-0.079359	-0.190614
C70	C	1.182364	-0.000079	-0.187299
H71	H	1.313172	-0.079370	-0.241700
H72	H	1.307416	-0.079340	-0.144077
H73	H	1.206836	-0.133135	-0.188329
H74	H	1.234108	0.053697	-0.189578
H75	H	1.133523	-0.000089	-0.233848
H76	H	1.318943	-0.442042	0.232722
C77	C	1.434415	-0.622446	0.320777
C78	C	1.535507	-0.567637	0.286462
H79	H	1.451535	-0.645097	0.374363
H80	H	1.359577	-0.586217	0.326989
H81	H	1.423588	-0.673207	0.284254
H82	H	1.546328	-0.516872	0.322982
H83	H	1.610366	-0.603868	0.280254
C84	C	1.725333	-0.335501	0.160007
C85	C	1.726551	-0.432590	0.160107
H86	H	1.805282	-0.312962	0.172080
H87	H	1.708023	-0.313796	0.106164
H88	H	1.661879	-0.313902	0.201720
H89	H	1.789999	-0.454190	0.118389
H90	H	1.743876	-0.454304	0.213958
C91	C	1.549497	0.242332	-0.348804
C92	C	1.613000	0.162776	-0.325805
H93	H	1.592095	0.295914	-0.331773
H94	H	1.547761	0.243265	-0.408236
H95	H	1.465572	0.241778	-0.321989
H96	H	1.696923	0.163327	-0.352626
H97	H	1.614750	0.161844	-0.266362
H98	H	1.274094	-0.558117	0.092326
H99	H	1.264329	-0.000089	-0.306045
C100	C	1.255872	0.000036	0.365340
C101	C	1.228521	0.000016	0.281336
H102	H	1.344762	0.000037	0.366918
H103	H	1.220719	0.053819	0.393020
H104	H	1.220700	-0.053744	0.393049
H105	H	1.263685	0.053800	0.253628
H106	H	1.263689	-0.053772	0.253644
C107	C	0.702993	0.079221	-0.076585
C108	C	0.738472	-0.000051	-0.034173
H109	H	0.614104	0.079220	-0.078170
H110	H	0.727105	0.132996	-0.047839
H111	H	0.743696	0.079197	-0.132516
H112	H	0.697776	-0.000024	0.021761
H113	H	0.714347	-0.053840	-0.062917
C114	C	0.948124	0.079194	-0.237913
C115	C	0.907392	-0.000080	-0.192178
H116	H	0.913843	0.079179	-0.290572
H117	H	0.920504	0.132968	-0.206899
H118	H	1.037652	0.079188	-0.247296
H119	H	0.817864	-0.000071	-0.182790
H120	H	0.935005	-0.053868	-0.223199
H121	H	1.371789	-0.140344	-0.419840
H122	H	1.648301	-0.557804	0.014487
H123	H	1.438639	-0.441906	-0.016733
H124	H	1.595041	-0.140488	-0.333091
C125	C	1.229578	0.162628	-0.388609
C126	C	1.353960	0.162782	-0.426970
H127	H	1.186943	0.216209	-0.405595
H128	H	1.187431	0.108640	-0.405151
H129	H	1.230008	0.162947	-0.329062
H130	H	1.353529	0.162457	-0.486517
H131	H	1.396118	0.216785	-0.410433
H132	H	1.702790	-0.000116	-0.446611
