data_functionalizedCrystal
_audit_creation_method	'MofGen! by Chris Wilmer'
_symmetry_space_group_name_H-M	'P1'
_symmetry_Int_Tables_number	1
_symmetry_cell_setting	triclinic
loop_
_symmetry_equiv_pos_as_xyz
  x,y,z
_cell_length_a	15.500306
_cell_length_b	11.792241
_cell_length_c	11.792241
_cell_angle_alpha	95.806584
_cell_angle_beta	93.169943
_cell_angle_gamma	86.852740
loop_
_atom_site_label
_atom_site_type_symbol
_atom_site_fract_x
_atom_site_fract_y
_atom_site_fract_z
O1	O	0.071860	-1.511615	0.160307
O2	O	0.571860	-1.011615	0.660307
O3	O	0.071880	-1.181275	0.176341
O4	O	0.571880	-0.681275	0.676341
O5	O	0.071863	-1.354461	0.003153
O6	O	0.571863	-0.854461	0.503153
O7	O	0.071876	-1.338429	0.333495
O8	O	0.571876	-0.838429	0.833495
O9	O	-0.072024	-1.345023	-0.006342
O10	O	0.427976	-0.845023	0.493658
O11	O	-0.072007	-1.171837	0.166846
O12	O	0.427993	-0.671837	0.666846
O13	O	-0.072027	-1.502177	0.150812
O14	O	0.427973	-1.002177	0.650812
Cu15	Cu	-0.085155	-1.336145	0.157962
Cu16	Cu	0.414845	-0.836145	0.657962
Cu17	Cu	0.085008	-1.347307	0.169191
Cu18	Cu	0.585008	-0.847307	0.669191
O19	O	-0.072011	-1.328991	0.324000
O20	O	0.427989	-0.828991	0.824000
C21	C	-0.000061	-1.134265	0.170587
C22	C	0.499939	-0.634265	0.670587
C23	C	-0.000053	-1.008252	0.167573
C24	C	0.499947	-0.508252	0.667573
N25	N	-0.204839	-1.328303	0.150064
N26	N	0.295161	-0.828303	0.650064
N27	N	0.204691	-1.355158	0.177080
N28	N	0.704691	-0.855158	0.677080
C29	C	0.749872	-1.394440	0.216521
C30	C	1.249872	-0.894440	0.716521
C31	C	0.659301	-1.388492	0.210541
C32	C	1.159301	-0.888492	0.710541
C33	C	0.614020	-1.316402	0.138110
C34	C	1.114020	-0.816402	0.638110
C35	C	0.659315	-1.250263	0.071645
C36	C	1.159315	-0.750263	0.571645
C37	C	0.749885	-1.256217	0.077620
C38	C	1.249885	-0.756217	0.577620
C39	C	0.340557	-1.294973	0.116590
C40	C	0.840557	-0.794973	0.616590
C41	C	0.249980	-1.289021	0.110623
C42	C	0.749980	-0.789021	0.610623
C43	C	0.249972	-1.427253	0.249518
C44	C	0.749972	-0.927253	0.749518
C45	C	0.340544	-1.433195	0.255492
C46	C	0.840544	-0.933195	0.755492
C47	C	0.385832	-1.367061	0.189023
C48	C	0.885832	-0.867061	0.689023
C49	C	0.521441	-1.310319	0.131998
C50	C	1.021441	-0.810319	0.631998
C51	C	0.478409	-1.373151	0.195129
C52	C	0.978409	-0.873151	0.695129
C53	C	-0.000080	-1.348735	-0.043885
C54	C	0.499920	-0.848735	0.456115
C55	C	-0.000079	-1.345720	-0.169899
C56	C	0.499921	-0.845720	0.330101
C57	C	-0.000084	-1.549187	0.156567
C58	C	0.499916	-1.049187	0.656567
C59	C	-0.000086	-1.675200	0.159581
C60	C	0.499914	-1.175200	0.659581
C61	C	-0.000078	-0.777538	0.162028
C62	C	0.499922	-0.277538	0.662028
C63	C	-0.000065	-0.905924	0.165109
C64	C	0.499935	-0.405924	0.665109
C65	C	-0.000064	-1.340178	-0.400610
C66	C	0.499936	-0.840178	0.099390
C67	C	-0.000072	-1.343258	-0.272225
C68	C	0.499928	-0.843258	0.227775
C69	C	-0.000065	-1.334717	0.371039
C70	C	0.499935	-0.834717	0.871039
C71	C	-0.000061	-1.337732	0.497053
C72	C	0.499939	-0.837732	0.997053
H73	H	0.786734	-1.453137	0.275510
H74	H	1.286734	-0.953137	0.775510
H75	H	0.377406	-1.491902	0.314470
H76	H	0.877406	-0.991902	0.814470
H77	H	0.622430	-1.442350	0.264656
H78	H	1.122430	-0.942350	0.764656
O79	O	0.522352	-1.443343	0.265357
O80	O	1.022352	-0.943343	0.765357
C81	C	0.500192	-1.556932	0.233461
C82	C	1.000192	-1.056932	0.733461
H83	H	0.475284	-1.565887	0.140365
H84	H	0.975284	-1.065887	0.640365
H85	H	0.559751	-1.616693	0.244483
H86	H	1.059751	-1.116693	0.744483
H87	H	0.447625	-1.580068	0.289744
H88	H	0.947625	-1.080068	0.789744
H89	H	0.213089	-1.481096	0.303633
H90	H	0.713089	-0.981096	0.803633
O91	O	0.206129	-1.218969	0.040157
O92	O	0.706129	-0.718969	0.540157
C93	C	0.265525	-1.161814	-0.017166
C94	C	0.765525	-0.661814	0.482834
H95	H	0.330090	-1.212980	-0.019118
H96	H	0.830090	-0.712980	0.480882
H97	H	0.239366	-1.152669	-0.108229
H98	H	0.739366	-0.652669	0.391771
H99	H	0.275146	-1.073580	0.029491
H100	H	0.775146	-0.573580	0.529491
H101	H	0.377419	-1.241121	0.062466
H102	H	0.877419	-0.741121	0.562466
O103	O	0.793748	-1.191855	0.013026
O104	O	1.293748	-0.691855	0.513026
C105	C	0.734363	-1.126969	-0.052206
C106	C	1.234363	-0.626969	0.447794
H107	H	0.669804	-1.116300	-0.009524
H108	H	1.169804	-0.616300	0.490476
H109	H	0.760545	-1.039432	-0.058290
H110	H	1.260545	-0.539432	0.441710
H111	H	0.724719	-1.172704	-0.141551
H112	H	1.224719	-0.672704	0.358449
H113	H	0.622440	-1.191571	0.012664
H114	H	1.122440	-0.691571	0.512664
H115	H	0.484563	-1.251622	0.073024
H116	H	0.984563	-0.751622	0.573024
