data_functionalizedCrystal
_audit_creation_method	'MofGen! by Chris Wilmer'
_symmetry_space_group_name_H-M	'P1'
_symmetry_Int_Tables_number	1
_symmetry_cell_setting	triclinic
loop_
_symmetry_equiv_pos_as_xyz
  x,y,z
_cell_length_a	19.077105
_cell_length_b	18.050588
_cell_length_c	19.076919
_cell_angle_alpha	87.727743
_cell_angle_beta	89.923776
_cell_angle_gamma	87.725951
loop_
_atom_site_label
_atom_site_type_symbol
_atom_site_fract_x
_atom_site_fract_y
_atom_site_fract_z
Zn1	Zn	1.058240	-0.359280	0.440421
Zn2	Zn	1.062870	-0.478688	0.322915
Zn3	Zn	0.945459	-0.349332	0.318214
Zn4	Zn	0.940691	-0.478240	0.435667
O5	O	1.001815	-0.416385	0.379304
O6	O	1.157185	-0.379471	0.428790
O7	O	1.051227	-0.457552	0.223960
O8	O	0.960477	-0.246730	0.334447
O9	O	1.160587	-0.467199	0.342459
O10	O	1.043337	-0.254039	0.424232
O11	O	0.964966	-0.362515	0.220506
O12	O	0.846495	-0.362081	0.329838
O13	O	0.952352	-0.466436	0.534629
O14	O	0.842992	-0.456789	0.416130
O15	O	1.038714	-0.379036	0.538121
O16	O	1.046605	-0.582550	0.337850
O17	O	0.956841	-0.582221	0.420689
C18	C	0.819247	-0.408307	0.371959
C19	C	0.741143	-0.404870	0.368833
C20	C	0.702648	-0.452634	0.412222
C21	C	0.629261	-0.449395	0.409288
C22	C	0.594371	-0.398395	0.362961
C23	C	0.632872	-0.350626	0.319571
C24	C	0.706257	-0.353862	0.322509
C25	C	0.375085	-0.383418	0.349369
C26	C	0.301694	-0.380187	0.346433
C27	C	0.298088	-0.478955	0.436151
C28	C	0.371475	-0.482189	0.439082
C29	C	0.409970	-0.434418	0.395694
N30	N	0.519358	-0.395084	0.359960
N31	N	0.484981	-0.437726	0.398699
C32	C	1.001727	-0.609332	0.379280
C33	C	1.001752	-0.691880	0.379295
C34	C	0.953013	-0.940557	0.424346
C35	C	1.016392	-0.894618	0.444160
C36	C	1.001897	-0.989008	0.379340
C37	C	0.938448	-0.887863	0.359537
C38	C	1.001822	-0.843019	0.379320
C39	C	1.065310	-0.944159	0.399189
C40	C	0.987323	-0.937406	0.314534
C41	C	1.050748	-0.891490	0.334326
C42	C	1.001938	-1.073109	0.379354
C43	C	1.001788	-0.758920	0.379306
C44	C	1.185095	-0.424495	0.386679
C45	C	1.263199	-0.427951	0.389822
C46	C	0.994485	-0.423796	0.562584
C47	C	0.991361	-0.426954	0.640688
C48	C	1.001922	-0.222686	0.379345
C49	C	1.001968	-0.140142	0.379362
C50	C	1.009157	-0.408951	0.196739
C51	C	1.012417	-0.405590	0.118641
C52	C	1.034856	-0.382936	0.679200
C53	C	1.031912	-0.385900	0.752586
C54	C	0.985477	-0.432887	0.787458
C55	C	0.941978	-0.476907	0.748940
C56	C	0.944918	-0.473938	0.675556
C57	C	0.971858	-0.446641	1.006739
C58	C	0.968922	-0.449608	1.080129
C59	C	1.058856	-0.358599	1.083769
C60	C	1.061795	-0.355638	1.010383
C61	C	1.018293	-0.399655	0.971872
N62	N	0.982469	-0.435920	0.862470
N63	N	1.021299	-0.396618	0.896861
H64	H	0.406418	-0.344524	0.314034
H65	H	0.904167	-0.515162	0.777339
Cl66	Cl	0.917170	-0.501978	0.958335
Cl67	Cl	0.580869	-0.509443	0.463837
H68	H	0.731050	-0.494166	0.449943
Cl69	Cl	0.589010	-0.286507	0.261336
Cl70	Cl	1.114592	-0.858428	0.275553
Cl71	Cl	1.120173	-0.296567	0.966549
Cl72	Cl	1.035385	-0.865432	0.528761
Cl73	Cl	0.890235	-0.529276	0.627140
H74	H	0.737600	-0.314964	0.287180
Cl75	Cl	1.148126	-0.982021	0.425134
Cl76	Cl	0.415332	-0.546308	0.497321
Cl77	Cl	0.249691	-0.539007	0.490691
Cl78	Cl	1.086625	-0.330594	0.800999
Cl79	Cl	0.257834	-0.316073	0.288184
H80	H	0.911752	-0.962108	0.462447
Cl81	Cl	0.910539	-0.508678	1.123968
Cl82	Cl	0.968302	-0.966620	0.229954
Cl83	Cl	0.855653	-0.849859	0.333689
Cl84	Cl	1.093238	-0.323867	0.635368
Cl85	Cl	1.113537	-0.303264	1.132187
