data_functionalizedCrystal
_audit_creation_method	'MofGen! by Chris Wilmer'
_symmetry_space_group_name_H-M	'P1'
_symmetry_Int_Tables_number	1
_symmetry_cell_setting	triclinic
loop_
_symmetry_equiv_pos_as_xyz
  x,y,z
_cell_length_a	9.065218
_cell_length_b	10.654550
_cell_length_c	9.730223
_cell_angle_alpha	89.995869
_cell_angle_beta	90.000745
_cell_angle_gamma	95.249606
loop_
_atom_site_label
_atom_site_type_symbol
_atom_site_fract_x
_atom_site_fract_y
_atom_site_fract_z
O1	O	1.959386	-0.184161	0.114290
O2	O	1.530019	-0.199267	0.114291
O3	O	1.754575	-0.009014	0.114285
O4	O	1.734831	-0.374414	0.114296
O5	O	1.754572	-0.009004	-0.114295
O6	O	1.530016	-0.199257	-0.114289
O7	O	1.959384	-0.184152	-0.114290
Zn8	Zn	1.744699	-0.191703	-0.150581
Zn9	Zn	1.744703	-0.191715	0.150582
O10	O	1.734828	-0.374404	-0.114284
C11	C	1.475039	-0.197810	0.000001
C12	C	1.311220	-0.193469	0.000002
N13	N	1.744707	-0.191715	0.356119
C14	C	1.753124	0.037795	-0.000003
C15	C	1.748786	0.177255	0.000002
C16	C	2.014364	-0.185608	0.000002
C17	C	2.178183	-0.189949	0.000011
C18	C	1.736279	-0.421213	0.000007
C19	C	1.740616	-0.560673	0.000011
C20	C	1.881001	0.256217	-0.000003
C21	C	1.876917	0.387254	0.000007
C22	C	1.608391	0.360354	0.000020
C23	C	1.612477	0.229320	0.000020
C24	C	2.036032	0.271749	-0.000016
C25	C	2.031948	0.402786	-0.000007
N26	N	1.744708	-0.191694	-0.356118
C27	C	1.844327	-0.107638	0.428042
C28	C	1.844331	-0.107630	0.571925
C29	C	1.645083	-0.275780	0.571949
C30	C	1.645086	-0.275793	0.428068
C31	C	1.959357	-0.010554	0.428030
C32	C	1.959362	-0.010546	0.571913
H33	H	1.504815	0.165033	0.000043
H34	H	1.934374	0.086146	0.610944
H35	H	2.085399	0.235930	-0.098713
Br36	Br	2.137102	0.222397	0.159404
H37	H	1.497413	0.402762	0.000036
Br38	Br	2.110033	0.478558	0.164485
Br39	Br	2.129301	0.472022	-0.159437
H40	H	1.563981	-0.344265	0.369509
H41	H	1.563975	-0.344234	0.630545
H42	H	2.072676	-0.032699	0.388993
Br43	Br	1.899924	0.141811	0.353602
H44	H	2.066409	-0.041719	0.616547
