data_functionalizedCrystal
_audit_creation_method	'MofGen! by Chris Wilmer'
_symmetry_space_group_name_H-M	'P1'
_symmetry_Int_Tables_number	1
_symmetry_cell_setting	triclinic
loop_
_symmetry_equiv_pos_as_xyz
  x,y,z
_cell_length_a	10.489741
_cell_length_b	19.188930
_cell_length_c	9.565339
_cell_angle_alpha	89.995116
_cell_angle_beta	89.999100
_cell_angle_gamma	83.841978
loop_
_atom_site_label
_atom_site_type_symbol
_atom_site_fract_x
_atom_site_fract_y
_atom_site_fract_z
O1	O	1.691850	0.098497	-0.116191
O2	O	1.320448	0.107743	-0.116215
O3	O	1.516867	0.001537	-0.116175
O4	O	1.495431	0.204704	-0.116231
O5	O	1.516852	0.001543	0.116345
O6	O	1.320432	0.107750	0.116305
O7	O	1.691835	0.098504	0.116329
Zn8	Zn	1.506131	0.103128	0.153235
Zn9	Zn	1.506152	0.103119	-0.153121
O10	O	1.495416	0.204711	0.116289
C11	C	1.272924	0.107048	0.000043
C12	C	1.131341	0.104959	0.000035
C13	C	1.064712	0.037383	0.000067
C14	C	0.971879	0.069302	-0.114584
C15	C	0.971898	0.069325	0.114663
C16	C	1.040373	0.136906	-0.114710
C17	C	1.040401	0.136919	0.114640
C18	C	0.947595	0.168887	-0.000039
C19	C	1.516165	-0.024476	0.000089
C20	C	1.514081	-0.101994	0.000101
C21	C	1.629334	-0.146146	0.000115
C22	C	1.627376	-0.218983	0.000092
C23	C	1.510159	-0.247665	0.000084
C24	C	1.394892	-0.203503	0.000062
C25	C	1.396853	-0.130668	0.000071
N26	N	1.420556	-0.356268	0.079209
N27	N	1.418701	-0.425459	0.079204
C28	C	1.504244	-0.467113	0.000055
N29	N	1.591732	-0.436964	-0.079071
N30	N	1.593590	-0.367767	-0.079059
C31	C	1.508020	-0.326642	0.000074
C32	C	1.617382	-0.590244	0.000043
C33	C	1.615419	-0.663081	0.000012
C34	C	1.382932	-0.647600	-0.000004
C35	C	1.384898	-0.574764	0.000013
C36	C	1.502126	-0.546090	0.000043
C37	C	1.739359	0.099199	0.000068
C38	C	1.880941	0.101288	0.000067
C39	C	1.496118	0.230723	0.000022
C40	C	1.498202	0.308242	0.000001
N41	N	1.506127	0.103134	0.362314
N42	N	1.506166	0.103108	-0.362200
C43	C	1.415262	0.152234	0.453499
C44	C	1.530443	0.166361	0.546681
C45	C	1.390995	0.089012	0.546688
C46	C	1.621366	0.117292	0.453444
C47	C	1.481842	0.039916	0.453443
C48	C	1.597107	0.054016	0.546583
H49	H	1.070802	0.165492	0.211559
O50	O	1.272855	-0.531943	-0.000169
C51	C	1.201682	-0.545012	-0.120617
H52	H	1.233313	-0.600092	-0.160773
H53	H	1.095275	-0.540427	-0.093539
H54	H	1.218902	-0.505085	-0.204936
H55	H	1.551011	0.219812	0.587634
H56	H	1.338490	0.193796	0.412628
O57	O	1.274875	0.074644	0.595479
C58	C	1.248521	0.008494	0.545904
H59	H	1.342291	-0.024250	0.518280
H60	H	1.196599	-0.019380	0.630480
H61	H	1.185363	0.015621	0.448869
H62	H	1.718768	0.129289	0.412658
O63	O	1.284975	-0.087704	0.000250
C64	C	1.279130	-0.045133	0.120700
H65	H	1.380344	-0.040946	0.160862
H66	H	1.231319	0.009364	0.093622
H67	H	1.221001	-0.069390	0.205013
H68	H	1.674049	0.012480	0.587197
O69	O	1.731363	-0.562500	-0.000015
C70	C	1.832672	-0.617093	0.000008
H71	H	1.797195	-0.666740	-0.044018
H72	H	1.914533	-0.601456	-0.067501
H73	H	1.868209	-0.627227	0.111556
O74	O	1.727264	-0.706073	-0.000044
C75	C	1.700401	-0.776510	-0.000035
H76	H	1.600240	-0.779801	-0.044071
H77	H	1.773899	-0.809126	-0.067541
H78	H	1.705342	-0.797558	0.111511
O79	O	0.935725	0.035079	-0.230097
C80	C	0.995977	-0.034230	-0.229694
H81	H	1.023775	-0.050291	-0.118126
H82	H	0.927171	-0.071002	-0.272984
H83	H	1.085705	-0.037442	-0.297645
O84	O	1.076520	0.171052	-0.230338
C85	C	1.136979	0.229983	-0.189450
H86	H	1.176135	0.221784	-0.078811
H87	H	1.219179	0.237126	-0.264258
H88	H	1.064516	0.278693	-0.192218
O89	O	0.887195	0.235240	-0.000372
C90	C	0.922123	0.270598	-0.121399
H91	H	0.955614	0.230679	-0.205492
H92	H	0.835837	0.306193	-0.161417
H93	H	1.003157	0.303512	-0.095154
O94	O	1.269178	-0.675568	0.000042
C95	C	1.292158	-0.749323	-0.000007
H96	H	1.391782	-0.765927	0.044026
H97	H	1.217167	-0.772068	0.067483
H98	H	1.286105	-0.769615	-0.111564
O99	O	0.935867	0.035113	0.230260
C100	C	0.996078	-0.034204	0.229815
H101	H	1.086299	-0.037101	0.162701
H102	H	1.023053	-0.050805	0.341313
H103	H	0.927574	-0.070757	0.185075
H104	H	1.724790	-0.122805	0.000135
H105	H	1.721231	-0.254938	0.000098
H106	H	1.299453	-0.226861	0.000052
O107	O	1.457493	-0.023855	0.404464
C108	C	1.562121	-0.053025	0.323362
H109	H	1.652125	-0.028562	0.355202
H110	H	1.577567	-0.112062	0.341292
H111	H	1.541278	-0.042039	0.208013
H112	H	1.115644	-0.018169	-0.000061
