data_functionalizedCrystal
_audit_creation_method	'MofGen! by Chris Wilmer'
_symmetry_space_group_name_H-M	'P1'
_symmetry_Int_Tables_number	1
_symmetry_cell_setting	triclinic
loop_
_symmetry_equiv_pos_as_xyz
  x,y,z
_cell_length_a	13.897441
_cell_length_b	13.897449
_cell_length_c	13.897448
_cell_angle_alpha	90.018972
_cell_angle_beta	90.030599
_cell_angle_gamma	90.020733
loop_
_atom_site_label
_atom_site_type_symbol
_atom_site_fract_x
_atom_site_fract_y
_atom_site_fract_z
Zn1	Zn	-0.545381	-1.474703	0.383951
Zn2	Zn	-0.384083	-1.474597	0.545273
Zn3	Zn	-0.384100	-1.313392	0.383997
Zn4	Zn	-0.545335	-1.313373	0.545210
O5	O	-0.464725	-1.394016	0.464608
O6	O	-0.523997	-1.609670	0.405358
O7	O	-0.249103	-1.453176	0.523925
O8	O	-0.405520	-1.334842	0.249009
O9	O	-0.405491	-1.609592	0.523881
O10	O	-0.524013	-1.453356	0.248976
O11	O	-0.249116	-1.334739	0.405436
O12	O	-0.405476	-1.178408	0.405375
O13	O	-0.680323	-1.334811	0.523773
O14	O	-0.523935	-1.178394	0.523817
O15	O	-0.680357	-1.453339	0.405297
O16	O	-0.405447	-1.453158	0.680246
O17	O	-0.523918	-1.334708	0.680200
C18	C	-0.464703	-1.143402	0.464595
C19	C	-0.464716	-1.036188	0.464613
C20	C	-0.716318	-1.394085	0.464522
C21	C	-0.823532	-1.394114	0.464486
C22	C	-0.464697	-1.393946	0.715222
C23	C	-0.464717	-1.394004	0.822436
C24	C	-1.019827	-1.394140	0.464421
C25	C	-0.910594	-1.394122	0.464460
C26	C	-0.214110	-1.394003	0.464623
C27	C	-0.106897	-1.394161	0.464388
C28	C	-0.464747	-1.645609	0.464621
C29	C	-0.464757	-1.752823	0.464627
C30	C	-0.464741	-0.839893	0.464616
C31	C	-0.464725	-0.949125	0.464611
C32	C	-0.464774	-1.394113	0.213015
C33	C	-0.464795	-1.394154	0.105801
C34	C	-0.464778	-1.394105	1.018731
C35	C	-0.464747	-1.394046	0.909499
