data_functionalizedCrystal
_audit_creation_method	'MofGen! by Chris Wilmer'
_symmetry_space_group_name_H-M	'P1'
_symmetry_Int_Tables_number	1
_symmetry_cell_setting	triclinic
loop_
_symmetry_equiv_pos_as_xyz
  x,y,z
_cell_length_a	29.839134
_cell_length_b	29.839131
_cell_length_c	18.101390
_cell_angle_alpha	89.964306
_cell_angle_beta	89.972820
_cell_angle_gamma	90.036281
loop_
_atom_site_label
_atom_site_type_symbol
_atom_site_fract_x
_atom_site_fract_y
_atom_site_fract_z
Zn1	Zn	0.686743	-0.178898	-0.418911
Zn2	Zn	1.020076	0.154435	-0.085578
Zn3	Zn	1.353409	0.487769	0.247756
Zn4	Zn	0.686668	-0.254034	-0.295063
Zn5	Zn	1.020001	0.079300	0.038270
Zn6	Zn	1.353335	0.412633	0.371603
Zn7	Zn	0.611619	-0.178912	-0.295063
Zn8	Zn	0.944952	0.154422	0.038271
Zn9	Zn	1.278285	0.487755	0.371604
Zn10	Zn	0.611573	-0.253995	-0.418842
Zn11	Zn	0.944907	0.079338	-0.085509
Zn12	Zn	1.278240	0.412672	0.247824
O13	O	0.649151	-0.216460	-0.356970
O14	O	0.982484	0.116874	-0.023636
O15	O	1.315817	0.450207	0.309697
O16	O	0.749600	-0.188875	-0.402511
O17	O	1.082933	0.144458	-0.069178
O18	O	1.416267	0.477791	0.264155
O19	O	0.676700	-0.244091	-0.191430
O20	O	1.010034	0.089243	0.141903
O21	O	1.343367	0.422576	0.475237
O22	O	0.621634	-0.116043	-0.311520
O23	O	0.954968	0.217290	0.021814
O24	O	1.288301	0.550624	0.355147
O25	O	0.749545	-0.244077	-0.311521
O26	O	1.082878	0.089256	0.021812
O27	O	1.416212	0.422589	0.355146
O28	O	0.676828	-0.116033	-0.402511
O29	O	1.010161	0.217301	-0.069177
O30	O	1.343494	0.550634	0.264156
O31	O	0.621562	-0.188899	-0.191430
O32	O	0.954895	0.144435	0.141904
O33	O	1.288229	0.477768	0.475237
O34	O	0.548746	-0.188861	-0.311453
O35	O	0.882079	0.144472	0.021880
O36	O	1.215412	0.477805	0.355213
O37	O	0.621557	-0.244011	-0.522484
O38	O	0.954890	0.089322	-0.189151
O39	O	1.288224	0.422655	0.144182
O40	O	0.548712	-0.244025	-0.402394
O41	O	0.882045	0.089309	-0.069060
O42	O	1.215379	0.422642	0.264273
O43	O	0.676784	-0.188838	-0.522535
O44	O	1.010117	0.144495	-0.189201
O45	O	1.343450	0.477829	0.144132
O46	O	0.676656	-0.316896	-0.311454
O47	O	1.009990	0.016438	0.021879
O48	O	1.343323	0.349771	0.355212
O49	O	0.621484	-0.316867	-0.402394
O50	O	0.954818	0.016466	-0.069061
O51	O	1.288151	0.349799	0.264272
C52	C	0.532428	-0.216441	-0.356916
C53	C	0.865761	0.116893	-0.023583
C54	C	1.199095	0.450226	0.309750
C55	C	0.482494	-0.216443	-0.356911
C56	C	0.815827	0.116890	-0.023578
C57	C	1.149160	0.450223	0.309756
C58	C	0.649070	-0.333182	-0.356933
C59	C	0.982403	0.000151	-0.023600
C60	C	1.315736	0.333484	0.309734
C61	C	0.649076	-0.383117	-0.356942
C62	C	0.982409	-0.049783	-0.023609
C63	C	1.315743	0.283550	0.309725
C64	C	0.677931	-0.692762	-0.309687
C65	C	1.011264	-0.359429	0.023647
C66	C	1.344598	-0.026096	0.356980
C67	C	0.677986	-0.880435	-0.309715
C68	C	1.011320	-0.547102	0.023618
C69	C	1.344653	-0.213769	0.356951
O70	O	0.702455	-0.904702	-0.269509
O71	O	1.035789	-0.571369	0.063825
O72	O	1.369122	-0.238035	0.397158
N73	N	0.649244	-0.903902	-0.357026
N74	N	0.982577	-0.570568	-0.023692
N75	N	1.315910	-0.237235	0.309641
C76	C	0.620487	-0.880447	-0.404336
C77	C	0.953821	-0.547114	-0.071002
C78	C	1.287154	-0.213780	0.262331
O79	O	0.596045	-0.904713	-0.444582
O80	O	0.929378	-0.571380	-0.111249
O81	O	1.262711	-0.238046	0.222085
C82	C	0.620435	-0.692775	-0.404310
C83	C	0.953768	-0.359442	-0.070977
C84	C	1.287101	-0.026108	0.262357
C85	C	0.649176	-0.669311	-0.356991
C86	C	0.982509	-0.335978	-0.023658
C87	C	1.315842	-0.002644	0.309675
C88	C	0.706670	-0.669298	-0.262372
C89	C	1.040003	-0.335965	0.070961
C90	C	1.373337	-0.002631	0.404294
C91	C	0.706654	-0.622383	-0.262363
C92	C	1.039987	-0.289049	0.070971
C93	C	1.373321	0.044284	0.404304
C94	C	0.677899	-0.598931	-0.309667
C95	C	1.011232	-0.265598	0.023666
C96	C	1.344566	0.067735	0.356999
C97	C	0.649160	-0.622395	-0.356982
C98	C	0.982493	-0.289062	-0.023648
C99	C	1.315827	0.044271	0.309685
C100	C	0.591681	-0.669321	-0.451623
C101	C	0.925014	-0.335988	-0.118290
C102	C	1.258348	-0.002654	0.215044
C103	C	0.591671	-0.622400	-0.451614
C104	C	0.925004	-0.289067	-0.118281
C105	C	1.258338	0.044267	0.215053
C106	C	0.620412	-0.598936	-0.404295
C107	C	0.953746	-0.265603	-0.070962
C108	C	1.287079	0.067731	0.262372
C109	C	0.620389	-0.552029	-0.404277
C110	C	0.953722	-0.218695	-0.070944
C111	C	1.287056	0.114638	0.262390
N112	N	0.649131	-0.528562	-0.356967
N113	N	0.982465	-0.195229	-0.023633
N114	N	1.315798	0.138105	0.309700
C115	C	0.677887	-0.552013	-0.309662
C116	C	1.011220	-0.218680	0.023672
C117	C	1.344553	0.114653	0.357005
C118	C	0.620517	-0.978978	-0.404345
C119	C	0.953850	-0.645644	-0.071011
C120	C	1.287183	-0.312311	0.262322
C121	C	0.620529	-1.025896	-0.404350
C122	C	0.953863	-0.692562	-0.071017
C123	C	1.287196	-0.359229	0.262316
C124	C	0.678029	-1.025880	-0.309731
C125	C	1.011362	-0.692547	0.023603
C126	C	1.344695	-0.359214	0.356936
C127	C	0.678014	-0.978962	-0.309722
C128	C	1.011347	-0.645628	0.023611
C129	C	1.344680	-0.312295	0.356945
C130	C	0.649259	-0.955511	-0.357034
C131	C	0.982592	-0.622178	-0.023701
C132	C	1.315926	-0.288845	0.309632
C133	C	0.677851	-0.453488	-0.309645
C134	C	1.011184	-0.120154	0.023689
C135	C	1.344517	0.213179	0.357022
C136	C	0.677831	-0.406568	-0.309637
C137	C	1.011164	-0.073235	0.023696
C138	C	1.344498	0.260099	0.357029
C139	C	0.620333	-0.406587	-0.404259
C140	C	0.953667	-0.073254	-0.070926
C141	C	1.287000	0.260079	0.262407
C142	C	0.620351	-0.453503	-0.404264
C143	C	0.953685	-0.120169	-0.070931
C144	C	1.287018	0.213164	0.262402
C145	C	0.649114	-0.476952	-0.356955
C146	C	0.982447	-0.143618	-0.023621
C147	C	1.315780	0.189715	0.309712
O148	O	0.595936	-0.527733	-0.444468
O149	O	0.929270	-0.194400	-0.111135
O150	O	1.262603	0.138934	0.222198
O151	O	0.702333	-0.527739	-0.269433
O152	O	1.035666	-0.194406	0.063900
O153	O	1.368999	0.138927	0.397234
C154	C	0.677947	-0.739678	-0.309696
C155	C	1.011280	-0.406344	0.023637
C156	C	1.344613	-0.073011	0.356971
C157	C	0.649208	-0.763142	-0.357010
C158	C	0.982541	-0.429808	-0.023677
C159	C	1.315874	-0.096475	0.309656
C160	C	0.620452	-0.739690	-0.404315
C161	C	0.953786	-0.406357	-0.070982
C162	C	1.287119	-0.073024	0.262352
C163	C	0.649220	-0.810060	-0.357016
C164	C	0.982553	-0.476726	-0.023683
C165	C	1.315887	-0.143393	0.309651
C166	C	0.677975	-0.833511	-0.309711
C167	C	1.011309	-0.500178	0.023622
C168	C	1.344642	-0.166844	0.356955
C169	C	0.706718	-0.810044	-0.262401
C170	C	1.040051	-0.476711	0.070932
C171	C	1.373384	-0.143378	0.404266
C172	C	0.706702	-0.763129	-0.262391
C173	C	1.040035	-0.429796	0.070942
C174	C	1.373368	-0.096462	0.404275
C175	C	0.591710	-0.763157	-0.451625
C176	C	0.925043	-0.429824	-0.118292
C177	C	1.258377	-0.096490	0.215041
C178	C	0.591728	-0.810072	-0.451631
C179	C	0.925061	-0.476739	-0.118297
C180	C	1.258395	-0.143406	0.215036
C181	C	0.620483	-0.833524	-0.404326
C182	C	0.953816	-0.500190	-0.070992
C183	C	1.287150	-0.166857	0.262341
C184	C	0.172842	-0.245226	-0.404264
C185	C	0.506176	0.088108	-0.070931
C186	C	0.839509	0.421441	0.262402
C187	C	-0.014831	-0.245238	-0.404297
C188	C	0.318503	0.088095	-0.070964
C189	C	0.651836	0.421428	0.262369
O190	O	-0.039102	-0.269689	-0.444527
O191	O	0.294231	0.063644	-0.111194
O192	O	0.627564	0.396978	0.222139
N193	N	-0.038291	-0.216476	-0.357025
N194	N	0.295042	0.116857	-0.023692
N195	N	0.628375	0.450191	0.309641
C196	C	-0.014831	-0.187707	-0.309746
C197	C	0.318502	0.145627	0.023588
C198	C	0.651836	0.478960	0.356921
O199	O	-0.039092	-0.163240	-0.269544
O200	O	0.294241	0.170094	0.063789
O201	O	0.627575	0.503427	0.397123
C202	C	0.172841	-0.187692	-0.309717
C203	C	0.506175	0.145641	0.023616
C204	C	0.839508	0.478975	0.356950
C205	C	0.196299	-0.216459	-0.356986
C206	C	0.529633	0.116874	-0.023653
C207	C	0.862966	0.450207	0.309680
C208	C	0.196301	-0.273990	-0.451531
C209	C	0.529634	0.059343	-0.118197
C210	C	0.862967	0.392676	0.215136
C211	C	0.243216	-0.273989	-0.451519
C212	C	0.576549	0.059345	-0.118186
C213	C	0.909883	0.392678	0.215148
C214	C	0.266673	-0.245222	-0.404241
C215	C	0.600007	0.088111	-0.070908
C216	C	0.933340	0.421444	0.262425
C217	C	0.243215	-0.216458	-0.356975
C218	C	0.576548	0.116876	-0.023642
C219	C	0.909882	0.450209	0.309692
C220	C	0.196301	-0.158921	-0.262441
C221	C	0.529634	0.174413	0.070892
C222	C	0.862967	0.507746	0.404225
C223	C	0.243222	-0.158919	-0.262440
C224	C	0.576555	0.174415	0.070894
C225	C	0.909888	0.507748	0.404227
C226	C	0.266680	-0.187686	-0.309709
C227	C	0.600013	0.145647	0.023624
C228	C	0.933347	0.478981	0.356957
C229	C	0.313588	-0.187690	-0.309685
C230	C	0.646921	0.145644	0.023648
C231	C	0.980254	0.478977	0.356981
N232	N	0.337048	-0.216452	-0.356957
N233	N	0.670382	0.116882	-0.023624
N234	N	1.003715	0.450215	0.309709
C235	C	0.313591	-0.245218	-0.404235
C236	C	0.646924	0.088115	-0.070902
C237	C	0.980258	0.421449	0.262432
C238	C	-0.113362	-0.187717	-0.309763
C239	C	0.219972	0.145616	0.023570
C240	C	0.553305	0.478950	0.356904
C241	C	-0.160279	-0.187721	-0.309769
C242	C	0.173054	0.145612	0.023564
C243	C	0.506387	0.478946	0.356898
C244	C	-0.160276	-0.245252	-0.404322
C245	C	0.173057	0.088081	-0.070989
C246	C	0.506391	0.421414	0.262345
C247	C	-0.113357	-0.245250	-0.404312
C248	C	0.219976	0.088083	-0.070978
C249	C	0.553309	0.421416	0.262355
C250	C	-0.089901	-0.216479	-0.357035
C251	C	0.243432	0.116854	-0.023701
C252	C	0.576766	0.450187	0.309632
C253	C	0.412117	-0.245213	-0.404207
C254	C	0.745450	0.088121	-0.070873
C255	C	1.078784	0.421454	0.262460
C256	C	0.459037	-0.245210	-0.404189
C257	C	0.792370	0.088124	-0.070856
C258	C	1.125703	0.421457	0.262478
C259	C	0.459029	-0.187677	-0.309639
C260	C	0.792362	0.145656	0.023694
C261	C	1.125696	0.478990	0.357028
C262	C	0.412113	-0.187681	-0.309654
C263	C	0.745447	0.145652	0.023679
C264	C	1.078780	0.478985	0.357013
C265	C	0.388659	-0.216451	-0.356944
C266	C	0.721992	0.116883	-0.023610
C267	C	1.055325	0.450216	0.309723
O268	O	0.337888	-0.163248	-0.269483
O269	O	0.671221	0.170085	0.063851
O270	O	1.004555	0.503419	0.397184
O271	O	0.337860	-0.269675	-0.444442
O272	O	0.671194	0.063659	-0.111109
O273	O	1.004527	0.396992	0.222225
C274	C	0.125927	-0.245227	-0.404276
C275	C	0.459260	0.088106	-0.070943
C276	C	0.792594	0.421439	0.262391
C277	C	0.102469	-0.216463	-0.357010
C278	C	0.435802	0.116870	-0.023676
C279	C	0.769135	0.450204	0.309657
C280	C	0.125926	-0.187696	-0.309732
C281	C	0.459259	0.145637	0.023602
C282	C	0.792592	0.478970	0.356935
C283	C	0.055551	-0.216467	-0.357016
C284	C	0.388884	0.116866	-0.023682
C285	C	0.722217	0.450200	0.309651
C286	C	0.032094	-0.245233	-0.404294
C287	C	0.365427	0.088100	-0.070960
C288	C	0.698760	0.421433	0.262373
C289	C	0.055554	-0.273996	-0.451565
C290	C	0.388888	0.059338	-0.118232
C291	C	0.722221	0.392671	0.215101
C292	C	0.102470	-0.273994	-0.451554
C293	C	0.435803	0.059339	-0.118220
C294	C	0.769136	0.392673	0.215113
C295	C	0.102465	-0.158934	-0.262460
C296	C	0.435798	0.174399	0.070873
C297	C	0.769132	0.507732	0.404207
C298	C	0.055549	-0.158939	-0.262475
C299	C	0.388883	0.174395	0.070859
C300	C	0.722216	0.507728	0.404192
C301	C	0.032092	-0.187705	-0.309753
C302	C	0.365426	0.145628	0.023581
C303	C	0.698759	0.478962	0.356914
C304	C	0.766329	-0.216479	-0.357024
C305	C	1.099662	0.116854	-0.023690
C306	C	1.432996	0.450188	0.309643
C307	C	0.816263	-0.216487	-0.357047
C308	C	1.149597	0.116846	-0.023713
C309	C	1.482930	0.450179	0.309620
C310	C	0.649173	-0.216419	-0.550132
C311	C	0.982507	0.116914	-0.216798
C312	C	1.315840	0.450248	0.116535
C313	C	0.649183	-0.216401	-0.632446
C314	C	0.982517	0.116932	-0.299113
C315	C	1.315850	0.450265	0.034221
C316	C	0.649244	-0.099281	-0.357023
C317	C	0.982578	0.234052	-0.023689
C318	C	1.315911	0.567385	0.309644
C319	C	0.649284	-0.049347	-0.357045
C320	C	0.982618	0.283986	-0.023712
C321	C	1.315951	0.617320	0.309621
C322	C	0.649199	-0.216387	-0.783154
C323	C	0.982533	0.116946	-0.449821
C324	C	1.315866	0.450279	-0.116488
C325	C	0.683948	-0.181671	-0.814540
C326	C	1.017281	0.151663	-0.481207
C327	C	1.350614	0.484996	-0.147873
C328	C	0.684093	-0.181765	-0.900158
C329	C	1.017426	0.151569	-0.566825
C330	C	1.350759	0.484902	-0.233492
C331	C	0.649215	-0.216373	-0.931537
C332	C	0.982548	0.116961	-0.598204
C333	C	1.315882	0.450294	-0.264870
C334	C	0.661870	-0.263759	-0.900426
C335	C	0.995204	0.069574	-0.567093
C336	C	1.328537	0.402908	-0.233759
C337	C	0.662113	-0.263566	-0.814781
C338	C	0.995447	0.069767	-0.481448
C339	C	1.328780	0.403100	-0.148115
C340	C	0.601711	-0.204129	-0.814699
C341	C	0.935044	0.129204	-0.481366
C342	C	1.268378	0.462538	-0.148033
C343	C	0.601975	-0.203076	-0.900351
C344	C	0.935309	0.130257	-0.567018
C345	C	1.268642	0.463590	-0.233684
C346	C	0.649223	-0.216367	-1.015397
C347	C	0.982557	0.116966	-0.682063
C348	C	1.315890	0.450299	-0.348730
C349	C	0.649192	-0.216396	-0.699295
C350	C	0.982526	0.116937	-0.365962
C351	C	1.315859	0.450271	-0.032628
C352	C	0.649154	-0.216468	-0.164559
C353	C	0.982487	0.116865	0.168774
C354	C	1.315820	0.450199	0.502107
C355	C	0.649231	-0.216359	-0.082246
C356	C	0.982565	0.116975	0.251088
C357	C	1.315898	0.450308	0.584421
H358	H	0.701235	-0.387465	-0.271102
H359	H	1.034569	-0.054132	0.062231
H360	H	1.367902	0.279202	0.395565
H361	H	0.676137	-0.146432	-0.793968
H362	H	1.009471	0.186901	-0.460635
H363	H	1.342804	0.520235	-0.127302
H364	H	0.574720	-0.226502	-0.921707
H365	H	0.908053	0.106832	-0.588374
H366	H	1.241386	0.440165	-0.255041
H367	H	0.121565	-0.297419	-0.490046
H368	H	0.454899	0.035914	-0.156713
H369	H	0.788232	0.369248	0.176621
H370	H	0.177207	-0.297416	-0.490034
H371	H	0.510540	0.035918	-0.156701
H372	H	0.843874	0.369251	0.176633
C373	C	0.628733	-0.299655	-0.927880
C374	C	0.962067	0.033678	-0.594546
C375	C	1.295400	0.367012	-0.261213
N376	N	0.603774	-0.326691	-0.948560
N377	N	0.937108	0.006642	-0.615226
N378	N	1.270441	0.339975	-0.281893
C379	C	-0.087566	-0.156067	-0.257746
C380	C	0.245768	0.177266	0.075587
C381	C	0.579101	0.510599	0.408920
N382	N	-0.068138	-0.132230	-0.218564
N383	N	0.265195	0.201103	0.114769
N384	N	0.598529	0.534436	0.448103
H385	H	0.696821	-0.273935	-0.794820
H386	H	1.030155	0.059399	-0.461487
H387	H	1.363488	0.392732	-0.128153
C388	C	-0.087558	-0.276894	-0.456315
C389	C	0.245776	0.056440	-0.122982
C390	C	0.579109	0.389773	0.210351
N391	N	-0.068127	-0.300728	-0.495489
N392	N	0.265206	0.032606	-0.162156
N393	N	0.598539	0.365939	0.171178
H394	H	0.590148	-0.170169	-0.793106
H395	H	0.923481	0.163164	-0.459772
H396	H	1.256814	0.496498	-0.126439
H397	H	0.718936	-0.189699	-0.793035
H398	H	1.052269	0.143635	-0.459702
H399	H	1.385603	0.476968	-0.126368
H400	H	0.262312	-0.297413	-0.490012
H401	H	0.595645	0.035920	-0.156679
H402	H	0.928978	0.369254	0.176654
H403	H	0.568319	-0.829173	-0.490162
H404	H	0.901653	-0.495839	-0.156829
H405	H	1.234986	-0.162506	0.176504
H406	H	0.696195	-0.274309	-0.921908
H407	H	1.029528	0.059025	-0.588574
H408	H	1.362862	0.392358	-0.255241
H409	H	0.730088	-0.688387	-0.223851
H410	H	1.063422	-0.355054	0.109483
H411	H	1.396755	-0.021721	0.442816
C412	C	0.738268	-0.596578	-0.210302
C413	C	1.071602	-0.263245	0.123032
C414	C	1.404935	0.070088	0.456365
N415	N	0.762081	-0.577145	-0.171085
N416	N	1.095414	-0.243812	0.162248
N417	N	1.428747	0.089521	0.495582
H418	H	-0.179383	-0.268675	-0.442817
H419	H	0.153951	0.064658	-0.109484
H420	H	0.487284	0.397992	0.223849
C421	C	0.588894	-0.953188	-0.456415
C422	C	0.922228	-0.619855	-0.123082
C423	C	1.255561	-0.286521	0.210252
N424	N	0.565079	-0.933765	-0.495641
N425	N	0.898413	-0.600432	-0.162307
N426	N	1.231746	-0.267099	0.171026
C427	C	0.560064	-0.695121	-0.503681
C428	C	0.893397	-0.361788	-0.170347
C429	C	1.226731	-0.028454	0.162986
N430	N	0.536249	-0.714553	-0.542895
N431	N	0.869582	-0.381220	-0.209561
N432	N	1.202916	-0.047886	0.123772
H433	H	0.262317	-0.135487	-0.223945
H434	H	0.595651	0.197847	0.109389
H435	H	0.928984	0.531180	0.442722
H436	H	-0.179375	-0.164300	-0.271270
H437	H	0.153958	0.169033	0.062063
H438	H	0.487291	0.502366	0.395397
C439	C	0.589074	-0.155967	-0.927831
C440	C	0.922408	0.177367	-0.594497
C441	C	1.255741	0.510700	-0.261164
N442	N	0.579358	-0.120484	-0.948535
N443	N	0.912691	0.212849	-0.615202
N444	N	1.246025	0.546183	-0.281868
C445	C	0.386309	-0.156039	-0.257650
C446	C	0.719642	0.177294	0.075684
C447	C	1.052975	0.510627	0.409017
N448	N	0.366875	-0.132203	-0.218484
N449	N	0.700209	0.201130	0.114850
N450	N	1.033542	0.534463	0.448183
H451	H	0.701442	-1.044982	-0.271213
H452	H	1.034776	-0.711649	0.062120
H453	H	1.368109	-0.378316	0.395453
H454	H	0.597121	-1.044996	-0.442875
H455	H	0.930454	-0.711663	-0.109542
H456	H	1.263788	-0.378329	0.223792
C457	C	0.731636	-0.192741	-0.927863
C458	C	1.064970	0.140592	-0.594530
C459	C	1.398303	0.473926	-0.261197
N460	N	0.767448	-0.201011	-0.948730
N461	N	1.100781	0.132322	-0.615397
N462	N	1.434115	0.465656	-0.282063
C463	C	0.484838	-0.276857	-0.456192
C464	C	0.818171	0.056476	-0.122859
C465	C	1.151505	0.389810	0.210475
N466	N	0.504270	-0.300692	-0.495361
N467	N	0.837603	0.032641	-0.162028
N468	N	1.170937	0.365974	0.171306
H469	H	0.575824	-0.229413	-0.794398
H470	H	0.909157	0.103920	-0.461064
H471	H	1.242491	0.437254	-0.127731
C472	C	0.029742	-0.305638	-0.503572
C473	C	0.363076	0.027695	-0.170239
C474	C	0.696409	0.361029	0.163094
N475	N	0.010299	-0.329467	-0.542745
N476	N	0.343632	0.003866	-0.209412
N477	N	0.676965	0.337199	0.123921
C478	C	0.709488	-0.479275	-0.257597
C479	C	1.042821	-0.145941	0.075736
C480	C	1.376155	0.187392	0.409069
N481	N	0.733315	-0.498697	-0.218391
N482	N	1.066648	-0.165364	0.114942
N483	N	1.399981	0.167969	0.448276
C484	C	0.709632	-0.953156	-0.257671
C485	C	1.042965	-0.619822	0.075663
C486	C	1.376299	-0.286489	0.408996
N487	N	0.733449	-0.933721	-0.218464
N488	N	1.066783	-0.600388	0.114869
N489	N	1.400116	-0.267054	0.448203
H490	H	0.568256	-0.603309	-0.490144
H491	H	0.901590	-0.269976	-0.156810
H492	H	1.234923	0.063358	0.176523
H493	H	0.596949	-0.472608	-0.442797
H494	H	0.930283	-0.139275	-0.109464
H495	H	1.263616	0.194059	0.223869
C496	C	0.588706	-0.380782	-0.456295
C497	C	0.922039	-0.047448	-0.122961
C498	C	1.255373	0.285885	0.210372
N499	N	0.564887	-0.361344	-0.495493
N500	N	0.898220	-0.028010	-0.162160
N501	N	1.231554	0.305323	0.171174
C502	C	0.484841	-0.156030	-0.257645
C503	C	0.818174	0.177303	0.075689
C504	C	1.151507	0.510636	0.409022
N505	N	0.504284	-0.132190	-0.218489
N506	N	0.837617	0.201144	0.114845
N507	N	1.170950	0.534477	0.448178
C508	C	0.170507	-0.127269	-0.210448
C509	C	0.503840	0.206065	0.122885
C510	C	0.837174	0.539398	0.456219
N511	N	0.151080	-0.103424	-0.171287
N512	N	0.484413	0.229909	0.162046
N513	N	0.817747	0.563242	0.495379
C514	C	0.629402	-0.299718	-0.786725
C515	C	0.962735	0.033615	-0.453392
C516	C	1.296068	0.366948	-0.120059
N517	N	0.604768	-0.326951	-0.765597
N518	N	0.938101	0.006382	-0.432264
N519	N	1.271434	0.339715	-0.098930
H520	H	0.676187	-0.146634	-0.921196
H521	H	1.009520	0.186699	-0.587862
H522	H	1.342854	0.520032	-0.254529
H523	H	0.730106	-0.744028	-0.223860
H524	H	1.063439	-0.410695	0.109473
H525	H	1.396772	-0.077361	0.442806
C526	C	0.738348	-0.835850	-0.210365
C527	C	1.071681	-0.502517	0.122969
C528	C	1.405015	-0.169183	0.456302
N529	N	0.762172	-0.855289	-0.171176
N530	N	1.095505	-0.521956	0.162157
N531	N	1.428839	-0.188622	0.495491
H532	H	0.393026	-0.268638	-0.442716
H533	H	0.726359	0.064695	-0.109383
H534	H	1.059692	0.398028	0.223950
C535	C	0.029751	-0.127289	-0.210473
C536	C	0.363084	0.206044	0.122861
C537	C	0.696417	0.539378	0.456194
N538	N	0.010321	-0.103447	-0.171311
N539	N	0.343654	0.229886	0.162022
N540	N	0.676987	0.563219	0.495355
H541	H	0.568295	-0.744066	-0.490148
H542	H	0.901628	-0.410733	-0.156814
H543	H	1.234961	-0.077400	0.176519
H544	H	0.121559	-0.135509	-0.223960
H545	H	0.454892	0.197825	0.109374
H546	H	0.788226	0.531158	0.442707
