data_functionalizedCrystal
_audit_creation_method	'MofGen! by Chris Wilmer'
_symmetry_space_group_name_H-M	'P1'
_symmetry_Int_Tables_number	1
_symmetry_cell_setting	triclinic
loop_
_symmetry_equiv_pos_as_xyz
  x,y,z
_cell_length_a	17.019311
_cell_length_b	17.038272
_cell_length_c	15.500227
_cell_angle_alpha	86.966746
_cell_angle_beta	83.285249
_cell_angle_gamma	92.754600
loop_
_atom_site_label
_atom_site_type_symbol
_atom_site_fract_x
_atom_site_fract_y
_atom_site_fract_z
O1	O	1.060552	-0.092008	-0.150955
O2	O	1.560552	0.407992	0.349045
O3	O	0.830925	-0.105566	-0.133850
O4	O	1.330925	0.394434	0.366150
O5	O	0.944373	0.015022	-0.142294
O6	O	1.444373	0.515022	0.357706
O7	O	0.947104	-0.212596	-0.142511
O8	O	1.447104	0.287404	0.357489
O9	O	0.937487	0.007733	0.002107
O10	O	1.437487	0.507733	0.502107
O11	O	0.824039	-0.112855	0.010551
O12	O	1.324039	0.387145	0.510551
O13	O	1.053666	-0.099297	-0.006554
O14	O	1.553666	0.400703	0.493446
Cu15	Cu	0.938224	-0.106741	0.015184
Cu16	Cu	1.438224	0.393259	0.515184
Cu17	Cu	0.946367	-0.098121	-0.155588
Cu18	Cu	1.446367	0.401879	0.344412
O19	O	0.940217	-0.219885	0.001890
O20	O	1.440217	0.280115	0.501890
C21	C	0.797956	-0.108839	-0.059450
C22	C	1.297956	0.391161	0.440550
C23	C	0.709976	-0.107723	-0.052896
C24	C	1.209976	0.392277	0.447104
C25	C	0.212193	-0.101637	-0.011882
C26	C	0.712193	0.398363	0.488118
C27	C	0.294859	-0.102685	-0.018042
C28	C	0.794859	0.397315	0.481958
C29	C	0.339946	-0.099230	-0.099836
C30	C	0.839946	0.400770	0.400164
C31	C	0.302363	-0.094734	-0.175475
C32	C	0.802363	0.405266	0.324525
C33	C	0.219698	-0.093692	-0.169315
C34	C	0.719698	0.406308	0.330685
C35	C	0.589728	-0.102185	-0.122375
C36	C	1.089728	0.397815	0.377625
C37	C	0.672399	-0.103225	-0.128530
C38	C	1.172399	0.396775	0.371470
C39	C	0.664889	-0.111178	0.028905
C40	C	1.164889	0.388822	0.528905
C41	C	0.582223	-0.110130	0.035058
C42	C	1.082223	0.389870	0.535058
C43	C	0.544647	-0.105638	-0.040581
C44	C	1.044647	0.394362	0.459419
C45	C	0.424444	-0.100299	-0.106134
C46	C	0.924444	0.399701	0.393866
C47	C	0.460149	-0.104575	-0.034282
C48	C	0.960149	0.395425	0.465718
C49	C	0.938448	0.040494	-0.069909
C50	C	1.438448	0.540494	0.430091
C51	C	0.931041	0.127253	-0.069357
C52	C	1.431041	0.627253	0.430643
C53	C	1.086635	-0.096024	-0.080956
C54	C	1.586635	0.403976	0.419044
C55	C	1.174615	-0.097139	-0.087516
C56	C	1.674615	0.402861	0.412484
C57	C	0.946143	-0.245357	-0.070497
C58	C	1.446143	0.254643	0.429503
C59	C	0.953550	-0.332115	-0.071054
C60	C	1.453550	0.167885	0.428946
N61	N	0.932501	-0.112804	0.135294
N62	N	1.432501	0.387196	0.635294
C63	C	0.999043	0.177679	-0.074422
C64	C	1.499043	0.677679	0.425578
C65	C	0.992079	0.259198	-0.073911
C66	C	1.492079	0.759198	0.426089
C67	C	0.917113	0.290289	-0.068330
C68	C	1.417113	0.790289	0.431670
C69	C	0.849107	0.239857	-0.063268
C70	C	1.349107	0.739857	0.436732
C71	C	0.856071	0.158340	-0.063784
C72	C	1.356071	0.658340	0.436216
C73	C	0.892508	0.535935	-0.066509
C74	C	1.392508	1.035935	0.433491
C75	C	0.885549	0.617458	-0.065990
C76	C	1.385549	1.117458	0.434010
C77	C	1.028522	0.636794	-0.076635
C78	C	1.528522	1.136794	0.423365
C79	C	1.035480	0.555275	-0.077146
C80	C	1.535480	1.055275	0.422854
C81	C	0.967473	0.504850	-0.072089
C82	C	1.467473	1.004850	0.427911
C83	C	0.909993	0.373614	-0.067805
C84	C	1.409993	0.873614	0.432195
C85	C	0.974594	0.421526	-0.072620
C86	C	1.474594	0.921526	0.427380
N87	N	0.952095	-0.092053	-0.275699
N88	N	1.452095	0.407947	0.224301
C89	C	0.980593	-0.061725	0.176992
C90	C	1.480593	0.438275	0.676992
C91	C	0.976273	-0.066317	0.267886
C92	C	1.476273	0.433683	0.767886
C93	C	0.923865	-0.121992	0.317081
C94	C	1.423865	0.378008	0.817081
C95	C	0.875769	-0.173073	0.275378
C96	C	1.375769	0.326927	0.775378
C97	C	0.880085	-0.168477	0.184486
C98	C	1.380085	0.331523	0.684486
C99	C	0.908315	-0.138537	0.591706
C100	C	1.408315	0.361463	1.091706
C101	C	0.904004	-0.143131	0.682604
C102	C	1.404004	0.356869	1.182604
C103	C	1.004508	-0.036374	0.675106
C104	C	1.504508	0.463626	1.175106
C105	C	1.008823	-0.031786	0.584211
C106	C	1.508823	0.468214	1.084211
C107	C	0.960723	-0.082864	0.542516
C108	C	1.460723	0.417136	1.042516
C109	C	0.919450	-0.126689	0.409990
C110	C	1.419450	0.373311	0.909990
C111	C	0.965135	-0.078163	0.449610
C112	C	1.465135	0.421837	0.949610
H113	H	0.325450	-0.106346	0.043548
H114	H	0.825450	0.393654	0.543548
H115	H	0.339079	-0.091926	-0.242074
H116	H	0.839079	0.408074	0.257926
H117	H	0.824499	0.642768	-0.061431
H118	H	1.324499	1.142768	0.438569
H119	H	0.709107	-0.100418	-0.195140
H120	H	1.209107	0.399582	0.304860
H121	H	0.837132	0.494888	-0.062390
H122	H	1.337132	0.994888	0.437610
C123	C	0.782300	0.103490	-0.058154
C124	C	1.282300	0.603490	0.441846
C125	C	0.778586	0.052365	0.016138
C126	C	1.278586	0.552365	0.516138
C127	C	0.710643	0.001821	0.021342
C128	C	1.210643	0.501821	0.521342
H129	H	0.736595	0.133580	-0.054706
H130	H	1.236595	0.633580	0.445294
H131	H	0.784445	0.073781	-0.108466
H132	H	1.284445	0.573781	0.391534
H133	H	0.776434	0.082070	0.066437
H134	H	1.276434	0.582070	0.566437
H135	H	0.824275	0.022258	0.012707
H136	H	1.324275	0.522258	0.512707
H137	H	0.712788	-0.027888	-0.028970
H138	H	1.212788	0.472112	0.471030
H139	H	0.664943	0.031917	0.024787
H140	H	1.164943	0.531917	0.524787
H141	H	0.708118	-0.032878	0.071744
H142	H	1.208118	0.467122	0.571744
C143	C	0.549088	-0.097251	-0.204597
C144	C	1.049088	0.402749	0.295403
C145	C	0.606272	-0.094420	-0.277544
C146	C	1.106272	0.405580	0.222456
C147	C	0.568862	-0.089859	-0.353306
C148	C	1.068862	0.410141	0.146694
H149	H	0.514035	-0.142236	-0.205384
H150	H	1.014035	0.357764	0.294616
H151	H	0.519983	-0.051078	-0.205726
H152	H	1.019983	0.448922	0.294274
H153	H	0.635364	-0.140588	-0.276416
H154	H	1.135364	0.359412	0.223584
H155	H	0.641328	-0.049436	-0.276786
H156	H	1.141328	0.450564	0.223214
H157	H	0.539757	-0.043686	-0.354435
H158	H	1.039757	0.456314	0.145565
H159	H	0.533810	-0.134846	-0.354084
H160	H	1.033810	0.365154	0.145916
H161	H	0.607655	-0.087931	-0.402809
H162	H	1.107655	0.412069	0.097191
H163	H	0.833093	-0.218402	0.315439
H164	H	1.333093	0.281598	0.815439
C165	C	0.705542	-0.116023	0.111124
C166	C	1.205542	0.383977	0.611124
C167	C	0.648364	-0.118807	0.184074
C168	C	1.148364	0.381193	0.684074
C169	C	0.685784	-0.123263	0.259832
C170	C	1.185784	0.376737	0.759832
H171	H	0.734668	-0.162168	0.112333
H172	H	1.234668	0.337832	0.612333
H173	H	0.740579	-0.071000	0.111829
H174	H	1.240579	0.429000	0.611829
H175	H	0.613341	-0.163826	0.183370
H176	H	1.113341	0.336174	0.683370
H177	H	0.619235	-0.072667	0.182894
H178	H	1.119235	0.427333	0.682894
H179	H	0.720821	-0.078240	0.260537
H180	H	1.220821	0.421760	0.760537
H181	H	0.714908	-0.169408	0.261032
H182	H	1.214908	0.330592	0.761032
H183	H	0.646995	-0.125146	0.309337
H184	H	1.146995	0.374854	0.809337
C185	C	1.102446	0.691411	-0.082101
C186	C	1.602446	1.191411	0.417899
C187	C	1.169586	0.646733	-0.087081
C188	C	1.669586	1.146733	0.412919
C189	C	1.237702	0.697018	-0.092110
C190	C	1.737702	1.197018	0.407890
H191	H	1.105213	0.726167	-0.132472
H192	H	1.605213	1.226167	0.367528
H193	H	1.100346	0.721064	-0.031749
H194	H	1.600346	1.221064	0.468251
H195	H	1.171686	0.617094	-0.137427
H196	H	1.671686	1.117094	0.362573
H197	H	1.166846	0.611979	-0.036715
H198	H	1.666846	1.111979	0.463285
H199	H	1.235602	0.726671	-0.041758
H200	H	1.735602	1.226671	0.458242
H201	H	1.240461	0.731772	-0.142481
H202	H	1.740461	1.231772	0.357519
H203	H	1.283264	0.666712	-0.095481
H204	H	1.783264	1.166712	0.404519
H205	H	0.861325	-0.188472	0.722655
H206	H	1.361325	0.311528	1.222655
H207	H	1.023272	-0.016392	0.136942
H208	H	1.523272	0.483608	0.636942
C209	C	0.767782	0.273760	-0.057169
C210	C	1.267782	0.773760	0.442831
C211	C	0.776233	0.355941	-0.057774
C212	C	1.276233	0.855941	0.442226
C213	C	0.701332	0.387195	-0.052142
C214	C	1.201332	0.887195	0.447858
H215	H	0.741885	0.259052	-0.105403
H216	H	1.241885	0.759052	0.394597
H217	H	0.737139	0.253929	-0.004689
H218	H	1.237139	0.753929	0.495311
H219	H	0.806864	0.375764	-0.110248
H220	H	1.306864	0.875764	0.389752
H221	H	0.802117	0.370670	-0.009542
H222	H	1.302117	0.870670	0.490458
H223	H	0.670689	0.367365	0.000338
H224	H	1.170689	0.867365	0.500338
H225	H	0.675441	0.372483	-0.100377
H226	H	1.175441	0.872483	0.399623
H227	H	0.707056	0.442958	-0.052544
H228	H	1.207056	0.942958	0.447456
H229	H	1.035632	0.396209	-0.077183
H230	H	1.535632	0.896209	0.422817
C231	C	1.028592	-0.010827	0.312993
C232	C	1.528592	0.489173	0.812993
C233	C	1.075435	0.038893	0.250454
C234	C	1.575435	0.538893	0.750454
C235	C	1.123654	0.090014	0.291972
C236	C	1.623654	0.590014	0.791972
H237	H	0.996341	0.019877	0.350747
H238	H	1.496341	0.519877	0.850747
H239	H	1.061791	-0.040584	0.345816
H240	H	1.561791	0.459416	0.845816
H241	H	1.042240	0.068648	0.217646
H242	H	1.542240	0.568648	0.717646
H243	H	1.107702	0.008212	0.212697
H244	H	1.607702	0.508212	0.712697
H245	H	1.156852	0.060256	0.324795
H246	H	1.656852	0.560256	0.824795
H247	H	1.091396	0.120711	0.329726
H248	H	1.591396	0.620711	0.829726
H249	H	1.155447	0.123750	0.249546
H250	H	1.655447	0.623750	0.749546
C251	C	0.533252	-0.113708	0.123845
C252	C	1.033252	0.386292	0.623845
C253	C	0.489972	-0.046083	0.131664
C254	C	0.989972	0.453917	0.631664
C255	C	0.444863	-0.049338	0.213449
C256	C	0.944863	0.450662	0.713449
H257	H	0.497813	-0.158992	0.129840
H258	H	0.997813	0.341008	0.629840
H259	H	0.567455	-0.116492	0.168030
H260	H	1.067455	0.383508	0.668030
H261	H	0.455772	-0.043307	0.087492
H262	H	0.955772	0.456693	0.587492
H263	H	0.525391	-0.000789	0.125686
H264	H	1.025391	0.499211	0.625686
H265	H	0.479067	-0.052122	0.257634
H266	H	0.979067	0.447878	0.757634
H267	H	0.409429	-0.094624	0.219436
H268	H	0.909429	0.405376	0.719436
H269	H	0.415499	-0.003452	0.218768
H270	H	0.915499	0.496548	0.718768
C271	C	0.163380	-0.105434	0.077006
C272	C	0.663380	0.394566	0.577006
C273	C	0.213985	-0.109619	0.141924
C274	C	0.713985	0.390381	0.641924
C275	C	0.169050	-0.113130	0.223820
C276	C	0.669050	0.386870	0.723820
H277	H	0.133931	-0.059632	0.082592
H278	H	0.633931	0.440368	0.582592
H279	H	0.128026	-0.150792	0.082943
H280	H	0.628026	0.349208	0.582943
H281	H	0.249326	-0.064265	0.135990
H282	H	0.749326	0.435735	0.635990
H283	H	0.243435	-0.155418	0.136366
H284	H	0.743435	0.344582	0.636366
H285	H	0.133695	-0.158489	0.229756
H286	H	0.633695	0.341511	0.729756
H287	H	0.139603	-0.067327	0.229397
H288	H	0.639603	0.432673	0.729397
H289	H	0.203378	-0.115978	0.267876
H290	H	0.703378	0.384022	0.767876
C291	C	0.856062	-0.194092	0.546603
C292	C	1.356062	0.305908	1.046603
C293	C	0.809262	-0.243848	0.609142
C294	C	1.309262	0.256152	1.109142
C295	C	0.761123	-0.295045	0.567622
C296	C	1.261123	0.204955	1.067622
H297	H	0.822830	-0.164418	0.513759
H298	H	1.322830	0.335582	1.013759
H299	H	0.888392	-0.224759	0.508867
H300	H	1.388392	0.275241	1.008867
H301	H	0.776935	-0.213185	0.646863
H302	H	1.276935	0.286815	1.146863
H303	H	0.842474	-0.273540	0.641990
H304	H	1.342474	0.226460	1.141990
H305	H	0.793453	-0.325712	0.529886
H306	H	1.293453	0.174288	1.029886
H307	H	0.727895	-0.265364	0.534779
H308	H	1.227895	0.234636	1.034779
H309	H	0.729368	-0.328815	0.610048
H310	H	1.229368	0.171185	1.110048
C311	C	0.179046	-0.088768	-0.251534
C312	C	0.679046	0.411232	0.248466
C313	C	0.236223	-0.085946	-0.324486
C314	C	0.736223	0.414054	0.175514
C315	C	0.198806	-0.081404	-0.400243
C316	C	0.698806	0.418596	0.099757
H317	H	0.143996	-0.133758	-0.252307
H318	H	0.643996	0.366242	0.247693
H319	H	0.149936	-0.042598	-0.252670
H320	H	0.649936	0.457402	0.247330
H321	H	0.265320	-0.132110	-0.323350
H322	H	0.765320	0.367890	0.176650
H323	H	0.271276	-0.040957	-0.323741
H324	H	0.771276	0.459043	0.176259
H325	H	0.169696	-0.035235	-0.401379
H326	H	0.669696	0.464765	0.098621
H327	H	0.163757	-0.126396	-0.401007
H328	H	0.663757	0.373604	0.098993
H329	H	0.237595	-0.079482	-0.449749
H330	H	0.737595	0.420518	0.050251
H331	H	0.461164	-0.097484	-0.172732
H332	H	0.961164	0.402516	0.327268
H333	H	1.047453	0.300253	-0.078034
H334	H	1.547453	0.800253	0.421966
H335	H	0.423436	-0.107392	0.032314
H336	H	0.923436	0.392608	0.532314
C337	C	1.065592	0.028958	0.531087
C338	C	1.565592	0.528958	1.031087
C339	C	1.046312	0.104458	0.554831
C340	C	1.546312	0.604458	1.054831
C341	C	1.098575	0.160510	0.506008
C342	C	1.598575	0.660510	1.006008
H343	H	1.118308	0.020104	0.542022
H344	H	1.618308	0.520104	1.042022
H345	H	1.061395	0.024629	0.470922
H346	H	1.561395	0.524629	0.970922
H347	H	1.050517	0.108786	0.614982
H348	H	1.550517	0.608786	1.114982
H349	H	0.993606	0.113338	0.543893
H350	H	1.493606	0.613338	1.043893
H351	H	1.094377	0.156181	0.445842
H352	H	1.594377	0.656181	0.945842
H353	H	1.151287	0.151648	0.516946
H354	H	1.651287	0.651648	1.016946
H355	H	1.085496	0.211744	0.522105
H356	H	1.585496	0.711744	1.022105
C357	C	0.827836	-0.224032	0.139370
C358	C	1.327836	0.275968	0.639370
C359	C	0.781031	-0.273789	0.201904
C360	C	1.281031	0.226211	0.701904
C361	C	0.732894	-0.324982	0.160376
C362	C	1.232894	0.175018	0.660376
H363	H	0.794607	-0.194354	0.106525
H364	H	1.294607	0.305646	0.606525
H365	H	0.860168	-0.254698	0.101634
H366	H	1.360168	0.245302	0.601634
H367	H	0.748703	-0.243127	0.239624
H368	H	1.248703	0.256873	0.739624
H369	H	0.814240	-0.303484	0.234752
H370	H	1.314240	0.196516	0.734752
H371	H	0.765225	-0.355648	0.122641
H372	H	1.265225	0.144352	0.622641
H373	H	0.699670	-0.295298	0.127532
H374	H	1.199670	0.204702	0.627532
H375	H	0.701137	-0.358753	0.202798
H376	H	1.201137	0.141247	0.702798
H377	H	1.060088	0.152372	-0.078961
H378	H	1.560088	0.652372	0.421039
H379	H	1.096525	0.529967	-0.081691
H380	H	1.596525	1.029967	0.418309
H381	H	0.848955	0.398938	-0.063259
H382	H	1.348955	0.898938	0.436741
H383	H	1.043667	0.005212	0.709062
H384	H	1.543667	0.505212	1.209062
H385	H	1.007802	-0.032829	0.409553
H386	H	1.507802	0.467171	0.909553
H387	H	0.876780	-0.172022	0.450052
H388	H	1.376780	0.327978	0.950052
