data_functionalizedCrystal
_audit_creation_method	'MofGen! by Chris Wilmer'
_symmetry_space_group_name_H-M	'P1'
_symmetry_Int_Tables_number	1
_symmetry_cell_setting	triclinic
loop_
_symmetry_equiv_pos_as_xyz
  x,y,z
_cell_length_a	23.532407
_cell_length_b	23.532357
_cell_length_c	22.010155
_cell_angle_alpha	90.001303
_cell_angle_beta	90.003069
_cell_angle_gamma	82.838485
loop_
_atom_site_label
_atom_site_type_symbol
_atom_site_fract_x
_atom_site_fract_y
_atom_site_fract_z
O1	O	0.755251	0.069129	0.050457
O2	O	1.088585	0.402462	0.383790
O3	O	1.421918	0.735795	0.717123
O4	O	0.589386	0.079132	0.050475
O5	O	0.922719	0.412465	0.383809
O6	O	1.256053	0.745799	0.717142
O7	O	0.677335	-0.008803	0.050453
O8	O	1.010669	0.324530	0.383786
O9	O	1.344002	0.657863	0.717120
O10	O	0.667302	0.157064	0.050479
O11	O	1.000636	0.490397	0.383812
O12	O	1.333969	0.823731	0.717146
O13	O	0.677319	-0.008790	-0.050597
O14	O	1.010653	0.324543	0.282736
O15	O	1.343986	0.657876	0.616069
O16	O	0.589370	0.079145	-0.050575
O17	O	0.922704	0.412479	0.282758
O18	O	1.256037	0.745812	0.616092
O19	O	0.755235	0.069142	-0.050594
O20	O	1.088569	0.402475	0.282740
O21	O	1.421902	0.735808	0.616073
Cu22	Cu	0.672301	0.074145	-0.059811
Cu23	Cu	1.005635	0.407478	0.273522
Cu24	Cu	1.338968	0.740811	0.606856
Cu25	Cu	0.672320	0.074129	0.059693
Cu26	Cu	1.005654	0.407462	0.393026
Cu27	Cu	1.338987	0.740796	0.726359
O28	O	0.667286	0.157077	-0.050571
O29	O	1.000620	0.490411	0.282762
O30	O	1.333953	0.823744	0.616095
C31	C	0.568162	0.078884	-0.000048
C32	C	0.901496	0.412217	0.333286
C33	C	1.234829	0.745551	0.666619
C34	C	0.504945	0.078118	-0.000041
C35	C	0.838279	0.411451	0.333292
C36	C	1.171612	0.744785	0.666626
C37	C	0.677076	-0.030013	-0.000074
C38	C	1.010410	0.303320	0.333259
C39	C	1.343743	0.636653	0.666593
C40	C	0.676322	-0.093232	-0.000080
C41	C	1.009655	0.240101	0.333254
C42	C	1.342988	0.573435	0.666587
C43	C	0.105834	0.125353	-0.000061
C44	C	0.439167	0.458686	0.333272
C45	C	0.772500	0.792019	0.666606
C46	C	0.046434	0.124641	-0.000065
C47	C	0.379767	0.457974	0.333269
C48	C	0.713100	0.791308	0.666602
O49	O	0.009681	0.168428	-0.000080
O50	O	0.343015	0.501761	0.333253
O51	O	0.676348	0.835095	0.666587
N52	N	0.023817	0.072364	-0.000072
N53	N	0.357150	0.405697	0.333261
N54	N	0.690483	0.739030	0.666595
C55	C	0.060604	0.020794	-0.000082
C56	C	0.393937	0.354127	0.333252
C57	C	0.727270	0.687461	0.666585
O58	O	0.035912	-0.023737	-0.000089
O59	O	0.369245	0.309596	0.333245
O60	O	0.702579	0.642929	0.666578
C61	C	0.120003	0.021506	-0.000082
C62	C	0.453336	0.354839	0.333251
C63	C	0.786669	0.688173	0.666585
C64	C	0.142616	0.073787	-0.000069
C65	C	0.475949	0.407120	0.333265
C66	C	0.809283	0.740454	0.666598
C67	C	0.128448	0.177629	-0.000048
C68	C	0.461781	0.510963	0.333285
C69	C	0.795114	0.844296	0.666618
C70	C	0.187844	0.178341	-0.000043
C71	C	0.521177	0.511674	0.333290
C72	C	0.854510	0.845007	0.666623
C73	C	0.224626	0.126775	-0.000051
C74	C	0.557959	0.460108	0.333282
C75	C	0.891292	0.793442	0.666616
C76	C	0.202012	0.074498	-0.000064
C77	C	0.535345	0.407832	0.333270
C78	C	0.868679	0.741165	0.666603
C79	C	0.156788	-0.030063	-0.000096
C80	C	0.490122	0.303271	0.333237
C81	C	0.823455	0.636604	0.666571
C82	C	0.216191	-0.029346	-0.000097
C83	C	0.549524	0.303987	0.333236
C84	C	0.882857	0.637321	0.666570
C85	C	0.238804	0.022935	-0.000084
C86	C	0.572137	0.356268	0.333250
C87	C	0.905471	0.689601	0.666583
C88	C	0.298190	0.023644	-0.000067
C89	C	0.631523	0.356977	0.333267
C90	C	0.964857	0.690311	0.666600
N91	N	0.320807	0.075922	-0.000059
N92	N	0.654140	0.409255	0.333274
N93	N	0.987474	0.742588	0.666607
C94	C	0.284025	0.127487	-0.000052
C95	C	0.617358	0.460820	0.333282
C96	C	0.950691	0.794154	0.666615
C97	C	-0.064139	0.019303	-0.000082
C98	C	0.269195	0.352636	0.333252
C99	C	0.602528	0.685969	0.666585
C100	C	-0.123536	0.018590	-0.000077
C101	C	0.209797	0.351923	0.333257
C102	C	0.543130	0.685257	0.666590
C103	C	-0.137702	0.122437	-0.000061
C104	C	0.195631	0.455771	0.333272
C105	C	0.528964	0.789104	0.666606
C106	C	-0.078303	0.123149	-0.000062
C107	C	0.255030	0.456483	0.333272
C108	C	0.588363	0.789816	0.666605
C109	C	-0.041522	0.071580	-0.000074
C110	C	0.291812	0.404914	0.333259
C111	C	0.625145	0.738247	0.666592
C112	C	0.408761	0.128977	-0.000041
C113	C	0.742095	0.462310	0.333293
C114	C	1.075428	0.795644	0.666626
C115	C	0.468163	0.129684	-0.000033
C116	C	0.801496	0.463017	0.333300
C117	C	1.134830	0.796350	0.666634
C118	C	0.482324	0.025837	-0.000052
C119	C	0.815657	0.359170	0.333281
C120	C	1.148991	0.692503	0.666615
C121	C	0.422927	0.025130	-0.000056
C122	C	0.756261	0.358463	0.333277
C123	C	1.089594	0.691796	0.666610
C124	C	0.386147	0.076704	-0.000053
C125	C	0.719480	0.410038	0.333281
C126	C	1.052813	0.743371	0.666614
O127	O	0.334977	-0.020120	-0.000054
O128	O	0.668310	0.313213	0.333279
O129	O	1.001644	0.646547	0.666613
O130	O	0.308725	0.172011	-0.000052
O131	O	0.642058	0.505345	0.333281
O132	O	0.975391	0.838678	0.666614
C133	C	0.671594	-0.485250	0.055036
C134	C	1.004927	-0.151917	0.388369
C135	C	1.338260	0.181416	0.721703
C136	C	0.670877	-0.544650	0.055040
C137	C	1.004210	-0.211317	0.388373
C138	C	1.337543	0.122017	0.721706
O139	O	0.670494	-0.575372	0.101885
O140	O	1.003827	-0.242039	0.435219
O141	O	1.337160	0.091294	0.768552
N142	N	0.670512	-0.574354	-0.000042
N143	N	1.003845	-0.241021	0.333291
N144	N	1.337179	0.092313	0.666625
C145	C	0.670859	-0.544655	-0.055131
C146	C	1.004193	-0.211321	0.278202
C147	C	1.337526	0.122012	0.611536
O148	O	0.670483	-0.575374	-0.101982
O149	O	1.003816	-0.242041	0.231351
O150	O	1.337150	0.091292	0.564685
C151	C	0.671572	-0.485256	-0.055134
C152	C	1.004906	-0.151922	0.278199
C153	C	1.338239	0.181411	0.611533
C154	C	0.671943	-0.455556	-0.000048
C155	C	1.005276	-0.122222	0.333285
C156	C	1.338609	0.211111	0.666618
C157	C	0.671963	-0.455550	0.110117
C158	C	1.005297	-0.122217	0.443450
C159	C	1.338630	0.211116	0.776784
C160	C	0.672682	-0.396155	0.110113
C161	C	1.006015	-0.062822	0.443447
C162	C	1.339348	0.270512	0.776780
C163	C	0.673030	-0.366460	0.055029
C164	C	1.006364	-0.033127	0.388362
C165	C	1.339697	0.300207	0.721695
C166	C	0.672661	-0.396160	-0.000052
C167	C	1.005994	-0.062827	0.333281
C168	C	1.339327	0.270506	0.666614
C169	C	0.671915	-0.455557	-0.110222
C170	C	1.005249	-0.122224	0.223111
C171	C	1.338582	0.211110	0.556445
C172	C	0.672628	-0.396154	-0.110220
C173	C	1.005961	-0.062821	0.223113
C174	C	1.339295	0.270513	0.556446
C175	C	0.672998	-0.366454	-0.055135
C176	C	1.006332	-0.033120	0.278198
C177	C	1.339665	0.300213	0.611532
C178	C	0.673728	-0.307070	-0.055141
C179	C	1.007061	0.026263	0.278193
C180	C	1.340394	0.359596	0.611526
N181	N	0.674092	-0.277366	-0.000059
N182	N	1.007426	0.055967	0.333274
N183	N	1.340759	0.389300	0.666608
C184	C	0.673743	-0.307061	0.055026
C185	C	1.007077	0.026272	0.388359
C186	C	1.340410	0.359606	0.721692
C187	C	0.669361	-0.669396	-0.055121
C188	C	1.002694	-0.336063	0.278213
C189	C	1.336027	-0.002730	0.611546
C190	C	0.668652	-0.728795	-0.055118
C191	C	1.001985	-0.395461	0.278215
C192	C	1.335318	-0.062128	0.611548
C193	C	0.668668	-0.728786	0.055053
C194	C	1.002001	-0.395452	0.388386
C195	C	1.335334	-0.062119	0.721719
C196	C	0.669381	-0.669387	0.055050
C197	C	1.002714	-0.336053	0.388383
C198	C	1.336048	-0.002720	0.721716
C199	C	0.669725	-0.639692	-0.000039
C200	C	1.003058	-0.306359	0.333294
C201	C	1.336392	0.026974	0.666628
C202	C	0.675252	-0.182327	0.055014
C203	C	1.008586	0.151006	0.388347
C204	C	1.341919	0.484340	0.721680
C205	C	0.675973	-0.122927	0.055005
C206	C	1.009306	0.210406	0.388338
C207	C	1.342640	0.543740	0.721672
C208	C	0.675954	-0.122941	-0.055166
C209	C	1.009287	0.210393	0.278168
C210	C	1.342620	0.543726	0.611501
C211	C	0.675236	-0.182336	-0.055157
C212	C	1.008569	0.150997	0.278176
C213	C	1.341903	0.484331	0.611509
C214	C	0.674883	-0.212027	-0.000063
C215	C	1.008217	0.121306	0.333271
C216	C	1.341550	0.454639	0.666604
O217	O	0.674109	-0.276310	-0.101962
O218	O	1.007442	0.057024	0.231371
O219	O	1.340775	0.390357	0.564704
O220	O	0.674112	-0.276333	0.101869
O221	O	1.007446	0.057000	0.435202
O222	O	1.340779	0.390334	0.768535
C223	C	0.776459	0.069390	-0.000070
C224	C	1.109793	0.402723	0.333264
C225	C	1.443126	0.736057	0.666597
C226	C	0.839676	0.070156	-0.000072
C227	C	1.173010	0.403489	0.333261
C228	C	1.506343	0.736822	0.666595
C229	C	0.667545	0.178287	-0.000043
C230	C	1.000879	0.511620	0.333290
C231	C	1.334212	0.844954	0.666624
C232	C	0.668300	0.241506	-0.000033
C233	C	1.001633	0.574839	0.333300
C234	C	1.334966	0.908172	0.666633
N235	N	0.672292	0.074155	-0.143864
N236	N	1.005626	0.407489	0.189470
N237	N	1.338959	0.740822	0.522803
C238	C	0.711266	0.035197	-0.563653
C239	C	1.044600	0.368530	-0.230320
C240	C	1.377933	0.701863	0.103014
C241	C	0.711269	0.035193	-0.627260
C242	C	1.044602	0.368526	-0.293927
C243	C	1.377936	0.701860	0.039406
O244	O	0.744383	0.002076	-0.660160
O245	O	1.077716	0.335410	-0.326827
O246	O	1.411050	0.668743	0.006506
N247	N	0.672320	0.074117	-0.659071
N248	N	1.005653	0.407451	-0.325737
N249	N	1.338987	0.740784	0.007596
C250	C	0.633362	0.113044	-0.627270
C251	C	0.966695	0.446377	-0.293937
C252	C	1.300029	0.779711	0.039397
O253	O	0.600233	0.146152	-0.660168
O254	O	0.933566	0.479485	-0.326834
O255	O	1.266899	0.812818	0.006499
C256	C	0.633357	0.113045	-0.563663
C257	C	0.966690	0.446378	-0.230330
C258	C	1.300024	0.779712	0.103003
C259	C	0.672312	0.074122	-0.531857
C260	C	1.005646	0.407455	-0.198523
C261	C	1.338979	0.740788	0.134810
C262	C	0.750218	-0.003724	-0.531846
C263	C	1.083551	0.329610	-0.198513
C264	C	1.416885	0.662943	0.134821
C265	C	0.750216	-0.003719	-0.468243
C266	C	1.083549	0.329615	-0.134909
C267	C	1.416883	0.662948	0.198424
C268	C	0.711262	0.035206	-0.436446
C269	C	1.044595	0.368540	-0.103113
C270	C	1.377929	0.701873	0.230220
C271	C	0.672310	0.074127	-0.468253
C272	C	1.005644	0.407460	-0.134920
C273	C	1.338977	0.740793	0.198413
C274	C	0.594397	0.151969	-0.531864
C275	C	0.927730	0.485302	-0.198531
C276	C	1.261063	0.818635	0.134803
C277	C	0.594395	0.151966	-0.468253
C278	C	0.927728	0.485299	-0.134920
C279	C	1.261061	0.818632	0.198414
C280	C	0.633350	0.113043	-0.436446
C281	C	0.966684	0.446376	-0.103113
C282	C	1.300017	0.779709	0.230220
C283	C	0.633354	0.113056	-0.372854
C284	C	0.966688	0.446390	-0.039521
C285	C	1.300021	0.779723	0.293813
N286	N	0.672303	0.074132	-0.341044
N287	N	1.005637	0.407465	-0.007710
N288	N	1.338970	0.740799	0.325623
C289	C	0.711257	0.035207	-0.372840
C290	C	1.044590	0.368540	-0.039507
C291	C	1.377924	0.701874	0.293827
C292	C	0.633374	0.113039	-0.760848
C293	C	0.966708	0.446372	-0.427514
C294	C	1.300041	0.779706	-0.094181
C295	C	0.633382	0.113041	-0.824453
C296	C	0.966715	0.446375	-0.491120
C297	C	1.300048	0.779708	-0.157786
C298	C	0.711288	0.035189	-0.824439
C299	C	1.044621	0.368523	-0.491106
C300	C	1.377955	0.701856	-0.157773
C301	C	0.711283	0.035190	-0.760833
C302	C	1.044617	0.368523	-0.427499
C303	C	1.377950	0.701857	-0.094166
C304	C	0.672323	0.074115	-0.729038
C305	C	1.005657	0.407448	-0.395704
C306	C	1.338990	0.740781	-0.062371
C307	C	0.711250	0.035220	-0.239269
C308	C	1.044583	0.368554	0.094065
C309	C	1.377917	0.701887	0.427398
C310	C	0.711246	0.035230	-0.175660
C311	C	1.044579	0.368564	0.157674
C312	C	1.377913	0.701897	0.491007
C313	C	0.633338	0.113080	-0.175679
C314	C	0.966671	0.446413	0.157654
C315	C	1.300005	0.779747	0.490987
C316	C	0.633344	0.113073	-0.239282
C317	C	0.966677	0.446406	0.094051
C318	C	1.300010	0.779739	0.427384
C319	C	0.672302	0.074138	-0.271076
C320	C	1.005635	0.407471	0.062258
C321	C	1.338969	0.740805	0.395591
O322	O	0.600255	0.146155	-0.339914
O323	O	0.933589	0.479488	-0.006580
O324	O	1.266922	0.812821	0.326753
O325	O	0.744376	0.002100	-0.339935
O326	O	1.077709	0.335434	-0.006601
O327	O	1.411043	0.668767	0.326732
N328	N	0.672334	0.074114	0.143745
N329	N	1.005667	0.407447	0.477079
N330	N	1.339001	0.740781	0.810412
H331	H	0.486571	0.172259	-0.000022
H332	H	0.819904	0.505592	0.333311
H333	H	1.153238	0.838925	0.666645
Br334	Br	-0.154218	-0.052366	-0.000076
Br335	Br	0.179115	0.280968	0.333257
Br336	Br	0.512449	0.614301	0.666590
Br337	Br	-0.014226	-0.050691	-0.000093
Br338	Br	0.319108	0.282642	0.333240
Br339	Br	0.652441	0.615976	0.666573
Br340	Br	0.671489	-0.495839	0.184885
Br341	Br	1.004823	-0.162506	0.518218
Br342	Br	1.338156	0.170828	0.851552
H343	H	0.562667	0.183662	-0.442369
H344	H	0.896001	0.516996	-0.109035
H345	H	1.229334	0.850329	0.224298
H346	H	0.378821	0.170974	-0.000040
H347	H	0.712154	0.504307	0.333294
H348	H	1.045488	0.837641	0.666627
H349	H	0.669642	-0.645223	-0.099983
H350	H	1.002976	-0.311889	0.233350
H351	H	1.336309	0.021444	0.566684
Br352	Br	0.126115	-0.101020	-0.000101
Br353	Br	0.459448	0.232313	0.333233
Br354	Br	0.792781	0.565647	0.666566
H355	H	0.674940	-0.206520	-0.100012
H356	H	1.008273	0.126814	0.233321
H357	H	1.341607	0.460147	0.566654
Br358	Br	0.673180	-0.355856	0.184876
Br359	Br	1.006513	-0.022523	0.518209
Br360	Br	1.339846	0.310810	0.851543
H361	H	0.676240	-0.098753	-0.100014
H362	H	1.009574	0.234581	0.233319
H363	H	1.342907	0.567914	0.566653
H364	H	0.512282	-0.016147	-0.000056
H365	H	0.845616	0.317187	0.333277
H366	H	1.178949	0.650520	0.666611
Br367	Br	0.671411	-0.495849	-0.184986
Br368	Br	1.004744	-0.162515	0.148348
Br369	Br	1.338078	0.170818	0.481681
H370	H	0.676276	-0.098748	0.099864
H371	H	1.009609	0.234585	0.433197
H372	H	1.342942	0.567919	0.766531
Br373	Br	0.674773	-0.222613	0.129785
Br374	Br	1.008107	0.110720	0.463119
Br375	Br	1.341440	0.444053	0.796452
H376	H	0.742973	0.003516	-0.265148
H377	H	1.076306	0.336849	0.068186
H378	H	1.409640	0.670182	0.401519
Br379	Br	0.218523	0.249297	-0.000028
Br380	Br	0.551857	0.582630	0.333305
Br381	Br	0.885190	0.915964	0.666639
H382	H	0.668382	-0.752974	0.099906
H383	H	1.001715	-0.419640	0.433239
H384	H	1.335049	-0.086307	0.766572
Br385	Br	0.580482	0.165906	-0.282447
Br386	Br	0.913815	0.499239	0.050886
Br387	Br	1.247148	0.832572	0.384219
H388	H	0.601624	0.144774	-0.149781
H389	H	0.934957	0.478107	0.183553
H390	H	1.268290	0.811441	0.516886
H391	H	0.668359	-0.752973	-0.099974
H392	H	1.001692	-0.419639	0.233359
H393	H	1.335026	-0.086306	0.566692
Br394	Br	0.266106	-0.099337	-0.000117
Br395	Br	0.599439	0.233996	0.333216
Br396	Br	0.932772	0.567330	0.666549
H397	H	0.098505	0.219623	-0.000044
H398	H	0.431838	0.552956	0.333289
H399	H	0.765171	0.886289	0.666623
Br400	Br	0.669883	-0.629086	0.129811
Br401	Br	1.003216	-0.295752	0.463144
Br402	Br	1.336550	0.037581	0.796477
Br403	Br	0.673094	-0.355857	-0.184988
Br404	Br	1.006427	-0.022524	0.148346
Br405	Br	1.339760	0.310809	0.481679
H406	H	-0.059896	0.165721	-0.000054
H407	H	0.273437	0.499054	0.333279
H408	H	0.606770	0.832388	0.666613
Br409	Br	0.764120	-0.017595	-0.132496
Br410	Br	1.097453	0.315738	0.200837
Br411	Br	1.430786	0.649072	0.534170
Br412	Br	0.392236	-0.045824	-0.000076
Br413	Br	0.725570	0.287510	0.333257
Br414	Br	1.058903	0.620843	0.666590
H415	H	0.743004	0.003495	-0.734939
H416	H	1.076337	0.336829	-0.401606
H417	H	1.409670	0.670162	-0.068273
Br418	Br	0.803083	-0.056547	-0.425083
Br419	Br	1.136416	0.276786	-0.091750
Br420	Br	1.469750	0.610119	0.241583
Br421	Br	-0.187633	0.192420	-0.000052
Br422	Br	0.145701	0.525753	0.333281
Br423	Br	0.479034	0.859086	0.666615
Br424	Br	0.764154	-0.017638	-0.867605
Br425	Br	1.097488	0.315695	-0.534272
Br426	Br	1.430821	0.649029	-0.200938
Br427	Br	0.803090	-0.056558	-0.574987
Br428	Br	1.136423	0.276775	-0.241654
Br429	Br	1.469757	0.610109	0.091679
Br430	Br	0.580521	0.165877	-0.867612
Br431	Br	0.913854	0.499210	-0.534279
Br432	Br	1.247188	0.832543	-0.200946
H433	H	0.601650	0.144741	-0.734963
H434	H	0.934983	0.478074	-0.401630
H435	H	1.268317	0.811407	-0.068296
Br436	Br	0.541526	0.204795	-0.575017
Br437	Br	0.874859	0.538128	-0.241684
Br438	Br	1.208193	0.871461	0.091649
