data_functionalizedCrystal
_audit_creation_method	'MofGen! by Chris Wilmer'
_symmetry_space_group_name_H-M	'P1'
_symmetry_Int_Tables_number	1
_symmetry_cell_setting	triclinic
loop_
_symmetry_equiv_pos_as_xyz
  x,y,z
_cell_length_a	10.723024
_cell_length_b	17.699083
_cell_length_c	16.176319
_cell_angle_alpha	90.001389
_cell_angle_beta	89.994397
_cell_angle_gamma	96.124558
loop_
_atom_site_label
_atom_site_type_symbol
_atom_site_fract_x
_atom_site_fract_y
_atom_site_fract_z
O1	O	0.157797	-1.005074	-0.068628
O2	O	0.657797	-0.505074	0.431372
O3	O	0.178327	-0.784825	-0.068655
O4	O	0.678327	-0.284825	0.431345
O5	O	-0.013601	-0.900030	-0.068638
O6	O	0.486399	-0.400030	0.431362
O7	O	0.349725	-0.889869	-0.068646
O8	O	0.849725	-0.389869	0.431354
O9	O	-0.013613	-0.900014	0.068855
O10	O	0.486387	-0.400014	0.568855
O11	O	0.178315	-0.784809	0.068838
O12	O	0.678315	-0.284809	0.568838
O13	O	0.157785	-1.005058	0.068865
O14	O	0.657785	-0.505058	0.568865
Cu15	Cu	0.168049	-0.894932	0.081406
Cu16	Cu	0.668049	-0.394932	0.581406
Cu17	Cu	0.168063	-0.894951	-0.081196
Cu18	Cu	0.668063	-0.394951	0.418804
O19	O	0.349713	-0.889853	0.068848
O20	O	0.849713	-0.389853	0.568848
C21	C	0.177585	-0.756616	0.000088
C22	C	0.677585	-0.256616	0.500088
C23	C	0.175378	-0.672584	0.000078
C24	C	0.675378	-0.172584	0.500078
C25	C	-0.060094	-0.899283	0.000107
C26	C	0.439906	-0.399283	0.500107
C27	C	-0.198610	-0.897070	0.000104
C28	C	0.301390	-0.397070	0.500104
C29	C	0.158527	-1.033268	0.000120
C30	C	0.658527	-0.533268	0.500120
C31	C	0.160734	-1.117300	0.000125
C32	C	0.660734	-0.617300	0.500125
C33	C	-0.274698	-0.961533	0.000111
C34	C	0.225302	-0.461533	0.500111
C35	C	-0.417863	-0.959248	0.000108
C36	C	0.082137	-0.459248	0.500108
C37	C	0.396206	-0.890601	0.000100
C38	C	0.896206	-0.390601	0.500100
C39	C	0.534723	-0.892813	0.000098
C40	C	1.034723	-0.392813	0.500098
N41	N	0.168038	-0.894924	0.195771
N42	N	0.668038	-0.394924	0.695771
C43	C	0.288036	-0.624673	0.000076
C44	C	0.788036	-0.124673	0.500076
C45	C	0.285955	-0.545717	0.000086
C46	C	0.785955	-0.045717	0.500086
C47	C	0.171215	-0.514672	0.000093
C48	C	0.671215	-0.014672	0.500093
C49	C	0.058549	-0.562589	0.000098
C50	C	0.558549	-0.062589	0.500098
C51	C	0.060631	-0.641544	0.000093
C52	C	0.560631	-0.141544	0.500093
C53	C	0.050148	-0.244173	0.000118
C54	C	0.550148	0.255827	0.500118
C55	C	0.048075	-0.165212	0.000121
C56	C	0.548075	0.334788	0.500121
C57	C	0.275473	-0.148346	0.000112
C58	C	0.775473	0.351654	0.500112
C59	C	0.277555	-0.227301	0.000107
C60	C	0.777555	0.272699	0.500107
C61	C	0.164889	-0.275210	0.000116
C62	C	0.664889	0.224790	0.500116
C63	C	0.167147	-0.360824	0.000106
C64	C	0.667147	0.139176	0.500106
C65	C	0.168956	-0.429060	0.000097
C66	C	0.668956	0.070940	0.500097
N67	N	0.168064	-0.894965	-0.195561
N68	N	0.668064	-0.394965	0.304439
C69	C	0.083087	-0.945953	0.239042
C70	C	0.583087	-0.445953	0.739042
C71	C	0.083085	-0.945957	0.325590
C72	C	0.583085	-0.445957	0.825590
C73	C	0.168042	-0.894935	0.368863
C74	C	0.668042	-0.394935	0.868863
C75	C	0.252997	-0.843901	0.325586
C76	C	0.752997	-0.343901	0.825586
C77	C	0.252992	-0.843894	0.239040
C78	C	0.752992	-0.343894	0.739040
C79	C	0.253021	-0.843927	0.674614
C80	C	0.753021	-0.343927	1.174614
C81	C	0.253022	-0.843940	0.761165
C82	C	0.753022	-0.343940	1.261165
C83	C	0.083115	-0.945989	0.761163
C84	C	0.583115	-0.445989	1.261163
C85	C	0.083109	-0.945983	0.674618
C86	C	0.583109	-0.445983	1.174618
C87	C	0.168059	-0.894946	0.631348
C88	C	0.668059	-0.394946	1.131348
C89	C	0.168058	-0.894942	0.537503
C90	C	0.668058	-0.394942	1.037503
C91	C	0.168050	-0.894943	0.462706
C92	C	0.668050	-0.394943	0.962706
H93	H	-0.233851	-1.018413	0.000123
H94	H	0.266149	-0.518413	0.500123
H95	H	0.013911	-0.987507	0.360821
H96	H	0.513911	-0.487507	0.860821
H97	H	-0.399906	-0.837625	0.000098
H98	H	0.100094	-0.337625	0.500098
H99	H	0.322167	-0.802355	0.360824
H100	H	0.822167	-0.302355	0.860824
H101	H	-0.483241	-1.014433	0.000117
H102	H	0.016759	-0.514433	0.500117
Br103	Br	-0.266677	-0.802260	0.000081
Br104	Br	0.233323	-0.302260	0.500081
H105	H	-0.034875	-0.537306	0.000115
H106	H	0.465125	-0.037306	0.500115
H107	H	0.381471	-0.649943	0.000069
H108	H	0.881471	-0.149943	0.500069
H109	H	0.322166	-0.802341	0.203809
H110	H	0.822166	-0.302341	0.703809
Br111	Br	0.428380	-0.083321	0.000101
Br112	Br	0.928380	0.416679	0.500101
Br113	Br	-0.092268	-0.706566	0.000103
Br114	Br	0.407732	-0.206566	0.500103
Br115	Br	0.368309	-0.774668	0.615894
Br116	Br	0.868309	-0.274668	1.115894
H117	H	0.370988	-0.252572	0.000098
H118	H	0.870988	0.247428	0.500098
H119	H	0.377693	-0.506711	0.000084
H120	H	0.877693	-0.006711	0.500084
H121	H	0.013910	-0.987503	0.203815
H122	H	0.513910	-0.487503	0.703815
H123	H	-0.041591	-0.283172	0.000126
H124	H	0.458409	0.216828	0.500126
H125	H	-0.045366	-0.139939	0.000127
H126	H	0.454634	0.360061	0.500127
Br127	Br	-0.032186	-1.015232	0.615892
Br128	Br	0.467814	-0.515232	1.115892
Br129	Br	-0.032180	-1.015254	0.819891
Br130	Br	0.467820	-0.515254	1.319891
H131	H	0.322207	-0.802389	0.796397
H132	H	0.822207	-0.302389	1.296397
