data_functionalizedCrystal
_audit_creation_method	'MofGen! by Chris Wilmer'
_symmetry_space_group_name_H-M	'P1'
_symmetry_Int_Tables_number	1
_symmetry_cell_setting	triclinic
loop_
_symmetry_equiv_pos_as_xyz
  x,y,z
_cell_length_a	16.109302
_cell_length_b	23.532357
_cell_length_c	14.586319
_cell_angle_alpha	89.990687
_cell_angle_beta	89.994552
_cell_angle_gamma	83.145036
loop_
_atom_site_label
_atom_site_type_symbol
_atom_site_fract_x
_atom_site_fract_y
_atom_site_fract_z
O1	O	1.102536	0.073206	-0.076293
O2	O	1.602536	0.573206	0.423707
O3	O	0.860400	0.082315	-0.076287
O4	O	1.360400	0.582315	0.423713
O5	O	0.988791	-0.005146	-0.076271
O6	O	1.488791	0.494854	0.423729
O7	O	0.974144	0.160667	-0.076309
O8	O	1.474144	0.660667	0.423691
O9	O	0.988782	-0.005147	0.076210
O10	O	1.488782	0.494853	0.576210
O11	O	0.860391	0.082314	0.076194
O12	O	1.360391	0.582314	0.576194
O13	O	1.102527	0.073204	0.076188
O14	O	1.602527	0.573204	0.576188
Cu15	Cu	0.981458	0.077759	0.090114
Cu16	Cu	1.481458	0.577759	0.590114
Cu17	Cu	0.981469	0.077761	-0.090213
Cu18	Cu	1.481469	0.577761	0.409787
O19	O	0.974136	0.160666	0.076172
O20	O	1.474136	0.660666	0.576172
C21	C	0.829423	0.081946	-0.000046
C22	C	1.329423	0.581946	0.499954
C23	C	0.737137	0.080839	-0.000043
C24	C	1.237137	0.580839	0.499957
C25	C	0.524812	0.078280	0.083066
C26	C	1.024812	0.578280	0.583066
C27	C	0.438101	0.077234	0.083063
C28	C	0.938101	0.577234	0.583063
C29	C	0.438121	0.077238	-0.083180
C30	C	0.938121	0.577238	0.416820
C31	C	0.524832	0.078280	-0.083176
C32	C	1.024832	0.578280	0.416824
C33	C	0.568174	0.078804	-0.000050
C34	C	1.068174	0.578804	0.499950
C35	C	0.394752	0.076716	-0.000057
C36	C	0.894752	0.576716	0.499943
C37	C	0.300736	0.075582	-0.000061
C38	C	0.800736	0.575582	0.499939
C39	C	0.662197	0.079937	-0.000046
C40	C	1.162197	0.579937	0.499954
C41	C	0.988420	-0.026365	-0.000028
C42	C	1.488420	0.473635	0.499972
C43	C	0.987319	-0.089587	-0.000019
C44	C	1.487319	0.410413	0.499981
C45	C	0.980409	-0.481624	-0.083186
C46	C	1.480409	0.018376	0.416814
C47	C	0.979362	-0.541027	-0.083191
C48	C	1.479362	-0.041027	0.416809
O49	O	0.978796	-0.571745	-0.153879
O50	O	1.478796	-0.071745	0.346121
N51	N	0.978838	-0.570741	-0.000075
N52	N	1.478838	-0.070741	0.499925
C53	C	0.979352	-0.541047	0.083052
C54	C	1.479352	-0.041047	0.583052
O55	O	0.978809	-0.571776	0.153748
O56	O	1.478809	-0.071776	0.653748
C57	C	0.980393	-0.481645	0.083056
C58	C	1.480393	0.018355	0.583056
C59	C	0.980926	-0.451935	-0.000066
C60	C	1.480926	0.048065	0.499934
C61	C	0.980940	-0.451913	-0.166301
C62	C	1.480940	0.048087	0.333699
C63	C	0.981989	-0.392514	-0.166295
C64	C	1.481989	0.107486	0.333705
C65	C	0.982506	-0.362825	-0.083175
C66	C	1.482506	0.137175	0.416825
C67	C	0.981974	-0.392535	-0.000060
C68	C	1.481974	0.107465	0.499940
C69	C	0.980902	-0.451952	0.166182
C70	C	1.480902	0.048048	0.666182
C71	C	0.981942	-0.392545	0.166179
C72	C	1.481942	0.107455	0.666179
C73	C	0.982475	-0.362835	0.083057
C74	C	1.482475	0.137165	0.583057
C75	C	0.983540	-0.303447	0.083066
C76	C	1.483540	0.196553	0.583066
N77	N	0.984064	-0.273734	-0.000050
N78	N	1.484064	0.226266	0.499950
C79	C	0.983547	-0.303423	-0.083171
C80	C	1.483547	0.196577	0.416829
C81	C	0.977164	-0.665797	0.083037
C82	C	1.477164	-0.165797	0.583037
C83	C	0.976129	-0.725199	0.083033
C84	C	1.476129	-0.225199	0.583033
C85	C	0.976137	-0.725174	-0.083210
C86	C	1.476137	-0.225174	0.416790
C87	C	0.977178	-0.665772	-0.083206
C88	C	1.477178	-0.165772	0.416794
C89	C	0.977688	-0.636083	-0.000080
C90	C	1.477688	-0.136083	0.499920
C91	C	0.985750	-0.178680	-0.083153
C92	C	1.485750	0.321320	0.416847
C93	C	0.986802	-0.119276	-0.083140
C94	C	1.486802	0.380724	0.416860
C95	C	0.986789	-0.119306	0.083103
C96	C	1.486789	0.380694	0.583103
C97	C	0.985742	-0.178705	0.083091
C98	C	1.485742	0.321295	0.583091
C99	C	0.985219	-0.208391	-0.000045
C100	C	1.485219	0.291609	0.499955
O101	O	0.984103	-0.272692	0.153718
O102	O	1.484103	0.227308	0.653718
O103	O	0.984079	-0.272686	-0.153855
O104	O	1.484079	0.227314	0.346145
C105	C	1.133503	0.073574	-0.000055
C106	C	1.633503	0.573574	0.499945
C107	C	1.225789	0.074681	-0.000065
C108	C	1.725789	0.574681	0.499935
C109	C	0.974506	0.181884	-0.000073
C110	C	1.474506	0.681884	0.499927
C111	C	0.975608	0.245107	-0.000088
C112	C	1.475608	0.745107	0.499912
N113	N	0.981457	0.077758	0.216945
N114	N	1.481457	0.577758	0.716945
N115	N	0.981476	0.077758	-0.217044
N116	N	1.481476	0.577758	0.282956
C117	C	1.038327	0.039043	0.451959
C118	C	1.538327	0.539043	0.951959
C119	C	1.038329	0.039041	0.547940
C120	C	1.538329	0.539041	1.047940
C121	C	0.924600	0.116474	0.547935
C122	C	1.424600	0.616474	1.047935
C123	C	0.924594	0.116473	0.451956
C124	C	1.424594	0.616473	0.951956
C125	C	0.981463	0.077757	0.403970
C126	C	1.481463	0.577757	0.903970
C127	C	0.981471	0.077758	0.595931
C128	C	1.481471	0.577758	1.095931
C129	C	0.981473	0.077757	0.699998
C130	C	1.481473	0.577757	1.199998
C131	C	0.981460	0.077758	0.299896
C132	C	1.481460	0.577758	0.799896
H133	H	0.985320	-0.202843	-0.150849
H134	H	1.485320	0.297157	0.349151
O135	O	0.391374	0.076672	-0.172835
O136	O	0.891374	0.576672	0.327165
H137	H	0.400287	0.115663	-0.212705
H138	H	0.900287	0.615663	0.287295
H139	H	0.987214	-0.095123	0.150777
H140	H	1.487214	0.404877	0.650777
H141	H	0.878285	0.147999	0.412881
H142	H	1.378285	0.647999	0.912881
O143	O	1.099671	-0.002708	0.599703
O144	O	1.599671	0.497292	1.099703
H145	H	1.139218	-0.029623	0.550207
H146	H	1.639218	0.470377	1.050207
O147	O	1.099650	-0.002718	0.400198
O148	O	1.599650	0.497282	0.900198
H149	H	1.139185	-0.029643	0.449696
H150	H	1.639185	0.470357	0.949696
O151	O	0.571610	0.078847	-0.172826
O152	O	1.071610	0.578847	0.327174
H153	H	0.526904	0.078317	-0.230630
H154	H	1.026904	0.578317	0.269370
H155	H	0.402799	0.076808	0.150745
H156	H	0.902799	0.576808	0.650745
H157	H	0.987237	-0.095089	-0.150830
H158	H	1.487237	0.404911	0.349170
O159	O	0.571563	0.078840	0.172720
O160	O	1.071563	0.578840	0.672720
H161	H	0.603317	0.118112	0.176693
H162	H	1.103317	0.618112	0.676693
H163	H	0.982419	-0.368329	-0.233981
H164	H	1.482419	0.131671	0.266019
O165	O	0.980362	-0.483929	-0.255959
O166	O	1.480362	0.016071	0.244041
H167	H	0.980903	-0.453280	-0.313744
H168	H	1.480903	0.046720	0.186256
H169	H	0.977611	-0.641586	-0.150891
H170	H	1.477611	-0.141586	0.349109
H171	H	0.878301	0.147996	0.587015
H172	H	1.378301	0.647996	1.087015
O173	O	0.977737	-0.633778	0.172699
O174	O	1.477737	-0.133778	0.672699
H175	H	0.977208	-0.664425	0.230487
H176	H	1.477208	-0.164425	0.730487
H177	H	0.982345	-0.368374	0.233872
H178	H	1.482345	0.131626	0.733872
O179	O	0.975558	-0.757194	-0.172871
O180	O	1.475558	-0.257194	0.327129
H181	H	1.031748	-0.789355	-0.176862
H182	H	1.531748	-0.289355	0.323138
O183	O	0.975563	-0.757243	0.172685
O184	O	1.475563	-0.257243	0.672685
H185	H	0.976092	-0.726612	0.230479
H186	H	1.476092	-0.226612	0.730479
H187	H	0.980470	-0.476132	0.233869
H188	H	1.480470	0.023868	0.733869
H189	H	0.985316	-0.202897	0.150775
H190	H	1.485316	0.297103	0.650775
