data_functionalizedCrystal
_audit_creation_method	'MofGen! by Chris Wilmer'
_symmetry_space_group_name_H-M	'P1'
_symmetry_Int_Tables_number	1
_symmetry_cell_setting	triclinic
loop_
_symmetry_equiv_pos_as_xyz
  x,y,z
_cell_length_a	27.731994
_cell_length_b	27.731996
_cell_length_c	26.809956
_cell_angle_alpha	89.998344
_cell_angle_beta	89.997334
_cell_angle_gamma	82.620961
loop_
_atom_site_label
_atom_site_type_symbol
_atom_site_fract_x
_atom_site_fract_y
_atom_site_fract_z
O1	O	0.640937	0.057387	-0.041415
O2	O	0.890937	0.307387	0.208585
O3	O	1.140937	0.557387	0.458585
O4	O	1.390937	0.807387	0.708585
O5	O	0.500139	0.066160	-0.041432
O6	O	0.750139	0.316160	0.208568
O7	O	1.000139	0.566160	0.458568
O8	O	1.250139	0.816160	0.708568
O9	O	0.574924	-0.008626	-0.041412
O10	O	0.824924	0.241374	0.208588
O11	O	1.074924	0.491374	0.458588
O12	O	1.324924	0.741374	0.708588
O13	O	0.566152	0.132173	-0.041435
O14	O	0.816152	0.382173	0.208565
O15	O	1.066152	0.632173	0.458565
O16	O	1.316152	0.882173	0.708565
O17	O	0.574910	-0.008615	0.041547
O18	O	0.824910	0.241385	0.291547
O19	O	1.074910	0.491385	0.541547
O20	O	1.324910	0.741385	0.791547
O21	O	0.500124	0.066171	0.041527
O22	O	0.750124	0.316171	0.291527
O23	O	1.000124	0.566171	0.541527
O24	O	1.250124	0.816171	0.791527
O25	O	0.640923	0.057398	0.041544
O26	O	0.890923	0.307398	0.291544
O27	O	1.140923	0.557398	0.541544
O28	O	1.390923	0.807398	0.791544
Zn29	Zn	0.570522	0.061787	0.054707
Zn30	Zn	0.820522	0.311787	0.304707
Zn31	Zn	1.070522	0.561787	0.554707
Zn32	Zn	1.320522	0.811787	0.804707
Zn33	Zn	0.570540	0.061772	-0.054595
Zn34	Zn	0.820540	0.311772	0.195405
Zn35	Zn	1.070540	0.561772	0.445405
Zn36	Zn	1.320540	0.811772	0.695405
O37	O	0.566138	0.132184	0.041524
O38	O	0.816138	0.382184	0.291524
O39	O	1.066138	0.632184	0.541524
O40	O	1.316138	0.882184	0.791524
C41	C	0.482124	0.065986	0.000045
C42	C	0.732124	0.315986	0.250045
C43	C	0.982124	0.565986	0.500045
C44	C	1.232124	0.815986	0.750045
C45	C	0.428468	0.065443	0.000039
C46	C	0.678468	0.315443	0.250039
C47	C	0.928468	0.565443	0.500039
C48	C	1.178468	0.815443	0.750039
C49	C	0.095742	0.062034	0.045280
C50	C	0.345742	0.312034	0.295280
C51	C	0.595742	0.562034	0.545280
C52	C	0.845742	0.812034	0.795280
C53	C	-0.105915	0.059972	0.045286
C54	C	0.144085	0.309972	0.295286
C55	C	0.394085	0.559972	0.545286
C56	C	0.644085	0.809972	0.795286
O57	O	-0.131994	0.059690	0.083745
O58	O	0.118006	0.309690	0.333745
O59	O	0.368006	0.559690	0.583745
O60	O	0.618006	0.809690	0.833745
N61	N	-0.131122	0.059710	0.000065
N62	N	0.118878	0.309710	0.250065
N63	N	0.368878	0.559710	0.500065
N64	N	0.618878	0.809710	0.750065
C65	C	-0.105912	0.059960	-0.045161
C66	C	0.144088	0.309960	0.204839
C67	C	0.394088	0.559960	0.454839
C68	C	0.644088	0.809960	0.704839
O69	O	-0.131978	0.059684	-0.083624
O70	O	0.118022	0.309684	0.166376
O71	O	0.368022	0.559684	0.416376
O72	O	0.618022	0.809684	0.666376
C73	C	0.095746	0.062018	-0.045166
C74	C	0.345746	0.312018	0.204834
C75	C	0.595746	0.562018	0.454834
C76	C	0.845746	0.812018	0.704834
C77	C	0.120950	0.062285	0.000058
C78	C	0.370950	0.312285	0.250058
C79	C	0.620950	0.562285	0.500058
C80	C	0.870950	0.812285	0.750058
C81	C	0.120946	0.062300	0.090500
C82	C	0.370946	0.312300	0.340500
C83	C	0.620946	0.562300	0.590500
C84	C	0.870946	0.812300	0.840500
C85	C	0.171357	0.062818	0.090498
C86	C	0.421357	0.312818	0.340498
C87	C	0.671357	0.562818	0.590498
C88	C	0.921357	0.812818	0.840498
C89	C	0.196565	0.063070	0.045276
C90	C	0.446565	0.313070	0.295276
C91	C	0.696565	0.563070	0.545276
C92	C	0.946565	0.813070	0.795276
C93	C	0.171361	0.062803	0.000056
C94	C	0.421361	0.312803	0.250056
C95	C	0.671361	0.562803	0.500056
C96	C	0.921361	0.812803	0.750056
C97	C	0.120956	0.062264	-0.090392
C98	C	0.370956	0.312264	0.159608
C99	C	0.620956	0.562264	0.409608
C100	C	0.870956	0.812264	0.659608
C101	C	0.171374	0.062778	-0.090389
C102	C	0.421374	0.312778	0.159611
C103	C	0.671374	0.562778	0.409611
C104	C	0.921374	0.812778	0.659611
C105	C	0.196578	0.063045	-0.045165
C106	C	0.446578	0.313045	0.204835
C107	C	0.696578	0.563045	0.454835
C108	C	0.946578	0.813045	0.704835
C109	C	0.246979	0.063573	-0.045168
C110	C	0.496979	0.313573	0.204832
C111	C	0.746979	0.563573	0.454832
C112	C	0.996979	0.813573	0.704832
N113	N	0.272186	0.063835	0.000053
N114	N	0.522186	0.313835	0.250053
N115	N	0.772186	0.563835	0.500053
N116	N	1.022186	0.813835	0.750053
C117	C	0.246979	0.063583	0.045275
C118	C	0.496979	0.313583	0.295275
C119	C	0.746979	0.563583	0.545275
C120	C	0.996979	0.813583	0.795275
C121	C	-0.211785	0.058880	-0.045155
C122	C	0.038215	0.308880	0.204845
C123	C	0.288215	0.558880	0.454845
C124	C	0.538215	0.808880	0.704845
C125	C	-0.262199	0.058366	-0.045154
C126	C	-0.012199	0.308366	0.204846
C127	C	0.237801	0.558366	0.454846
C128	C	0.487801	0.808366	0.704846
C129	C	-0.262199	0.058378	0.045293
C130	C	-0.012199	0.308378	0.295293
C131	C	0.237801	0.558378	0.545293
C132	C	0.487801	0.808378	0.795293
C133	C	-0.211784	0.058895	0.045292
C134	C	0.038216	0.308895	0.295292
C135	C	0.288216	0.558895	0.545292
C136	C	0.538216	0.808895	0.795292
C137	C	-0.186578	0.059142	0.000066
C138	C	0.063422	0.309142	0.250066
C139	C	0.313422	0.559142	0.500066
C140	C	0.563422	0.809142	0.750066
C141	C	0.352846	0.064672	0.045267
C142	C	0.602846	0.314672	0.295267
C143	C	0.852846	0.564672	0.545267
C144	C	1.102846	0.814672	0.795267
C145	C	0.403261	0.065192	0.045261
C146	C	0.653261	0.315192	0.295261
C147	C	0.903261	0.565192	0.545261
C148	C	1.153261	0.815192	0.795261
C149	C	0.403257	0.065178	-0.045185
C150	C	0.653257	0.315178	0.204815
C151	C	0.903257	0.565178	0.454815
C152	C	1.153257	0.815178	0.704815
C153	C	0.352846	0.064660	-0.045180
C154	C	0.602846	0.314660	0.204820
C155	C	0.852846	0.564660	0.454820
C156	C	1.102846	0.814660	0.704820
C157	C	0.327642	0.064406	0.000051
C158	C	0.577642	0.314406	0.250051
C159	C	0.827642	0.564406	0.500051
C160	C	1.077642	0.814406	0.750051
O161	O	0.273090	0.063850	-0.083607
O162	O	0.523090	0.313850	0.166393
O163	O	0.773090	0.563850	0.416393
O164	O	1.023090	0.813850	0.666393
O165	O	0.273056	0.063848	0.083732
O166	O	0.523056	0.313848	0.333732
O167	O	0.773056	0.563848	0.583732
O168	O	1.023056	0.813848	0.833732
C169	C	0.045331	0.061516	0.045282
C170	C	0.295331	0.311516	0.295282
C171	C	0.545331	0.561516	0.545282
C172	C	0.795331	0.811516	0.795282
C173	C	0.020127	0.061249	0.000062
C174	C	0.270127	0.311249	0.250062
C175	C	0.520127	0.561249	0.500062
C176	C	0.770127	0.811249	0.750062
C177	C	0.045335	0.061500	-0.045161
C178	C	0.295335	0.311500	0.204839
C179	C	0.545335	0.561500	0.454839
C180	C	0.795335	0.811500	0.704839
C181	C	-0.030287	0.060735	0.000063
C182	C	0.219713	0.310735	0.250063
C183	C	0.469713	0.560735	0.500063
C184	C	0.719713	0.810735	0.750063
C185	C	-0.055494	0.060484	0.045285
C186	C	0.194506	0.310484	0.295285
C187	C	0.444506	0.560484	0.545285
C188	C	0.694506	0.810484	0.795285
C189	C	-0.030287	0.060746	0.090506
C190	C	0.219713	0.310746	0.340506
C191	C	0.469713	0.560746	0.590506
C192	C	0.719713	0.810746	0.840506
C193	C	0.020124	0.061264	0.090504
C194	C	0.270124	0.311264	0.340504
C195	C	0.520124	0.561264	0.590504
C196	C	0.770124	0.811264	0.840504
C197	C	0.020128	0.061238	-0.090382
C198	C	0.270128	0.311238	0.159618
C199	C	0.520128	0.561238	0.409618
C200	C	0.770128	0.811238	0.659618
C201	C	-0.030284	0.060721	-0.090376
C202	C	0.219716	0.310721	0.159624
C203	C	0.469716	0.560721	0.409624
C204	C	0.719716	0.810721	0.659624
C205	C	-0.055491	0.060469	-0.045154
C206	C	0.194509	0.310469	0.204846
C207	C	0.444509	0.560469	0.454846
C208	C	0.694509	0.810469	0.704846
C209	C	0.574737	-0.026628	0.000069
C210	C	0.824737	0.223372	0.250069
C211	C	1.074737	0.473372	0.500069
C212	C	1.324737	0.723372	0.750069
C213	C	0.574194	-0.080284	0.000074
C214	C	0.824194	0.169716	0.250074
C215	C	1.074194	0.419716	0.500074
C216	C	1.324194	0.669716	0.750074
C217	C	0.570787	-0.413006	-0.045172
C218	C	0.820787	-0.163006	0.204828
C219	C	1.070787	0.086994	0.454828
C220	C	1.320787	0.336994	0.704828
C221	C	0.568726	-0.614663	-0.045181
C222	C	0.818726	-0.364663	0.204819
C223	C	1.068726	-0.114663	0.454819
C224	C	1.318726	0.135337	0.704819
O225	O	0.568445	-0.640739	-0.083640
O226	O	0.818445	-0.390739	0.166360
O227	O	1.068445	-0.140739	0.416360
O228	O	1.318445	0.109261	0.666360
N229	N	0.568462	-0.639874	0.000040
N230	N	0.818462	-0.389874	0.250040
N231	N	1.068462	-0.139874	0.500040
N232	N	1.318462	0.110126	0.750040
C233	C	0.568711	-0.614667	0.045266
C234	C	0.818711	-0.364667	0.295266
C235	C	1.068711	-0.114667	0.545266
C236	C	1.318711	0.135333	0.795266
O237	O	0.568434	-0.640737	0.083729
O238	O	0.818434	-0.390737	0.333729
O239	O	1.068434	-0.140737	0.583729
O240	O	1.318434	0.109263	0.833729
C241	C	0.570768	-0.413010	0.045274
C242	C	0.820768	-0.163010	0.295274
C243	C	1.070768	0.086990	0.545274
C244	C	1.320768	0.336990	0.795274
C245	C	0.571037	-0.387802	0.000051
C246	C	0.821037	-0.137802	0.250051
C247	C	1.071037	0.112198	0.500051
C248	C	1.321037	0.362198	0.750051
C249	C	0.571055	-0.387798	-0.090392
C250	C	0.821055	-0.137798	0.159608
C251	C	1.071055	0.112202	0.409608
C252	C	1.321055	0.362202	0.659608
C253	C	0.571573	-0.337387	-0.090389
C254	C	0.821573	-0.087387	0.159611
C255	C	1.071573	0.162613	0.409611
C256	C	1.321573	0.412613	0.659611
C257	C	0.571823	-0.312183	-0.045166
C258	C	0.821823	-0.062183	0.204834
C259	C	1.071823	0.187817	0.454834
C260	C	1.321823	0.437817	0.704834
C261	C	0.571555	-0.337391	0.000054
C262	C	0.821555	-0.087391	0.250054
C263	C	1.071555	0.162609	0.500054
C264	C	1.321555	0.412609	0.750054
C265	C	0.571013	-0.387803	0.090500
C266	C	0.821013	-0.137803	0.340500
C267	C	1.071013	0.112197	0.590500
C268	C	1.321013	0.362197	0.840500
C269	C	0.571526	-0.337385	0.090498
C270	C	0.821526	-0.087385	0.340498
C271	C	1.071526	0.162615	0.590498
C272	C	1.321526	0.412615	0.840498
C273	C	0.571795	-0.312178	0.045274
C274	C	0.821795	-0.062178	0.295274
C275	C	1.071795	0.187822	0.545274
C276	C	1.321795	0.437822	0.795274
C277	C	0.572322	-0.261777	0.045279
C278	C	0.822322	-0.011777	0.295279
C279	C	1.072322	0.238223	0.545279
C280	C	1.322322	0.488223	0.795279
N281	N	0.572586	-0.236566	0.000058
N282	N	0.822586	0.013434	0.250058
N283	N	1.072586	0.263434	0.500058
N284	N	1.322586	0.513434	0.750058
C285	C	0.572336	-0.261769	-0.045164
C286	C	0.822336	-0.011769	0.204836
C287	C	1.072336	0.238231	0.454836
C288	C	1.322336	0.488231	0.704836
C289	C	0.567631	-0.720540	0.045258
C290	C	0.817631	-0.470540	0.295258
C291	C	1.067631	-0.220540	0.545258
C292	C	1.317631	0.029460	0.795258
C293	C	0.567118	-0.770955	0.045256
C294	C	0.817118	-0.520955	0.295256
C295	C	1.067118	-0.270955	0.545256
C296	C	1.317118	-0.020955	0.795256
C297	C	0.567132	-0.770947	-0.045191
C298	C	0.817132	-0.520947	0.204809
C299	C	1.067132	-0.270947	0.454809
C300	C	1.317132	-0.020947	0.704809
C301	C	0.567649	-0.720533	-0.045188
C302	C	0.817649	-0.470533	0.204812
C303	C	1.067649	-0.220533	0.454812
C304	C	1.317649	0.029467	0.704812
C305	C	0.567895	-0.695329	0.000038
C306	C	0.817895	-0.445329	0.250038
C307	C	1.067895	-0.195329	0.500038
C308	C	1.317895	0.054671	0.750038
C309	C	0.573424	-0.155902	-0.045155
C310	C	0.823424	0.094098	0.204845
C311	C	1.073424	0.344098	0.454845
C312	C	1.323424	0.594098	0.704845
C313	C	0.573944	-0.105487	-0.045149
C314	C	0.823944	0.144513	0.204851
C315	C	1.073944	0.394513	0.454851
C316	C	1.323944	0.644513	0.704851
C317	C	0.573927	-0.105499	0.045298
C318	C	0.823927	0.144501	0.295298
C319	C	1.073927	0.394501	0.545298
C320	C	1.323927	0.644501	0.795298
C321	C	0.573410	-0.155910	0.045292
C322	C	0.823410	0.094090	0.295292
C323	C	1.073410	0.344090	0.545292
C324	C	1.323410	0.594090	0.795292
C325	C	0.573157	-0.181110	0.000061
C326	C	0.823157	0.068890	0.250061
C327	C	1.073157	0.318890	0.500061
C328	C	1.323157	0.568890	0.750061
O329	O	0.572598	-0.235669	0.083718
O330	O	0.822598	0.014331	0.333718
O331	O	1.072598	0.264331	0.583718
O332	O	1.322598	0.514331	0.833718
O333	O	0.572602	-0.235689	-0.083621
O334	O	0.822602	0.014311	0.166379
O335	O	1.072602	0.264311	0.416379
O336	O	1.322602	0.514311	0.666379
C337	C	0.570269	-0.463417	-0.045175
C338	C	0.820269	-0.213417	0.204825
C339	C	1.070269	0.036583	0.454825
C340	C	1.320269	0.286583	0.704825
C341	C	0.570001	-0.488624	0.000045
C342	C	0.820001	-0.238624	0.250045
C343	C	1.070001	0.011376	0.500045
C344	C	1.320001	0.261376	0.750045
C345	C	0.570251	-0.463421	0.045268
C346	C	0.820251	-0.213421	0.295268
C347	C	1.070251	0.036579	0.545268
C348	C	1.320251	0.286579	0.795268
C349	C	0.569487	-0.539039	0.000043
C350	C	0.819487	-0.289039	0.250043
C351	C	1.069487	-0.039039	0.500043
C352	C	1.319487	0.210961	0.750043
C353	C	0.569238	-0.564242	-0.045179
C354	C	0.819238	-0.314242	0.204821
C355	C	1.069238	-0.064242	0.454821
C356	C	1.319238	0.185758	0.704821
C357	C	0.569501	-0.539031	-0.090400
C358	C	0.819501	-0.289031	0.159600
C359	C	1.069501	-0.039031	0.409600
C360	C	1.319501	0.210969	0.659600
C361	C	0.570019	-0.488620	-0.090397
C362	C	0.820019	-0.238620	0.159603
C363	C	1.070019	0.011380	0.409603
C364	C	1.320019	0.261380	0.659603
C365	C	0.569987	-0.488632	0.090489
C366	C	0.819987	-0.238632	0.340489
C367	C	1.069987	0.011368	0.590489
C368	C	1.319987	0.261368	0.840489
C369	C	0.569470	-0.539043	0.090482
C370	C	0.819470	-0.289043	0.340482
C371	C	1.069470	-0.039043	0.590482
C372	C	1.319470	0.210957	0.840482
C373	C	0.569220	-0.564246	0.045260
C374	C	0.819220	-0.314246	0.295260
C375	C	1.069220	-0.064246	0.545260
C376	C	1.319220	0.185754	0.795260
C377	C	0.658938	0.057573	0.000066
C378	C	0.908938	0.307573	0.250066
C379	C	1.158938	0.557573	0.500066
C380	C	1.408938	0.807573	0.750066
C381	C	0.712594	0.058115	0.000069
C382	C	0.962594	0.308115	0.250069
C383	C	1.212594	0.558115	0.500069
C384	C	1.462594	0.808115	0.750069
C385	C	0.566325	0.150186	0.000042
C386	C	0.816325	0.400186	0.250042
C387	C	1.066325	0.650186	0.500042
C388	C	1.316325	0.900186	0.750042
C389	C	0.566868	0.203842	0.000034
C390	C	0.816868	0.453842	0.250034
C391	C	1.066868	0.703842	0.500034
C392	C	1.316868	0.953842	0.750034
N393	N	0.570513	0.061797	0.129303
N394	N	0.820513	0.311797	0.379303
N395	N	1.070513	0.561797	0.629303
N396	N	1.320513	0.811797	0.879303
N397	N	0.570553	0.061758	-0.129191
N398	N	0.820553	0.311758	0.120809
N399	N	1.070553	0.561758	0.370809
N400	N	1.320553	0.811758	0.620809
C401	C	0.603651	0.028665	0.473938
C402	C	0.853651	0.278665	0.723938
C403	C	1.103651	0.528665	0.973938
C404	C	1.353651	0.778665	1.223938
C405	C	0.603663	0.028657	0.682816
C406	C	0.853663	0.278657	0.932816
C407	C	1.103663	0.528657	1.182816
C408	C	1.353663	0.778657	1.432816
O409	O	0.631818	0.000490	0.709827
O410	O	0.881818	0.250490	0.959827
O411	O	1.131818	0.500490	1.209827
O412	O	1.381818	0.750490	1.459827
N413	N	0.570543	0.061761	0.708930
N414	N	0.820543	0.311761	0.958930
N415	N	1.070543	0.561761	1.208930
N416	N	1.320543	0.811761	1.458930
C417	C	0.537416	0.094867	0.682822
C418	C	0.787416	0.344867	0.932822
C419	C	1.037416	0.594867	1.182822
C420	C	1.287416	0.844867	1.432822
O421	O	0.509243	0.123020	0.709827
O422	O	0.759243	0.373020	0.959827
O423	O	1.009243	0.623020	1.209827
O424	O	1.259243	0.873020	1.459827
C425	C	0.537403	0.094872	0.473945
C426	C	0.787403	0.344872	0.723945
C427	C	1.037403	0.594872	0.973945
C428	C	1.287403	0.844872	1.223945
C429	C	0.570528	0.061769	0.447834
C430	C	0.820528	0.311769	0.697834
C431	C	1.070528	0.561769	0.947834
C432	C	1.320528	0.811769	1.197834
C433	C	0.636773	-0.004436	0.447826
C434	C	0.886773	0.245564	0.697826
C435	C	1.136773	0.495564	0.947826
C436	C	1.386773	0.745564	1.197826
C437	C	0.636771	-0.004432	0.395610
C438	C	0.886771	0.245568	0.645610
C439	C	1.136771	0.495568	0.895610
C440	C	1.386771	0.745568	1.145610
C441	C	0.603648	0.028672	0.369506
C442	C	0.853648	0.278672	0.619506
C443	C	1.103648	0.528672	0.869506
C444	C	1.353648	0.778672	1.119506
C445	C	0.570526	0.061773	0.395617
C446	C	0.820526	0.311773	0.645617
C447	C	1.070526	0.561773	0.895617
C448	C	1.320526	0.811773	1.145617
C449	C	0.504274	0.127975	0.447838
C450	C	0.754274	0.377975	0.697838
C451	C	1.004274	0.627975	0.947838
C452	C	1.254274	0.877975	1.197838
C453	C	0.504273	0.127972	0.395616
C454	C	0.754273	0.377972	0.645616
C455	C	1.004273	0.627972	0.895616
C456	C	1.254273	0.877972	1.145616
C457	C	0.537398	0.094870	0.369504
C458	C	0.787398	0.344870	0.619504
C459	C	1.037398	0.594870	0.869504
C460	C	1.287398	0.844870	1.119504
C461	C	0.537401	0.094881	0.317297
C462	C	0.787401	0.344881	0.567297
C463	C	1.037401	0.594881	0.817297
C464	C	1.287401	0.844881	1.067297
N465	N	0.570521	0.061777	0.291182
N466	N	0.820521	0.311777	0.541182
N467	N	1.070521	0.561777	0.791182
N468	N	1.320521	0.811777	1.041182
C469	C	0.603644	0.028673	0.317287
C470	C	0.853644	0.278673	0.567287
C471	C	1.103644	0.528673	0.817287
C472	C	1.353644	0.778673	1.067287
C473	C	0.537426	0.094863	0.792485
C474	C	0.787426	0.344863	1.042485
C475	C	1.037426	0.594863	1.292485
C476	C	1.287426	0.844863	1.542485
C477	C	0.537430	0.094862	0.844704
C478	C	0.787430	0.344862	1.094704
C479	C	1.037430	0.594862	1.344704
C480	C	1.287430	0.844862	1.594704
C481	C	0.603676	0.028652	0.844694
C482	C	0.853676	0.278652	1.094694
C483	C	1.103676	0.528652	1.344694
C484	C	1.353676	0.778652	1.594694
C485	C	0.603674	0.028655	0.792475
C486	C	0.853674	0.278655	1.042475
C487	C	1.103674	0.528655	1.292475
C488	C	1.353674	0.778655	1.542475
C489	C	0.570546	0.061759	0.766371
C490	C	0.820546	0.311759	1.016371
C491	C	1.070546	0.561759	1.266371
C492	C	1.320546	0.811759	1.516371
C493	C	0.603639	0.028684	0.207629
C494	C	0.853639	0.278684	0.457629
C495	C	1.103639	0.528684	0.707629
C496	C	1.353639	0.778684	0.957629
C497	C	0.603636	0.028692	0.155408
C498	C	0.853636	0.278692	0.405408
C499	C	1.103636	0.528692	0.655408
C500	C	1.353636	0.778692	0.905408
C501	C	0.537388	0.094901	0.155422
C502	C	0.787388	0.344901	0.405422
C503	C	1.037388	0.594901	0.655422
C504	C	1.287388	0.844901	0.905422
C505	C	0.537393	0.094895	0.207639
C506	C	0.787393	0.344895	0.457639
C507	C	1.037393	0.594895	0.707639
C508	C	1.287393	0.844895	0.957639
C509	C	0.570520	0.061782	0.233740
C510	C	0.820520	0.311782	0.483740
C511	C	1.070520	0.561782	0.733740
C512	C	1.320520	0.811782	0.983740
O513	O	0.509257	0.123030	0.290253
O514	O	0.759257	0.373030	0.540253
O515	O	1.009257	0.623030	0.790253
O516	O	1.259257	0.873030	1.040253
O517	O	0.631806	0.000517	0.290273
O518	O	0.881806	0.250517	0.540273
O519	O	1.131806	0.500517	0.790273
O520	O	1.381806	0.750517	1.040273
C521	C	0.603652	0.028661	0.526154
C522	C	0.853652	0.278661	0.776154
C523	C	1.103652	0.528661	1.026154
C524	C	1.353652	0.778661	1.276154
C525	C	0.570531	0.061761	0.552266
C526	C	0.820531	0.311761	0.802266
C527	C	1.070531	0.561761	1.052266
C528	C	1.320531	0.811761	1.302266
C529	C	0.537407	0.094865	0.526162
C530	C	0.787407	0.344865	0.776162
C531	C	1.037407	0.594865	1.026162
C532	C	1.287407	0.844865	1.276162
C533	C	0.570534	0.061761	0.604485
C534	C	0.820534	0.311761	0.854485
C535	C	1.070534	0.561761	1.104485
C536	C	1.320534	0.811761	1.354485
C537	C	0.603658	0.028656	0.630590
C538	C	0.853658	0.278656	0.880590
C539	C	1.103658	0.528656	1.130590
C540	C	1.353658	0.778656	1.380590
C541	C	0.636777	-0.004448	0.604475
C542	C	0.886777	0.245552	0.854475
C543	C	1.136777	0.495552	1.104475
C544	C	1.386777	0.745552	1.354475
C545	C	0.636776	-0.004444	0.552259
C546	C	0.886776	0.245556	0.802259
C547	C	1.136776	0.495556	1.052259
C548	C	1.386776	0.745556	1.302259
C549	C	0.504288	0.127969	0.552276
C550	C	0.754288	0.377969	0.802276
C551	C	1.004288	0.627969	1.052276
C552	C	1.254288	0.877969	1.302276
C553	C	0.504292	0.127963	0.604493
C554	C	0.754292	0.377963	0.854493
C555	C	1.004292	0.627963	1.104493
C556	C	1.254292	0.877963	1.354493
C557	C	0.537416	0.094859	0.630597
C558	C	0.787416	0.344859	0.880597
C559	C	1.037416	0.594859	1.130597
C560	C	1.287416	0.844859	1.380597
H561	H	0.040646	0.061441	-0.127208
H562	H	0.290646	0.311441	0.122792
H563	H	0.540646	0.561441	0.372792
H564	H	0.790646	0.811441	0.622792
Cl565	Cl	0.678413	-0.046051	0.362790
Cl566	Cl	0.928413	0.203949	0.612790
Cl567	Cl	1.178413	0.453949	0.862790
Cl568	Cl	1.428413	0.703949	1.112790
H569	H	0.663746	-0.031396	0.469076
H570	H	0.913746	0.218604	0.719076
H571	H	1.163746	0.468604	0.969076
H572	H	1.413746	0.718604	1.219076
H573	H	0.570850	-0.408313	-0.127219
H574	H	0.820850	-0.158313	0.122781
H575	H	1.070850	0.091687	0.372781
H576	H	1.320850	0.341687	0.622781
H577	H	0.574133	-0.084969	0.082117
H578	H	0.824133	0.165031	0.332117
H579	H	1.074133	0.415031	0.582117
H580	H	1.324133	0.665031	0.832117
Cl581	Cl	0.566815	-0.802640	-0.102042
Cl582	Cl	0.816815	-0.552640	0.147958
Cl583	Cl	1.066815	-0.302640	0.397958
Cl584	Cl	1.316815	-0.052640	0.647958
H585	H	0.630612	0.001736	0.134149
H586	H	0.880612	0.251736	0.384149
H587	H	1.130612	0.501736	0.634149
H588	H	1.380612	0.751736	0.884149
H589	H	0.510462	0.121822	0.865961
H590	H	0.760462	0.371822	1.115961
H591	H	1.010462	0.621822	1.365961
H592	H	1.260462	0.871822	1.615961
Cl593	Cl	0.567985	-0.688848	-0.102043
Cl594	Cl	0.817985	-0.438848	0.147957
Cl595	Cl	1.067985	-0.188848	0.397957
Cl596	Cl	1.317985	0.061152	0.647957
Cl597	Cl	0.321159	0.064332	-0.102033
Cl598	Cl	0.571159	0.314332	0.147967
Cl599	Cl	0.821159	0.564332	0.397967
Cl600	Cl	1.071159	0.814332	0.647967
H601	H	0.630647	0.001700	0.771217
H602	H	0.880647	0.251700	1.021217
H603	H	1.130647	0.501700	1.271217
H604	H	1.380647	0.751700	1.521217
Cl605	Cl	0.645286	-0.012943	0.240434
Cl606	Cl	0.895286	0.237057	0.490434
Cl607	Cl	1.145286	0.487057	0.740434
Cl608	Cl	1.395286	0.737057	0.990434
Cl609	Cl	0.678420	-0.046061	0.519440
Cl610	Cl	0.928420	0.203939	0.769440
Cl611	Cl	1.178420	0.453939	1.019440
Cl612	Cl	1.428420	0.703939	1.269440
Cl613	Cl	0.462622	0.169591	0.362804
Cl614	Cl	0.712622	0.419591	0.612804
Cl615	Cl	0.962622	0.669591	0.862804
Cl616	Cl	1.212622	0.919591	1.112804
Cl617	Cl	0.051802	0.061599	0.147360
Cl618	Cl	0.301802	0.311599	0.397360
Cl619	Cl	0.551802	0.561599	0.647360
Cl620	Cl	0.801802	0.811599	0.897360
H621	H	0.567834	-0.700025	0.082089
H622	H	0.817834	-0.450025	0.332089
H623	H	1.067834	-0.200025	0.582089
H624	H	1.317834	0.049975	0.832089
Cl625	Cl	0.566790	-0.802639	0.102111
Cl626	Cl	0.816790	-0.552639	0.352111
Cl627	Cl	1.066790	-0.302639	0.602111
Cl628	Cl	1.316790	-0.052639	0.852111
Cl629	Cl	0.569189	-0.570725	-0.147251
Cl630	Cl	0.819189	-0.320725	0.102749
Cl631	Cl	1.069189	-0.070725	0.352749
Cl632	Cl	1.319189	0.179275	0.602749
H633	H	0.630647	0.001697	0.865957
H634	H	0.880647	0.251697	1.115957
H635	H	1.130647	0.501697	1.365957
H636	H	1.380647	0.751697	1.615957
H637	H	0.569255	-0.559563	0.127311
H638	H	0.819255	-0.309563	0.377311
H639	H	1.069255	-0.059563	0.627311
H640	H	1.319255	0.190437	0.877311
H641	H	-0.282717	0.058157	-0.081979
H642	H	-0.032717	0.308157	0.168021
H643	H	0.217283	0.558157	0.418021
H644	H	0.467283	0.808157	0.668021
Cl645	Cl	0.573081	-0.187601	0.102145
Cl646	Cl	0.823081	0.062399	0.352145
Cl647	Cl	1.073081	0.312399	0.602145
Cl648	Cl	1.323081	0.562399	0.852145
H649	H	-0.282731	0.058174	0.082115
H650	H	-0.032731	0.308174	0.332115
H651	H	0.217269	0.558174	0.582115
H652	H	0.467269	0.808174	0.832115
H653	H	0.191895	0.062979	-0.127218
H654	H	0.441895	0.312979	0.122782
H655	H	0.691895	0.562979	0.372782
H656	H	0.941895	0.812979	0.622782
H657	H	0.423779	0.065411	0.082090
H658	H	0.673779	0.315411	0.332090
H659	H	0.923779	0.565411	0.582090
H660	H	1.173779	0.815411	0.832090
Cl661	Cl	0.573107	-0.187575	-0.102017
Cl662	Cl	0.823107	0.062425	0.147983
Cl663	Cl	1.073107	0.312425	0.397983
Cl664	Cl	1.323107	0.562425	0.647983
Cl665	Cl	0.495777	0.136485	0.759675
Cl666	Cl	0.745777	0.386485	1.009675
Cl667	Cl	0.995777	0.636485	1.259675
Cl668	Cl	1.245777	0.886485	1.509675
H669	H	0.570795	-0.408319	0.127326
H670	H	0.820795	-0.158319	0.377326
H671	H	1.070795	0.091681	0.627326
H672	H	1.320795	0.341681	0.877326
Cl673	Cl	0.571836	-0.305705	0.147357
Cl674	Cl	0.821836	-0.055705	0.397357
Cl675	Cl	1.071836	0.194295	0.647357
Cl676	Cl	1.321836	0.444295	0.897357
Cl677	Cl	0.571906	-0.305704	-0.147245
Cl678	Cl	0.821906	-0.055704	0.102755
Cl679	Cl	1.071906	0.194296	0.352755
Cl680	Cl	1.321906	0.444296	0.602755
Cl681	Cl	0.570356	-0.456938	-0.147253
Cl682	Cl	0.820356	-0.206938	0.102747
Cl683	Cl	1.070356	0.043062	0.352747
Cl684	Cl	1.320356	0.293062	0.602747
H685	H	0.570191	-0.468116	0.127315
H686	H	0.820191	-0.218116	0.377315
H687	H	1.070191	0.031884	0.627315
H688	H	1.320191	0.281884	0.877315
Cl689	Cl	0.462628	0.169591	0.480654
Cl690	Cl	0.712628	0.419591	0.730654
Cl691	Cl	0.962628	0.669591	0.980654
Cl692	Cl	1.212628	0.919591	1.230654
H693	H	-0.191266	0.059081	-0.081985
H694	H	0.058734	0.309081	0.168015
H695	H	0.308734	0.559081	0.418015
H696	H	0.558734	0.809081	0.668015
Cl697	Cl	0.089266	0.061987	0.147359
Cl698	Cl	0.339266	0.311987	0.397359
Cl699	Cl	0.589266	0.561987	0.647359
Cl700	Cl	0.839266	0.811987	0.897359
H701	H	0.510424	0.121854	0.228899
H702	H	0.760424	0.371854	0.478899
H703	H	1.010424	0.621854	0.728899
H704	H	1.260424	0.871854	0.978899
H705	H	0.100444	0.062046	-0.127218
H706	H	0.350444	0.312046	0.122782
H707	H	0.600444	0.562046	0.372782
H708	H	0.850444	0.812046	0.622782
H709	H	0.510421	0.121855	0.134160
H710	H	0.760421	0.371855	0.384160
H711	H	1.010421	0.621855	0.634160
H712	H	1.260421	0.871855	0.884160
H713	H	0.663749	-0.031401	0.625738
H714	H	0.913749	0.218599	0.875738
H715	H	1.163749	0.468599	1.125738
H716	H	1.413749	0.718599	1.375738
Cl717	Cl	0.462647	0.169584	0.637313
Cl718	Cl	0.712647	0.419584	0.887313
Cl719	Cl	0.962647	0.669584	1.137313
Cl720	Cl	1.212647	0.919584	1.387313
Cl721	Cl	-0.061986	0.060432	0.147356
Cl722	Cl	0.188014	0.310432	0.397356
Cl723	Cl	0.438014	0.560432	0.647356
Cl724	Cl	0.688014	0.810432	0.897356
Cl725	Cl	0.321168	0.064352	0.102129
Cl726	Cl	0.571168	0.314352	0.352129
Cl727	Cl	0.821168	0.564352	0.602129
Cl728	Cl	1.071168	0.814352	0.852129
Cl729	Cl	0.203035	0.063151	0.147354
Cl730	Cl	0.453035	0.313151	0.397354
Cl731	Cl	0.703035	0.563151	0.647354
Cl732	Cl	0.953035	0.813151	0.897354
H733	H	0.477314	0.154926	0.531026
H734	H	0.727314	0.404926	0.781026
H735	H	0.977314	0.654926	1.031026
H736	H	1.227314	0.904926	1.281026
H737	H	0.423789	0.065385	-0.082004
H738	H	0.673789	0.315385	0.167996
H739	H	0.923789	0.565385	0.417996
H740	H	1.173789	0.815385	0.667996
H741	H	-0.050801	0.060507	-0.127206
H742	H	0.199199	0.310507	0.122794
H743	H	0.449199	0.560507	0.372794
H744	H	0.699199	0.810507	0.622794
Cl745	Cl	0.574283	-0.073801	-0.102005
Cl746	Cl	0.824283	0.176199	0.147995
Cl747	Cl	1.074283	0.426199	0.397995
Cl748	Cl	1.324283	0.676199	0.647995
H749	H	-0.191267	0.059113	0.082117
H750	H	0.058733	0.309113	0.332117
H751	H	0.308733	0.559113	0.582117
H752	H	0.558733	0.809113	0.832117
