data_functionalizedCrystal
_audit_creation_method	'MofGen! by Chris Wilmer'
_symmetry_space_group_name_H-M	'P1'
_symmetry_Int_Tables_number	1
_symmetry_cell_setting	triclinic
loop_
_symmetry_equiv_pos_as_xyz
  x,y,z
_cell_length_a	6.817900
_cell_length_b	9.514088
_cell_length_c	15.301126
_cell_angle_alpha	90.959771
_cell_angle_beta	104.177575
_cell_angle_gamma	118.843545
loop_
_atom_site_label
_atom_site_type_symbol
_atom_site_fract_x
_atom_site_fract_y
_atom_site_fract_z
V1	V	-4.221186	-0.501237	-0.126359
O2	O	-4.201232	-0.491194	0.004427
O3	O	-4.174995	-0.498292	-0.248966
O4	O	-4.255928	-0.719624	-0.125137
O5	O	-4.119739	-0.268330	-0.120260
V6	V	-4.693754	-0.473321	-0.110630
O7	O	-4.506474	-0.562474	-0.160861
O8	O	-4.858663	-0.412084	-0.076128
O9	O	-4.516738	-0.476266	0.011977
O10	O	-4.831105	-0.483365	-0.241416
O11	O	-4.912598	-0.706229	-0.116730
O12	O	-4.435806	-0.254935	-0.111852
C13	C	-4.017843	-0.490510	-0.278833
C14	C	-4.061918	-0.489558	-0.379071
C15	C	-4.267918	-0.497139	-0.430781
C16	C	-4.309325	-0.496254	-0.524966
C17	C	-4.144721	-0.487775	-0.567437
C18	C	-3.938707	-0.480198	-0.515721
C19	C	-3.897310	-0.481095	-0.421539
C20	C	-4.025001	-0.478325	-0.712026
C21	C	-4.066398	-0.477425	-0.806214
C22	C	-4.437016	-0.493484	-0.815453
C23	C	-4.395619	-0.494381	-0.721271
C24	C	-4.189605	-0.486801	-0.669560
C25	C	-4.121079	-0.772838	-0.120875
C26	C	-4.230782	-0.951373	-0.120687
C27	C	-4.337231	-0.484044	0.041839
C28	C	-4.272398	-0.485007	0.142076
C29	C	-4.233993	-0.201712	-0.116117
C30	C	-4.103528	-0.023175	-0.116300
H31	H	-4.477069	-0.502430	-0.567065
H32	H	-3.910658	-0.948065	-0.112696
O33	O	-3.802798	-0.470141	-0.656246
H34	H	-3.695277	-0.464075	-0.701598
O35	O	-3.761178	-0.471075	-0.561528
H36	H	-3.698875	-0.360267	-0.594231
O37	O	-4.573183	-0.503537	-0.675475
H38	H	-4.490943	-0.394317	-0.622811
H39	H	-4.423673	-1.026495	-0.124302
H40	H	-3.729571	-0.474928	-0.379438
H41	H	-4.401953	-0.504028	-0.396207
H42	H	-4.604746	-0.499633	-0.857558
H43	H	-3.932392	-0.470569	-0.840795
