data_functionalizedCrystal
_audit_creation_method	'MofGen! by Chris Wilmer'
_symmetry_space_group_name_H-M	'P1'
_symmetry_Int_Tables_number	1
_symmetry_cell_setting	triclinic
loop_
_symmetry_equiv_pos_as_xyz
  x,y,z
_cell_length_a	16.120444
_cell_length_b	18.215407
_cell_length_c	16.120704
_cell_angle_alpha	92.889152
_cell_angle_beta	84.364089
_cell_angle_gamma	87.072949
loop_
_atom_site_label
_atom_site_type_symbol
_atom_site_fract_x
_atom_site_fract_y
_atom_site_fract_z
Zn1	Zn	-0.356925	-1.087093	0.489474
Zn2	Zn	-0.106925	-0.837093	0.739474
Zn3	Zn	0.143075	-0.587093	0.989474
Zn4	Zn	0.393075	-0.337093	1.239474
Zn5	Zn	-0.489565	-1.087023	0.356783
Zn6	Zn	-0.239565	-0.837023	0.606783
Zn7	Zn	0.010435	-0.587023	0.856783
Zn8	Zn	0.260435	-0.337023	1.106783
Zn9	Zn	-0.349809	-0.970624	0.349716
Zn10	Zn	-0.099809	-0.720624	0.599716
Zn11	Zn	0.150191	-0.470624	0.849716
Zn12	Zn	0.400191	-0.220624	1.099716
Zn13	Zn	-0.496660	-0.957417	0.496508
Zn14	Zn	-0.246660	-0.707417	0.746508
Zn15	Zn	0.003340	-0.457417	0.996508
Zn16	Zn	0.253340	-0.207417	1.246508
O17	O	-0.423240	-1.025540	0.423121
O18	O	-0.173240	-0.775540	0.673121
O19	O	0.076760	-0.525540	0.923121
O20	O	0.326760	-0.275540	1.173121
O21	O	-0.374529	-1.190067	0.471886
O22	O	-0.124529	-0.940067	0.721886
O23	O	0.125471	-0.690067	0.971886
O24	O	0.375471	-0.440067	1.221886
O25	O	-0.465079	-1.077081	0.238881
O26	O	-0.215079	-0.827081	0.488881
O27	O	0.034921	-0.577081	0.738881
O28	O	0.284921	-0.327081	0.988881
O29	O	-0.233785	-0.991630	0.362354
O30	O	0.016215	-0.741630	0.612354
O31	O	0.266215	-0.491630	0.862354
O32	O	0.516215	-0.241630	1.112354
O33	O	-0.471979	-1.190016	0.374399
O34	O	-0.221979	-0.940016	0.624399
O35	O	0.028021	-0.690016	0.874399
O36	O	0.278021	-0.440016	1.124399
O37	O	-0.239013	-1.077200	0.465033
O38	O	0.010987	-0.827200	0.715033
O39	O	0.260987	-0.577200	0.965033
O40	O	0.510987	-0.327200	1.215033
O41	O	-0.362401	-0.991563	0.233689
O42	O	-0.112401	-0.741563	0.483689
O43	O	0.137599	-0.491563	0.733689
O44	O	0.387599	-0.241563	0.983689
O45	O	-0.369280	-0.865889	0.369175
O46	O	-0.119280	-0.615889	0.619175
O47	O	0.130720	-0.365889	0.869175
O48	O	0.380720	-0.115889	1.119175
O49	O	-0.484071	-0.969121	0.612540
O50	O	-0.234071	-0.719121	0.862540
O51	O	0.015929	-0.469121	1.112540
O52	O	0.265929	-0.219121	1.362540
O53	O	-0.477171	-0.856186	0.477023
O54	O	-0.227171	-0.606186	0.727023
O55	O	0.022829	-0.356186	0.977023
O56	O	0.272829	-0.106186	1.227023
O57	O	-0.381408	-1.064394	0.607372
O58	O	-0.131408	-0.814394	0.857372
O59	O	0.118592	-0.564394	1.107372
O60	O	0.368592	-0.314394	1.357372
O61	O	-0.607474	-1.064275	0.381220
O62	O	-0.357474	-0.814275	0.631220
O63	O	-0.107474	-0.564275	0.881220
O64	O	0.142526	-0.314275	1.131220
O65	O	-0.612687	-0.969054	0.483875
O66	O	-0.362687	-0.719054	0.733875
O67	O	-0.112687	-0.469054	0.983875
O68	O	0.137313	-0.219054	1.233875
C69	C	-0.423224	-0.834335	0.423096
C70	C	-0.173224	-0.584335	0.673096
C71	C	0.076776	-0.334335	0.923096
C72	C	0.326776	-0.084335	1.173096
C73	C	-0.423239	-0.752535	0.423106
C74	C	-0.173239	-0.502535	0.673106
C75	C	0.076761	-0.252535	0.923106
C76	C	0.326761	-0.002535	1.173106
C77	C	-0.640410	-1.015243	0.434096
C78	C	-0.390410	-0.765243	0.684096
C79	C	-0.140410	-0.515243	0.934096
C80	C	0.109590	-0.265243	1.184096
C81	C	-0.733318	-1.010904	0.438819
C82	C	-0.483318	-0.760904	0.688819
C83	C	-0.233318	-0.510904	0.938819
C84	C	0.016682	-0.260904	1.188819
C85	C	-0.434325	-1.015292	0.641131
C86	C	-0.184325	-0.765292	0.891131
C87	C	0.065675	-0.515292	1.141131
C88	C	0.315675	-0.265292	1.391131
C89	C	-0.439049	-1.010925	0.734035
C90	C	-0.189049	-0.760925	0.984035
C91	C	0.060951	-0.510925	1.234035
C92	C	0.310951	-0.260925	1.484035
C93	C	-0.942212	-1.048220	0.398799
C94	C	-0.692212	-0.798220	0.648799
C95	C	-0.442212	-0.548220	0.898799
C96	C	-0.192212	-0.298220	1.148799
C97	C	-0.903416	-1.002995	0.447451
C98	C	-0.653416	-0.752995	0.697451
C99	C	-0.403416	-0.502995	0.947451
C100	C	-0.153416	-0.252995	1.197451
C101	C	-0.808765	-1.007396	0.442647
C102	C	-0.558765	-0.757396	0.692647
C103	C	-0.308765	-0.507396	0.942647
C104	C	-0.058765	-0.257396	1.192647
C105	C	-1.036873	-1.043820	0.403602
C106	C	-0.786873	-0.793820	0.653602
C107	C	-0.536873	-0.543820	0.903602
C108	C	-0.286873	-0.293820	1.153602
C109	C	-0.205222	-1.035896	0.412121
C110	C	0.044778	-0.785896	0.662121
C111	C	0.294778	-0.535896	0.912121
C112	C	0.544778	-0.285896	1.162121
C113	C	-0.112316	-1.040309	0.407433
C114	C	0.137684	-0.790309	0.657433
C115	C	0.387684	-0.540309	0.907433
C116	C	0.637684	-0.290309	1.157433
C117	C	-0.423256	-1.217491	0.423146
C118	C	-0.173256	-0.967491	0.673146
C119	C	0.076744	-0.717491	0.923146
C120	C	0.326744	-0.467491	1.173146
C121	C	-0.423263	-1.299289	0.423157
C122	C	-0.173263	-1.049289	0.673157
C123	C	0.076737	-0.799289	0.923157
C124	C	0.326737	-0.549289	1.173157
C125	C	-0.479498	-0.559307	0.479200
C126	C	-0.229498	-0.309307	0.729200
C127	C	0.020502	-0.059307	0.979200
C128	C	0.270502	0.190693	1.229200
C129	C	-0.479501	-0.482448	0.479210
C130	C	-0.229501	-0.232448	0.729210
C131	C	0.020499	0.017552	0.979210
C132	C	0.270499	0.267552	1.229210
C133	C	-0.366998	-0.492522	0.367061
C134	C	-0.116998	-0.242522	0.617061
C135	C	0.133002	0.007478	0.867061
C136	C	0.383002	0.257478	1.117061
C137	C	-0.366991	-0.569380	0.367055
C138	C	-0.116991	-0.319380	0.617055
C139	C	0.133009	-0.069380	0.867055
C140	C	0.383009	0.180620	1.117055
C141	C	-0.423246	-0.602771	0.423123
C142	C	-0.173246	-0.352771	0.673123
C143	C	0.076754	-0.102771	0.923123
C144	C	0.326754	0.147229	1.173123
C145	C	-0.423256	-0.449053	0.423140
C146	C	-0.173256	-0.199053	0.673140
C147	C	0.076744	0.050947	0.923140
C148	C	0.326744	0.300947	1.173140
C149	C	-0.423259	-0.365719	0.423151
C150	C	-0.173259	-0.115719	0.673151
C151	C	0.076741	0.134281	0.923151
C152	C	0.326741	0.384281	1.173151
C153	C	-0.423242	-0.686110	0.423113
C154	C	-0.173242	-0.436110	0.673113
C155	C	0.076758	-0.186110	0.923113
C156	C	0.326758	0.063890	1.173113
C157	C	-0.398932	-1.048124	0.942964
C158	C	-0.148932	-0.798124	1.192964
C159	C	0.101068	-0.548124	1.442964
C160	C	0.351068	-0.298124	1.692964
C161	C	-0.447638	-1.002929	0.904123
C162	C	-0.197638	-0.752929	1.154123
C163	C	0.052362	-0.502929	1.404123
C164	C	0.302362	-0.252929	1.654123
C165	C	-0.442858	-1.007380	0.809477
C166	C	-0.192858	-0.757380	1.059477
C167	C	0.057142	-0.507380	1.309477
C168	C	0.307142	-0.257380	1.559477
C169	C	-0.403712	-1.043674	1.037618
C170	C	-0.153712	-0.793674	1.287618
C171	C	0.096288	-0.543674	1.537618
C172	C	0.346288	-0.293674	1.787618
C173	C	-0.412224	-1.035745	1.205959
C174	C	-0.162224	-0.785745	1.455959
C175	C	0.087776	-0.535745	1.705959
C176	C	0.337776	-0.285745	1.955959
C177	C	-0.407524	-1.040125	1.113057
C178	C	-0.157524	-0.790125	1.363057
C179	C	0.092476	-0.540125	1.613057
C180	C	0.342476	-0.290125	1.863057
H181	H	-0.941287	-0.960969	0.492712
H182	H	-0.691287	-0.710969	0.742712
H183	H	-0.441287	-0.460969	0.992712
H184	H	-0.191287	-0.210969	1.242712
N185	N	-0.892054	-1.103875	0.338838
N186	N	-0.642054	-0.853875	0.588838
N187	N	-0.392054	-0.603875	0.838838
N188	N	-0.142054	-0.353875	1.088838
H189	H	-0.931130	-1.133446	0.307032
H190	H	-0.681130	-0.883446	0.557032
H191	H	-0.431130	-0.633446	0.807032
H192	H	-0.181130	-0.383446	1.057032
H193	H	-0.857508	-1.137962	0.371087
H194	H	-0.607508	-0.887962	0.621087
H195	H	-0.357508	-0.637962	0.871087
H196	H	-0.107508	-0.387962	1.121087
N197	N	-0.540169	-0.595323	0.539671
N198	N	-0.290169	-0.345323	0.789671
N199	N	-0.040169	-0.095323	1.039671
N200	N	0.209831	0.154677	1.289671
H201	H	-0.575804	-0.556124	0.575197
H202	H	-0.325804	-0.306124	0.825197
H203	H	-0.075804	-0.056124	1.075197
H204	H	0.174196	0.193876	1.325197
H205	H	-0.508171	-0.627008	0.576686
H206	H	-0.258171	-0.377008	0.826686
H207	H	-0.008171	-0.127008	1.076686
H208	H	0.241829	0.122992	1.326686
H209	H	-0.525306	-0.447063	0.524874
H210	H	-0.275306	-0.197063	0.774874
H211	H	-0.025306	0.052937	1.024874
H212	H	0.224694	0.302937	1.274874
N213	N	-0.306346	-0.456508	0.306568
N214	N	-0.056346	-0.206508	0.556568
N215	N	0.193654	0.043492	0.806568
N216	N	0.443654	0.293492	1.056568
H217	H	-0.314893	-0.401223	0.315072
H218	H	-0.064893	-0.151223	0.565072
H219	H	0.185107	0.098777	0.815072
H220	H	0.435107	0.348777	1.065072
H221	H	-0.316250	-0.472138	0.247514
H222	H	-0.066250	-0.222138	0.497514
H223	H	0.183750	0.027862	0.747514
H224	H	0.433750	0.277862	0.997514
N225	N	-0.306306	-0.616265	0.306580
N226	N	-0.056306	-0.366265	0.556580
N227	N	0.193694	-0.116265	0.806580
N228	N	0.443694	0.133735	1.056580
H229	H	-0.270672	-0.583452	0.271060
H230	H	-0.020672	-0.333452	0.521060
H231	H	0.229328	-0.083452	0.771060
H232	H	0.479328	0.166548	1.021060
H233	H	-0.338292	-0.648365	0.269558
H234	H	-0.088292	-0.398365	0.519558
H235	H	0.161708	-0.148365	0.769558
H236	H	0.411708	0.101635	1.019558
H237	H	-0.492923	-0.960891	0.941951
H238	H	-0.242923	-0.710891	1.191951
H239	H	0.007077	-0.460891	1.441951
H240	H	0.257077	-0.210891	1.691951
H241	H	-0.353647	-1.090155	0.905138
H242	H	-0.103647	-0.840155	1.155138
H243	H	0.146353	-0.590155	1.405138
H244	H	0.396353	-0.340155	1.655138
