data_functionalizedCrystal
_audit_creation_method	'MofGen! by Chris Wilmer'
_symmetry_space_group_name_H-M	'P1'
_symmetry_Int_Tables_number	1
_symmetry_cell_setting	triclinic
loop_
_symmetry_equiv_pos_as_xyz
  x,y,z
_cell_length_a	9.065218
_cell_length_b	10.654550
_cell_length_c	7.540329
_cell_angle_alpha	89.993514
_cell_angle_beta	90.001757
_cell_angle_gamma	95.249606
loop_
_atom_site_label
_atom_site_type_symbol
_atom_site_fract_x
_atom_site_fract_y
_atom_site_fract_z
O1	O	0.207233	-1.668659	0.147621
O2	O	0.707233	-1.168659	0.647621
O3	O	0.226977	-1.303259	0.147592
O4	O	0.726977	-0.803259	0.647592
O5	O	0.002421	-1.493512	0.147603
O6	O	0.502421	-0.993512	0.647603
O7	O	0.431788	-1.478407	0.147609
O8	O	0.931788	-0.978407	0.647609
O9	O	0.002418	-1.493501	-0.147362
O10	O	0.502418	-0.993501	0.352638
O11	O	0.226974	-1.303248	-0.147374
O12	O	0.726974	-0.803248	0.352626
O13	O	0.207230	-1.668648	-0.147344
O14	O	0.707230	-1.168648	0.352656
Cu15	Cu	0.217101	-1.485947	-0.174292
Cu16	Cu	0.717101	-0.985947	0.325708
Cu17	Cu	0.217105	-1.485960	0.174539
Cu18	Cu	0.717105	-0.985960	0.674539
O19	O	0.431785	-1.478395	-0.147356
O20	O	0.931785	-0.978395	0.352644
C21	C	-0.052559	-1.492055	0.000123
C22	C	0.447441	-0.992055	0.500123
C23	C	-0.216378	-1.487714	0.000131
C24	C	0.283622	-0.987714	0.500131
C25	C	0.225525	-1.256450	0.000105
C26	C	0.725525	-0.756450	0.500105
C27	C	0.221188	-1.116989	0.000094
C28	C	0.721188	-0.616989	0.500094
C29	C	0.208681	-1.715457	0.000146
C30	C	0.708681	-1.215457	0.500146
C31	C	0.213018	-1.854918	0.000168
C32	C	0.713018	-1.354918	0.500168
C33	C	0.486766	-1.479852	0.000128
C34	C	0.986766	-0.979852	0.500128
C35	C	0.650585	-1.484193	0.000131
C36	C	1.150585	-0.984193	0.500131
C37	C	0.353403	-1.038027	0.000122
C38	C	0.853403	-0.538027	0.500122
C39	C	0.349319	-0.906990	0.000153
C40	C	0.849319	-0.406990	0.500153
C41	C	0.080793	-0.933890	0.000135
C42	C	0.580793	-0.433890	0.500135
C43	C	0.084879	-1.064925	0.000092
C44	C	0.584879	-0.564925	0.500092
C45	C	0.508434	-1.022496	0.000140
C46	C	1.008434	-0.522496	0.500140
C47	C	0.504350	-0.891459	0.000170
C48	C	1.004350	-0.391459	0.500170
N49	N	0.217098	-1.485946	-0.419640
N50	N	0.717098	-0.985946	0.080360
N51	N	0.217096	-1.485971	0.419887
N52	N	0.717096	-0.985971	0.919887
H53	H	-0.022783	-1.129212	0.000044
H54	H	0.477217	-0.629212	0.500044
H55	H	0.562765	-0.849962	0.123623
H56	H	1.062765	-0.349962	0.623623
Cl57	Cl	-0.090557	-0.868428	0.000132
Cl58	Cl	0.409443	-0.368428	0.500132
H59	H	0.569065	-1.052062	-0.123309
H60	H	1.069065	-0.552062	0.376691
H61	H	0.557800	-1.058352	0.127489
H62	H	1.057800	-0.558352	0.627489
H63	H	0.551201	-0.845968	-0.127173
H64	H	1.051201	-0.345968	0.372827
