data_functionalizedCrystal
_audit_creation_method	'MofGen! by Chris Wilmer'
_symmetry_space_group_name_H-M	'P1'
_symmetry_Int_Tables_number	1
_symmetry_cell_setting	triclinic
loop_
_symmetry_equiv_pos_as_xyz
  x,y,z
_cell_length_a	12.759401
_cell_length_b	13.897447
_cell_length_c	12.759393
_cell_angle_alpha	89.967926
_cell_angle_beta	89.981433
_cell_angle_gamma	90.018574
loop_
_atom_site_label
_atom_site_type_symbol
_atom_site_fract_x
_atom_site_fract_y
_atom_site_fract_z
Zn1	Zn	1.606220	-0.383983	-0.593980
Zn2	Zn	1.606100	-0.545312	-0.418298
Zn3	Zn	1.430522	-0.384030	-0.418319
Zn4	Zn	1.430496	-0.545235	-0.593939
O5	O	1.518334	-0.464640	-0.506134
O6	O	1.753225	-0.405396	-0.570683
O7	O	1.582769	-0.523970	-0.271280
O8	O	1.453890	-0.249042	-0.441646
O9	O	1.753137	-0.523924	-0.441611
O10	O	1.582975	-0.249007	-0.570703
O11	O	1.453773	-0.405477	-0.271295
O12	O	1.283498	-0.405402	-0.441607
O13	O	1.453846	-0.523792	-0.740966
O14	O	1.283478	-0.523838	-0.570635
O15	O	1.582949	-0.405321	-0.740995
O16	O	1.582744	-0.680283	-0.441572
O17	O	1.453729	-0.680227	-0.570615
C18	C	1.245367	-0.464617	-0.506119
C19	C	1.128590	-0.464631	-0.506138
C20	C	1.073768	-0.403030	-0.573450
C21	C	0.964043	-0.403048	-0.573457
C22	C	0.963975	-0.526277	-0.438836
C23	C	1.073697	-0.526253	-0.438825
C24	C	1.128661	-0.341407	-0.640763
C25	C	1.073838	-0.279802	-0.708082
C26	C	0.964114	-0.279820	-0.708088
C27	C	0.909213	-0.341444	-0.640776
C28	C	1.518249	-0.715254	-0.506110
C29	C	1.518309	-0.822468	-0.506134
C30	C	1.518359	-0.909538	-0.506158
C31	C	1.518433	-1.018770	-0.506185
C32	C	1.792368	-0.464663	-0.506149
C33	C	1.909144	-0.464673	-0.506156
C34	C	1.518408	-0.464543	-0.780167
C35	C	1.518439	-0.464501	-0.896944
C36	C	1.518449	-0.213047	-0.506181
C37	C	1.518498	-0.105833	-0.506202
C38	C	1.585673	-0.402807	-0.951823
C39	C	1.585698	-0.402772	-1.061547
C40	C	1.451253	-0.526133	-1.061504
C41	C	1.451223	-0.526163	-0.951782
C42	C	1.652889	-0.341146	-0.896986
C43	C	1.720129	-0.279447	-0.951865
C44	C	1.720154	-0.279413	-1.061589
C45	C	1.652939	-0.341076	-1.116434
C46	C	1.518322	-0.464667	-0.233167
C47	C	1.518494	-0.464437	-0.116390
H48	H	0.919480	-0.229652	-0.762894
C49	C	0.795745	-0.581036	-0.379092
C50	C	0.903629	-0.594020	-0.364861
H51	H	0.758494	-0.622866	-0.333428
H52	H	0.777768	-0.516223	-0.363835
H53	H	0.777808	-0.595232	-0.449662
H54	H	0.921569	-0.579818	-0.294292
H55	H	0.921614	-0.658849	-0.380111
C56	C	1.552941	-0.316667	-0.739768
C57	C	1.652874	-0.341234	-0.776377
H58	H	1.552937	-0.316745	-0.665310
H59	H	1.534822	-0.254398	-0.764549
H60	H	1.503293	-0.362208	-0.764608
H61	H	1.702521	-0.295689	-0.751543
H62	H	1.671006	-0.403512	-0.751586
C63	C	1.062617	-0.648079	-0.305777
C64	C	1.133967	-0.593974	-0.364845
H65	H	1.099827	-0.689890	-0.260109
H66	H	1.019813	-0.606022	-0.265669
H67	H	1.019832	-0.685030	-0.351497
H68	H	1.176746	-0.557018	-0.319124
H69	H	1.176788	-0.636037	-0.404956
H70	H	1.774846	-0.229238	-0.907203
C71	C	1.318356	-0.648074	-1.050444
C72	C	1.377380	-0.593917	-1.121786
H73	H	1.272748	-0.689918	-1.087661
H74	H	1.364101	-0.684984	-1.007642
H75	H	1.278177	-0.606045	-1.007658
H76	H	1.417565	-0.635945	-1.164568
H77	H	1.331629	-0.557003	-1.164607
C78	C	1.853049	-0.157485	-1.050606
C79	C	1.794060	-0.211596	-1.121914
H80	H	1.898683	-0.115624	-1.087849
H81	H	1.807283	-0.120595	-1.007820
H82	H	1.893199	-0.199542	-1.007800
H83	H	1.753904	-0.169539	-1.164715
H84	H	1.839831	-0.248488	-1.164719
C85	C	1.726179	-0.273869	-1.273637
C86	C	1.652971	-0.341042	-1.237046
H87	H	1.726205	-0.273857	-1.348096
H88	H	1.708027	-0.211636	-1.248840
H89	H	1.793958	-0.290569	-1.248805
H90	H	1.585190	-0.324338	-1.261872
H91	H	1.671116	-0.403289	-1.261854
C92	C	1.391486	-0.580974	-0.783562
C93	C	1.377321	-0.593977	-0.891449
H94	H	1.345853	-0.622835	-0.746317
H95	H	1.462056	-0.595106	-0.765588
H96	H	1.376137	-0.516162	-0.765614
H97	H	1.392677	-0.658787	-0.909398
H98	H	1.306734	-0.579851	-0.909431
C99	C	1.285878	-0.274287	-0.714047
C100	C	1.249270	-0.341382	-0.640754
H101	H	1.360337	-0.274271	-0.714035
H102	H	1.261085	-0.291054	-0.781804
H103	H	1.261052	-0.212027	-0.695996
H104	H	1.274090	-0.403643	-0.658809
H105	H	1.274075	-0.324620	-0.572982
C106	C	1.107690	-0.233005	-0.886074
C107	C	1.134179	-0.212066	-0.782067
H108	H	1.144937	-0.191182	-0.931748
H109	H	1.125673	-0.297821	-0.901316
H110	H	1.034496	-0.224197	-0.895696
H111	H	1.207373	-0.220881	-0.772443
H112	H	1.116203	-0.147235	-0.766820
C113	C	0.752032	-0.433262	-0.667381
C114	C	0.788602	-0.341466	-0.640775
H115	H	0.677573	-0.433277	-0.667375
H116	H	0.776872	-0.449999	-0.735142
H117	H	0.776838	-0.478764	-0.617656
H118	H	0.763802	-0.295965	-0.690505
H119	H	0.763751	-0.324718	-0.573005
