data_functionalizedCrystal
_audit_creation_method	'MofGen! by Chris Wilmer'
_symmetry_space_group_name_H-M	'P1'
_symmetry_Int_Tables_number	1
_symmetry_cell_setting	triclinic
loop_
_symmetry_equiv_pos_as_xyz
  x,y,z
_cell_length_a	23.532355
_cell_length_b	17.038272
_cell_length_c	15.500361
_cell_angle_alpha	86.957697
_cell_angle_beta	87.184305
_cell_angle_gamma	93.030473
loop_
_atom_site_label
_atom_site_type_symbol
_atom_site_fract_x
_atom_site_fract_y
_atom_site_fract_z
O1	O	0.757794	-0.098322	0.071826
O2	O	0.592649	-0.112093	0.071854
O3	O	0.674240	0.008600	0.071833
O4	O	0.676203	-0.219016	0.071847
O5	O	0.679165	0.015900	-0.072054
O6	O	0.597574	-0.104794	-0.072033
O7	O	0.762719	-0.091022	-0.072061
Cu8	Cu	0.680596	-0.097242	-0.085185
Cu9	Cu	0.674772	-0.105874	0.084978
O10	O	0.681128	-0.211716	-0.072040
C11	C	0.573877	-0.108100	-0.000086
C12	C	0.510604	-0.107065	-0.000076
C13	C	0.120934	-0.096582	-0.078545
C14	C	0.061483	-0.095597	-0.078549
O15	O	0.033019	-0.091678	-0.145252
N16	N	0.029064	-0.099088	-0.000116
C17	C	0.056100	-0.103556	0.078325
O18	O	0.023066	-0.106434	0.145037
C19	C	0.115550	-0.104535	0.078327
C20	C	0.147965	-0.101052	-0.000110
C21	C	0.153349	-0.093098	-0.156976
C22	C	0.212796	-0.094084	-0.156973
C23	C	0.239828	-0.098554	-0.078538
C24	C	0.207412	-0.102038	-0.000107
C25	C	0.142585	-0.108998	0.156767
C26	C	0.202039	-0.109976	0.156763
C27	C	0.234455	-0.106493	0.078325
C28	C	0.293891	-0.107494	0.078332
N29	N	0.326309	-0.104003	-0.000100
C30	C	0.299278	-0.099533	-0.078535
C31	C	-0.068750	-0.101499	0.078313
C32	C	-0.128199	-0.100525	0.078312
C33	C	-0.122812	-0.092565	-0.078562
C34	C	-0.063361	-0.093544	-0.078559
C35	C	-0.036331	-0.098008	-0.000119
C36	C	0.424120	-0.101605	-0.078522
C37	C	0.483572	-0.102595	-0.078511
C38	C	0.478180	-0.110551	0.078362
C39	C	0.418733	-0.109566	0.078352
C40	C	0.391705	-0.105090	-0.000097
O41	O	0.322393	-0.111410	0.145001
O42	O	0.332319	-0.096646	-0.145237
C43	C	0.674918	0.041365	-0.000110
C44	C	0.669591	0.128117	-0.000109
C45	C	0.781491	-0.095016	-0.000119
C46	C	0.844764	-0.096051	-0.000124
C47	C	0.680451	-0.244481	-0.000095
C48	C	0.685777	-0.331233	-0.000091
N49	N	0.684697	-0.091169	-0.204868
C50	C	0.718496	0.178606	-0.000118
C51	C	0.713488	0.260118	-0.000109
C52	C	0.659573	0.291139	-0.000097
C53	C	0.610664	0.240643	-0.000085
C54	C	0.615673	0.159133	-0.000088
C55	C	0.641877	0.536761	-0.000082
C56	C	0.636872	0.618278	-0.000082
C57	C	0.739696	0.637747	-0.000104
C58	C	0.744701	0.556234	-0.000112
C59	C	0.695791	0.505745	-0.000096
C60	C	0.654452	0.374457	-0.000090
C61	C	0.700912	0.422428	-0.000096
C62	C	0.650117	-0.142292	-0.250158
C63	C	0.653234	-0.137696	-0.340729
C64	C	0.690929	-0.081974	-0.386010
C65	C	0.725514	-0.030849	-0.340715
C66	C	0.722399	-0.035449	-0.250145
C67	C	0.702145	-0.065415	-0.659473
C68	C	0.705256	-0.060818	-0.750049
C69	C	0.632976	-0.167667	-0.750058
C70	C	0.629862	-0.172259	-0.659486
C71	C	0.664449	-0.121137	-0.614198
C72	C	0.694116	-0.077273	-0.478589
C73	C	0.661265	-0.125841	-0.521621
N74	N	0.670675	-0.111940	0.204661
H75	H	0.116202	-0.111833	0.220640
H76	H	0.566765	0.265906	-0.000070
C77	C	-0.152552	-0.087638	-0.164845
C78	C	-0.145349	-0.152360	-0.229557
C79	C	-0.175091	-0.147432	-0.315834
C80	C	-0.212035	-0.077782	-0.337400
C81	C	-0.219240	-0.013055	-0.272686
C82	C	-0.189498	-0.017983	-0.186409
H83	H	-0.117999	-0.203923	-0.213594
H84	H	-0.169757	-0.195348	-0.363739
H85	H	-0.234051	-0.074135	-0.401267
H86	H	-0.246590	0.038508	-0.288649
H87	H	-0.194832	0.029933	-0.138503
H88	H	0.602051	0.495662	-0.000069
C89	C	0.619800	-0.187134	-0.471816
C90	C	0.625485	-0.275498	-0.484259
C91	C	0.584018	-0.336788	-0.434445
C92	C	0.536865	-0.309716	-0.372189
C93	C	0.531178	-0.221348	-0.359743
C94	C	0.572646	-0.160057	-0.409557
H95	H	0.660392	-0.295542	-0.530348
H96	H	0.588228	-0.402204	-0.443659
H97	H	0.506169	-0.355087	-0.335314
H98	H	0.496272	-0.201303	-0.313655
H99	H	0.568436	-0.094641	-0.400343
C100	C	-0.163852	-0.104367	0.164595
C101	C	-0.154709	-0.039910	0.229298
C102	C	-0.190359	-0.043748	0.315585
C103	C	-0.235153	-0.112041	0.337168
C104	C	-0.244298	-0.176503	0.272463
C105	C	-0.208648	-0.172666	0.186177
H106	H	-0.121548	0.010649	0.213322
H107	H	-0.183588	0.003971	0.363483
H108	H	-0.261543	-0.114882	0.401043
H109	H	-0.277459	-0.227062	0.288439
H110	H	-0.215419	-0.220385	0.138278
C111	C	0.746727	0.000480	-0.799857
C112	C	0.784776	0.056702	-0.750039
C113	C	0.826244	0.117997	-0.799845
C114	C	0.829662	0.123071	-0.899468
C115	C	0.791611	0.066848	-0.949292
C116	C	0.750143	0.005552	-0.899486
H117	H	0.782247	0.052947	-0.676287
H118	H	0.854412	0.159618	-0.762961
H119	H	0.860358	0.168446	-0.936337
H120	H	0.794140	0.070602	-1.023044
H121	H	0.721976	-0.036069	-0.936369
H122	H	0.756209	0.014519	-0.377588
C123	C	0.735577	-0.015973	-0.528398
C124	C	0.712577	0.046796	-0.590671
C125	C	0.754039	0.108096	-0.640481
C126	C	0.818501	0.106626	-0.628019
C127	C	0.841505	0.043855	-0.565743
C128	C	0.800043	-0.017445	-0.515933
H129	H	0.664855	0.047886	-0.599898
H130	H	0.737010	0.154563	-0.686581
H131	H	0.849194	0.152004	-0.664891
H132	H	0.889227	0.042765	-0.556516
H133	H	0.817072	-0.063912	-0.469833
H134	H	-0.046746	-0.105141	0.142193
C135	C	0.595148	0.408588	-0.000077
C136	C	0.580127	0.465752	-0.074783
C137	C	0.520824	0.499887	-0.074763
C138	C	0.476542	0.476859	-0.000036
C139	C	0.491563	0.419692	0.074676
C140	C	0.550866	0.385556	0.074655
H141	H	0.612908	0.482801	-0.130105
H142	H	0.509705	0.542206	-0.130070
H143	H	0.432643	0.502128	-0.000022
H144	H	0.458782	0.402642	0.129998
H145	H	0.561984	0.343238	0.129963
C146	C	0.394395	-0.096688	-0.164814
C147	C	0.351082	-0.162794	-0.186388
C148	C	0.321356	-0.157883	-0.272679
C149	C	0.334943	-0.086867	-0.337397
C150	C	0.378258	-0.020756	-0.315826
C151	C	0.407984	-0.025667	-0.229534
H152	H	0.341022	-0.215369	-0.138478
H153	H	0.289292	-0.206824	-0.288647
H154	H	0.312939	-0.083232	-0.401276
H155	H	0.388318	0.031819	-0.363736
H156	H	0.440049	0.023273	-0.213566
H157	H	0.730306	-0.023788	-0.622607
H158	H	0.392338	-0.112415	0.142222
C159	C	0.760217	0.388308	-0.000111
C160	C	0.780348	0.338741	-0.074834
C161	C	0.839654	0.304612	-0.074853
C162	C	0.878827	0.320049	-0.000149
C163	C	0.858697	0.369618	0.074580
C164	C	0.799392	0.403747	0.074599
H165	H	0.751349	0.327312	-0.130140
H166	H	0.854555	0.267918	-0.130173
H167	H	0.922728	0.294785	-0.000163
H168	H	0.887696	0.381047	0.129886
H169	H	0.784490	0.440441	0.129919
H170	H	0.239184	-0.091243	-0.220845
H171	H	0.762400	0.153356	-0.000133
H172	H	0.509963	-0.099761	-0.142387
H173	H	0.750559	0.006180	-0.213271
H174	H	0.131347	-0.089457	-0.220851
C175	C	-0.027706	-0.089708	-0.164840
C176	C	-0.036845	-0.154167	-0.229542
C177	C	-0.001193	-0.150329	-0.315827
C178	C	0.043599	-0.082033	-0.337410
C179	C	0.052740	-0.017569	-0.272706
C180	C	0.017088	-0.021406	-0.186422
H181	H	-0.070005	-0.204728	-0.213566
H182	H	-0.007960	-0.198050	-0.363724
H183	H	0.069991	-0.079192	-0.401283
H184	H	0.085900	0.032993	-0.288682
H185	H	0.023855	0.026315	-0.138524
H186	H	0.224044	-0.113611	0.220640
H187	H	0.575848	0.118024	-0.000080
H188	H	0.500199	-0.114194	0.142222
C189	C	0.804010	0.522119	-0.000120
C190	C	0.824154	0.472560	-0.074842
C191	C	0.883464	0.438447	-0.074853
C192	C	0.922631	0.453893	-0.000142
C193	C	0.902487	0.503455	0.074586
C194	C	0.843177	0.537568	0.074597
H195	H	0.795160	0.461123	-0.130152
H196	H	0.898375	0.401758	-0.130171
H197	H	0.966536	0.428641	-0.000150
H198	H	0.931481	0.514892	0.129896
H199	H	0.828266	0.574257	0.129915
H200	H	0.753312	0.301224	-0.000118
C201	C	0.793493	0.693285	-0.000111
C202	C	0.806749	0.755798	-0.074825
C203	C	0.860549	0.811337	-0.074829
C204	C	0.901093	0.804362	-0.000118
C205	C	0.887838	0.741847	0.074602
C206	C	0.834038	0.686308	0.074605
H207	H	0.776736	0.760963	-0.130135
H208	H	0.870361	0.857615	-0.130141
H209	H	0.940918	0.845475	-0.000120
H210	H	0.917851	0.736682	0.129912
H211	H	0.824226	0.640030	0.129918
H212	H	0.619418	-0.187664	-0.213296
H213	H	0.592966	0.643532	-0.000086
C214	C	0.594937	-0.223905	-0.799874
C215	C	0.598400	-0.218904	-0.899498
C216	C	0.560360	-0.275148	-0.949313
C217	C	0.518858	-0.336391	-0.899505
C218	C	0.515394	-0.341394	-0.799876
C219	C	0.553434	-0.285151	-0.750061
H220	H	0.629123	-0.173566	-0.936374
H221	H	0.562925	-0.271444	-1.023065
H222	H	0.490699	-0.378026	-0.936381
H223	H	0.484671	-0.386733	-0.763000
H224	H	0.550869	-0.288855	-0.676308
H225	H	0.625076	-0.179325	-0.377603
H226	H	0.599168	-0.217632	-0.622620
