data_functionalizedCrystal
_audit_creation_method	'MofGen! by Chris Wilmer'
_symmetry_space_group_name_H-M	'P1'
_symmetry_Int_Tables_number	1
_symmetry_cell_setting	triclinic
loop_
_symmetry_equiv_pos_as_xyz
  x,y,z
_cell_length_a	27.732046
_cell_length_b	15.021413
_cell_length_c	15.944551
_cell_angle_alpha	89.996935
_cell_angle_beta	96.929642
_cell_angle_gamma	89.998829
loop_
_atom_site_label
_atom_site_type_symbol
_atom_site_fract_x
_atom_site_fract_y
_atom_site_fract_z
O1	O	-0.641363	0.073907	0.099927
O2	O	-0.308030	0.407241	0.433260
O3	O	0.025303	0.740574	0.766593
O4	O	-0.500635	0.073937	0.115125
O5	O	-0.167302	0.407271	0.448458
O6	O	0.166031	0.740604	0.781791
O7	O	-0.574842	0.073914	-0.014799
O8	O	-0.241509	0.407247	0.318534
O9	O	0.091824	0.740580	0.651867
O10	O	-0.567156	0.073931	0.229851
O11	O	-0.233823	0.407265	0.563184
O12	O	0.099510	0.740598	0.896517
O13	O	-0.574830	-0.074151	-0.014781
O14	O	-0.241497	0.259183	0.318553
O15	O	0.091836	0.592516	0.651886
O16	O	-0.500624	-0.074127	0.115143
O17	O	-0.167290	0.259206	0.448477
O18	O	0.166043	0.592540	0.781810
O19	O	-0.641351	-0.074157	0.099945
O20	O	-0.308018	0.259177	0.433279
O21	O	0.025315	0.592510	0.766612
Zn22	Zn	-0.570986	-0.097650	0.107547
Zn23	Zn	-0.237652	0.235683	0.440881
Zn24	Zn	0.095681	0.569016	0.774214
Zn25	Zn	-0.571001	0.097431	0.107523
Zn26	Zn	-0.237668	0.430764	0.440856
Zn27	Zn	0.095665	0.764097	0.774189
O28	O	-0.567145	-0.074133	0.229869
O29	O	-0.233811	0.259200	0.563203
O30	O	0.099522	0.592534	0.896536
C31	C	-0.482621	-0.000091	0.114815
C32	C	-0.149288	0.333242	0.448149
C33	C	0.184045	0.666576	0.781482
C34	C	-0.428962	-0.000080	0.113855
C35	C	-0.095629	0.333253	0.447189
C36	C	0.237705	0.666587	0.780522
N37	N	-0.570979	-0.230788	0.107563
N38	N	-0.237645	0.102545	0.440897
N39	N	0.095688	0.435879	0.774230
C40	C	-0.574517	-0.000119	-0.046080
C41	C	-0.241184	0.333215	0.287253
C42	C	0.092149	0.666548	0.620587
C43	C	-0.573561	-0.000119	-0.139313
C44	C	-0.240227	0.333214	0.194020
C45	C	0.093106	0.666548	0.527353
C46	C	-0.090453	-0.000107	0.184588
C47	C	0.242880	0.333226	0.517921
C48	C	0.576214	0.666559	0.851254
C49	C	0.111222	-0.000112	0.181026
C50	C	0.444555	0.333222	0.514359
C51	C	0.777889	0.666555	0.847693
O52	O	0.142198	-0.000145	0.245703
O53	O	0.475531	0.333188	0.579036
O54	O	0.808864	0.666522	0.912370
N55	N	0.130680	-0.000115	0.103987
N56	N	0.464013	0.333218	0.437320
N57	N	0.797346	0.666551	0.770654
C58	C	0.099715	-0.000124	0.027833
C59	C	0.433048	0.333210	0.361166
C60	C	0.766381	0.666543	0.694500
O61	O	0.120892	-0.000136	-0.037775
O62	O	0.454225	0.333197	0.295558
O63	O	0.787559	0.666531	0.628892
C64	C	-0.101960	-0.000125	0.031396
C65	C	0.231374	0.333208	0.364729
C66	C	0.564707	0.666541	0.698062
C67	C	-0.121414	-0.000113	0.108440
C68	C	0.211919	0.333220	0.441773
C69	C	0.545253	0.666554	0.775106
C70	C	-0.109908	-0.000096	0.261625
C71	C	0.223425	0.333238	0.594959
C72	C	0.556759	0.666571	0.928292
C73	C	-0.160324	-0.000090	0.262515
C74	C	0.173009	0.333244	0.595848
C75	C	0.506343	0.666577	0.929182
C76	C	-0.191285	-0.000095	0.186367
C77	C	0.142049	0.333238	0.519700
C78	C	0.475382	0.666571	0.853034
C79	C	-0.171830	-0.000107	0.109329
C80	C	0.161503	0.333226	0.442663
C81	C	0.494837	0.666560	0.775996
C82	C	-0.132923	-0.000140	-0.044757
C83	C	0.200410	0.333193	0.288576
C84	C	0.533743	0.666527	0.621909
C85	C	-0.183345	-0.000143	-0.043860
C86	C	0.149989	0.333190	0.289473
C87	C	0.483322	0.666524	0.622807
C88	C	-0.202799	-0.000130	0.033184
C89	C	0.130534	0.333203	0.366517
C90	C	0.463868	0.666536	0.699851
C91	C	-0.253207	-0.000107	0.034071
C92	C	0.080127	0.333227	0.367404
C93	C	0.413460	0.666560	0.700738
N94	N	-0.272664	-0.000103	0.111110
N95	N	0.060669	0.333230	0.444443
N96	N	0.394003	0.666564	0.777777
C97	C	-0.241703	-0.000097	0.187258
C98	C	0.091630	0.333236	0.520591
C99	C	0.424964	0.666569	0.853925
C100	C	0.205597	-0.000121	0.025968
C101	C	0.538930	0.333213	0.359301
C102	C	0.872264	0.666546	0.692635
C103	C	0.256015	-0.000119	0.025077
C104	C	0.589349	0.333215	0.358410
C105	C	0.922682	0.666548	0.691744
C106	C	0.267519	-0.000108	0.178270
C107	C	0.600853	0.333225	0.511604
C108	C	0.934186	0.666558	0.844937
C109	C	0.217100	-0.000104	0.179160
C110	C	0.550433	0.333229	0.512494
C111	C	0.883767	0.666562	0.845827
C112	C	0.186140	-0.000117	0.103007
C113	C	0.519473	0.333216	0.436340
C114	C	0.852806	0.666549	0.769674
C115	C	-0.347580	-0.000084	0.189120
C116	C	-0.014247	0.333249	0.522454
C117	C	0.319086	0.666583	0.855787
C118	C	-0.398001	-0.000074	0.190003
C119	C	-0.064668	0.333259	0.523337
C120	C	0.268665	0.666592	0.856670
C121	C	-0.409501	-0.000089	0.036811
C122	C	-0.076167	0.333244	0.370144
C123	C	0.257166	0.666577	0.703477
C124	C	-0.359084	-0.000094	0.035927
C125	C	-0.025751	0.333239	0.369260
C126	C	0.307582	0.666572	0.702594
C127	C	-0.328125	-0.000095	0.112089
C128	C	0.005208	0.333239	0.445422
C129	C	0.338542	0.666572	0.778756
O130	O	-0.284211	-0.000083	-0.030571
O131	O	0.049123	0.333250	0.302762
O132	O	0.382456	0.666583	0.636095
O133	O	-0.262890	-0.000105	0.252856
O134	O	0.070444	0.333229	0.586190
O135	O	0.403777	0.666562	0.919523
C136	C	-0.040037	-0.000113	0.183698
C137	C	0.293296	0.333220	0.517031
C138	C	0.626629	0.666553	0.850365
C139	C	-0.020582	-0.000125	0.106660
C140	C	0.312751	0.333209	0.439994
C141	C	0.646084	0.666542	0.773327
C142	C	-0.051543	-0.000130	0.030512
C143	C	0.281790	0.333203	0.363846
C144	C	0.615123	0.666536	0.697179
C145	C	0.029836	-0.000123	0.105770
C146	C	0.363169	0.333211	0.439103
C147	C	0.696503	0.666544	0.772436
C148	C	0.060797	-0.000117	0.181918
C149	C	0.394130	0.333216	0.515251
C150	C	0.727464	0.666550	0.848584
C151	C	0.041339	-0.000114	0.258957
C152	C	0.374673	0.333220	0.592290
C153	C	0.708006	0.666553	0.925623
C154	C	-0.009076	-0.000108	0.259846
C155	C	0.324257	0.333226	0.593180
C156	C	0.657590	0.666559	0.926513
C157	C	-0.032086	-0.000134	-0.046527
C158	C	0.301248	0.333199	0.286807
C159	C	0.634581	0.666533	0.620140
C160	C	0.018331	-0.000139	-0.047410
C161	C	0.351664	0.333194	0.285923
C162	C	0.684997	0.666528	0.619257
C163	C	0.049291	-0.000133	0.028738
C164	C	0.382625	0.333200	0.362071
C165	C	0.715958	0.666533	0.695405
C166	C	0.340635	-0.000122	0.100257
C167	C	0.673968	0.333212	0.433591
C168	C	1.007301	0.666545	0.766924
C169	C	0.286976	-0.000113	0.101225
C170	C	0.620309	0.333220	0.434558
C171	C	0.953643	0.666554	0.767892
C172	C	-0.536660	-0.470460	0.167612
C173	C	-0.203327	-0.137127	0.500946
C174	C	0.130007	0.196207	0.834279
C175	C	-0.580337	-0.529803	0.183348
C176	C	-0.247004	-0.196469	0.516681
C177	C	0.086329	0.136864	0.850014
C178	C	-0.570991	-0.412395	0.107542
C179	C	-0.237658	-0.079061	0.440876
C180	C	0.095676	0.254272	0.774209
C181	C	-0.527325	-0.529794	0.091825
C182	C	-0.193992	-0.196461	0.425159
C183	C	0.139341	0.136873	0.758492
C184	C	-0.570999	-0.587819	0.107524
C185	C	-0.237666	-0.254486	0.440857
C186	C	0.095668	0.078848	0.774190
C187	C	-0.614690	-0.470431	0.123315
C188	C	-0.281357	-0.137097	0.456648
C189	C	0.051976	0.196236	0.789982
C190	C	-0.561650	-0.470417	0.031760
C191	C	-0.228316	-0.137084	0.365094
C192	C	0.105017	0.196250	0.698427
C193	C	-0.605358	-0.529733	0.047463
C194	C	-0.272025	-0.196399	0.380796
C195	C	0.061308	0.136934	0.714130
C196	C	-0.570986	-0.311337	0.107555
C197	C	-0.237652	0.021996	0.440888
C198	C	0.095681	0.355329	0.774222
C199	C	-0.571009	-0.688874	0.107510
C200	C	-0.237676	-0.355541	0.440844
C201	C	0.095657	-0.022207	0.774177
N202	N	-0.571012	0.230568	0.107500
N203	N	-0.237679	0.563902	0.440833
N204	N	0.095655	0.897235	0.774167
C205	C	-0.525277	-0.000097	-0.353538
C206	C	-0.191944	0.333237	-0.020205
C207	C	0.141389	0.666570	0.313128
C208	C	-0.547693	-0.073106	-0.414840
C209	C	-0.214359	0.260227	-0.081506
C210	C	0.118974	0.593561	0.251827
C211	C	-0.571830	-0.000112	-0.310017
C212	C	-0.238497	0.333222	0.023317
C213	C	0.094837	0.666555	0.356650
C214	C	-0.547715	0.072874	-0.414842
C215	C	-0.214382	0.406207	-0.081508
C216	C	0.118951	0.739541	0.251825
C217	C	-0.570155	-0.000101	-0.474907
C218	C	-0.236822	0.333232	-0.141574
C219	C	0.096512	0.666566	0.191759
C220	C	-0.594258	-0.073181	-0.370090
C221	C	-0.260925	0.260152	-0.036757
C222	C	0.072408	0.593485	0.296576
C223	C	-0.594274	0.072864	-0.370086
C224	C	-0.260941	0.406197	-0.036752
C225	C	0.072392	0.739531	0.296581
C226	C	-0.616724	-0.000163	-0.431370
C227	C	-0.283390	0.333170	-0.098037
C228	C	0.049943	0.666503	0.235297
C229	C	-0.572794	-0.000119	-0.215027
C230	C	-0.239460	0.333215	0.118306
C231	C	0.093873	0.666548	0.451640
C232	C	-0.569195	-0.000100	-0.569896
C233	C	-0.235862	0.333233	-0.236563
C234	C	0.097472	0.666566	0.096771
C235	C	-0.567470	-0.000099	0.261150
C236	C	-0.234136	0.333234	0.594483
C237	C	0.099197	0.666568	0.927817
C238	C	-0.568426	-0.000093	0.354383
C239	C	-0.235093	0.333241	0.687717
C240	C	0.098241	0.666574	1.021050
H241	H	-0.413838	-0.000064	0.252744
H242	H	-0.080505	0.333270	0.586078
H243	H	0.252829	0.666603	0.919411
H244	H	-0.634426	-0.555594	-0.003348
H245	H	-0.301093	-0.222261	0.329986
H246	H	0.032241	0.111072	0.663319
Br247	Br	-0.676259	-0.427159	0.145581
Br248	Br	-0.342926	-0.093826	0.478915
Br249	Br	-0.009592	0.239508	0.812248
H250	H	-0.553728	-0.444312	-0.032298
H251	H	-0.220394	-0.110978	0.301035
H252	H	0.112939	0.222355	0.634369
H253	H	-0.322379	-0.000087	0.251139
H254	H	0.010955	0.333246	0.584472
H255	H	0.344288	0.666579	0.917805
H256	H	-0.490395	-0.555872	0.078541
H257	H	-0.157062	-0.222539	0.411874
H258	H	0.176272	0.110794	0.745207
H259	H	-0.486636	-0.000161	-0.319725
H260	H	-0.153303	0.333172	0.013608
H261	H	0.180030	0.666505	0.346942
H262	H	-0.527998	-0.134821	-0.434683
H263	H	-0.194664	0.198512	-0.101349
H264	H	0.138669	0.531845	0.231984
H265	H	-0.613927	-0.134973	-0.350349
H266	H	-0.280593	0.198360	-0.017016
H267	H	0.052740	0.531694	0.316317
H268	H	-0.655398	-0.000213	-0.465035
H269	H	-0.322065	0.333121	-0.131701
H270	H	0.011268	0.666454	0.201632
H271	H	-0.613952	0.134583	-0.350220
H272	H	-0.280619	0.467916	-0.016887
H273	H	0.052714	0.801249	0.316446
Br274	Br	0.044726	-0.000141	-0.151980
Br275	Br	0.378059	0.333192	0.181353
Br276	Br	0.711393	0.666526	0.514687
H277	H	-0.528024	0.134602	-0.434668
H278	H	-0.194691	0.467935	-0.101335
H279	H	0.138642	0.801269	0.231998
Br280	Br	-0.186718	-0.000077	0.367080
Br281	Br	0.146615	0.333257	0.700414
Br282	Br	0.479949	0.666590	1.033747
H283	H	0.201264	-0.000099	0.241896
H284	H	0.534597	0.333234	0.575230
H285	H	0.867931	0.666568	0.908563
Br286	Br	-0.067898	-0.000088	0.364984
Br287	Br	0.265435	0.333245	0.698317
Br288	Br	0.598769	0.666579	1.031651
H289	H	0.292736	-0.000104	0.240273
H290	H	0.626070	0.333229	0.573606
H291	H	0.959403	0.666563	0.906940
H292	H	0.180393	-0.000131	-0.036049
H293	H	0.513726	0.333202	0.297284
H294	H	0.847059	0.666535	0.630618
Br295	Br	0.282411	-0.000109	-0.079487
Br296	Br	0.615744	0.333224	0.253847
Br297	Br	0.949078	0.666558	0.587180
Br298	Br	-0.106534	-0.000138	-0.149324
Br299	Br	0.226799	0.333196	0.184010
Br300	Br	0.560132	0.666529	0.517343
H301	H	-0.343244	-0.000091	-0.026808
H302	H	-0.009911	0.333242	0.306525
H303	H	0.323423	0.666575	0.639858
Br304	Br	-0.225360	-0.000165	-0.147217
Br305	Br	0.107973	0.333168	0.186116
Br306	Br	0.441307	0.666502	0.519449
H307	H	-0.434718	-0.000091	-0.025187
H308	H	-0.101385	0.333243	0.308146
H309	H	0.231949	0.666576	0.641479
H310	H	-0.024911	-0.000099	0.322583
H311	H	0.308422	0.333235	0.655917
H312	H	0.641756	0.666568	0.989250
Br313	Br	-0.488319	-0.427078	0.252343
Br314	Br	-0.154986	-0.093744	0.585677
Br315	Br	0.178348	0.239589	0.919010
H316	H	-0.588246	-0.555887	0.247427
H317	H	-0.254912	-0.222554	0.580760
H318	H	0.078421	0.110780	0.914093
Br319	Br	0.083368	-0.000099	0.362299
Br320	Br	0.416701	0.333234	0.695633
Br321	Br	0.750035	0.666568	1.028966
H322	H	-0.057290	-0.000141	-0.108537
H323	H	0.276043	0.333193	0.224796
H324	H	0.609377	0.666526	0.558129
