data_functionalizedCrystal
_audit_creation_method	'MofGen! by Chris Wilmer'
_symmetry_space_group_name_H-M	'P1'
_symmetry_Int_Tables_number	1
_symmetry_cell_setting	triclinic
loop_
_symmetry_equiv_pos_as_xyz
  x,y,z
_cell_length_a	11.792254
_cell_length_b	10.268362
_cell_length_c	19.188930
_cell_angle_alpha	89.989803
_cell_angle_beta	83.671689
_cell_angle_gamma	89.995009
loop_
_atom_site_label
_atom_site_type_symbol
_atom_site_fract_x
_atom_site_fract_y
_atom_site_fract_z
O1	O	1.505468	-0.108309	0.095737
O2	O	1.174982	-0.108315	0.105590
O3	O	1.349762	-0.108286	-0.000938
O4	O	1.330688	-0.108337	0.202265
O5	O	1.349745	0.108315	-0.000942
O6	O	1.174964	0.108286	0.105586
O7	O	1.505451	0.108292	0.095733
Cu8	Cu	1.340206	0.128066	0.100659
Cu9	Cu	1.340227	-0.128089	0.100664
O10	O	1.330671	0.108263	0.202261
C11	C	1.132692	-0.000015	0.104968
C12	C	1.006706	-0.000016	0.103110
N13	N	1.340200	0.308232	0.100656
C14	C	1.349136	0.000018	-0.026954
C15	C	1.347282	0.000029	-0.104469
C16	C	1.547741	-0.000011	0.096356
C17	C	1.673726	-0.000018	0.098214
C18	C	1.776040	-0.000021	0.099723
C19	C	1.904399	-0.000018	0.101611
C20	C	1.340213	0.573903	0.100664
C21	C	1.340202	0.426065	0.100662
N22	N	1.340231	0.691745	0.100665
C23	C	1.449837	0.000037	-0.148809
C24	C	1.448095	0.000016	-0.221643
C25	C	1.343792	0.000014	-0.250134
C26	C	1.241223	-0.000002	-0.205784
C27	C	1.242968	0.000006	-0.132951
N28	N	1.264058	0.073725	-0.358594
N29	N	1.262408	0.073721	-0.427782
C30	C	1.338528	-0.000013	-0.469572
N31	N	1.416379	-0.073725	-0.439562
N32	N	1.418033	-0.073715	-0.370368
C33	C	1.341888	0.000004	-0.329107
C34	C	1.439202	-0.000029	-0.592887
C35	C	1.437455	-0.000058	-0.665722
C36	C	1.230580	-0.000063	-0.649861
C37	C	1.232330	-0.000048	-0.577028
C38	C	1.336643	-0.000024	-0.548546
C39	C	1.331297	-0.000044	0.228278
C40	C	1.333151	-0.000063	0.305793
H41	H	1.534777	0.000052	-0.125624
O42	O	1.547826	0.000086	-0.264626
C43	C	1.640268	0.000070	-0.223868
H44	H	1.611188	0.041075	-0.169630
H45	H	1.672276	-0.103840	-0.218552
C46	C	1.773008	0.034662	-0.326414
C47	C	1.737294	0.085036	-0.259799
H48	H	1.832861	0.087067	-0.348578
H49	H	1.710730	0.034668	-0.353874
H50	H	1.799674	-0.051929	-0.321974
H51	H	1.710616	0.171618	-0.264240
H52	H	1.799571	0.085046	-0.232340
H53	H	1.524140	-0.000016	-0.569696
H54	H	1.156298	-0.000007	-0.228985
O55	O	1.143236	0.000063	-0.089976
C56	C	1.050797	0.000015	-0.130735
H57	H	1.079869	0.041013	-0.184984
H58	H	1.018818	-0.103902	-0.136027
C59	C	0.918041	0.034605	-0.028201
C60	C	0.953746	0.084969	-0.094828
H61	H	0.858173	0.087004	-0.006051
H62	H	0.980318	0.034633	-0.000740
H63	H	0.891400	-0.051992	-0.032620
H64	H	0.980400	0.171558	-0.090408
H65	H	0.891471	0.084959	-0.122288
H66	H	1.520972	-0.000059	-0.701824
O67	O	1.129358	-0.000015	-0.677643
C68	C	1.149806	-0.000062	-0.751435
H69	H	1.238455	0.040952	-0.768204
H70	H	1.144422	-0.103981	-0.771712
C71	C	0.950787	0.034490	-0.761404
C72	C	1.059663	0.084874	-0.782000
H73	H	0.895180	0.086877	-0.780259
H74	H	0.937009	0.034517	-0.711689
H75	H	0.946316	-0.052109	-0.778303
H76	H	1.064136	0.171465	-0.765094
H77	H	1.073440	0.084864	-0.831713
O78	O	1.132601	0.000019	-0.534052
C79	C	1.040164	-0.000020	-0.574812
H80	H	1.069239	0.040979	-0.629060
H81	H	1.008181	-0.103936	-0.580106
C82	C	0.907407	0.034570	-0.472279
C83	C	0.943115	0.084937	-0.538905
H84	H	0.847540	0.086971	-0.450129
H85	H	0.969682	0.034592	-0.444817
H86	H	0.880762	-0.052025	-0.476700
H87	H	0.969772	0.171524	-0.534483
H88	H	0.880841	0.084932	-0.566366
