data_functionalizedCrystal
_audit_creation_method	'MofGen! by Chris Wilmer'
_symmetry_space_group_name_H-M	'P1'
_symmetry_Int_Tables_number	1
_symmetry_cell_setting	triclinic
loop_
_symmetry_equiv_pos_as_xyz
  x,y,z
_cell_length_a	16.120490
_cell_length_b	29.839131
_cell_length_c	16.120297
_cell_angle_alpha	87.139604
_cell_angle_beta	89.870317
_cell_angle_gamma	87.127008
loop_
_atom_site_label
_atom_site_type_symbol
_atom_site_fract_x
_atom_site_fract_y
_atom_site_fract_z
Zn1	Zn	1.247365	-0.227636	0.534445
Zn2	Zn	1.254290	-0.299152	0.395359
Zn3	Zn	1.115357	-0.220041	0.388369
Zn4	Zn	1.108246	-0.298734	0.527332
O5	O	1.181315	-0.261391	0.461376
O6	O	1.364649	-0.240476	0.521897
O7	O	1.241735	-0.285654	0.278067
O8	O	1.132947	-0.158185	0.407798
O9	O	1.369737	-0.293019	0.419711
O10	O	1.229932	-0.163765	0.515119
O11	O	1.139661	-0.227531	0.272932
O12	O	0.998048	-0.227126	0.400900
O13	O	1.120826	-0.292307	0.644639
O14	O	0.992823	-0.284942	0.502996
O15	O	1.223036	-0.240071	0.649865
O16	O	1.234839	-0.361961	0.412813
O17	O	1.127541	-0.361653	0.509773
C18	C	0.965264	-0.255165	0.450418
C19	C	0.872835	-0.252513	0.445750
C20	C	1.181191	-0.378108	0.461299
C21	C	1.181213	-0.428043	0.461298
C22	C	0.659865	-0.275145	0.485591
C23	C	0.703612	-0.247674	0.437226
C24	C	0.797776	-0.250367	0.441971
C25	C	0.565692	-0.272453	0.480848
C26	C	1.231799	-0.740564	0.517333
C27	C	1.231887	-0.928240	0.517388
O28	O	1.274776	-0.954947	0.564972
N29	N	1.181451	-0.948839	0.461475
C30	C	1.130985	-0.922516	0.405549
O31	O	1.088082	-0.944343	0.357999
C32	C	1.130894	-0.734840	0.405499
C33	C	1.181340	-0.714244	0.461409
C34	C	1.282240	-0.719967	0.573240
C35	C	1.282221	-0.673051	0.573223
C36	C	1.231761	-0.646731	0.517299
C37	C	1.181320	-0.667327	0.461392
C38	C	1.080424	-0.708517	0.349577
C39	C	1.080404	-0.661595	0.349571
C40	C	1.130850	-0.640999	0.405481
C41	C	1.130841	-0.594091	0.405451
N42	N	1.181278	-0.573492	0.461364
C43	C	1.231737	-0.599812	0.517287
C44	C	1.131038	-1.021049	0.405578
C45	C	1.131062	-1.067967	0.405589
C46	C	1.231963	-1.073689	0.517429
C47	C	1.231943	-1.026769	0.517413
C48	C	1.181474	-1.000450	0.461490
C49	C	1.231694	-0.501284	0.517247
C50	C	1.231673	-0.454363	0.517222
C51	C	1.130769	-0.448646	0.405385
C52	C	1.130793	-0.495562	0.405406
C53	C	1.181258	-0.521881	0.461344
O54	O	1.087968	-0.567357	0.357898
O55	O	1.274621	-0.577976	0.564843
C56	C	1.231819	-0.787480	0.517350
C57	C	1.181378	-0.808076	0.461444
C58	C	1.130918	-0.781757	0.405520
C59	C	1.181402	-0.854995	0.461455
C60	C	1.231861	-0.881315	0.517379
C61	C	1.282297	-0.860716	0.573291
C62	C	1.282278	-0.813800	0.573274
C63	C	1.080482	-0.802355	0.349608
C64	C	1.080506	-0.849272	0.349629
C65	C	1.130966	-0.875592	0.405553
C66	C	1.398209	-0.267642	0.472377
C67	C	1.490637	-0.270305	0.477065
C68	C	1.170365	-0.266989	0.678268
C69	C	1.165699	-0.269375	0.770695
C70	C	1.181460	-0.144219	0.461472
C71	C	1.181522	-0.094287	0.461513
C72	C	1.192269	-0.255783	0.245330
C73	C	1.197096	-0.253275	0.152912
C74	C	1.157150	-0.273720	0.939918
C75	C	1.205643	-0.248932	0.983694
C76	C	1.200886	-0.251349	1.077856
C77	C	1.161906	-0.271303	0.845748
H78	H	0.670345	-0.222134	0.392257
N79	N	0.703919	-0.308980	0.545147
H80	H	0.738038	-0.292766	0.585531
H81	H	0.741596	-0.329893	0.512984
N82	N	1.286085	-0.432149	0.577527
H83	H	1.318050	-0.455944	0.612957
H84	H	1.250256	-0.412703	0.614257
N85	N	1.286113	-0.529666	0.577586
H86	H	1.318058	-0.509492	0.612997
H87	H	1.326344	-0.549363	0.545739
H88	H	1.039390	-0.780929	0.304069
N89	N	1.336624	-0.650839	0.633532
H90	H	1.368585	-0.674638	0.668960
H91	H	1.300790	-0.631397	0.670264
H92	H	1.112066	-0.296757	0.973155
H93	H	1.250731	-0.225893	0.950455
H94	H	1.273019	-1.010003	0.562941
N95	N	1.336647	-0.748351	0.633583
H96	H	1.368585	-0.728176	0.668998
H97	H	1.376884	-0.768049	0.601746
H98	H	1.089994	-1.084733	0.360053
N99	N	1.286387	-1.102073	0.577762
H100	H	1.326670	-1.121773	0.545974
H101	H	1.250560	-1.121535	0.614541
N102	N	1.076606	-0.992664	0.345253
H103	H	1.044666	-1.012837	0.309836
H104	H	1.112420	-0.973176	0.308510
N105	N	1.026016	-0.730724	0.289271
H106	H	0.994048	-0.706925	0.253851
H107	H	0.985805	-0.749963	0.321140
H108	H	1.089723	-0.512333	0.359873
N109	N	1.025973	-0.633206	0.289253
H110	H	0.965903	-0.640017	0.299110
H111	H	1.042007	-0.640236	0.230536
N112	N	1.076352	-0.420253	0.345065
H113	H	1.083997	-0.387406	0.353545
H114	H	1.016304	-0.427099	0.354950
H115	H	1.323356	-0.797034	0.618802
H116	H	1.323387	-0.882154	0.618824
H117	H	1.039428	-0.866037	0.304092
