data_functionalizedCrystal
_audit_creation_method	'MofGen! by Chris Wilmer'
_symmetry_space_group_name_H-M	'P1'
_symmetry_Int_Tables_number	1
_symmetry_cell_setting	triclinic
loop_
_symmetry_equiv_pos_as_xyz
  x,y,z
_cell_length_a	15.995350
_cell_length_b	15.995350
_cell_length_c	15.072220
_cell_angle_alpha	90.008851
_cell_angle_beta	90.001101
_cell_angle_gamma	96.507625
loop_
_atom_site_label
_atom_site_type_symbol
_atom_site_fract_x
_atom_site_fract_y
_atom_site_fract_z
O1	O	0.107921	-1.110996	-0.073703
O2	O	0.121249	-0.867221	-0.073721
O3	O	-0.007303	-0.995772	-0.073710
O4	O	0.236472	-0.982444	-0.073713
O5	O	-0.007296	-0.995740	0.073855
O6	O	0.121256	-0.867189	0.073844
O7	O	0.107928	-1.110964	0.073862
Zn8	Zn	0.114593	-0.989071	0.097283
Zn9	Zn	0.114584	-0.989113	-0.097141
O10	O	0.236480	-0.982413	0.073852
C11	C	-0.038494	-0.995205	0.000070
C12	C	-0.131444	-0.993553	0.000065
C13	C	0.120701	-0.836010	0.000060
C14	C	0.119049	-0.743060	0.000053
C15	C	-0.469192	-0.987621	0.000068
C16	C	-0.421758	-0.896069	-0.000270
C17	C	-0.325068	-0.897721	0.000063
C18	C	-0.301631	-0.990564	0.000066
C19	C	-0.342705	-1.035702	0.084335
C20	C	-0.439341	-1.033402	0.084405
C21	C	-0.439707	-1.035330	-0.083404
C22	C	-0.342761	-1.035308	-0.084518
C23	C	-0.206934	-0.992231	0.000068
C24	C	-0.563890	-0.985956	0.000072
C25	C	0.108476	-1.142175	0.000080
C26	C	0.110127	-1.235125	0.000081
C27	C	0.267671	-0.982980	0.000069
C28	C	0.360621	-0.984631	0.000069
N29	N	0.114599	-0.989049	0.229971
C30	C	0.113117	-0.405312	0.000071
C31	C	0.021565	-0.452746	0.000401
C32	C	0.023217	-0.549436	0.000063
C33	C	0.116060	-0.572873	0.000063
C34	C	0.161212	-0.531804	-0.084201
C35	C	0.158912	-0.435168	-0.084266
C36	C	0.160812	-0.434793	0.083543
C37	C	0.160790	-0.531738	0.084651
C38	C	0.117727	-0.667570	0.000055
C39	C	0.111452	-0.310614	0.000073
N40	N	0.114571	-0.989142	-0.229830
C41	C	0.114580	-0.989112	0.589173
C42	C	0.183135	-0.920095	0.551560
C43	C	0.183385	-0.920254	0.448735
C44	C	0.114590	-0.989080	0.410969
C45	C	0.133671	-1.076445	0.448266
C46	C	0.134159	-1.076058	0.551124
C47	C	0.026741	-0.971542	0.551272
C48	C	0.027327	-0.969537	0.448409
C49	C	0.114593	-0.989067	0.310255
C50	C	0.114579	-0.989130	0.689886
H51	H	-0.296649	-0.862238	-0.060344
N52	N	0.119663	-0.569383	-0.167278
H53	H	0.162157	-0.596760	-0.203553
H54	H	0.071598	-0.612970	-0.150455
N55	N	0.269003	-0.934772	0.585740
H56	H	0.263687	-0.985929	0.625487
H57	H	0.306955	-0.944212	0.534009
N58	N	-0.024112	-0.586351	-0.080095
H59	H	0.014919	-0.616195	-0.118495
H60	H	-0.072839	-0.627751	-0.060086
H61	H	0.197002	-1.092297	0.422498
H62	H	0.172016	-0.855314	0.423519
N63	N	0.269805	-0.934952	0.416224
H64	H	0.284268	-0.990980	0.438857
H65	H	0.270379	-0.935033	0.349219
N66	N	-0.306607	-0.991669	-0.167107
H67	H	-0.353267	-0.969801	-0.202309
H68	H	-0.263752	-0.943148	-0.149748
N69	N	0.070509	-1.146100	0.584089
H70	H	0.042265	-1.177096	0.531801
H71	H	0.099913	-1.186446	0.621235
N72	N	-0.023806	-0.587095	0.080060
H73	H	0.015403	-0.617178	0.117985
H74	H	-0.045796	-0.540847	0.115802
H75	H	-0.026078	-1.016540	0.422704
N76	N	0.069290	-1.146098	0.415863
H77	H	0.070522	-1.148250	0.348909
H78	H	0.082823	-1.201638	0.440711
H79	H	-0.328579	-1.103910	0.087471
H80	H	-0.314320	-1.004325	0.147042
N81	N	-0.463583	-0.989754	0.167832
H82	H	-0.526472	-0.987824	0.168712
H83	H	-0.446423	-1.021708	0.221386
N84	N	0.219011	-1.096566	0.582901
H85	H	0.255747	-1.105770	0.530092
H86	H	0.246532	-1.048313	0.619702
H87	H	-0.024275	-1.021872	0.575595
H88	H	0.008392	-0.909219	0.577258
N89	N	0.008168	-0.884381	0.416183
H90	H	0.055806	-0.858566	0.377484
H91	H	-0.045771	-0.891054	0.380754
H92	H	-0.441349	-0.859626	0.059819
N93	N	-0.446307	-0.847606	-0.080312
H94	H	-0.488416	-0.884522	-0.117133
H95	H	-0.472243	-0.796127	-0.060131
H96	H	0.171953	-0.854945	0.576317
N97	N	0.117132	-0.567895	0.167230
H98	H	0.158314	-0.595933	0.204646
H99	H	0.095256	-0.521196	0.202368
N100	N	-0.466913	-0.995700	-0.168009
H101	H	-0.447345	-1.027279	-0.220723
H102	H	-0.530281	-0.998215	-0.169107
N103	N	-0.288144	-0.850376	0.080210
H104	H	-0.334689	-0.828355	0.115463
H105	H	-0.258294	-0.889446	0.118539
N106	N	-0.482073	-1.122427	0.089487
H107	H	-0.465280	-1.155432	0.036524
H108	H	-0.464431	-1.149802	0.145805
N109	N	-0.322421	-1.124994	-0.091261
H110	H	-0.286095	-1.137950	-0.039348
H111	H	-0.376359	-1.164489	-0.090536
H112	H	-0.015027	-0.434211	0.060830
N113	N	-0.481772	-1.124743	-0.084158
H114	H	-0.519747	-1.134336	-0.030722
H115	H	-0.516218	-1.134755	-0.140096
H116	H	0.130885	-0.414244	0.147414
N117	N	0.250474	-0.552082	0.091400
H118	H	0.263438	-0.588411	0.039486
H119	H	0.289971	-0.498145	0.090681
N120	N	-0.026708	-0.426793	-0.079180
H121	H	0.010470	-0.384445	-0.115447
H122	H	-0.044978	-0.477897	-0.116754
N123	N	0.115284	-0.410921	-0.167693
H124	H	0.147218	-0.428029	-0.221294
H125	H	0.056049	-0.440470	-0.169034
N126	N	0.247943	-0.392444	-0.089296
H127	H	0.288508	-0.436411	-0.091471
H128	H	0.254668	-0.356552	-0.144516
N129	N	0.250225	-0.392728	0.084304
H130	H	0.259827	-0.354756	0.030872
H131	H	0.260228	-0.358279	0.140246
N132	N	0.251559	-0.550520	-0.088369
H133	H	0.264119	-0.585886	-0.035547
H134	H	0.260836	-0.582180	-0.144847
