data_functionalizedCrystal
_audit_creation_method	'MofGen! by Chris Wilmer'
_symmetry_space_group_name_H-M	'P1'
_symmetry_Int_Tables_number	1
_symmetry_cell_setting	triclinic
loop_
_symmetry_equiv_pos_as_xyz
  x,y,z
_cell_length_a	11.026607
_cell_length_b	11.026607
_cell_length_c	10.066280
_cell_angle_alpha	82.325861
_cell_angle_beta	82.321477
_cell_angle_gamma	108.586017
loop_
_atom_site_label
_atom_site_type_symbol
_atom_site_fract_x
_atom_site_fract_y
_atom_site_fract_z
O1	O	-1.706409	-0.513306	-0.113483
O2	O	-1.339828	-0.452543	-0.113485
O3	O	-1.492738	-0.299635	-0.113480
O4	O	-1.553499	-0.666214	-0.113489
O5	O	-1.533370	-0.340261	0.113494
O6	O	-1.380461	-0.493168	0.113488
O7	O	-1.747041	-0.553932	0.113490
Zn8	Zn	-1.570202	-0.530000	0.149526
Zn9	Zn	-1.516667	-0.476474	-0.149521
O10	O	-1.594132	-0.706839	0.113484
C11	C	-1.312485	-0.461646	0.000001
C12	C	-1.170471	-0.428228	0.000000
C13	C	-1.501844	-0.272288	0.000005
C14	C	-1.468426	-0.130273	0.000000
C15	C	-1.774384	-0.544829	0.000001
C16	C	-1.916397	-0.578244	-0.000007
C17	C	-1.116821	-0.520497	-0.000003
C18	C	-0.970042	-0.485962	-0.000004
C19	C	-1.585025	-0.734186	-0.000004
C20	C	-1.618441	-0.876199	-0.000008
N21	N	-1.606747	-0.566532	0.353618
C22	C	-1.560695	-0.076624	-0.000001
C23	C	-1.526159	0.070156	-0.000006
N24	N	-1.480130	-0.439935	-0.353613
C25	C	-1.557513	-0.517293	0.578579
C26	C	-1.529353	-0.489162	0.421422
H27	H	-0.907307	-0.381386	-0.000036
O28	O	-0.999482	-0.716764	0.000008
H29	H	-0.937855	-0.779100	0.000021
H30	H	-1.179555	-0.625061	0.000002
H31	H	-1.363861	-0.067539	-0.000009
O32	O	-1.699204	-0.159706	-0.000011
H33	H	-1.763870	-0.155596	0.092492
H34	H	-1.107732	-0.323660	-0.000032
H35	H	-1.421587	0.132886	-0.000016
O36	O	-1.364751	-0.324604	0.569211
H37	H	-1.375065	-0.233687	0.596584
H38	H	-1.722993	0.061092	-0.000110
O39	O	-1.722132	-0.681851	0.430820
H40	H	-1.711835	-0.772789	0.403488
O41	O	-1.672902	-0.632602	0.655776
H42	H	-1.676924	-0.636591	0.767099
O43	O	-1.414010	-0.373795	0.344230
H44	H	-1.410018	-0.369778	0.232907
