data_functionalizedCrystal
_audit_creation_method	'MofGen! by Chris Wilmer'
_symmetry_space_group_name_H-M	'P1'
_symmetry_Int_Tables_number	1
_symmetry_cell_setting	triclinic
loop_
_symmetry_equiv_pos_as_xyz
  x,y,z
_cell_length_a	14.519731
_cell_length_b	15.995350
_cell_length_c	13.596369
_cell_angle_alpha	89.996243
_cell_angle_beta	89.994584
_cell_angle_gamma	83.590614
loop_
_atom_site_label
_atom_site_type_symbol
_atom_site_fract_x
_atom_site_fract_y
_atom_site_fract_z
O1	O	1.223657	0.109845	-0.081788
O2	O	1.556990	0.443178	0.251545
O3	O	1.890324	0.776512	0.584878
O4	O	0.955159	0.122752	-0.081789
O5	O	1.288492	0.456085	0.251544
O6	O	1.621826	0.789418	0.584877
O7	O	1.096748	-0.005578	-0.081788
O8	O	1.430081	0.327756	0.251545
O9	O	1.763414	0.661089	0.584879
O10	O	1.082068	0.238174	-0.081790
O11	O	1.415402	0.571508	0.251543
O12	O	1.748735	0.904841	0.584877
O13	O	1.096733	-0.005585	0.081795
O14	O	1.430067	0.327749	0.415128
O15	O	1.763400	0.661082	0.748462
O16	O	0.955145	0.122745	0.081794
O17	O	1.288478	0.456078	0.415127
O18	O	1.621812	0.789412	0.748460
O19	O	1.223643	0.109838	0.081794
O20	O	1.556976	0.443171	0.415128
O21	O	1.890309	0.776505	0.748461
Zn22	Zn	1.089392	0.116290	0.107766
Zn23	Zn	1.422725	0.449624	0.441100
Zn24	Zn	1.756058	0.782957	0.774433
Zn25	Zn	1.089410	0.116299	-0.107761
Zn26	Zn	1.422744	0.449633	0.225572
Zn27	Zn	1.756077	0.782966	0.558905
O28	O	1.082054	0.238168	0.081793
O29	O	1.415388	0.571501	0.415126
O30	O	1.748721	0.904834	0.748460
C31	C	0.920794	0.122144	0.000002
C32	C	1.254127	0.455477	0.333335
C33	C	1.587460	0.788810	0.666669
C34	C	0.818417	0.120331	0.000001
C35	C	1.151750	0.453665	0.333335
C36	C	1.485083	0.786998	0.666668
C37	C	0.735275	0.118859	-0.000003
C38	C	1.068609	0.452192	0.333331
C39	C	1.401942	0.785526	0.666664
C40	C	0.630970	0.117019	-0.000003
C41	C	0.964303	0.450352	0.333330
C42	C	1.297637	0.783686	0.666664
C43	C	0.547834	0.115559	-0.000003
C44	C	0.881167	0.448892	0.333330
C45	C	1.214500	0.782225	0.666664
C46	C	0.443521	0.113719	-0.000005
C47	C	0.776855	0.447052	0.333328
C48	C	1.110188	0.780385	0.666662
C49	C	1.096134	-0.036777	0.000002
C50	C	1.429467	0.296556	0.333335
C51	C	1.762800	0.629890	0.666668
C52	C	1.094314	-0.129730	-0.000004
C53	C	1.427648	0.203603	0.333329
C54	C	1.760981	0.536937	0.666663
C55	C	1.087781	-0.467488	-0.000001
C56	C	1.421114	-0.134155	0.333333
C57	C	1.754447	0.199179	0.666666
C58	C	0.986944	-0.420212	-0.000368
C59	C	1.320277	-0.086878	0.332965
C60	C	1.653611	0.246455	0.666299
C61	C	0.988764	-0.323519	0.000001
C62	C	1.322097	0.009815	0.333334
C63	C	1.655430	0.343148	0.666667
C64	C	1.091021	-0.299922	-0.000003
C65	C	1.424355	0.033411	0.333330
C66	C	1.757688	0.366744	0.666664
C67	C	1.140750	-0.340926	0.093409
C68	C	1.474083	-0.007592	0.426743
C69	C	1.807416	0.325741	0.760076
C70	C	1.138216	-0.437565	0.093488
C71	C	1.471550	-0.104232	0.426821
C72	C	1.804883	0.229101	0.760154
C73	C	1.140316	-0.437913	-0.092537
C74	C	1.473649	-0.104579	0.240797
C75	C	1.806982	0.228754	0.574130
C76	C	1.140292	-0.340967	-0.093771
C77	C	1.473625	-0.007634	0.239562
C78	C	1.806958	0.325699	0.572895
C79	C	1.092858	-0.205222	-0.000001
C80	C	1.426192	0.128111	0.333332
C81	C	1.759525	0.461445	0.666666
C82	C	1.085947	-0.562189	0.000004
C83	C	1.419280	-0.228855	0.333337
C84	C	1.752613	0.104478	0.666671
C85	C	1.258008	0.110446	0.000001
C86	C	1.591341	0.443780	0.333334
C87	C	1.924675	0.777113	0.666668
C88	C	1.360385	0.112258	-0.000005
C89	C	1.693718	0.445592	0.333328
C90	C	2.027052	0.778925	0.666662
C91	C	1.082668	0.269367	0.000001
C92	C	1.416002	0.602700	0.333335
C93	C	1.749335	0.936033	0.666668
C94	C	1.084488	0.362320	0.000000
C95	C	1.417821	0.695653	0.333334
C96	C	1.751154	1.028987	0.666667
N97	N	1.089386	0.116284	0.254858
N98	N	1.422719	0.449617	0.588191
N99	N	1.756052	0.782950	0.921525
N100	N	1.089423	0.116299	-0.254853
N101	N	1.422757	0.449633	0.078480
N102	N	1.756090	0.782966	0.411814
C103	C	1.089409	0.116300	0.656149
C104	C	1.422742	0.449634	0.989482
C105	C	1.756076	0.782967	1.322816
C106	C	1.089400	0.116299	0.544498
C107	C	1.422733	0.449632	0.877831
C108	C	1.756066	0.782965	1.211164
C109	C	1.089398	0.116293	0.455507
C110	C	1.422731	0.449626	0.788840
C111	C	1.756064	0.782959	1.122174
C112	C	1.089388	0.116290	0.343849
C113	C	1.422721	0.449623	0.677182
C114	C	1.756054	0.782956	1.010515
H115	H	0.946646	-0.438804	-0.067356
H116	H	1.279980	-0.105471	0.265978
H117	H	1.613313	0.227863	0.599311
H118	H	1.101943	-0.455927	0.163317
H119	H	1.435276	-0.122593	0.496651
H120	H	1.768609	0.210740	0.829984
H121	H	1.212249	-0.469698	0.097723
H122	H	1.545582	-0.136364	0.431057
H123	H	1.878916	0.196969	0.764390
N124	N	1.097423	-0.305406	0.180631
N125	N	1.430756	0.027927	0.513965
N126	N	1.764089	0.361260	0.847298
N127	N	1.143327	-0.268204	0.241074
N128	N	1.476661	0.065130	0.574407
N129	N	1.809994	0.398463	0.907741
H130	H	1.112724	-0.243119	0.302674
H131	H	1.446057	0.090214	0.636007
H132	H	1.779391	0.423548	0.969340
N133	N	0.939717	-0.287915	-0.083986
N134	N	1.273051	0.045418	0.249347
N135	N	1.606384	0.378752	0.582681
N136	N	0.932668	-0.210239	-0.098078
N137	N	1.266002	0.123094	0.235256
N138	N	1.599335	0.456427	0.568589
H139	H	0.898025	-0.185095	-0.157394
H140	H	1.231358	0.148238	0.175939
H141	H	1.564691	0.481571	0.509272
N142	N	1.234990	-0.323051	0.097801
N143	N	1.568323	0.010282	0.431134
N144	N	1.901657	0.343615	0.764468
N145	N	1.285703	-0.350690	0.167475
N146	N	1.619036	-0.017357	0.500809
N147	N	1.952369	0.315977	0.834142
H148	H	1.352260	-0.338063	0.170580
H149	H	1.685593	-0.004729	0.503913
H150	H	2.018926	0.328604	0.837246
H151	H	1.107353	-0.458501	-0.163338
H152	H	1.440687	-0.125168	0.169996
H153	H	1.774020	0.208166	0.503329
H154	H	1.214863	-0.325488	-0.099414
H155	H	1.548196	0.007845	0.233919
H156	H	1.881530	0.341179	0.567253
N157	N	1.094733	-0.306787	-0.180459
N158	N	1.428066	0.026546	0.152875
N159	N	1.761399	0.359880	0.486208
N160	N	1.026231	-0.252398	-0.173284
N161	N	1.359565	0.080935	0.160049
N162	N	1.692898	0.414269	0.493382
H163	H	0.994052	-0.228253	-0.234506
H164	H	1.327385	0.105080	0.098828
H165	H	1.660719	0.438414	0.432161
N166	N	0.936606	-0.444881	0.083199
N167	N	1.269939	-0.111547	0.416533
N168	N	1.603273	0.221786	0.749866
N169	N	0.974673	-0.497128	0.143025
N170	N	1.308007	-0.163795	0.476359
N171	N	1.641340	0.169539	0.809692
H172	H	0.939125	-0.514553	0.202047
H173	H	1.272458	-0.181220	0.535380
H174	H	1.605792	0.152114	0.868713
N175	N	1.233584	-0.477602	-0.093310
N176	N	1.566918	-0.144269	0.240023
N177	N	1.900251	0.189065	0.573357
N178	N	1.261352	-0.527465	-0.026078
N179	N	1.594686	-0.194131	0.307255
N180	N	1.928019	0.139202	0.640588
H181	H	1.327222	-0.555496	-0.026613
H182	H	1.660556	-0.222162	0.306720
H183	H	1.993889	0.111171	0.640053
H184	H	0.949399	-0.295718	0.067076
H185	H	1.282732	0.037615	0.400410
H186	H	1.616066	0.370948	0.733743
