data_functionalizedCrystal
_audit_creation_method	'MofGen! by Chris Wilmer'
_symmetry_space_group_name_H-M	'P1'
_symmetry_Int_Tables_number	1
_symmetry_cell_setting	triclinic
loop_
_symmetry_equiv_pos_as_xyz
  x,y,z
_cell_length_a	17.077404
_cell_length_b	21.395362
_cell_length_c	17.077396
_cell_angle_alpha	90.032289
_cell_angle_beta	90.019777
_cell_angle_gamma	90.025177
loop_
_atom_site_label
_atom_site_type_symbol
_atom_site_fract_x
_atom_site_fract_y
_atom_site_fract_z
Zn1	Zn	1.200017	-0.249516	0.443828
Zn2	Zn	1.700017	0.250484	0.943828
Zn3	Zn	1.199908	-0.354297	0.312553
Zn4	Zn	1.699908	0.145703	0.812553
Zn5	Zn	1.068749	-0.249529	0.312575
Zn6	Zn	1.568749	0.250471	0.812575
Zn7	Zn	1.068701	-0.354251	0.443776
Zn8	Zn	1.568701	0.145749	0.943776
O9	O	1.134344	-0.301898	0.378183
O10	O	1.634344	0.198102	0.878183
O11	O	1.309849	-0.263429	0.426426
O12	O	1.809849	0.236571	0.926426
O13	O	1.182484	-0.340424	0.202709
O14	O	1.682484	0.159576	0.702709
O15	O	1.086227	-0.161849	0.330017
O16	O	1.586227	0.338151	0.830017
O17	O	1.309770	-0.340411	0.329979
O18	O	1.809770	0.159589	0.829979
O19	O	1.182669	-0.161840	0.426448
O20	O	1.682669	0.338160	0.926448
O21	O	1.086122	-0.263451	0.202725
O22	O	1.586122	0.236549	0.702725
O23	O	0.958895	-0.263407	0.329967
O24	O	1.458895	0.236593	0.829967
O25	O	1.086146	-0.340333	0.553630
O26	O	1.586146	0.159667	1.053630
O27	O	0.958860	-0.340346	0.426359
O28	O	1.458860	0.159654	0.926359
O29	O	1.182623	-0.263384	0.553668
O30	O	1.682623	0.236616	1.053668
O31	O	1.182438	-0.441969	0.329929
O32	O	1.682438	0.058031	0.829929
O33	O	1.086040	-0.441935	0.426338
O34	O	1.586040	0.058065	0.926338
C35	C	0.930396	-0.301873	0.378160
C36	C	1.430396	0.198127	0.878160
C37	C	0.843146	-0.301877	0.378169
C38	C	1.343146	0.198123	0.878169
C39	C	0.467334	-0.342050	0.428318
C40	C	0.967334	0.157950	0.928318
C41	C	0.549314	-0.342042	0.428306
C42	C	1.049314	0.157958	0.928306
C43	C	0.590297	-0.301915	0.378195
C44	C	1.090297	0.198085	0.878195
C45	C	0.549295	-0.261798	0.328088
C46	C	1.049295	0.238202	0.828088
C47	C	0.467316	-0.261810	0.328096
C48	C	0.967316	0.238190	0.828096
C49	C	0.720165	-0.261775	0.328075
C50	C	1.220165	0.238225	0.828075
C51	C	0.802150	-0.261762	0.328067
C52	C	1.302150	0.238238	0.828067
C53	C	0.802163	-0.342007	0.428285
C54	C	1.302163	0.157993	0.928285
C55	C	0.720184	-0.342019	0.428293
C56	C	1.220184	0.157981	0.928293
C57	C	0.679188	-0.301901	0.378186
C58	C	1.179188	0.198099	0.878186
C59	C	1.134243	-0.464686	0.378143
C60	C	1.634243	0.035314	0.878143
C61	C	1.134272	-0.534327	0.378152
C62	C	1.634272	-0.034327	0.878152
C63	C	1.184461	-0.566978	0.428399
C64	C	1.684461	-0.066978	0.928399
C65	C	1.184488	-0.632414	0.428418
C66	C	1.684488	-0.132414	0.928418
C67	C	1.134336	-0.665195	0.378176
C68	C	1.634336	-0.165195	0.878176
C69	C	1.084137	-0.632536	0.327925
C70	C	1.584137	-0.132536	0.827925
C71	C	1.084106	-0.567102	0.327913
C72	C	1.584106	-0.067102	0.827913
C73	C	1.128232	-0.768907	0.307467
C74	C	1.628232	-0.268907	0.807467
C75	C	1.128269	-0.834340	0.307478
C76	C	1.628269	-0.334340	0.807478
C77	C	1.134429	-0.867016	0.378214
C78	C	1.634429	-0.367016	0.878214
C79	C	1.140568	-0.834251	0.448941
C80	C	1.640568	-0.334251	0.948941
C81	C	1.140536	-0.768817	0.448929
C82	C	1.640536	-0.268817	0.948929
C83	C	1.134364	-0.736148	0.378184
C84	C	1.634364	-0.236148	0.878184
C85	C	1.184650	-0.970620	0.428486
C86	C	1.684650	-0.470620	0.928486
C87	C	1.184672	-1.036056	0.428507
C88	C	1.684672	-0.536056	0.928507
C89	C	1.084325	-1.036178	0.328007
C90	C	1.584325	-0.536178	0.828007
C91	C	1.084299	-0.970742	0.327993
C92	C	1.584299	-0.470742	0.827993
C93	C	1.134466	-0.937967	0.378232
C94	C	1.634466	-0.437967	0.878232
C95	C	1.339088	-0.301924	0.378206
C96	C	1.839088	0.198076	0.878206
C97	C	1.426338	-0.301935	0.378216
C98	C	1.926338	0.198065	0.878216
C99	C	1.134391	-0.301852	0.582927
C100	C	1.634391	0.198148	1.082927
C101	C	1.134411	-0.301832	0.670177
C102	C	1.634411	0.198168	1.170177
C103	C	1.134466	-0.138475	0.378240
C104	C	1.634466	0.361525	0.878240
C105	C	1.134518	-0.068834	0.378265
C106	C	1.634518	0.431166	0.878265
C107	C	1.134342	-0.301899	0.174235
C108	C	1.634342	0.198101	0.674235
C109	C	1.134473	-0.301742	0.086986
C110	C	1.634473	0.198258	0.586986
C111	C	1.184649	-0.261762	0.711188
C112	C	1.684649	0.238238	1.211188
C113	C	1.184658	-0.261741	0.793169
C114	C	1.684658	0.238259	1.293169
C115	C	1.134434	-0.301794	0.834137
C116	C	1.634434	0.198206	1.334137
C117	C	1.084191	-0.341866	0.793120
C118	C	1.584191	0.158134	1.293120
C119	C	1.084178	-0.341884	0.711141
C120	C	1.584178	0.158116	1.211141
C121	C	1.084222	-0.341829	0.963990
C122	C	1.584222	0.158171	1.463990
C123	C	1.084236	-0.341812	1.045974
C124	C	1.584236	0.158188	1.545974
C125	C	1.184703	-0.261686	1.046018
C126	C	1.684703	0.238314	1.546018
C127	C	1.184690	-0.261703	0.964039
C128	C	1.684690	0.238297	1.464039
C129	C	1.134448	-0.301776	0.923028
C130	C	1.634448	0.198224	1.423028
H131	H	0.686789	-0.229105	0.287274
H132	H	1.186789	0.270895	0.787274
H133	H	1.225592	-0.229092	0.930685
H134	H	1.725592	0.270908	1.430685
H135	H	1.145586	-0.860855	0.506542
H136	H	1.645586	-0.360855	1.006542
H137	H	1.043294	-0.374476	0.826482
H138	H	1.543294	0.125524	1.326482
H139	H	0.433972	-0.374722	0.469129
H140	H	0.933972	0.125278	0.969129
H141	H	1.043261	-0.374507	0.677750
H142	H	1.543261	0.125493	1.177750
F143	F	1.121741	-0.869204	0.232204
F144	F	1.621741	-0.369204	0.732204
F145	F	0.845795	-0.384695	0.481623
F146	F	1.345795	0.115305	0.981623
H147	H	0.686818	-0.374691	0.469101
H148	H	1.186818	0.125309	0.969101
H149	H	0.835516	-0.229081	0.287270
H150	H	1.335516	0.270919	0.787270
F151	F	1.030775	-0.384436	1.089574
F152	F	1.530775	0.115564	1.589574
F153	F	0.592914	-0.219094	0.274753
F154	F	1.092914	0.280906	0.774753
F155	F	0.592942	-0.384739	0.481630
F156	F	1.092942	0.115261	0.981630
H157	H	1.123212	-0.742307	0.249861
H158	H	1.623212	-0.242307	0.749861
H159	H	1.043297	-0.374451	0.930601
H160	H	1.543297	0.125549	1.430601
F161	F	1.237849	-0.532100	0.481872
F162	F	1.737849	-0.032100	0.981872
F163	F	0.423685	-0.219116	0.274767
F164	F	0.923685	0.280884	0.774767
F165	F	1.237912	-0.667170	0.481897
F166	F	1.737912	-0.167170	0.981897
H167	H	1.043485	-1.062868	0.287104
H168	H	1.543485	-0.562868	0.787104
F169	F	1.030881	-0.935991	0.274512
F170	F	1.530881	-0.435991	0.774512
F171	F	1.147066	-0.733949	0.524200
F172	F	1.647066	-0.233949	1.024200
F173	F	1.238038	-0.935736	0.481956
F174	F	1.738038	-0.435736	0.981956
F175	F	1.238085	-1.070806	0.481998
F176	F	1.738085	-0.570806	0.981998
H177	H	1.043301	-0.659231	0.287019
H178	H	1.543301	-0.159231	0.787019
H179	H	1.043235	-0.540517	0.286995
H180	H	1.543235	-0.040517	0.786995
F181	F	1.238110	-0.219134	0.667595
F182	F	1.738110	0.280866	1.167595
H183	H	1.225569	-0.229113	0.826557
H184	H	1.725569	0.270887	1.326557
H185	H	1.225611	-0.229056	1.079413
H186	H	1.725611	0.270944	1.579413
