data_functionalizedCrystal
_audit_creation_method	'MofGen! by Chris Wilmer'
_symmetry_space_group_name_H-M	'P1'
_symmetry_Int_Tables_number	1
_symmetry_cell_setting	triclinic
loop_
_symmetry_equiv_pos_as_xyz
  x,y,z
_cell_length_a	15.995350
_cell_length_b	11.026607
_cell_length_c	10.065875
_cell_angle_alpha	100.697662
_cell_angle_beta	98.791555
_cell_angle_gamma	83.960804
loop_
_atom_site_label
_atom_site_type_symbol
_atom_site_fract_x
_atom_site_fract_y
_atom_site_fract_z
O1	O	0.340991	-1.627917	-0.113481
O2	O	0.674324	-1.294583	0.219853
O3	O	1.007657	-0.961250	0.553186
O4	O	0.301065	-1.274611	-0.113484
O5	O	0.634399	-0.941278	0.219849
O6	O	0.967732	-0.607944	0.553183
O7	O	0.200596	-1.460922	-0.113481
O8	O	0.533930	-1.127588	0.219852
O9	O	0.867263	-0.794255	0.553186
O10	O	0.441460	-1.441606	-0.113484
O11	O	0.774793	-1.108273	0.219850
O12	O	1.108127	-0.774940	0.553183
O13	O	0.219853	-1.425395	0.113507
O14	O	0.553186	-1.092061	0.446841
O15	O	0.886519	-0.758728	0.780174
O16	O	0.320322	-1.239084	0.113504
O17	O	0.653655	-0.905751	0.446838
O18	O	0.986988	-0.572418	0.780171
O19	O	0.360247	-1.592390	0.113508
O20	O	0.693581	-1.259057	0.446841
O21	O	1.026914	-0.925723	0.780174
Zn22	Zn	0.343342	-1.410096	0.149545
Zn23	Zn	0.676675	-1.076763	0.482878
Zn24	Zn	1.010009	-0.743430	0.816212
Zn25	Zn	0.317971	-1.456905	-0.149522
Zn26	Zn	0.651304	-1.123571	0.183812
Zn27	Zn	0.984637	-0.790238	0.517145
O28	O	0.460716	-1.406079	0.113504
O29	O	0.794050	-1.072746	0.446838
O30	O	1.127383	-0.739413	0.780171
C31	C	0.178909	-1.442360	0.000011
C32	C	0.512242	-1.109027	0.333344
C33	C	0.845576	-0.775693	0.666677
C34	C	0.085597	-1.439967	0.000003
C35	C	0.418931	-1.106634	0.333336
C36	C	0.752264	-0.773301	0.666669
C37	C	0.303328	-1.211637	0.000010
C38	C	0.636661	-0.878304	0.333343
C39	C	0.969995	-0.544970	0.666676
C40	C	0.281371	-1.076923	0.000008
C41	C	0.614704	-0.743590	0.333341
C42	C	0.948038	-0.410256	0.666675
C43	C	0.357984	-1.655365	0.000011
C44	C	0.691318	-1.322031	0.333344
C45	C	1.024651	-0.988698	0.666678
C46	C	0.379940	-1.790080	0.000003
C47	C	0.713274	-1.456746	0.333337
C48	C	1.046607	-1.123413	0.666670
C49	C	-0.253446	-1.431369	0.000007
C50	C	0.079888	-1.098036	0.333341
C51	C	0.413221	-0.764702	0.666674
C52	C	-0.226055	-1.298762	-0.000503
C53	C	0.107279	-0.965428	0.332830
C54	C	0.440612	-0.632095	0.666164
C55	C	-0.128960	-1.301076	0.000009
C56	C	0.204373	-0.967743	0.333342
C57	C	0.537707	-0.634409	0.666675
C58	C	-0.085243	-1.435634	0.000004
C59	C	0.248091	-1.102301	0.333338
C60	C	0.581424	-0.768967	0.666671
C61	C	-0.105459	-1.480793	0.129624
C62	C	0.227874	-1.147459	0.462957
C63	C	0.561207	-0.814126	0.796291
C64	C	-0.202588	-1.477442	0.129732
C65	C	0.130745	-1.144109	0.463066
C66	C	0.464078	-0.810776	0.796399
C67	C	-0.224432	-1.520584	-0.128396
C68	C	0.108902	-1.187251	0.204938
C69	C	0.442235	-0.853918	0.538271
C70	C	-0.127636	-1.520821	-0.130109
C71	C	0.205697	-1.187487	0.203225
C72	C	0.539030	-0.854154	0.536558
C73	C	0.009819	-1.438051	0.000007
C74	C	0.343153	-1.104717	0.333340
C75	C	0.676486	-0.771384	0.666674
C76	C	-0.348507	-1.428955	0.000014
C77	C	-0.015173	-1.095621	0.333347
C78	C	0.318160	-0.762288	0.666680
C79	C	0.482403	-1.424641	0.000010
C80	C	0.815737	-1.091308	0.333343
C81	C	1.149070	-0.757975	0.666677
C82	C	0.575714	-1.427036	0.000009
C83	C	0.909048	-1.093702	0.333342
C84	C	1.242381	-0.760369	0.666675
N85	N	0.360658	-1.378160	0.353650
N86	N	0.693991	-1.044827	0.686984
N87	N	1.027325	-0.711493	1.020317
C88	C	0.341997	-1.003118	0.000007
C89	C	0.675331	-0.669784	0.333340
C90	C	1.008664	-0.336451	0.666673
C91	C	0.319305	-0.863884	0.000005
C92	C	0.652639	-0.530550	0.333338
C93	C	0.985972	-0.197217	0.666672
N94	N	0.300649	-1.488851	-0.353627
N95	N	0.633983	-1.155517	-0.020293
N96	N	0.967316	-0.822184	0.313040
C97	C	0.323989	-1.445785	0.421430
C98	C	0.657322	-1.112452	0.754763
C99	C	0.990656	-0.779119	1.088097
C100	C	0.337324	-1.421215	0.578597
C101	C	0.670657	-1.087882	0.911930
C102	C	1.003990	-0.754549	1.245264
H103	H	-0.116175	-1.264174	-0.092908
H104	H	0.217159	-0.930841	0.240426
H105	H	0.550492	-0.597507	0.573759
F106	F	0.469750	-0.842203	0.000019
F107	F	0.803083	-0.508870	0.333352
F108	F	1.136416	-0.175536	0.666686
F109	F	0.431801	-1.055251	0.000010
F110	F	0.765134	-0.721918	0.333343
F111	F	1.098467	-0.388585	0.666677
F112	F	0.191569	-1.024787	0.000018
F113	F	0.524902	-0.691454	0.333351
F114	F	0.858236	-0.358121	0.666685
H115	H	0.250594	-0.824003	-0.000029
H116	H	0.583927	-0.490670	0.333304
H117	H	0.917261	-0.157337	0.666637
H118	H	-0.075746	-1.420240	0.226085
H119	H	0.257587	-1.086906	0.559418
H120	H	0.590921	-0.753573	0.892752
F121	F	-0.246770	-1.648633	-0.129542
F122	F	0.086564	-1.315299	0.203792
F123	F	0.419897	-0.981966	0.537125
H124	H	0.282719	-1.521868	0.363107
H125	H	0.616053	-1.188534	0.696440
H126	H	0.949386	-0.855201	1.029774
H127	H	0.378589	-1.345120	0.636917
H128	H	0.711922	-1.011786	0.970250
H129	H	1.045255	-0.678453	1.303583
F130	F	0.414591	-1.278702	0.429880
F131	F	0.747925	-0.945368	0.763213
F132	F	1.081258	-0.612035	1.096546
H133	H	-0.260465	-1.260276	-0.093456
H134	H	0.072868	-0.926943	0.239878
H135	H	0.406201	-0.593609	0.573211
F136	F	-0.252154	-1.210714	0.119983
F137	F	0.081179	-0.877380	0.453316
F138	F	0.414513	-0.544047	0.786650
H139	H	-0.101006	-1.234718	0.093083
H140	H	0.232328	-0.901385	0.426416
H141	H	0.565661	-0.568051	0.759749
F142	F	-0.225171	-1.395238	0.256378
F143	F	0.108163	-1.061905	0.589711
F144	F	0.441496	-0.728571	0.923045
F145	F	-0.224897	-1.603565	0.137430
F146	F	0.108437	-1.270232	0.470763
F147	F	0.441770	-0.936899	0.804096
H148	H	-0.098149	-1.620171	-0.137938
H149	H	0.235185	-1.286838	0.195395
H150	H	0.568518	-0.953504	0.528729
F151	F	0.246878	-1.588511	0.570152
F152	F	0.580211	-1.255178	0.903485
F153	F	0.913545	-0.921845	1.236819
H154	H	-0.259845	-1.492579	-0.226640
H155	H	0.073489	-1.159246	0.106694
H156	H	0.406822	-0.825912	0.440027
H157	H	-0.115735	-1.487979	-0.225998
H158	H	0.217599	-1.154646	0.107336
H159	H	0.550932	-0.821313	0.440669
F160	F	-0.066988	-1.609019	0.135926
F161	F	0.266346	-1.275685	0.469259
F162	F	0.599679	-0.942352	0.802592
