data_functionalizedCrystal
_audit_creation_method	'MofGen! by Chris Wilmer'
_symmetry_space_group_name_H-M	'P1'
_symmetry_Int_Tables_number	1
_symmetry_cell_setting	triclinic
loop_
_symmetry_equiv_pos_as_xyz
  x,y,z
_cell_length_a	18.050591
_cell_length_b	16.625546
_cell_length_c	18.050582
_cell_angle_alpha	89.976222
_cell_angle_beta	89.979078
_cell_angle_gamma	90.018474
loop_
_atom_site_label
_atom_site_type_symbol
_atom_site_fract_x
_atom_site_fract_y
_atom_site_fract_z
Zn1	Zn	1.135322	-0.321139	-0.420025
Zn2	Zn	1.385322	-0.071139	-0.170025
Zn3	Zn	1.635322	0.178861	0.079975
Zn4	Zn	1.885322	0.428861	0.329975
Zn5	Zn	1.135245	-0.455966	-0.295833
Zn6	Zn	1.385245	-0.205966	-0.045833
Zn7	Zn	1.635245	0.044034	0.204167
Zn8	Zn	1.885245	0.294034	0.454167
Zn9	Zn	1.011141	-0.321142	-0.295836
Zn10	Zn	1.261141	-0.071142	-0.045836
Zn11	Zn	1.511141	0.178858	0.204164
Zn12	Zn	1.761141	0.428858	0.454164
Zn13	Zn	1.011102	-0.455924	-0.419968
Zn14	Zn	1.261102	-0.205924	-0.169968
Zn15	Zn	1.511102	0.044076	0.080032
Zn16	Zn	1.761102	0.294076	0.330032
O17	O	1.073203	-0.388543	-0.357916
O18	O	1.323203	-0.138543	-0.107916
O19	O	1.573203	0.111457	0.142084
O20	O	1.823203	0.361457	0.392084
O21	O	1.239237	-0.339040	-0.403573
O22	O	1.489237	-0.089040	-0.153573
O23	O	1.739237	0.160960	0.096427
O24	O	1.989237	0.410960	0.346427
O25	O	1.118767	-0.438101	-0.191908
O26	O	1.368767	-0.188101	0.058092
O27	O	1.618767	0.061899	0.308092
O28	O	1.868767	0.311899	0.558092
O29	O	1.027663	-0.208309	-0.312336
O30	O	1.277663	0.041691	-0.062336
O31	O	1.527663	0.291691	0.187664
O32	O	1.777663	0.541691	0.437664
O33	O	1.239180	-0.438098	-0.312329
O34	O	1.489180	-0.188098	-0.062329
O35	O	1.739180	0.061902	0.187671
O36	O	1.989180	0.311902	0.437671
O37	O	1.118898	-0.208307	-0.403577
O38	O	1.368898	0.041693	-0.153577
O39	O	1.618898	0.291693	0.096423
O40	O	1.868898	0.541693	0.346423
O41	O	1.027588	-0.339046	-0.191911
O42	O	1.277588	-0.089046	0.058089
O43	O	1.527588	0.160954	0.308089
O44	O	1.777588	0.410954	0.558089
O45	O	0.907212	-0.339005	-0.312280
O46	O	1.157212	-0.089005	-0.062280
O47	O	1.407212	0.160995	0.187720
O48	O	1.657212	0.410995	0.437720
O49	O	1.027596	-0.438025	-0.523900
O50	O	1.277596	-0.188025	-0.273900
O51	O	1.527596	0.061975	-0.023900
O52	O	1.777596	0.311975	0.226100
O53	O	0.907183	-0.438028	-0.403479
O54	O	1.157183	-0.188028	-0.153479
O55	O	1.407183	0.061972	0.096521
O56	O	1.657183	0.311972	0.346521
O57	O	1.118860	-0.338999	-0.523942
O58	O	1.368860	-0.088999	-0.273942
O59	O	1.618860	0.161001	-0.023942
O60	O	1.868860	0.411001	0.226058
O61	O	1.118729	-0.568793	-0.312274
O62	O	1.368729	-0.318793	-0.062274
O63	O	1.618729	-0.068793	0.187726
O64	O	1.868729	0.181207	0.437726
O65	O	1.027521	-0.568762	-0.403476
O66	O	1.277521	-0.318762	-0.153476
O67	O	1.527521	-0.068762	0.096524
O68	O	1.777521	0.181238	0.346524
C69	C	1.073132	-0.598034	-0.357884
C70	C	1.323132	-0.348034	-0.107884
C71	C	1.573132	-0.098034	0.142116
C72	C	1.823132	0.151966	0.392116
C73	C	1.073170	-0.687655	-0.357896
C74	C	1.323170	-0.437655	-0.107896
C75	C	1.573170	-0.187655	0.142104
C76	C	1.823170	0.062345	0.392104
C77	C	0.880251	-0.388513	-0.357874
C78	C	1.130251	-0.138513	-0.107874
C79	C	1.380251	0.111487	0.142126
C80	C	1.630251	0.361487	0.392126
C81	C	0.797705	-0.388519	-0.357875
C82	C	1.047705	-0.138519	-0.107875
C83	C	1.297705	0.111481	0.142125
C84	C	1.547705	0.361481	0.392125
C85	C	1.073300	-1.015830	-0.357973
C86	C	1.323300	-0.765830	-0.107973
C87	C	1.573300	-0.515830	0.142027
C88	C	1.823300	-0.265830	0.392027
C89	C	1.073261	-0.924522	-0.357954
C90	C	1.323261	-0.674522	-0.107954
C91	C	1.573261	-0.424522	0.142046
C92	C	1.823261	-0.174522	0.392046
C93	C	1.073235	-0.851745	-0.357934
C94	C	1.323235	-0.601745	-0.107934
C95	C	1.573235	-0.351745	0.142066
C96	C	1.823235	-0.101745	0.392066
C97	C	1.073197	-0.760431	-0.357916
C98	C	1.323197	-0.510431	-0.107916
C99	C	1.573197	-0.260431	0.142084
C100	C	1.823197	-0.010431	0.392084
C101	C	0.598248	-0.334608	-0.308395
C102	C	0.848248	-0.084608	-0.058395
C103	C	1.098248	0.165392	0.191605
C104	C	1.348248	0.415392	0.441605
C105	C	0.548836	-0.408150	-0.290117
C106	C	0.798836	-0.158150	-0.040117
C107	C	1.048836	0.091850	0.209883
C108	C	1.298836	0.341850	0.459883
C109	C	0.646574	-0.388544	-0.357908
C110	C	0.896574	-0.138544	-0.107908
C111	C	1.146574	0.111456	0.142092
C112	C	1.396574	0.361456	0.392092
C113	C	0.548906	-0.315027	-0.376184
C114	C	0.798906	-0.065027	-0.126184
C115	C	1.048906	0.184973	0.123816
C116	C	1.298906	0.434973	0.373816
C117	C	0.500589	-0.388561	-0.357939
C118	C	0.750589	-0.138561	-0.107939
C119	C	1.000589	0.111439	0.142061
C120	C	1.250589	0.361439	0.392061
C121	C	0.598249	-0.462124	-0.339595
C122	C	0.848249	-0.212124	-0.089595
C123	C	1.098249	0.037876	0.160405
C124	C	1.348249	0.287876	0.410405
C125	C	0.598323	-0.368952	-0.425693
C126	C	0.848323	-0.118952	-0.175693
C127	C	1.098323	0.131048	0.074307
C128	C	1.348323	0.381048	0.324307
C129	C	0.548933	-0.442545	-0.407441
C130	C	0.798933	-0.192545	-0.157441
C131	C	1.048933	0.057455	0.092559
C132	C	1.298933	0.307455	0.342559
C133	C	0.730673	-0.388533	-0.357888
C134	C	0.980673	-0.138533	-0.107888
C135	C	1.230673	0.111467	0.142112
C136	C	1.480673	0.361467	0.392112
C137	C	0.416493	-0.388580	-0.357959
C138	C	0.666493	-0.138580	-0.107959
C139	C	0.916493	0.111420	0.142041
C140	C	1.166493	0.361420	0.392041
C141	C	1.266908	-0.388573	-0.357957
C142	C	1.516908	-0.138573	-0.107957
C143	C	1.766908	0.111427	0.142043
C144	C	2.016908	0.361427	0.392043
C145	C	1.349454	-0.388586	-0.357975
C146	C	1.599454	-0.138586	-0.107975
C147	C	1.849454	0.111414	0.142025
C148	C	2.099454	0.361414	0.392025
C149	C	1.073232	-0.388507	-0.551621
C150	C	1.323232	-0.138507	-0.301621
C151	C	1.573232	0.111493	-0.051621
C152	C	1.823232	0.361493	0.198379
C153	C	1.073244	-0.388492	-0.634167
C154	C	1.323244	-0.138492	-0.384167
C155	C	1.573244	0.111508	-0.134167
C156	C	1.823244	0.361508	0.115833
C157	C	1.073294	-0.178234	-0.357963
C158	C	1.323294	0.071766	-0.107963
C159	C	1.573294	0.321766	0.142037
C160	C	1.823294	0.571766	0.392037
C161	C	1.073332	-0.088613	-0.357983
C162	C	1.323332	0.161387	-0.107983
C163	C	1.573332	0.411387	0.142017
C164	C	1.823332	0.661387	0.392017
C165	C	1.023653	-0.442268	-0.833595
C166	C	1.273653	-0.192268	-0.583595
C167	C	1.523653	0.057732	-0.333595
C168	C	1.773653	0.307732	-0.083595
C169	C	1.091410	-0.461983	-0.882993
C170	C	1.341410	-0.211983	-0.632993
C171	C	1.591410	0.038017	-0.382993
C172	C	1.841410	0.288017	-0.132993
C173	C	1.073281	-0.388430	-0.785297
C174	C	1.323281	-0.138430	-0.535297
C175	C	1.573281	0.111570	-0.285297
C176	C	1.823281	0.361570	-0.035297
C177	C	1.005561	-0.368693	-0.882981
C178	C	1.255561	-0.118693	-0.632981
C179	C	1.505561	0.131307	-0.382981
C180	C	1.755561	0.381307	-0.132981
C181	C	1.073310	-0.388372	-0.931283
C182	C	1.323310	-0.138372	-0.681283
C183	C	1.573310	0.111628	-0.431283
C184	C	1.823310	0.361628	-0.181283
C185	C	1.141073	-0.408183	-0.833608
C186	C	1.391073	-0.158183	-0.583608
C187	C	1.641073	0.091817	-0.333608
C188	C	1.891073	0.341817	-0.083608
C189	C	1.055179	-0.314859	-0.833592
C190	C	1.305179	-0.064859	-0.583592
C191	C	1.555179	0.185141	-0.333592
C192	C	1.805179	0.435141	-0.083592
C193	C	1.122983	-0.334546	-0.882968
C194	C	1.372983	-0.084546	-0.632968
C195	C	1.622983	0.165454	-0.382968
C196	C	1.872983	0.415454	-0.132968
C197	C	1.073263	-0.388466	-0.701199
C198	C	1.323263	-0.138466	-0.451199
C199	C	1.573263	0.111534	-0.201199
C200	C	1.823263	0.361534	0.048801
C201	C	1.073336	-0.388337	-1.015379
C202	C	1.323336	-0.138337	-0.765379
C203	C	1.573336	0.111663	-0.515379
C204	C	1.823336	0.361663	-0.265379
C205	C	1.073216	-0.388520	-0.164963
C206	C	1.323216	-0.138520	0.085037
C207	C	1.573216	0.111480	0.335037
C208	C	1.823216	0.361480	0.585037
C209	C	1.073348	-0.388308	-0.082418
C210	C	1.323348	-0.138308	0.167582
C211	C	1.573348	0.111692	0.417582
C212	C	1.823348	0.361692	0.667582
H213	H	0.619902	-0.289045	-0.266477
H214	H	0.869902	-0.039045	-0.016477
H215	H	1.119902	0.210955	0.233523
H216	H	1.369902	0.460955	0.483523
H217	H	1.165013	-0.288992	-0.904509
H218	H	1.415013	-0.038992	-0.654509
H219	H	1.665013	0.211008	-0.404509
H220	H	1.915013	0.461008	-0.154509
H221	H	0.620077	-0.352347	-0.482987
H222	H	0.870077	-0.102347	-0.232987
H223	H	1.120077	0.147653	0.017013
H224	H	1.370077	0.397653	0.267013
H225	H	0.619833	-0.524322	-0.324087
H226	H	0.869833	-0.274322	-0.074087
H227	H	1.119833	-0.024322	0.175913
H228	H	1.369833	0.225678	0.425913
N229	N	0.933701	-0.347765	-0.910174
N230	N	1.183701	-0.097765	-0.660174
N231	N	1.433701	0.152235	-0.410174
N232	N	1.683701	0.402235	-0.160174
N233	N	0.905572	-0.281520	-0.893450
N234	N	1.155572	-0.031520	-0.643450
N235	N	1.405572	0.218480	-0.393450
N236	N	1.655572	0.468480	-0.143450
H237	H	0.854819	-0.266744	-0.912652
H238	H	1.104819	-0.016744	-0.662652
H239	H	1.354819	0.233256	-0.412652
H240	H	1.604819	0.483256	-0.162652
N241	N	1.035919	-0.236861	-0.806355
N242	N	1.285919	0.013139	-0.556355
N243	N	1.535919	0.263139	-0.306355
N244	N	1.785919	0.513139	-0.056355
N245	N	0.974445	-0.206820	-0.822144
N246	N	1.224445	0.043180	-0.572144
N247	N	1.474445	0.293180	-0.322144
N248	N	1.724445	0.543180	-0.072144
H249	H	0.960835	-0.151732	-0.802908
H250	H	1.210835	0.098268	-0.552908
H251	H	1.460835	0.348268	-0.302908
H252	H	1.710835	0.598268	-0.052908
H253	H	1.106738	-0.524176	-0.904692
H254	H	1.356738	-0.274176	-0.654692
H255	H	1.606738	-0.024176	-0.404692
H256	H	1.856738	0.225824	-0.154692
N257	N	0.521564	-0.428939	-0.218220
N258	N	0.771564	-0.178939	0.031780
N259	N	1.021564	0.071061	0.281780
N260	N	1.271564	0.321061	0.531780
N261	N	0.481049	-0.380904	-0.183649
N262	N	0.731049	-0.130904	0.066351
N263	N	0.981049	0.119096	0.316351
N264	N	1.231049	0.369096	0.566351
H265	H	0.461792	-0.395580	-0.132869
H266	H	0.711792	-0.145580	0.117131
H267	H	0.961792	0.104420	0.367131
H268	H	1.211792	0.354420	0.617131
N269	N	0.521945	-0.499843	-0.459985
N270	N	0.771945	-0.249843	-0.209985
N271	N	1.021945	0.000157	0.040015
N272	N	1.271945	0.250157	0.290015
N273	N	0.537913	-0.572611	-0.453062
N274	N	0.787913	-0.322611	-0.203062
N275	N	1.037913	-0.072611	0.046938
N276	N	1.287913	0.177389	0.296938
H277	H	0.518853	-0.613081	-0.490168
H278	H	0.768853	-0.363081	-0.240168
H279	H	1.018853	-0.113081	0.009832
H280	H	1.268853	0.136919	0.259832
H281	H	0.981723	-0.487857	-0.811917
H282	H	1.231723	-0.237857	-0.561917
H283	H	1.481723	0.012143	-0.311917
H284	H	1.731723	0.262143	-0.061917
N285	N	0.521714	-0.237023	-0.395551
N286	N	0.771714	0.012977	-0.145551
N287	N	1.021714	0.262977	0.104449
N288	N	1.271714	0.512977	0.354449
N289	N	0.537523	-0.177577	-0.356233
N290	N	0.787523	0.072423	-0.106233
N291	N	1.037523	0.322423	0.143767
N292	N	1.287523	0.572423	0.393767
H293	H	0.518320	-0.122484	-0.369905
H294	H	0.768320	0.127516	-0.119905
H295	H	1.018320	0.377516	0.130095
H296	H	1.268320	0.627516	0.380095
H297	H	1.198372	-0.424923	-0.812011
H298	H	1.448372	-0.174923	-0.562011
H299	H	1.698372	0.075077	-0.312011
H300	H	1.948372	0.325077	-0.062011
