data_functionalizedCrystal
_audit_creation_method	'MofGen! by Chris Wilmer'
_symmetry_space_group_name_H-M	'P1'
_symmetry_Int_Tables_number	1
_symmetry_cell_setting	triclinic
loop_
_symmetry_equiv_pos_as_xyz
  x,y,z
_cell_length_a	12.759401
_cell_length_b	29.839132
_cell_length_c	12.759393
_cell_angle_alpha	90.038395
_cell_angle_beta	89.980883
_cell_angle_gamma	89.954459
loop_
_atom_site_label
_atom_site_type_symbol
_atom_site_fract_x
_atom_site_fract_y
_atom_site_fract_z
Zn1	Zn	1.606038	0.178831	-0.593920
Zn2	Zn	1.605837	0.253967	-0.418214
Zn3	Zn	1.430338	0.178853	-0.418259
Zn4	Zn	1.430235	0.253935	-0.593855
O5	O	1.518112	0.216397	-0.506062
O6	O	1.753033	0.188803	-0.570620
O7	O	1.582516	0.244026	-0.271199
O8	O	1.453773	0.115983	-0.441607
O9	O	1.752885	0.244005	-0.441530
O10	O	1.582859	0.115967	-0.570664
O11	O	1.453578	0.188839	-0.271232
O12	O	1.283304	0.188808	-0.441544
O13	O	1.453597	0.243950	-0.740885
O14	O	1.283228	0.243971	-0.570554
O15	O	1.582759	0.188771	-0.740933
O16	O	1.582416	0.316830	-0.441467
O17	O	1.453402	0.316807	-0.570510
C18	C	1.245145	0.216389	-0.506048
C19	C	1.128368	0.216396	-0.506067
C20	C	1.517904	0.333119	-0.506000
C21	C	1.517911	0.383054	-0.506008
C22	C	0.963763	0.245170	-0.573143
C23	C	1.073487	0.245165	-0.573132
C24	C	1.073520	0.187633	-0.439000
C25	C	0.963798	0.187641	-0.439006
C26	C	1.223374	0.298156	-0.610429
C27	C	1.278218	0.326914	-0.677505
C28	C	1.242637	0.333867	-0.779991
C29	C	1.152213	0.312056	-0.815422
C30	C	1.097374	0.283295	-0.748352
C31	C	1.132954	0.276351	-0.645851
C32	C	0.813909	0.134649	-0.401720
C33	C	0.759068	0.105885	-0.334655
C34	C	0.794647	0.098928	-0.232167
C35	C	0.885074	0.120731	-0.196740
C36	C	0.939915	0.149494	-0.263805
C37	C	0.904329	0.156452	-0.366292
C38	C	1.585337	0.692697	-0.438925
C39	C	1.585437	0.880370	-0.438948
O40	O	1.642652	0.904634	-0.381893
N41	N	1.518222	0.903839	-0.506079
C42	C	1.450982	0.880386	-0.573214
O43	O	1.393821	0.904654	-0.630321
C44	C	1.450888	0.692714	-0.573195
C45	C	1.518100	0.669248	-0.506052
C46	C	1.652545	0.669230	-0.371788
C47	C	1.652515	0.622315	-0.371779
C48	C	1.585278	0.598866	-0.438906
C49	C	1.518070	0.622332	-0.506042
C50	C	1.383654	0.669263	-0.640334
C51	C	1.383638	0.622342	-0.640325
C52	C	1.450850	0.598875	-0.573182
C53	C	1.450803	0.551968	-0.573160
N54	N	1.518018	0.528499	-0.506029
C55	C	1.585256	0.551948	-0.438902
C56	C	1.451035	0.978917	-0.573218
C57	C	1.451057	1.025835	-0.573221
C58	C	1.585514	1.025815	-0.438957
C59	C	1.585486	0.978896	-0.438949
C60	C	1.518250	0.955448	-0.506087
C61	C	1.585187	0.453422	-0.438887
C62	C	1.585149	0.406502	-0.438881
C63	C	1.450696	0.406527	-0.573148
C64	C	1.450730	0.453442	-0.573151
C65	C	1.517985	0.476889	-0.506017
O66	O	1.393627	0.527675	-0.630194
O67	O	1.642424	0.527672	-0.381820
C68	C	1.585367	0.739612	-0.438934
C69	C	1.518160	0.763079	-0.506070
C70	C	1.450922	0.739630	-0.573198
C71	C	1.518182	0.809996	-0.506074
C72	C	1.585419	0.833445	-0.438947
C73	C	1.652634	0.809976	-0.371816
C74	C	1.652604	0.763061	-0.371807
C75	C	1.383707	0.763099	-0.640328
C76	C	1.383741	0.810014	-0.640331
C77	C	1.450979	0.833463	-0.573204
C78	C	1.792145	0.216405	-0.506077
C79	C	1.908922	0.216409	-0.506084
C80	C	1.518310	1.099218	-0.506125
C81	C	1.518294	1.049284	-0.506094
C82	C	1.518189	0.216355	-0.780096
C83	C	1.518221	0.216337	-0.896872
C84	C	1.585387	0.245039	-1.061453
C85	C	1.585361	0.245060	-0.951728
C86	C	1.451095	0.187594	-0.951746
C87	C	1.451116	0.187575	-1.061468
C88	C	1.622761	0.298070	-0.801750
C89	C	1.689897	0.326808	-0.746880
C90	C	1.792404	0.333703	-0.782501
C91	C	1.827796	0.311854	-0.872990
C92	C	1.760666	0.283112	-0.927854
C93	C	1.658145	0.276226	-0.892235
C94	C	1.413726	0.134565	-1.211449
C95	C	1.346601	0.105821	-1.266315
C96	C	1.244092	0.098921	-1.230697
C97	C	1.208704	0.120762	-1.140204
C98	C	1.275829	0.149507	-1.085338
C99	C	1.378337	0.156407	-1.120964
C100	C	1.518097	0.216406	-0.233095
C101	C	1.518268	0.216297	-0.116319
H102	H	0.919087	0.268594	-0.627762
O103	O	0.923456	0.113226	-0.086198
H104	H	0.995555	0.133216	-0.072835
O105	O	1.098138	0.113321	-1.101783
H106	H	1.100343	0.099062	-1.021490
O107	O	1.864813	0.364698	-0.723316
H108	H	1.942046	0.365819	-0.763280
H109	H	1.023755	0.265536	-0.777200
H110	H	1.707248	0.603211	-0.317109
H111	H	1.707335	0.743958	-0.317133
O112	O	1.171698	0.067913	-1.289870
H113	H	1.094474	0.066784	-1.249890
H114	H	1.396423	0.164208	-0.907074
H115	H	1.789483	0.265322	-1.001526
O116	O	1.237665	0.173070	-0.987738
H117	H	1.155103	0.163447	-0.972187
O118	O	1.651730	0.350377	-0.649287
H119	H	1.569162	0.340762	-0.633743
H120	H	1.123258	0.317715	-0.898881
O121	O	1.301763	0.364896	-0.852329
H122	H	1.370604	0.378899	-0.810470
O123	O	1.378183	0.381227	-0.645546
H124	H	1.295736	0.390267	-0.627459
O125	O	1.938369	0.319283	-0.911400
H126	H	1.979101	0.342940	-0.858050
H127	H	1.118212	0.164211	-0.384389
H128	H	1.396316	1.044937	-0.627886
H129	H	1.539289	0.292463	-0.772745
H130	H	0.749991	0.075502	-0.177567
H131	H	0.685442	0.088129	-0.363511
O132	O	0.775539	0.142153	-0.512269
H133	H	0.703458	0.122153	-0.525642
O134	O	1.261751	0.290663	-0.499883
H135	H	1.208421	0.267005	-0.459189
O136	O	1.657652	0.381191	-0.366468
H137	H	1.704419	0.405382	-0.319804
H138	H	1.375426	0.088033	-1.339994
O139	O	1.657715	0.478708	-0.366472
H140	H	1.704429	0.454502	-0.319784
O141	O	1.037444	0.173017	-0.225598
H142	H	1.052971	0.163350	-0.143061
H143	H	1.707378	0.829077	-0.317156
O144	O	1.725064	0.694518	-0.299374
H145	H	1.771779	0.670311	-0.252691
H146	H	1.328888	0.603253	-0.695000
O147	O	1.657988	0.953586	-0.366544
H148	H	1.704747	0.977779	-0.319876
H149	H	1.396281	0.959829	-0.627891
O150	O	1.524298	0.142000	-1.249869
H151	H	1.580546	0.131387	-1.188345
O152	O	1.658051	1.051114	-0.366575
H153	H	1.611079	1.072533	-0.313088
O154	O	1.311245	0.835323	-0.712755
H155	H	1.264498	0.811131	-0.759435
H156	H	1.351842	0.344672	-0.648647
H157	H	1.396004	0.472550	-0.627828
O158	O	1.311161	0.737810	-0.712710
H159	H	1.264421	0.762016	-0.759374
O160	O	1.311167	0.694567	-0.712759
H161	H	1.264427	0.670372	-0.759439
H162	H	1.640065	0.268427	-1.106109
