data_functionalizedCrystal
_audit_creation_method	'MofGen! by Chris Wilmer'
_symmetry_space_group_name_H-M	'P1'
_symmetry_Int_Tables_number	1
_symmetry_cell_setting	triclinic
loop_
_symmetry_equiv_pos_as_xyz
  x,y,z
_cell_length_a	9.065218
_cell_length_b	10.065875
_cell_length_c	9.065218
_cell_angle_alpha	81.078217
_cell_angle_beta	85.015885
_cell_angle_gamma	98.878472
loop_
_atom_site_label
_atom_site_type_symbol
_atom_site_fract_x
_atom_site_fract_y
_atom_site_fract_z
O1	O	1.981701	0.113491	0.194956
O2	O	2.315034	0.446825	0.528290
O3	O	2.648367	0.780158	0.861623
O4	O	1.552416	0.113493	0.212703
O5	O	1.885749	0.446826	0.546036
O6	O	2.219083	0.780159	0.879369
O7	O	1.775931	0.113489	-0.010812
O8	O	2.109264	0.446823	0.322521
O9	O	2.442598	0.780156	0.655854
O10	O	1.758186	0.113495	0.418471
O11	O	2.091519	0.446828	0.751805
O12	O	2.424852	0.780162	1.085138
O13	O	1.733312	-0.113499	0.031982
O14	O	2.066645	0.219835	0.365316
O15	O	2.399979	0.553168	0.698649
O16	O	1.509797	-0.113495	0.255497
O17	O	1.843130	0.219838	0.588831
O18	O	2.176464	0.553171	0.922164
O19	O	1.939082	-0.113497	0.237751
O20	O	2.272415	0.219837	0.571084
O21	O	2.605748	0.553170	0.904418
Zn22	Zn	1.717673	-0.149535	0.253419
Zn23	Zn	2.051006	0.183798	0.586752
Zn24	Zn	2.384339	0.517131	0.920085
Zn25	Zn	1.773825	0.149531	0.197035
Zn26	Zn	2.107158	0.482865	0.530368
Zn27	Zn	2.440492	0.816198	0.863702
O28	O	1.715567	-0.113493	0.461266
O29	O	2.048900	0.219840	0.794599
O30	O	2.382233	0.553173	1.127933
C31	C	1.476120	-0.000001	0.232394
C32	C	1.809453	0.333332	0.565728
C33	C	2.142787	0.666666	0.899061
C34	C	1.312277	-0.000000	0.227295
C35	C	1.645611	0.333333	0.560628
C36	C	1.978944	0.666666	0.893961
N37	N	1.679361	-0.353640	0.291898
N38	N	2.012694	-0.020307	0.625232
N39	N	2.346028	0.313026	0.958565
C40	C	1.760486	-0.421420	0.210414
C41	C	2.093819	-0.088087	0.543747
C42	C	2.427153	0.245246	0.877080
C43	C	1.731012	-0.578587	0.240040
C44	C	2.064345	-0.245254	0.573374
C45	C	2.397678	0.088080	0.906707
C46	C	2.015378	0.000000	0.218059
C47	C	2.348712	0.333333	0.551392
C48	C	2.682045	0.666667	0.884725
C49	C	2.179223	0.000008	0.223157
C50	C	2.512556	0.333342	0.556490
C51	C	2.845889	0.666675	0.889824
C52	C	1.752917	-0.000003	-0.044402
C53	C	2.086250	0.333331	0.288931
C54	C	2.419583	0.666664	0.622265
C55	C	1.747818	0.000004	-0.208246
C56	C	2.081151	0.333337	0.125087
C57	C	2.414485	0.666671	0.458420
N58	N	1.812148	0.353636	0.158544
N59	N	2.145482	0.686970	0.491877
N60	N	2.478815	1.020303	0.825210
C61	C	1.738582	0.000002	0.494855
C62	C	2.071915	0.333335	0.828188
C63	C	2.405249	0.666668	1.161522
C64	C	1.743682	0.000004	0.658698
C65	C	2.077015	0.333337	0.992031
C66	C	2.410349	0.666671	1.325364
H67	H	1.851756	-0.363097	0.118712
H68	H	2.185089	-0.029764	0.452046
H69	H	2.518422	0.303569	0.785379
H70	H	1.639726	-0.636907	0.331736
H71	H	1.973059	-0.303573	0.665070
H72	H	2.306392	0.029760	0.998403
H73	H	1.903424	-0.588044	0.066837
H74	H	2.236757	-0.254711	0.400170
H75	H	2.570090	0.078622	0.733503
F76	F	1.560049	-0.429869	0.411746
F77	F	1.893382	-0.096536	0.745080
F78	F	2.226716	0.236797	1.078413
