data_functionalizedCrystal
_audit_creation_method	'MofGen! by Chris Wilmer'
_symmetry_space_group_name_H-M	'P1'
_symmetry_Int_Tables_number	1
_symmetry_cell_setting	triclinic
loop_
_symmetry_equiv_pos_as_xyz
  x,y,z
_cell_length_a	17.077404
_cell_length_b	19.121063
_cell_length_c	17.077396
_cell_angle_alpha	92.408800
_cell_angle_beta	89.980499
_cell_angle_gamma	92.469213
loop_
_atom_site_label
_atom_site_type_symbol
_atom_site_fract_x
_atom_site_fract_y
_atom_site_fract_z
Zn1	Zn	1.186697	-0.279610	-0.457152
Zn2	Zn	1.686697	0.220390	0.042848
Zn3	Zn	1.180993	-0.397067	-0.331476
Zn4	Zn	1.680993	0.102933	0.168524
Zn5	Zn	1.055428	-0.279634	-0.325901
Zn6	Zn	1.555428	0.220366	0.174099
Zn7	Zn	1.049788	-0.397025	-0.462698
Zn8	Zn	1.549788	0.102975	0.037302
O9	O	1.118227	-0.338334	-0.394307
O10	O	1.618227	0.161666	0.105693
O11	O	1.295787	-0.295198	-0.440493
O12	O	1.795787	0.204802	0.059507
O13	O	1.164310	-0.381517	-0.220891
O14	O	1.664310	0.118483	0.279109
O15	O	1.077589	-0.181347	-0.338657
O16	O	1.577589	0.318653	0.161343
O17	O	1.291597	-0.381493	-0.348160
O18	O	1.791597	0.118507	0.151840
O19	O	1.174032	-0.181328	-0.435086
O20	O	1.674032	0.318672	0.064914
O21	O	1.072058	-0.295240	-0.216795
O22	O	1.572058	0.204760	0.283205
O23	O	0.944833	-0.295199	-0.344035
O24	O	1.444833	0.204801	0.155965
O25	O	1.067976	-0.381422	-0.571808
O26	O	1.567976	0.118578	-0.071808
O27	O	0.940690	-0.381446	-0.444539
O28	O	1.440690	0.118554	0.055461
O29	O	1.168563	-0.295157	-0.567733
O30	O	1.668563	0.204843	-0.067733
O31	O	1.158841	-0.495346	-0.353538
O32	O	1.658841	0.004654	0.146462
O33	O	1.062445	-0.495315	-0.449946
O34	O	1.562445	0.004685	0.050054
C35	C	0.914279	-0.338321	-0.394284
C36	C	1.414279	0.161679	0.105716
C37	C	0.827029	-0.338333	-0.394294
C38	C	1.327029	0.161667	0.105706
C39	C	0.783899	-0.383309	-0.446550
C40	C	1.283899	0.116691	0.053450
C41	C	0.701918	-0.383311	-0.446562
C42	C	1.201918	0.116689	0.053438
C43	C	0.663069	-0.338339	-0.394315
C44	C	1.163069	0.161661	0.105685
C45	C	0.706206	-0.293358	-0.342057
C46	C	1.206206	0.206642	0.157943
C47	C	0.788185	-0.293353	-0.342049
C48	C	1.288185	0.206647	0.157951
C49	C	0.535335	-0.293371	-0.342077
C50	C	1.035335	0.206629	0.157923
C51	C	0.453350	-0.293377	-0.342084
C52	C	0.953350	0.206623	0.157916
C53	C	0.449068	-0.383329	-0.446590
C54	C	0.949068	0.116671	0.053410
C55	C	0.531047	-0.383324	-0.446582
C56	C	1.031047	0.116676	0.053418
C57	C	0.574178	-0.338344	-0.394323
C58	C	1.074178	0.161656	0.105677
C59	C	1.109434	-0.520815	-0.402966
C60	C	1.609434	-0.020815	0.097034
C61	C	1.105744	-0.598881	-0.406696
C62	C	1.605744	-0.098881	0.093304
C63	C	1.154237	-0.635549	-0.358296
C64	C	1.654237	-0.135549	0.141704
C65	C	1.150772	-0.708900	-0.361809
C66	C	1.650772	-0.208900	0.138191
C67	C	1.098808	-0.745582	-0.413719
C68	C	1.598808	-0.245582	0.086281
C69	C	1.050312	-0.708908	-0.462125
C70	C	1.550312	-0.208908	0.037875
C71	C	1.053782	-0.635558	-0.458615
C72	C	1.553782	-0.135558	0.041385
C73	C	1.085821	-0.967052	-0.426830
C74	C	1.585821	-0.467052	0.073170
C75	C	1.082353	-1.040407	-0.430334
C76	C	1.582353	-0.540407	0.069666
C77	C	1.182814	-1.040393	-0.330019
C78	C	1.682814	-0.540393	0.169981
C79	C	1.186276	-0.967042	-0.326511
C80	C	1.686276	-0.467042	0.173489
C81	C	1.137783	-0.930375	-0.374919
C82	C	1.637783	-0.430375	0.125081
C83	C	1.095262	-0.820559	-0.417310
C84	C	1.595262	-0.320559	0.082690
C85	C	1.141333	-0.855399	-0.371332
C86	C	1.641333	-0.355399	0.128668
C87	C	1.322970	-0.338347	-0.394329
C88	C	1.822970	0.161653	0.105671
C89	C	1.410220	-0.338353	-0.394339
C90	C	1.910220	0.161647	0.105661
C91	C	1.118277	-0.338282	-0.599049
C92	C	1.618277	0.161718	-0.099049
C93	C	1.118298	-0.338260	-0.686297
C94	C	1.618298	0.161740	-0.186297
C95	C	1.127075	-0.155141	-0.385631
C96	C	1.627075	0.344859	0.114369
C97	C	1.130846	-0.077075	-0.381934
C98	C	1.630846	0.422925	0.118066
C99	C	1.170675	-0.293338	-0.725167
C100	C	1.670675	0.206662	-0.225167
C101	C	1.170686	-0.293315	-0.807146
C102	C	1.670686	0.206685	-0.307146
C103	C	1.118322	-0.338217	-0.850255
C104	C	1.618322	0.161783	-0.350255
C105	C	1.065939	-0.383141	-0.811380
C106	C	1.565939	0.116859	-0.311380
C107	C	1.065925	-0.383160	-0.729402
C108	C	1.565925	0.116840	-0.229402
C109	C	1.065973	-0.383099	-0.982248
C110	C	1.565973	0.116901	-0.482248
C111	C	1.065987	-0.383081	-1.064232
C112	C	1.565987	0.116919	-0.564232
C113	C	1.170733	-0.293254	-1.059992
C114	C	1.670733	0.206746	-0.559992
C115	C	1.170720	-0.293273	-0.978014
C116	C	1.670720	0.206727	-0.478014
C117	C	1.118337	-0.338198	-0.939145
C118	C	1.618337	0.161802	-0.439145
C119	C	1.118224	-0.338335	-0.190359
C120	C	1.618224	0.161665	0.309641
C121	C	1.118365	-0.338159	-0.103101
C122	C	1.618365	0.161841	0.396899
H123	H	0.413947	-0.419952	-0.489143
H124	H	0.913947	0.080048	0.010857
C125	C	1.228273	-0.243942	-0.677754
C126	C	1.728273	0.256058	-0.177754
H127	H	1.259462	-0.217180	-0.712648
H128	H	1.759462	0.282820	-0.212648
H129	H	1.261174	-0.270813	-0.647050
H130	H	1.761174	0.229187	-0.147050
H131	H	1.199709	-0.213343	-0.644324
H132	H	1.699709	0.286657	-0.144324
H133	H	1.213339	-0.256737	-0.838790
H134	H	1.713339	0.243263	-0.338790
C135	C	1.228318	-0.243882	-0.930596
C136	C	1.728318	0.256118	-0.430596
H137	H	1.259513	-0.217119	-0.965485
H138	H	1.759513	0.282881	-0.465485
H139	H	1.261215	-0.270759	-0.899893
H140	H	1.761215	0.229241	-0.399893
H141	H	1.199756	-0.213284	-0.897164
H142	H	1.699756	0.286716	-0.397164
H143	H	0.666805	-0.419935	-0.489113
H144	H	1.166805	0.080065	0.010887
C145	C	0.993151	-0.749256	-0.519223
C146	C	1.493151	-0.249256	-0.019223
H147	H	0.998023	-0.798193	-0.514376
H148	H	1.498023	-0.298193	-0.014376
H149	H	1.005176	-0.737195	-0.571399
H150	H	1.505176	-0.237195	-0.071399
H151	H	0.940981	-0.737279	-0.507106
H152	H	1.440981	-0.237279	-0.007106
H153	H	1.014295	-0.605704	-0.498029
H154	H	1.514295	-0.105704	0.001971
C155	C	1.008339	-0.432534	-0.858793
C156	C	1.508339	0.067466	-0.358793
H157	H	0.977138	-0.459286	-0.823900
H158	H	1.477138	0.040714	-0.323900
H159	H	1.036893	-0.463131	-0.892227
H160	H	1.536893	0.036869	-0.392227
H161	H	0.975437	-0.405653	-0.889494
H162	H	1.475437	0.094347	-0.389494
C163	C	0.826625	-0.432778	-0.504023
C164	C	1.326625	0.067222	-0.004023
H165	H	0.789194	-0.459559	-0.535151
H166	H	1.289194	0.040441	-0.035151
H167	H	0.857121	-0.463345	-0.475390
H168	H	1.357121	0.036655	0.024610
H169	H	0.859910	-0.405942	-0.537001
H170	H	1.359910	0.094058	-0.037001
H171	H	1.183645	-0.825531	-0.329069
H172	H	1.683645	-0.325531	0.170931
C173	C	0.582777	-0.243891	-0.284596
C174	C	1.082777	0.256109	0.215404
H175	H	0.547901	-0.217112	-0.253476
H176	H	1.047901	0.282888	0.246524
H177	H	0.616242	-0.213322	-0.313227
H178	H	1.116242	0.286678	0.186773
H179	H	0.613450	-0.270720	-0.251611
H180	H	1.113450	0.229280	0.248389
H181	H	1.023267	-0.419733	-0.697755
H182	H	1.523267	0.080267	-0.197755
H183	H	1.052952	-0.850433	-0.459574
H184	H	1.552952	-0.350433	0.040426
H185	H	1.190260	-0.738752	-0.322396
H186	H	1.690260	-0.238752	0.177604
C187	C	0.835629	-0.243878	-0.284570
C188	C	1.335629	0.256122	0.215430
H189	H	0.800752	-0.217098	-0.253450
H190	H	1.300752	0.282902	0.246550
H191	H	0.869092	-0.213310	-0.313203
H192	H	1.369092	0.286690	0.186797
H193	H	0.866303	-0.270705	-0.251584
H194	H	1.366303	0.229295	0.248416
H195	H	1.023306	-0.419670	-0.950603
H196	H	1.523306	0.080330	-0.450603
C197	C	1.025190	-1.080759	-0.487435
C198	C	1.525190	-0.580759	0.012565
H199	H	1.030063	-1.129695	-0.482582
H200	H	1.530063	-0.629695	0.017418
H201	H	1.037215	-1.068702	-0.539612
H202	H	1.537215	-0.568702	-0.039612
H203	H	0.973019	-1.068782	-0.475320
H204	H	1.473019	-0.568782	0.024680
C205	C	1.032467	-0.926727	-0.480063
C206	C	1.532467	-0.426727	0.019937
H207	H	1.001015	-0.959081	-0.511471
H208	H	1.501015	-0.459081	-0.011471
H209	H	1.063820	-0.898066	-0.512927
H210	H	1.563820	-0.398066	-0.012927
H211	H	0.999633	-0.898162	-0.448626
H212	H	1.499633	-0.398162	0.051374
H213	H	0.562675	-0.419948	-0.489122
H214	H	1.062675	0.080052	0.010878
H215	H	1.213384	-0.256673	-1.091644
H216	H	1.713384	0.243327	-0.591644
C217	C	1.008385	-0.432468	-1.111650
C218	C	1.508385	0.067532	-0.611650
H219	H	0.977178	-0.459219	-1.076761
H220	H	1.477178	0.040781	-0.576761
H221	H	1.036937	-0.463066	-1.145084
H222	H	1.536937	0.036934	-0.645084
H223	H	0.975489	-0.405582	-1.142351
H224	H	1.475489	0.094418	-0.642351
H225	H	0.421722	-0.256748	-0.299549
H226	H	0.921722	0.243252	0.200451
H227	H	0.674569	-0.256738	-0.299520
H228	H	1.174569	0.243262	0.200480
C229	C	1.211399	-0.595205	-0.301196
C230	C	1.711399	-0.095205	0.198804
H231	H	1.239789	-0.627552	-0.272880
H232	H	1.739789	-0.127552	0.227120
H233	H	1.182747	-0.566634	-0.265597
H234	H	1.682747	-0.066634	0.234403
H235	H	1.246943	-0.566549	-0.329890
H236	H	1.746943	-0.066549	0.170110
C237	C	1.243441	-0.926697	-0.269415
C238	C	1.743441	-0.426697	0.230585
H239	H	1.271832	-0.959041	-0.241096
H240	H	1.771832	-0.459041	0.258904
H241	H	1.214787	-0.898125	-0.233818
H242	H	1.714787	-0.398125	0.266182
H243	H	1.278984	-0.898041	-0.298110
H244	H	1.778984	-0.398041	0.201890
H245	H	1.222295	-1.070255	-0.290609
H246	H	1.722295	-0.570255	0.209391
