data_functionalizedCrystal
_audit_creation_method	'MofGen! by Chris Wilmer'
_symmetry_space_group_name_H-M	'P1'
_symmetry_Int_Tables_number	1
_symmetry_cell_setting	triclinic
loop_
_symmetry_equiv_pos_as_xyz
  x,y,z
_cell_length_a	19.288864
_cell_length_b	14.472310
_cell_length_c	19.288865
_cell_angle_alpha	90.006324
_cell_angle_beta	83.136245
_cell_angle_gamma	90.026857
loop_
_atom_site_label
_atom_site_type_symbol
_atom_site_fract_x
_atom_site_fract_y
_atom_site_fract_z
O1	O	0.921357	0.077148	0.086643
O2	O	1.421357	0.577148	0.586643
O3	O	0.719097	0.077086	0.098332
O4	O	1.219097	0.577086	0.598332
O5	O	0.826072	0.077100	-0.008643
O6	O	1.326072	0.577100	0.491357
O7	O	0.814383	0.077133	0.193618
O8	O	1.314383	0.577133	0.693618
O9	O	0.826044	-0.076582	-0.008637
O10	O	1.326044	0.423418	0.491363
O11	O	0.719069	-0.076596	0.098338
O12	O	1.219069	0.423404	0.598338
O13	O	0.921330	-0.076534	0.086649
O14	O	1.421330	0.423466	0.586649
Cu15	Cu	0.820197	-0.090598	0.092494
Cu16	Cu	1.320197	0.409402	0.592494
Cu17	Cu	0.820230	0.091149	0.092487
Cu18	Cu	1.320230	0.591149	0.592487
O19	O	0.814355	-0.076549	0.193624
O20	O	1.314355	0.423451	0.693624
C21	C	0.693207	0.000237	0.097959
C22	C	1.193207	0.500237	0.597959
C23	C	0.616103	0.000212	0.096830
C24	C	1.116103	0.500212	0.596830
N25	N	0.820179	-0.218428	0.092499
N26	N	1.320179	0.281572	0.592499
C27	C	0.571407	0.000237	0.159598
C28	C	1.071407	0.500237	0.659598
C29	C	0.498960	0.000247	0.158537
C30	C	0.998960	0.500247	0.658537
C31	C	0.471212	0.000251	0.094705
C32	C	0.971212	0.500251	0.594705
C33	C	0.515918	0.000221	0.031929
C34	C	1.015918	0.500221	0.531929
C35	C	0.588364	0.000202	0.032991
C36	C	1.088364	0.500202	0.532991
C37	C	0.362960	0.054116	0.044523
C38	C	0.862960	0.554116	0.544523
C39	C	0.290515	0.054141	0.043464
C40	C	0.790515	0.554141	0.543464
C41	C	0.247767	0.000306	0.091425
C42	C	0.747767	0.500306	0.591425
C43	C	0.277470	-0.053541	0.140458
C44	C	0.777470	0.446459	0.640458
C45	C	0.349915	-0.053560	0.141521
C46	C	0.849915	0.446440	0.641521
C47	C	0.392658	0.000271	0.093546
C48	C	0.892658	0.500271	0.593546
C49	C	0.124514	0.000341	0.153047
C50	C	0.624514	0.500341	0.653047
C51	C	0.052066	0.000345	0.151984
C52	C	0.552066	0.500345	0.651984
C53	C	0.069026	0.000328	0.025374
C54	C	0.569026	0.500328	0.525374
C55	C	0.141473	0.000315	0.026439
C56	C	0.641473	0.500315	0.526439
C57	C	0.169212	0.000325	0.090278
C58	C	0.669212	0.500325	0.590278
C59	C	0.820229	-0.592520	0.092484
C60	C	1.320229	-0.092520	0.592484
C61	C	0.762798	-0.553362	0.149533
C62	C	1.262798	-0.053362	0.649533
C63	C	0.762929	-0.446273	0.149740
C64	C	1.262929	0.053727	0.649740
C65	C	0.820204	-0.406929	0.092491
C66	C	1.320204	0.093071	0.592491
C67	C	0.892628	-0.445740	0.108094
C68	C	1.392628	0.054260	0.608094
C69	C	0.892305	-0.552862	0.108499
C70	C	1.392305	-0.052862	0.608499
C71	C	0.805882	-0.553067	0.019661
C72	C	1.305882	-0.053067	0.519661
C73	C	0.804218	-0.445940	0.020152
C74	C	1.304218	0.054060	0.520152
C75	C	0.820194	-0.302040	0.092494
C76	C	1.320194	0.197960	0.592494
C77	C	0.820243	-0.697408	0.092483
C78	C	1.320243	-0.197408	0.592483
C79	C	0.947220	0.000317	0.087022
C80	C	1.447220	0.500317	0.587022
C81	C	1.024324	0.000347	0.088151
C82	C	1.524324	0.500347	0.588151
C83	C	0.825682	0.000257	-0.034516
C84	C	1.325682	0.500257	0.465484
C85	C	0.824553	0.000248	-0.111620
C86	C	1.324553	0.500248	0.388380
N87	N	0.820253	0.218980	0.092476
N88	N	1.320253	0.718980	0.592476
C89	C	0.887321	0.000263	-0.156316
C90	C	1.387321	0.500263	0.343684
C91	C	0.886260	0.000277	-0.228763
C92	C	1.386260	0.500277	0.271237
C93	C	0.822428	0.000258	-0.256511
C94	C	1.322428	0.500258	0.243489
C95	C	0.759652	0.000249	-0.211805
C96	C	1.259652	0.500249	0.288195
C97	C	0.760714	0.000244	-0.139359
C98	C	1.260714	0.500244	0.360641
C99	C	0.772239	-0.053589	-0.364796
C100	C	1.272239	0.446411	0.135204
C101	C	0.771179	-0.053589	-0.437241
C102	C	1.271179	0.446411	0.062759
C103	C	0.819148	0.000278	-0.479956
C104	C	1.319148	0.500278	0.020044
C105	C	0.868189	0.054134	-0.450221
C106	C	1.368189	0.554134	0.049779
C107	C	0.869252	0.054129	-0.377775
C108	C	1.369252	0.554129	0.122225
C109	C	0.821269	0.000264	-0.335065
C110	C	1.321269	0.500264	0.164935
C111	C	0.880770	0.000309	-0.603209
C112	C	1.380770	0.500309	-0.103209
C113	C	0.879707	0.000329	-0.675657
C114	C	1.379707	0.500329	-0.175657
C115	C	0.753097	0.000292	-0.658697
C116	C	1.253097	0.500292	-0.158697
C117	C	0.754162	0.000281	-0.586250
C118	C	1.254162	0.500281	-0.086250
C119	C	0.818001	0.000285	-0.558511
C120	C	1.318001	0.500285	-0.058511
C121	C	0.814745	0.000297	0.219497
C122	C	1.314745	0.500297	0.719497
C123	C	0.815874	0.000312	0.296601
C124	C	1.315874	0.500312	0.796601
H125	H	0.593987	0.000248	0.211580
H126	H	1.093987	0.500248	0.711580
H127	H	0.374096	-0.097407	0.181443
H128	H	0.874096	0.402593	0.681443
H129	H	0.709088	-0.420036	0.140477
H130	H	1.209088	0.079964	0.640477
H131	H	0.708781	-0.579168	0.140426
H132	H	1.208781	-0.079168	0.640426
H133	H	0.905614	-0.418889	0.160589
H134	H	1.405614	0.081111	0.660589
C135	C	0.950988	0.000325	-0.572692
C136	C	1.450988	0.500325	-0.072692
H137	H	0.988220	0.000349	-0.609691
H138	H	1.488220	0.500349	-0.109691
H139	H	0.954026	-0.053271	-0.544791
H140	H	1.454026	0.446729	-0.044791
H141	H	0.954042	0.053921	-0.544776
H142	H	1.454042	0.553921	-0.044776
H143	H	0.462561	0.000265	0.209652
H144	H	0.962561	0.500265	0.709652
C145	C	0.230459	-0.112765	0.193219
C146	C	0.730459	0.387235	0.693219
H147	H	0.258524	-0.144830	0.222574
H148	H	0.758524	0.355170	0.722574
H149	H	0.205395	-0.156057	0.168793
H150	H	0.705395	0.343943	0.668793
H151	H	0.198460	-0.073933	0.220851
H152	H	0.698460	0.426067	0.720851
C153	C	0.736088	-0.589618	-0.000669
C154	C	1.236088	-0.089618	0.499331
H155	H	0.715043	-0.629285	0.035071
H156	H	1.215043	-0.129285	0.535071
H157	H	0.744335	-0.622985	-0.043266
H158	H	1.244335	-0.122985	0.456734
H159	H	0.705818	-0.539125	-0.006334
H160	H	1.205818	-0.039125	0.493666
C161	C	0.155035	0.000341	0.223263
C162	C	0.655035	0.500341	0.723263
H163	H	0.204582	0.000339	0.214907
H164	H	0.704582	0.500339	0.714907
H165	H	0.139654	-0.053245	0.249101
H166	H	0.639654	0.446755	0.749101
H167	H	0.139703	0.053946	0.249096
H168	H	0.639703	0.553946	0.749096
H169	H	0.493322	0.000237	-0.020044
H170	H	0.993322	0.500237	0.479956
C171	C	0.691666	0.000219	-0.090191
C172	C	1.191666	0.500219	0.409809
H173	H	0.653497	0.000205	-0.117090
H174	H	1.153497	0.500205	0.382910
H175	H	0.689459	0.053805	-0.061568
H176	H	1.189459	0.553805	0.438432
H177	H	0.689442	-0.053387	-0.061588
H178	H	1.189442	0.446613	0.438412
C179	C	0.951751	-0.587855	0.054486
C180	C	1.451751	-0.087855	0.554486
H181	H	0.975995	-0.536600	0.032398
H182	H	1.475995	-0.036600	0.532398
H183	H	0.932760	-0.624349	0.020414
H184	H	1.432760	-0.124349	0.520414
H185	H	0.983183	-0.624191	0.077333
H186	H	1.483183	-0.124191	0.577333
C187	C	0.002900	0.000373	0.221032
C188	C	0.502900	0.500373	0.721032
H189	H	0.029799	0.000385	0.259201
H190	H	0.529799	0.500385	0.759201
H191	H	-0.025741	-0.053212	0.223257
H192	H	0.474259	0.446788	0.723257
H193	H	-0.025687	0.053979	0.223242
H194	H	0.474313	0.553979	0.723242
H195	H	0.046435	0.000389	-0.026600
H196	H	0.546435	0.500389	0.473400
H197	H	0.397761	0.097959	0.005466
H198	H	0.897761	0.597959	0.505466
C199	C	0.190641	0.000302	-0.042607
C200	C	0.690641	0.500302	0.457393
H201	H	0.163742	0.000313	-0.080776
H202	H	0.663742	0.500313	0.419224
H203	H	0.219229	-0.053297	-0.044824
H204	H	0.719229	0.446703	0.455176
H205	H	0.219279	0.053895	-0.044823
H206	H	0.719279	0.553895	0.455177
C207	C	0.923187	0.113367	-0.345063
C208	C	1.423187	0.613367	0.154937
H209	H	0.916951	0.105641	-0.295801
H210	H	1.416951	0.605641	0.204199
H211	H	0.916923	0.176547	-0.356110
H212	H	1.416923	0.676547	0.143890
H213	H	0.968967	0.094445	-0.363092
H214	H	1.468967	0.594445	0.136908
C215	C	0.257844	0.113373	-0.010465
C216	C	0.757844	0.613373	0.489535
H217	H	0.208575	0.105686	-0.004222
H218	H	0.708575	0.605686	0.495778
H219	H	0.275859	0.094432	-0.056245
H220	H	0.775859	0.594432	0.443755
H221	H	0.268934	0.176554	-0.004185
H222	H	0.768934	0.676554	0.495815
C223	C	0.957538	0.000271	-0.125803
C224	C	1.457538	0.500271	0.374197
H225	H	0.949183	0.000258	-0.076255
H226	H	1.449183	0.500258	0.423745
H227	H	0.983389	0.053868	-0.141155
H228	H	1.483389	0.553868	0.358845
H229	H	0.983358	-0.053324	-0.141166
H230	H	1.483358	0.446676	0.358834
C231	C	0.637535	0.000181	-0.036055
C232	C	1.137535	0.500181	0.463945
H233	H	0.684654	0.000167	-0.026279
H234	H	1.184654	0.500167	0.473721
H235	H	0.629171	0.053771	-0.062243
H236	H	1.129171	0.553771	0.437757
H237	H	0.629122	-0.053420	-0.062235
H238	H	1.129122	0.446580	0.437765
C239	C	0.775287	-0.411615	0.222743
C240	C	1.275287	0.088385	0.722743
H241	H	0.775408	-0.345972	0.223120
H242	H	1.275408	0.154028	0.723120
H243	H	0.819002	-0.433782	0.233776
H244	H	1.319002	0.066218	0.733776
H245	H	0.739070	-0.433698	0.256373
H246	H	1.239070	0.066302	0.756373
C247	C	0.732248	-0.411682	0.004147
C248	C	1.232248	0.088318	0.504147
H249	H	0.712023	-0.373758	0.041387
H250	H	1.212023	0.126242	0.541387
H251	H	0.702718	-0.463194	-0.000878
H252	H	1.202718	0.036806	0.499122
H253	H	0.737606	-0.376941	-0.037940
H254	H	1.237606	0.123059	0.462060
H255	H	0.771808	-0.580258	0.203274
H256	H	1.271808	-0.080258	0.703274
H257	H	0.936376	-0.420250	0.067638
H258	H	1.436376	0.079750	0.567638
C259	C	0.909422	-0.586588	0.180236
C260	C	1.409422	-0.086588	0.680236
H261	H	0.916503	-0.534822	0.208858
H262	H	1.416503	-0.034822	0.708858
H263	H	0.950609	-0.623114	0.174255
H264	H	1.450609	-0.123114	0.674255
H265	H	0.871700	-0.622622	0.201861
H266	H	1.371700	-0.122622	0.701861
H267	H	0.937375	0.000293	-0.265162
H268	H	1.437375	0.500293	0.234838
H269	H	0.701123	0.000281	-0.681288
H270	H	1.201123	0.500281	-0.181288
H271	H	0.703049	0.000264	-0.549857
H272	H	1.203049	0.500264	-0.049857
H273	H	0.707679	0.000235	-0.234401
H274	H	1.207679	0.500235	0.265599
H275	H	0.843349	-0.419161	-0.024272
H276	H	1.343349	0.080839	0.475728
C277	C	0.717238	-0.112828	-0.469944
C278	C	1.217238	0.387172	0.030056
H279	H	0.688813	-0.144897	-0.434129
H280	H	1.188813	0.355103	0.065871
H281	H	0.740825	-0.156117	-0.501425
H282	H	1.240825	0.343883	-0.001425
H283	H	0.688785	-0.074008	-0.494445
H284	H	1.188785	0.425992	0.005555
C285	C	0.862457	-0.587279	-0.037689
C286	C	1.362457	-0.087279	0.462311
H287	H	0.894668	-0.625421	-0.017391
H288	H	1.394668	-0.125421	0.482609
H289	H	0.886403	-0.535759	-0.059697
H290	H	1.386403	-0.035759	0.440303
H291	H	0.841200	-0.621784	-0.071353
H292	H	1.341200	-0.121784	0.428647
H293	H	0.907250	0.097998	-0.484999
H294	H	1.407250	0.597998	0.015001
C295	C	0.719468	-0.112846	-0.317815
C296	C	1.219468	0.387154	0.182185
H297	H	0.690117	-0.144928	-0.345899
H298	H	1.190117	0.355072	0.154101
H299	H	0.691844	-0.074041	-0.285793
H300	H	1.191844	0.425959	0.214207
H301	H	0.743893	-0.156138	-0.292776
H302	H	1.243893	0.343862	0.207224
C303	C	0.948753	0.000356	-0.724826
C304	C	1.448753	0.500356	-0.224826
H305	H	0.938979	0.000372	-0.771946
H306	H	1.438979	0.500372	-0.271946
H307	H	0.974929	-0.053230	-0.716448
H308	H	1.474929	0.446770	-0.216448
H309	H	0.974945	0.053961	-0.716427
H310	H	1.474945	0.553961	-0.216427
