data_functionalizedCrystal
_audit_creation_method	'MofGen! by Chris Wilmer'
_symmetry_space_group_name_H-M	'P1'
_symmetry_Int_Tables_number	1
_symmetry_cell_setting	triclinic
loop_
_symmetry_equiv_pos_as_xyz
  x,y,z
_cell_length_a	6.817900
_cell_length_b	11.102188
_cell_length_c	19.551833
_cell_angle_alpha	94.522937
_cell_angle_beta	101.663477
_cell_angle_gamma	108.603875
loop_
_atom_site_label
_atom_site_type_symbol
_atom_site_fract_x
_atom_site_fract_y
_atom_site_fract_z
V1	V	-4.032640	-0.177171	-0.217858
O2	O	-3.993184	0.007143	-0.213711
O3	O	-4.009947	-0.349982	-0.216368
O4	O	-3.975018	-0.175048	-0.312873
O5	O	-4.028354	-0.169003	-0.116537
V6	V	-4.514131	-0.155054	-0.205739
O7	O	-4.298354	-0.225687	-0.244442
O8	O	-4.698615	-0.106538	-0.179156
O9	O	-4.313618	0.017757	-0.207229
O10	O	-4.670984	-0.339368	-0.209886
O11	O	-4.635814	-0.163222	-0.307060
O12	O	-4.348546	-0.157178	-0.110724
C13	C	-3.861500	-0.392091	-0.212931
C14	C	-3.924171	-0.533370	-0.212346
C15	C	-3.916614	-0.581202	-0.148085
C16	C	-3.975523	-0.713951	-0.147538
C17	C	-4.049537	-0.751023	-0.275520
C18	C	-3.990642	-0.618278	-0.276067
C19	C	-3.816943	-0.168943	-0.336033
C20	C	-3.851285	-0.168350	-0.413708
C21	C	-4.050141	-0.174451	-0.453755
C22	C	-4.082410	-0.173894	-0.526740
C23	C	-3.915822	-0.167262	-0.559676
C24	C	-3.716934	-0.161153	-0.519619
C25	C	-3.684666	-0.161697	-0.446635
C26	C	-3.863299	-0.236364	-0.678988
C27	C	-3.895579	-0.235828	-0.751972
C28	C	-4.015339	-0.165577	-0.784783
C29	C	-4.102857	-0.095879	-0.744604
C30	C	-4.070589	-0.096424	-0.671620
C31	C	-3.950791	-0.166670	-0.638815
C32	C	-4.249195	-0.171073	-0.903969
C33	C	-4.281453	-0.170507	-0.976954
C34	C	-3.915978	-0.157779	-0.969832
C35	C	-3.883720	-0.158331	-0.896848
C36	C	-4.050339	-0.164984	-0.863921
C37	C	-4.125408	0.059859	-0.210664
C38	C	-4.041975	0.201137	-0.211253
C39	C	-4.169964	-0.163287	-0.087561
C40	C	-4.114860	-0.163873	-0.009885
H41	H	-4.185817	-0.179863	-0.426951
C42	C	-3.998947	-0.565660	-0.346763
N43	N	-4.005200	-0.526027	-0.400009
C44	C	-3.843517	-0.487809	-0.077991
N45	N	-3.788470	-0.417468	-0.025195
H46	H	-3.969367	-0.752888	-0.095210
H47	H	-4.443384	-0.175466	-1.009559
C48	C	-4.301184	-0.180619	-0.570802
N49	N	-4.465968	-0.185691	-0.603988
C50	C	-4.432469	-0.178374	-0.867745
N51	N	-4.570512	-0.183871	-0.840464
C52	C	-3.732739	-0.150509	-1.006060
N53	N	-3.594723	-0.145041	-1.033351
C54	C	-3.799297	-0.312492	-0.796161
N55	N	-3.726766	-0.370234	-0.829443
C56	C	-4.166831	-0.019743	-0.627424
N57	N	-4.239310	0.038022	-0.594135
C58	C	-4.234598	-0.018595	-0.780690
N59	N	-4.333825	0.039612	-0.807874
H60	H	-4.103661	-0.820170	-0.327399
C61	C	-3.731568	-0.313661	-0.642905
N62	N	-3.632357	-0.371883	-0.615728
H63	H	-3.721797	-0.153377	-0.864242
H64	H	-3.581298	-0.155749	-0.546440
C65	C	-3.465907	-0.155000	-0.402582
N66	N	-3.301137	-0.149962	-0.369402
