data_functionalizedCrystal
_audit_creation_method	'MofGen! by Chris Wilmer'
_symmetry_space_group_name_H-M	'P1'
_symmetry_Int_Tables_number	1
_symmetry_cell_setting	triclinic
loop_
_symmetry_equiv_pos_as_xyz
  x,y,z
_cell_length_a	18.215407
_cell_length_b	14.908178
_cell_length_c	18.215399
_cell_angle_alpha	86.671900
_cell_angle_beta	89.985640
_cell_angle_gamma	93.311467
loop_
_atom_site_label
_atom_site_type_symbol
_atom_site_fract_x
_atom_site_fract_y
_atom_site_fract_z
Zn1	Zn	1.108177	-0.359236	-0.399150
Zn2	Zn	1.101004	-0.510123	-0.268978
Zn3	Zn	0.985114	-0.359264	-0.276101
Zn4	Zn	0.977991	-0.510058	-0.392011
O5	O	1.043072	-0.434670	-0.334060
O6	O	1.210209	-0.379267	-0.381889
O7	O	1.085611	-0.490150	-0.166937
O8	O	1.007422	-0.233006	-0.298393
O9	O	1.204939	-0.490122	-0.286252
O10	O	1.097835	-0.232985	-0.388796
O11	O	1.000467	-0.379314	-0.172170
O12	O	0.881186	-0.379252	-0.291471
O13	O	0.995281	-0.490013	-0.495944
O14	O	0.875952	-0.490040	-0.376629
O15	O	1.090928	-0.379204	-0.501189
O16	O	1.078704	-0.636369	-0.279330
O17	O	0.988326	-0.636321	-0.369722
C18	C	0.851867	-0.434642	-0.334049
C19	C	0.770067	-0.434652	-0.334060
C20	C	0.584611	-0.377049	-0.383927
C21	C	0.507752	-0.377056	-0.383929
C22	C	0.502284	-0.492317	-0.284205
C23	C	0.579142	-0.492304	-0.284200
C24	C	0.620303	-0.434671	-0.334065
C25	C	0.466586	-0.434692	-0.334072
C26	C	0.383252	-0.434701	-0.334074
C27	C	0.703642	-0.434661	-0.334062
C28	C	1.031984	-0.669081	-0.322994
C29	C	1.027308	-0.769363	-0.318285
C30	C	1.112597	-0.957632	-0.403673
C31	C	1.108205	-1.051856	-0.399251
C32	C	1.014131	-1.052037	-0.305022
C33	C	1.018522	-0.957813	-0.309444
C34	C	1.067757	-0.910614	-0.358771
C35	C	1.072152	-0.816388	-0.363189
C36	C	0.978074	-0.816570	-0.268964
C37	C	0.973683	-0.910794	-0.264542
C38	C	1.235023	-0.434699	-0.334072
C39	C	1.316822	-0.434711	-0.334077
C40	C	1.043110	-0.434598	-0.526017
C41	C	1.043126	-0.434567	-0.607817
C42	C	1.054223	-0.199344	-0.345185
C43	C	1.058975	-0.099062	-0.349926
C44	C	0.998833	-0.376817	-0.798739
C45	C	0.998847	-0.376798	-0.875598
C46	C	1.087512	-0.492211	-0.870138
C47	C	1.087494	-0.492233	-0.793280
C48	C	1.043156	-0.434531	-0.757582
C49	C	1.043188	-0.434490	-0.911300
C50	C	1.043203	-0.434471	-0.994635
C51	C	1.043140	-0.434551	-0.674242
C52	C	1.043079	-0.434677	-0.142854
C53	C	1.043217	-0.434453	-0.061066
H54	H	1.112243	-0.777960	-0.403351
Br55	Br	0.640471	-0.298831	-0.451598
H56	H	0.962754	-0.329803	-0.909105
H57	H	1.123611	-0.539189	-0.899212
H58	H	1.123588	-0.539234	-0.759769
Br59	Br	0.459315	-0.298847	-0.451599
Br60	Br	1.179424	-0.893572	-0.470603
H61	H	1.144715	-1.090135	-0.435819
Br62	Br	0.917225	-0.752755	-0.208013
Br63	Br	0.446417	-0.570531	-0.216536
Br64	Br	0.947296	-1.116107	-0.238106
H65	H	0.962730	-0.329832	-0.769676
H66	H	0.933595	-0.949236	-0.224383
Br67	Br	0.627586	-0.570500	-0.216516
