data_functionalizedCrystal
_audit_creation_method	'MofGen! by Chris Wilmer'
_symmetry_space_group_name_H-M	'P1'
_symmetry_Int_Tables_number	1
_symmetry_cell_setting	triclinic
loop_
_symmetry_equiv_pos_as_xyz
  x,y,z
_cell_length_a	17.699083
_cell_length_b	10.065875
_cell_length_c	17.699083
_cell_angle_alpha	98.764376
_cell_angle_beta	96.716984
_cell_angle_gamma	98.723124
loop_
_atom_site_label
_atom_site_type_symbol
_atom_site_fract_x
_atom_site_fract_y
_atom_site_fract_z
O1	O	1.015153	0.113319	-0.084583
O2	O	0.794779	0.113366	-0.097031
O3	O	0.911189	0.113308	0.019379
O4	O	0.898743	0.113377	-0.200993
O5	O	0.888991	-0.113670	-0.002908
O6	O	0.772581	-0.113612	-0.119317
O7	O	0.992955	-0.113659	-0.106869
Zn8	Zn	0.879244	-0.149673	-0.116632
Zn9	Zn	0.908491	0.149380	-0.087268
O10	O	0.876545	-0.113601	-0.223279
C11	C	0.755484	-0.000117	-0.107727
C12	C	0.671467	-0.000101	-0.106387
N13	N	0.859289	-0.353768	-0.136671
C14	C	0.622849	-0.000080	-0.174718
C15	C	0.543904	-0.000098	-0.173458
C16	C	0.513580	-0.000127	-0.103864
C17	C	0.562205	-0.000152	-0.035528
C18	C	0.641147	-0.000144	-0.036790
C19	C	0.243838	-0.000187	-0.030436
C20	C	0.164890	-0.000192	-0.029179
C21	C	0.146594	-0.000141	-0.167104
C22	C	0.225537	-0.000133	-0.168366
C23	C	0.274154	-0.000165	-0.100031
C24	C	0.359755	-0.000148	-0.101399
C25	C	0.427981	-0.000134	-0.102495
C26	C	0.901543	-0.421568	-0.094236
C27	C	0.886191	-0.578728	-0.109664
C28	C	1.032251	-0.000173	-0.096173
C29	C	1.116268	-0.000180	-0.097512
C30	C	0.899643	-0.000187	0.036432
C31	C	0.898303	-0.000203	0.120449
N32	N	0.928451	0.353475	-0.067223
C33	C	0.966634	-0.000228	0.169067
C34	C	0.965372	-0.000231	0.248010
C35	C	0.895776	-0.000219	0.278332
C36	C	0.827441	-0.000189	0.229708
C37	C	0.828705	-0.000177	0.150767
C38	C	0.822340	-0.000239	0.548066
C39	C	0.821081	-0.000256	0.627013
C40	C	0.959007	-0.000293	0.645309
C41	C	0.960271	-0.000281	0.566368
C42	C	0.891937	-0.000244	0.517752
C43	C	0.893307	-0.000238	0.432153
C44	C	0.894404	-0.000234	0.363928
C45	C	0.888087	-0.000152	0.759663
C46	C	0.889414	-0.000271	0.675633
H47	H	0.647531	-0.000055	-0.231389
O48	O	0.496789	-0.000015	-0.239899
C49	C	0.486966	-0.000041	-0.376847
C50	C	0.540412	-0.000098	-0.301653
H51	H	0.522210	-0.000137	-0.426797
H52	H	0.458843	0.094965	-0.370427
H53	H	0.440258	-0.095015	-0.388991
H54	H	0.587162	0.094812	-0.289465
H55	H	0.568477	-0.095166	-0.308110
H56	H	0.250222	-0.000103	-0.225036
H57	H	0.764405	-0.000248	0.651697
H58	H	0.107000	-0.000122	-0.222746
H59	H	0.811746	-0.412071	-0.184422
O60	O	1.031811	-0.000326	0.295123
C61	C	1.168759	-0.000303	0.304947
C62	C	1.093567	-0.000227	0.251502
H63	H	1.218711	-0.000194	0.269703
H64	H	1.162372	-0.095321	0.333023
H65	H	1.180868	0.094658	0.351698
H66	H	1.081414	-0.095124	0.204709
H67	H	1.099992	0.094854	0.223483
H68	H	0.766698	-0.000209	0.508491
H69	H	0.773063	-0.000156	0.111182
O70	O	0.135539	-0.000048	0.038493
C71	C	0.138475	0.117523	0.168301
C72	C	0.171795	0.117511	0.091719
H73	H	0.167762	0.212573	0.211349
H74	H	0.149250	0.022581	0.192788
H75	H	0.073697	0.117462	0.157437
H76	H	0.236578	0.117620	0.102518
H77	H	0.160960	0.212445	0.067255
H78	H	0.975992	-0.588228	-0.019464
H79	H	0.949081	-0.363268	-0.046480
H80	H	1.016942	-0.000298	0.541684
H81	H	0.770776	-0.000171	0.254403
H82	H	0.537507	-0.000196	0.021134
O83	O	0.291162	-0.000258	0.035868
C84	C	0.420894	-0.000165	0.095073
C85	C	0.367379	-0.000126	0.019920
H86	H	0.482530	-0.000029	0.082209
H87	H	0.400659	-0.095184	0.120015
H88	H	0.419114	0.094795	0.138648
H89	H	0.369134	-0.095022	-0.023710
H90	H	0.387631	0.094956	-0.004958
O91	O	0.688277	-0.000096	0.029663
C92	C	0.698090	-0.000223	0.166597
C93	C	0.644634	-0.000239	0.091397
H94	H	0.662824	-0.000368	0.216525
H95	H	0.744776	0.094791	0.178836
H96	H	0.726242	-0.095189	0.160087
H97	H	0.616428	0.094662	0.097850
H98	H	0.597994	-0.095317	0.079183
O99	O	1.025459	-0.000130	0.692480
C100	C	1.154448	0.117465	0.743845
C101	C	1.079247	0.117438	0.690388
H102	H	1.197950	0.212523	0.742184
H103	H	1.179472	0.022530	0.723512
H104	H	1.141570	0.117398	0.805463
H105	H	1.092061	0.117553	0.628756
H106	H	1.054245	0.212364	0.710786
H107	H	0.838645	-0.637025	-0.157418
H108	H	1.023306	-0.000247	0.144385
