data_functionalizedCrystal
_audit_creation_method	'MofGen! by Chris Wilmer'
_symmetry_space_group_name_H-M	'P1'
_symmetry_Int_Tables_number	1
_symmetry_cell_setting	triclinic
loop_
_symmetry_equiv_pos_as_xyz
  x,y,z
_cell_length_a	10.654541
_cell_length_b	12.503572
_cell_length_c	10.654545
_cell_angle_alpha	93.559718
_cell_angle_beta	95.515322
_cell_angle_gamma	93.551091
loop_
_atom_site_label
_atom_site_type_symbol
_atom_site_fract_x
_atom_site_fract_y
_atom_site_fract_z
O1	O	1.675021	0.089282	-0.169185
O2	O	1.309542	0.089291	-0.185993
O3	O	1.500684	0.089285	0.005150
O4	O	1.483879	0.089287	-0.360328
O5	O	1.486309	-0.089356	-0.009249
O6	O	1.295168	-0.089351	-0.200393
O7	O	1.660646	-0.089360	-0.183584
Cu8	Cu	1.476594	-0.105667	-0.193303
Cu9	Cu	1.493594	0.105598	-0.176274
O10	O	1.469504	-0.089354	-0.374728
C11	C	1.255557	-0.000029	-0.191959
C12	C	1.116114	-0.000026	-0.188268
N13	N	1.464647	-0.254259	-0.205279
C14	C	1.088145	-0.000011	-0.416832
C15	C	1.008652	0.000001	-0.529374
C16	C	0.877634	0.000002	-0.525898
C17	C	0.826107	-0.000012	-0.409868
C18	C	0.905600	-0.000024	-0.297326
C19	C	1.036620	-0.000022	-0.300814
C20	C	0.933568	-0.000046	-0.068766
C21	C	1.064587	-0.000039	-0.072238
C22	C	0.882041	-0.000060	0.047264
C23	C	0.961535	-0.000064	0.159809
C24	C	1.092560	-0.000064	0.156329
C25	C	1.144080	-0.000051	0.040304
C26	C	1.447071	-0.473373	-0.222908
C27	C	1.523123	-0.526703	-0.146664
C28	C	1.513344	-0.648626	-0.156473
C29	C	1.456849	-0.351440	-0.213101
C30	C	1.714631	-0.000038	-0.177618
C31	C	1.854075	-0.000034	-0.181308
C32	C	1.492262	-0.000034	0.044749
C33	C	1.488570	-0.000027	0.184192
N34	N	1.505551	0.254189	-0.164288
C35	C	1.477926	-0.000033	-0.414326
C36	C	1.481619	-0.000033	-0.553769
C37	C	1.504257	0.194733	0.199899
C38	C	1.510370	0.292113	0.273263
C39	C	1.506901	0.292115	0.404281
C40	C	1.497314	0.194725	0.461939
C41	C	1.491201	0.097346	0.388575
C42	C	1.494675	0.097355	0.257555
C43	C	1.475505	-0.097412	0.372868
C44	C	1.478983	-0.097416	0.241850
C45	C	1.465918	-0.194801	0.430525
C46	C	1.459814	-0.292184	0.357162
C47	C	1.463285	-0.292181	0.226136
C48	C	1.472870	-0.194796	0.168486
H49	H	1.194827	0.000012	-0.419671
H50	H	1.458287	-0.371480	0.166408
C51	C	1.513623	0.399231	0.484987
C52	C	1.404529	0.426018	0.563907
C53	C	1.411249	0.533134	0.644612
C54	C	1.527062	0.613464	0.646395
C55	C	1.636164	0.586680	0.567472
C56	C	1.629444	0.479563	0.486767
H57	H	1.318790	0.366551	0.562590
H58	H	1.330484	0.552961	0.703036
H59	H	1.532037	0.692758	0.706137
H60	H	1.721903	0.646146	0.568789
H61	H	1.710209	0.459736	0.428343
H62	H	0.919570	-0.000074	0.254272
C63	C	1.349202	-0.535384	-0.321046
C64	C	1.338604	-0.659066	-0.330018
C65	C	1.240740	-0.721091	-0.428160
C66	C	1.153475	-0.659434	-0.517330
C67	C	1.164070	-0.535745	-0.508361
C68	C	1.261934	-0.473720	-0.410219
H69	H	1.403206	-0.704715	-0.264007
H70	H	1.232897	-0.812654	-0.434799
H71	H	1.081030	-0.705349	-0.589980
H72	H	1.099468	-0.490096	-0.574372
H73	H	1.269776	-0.382157	-0.403580
C74	C	1.520923	0.399236	0.209837
C75	C	1.635787	0.479558	0.247645
C76	C	1.646338	0.586680	0.184223
C77	C	1.542025	0.613480	0.082993
C78	C	1.427153	0.533156	0.045180
C79	C	1.416602	0.426034	0.108602
H80	H	1.713013	0.459721	0.322586
H81	H	1.731374	0.646141	0.212216
H82	H	1.549836	0.692778	0.036045
H83	H	1.349928	0.552993	-0.029761
H84	H	1.331566	0.366573	0.080609
C85	C	1.621015	-0.464687	-0.048538
C86	C	1.630725	-0.341001	-0.038678
C87	C	1.728616	-0.278979	0.059439
C88	C	1.816797	-0.340644	0.147696
C89	C	1.807090	-0.464338	0.137839
C90	C	1.709198	-0.526359	0.039722
H91	H	1.565445	-0.295346	-0.104014
H92	H	1.735802	-0.187413	0.066735
H93	H	1.889262	-0.294732	0.220329
H94	H	1.872369	-0.509992	0.203175
H95	H	1.702013	-0.617926	0.032426
H96	H	0.719423	-0.000024	-0.407050
H97	H	1.494475	0.194735	0.568620
H98	H	1.050620	0.000009	-0.623844
H99	H	0.812910	0.000004	-0.617541
H100	H	0.775358	-0.000065	0.050085
H101	H	1.507097	0.194742	0.093219
H102	H	1.157277	-0.000077	0.247975
H103	H	1.250761	-0.000038	0.037460
H104	H	1.463087	-0.194793	0.537207
H105	H	1.452000	-0.371470	0.404117
H106	H	1.475702	-0.194784	0.061806
