data_functionalizedCrystal
_audit_creation_method	'MofGen! by Chris Wilmer'
_symmetry_space_group_name_H-M	'P1'
_symmetry_Int_Tables_number	1
_symmetry_cell_setting	triclinic
loop_
_symmetry_equiv_pos_as_xyz
  x,y,z
_cell_length_a	14.853566
_cell_length_b	14.971506
_cell_length_c	13.448316
_cell_angle_alpha	89.994977
_cell_angle_beta	89.996091
_cell_angle_gamma	83.628401
loop_
_atom_site_label
_atom_site_type_symbol
_atom_site_fract_x
_atom_site_fract_y
_atom_site_fract_z
O1	O	1.196355	0.116775	-0.082623
O2	O	1.696355	0.616775	0.417377
O3	O	0.933894	0.130687	-0.082639
O4	O	1.433894	0.630687	0.417361
O5	O	1.072150	-0.006466	-0.082628
O6	O	1.572150	0.493534	0.417372
O7	O	1.058099	0.253929	-0.082634
O8	O	1.558099	0.753929	0.417366
O9	O	1.072132	-0.006475	0.082756
O10	O	1.572132	0.493525	0.582756
O11	O	0.933877	0.130679	0.082745
O12	O	1.433877	0.630679	0.582745
O13	O	1.196338	0.116767	0.082761
O14	O	1.696338	0.616767	0.582761
Cu15	Cu	1.065106	0.123722	0.097854
Cu16	Cu	1.565106	0.623722	0.597854
Cu17	Cu	1.065126	0.123732	-0.097731
Cu18	Cu	1.565126	0.623732	0.402269
O19	O	1.058082	0.253920	0.082750
O20	O	1.558082	0.753920	0.582750
C21	C	1.071509	-0.039795	0.000063
C22	C	1.571509	0.460205	0.500063
C23	C	1.069617	-0.139092	0.000058
C24	C	1.569617	0.360908	0.500058
C25	C	0.900297	0.130053	0.000051
C26	C	1.400297	0.630053	0.500051
C27	C	0.800213	0.128165	0.000045
C28	C	1.300213	0.628165	0.500045
C29	C	1.143616	-0.577361	0.000063
C30	C	1.643616	-0.077361	0.500063
C31	C	1.145388	-0.484060	0.000070
C32	C	1.645388	0.015940	0.500070
C33	C	1.064157	-0.426855	0.000062
C34	C	1.564157	0.073145	0.500062
C35	C	0.981150	-0.462954	0.000057
C36	C	1.481150	0.037046	0.500057
C37	C	0.979379	-0.556253	0.000057
C38	C	1.479379	-0.056253	0.500057
C39	C	0.984846	-0.268490	0.000053
C40	C	1.484846	0.231510	0.500053
C41	C	0.986616	-0.175185	0.000051
C42	C	1.486616	0.324815	0.500051
C43	C	1.150854	-0.196298	0.000066
C44	C	1.650854	0.303702	0.500066
C45	C	1.149083	-0.289597	0.000066
C46	C	1.649083	0.210403	0.500066
C47	C	1.066076	-0.325689	0.000060
C48	C	1.566076	0.174311	0.500060
C49	C	0.377039	0.120182	-0.090088
C50	C	0.877039	0.620182	0.409912
C51	C	0.377041	0.120173	0.090220
C52	C	0.877041	0.620173	0.590220
C53	C	0.471075	0.121947	0.090217
C54	C	0.971075	0.621947	0.590217
C55	C	0.518095	0.122839	0.000060
C56	C	1.018095	0.622839	0.500060
C57	C	0.471081	0.121958	-0.090094
C58	C	0.971081	0.621958	0.409906
C59	C	0.518095	0.122837	0.180369
C60	C	1.018095	0.622837	0.680369
C61	C	0.612134	0.124611	0.180369
C62	C	1.112134	0.624611	0.680369
C63	C	0.659157	0.125497	0.090211
C64	C	1.159157	0.625497	0.590211
C65	C	0.612137	0.124615	0.000054
C66	C	1.112137	0.624615	0.500054
C67	C	0.659157	0.125508	-0.090103
C68	C	1.159157	0.625508	0.409897
C69	C	0.612140	0.124619	-0.180261
C70	C	1.112140	0.624619	0.319739
C71	C	0.518103	0.122844	-0.180252
C72	C	1.018103	0.622844	0.319748
C73	C	0.753193	0.127272	0.090202
C74	C	1.253193	0.627272	0.590202
C75	C	0.753199	0.127284	-0.090109
C76	C	1.253199	0.627284	0.409891
C77	C	1.229935	0.117401	0.000069
C78	C	1.729935	0.617401	0.500069
C79	C	1.330019	0.119289	0.000069
C80	C	1.830019	0.619289	0.500069
C81	C	1.058722	0.287249	0.000058
C82	C	1.558722	0.787249	0.500058
C83	C	1.060615	0.386546	0.000056
C84	C	1.560615	0.886546	0.500056
N85	N	1.065098	0.123714	0.235418
N86	N	1.565098	0.623714	0.735418
N87	N	1.065141	0.123733	-0.235296
N88	N	1.565141	0.623733	0.264704
C89	C	1.126336	0.063008	0.287464
C90	C	1.626336	0.563008	0.787464
C91	C	1.126342	0.063007	0.391567
C92	C	1.626342	0.563007	0.891567
C93	C	1.065113	0.123718	0.443623
C94	C	1.565113	0.623718	0.943623
C95	C	1.003867	0.184428	0.391570
C96	C	1.503867	0.684428	0.891570
C97	C	1.003858	0.184423	0.287469
C98	C	1.503858	0.684423	0.787469
C99	C	1.003892	0.184434	0.608551
C100	C	1.503892	0.684434	1.108551
C101	C	1.003903	0.184439	0.712659
C102	C	1.503903	0.684439	1.212659
C103	C	1.126376	0.063017	0.712648
C104	C	1.626376	0.563017	1.212648
C105	C	1.126367	0.063013	0.608547
C106	C	1.626367	0.563013	1.108547
C107	C	1.065123	0.123724	0.556502
C108	C	1.565123	0.623724	1.056502
H109	H	1.209764	-0.623932	0.000062
H110	H	1.709764	-0.123932	0.500062
H111	H	0.479803	0.122116	0.253770
H112	H	0.979803	0.622116	0.753770
H113	H	0.338751	0.119453	0.163621
H114	H	0.838751	0.619453	0.663621
H115	H	0.954042	0.233875	0.755038
H116	H	1.454042	0.733875	1.255038
H117	H	0.953990	0.233856	0.245095
H118	H	1.453990	0.733856	0.745095
N119	N	0.803904	0.128240	0.187430
N120	N	1.303904	0.628240	0.687430
H121	H	0.759847	0.127411	0.244545
H122	H	1.259847	0.627411	0.744545
H123	H	0.850165	0.073572	0.191364
H124	H	1.350165	0.573572	0.691364
H125	H	0.911791	-0.585638	0.000059
H126	H	1.411791	-0.085638	0.500059
N127	N	0.662842	0.125572	0.277605
N128	N	1.162842	0.625572	0.777605
H129	H	0.618784	0.124739	0.334718
H130	H	1.118784	0.624739	0.834718
H131	H	0.709102	0.070902	0.281534
H132	H	1.209102	0.570902	0.781534
N133	N	0.937834	0.249909	0.552412
N134	N	1.437834	0.749909	1.052412
H135	H	0.899048	0.288372	0.601184
H136	H	1.399048	0.788372	1.101184
H137	H	0.972387	0.289512	0.509207
H138	H	1.472387	0.789512	1.009207
N139	N	0.467382	0.121897	-0.277480
N140	N	0.967382	0.621897	0.222520
H141	H	0.476504	0.177612	-0.316895
H142	H	0.976504	0.677612	0.183105
H143	H	0.491007	0.066769	-0.316820
H144	H	0.991007	0.566769	0.183180
H145	H	1.176200	0.013574	0.245086
H146	H	1.676200	0.513574	0.745086
H147	H	1.176207	0.013575	0.433942
H148	H	1.676207	0.513575	0.933942
H149	H	0.915010	-0.416370	0.000056
H150	H	1.415010	0.083630	0.500056
H151	H	0.338754	0.119455	-0.163493
H152	H	0.838754	0.619455	0.336507
N153	N	0.937831	0.249908	0.447721
N154	N	1.437831	0.749908	0.947721
H155	H	0.948280	0.313409	0.429590
H156	H	1.448280	0.813409	0.929590
H157	H	0.873864	0.239411	0.429601
H158	H	1.373864	0.739411	0.929601
H159	H	1.176229	0.013582	0.566163
H160	H	1.676229	0.513582	1.066163
H161	H	1.218442	-0.166907	-0.000020
H162	H	1.718442	0.333093	0.499980
N163	N	1.234910	-0.445130	0.000084
N164	N	1.734910	0.054870	0.500084
H165	H	1.286099	-0.495527	0.000084
H166	H	1.786099	0.004473	0.500084
H167	H	1.239230	-0.406872	-0.061223
H168	H	1.739230	0.093128	0.438777
N169	N	1.236693	-0.351300	0.000071
N170	N	1.736693	0.148700	0.500071
H171	H	1.289547	-0.314280	0.000079
H172	H	1.789547	0.185720	0.500079
H173	H	1.239521	-0.390472	0.061383
H174	H	1.739521	0.109528	0.561383
N175	N	1.192436	-0.002463	0.768775
N176	N	1.692436	0.497537	1.268775
H177	H	1.183151	0.006746	0.842622
H178	H	1.683151	0.506746	1.342622
H179	H	1.181957	-0.065938	0.750588
H180	H	1.681957	0.434062	1.250588
H181	H	0.917252	-0.297873	0.000061
H182	H	1.417252	0.202127	0.500061
N183	N	0.899017	-0.113465	0.000057
N184	N	1.399017	0.386535	0.500057
H185	H	0.862799	-0.125070	-0.061246
H186	H	1.362799	0.374930	0.438754
H187	H	0.862878	-0.125110	0.061410
H188	H	1.362878	0.374890	0.561410
N189	N	0.803913	0.128235	-0.187351
N190	N	1.303913	0.628235	0.312649
H191	H	0.759857	0.127401	-0.244459
H192	H	1.259857	0.627401	0.255541
H193	H	0.835683	0.184378	-0.191289
H194	H	1.335683	0.684378	0.308711
N195	N	0.662852	0.125583	-0.277503
N196	N	1.162852	0.625583	0.222497
H197	H	0.694620	0.181725	-0.281524
H198	H	1.194620	0.681725	0.218476
H199	H	0.709070	0.070882	-0.281458
H200	H	1.209070	0.570882	0.218542
