data_functionalizedCrystal
_audit_creation_method	'MofGen! by Chris Wilmer'
_symmetry_space_group_name_H-M	'P1'
_symmetry_Int_Tables_number	1
_symmetry_cell_setting	triclinic
loop_
_symmetry_equiv_pos_as_xyz
  x,y,z
_cell_length_a	14.908571
_cell_length_b	14.908520
_cell_length_c	14.908308
_cell_angle_alpha	83.639235
_cell_angle_beta	89.824947
_cell_angle_gamma	90.205961
loop_
_atom_site_label
_atom_site_type_symbol
_atom_site_fract_x
_atom_site_fract_y
_atom_site_fract_z
Zn1	Zn	1.316651	-0.470613	0.613065
Zn2	Zn	1.316549	-0.613252	0.470429
Zn3	Zn	1.176020	-0.453291	0.453125
Zn4	Zn	1.157642	-0.612180	0.612023
O5	O	1.241715	-0.537334	0.537161
O6	O	1.441995	-0.497231	0.601822
O7	O	1.305556	-0.585232	0.341941
O8	O	1.202409	-0.329399	0.467536
O9	O	1.441920	-0.602028	0.497029
O10	O	1.305730	-0.342124	0.585043
O11	O	1.202310	-0.467710	0.329228
O12	O	1.048225	-0.466671	0.466525
O13	O	1.171086	-0.600202	0.738354
O14	O	1.034722	-0.583406	0.583267
O15	O	1.287909	-0.496192	0.739120
O16	O	1.287736	-0.739300	0.496018
O17	O	1.170987	-0.738513	0.600046
C18	C	1.008970	-0.523043	0.522906
C19	C	0.909397	-0.516953	0.516830
C20	C	0.708277	-0.627234	0.626831
C21	C	0.614720	-0.621514	0.621125
C22	C	0.628723	-0.499789	0.499719
C23	C	0.722281	-0.505509	0.505424
C24	C	0.762054	-0.569235	0.568981
C25	C	0.855613	-0.574958	0.574682
C26	C	0.869615	-0.453230	0.453280
C27	C	0.776058	-0.447510	0.447575
C28	C	1.227379	-0.771629	0.549818
C29	C	1.221326	-0.871868	0.555268
C30	C	1.331634	-1.060998	0.457284
C31	C	1.325950	-1.155181	0.462402
C32	C	1.204279	-1.154420	0.570626
C33	C	1.209963	-1.060237	0.565508
C34	C	1.273642	-1.013529	0.508834
C35	C	1.279321	-0.919343	0.503712
C36	C	1.157655	-0.918584	0.611940
C37	C	1.151970	-1.012768	0.617058
C38	C	1.475370	-0.551681	0.551472
C39	C	1.574939	-0.557795	0.557571
C40	C	1.227459	-0.550010	0.772372
C41	C	1.221383	-0.555411	0.872606
C42	C	1.256131	-0.302127	0.524476
C43	C	1.262274	-0.201896	0.519070
C44	C	1.255972	-0.524646	0.302864
C45	C	1.262236	-0.519001	0.202628
C46	C	1.331614	-0.457236	1.061752
C47	C	1.325908	-0.462308	1.155930
C48	C	1.204264	-0.570623	1.155141
C49	C	1.209969	-0.565551	1.060963
C50	C	1.273647	-0.508856	1.014272
C51	C	1.279356	-0.503789	0.920093
C52	C	1.157708	-0.612099	0.919305
C53	C	1.152002	-0.617171	1.013483
H54	H	0.596323	-0.447902	0.447979
O55	O	0.562612	-0.677949	0.677362
C56	C	0.558600	-0.799244	0.798426
C57	C	0.617717	-0.735402	0.734773
H58	H	0.603127	-0.845698	0.844872
H59	H	0.514444	-0.841489	0.756875
H60	H	0.514452	-0.757758	0.840698
H61	H	0.661918	-0.776817	0.692488
H62	H	0.661813	-0.693155	0.776377
O63	O	1.101191	-0.872497	0.661915
C64	C	0.947854	-0.836850	0.694687
C65	C	1.011699	-0.889074	0.638024
H66	H	0.875486	-0.850249	0.675405
H67	H	0.962775	-0.761495	0.681282
H68	H	0.958042	-0.860194	0.769378
H69	H	1.001548	-0.865806	0.563316
H70	H	0.996763	-0.964420	0.651505
O71	O	1.341233	-0.448641	0.874871
C72	C	1.461315	-0.341778	0.885602
C73	C	1.391268	-0.404183	0.936923
H74	H	1.501800	-0.305831	0.935750
H75	H	1.425789	-0.289673	0.836472
H76	H	1.508258	-0.383686	0.846587
H77	H	1.344306	-0.362350	0.975991
H78	H	1.426854	-0.456291	0.986000
O79	O	1.382266	-1.201439	0.412446
C80	C	1.427462	-1.346873	0.372396
C81	C	1.363621	-1.294599	0.429016
H82	H	1.412398	-1.422200	0.385759
H83	H	1.499840	-1.333618	0.391754
H84	H	1.417370	-1.323484	0.297701
H85	H	1.373633	-1.317956	0.503726
H86	H	1.291266	-1.307854	0.409583
H87	H	1.383467	-0.411077	1.023736
O88	O	1.341219	-0.873880	0.448785
C89	C	1.469364	-0.774258	0.438392
C90	C	1.399302	-0.825676	0.500695
H91	H	1.516354	-0.735288	0.480339
H92	H	1.433850	-0.725098	0.386305
H93	H	1.509796	-0.824383	0.402409
H94	H	1.358849	-0.775619	0.536740
H95	H	1.434870	-0.874850	0.552728
O96	O	1.090031	-0.672137	1.058788
C97	C	0.933230	-0.708162	1.080594
C98	C	1.003315	-0.645830	1.029240
H99	H	0.863106	-0.686927	1.056711
H100	H	0.939027	-0.702914	1.156068
H101	H	0.945683	-0.780840	1.066978
H102	H	0.990907	-0.573126	1.042783
H103	H	0.997501	-0.651156	0.953782
H104	H	1.152440	-1.192467	0.616773
H105	H	1.373109	-0.420271	1.194585
H106	H	1.383478	-1.022967	0.411132
H107	H	0.740661	-0.679126	0.678577
O108	O	0.737373	-0.385731	0.385750
C109	C	0.639793	-0.360394	0.256950
C110	C	0.683559	-0.430454	0.326900
H111	H	0.596259	-0.396524	0.209364
H112	H	0.694262	-0.319930	0.216513
H113	H	0.596405	-0.312846	0.293235
H114	H	0.726940	-0.478060	0.290687
H115	H	0.629044	-0.470851	0.367334
O116	O	0.921987	-0.396927	0.397175
C117	C	1.072322	-0.351838	0.352109
C118	C	1.013118	-0.415633	0.415719
H119	H	1.146014	-0.366951	0.367066
H120	H	1.057475	-0.278864	0.363011
H121	H	1.057298	-0.362510	0.279104
H122	H	1.028108	-0.405041	0.488747
H123	H	1.027976	-0.488584	0.404738
H124	H	1.152420	-0.616780	1.193173
H125	H	1.110509	-0.654134	0.880636
O126	O	0.894210	-0.636764	0.636542
C127	C	0.910848	-0.690805	0.793993
C128	C	0.867100	-0.620745	0.724029
H129	H	0.888931	-0.677891	0.864741
H130	H	0.986960	-0.684936	0.788214
H131	H	0.888991	-0.761505	0.780806
H132	H	0.888886	-0.550014	0.737171
H133	H	0.790995	-0.626695	0.729824
O134	O	1.090140	-1.058279	0.672030
C135	C	1.027493	-1.203040	0.727917
C136	C	1.097547	-1.151613	0.665611
H137	H	1.033471	-1.278510	0.722764
H138	H	0.957328	-1.179373	0.706588
H139	H	1.039862	-1.189306	0.800584
H140	H	1.085263	-1.165323	0.592927
H141	H	1.167689	-1.175287	0.687018
