data_functionalizedCrystal
_audit_creation_method	'MofGen! by Chris Wilmer'
_symmetry_space_group_name_H-M	'P1'
_symmetry_Int_Tables_number	1
_symmetry_cell_setting	triclinic
loop_
_symmetry_equiv_pos_as_xyz
  x,y,z
_cell_length_a	10.967874
_cell_length_b	10.967829
_cell_length_c	18.366186
_cell_angle_alpha	77.865925
_cell_angle_beta	77.862272
_cell_angle_gamma	82.165976
loop_
_atom_site_label
_atom_site_type_symbol
_atom_site_fract_x
_atom_site_fract_y
_atom_site_fract_z
O1	O	1.657253	0.175044	-0.290450
O2	O	2.157253	0.675044	0.209550
O3	O	1.294090	0.191795	-0.246987
O4	O	1.794090	0.691795	0.253013
O5	O	1.484043	0.001840	-0.246983
O6	O	1.984043	0.501840	0.253017
O7	O	1.467300	0.364999	-0.290455
O8	O	1.967300	0.864999	0.209545
O9	O	1.484010	0.001831	-0.125878
O10	O	1.984010	0.501831	0.374122
O11	O	1.294057	0.191786	-0.125882
O12	O	1.794057	0.691786	0.374118
O13	O	1.657220	0.175035	-0.169346
O14	O	2.157220	0.675035	0.330654
Zn15	Zn	1.475634	0.183409	-0.128386
Zn16	Zn	1.975634	0.683409	0.371614
Zn17	Zn	1.475677	0.183421	-0.287947
Zn18	Zn	1.975677	0.683421	0.212053
O19	O	1.467267	0.364990	-0.169350
O20	O	1.967267	0.864990	0.330650
C21	C	1.247572	0.190571	-0.180447
C22	C	1.747572	0.690571	0.319553
C23	C	1.109014	0.186922	-0.162604
C24	C	1.609014	0.686922	0.337396
C25	C	1.482806	-0.044665	-0.180443
C26	C	1.982806	0.455335	0.319557
C27	C	1.479154	-0.183222	-0.162602
C28	C	1.979154	0.316778	0.337398
C29	C	1.047257	0.185300	-0.217385
C30	C	1.547257	0.685300	0.282615
C31	C	0.904050	0.181529	-0.198946
C32	C	1.404050	0.681529	0.301054
C33	C	1.477542	-0.244984	-0.217385
C34	C	1.977542	0.255016	0.282615
C35	C	1.473768	-0.388190	-0.198946
C36	C	1.973768	0.111810	0.301054
C37	C	1.703738	0.176259	-0.235887
C38	C	2.203738	0.676259	0.264113
C39	C	1.842296	0.179908	-0.253735
C40	C	2.342296	0.679908	0.246265
C41	C	1.468504	0.411495	-0.235891
C42	C	1.968504	0.911495	0.264109
C43	C	1.472157	0.550052	-0.253737
C44	C	1.972157	1.050052	0.246263
N45	N	1.475613	0.183399	-0.019491
N46	N	1.975613	0.683399	0.480509
N47	N	1.475707	0.183421	-0.396841
N48	N	1.975707	0.683421	0.103159
C49	C	1.559753	0.099329	0.018602
C50	C	2.059753	0.599329	0.518602
C51	C	1.559760	0.099323	0.094830
C52	C	2.059760	0.599323	0.594830
C53	C	1.475641	0.183410	0.132957
C54	C	1.975641	0.683410	0.632957
C55	C	1.391486	0.267486	0.094855
C56	C	1.891486	0.767486	0.594855
C57	C	1.391472	0.267481	0.018632
C58	C	1.891472	0.767481	0.518632
C59	C	1.460267	0.296924	0.241401
C60	C	1.960267	0.796924	0.741401
C61	C	1.460290	0.296931	0.317622
C62	C	1.960290	0.796931	0.817622
C63	C	1.475677	0.183426	0.368058
C64	C	1.975677	0.683426	0.868058
C65	C	1.491067	0.069908	0.342260
C66	C	1.991067	0.569908	0.842260
C67	C	1.491053	0.069903	0.266036
C68	C	1.991053	0.569903	0.766036
C69	C	1.475646	0.183424	0.215609
C70	C	1.975646	0.683424	0.715609
C71	C	1.559829	0.099343	0.488806
C72	C	2.059829	0.599343	0.988806
C73	C	1.559828	0.099335	0.565037
C74	C	2.059828	0.599335	1.065037
C75	C	1.391560	0.267509	0.565058
C76	C	1.891560	0.767509	1.065058
C77	C	1.391555	0.267505	0.488832
C78	C	1.891555	0.767505	0.988832
C79	C	1.475696	0.183424	0.450709
C80	C	1.975696	0.683424	0.950709
H81	H	1.100405	0.186711	-0.277938
H82	H	1.600405	0.686711	0.222062
Br83	Br	1.673958	-0.014783	0.146538
Br84	Br	2.173958	0.485217	0.646538
H85	H	0.895437	0.181320	-0.314291
H86	H	1.395437	0.681320	0.185709
H87	H	1.478952	-0.191840	-0.277936
H88	H	1.978952	0.308160	0.222064
H89	H	1.473557	-0.396810	-0.314291
H90	H	1.973557	0.103190	0.185709
H91	H	1.503596	-0.022519	0.383324
H92	H	2.003596	0.477481	0.883324
Br93	Br	1.511928	-0.084148	0.231027
Br94	Br	2.011928	0.415852	0.731027
H95	H	1.477731	-0.236364	-0.102050
H96	H	1.977731	0.263636	0.397950
Br97	Br	1.673936	-0.014783	-0.033135
Br98	Br	2.173936	0.485217	0.466865
Br99	Br	0.815481	0.179205	-0.098016
Br100	Br	1.315481	0.679205	0.401984
Br101	Br	1.277313	0.381596	0.146598
Br102	Br	1.777313	0.881596	0.646598
H103	H	1.628338	0.030874	0.457767
H104	H	2.128338	0.530874	0.957767
H105	H	1.055864	0.185526	-0.102054
H106	H	1.555864	0.685526	0.397946
Br107	Br	1.471394	-0.476744	-0.098013
Br108	Br	1.971394	0.023256	0.401987
H109	H	1.628341	0.030869	0.596054
H110	H	2.128341	0.530869	1.096054
Br111	Br	1.277383	0.381614	0.616799
Br112	Br	1.777383	0.881614	1.116799
H113	H	1.323045	0.335968	0.457813
H114	H	1.823045	0.835968	0.957813
H115	H	1.447766	0.389364	0.338619
H116	H	1.947766	0.889364	0.838619
H117	H	1.447716	0.389360	0.200343
H118	H	1.947716	0.889360	0.700343
H119	H	1.322954	0.335942	-0.012385
H120	H	1.822954	0.835942	0.487615
