data_functionalizedCrystal
_audit_creation_method	'MofGen! by Chris Wilmer'
_symmetry_space_group_name_H-M	'P1'
_symmetry_Int_Tables_number	1
_symmetry_cell_setting	triclinic
loop_
_symmetry_equiv_pos_as_xyz
  x,y,z
_cell_length_a	34.571875
_cell_length_b	34.571051
_cell_length_c	34.567439
_cell_angle_alpha	60.004367
_cell_angle_beta	60.008842
_cell_angle_gamma	59.994195
loop_
_atom_site_label
_atom_site_type_symbol
_atom_site_fract_x
_atom_site_fract_y
_atom_site_fract_z
O1	O	0.053721	-0.565181	0.472559
O2	O	0.020283	-0.440038	0.380761
O3	O	0.099534	-0.519209	0.380676
O4	O	-0.025530	-0.486010	0.472643
O5	O	0.125831	-0.492917	0.406885
O6	O	0.046580	-0.413746	0.406969
O7	O	0.080018	-0.538889	0.498767
Zn8	Zn	0.067475	-0.472143	0.457030
Zn9	Zn	0.032827	-0.506784	0.422498
O10	O	0.000767	-0.459718	0.498852
N11	N	0.091122	-0.448505	0.480598
N12	N	0.009184	-0.530426	0.398930
C13	C	0.124402	-0.415465	0.717633
C14	C	0.328327	-0.415388	0.513477
C15	C	0.124221	-0.415437	0.513630
C16	C	0.124201	-0.211364	0.513624
C17	C	0.157075	-0.309853	0.546423
C18	C	0.157084	-0.382601	0.546423
C19	C	0.175289	-0.364414	0.564591
C20	C	0.254624	-0.350722	0.522790
C21	C	0.304220	-0.367243	0.506229
C22	C	0.304249	-0.447494	0.536832
C23	C	0.254655	-0.430972	0.553394
C24	C	0.169014	-0.285043	0.497667
C25	C	0.152454	-0.235444	0.481153
C26	C	0.112020	-0.235469	0.562154
C27	C	0.128580	-0.285068	0.578668
C28	C	0.108321	-0.370634	0.558439
C29	C	0.091776	-0.387168	0.541918
C30	C	0.172754	-0.427637	0.501375
C31	C	0.189301	-0.411103	0.517891
C32	C	0.108399	-0.370649	0.643978
C33	C	0.091911	-0.387197	0.693575
C34	C	0.172928	-0.427676	0.693511
C35	C	0.189415	-0.411128	0.643912
C36	C	0.157149	-0.382613	0.619147
C37	C	0.229844	-0.382585	0.546371
C38	C	0.105624	-0.433333	0.772186
C39	C	0.382878	-0.432925	0.495007
C40	C	0.105380	-0.433313	0.495792
C41	C	0.105683	-0.156808	0.496094
C42	C	-0.023527	-0.563458	0.161535
C43	C	-0.023851	-0.767445	0.365663
C44	C	-0.023821	-0.563448	0.365756
C45	C	-0.227785	-0.563229	0.365355
C46	C	-0.129302	-0.596153	0.332678
C47	C	-0.056593	-0.596234	0.332823
C48	C	-0.074746	-0.614396	0.314578
C49	C	-0.088477	-0.693710	0.356299
C50	C	-0.071982	-0.743310	0.372851
C51	C	0.008266	-0.743392	0.342376
C52	C	-0.008230	-0.693794	0.325823
C53	C	-0.154162	-0.608103	0.381422
C54	C	-0.203757	-0.591517	0.397874
C55	C	-0.203630	-0.551037	0.316836
C56	C	-0.154034	-0.567623	0.300384
C57	C	-0.068543	-0.547475	0.320829
C58	C	-0.052041	-0.530969	0.337421
C59	C	-0.011639	-0.611977	0.377990
C60	C	-0.028141	-0.628485	0.361404
C61	C	-0.068417	-0.547482	0.235199
C62	C	-0.051814	-0.530977	0.185602
C63	C	-0.011349	-0.611990	0.185649
C64	C	-0.027951	-0.628493	0.235248
C65	C	-0.056486	-0.596238	0.260022
C66	C	-0.056602	-0.668955	0.332787
C67	C	-0.005599	-0.544662	0.106983
C68	C	-0.006342	-0.821999	0.384121
C69	C	-0.005979	-0.544649	0.383673
C70	C	-0.282336	-0.544682	0.382817
N71	N	0.427518	-0.448428	0.480350
O72	O	0.589573	-0.456297	0.363634
O73	O	0.589761	-0.548399	0.488643
O74	O	0.589681	-0.548188	0.409364
O75	O	0.589654	-0.456508	0.442913
O76	O	0.510890	-0.521988	0.435708
O77	O	0.510970	-0.522199	0.514987
O78	O	0.510782	-0.430098	0.389978
Zn79	Zn	0.498366	-0.471989	0.456665
Zn80	Zn	0.602177	-0.506508	0.421956
O81	O	0.510862	-0.430308	0.469257
N82	N	0.673025	-0.530068	0.398267
N83	N	0.091092	-0.112167	0.480590
O84	O	-0.025539	0.049976	0.472612
O85	O	0.099472	0.050011	0.380491
O86	O	0.020155	0.049979	0.380751
O87	O	0.053778	0.050009	0.472352
O88	O	0.046458	-0.028818	0.407008
O89	O	0.125775	-0.028785	0.406748
O90	O	0.000764	-0.028821	0.498869
Zn91	Zn	0.067445	-0.041314	0.456977
Zn92	Zn	0.032791	0.062504	0.422382
O93	O	0.080081	-0.028788	0.498609
N94	N	0.009138	0.133358	0.398771
N95	N	0.091421	-0.448552	0.816827
O96	O	0.083469	-0.565164	0.978960
O97	O	-0.008614	-0.440110	0.979002
O98	O	-0.008399	-0.519410	0.978978
O99	O	0.083253	-0.485863	0.978984
O100	O	0.017837	-0.493128	0.900185
O101	O	0.017621	-0.413827	0.900208
O102	O	0.109704	-0.538881	0.900167
Zn103	Zn	0.067828	-0.472181	0.887677
Zn104	Zn	0.033262	-0.506810	0.991491
O105	O	0.109489	-0.459581	0.900191
N106	N	0.009668	-0.530444	1.062341
C107	C	0.030297	-0.411123	0.381218
C108	C	0.128439	-0.509167	0.381113
C109	C	0.070004	-0.567805	0.498310
C110	C	-0.028138	-0.469761	0.498415
C111	C	0.550388	-0.547982	0.517564
C112	C	0.550290	-0.547721	0.419387
C113	C	0.550153	-0.430514	0.361058
C114	C	0.550253	-0.430775	0.459234
C115	C	0.128339	0.010714	0.380902
C116	C	0.030148	0.010577	0.381256
C117	C	-0.028136	0.010574	0.498426
C118	C	0.070089	0.010613	0.498104
C119	C	-0.008178	-0.411214	0.939610
C120	C	-0.007906	-0.509413	0.939566
C121	C	0.109268	-0.567777	0.939558
C122	C	0.109002	-0.469572	0.939586
H123	H	0.082121	-0.347425	0.623816
O124	O	0.550180	-0.396356	0.467757
C125	C	0.509333	-0.356432	0.462551
H126	H	0.495699	-0.356814	0.438811
H127	H	0.518476	-0.322789	0.445832
H128	H	0.480794	-0.357408	0.498799
H129	H	0.137795	-0.462392	0.939581
H130	H	0.011532	-0.638242	0.401256
O131	O	0.078518	-0.610726	0.532665
C132	C	0.089655	-0.646407	0.516400
H133	H	0.074380	-0.630245	0.486971
H134	H	0.073816	-0.674767	0.546935
H135	H	0.129773	-0.663061	0.502144
O136	O	-0.070930	0.010482	0.532968
C137	C	-0.064657	-0.030318	0.572890
H138	H	-0.029966	-0.058838	0.561466
H139	H	-0.095384	-0.044026	0.589865
H140	H	-0.063550	-0.021083	0.599620
O141	O	0.550282	-0.582023	0.410755
C142	C	0.550236	-0.564766	0.364194
H143	H	0.535279	-0.524411	0.351748
H144	H	0.527366	-0.579213	0.363532
H145	H	0.588024	-0.576719	0.339653
H146	H	-0.064060	-0.462687	0.527292
O147	O	0.078764	0.010592	0.532396
C148	C	0.125329	0.010617	0.515114
H149	H	0.147725	-0.004292	0.484696
H150	H	0.141297	-0.012262	0.544771
H151	H	0.124621	0.048422	0.501901
O152	O	0.204336	-0.455379	0.717491
C153	C	0.250899	-0.462375	0.684937
H154	H	0.250777	-0.456830	0.649593
H155	H	0.274473	-0.499988	0.699243
H156	H	0.265099	-0.435967	0.679650
O157	O	-0.016472	-0.675865	0.373077
C158	C	0.012171	-0.700793	0.401869
H159	H	0.030204	-0.677166	0.395586
H160	H	0.040229	-0.733911	0.392605
H161	H	-0.010759	-0.711459	0.440698
H162	H	0.164358	-0.516243	0.352233
H163	H	0.550093	-0.401597	0.325157
O164	O	-0.042624	-0.368349	0.939646
C165	C	-0.025567	-0.338861	0.939641
H166	H	0.004854	-0.361642	0.954551
H167	H	-0.055337	-0.316167	0.962526
H168	H	-0.012426	-0.314930	0.901842
O169	O	-0.063473	-0.483597	0.161568
C170	C	-0.092209	-0.458670	0.194072
H171	H	-0.110282	-0.482300	0.229409
H172	H	-0.120235	-0.425555	0.179691
H173	H	-0.069349	-0.447999	0.199400
O174	O	-0.042184	-0.518030	0.939502
C175	C	-0.024925	-0.564601	0.939487
H176	H	0.015429	-0.577074	0.924588
H177	H	-0.039332	-0.565269	0.916581
H178	H	-0.036914	-0.589119	0.977277
O179	O	0.550470	-0.582433	0.560414
C180	C	0.550474	-0.565369	0.589896
H181	H	0.565352	-0.534935	0.567113
H182	H	0.573391	-0.595133	0.612565
H183	H	0.512684	-0.552242	0.613851
O184	O	0.171121	0.010925	0.346372
C185	C	0.207021	-0.029792	0.362364
H186	H	0.194131	-0.043553	0.402745
H187	H	0.239968	-0.020421	0.348473
H188	H	0.215995	-0.058323	0.348804
O189	O	0.044536	-0.375505	0.717618
C190	C	0.019598	-0.346798	0.685121
H191	H	0.043228	-0.328760	0.649757
H192	H	-0.013496	-0.318741	0.699471
H193	H	0.008894	-0.369678	0.679857
O194	O	0.236762	-0.422670	0.619740
C195	C	0.248724	-0.380989	0.591058
H196	H	0.216023	-0.349829	0.583654
H197	H	0.277463	-0.385415	0.556168
H198	H	0.262357	-0.374021	0.610156
O199	O	0.076961	-0.342934	0.586131
C200	C	0.030374	-0.335925	0.593199
H201	H	0.030437	-0.341459	0.563303
H202	H	0.006818	-0.298312	0.593477
H203	H	0.016194	-0.362334	0.628531
H204	H	0.023152	-0.375173	0.352387
O205	O	0.143744	-0.610619	0.939479
C206	C	0.154745	-0.619109	0.898657
H207	H	0.123422	-0.597003	0.885060
H208	H	0.162488	-0.658287	0.907822
H209	H	0.187219	-0.608903	0.870082
H210	H	0.198991	-0.450848	0.478149
O211	O	0.044418	-0.375630	0.553607
C212	C	0.032461	-0.417314	0.578583
H213	H	0.065152	-0.448468	0.569612
H214	H	0.003685	-0.412884	0.568052
H215	H	0.018878	-0.424295	0.618279
O216	O	0.021645	0.010502	0.346902
C217	C	0.054118	-0.030312	0.334162
H218	H	0.086963	-0.043903	0.343590
H219	H	0.064694	-0.021138	0.294422
H220	H	0.036958	-0.058898	0.354171
H221	H	0.234479	-0.456922	0.572596
O222	O	0.236685	-0.422774	0.506180
C223	C	0.261575	-0.451459	0.477438
H224	H	0.237932	-0.469512	0.483792
H225	H	0.294704	-0.479503	0.486689
H226	H	0.272214	-0.428557	0.438593
H227	H	0.324395	-0.341295	0.487026
O228	O	0.328377	-0.494482	0.543564
C229	C	0.357044	-0.501212	0.499286
H230	H	0.342066	-0.469812	0.470704
H231	H	0.357614	-0.535136	0.500676
H232	H	0.394633	-0.504131	0.490674
O233	O	0.230598	-0.303707	0.515947
C234	C	0.263109	-0.279126	0.491570
H235	H	0.298478	-0.304577	0.497269
H236	H	0.248787	-0.249216	0.505615
H237	H	0.268351	-0.263708	0.452115
H238	H	0.192214	-0.305222	0.471410
H239	H	0.088825	-0.215289	0.588411
O240	O	0.164110	-0.211413	0.433773
C241	C	0.192801	-0.243925	0.408855
H242	H	0.210861	-0.279281	0.432490
H243	H	0.220837	-0.229579	0.375743
H244	H	0.169905	-0.249203	0.398181
H245	H	-0.091654	-0.521212	0.255368
O246	O	0.116956	-0.309099	0.626048
C247	C	0.088243	-0.276588	0.650966
H248	H	0.094549	-0.241224	0.627314
H249	H	0.097569	-0.290923	0.684051
H250	H	0.049396	-0.271326	0.661684
H251	H	-0.127865	-0.673490	0.361973
H252	H	-0.018232	-0.668197	0.255455
O253	O	0.016307	-0.643370	0.161640
C254	C	-0.008756	-0.671997	0.173702
H255	H	-0.037666	-0.672445	0.209682
H256	H	0.016669	-0.709627	0.175439
H257	H	-0.025538	-0.657067	0.145738
O258	O	-0.096195	-0.516082	0.293091
C259	C	-0.103196	-0.469507	0.286058
H260	H	-0.097703	-0.469600	0.315996
H261	H	-0.140790	-0.445927	0.285734
H262	H	-0.076757	-0.455330	0.250758
O263	O	-0.063619	-0.483620	0.325834
C264	C	-0.042943	-0.475967	0.346596
H265	H	-0.035523	-0.508509	0.378462
H266	H	-0.068268	-0.443803	0.358601
H267	H	-0.008319	-0.469401	0.319517
O268	O	0.022788	-0.669796	0.302935
C269	C	0.056491	-0.681940	0.262065
H270	H	0.058817	-0.717943	0.266534
H271	H	0.092576	-0.683673	0.256708
H272	H	0.045334	-0.654025	0.229904
O273	O	0.055253	-0.767577	0.335589
C274	C	0.072465	-0.796267	0.308603
H275	H	0.041855	-0.803660	0.312429
H276	H	0.099860	-0.831162	0.321811
H277	H	0.089599	-0.777178	0.269748
H278	H	-0.133793	-0.557888	0.260690
O279	O	-0.103020	-0.767285	0.395756
C280	C	-0.149255	-0.734726	0.398373
H281	H	-0.151151	-0.699364	0.395069
H282	H	-0.175481	-0.749002	0.433829
H283	H	-0.158520	-0.729482	0.368337
H284	H	-0.223999	-0.601245	0.437568
O285	O	-0.130209	-0.635795	0.412855
C286	C	-0.162788	-0.642790	0.459407
H287	H	-0.198120	-0.612858	0.459262
H288	H	-0.148498	-0.643064	0.482999
H289	H	-0.168089	-0.678103	0.473603
H290	H	-0.223768	-0.527810	0.290539
