data_functionalizedCrystal
_audit_creation_method	'MofGen! by Chris Wilmer'
_symmetry_space_group_name_H-M	'P1'
_symmetry_Int_Tables_number	1
_symmetry_cell_setting	triclinic
loop_
_symmetry_equiv_pos_as_xyz
  x,y,z
_cell_length_a	12.594516
_cell_length_b	12.594517
_cell_length_c	12.594509
_cell_angle_alpha	90.021327
_cell_angle_beta	89.973801
_cell_angle_gamma	89.984147
loop_
_atom_site_label
_atom_site_type_symbol
_atom_site_fract_x
_atom_site_fract_y
_atom_site_fract_z
Zn1	Zn	-0.423716	-1.627267	-0.601875
Zn2	Zn	-0.601726	-1.627158	-0.423903
Zn3	Zn	-0.423761	-1.449271	-0.423904
Zn4	Zn	-0.601652	-1.449253	-0.601833
O5	O	-0.512714	-1.538237	-0.512879
O6	O	-0.447341	-1.776198	-0.578284
O7	O	-0.578169	-1.603522	-0.274957
O8	O	-0.274809	-1.472936	-0.447530
O9	O	-0.578124	-1.776118	-0.447528
O10	O	-0.274776	-1.603709	-0.578285
O11	O	-0.447419	-1.472830	-0.274958
O12	O	-0.447347	-1.300323	-0.447489
O13	O	-0.577998	-1.472905	-0.750784
O14	O	-0.578042	-1.300310	-0.578213
O15	O	-0.447269	-1.603691	-0.750815
O16	O	-0.750662	-1.603505	-0.447488
O17	O	-0.750608	-1.472799	-0.578212
C18	C	-0.512692	-1.261696	-0.512847
C19	C	-0.512709	-1.143391	-0.512859
C20	C	-0.789255	-1.538167	-0.512868
C21	C	-0.907560	-1.538235	-0.512899
C22	C	-0.512620	-1.538308	-0.790500
C23	C	-0.512581	-1.538339	-0.908805
C24	C	-0.976822	-1.467137	-0.583950
C25	C	-1.047688	-1.441204	-0.486827
C26	C	-1.047494	-1.564265	-0.610039
C27	C	-0.976867	-1.512250	-0.415725
C28	C	-0.976667	-1.635357	-0.539002
C29	C	-1.047500	-1.609460	-0.441812
C30	C	-0.235093	-1.538336	-0.512912
C31	C	-0.116787	-1.538378	-0.512927
C32	C	-0.512736	-1.815858	-0.512911
C33	C	-0.512745	-1.934163	-0.512924
C34	C	-0.441526	-1.074114	-0.441894
C35	C	-0.538615	-1.003303	-0.415718
C36	C	-0.415668	-1.003403	-0.539054
C37	C	-0.609849	-1.074138	-0.486632
C38	C	-0.486836	-1.074244	-0.610013
C39	C	-0.583991	-1.003465	-0.583874
C40	C	-0.583644	-1.467227	-0.978042
C41	C	-0.609650	-1.564347	-1.048833
C42	C	-0.486510	-1.441294	-1.048813
C43	C	-0.538638	-1.635510	-0.978038
C44	C	-0.415453	-1.512391	-0.978012
C45	C	-0.441422	-1.609579	-1.048772
C46	C	-0.512730	-1.538227	-0.236338
C47	C	-0.512470	-1.538403	-0.118033
H48	H	-0.945788	-1.406905	-0.643949
H49	H	-0.691955	-1.105080	-0.464413
O50	O	-0.460435	-1.343328	-1.085957
C51	C	-0.544009	-1.303917	-1.149121
H52	H	-0.621247	-1.345093	-1.126081
H53	H	-0.526048	-1.320049	-1.236376
C54	C	-0.460363	-1.132879	-1.159670
C55	C	-0.555229	-1.183446	-1.131366
H56	H	-0.467282	-1.058566	-1.148723
H57	H	-0.404055	-1.159431	-1.117119
H58	H	-0.445405	-1.146333	-1.232382
H59	H	-0.570178	-1.170003	-1.058653
H60	H	-0.611540	-1.156888	-1.173905
H61	H	-0.945972	-1.490197	-0.333563
O62	O	-1.084858	-1.343230	-0.460667
C63	C	-1.048833	-1.268430	-0.535742
H64	H	-1.028884	-1.310701	-0.613282
H65	H	-0.974833	-1.227081	-0.504040
C66	C	-1.160894	-1.133560	-0.460597
C67	C	-1.136400	-1.185477	-0.555836
H68	H	-1.214906	-1.082387	-0.472990
H69	H	-1.185162	-1.183953	-0.410015
H70	H	-1.099220	-1.099111	-0.434188
H71	H	-1.198070	-1.219935	-0.582237
H72	H	-1.112144	-1.135087	-0.606424
O73	O	-0.707585	-1.590721	-1.085834
C74	C	-0.735561	-1.692378	-1.048254
H75	H	-0.688500	-1.710781	-0.973183
H76	H	-0.716693	-1.754238	-1.111623
C77	C	-0.912981	-1.672396	-1.115216
C78	C	-0.855186	-1.694995	-1.023007
H79	H	-0.986771	-1.674013	-1.099646
H80	H	-0.894132	-1.603909	-1.140538
H81	H	-0.897245	-1.723950	-1.168014
H82	H	-0.870911	-1.643434	-0.970215
H83	H	-0.874040	-1.763473	-0.997675
H84	H	-1.078338	-1.669647	-0.381669
H85	H	-0.560736	-1.717631	-0.947080
O86	O	-0.939466	-1.733207	-0.565552
C87	C	-0.975407	-1.760281	-0.668050
H88	H	-0.995335	-1.684845	-0.713903
H89	H	-1.049403	-1.811973	-0.661390
C90	C	-0.863316	-1.914583	-0.670753
C91	C	-0.887783	-1.821930	-0.727073
H92	H	-0.809268	-1.952615	-0.707161
H93	H	-0.839104	-1.896345	-0.601696
H94	H	-0.924986	-1.957647	-0.665207
H95	H	-0.826117	-1.778862	-0.732607
H96	H	-0.911982	-1.840162	-0.796133
O97	O	-0.564557	-0.965992	-0.317735
C98	C	-0.480852	-0.902876	-0.278516
H99	H	-0.431438	-0.871901	-0.347744
H100	H	-0.428501	-0.952671	-0.224015
C101	C	-0.587573	-0.846553	-0.130757
C102	C	-0.526888	-0.808501	-0.215784
H103	H	-0.615969	-0.788341	-0.092057
H104	H	-0.643966	-0.889079	-0.157177
H105	H	-0.543938	-0.888049	-0.085351
H106	H	-0.570527	-0.767018	-0.261195
H107	H	-0.470503	-0.765966	-0.189370
H108	H	-1.078518	-1.586224	-0.692178
O109	O	-0.655754	-0.966633	-0.655624
C110	C	-0.603064	-0.905069	-0.732855
H111	H	-0.515829	-0.929014	-0.736190
H112	H	-0.609523	-0.817430	-0.711100
C113	C	-0.761767	-0.894451	-0.838004
C114	C	-0.654625	-0.923867	-0.842106
H115	H	-0.793574	-0.906042	-0.905394
H116	H	-0.797266	-0.935924	-0.785970
H117	H	-0.767134	-0.821420	-0.819870
H118	H	-0.649260	-0.996899	-0.860226
H119	H	-0.619126	-0.882406	-0.894145
H120	H	-0.381389	-1.105135	-0.381807
O121	O	-0.317518	-1.486325	-0.940812
C122	C	-0.277307	-1.570703	-0.879236
H123	H	-0.318058	-1.647810	-0.903433
H124	H	-0.293219	-1.554349	-0.791627
C125	C	-0.106789	-1.486103	-0.867918
C126	C	-0.156834	-1.580809	-0.897643
H127	H	-0.032475	-1.492335	-0.879266
H128	H	-0.133881	-1.429253	-0.909399
H129	H	-0.120061	-1.472484	-0.794911
H130	H	-0.143573	-1.594419	-0.970651
H131	H	-0.129737	-1.637661	-0.856174
H132	H	-0.464899	-1.105429	-0.692122
H133	H	-0.643833	-1.407136	-0.946986
O134	O	-0.317718	-0.966281	-0.565275
C135	C	-0.278227	-0.903068	-0.481749
H136	H	-0.319342	-0.926058	-0.404452
H137	H	-0.294359	-0.815823	-0.499666
C138	C	-0.107257	-0.892582	-0.565662
C139	C	-0.157749	-0.920825	-0.470722
H140	H	-0.032940	-0.903530	-0.558862
H141	H	-0.133863	-0.935166	-0.621938
H142	H	-0.120711	-0.819879	-0.580582
H143	H	-0.144305	-0.993529	-0.455811
H144	H	-0.131138	-0.878253	-0.414444
H145	H	-0.381279	-1.669813	-1.079632
