data_functionalizedCrystal
_audit_creation_method	'MofGen! by Chris Wilmer'
_symmetry_space_group_name_H-M	'P1'
_symmetry_Int_Tables_number	1
_symmetry_cell_setting	triclinic
loop_
_symmetry_equiv_pos_as_xyz
  x,y,z
_cell_length_a	31.640172
_cell_length_b	27.440280
_cell_length_c	27.440280
_cell_angle_alpha	60.004742
_cell_angle_beta	90.008206
_cell_angle_gamma	60.004358
loop_
_atom_site_label
_atom_site_type_symbol
_atom_site_fract_x
_atom_site_fract_y
_atom_site_fract_z
Zr1	Zr	0.407241	0.533323	-0.063881
O2	O	0.339762	0.634985	-0.141700
O3	O	0.427919	0.431661	-0.040026
O4	O	0.427929	0.533311	-0.141687
O5	O	0.339752	0.533345	0.040155
O6	O	0.497486	0.533301	-0.141677
O7	O	0.339751	0.533336	-0.040038
O8	O	0.497468	0.351468	0.040177
O9	O	0.339771	0.715178	-0.141699
O10	O	0.488657	0.473468	-0.029843
O11	O	0.436748	0.473483	0.029996
O12	O	0.436760	0.593162	-0.089697
O13	O	0.384851	0.593177	-0.029858
Zr14	Zr	0.518178	0.533322	0.064035
Zr15	Zr	0.518176	0.533307	-0.063864
Zr16	Zr	0.407242	0.533338	0.064018
Zr17	Zr	0.407255	0.661221	-0.063879
Zr18	Zr	0.518164	0.405424	0.064034
O19	O	0.497500	0.634984	0.040181
O20	O	0.497497	0.634962	-0.141676
O21	O	0.339764	0.635007	0.040156
O22	O	0.585657	0.431660	0.141855
O23	O	0.585655	0.431638	-0.040002
O24	O	0.427921	0.431683	0.141830
O25	O	0.585666	0.533300	-0.040000
O26	O	0.497490	0.533334	0.141842
O27	O	0.427933	0.533344	0.141832
O28	O	0.585667	0.533309	0.040193
O29	O	0.427949	0.715165	-0.141685
O30	O	0.497469	0.351480	0.141840
O31	O	0.585648	0.351467	0.141854
O32	O	0.585647	0.351455	0.040191
O33	O	0.339772	0.715190	-0.040036
O34	O	0.427951	0.715177	-0.040023
O35	O	0.488659	0.473483	0.089852
O36	O	0.540567	0.473468	0.030012
O37	O	0.488670	0.593162	-0.029842
O38	O	0.436762	0.593176	0.029998
C39	C	0.462691	0.373342	0.000075
C40	C	0.462685	0.319046	0.000075
C41	C	0.489820	-0.017703	-0.031153
C42	C	0.489824	-0.068727	-0.031151
O43	O	0.512884	-0.095140	-0.057698
N44	N	0.462728	-0.094236	0.000083
C45	C	0.435629	-0.068723	0.031323
O46	O	0.412583	-0.095106	0.057891
C47	C	0.435628	-0.017703	0.031324
C48	C	0.462722	0.007807	0.000083
C49	C	0.516912	0.007807	-0.062391
C50	C	0.516906	0.058828	-0.062394
C51	C	0.489808	0.084339	-0.031158
C52	C	0.462716	0.058829	0.000080
C53	C	0.408533	0.007805	0.062567
C54	C	0.408534	0.058828	0.062566
C55	C	0.435628	0.084339	0.031325
C56	C	0.435613	0.135361	0.031314
N57	N	0.462709	0.160869	0.000080
C58	C	0.489807	0.135359	-0.031156
C59	C	0.435635	-0.175868	0.031318
C60	C	0.435633	-0.226883	0.031313
C61	C	0.489829	-0.226885	-0.031160
C62	C	0.489828	-0.175866	-0.031158
C63	C	0.462731	-0.150360	0.000084
C64	C	0.489793	0.242507	-0.031159
C65	C	0.489783	0.293535	-0.031161
C66	C	0.435590	0.293530	0.031315
C67	C	0.435597	0.242509	0.031314
C68	C	0.462702	0.216997	0.000076
O69	O	0.412567	0.161804	0.057849
O70	O	0.512855	0.161741	-0.057713
C71	C	0.323946	0.533343	0.000056
C72	C	0.276851	0.533349	0.000049
C73	C	0.011935	0.470837	0.031333
C74	C	-0.165050	0.470825	0.031344
O75	O	-0.164897	0.417689	0.057937
N76	N	-0.214270	0.533304	0.000100
C77	C	-0.219242	0.595790	-0.031146
O78	O	-0.265167	0.648931	-0.057715
C79	C	-0.042258	0.595801	-0.031153
C80	C	0.006961	0.533318	0.000088
C81	C	0.061151	0.408359	0.062572
C82	C	0.105395	0.408363	0.062566
C83	C	0.100421	0.470844	0.031321
C84	C	0.051205	0.533322	0.000082
C85	C	-0.047230	0.658286	-0.062396
C86	C	-0.002979	0.658283	-0.062393
C87	C	0.046240	0.595801	-0.031152
C88	C	0.090475	0.595807	-0.031169
N89	N	0.139694	0.533328	0.000075
C90	C	0.144667	0.470847	0.031320
C91	C	-0.312160	0.595779	-0.031140
C92	C	-0.356406	0.595777	-0.031139
C93	C	-0.302211	0.470812	0.031352
C94	C	-0.257964	0.470815	0.031347
C95	C	-0.262940	0.533301	0.000104
C96	C	0.237580	0.470859	0.031305
C97	C	0.281824	0.470868	0.031294
C98	C	0.227626	0.595833	-0.031194
C99	C	0.183385	0.595824	-0.031186
C100	C	0.188365	0.533332	0.000067
O101	O	0.090361	0.648915	-0.057743
O102	O	0.190597	0.417713	0.057896
C103	C	-0.032309	0.470833	0.031339
C104	C	-0.081525	0.533311	0.000099
C105	C	-0.086499	0.595792	-0.031146
C106	C	-0.125771	0.533308	0.000100
C107	C	-0.120798	0.470827	0.031345
C108	C	-0.071579	0.408349	0.062589
C109	C	-0.027335	0.408352	0.062583
C110	C	-0.135718	0.658271	-0.062389
C111	C	-0.179959	0.658262	-0.062382
C112	C	-0.174986	0.595781	-0.031137
C113	C	0.601473	0.533302	0.000099
C114	C	0.648568	0.533295	0.000106
C115	C	0.462707	0.533304	-0.159905
C116	C	0.462707	0.533297	-0.214202
C117	C	0.462727	0.693303	0.000079
C118	C	0.462733	0.747599	0.000080
C119	C	0.435624	0.595813	-0.582179
C120	C	0.435626	0.595817	-0.633201
O121	O	0.412603	0.648953	-0.686160
N122	N	0.462714	0.533338	-0.627475
C123	C	0.489808	0.470852	-0.570723
O124	O	0.512849	0.417710	-0.570538
C125	C	0.489809	0.470849	-0.519702
C126	C	0.462714	0.533331	-0.525432
C127	C	0.408532	0.658290	-0.587907
C128	C	0.408530	0.658286	-0.536888
C129	C	0.435620	0.595805	-0.480141
C130	C	0.462712	0.533327	-0.474413
C131	C	0.516905	0.408364	-0.462950
C132	C	0.516904	0.408366	-0.411928
C133	C	0.489809	0.470848	-0.417659
C134	C	0.489800	0.470842	-0.366648
N135	N	0.462711	0.533320	-0.372373
C136	C	0.435621	0.595802	-0.429120
C137	C	0.489804	0.470863	-0.677873
C138	C	0.489800	0.470866	-0.728892
C139	C	0.435619	0.595831	-0.791367
C140	C	0.435620	0.595827	-0.740346
C141	C	0.462715	0.533342	-0.683598
C142	C	0.435618	0.595788	-0.321975
C143	C	0.435617	0.595779	-0.270948
C144	C	0.489800	0.470814	-0.208478
C145	C	0.489800	0.470824	-0.259499
C146	C	0.462708	0.533316	-0.316249
O147	O	0.512813	0.417733	-0.313670
O148	O	0.412589	0.648935	-0.429295
C149	C	0.462711	0.533341	0.160060
C150	C	0.462712	0.533348	0.214356
C151	C	0.601455	0.373322	0.000097
C152	C	0.648544	0.319019	0.000103
C153	C	0.462693	0.373361	0.160058
C154	C	0.462688	0.319071	0.214354
C155	C	0.601457	0.373341	0.160079
C156	C	0.648546	0.319044	0.214382
C157	C	0.323962	0.693304	-0.159924
C158	C	0.276872	0.747601	-0.214228
C159	C	0.323964	0.693323	0.000058
C160	C	0.276875	0.747626	0.000051
C161	C	0.462725	0.693284	-0.159903
C162	C	0.462731	0.747574	-0.214199
C163	C	0.643560	0.293518	-0.031143
C164	C	0.687801	0.242502	-0.031149
C165	C	0.737025	0.216984	0.000096
C166	C	0.742007	0.242490	0.031343
C167	C	0.697767	0.293509	0.031345
C168	C	0.489782	0.293576	0.271101
C169	C	0.489775	0.242572	0.322123
C170	C	0.462677	0.217061	0.316396
C171	C	0.435579	0.242562	0.259643
C172	C	0.435584	0.293568	0.208622
C173	C	0.697761	0.293538	0.208648
C174	C	0.742011	0.242528	0.259667
C175	C	0.737045	0.217021	0.316419
C176	C	0.687826	0.242532	0.322152
C177	C	0.643577	0.293545	0.271134
C178	C	0.227658	0.773113	-0.208493
C179	C	0.183408	0.824139	-0.259512
C180	C	0.188374	0.849648	-0.316264
C181	C	0.237593	0.824134	-0.321997
C182	C	0.281842	0.773113	-0.270979
C183	C	0.281858	0.773132	0.031292
C184	C	0.237617	0.824162	0.031284
C185	C	0.188394	0.849682	0.000038
C186	C	0.183412	0.824174	-0.031207
C187	C	0.227652	0.773148	-0.031202
C188	C	0.489834	0.773069	-0.208453
C189	C	0.489850	0.824073	-0.259465
C190	C	0.462758	0.849584	-0.316222
C191	C	0.435653	0.824085	-0.321967
C192	C	0.435641	0.773078	-0.270956
H193	H	0.511865	0.221741	-0.056595
H194	H	0.511894	-0.247666	-0.056593
C195	C	0.785722	0.160902	0.372537
C196	C	0.795159	0.090755	0.417778
C197	C	0.843838	0.034635	0.473893
C198	C	0.883080	0.048661	0.484766
C199	C	0.873645	0.118811	0.439524
C200	C	0.824966	0.174932	0.383409
H201	H	0.766108	0.080369	0.409729
H202	H	0.850822	-0.017295	0.507384
H203	H	0.919115	0.007117	0.526306
H204	H	0.902696	0.129197	0.447572
H205	H	0.817982	0.226862	0.349918
H206	H	0.241630	0.844911	-0.368211
C207	C	0.405784	0.321602	0.146201
C208	C	0.405785	0.377704	0.090072
C209	C	0.375983	0.405734	0.027652
C210	C	0.346182	0.377663	0.021360
C211	C	0.346180	0.321558	0.077490
C212	C	0.375981	0.293528	0.139911
H213	H	0.427846	0.398486	0.094728
H214	H	0.375985	0.447267	-0.013899
H215	H	0.324121	0.398413	-0.024847
H216	H	0.324118	0.300776	0.072834
H217	H	0.375980	0.251995	0.181462
C218	C	0.589441	0.321590	0.277448
C219	C	0.583986	0.293523	0.339876
C220	C	0.529852	0.321564	0.346195
C221	C	0.481173	0.377672	0.290085
C222	C	0.486627	0.405743	0.227652
C223	C	0.540761	0.377701	0.221333
H224	H	0.620022	0.251985	0.381416
H225	H	0.525814	0.300784	0.392413
H226	H	0.441099	0.398430	0.294763
H227	H	0.450590	0.447280	0.186112
H228	H	0.544798	0.398481	0.175116
H229	H	0.143307	0.646702	-0.056633
C230	C	0.682313	0.214447	-0.065516
C231	C	0.705274	0.137289	-0.032022
C232	C	0.699785	0.109234	-0.066389
C233	C	0.671336	0.158337	-0.134249
C234	C	0.648373	0.235499	-0.167747
C235	C	0.653862	0.263554	-0.133381
H236	H	0.726335	0.100936	0.018216
H237	H	0.716783	0.052114	-0.041591
H238	H	0.667272	0.137569	-0.159690
H239	H	0.627312	0.271852	-0.217985
H240	H	0.636864	0.320675	-0.158179
C241	C	0.222165	0.745087	-0.065563
C242	C	0.270821	0.688958	-0.065562
C243	C	0.265330	0.660901	-0.099925
C244	C	0.211183	0.688973	-0.134288
C245	C	0.162523	0.745105	-0.134290
C246	C	0.168015	0.773162	-0.099927
H247	H	0.310907	0.668175	-0.040123
H248	H	0.301351	0.619348	-0.099924
H249	H	0.207118	0.668203	-0.159726
H250	H	0.122437	0.765889	-0.159729
H251	H	0.131993	0.814715	-0.099929
C252	C	0.405823	0.664563	-0.853797
C253	C	0.376022	0.733294	-0.860107
C254	C	0.346228	0.802022	-0.922535
C255	C	0.346234	0.802018	-0.978653
C256	C	0.376035	0.733284	-0.972344
C257	C	0.405830	0.664557	-0.909916
H258	H	0.376017	0.733299	-0.818564
H259	H	0.324167	0.852903	-0.927205
H260	H	0.324178	0.852895	-1.024866
H261	H	0.376041	0.733280	-1.013887
H262	H	0.427891	0.613676	-0.905246
C263	C	0.139732	0.905807	0.000040
C264	C	0.100496	0.975958	-0.059226
C265	C	0.051837	1.032081	-0.059219
C266	C	0.042413	1.018052	0.000054
C267	C	0.081651	0.947898	0.059325
C268	C	0.130310	0.891775	0.059318
H269	H	0.107470	0.986346	-0.103108
H270	H	0.022791	1.084013	-0.103096
H271	H	0.006393	1.059597	0.000059
H272	H	0.074676	0.937510	0.103207
H273	H	0.159356	0.839842	0.103195
C274	C	0.519643	0.745007	-0.146024
C275	C	0.549460	0.773054	-0.139716
C276	C	0.579275	0.744992	-0.077289
C277	C	0.579271	0.688884	-0.021170
C278	C	0.549453	0.660835	-0.027476
C279	C	0.519639	0.688896	-0.089903
H280	H	0.549464	0.814591	-0.181261
H281	H	0.601348	0.765756	-0.072622
H282	H	0.601342	0.668111	0.025042
H283	H	0.549449	0.619298	0.014068
H284	H	0.497565	0.668132	-0.094571
H285	H	0.511843	0.221816	0.368328
C286	C	0.026802	0.339619	0.096954
C287	C	0.043062	0.288066	0.080646
C288	C	0.097198	0.219329	0.115020
C289	C	0.135074	0.202144	0.165702
C290	C	0.118815	0.253698	0.182012
C291	C	0.064679	0.322435	0.147638
H292	H	0.015024	0.300787	0.043126
H293	H	0.109234	0.181166	0.102946
H294	H	0.175148	0.151261	0.191147
H295	H	0.146853	0.240978	0.219532
H296	H	0.052643	0.360599	0.159712
H297	H	0.413564	-0.247642	0.056746
H298	H	0.413551	0.646662	-0.275621
C299	C	0.378729	0.727020	-0.543199
C300	C	0.392888	0.778556	-0.575981
C301	C	0.363086	0.847294	-0.582299
C302	C	0.319125	0.864497	-0.555835
C303	C	0.304964	0.812960	-0.523051
C304	C	0.334765	0.744222	-0.516733
H305	H	0.425433	0.765822	-0.595573
H306	H	0.373570	0.885445	-0.606568
H307	H	0.297064	0.915381	-0.560513
H308	H	0.272419	0.825693	-0.503460
H309	H	0.324282	0.706071	-0.492464
C310	C	0.703232	0.321592	0.146225
C311	C	0.757372	0.293532	0.139930
C312	C	0.762849	0.321584	0.077508
C313	C	0.714184	0.377697	0.021381
C314	C	0.660040	0.405760	0.027674
C315	C	0.654564	0.377708	0.090096
H316	H	0.793400	0.251991	0.181480
H317	H	0.802930	0.300810	0.072850
H318	H	0.718238	0.398463	-0.024827
H319	H	0.624012	0.447301	-0.013876
H320	H	0.614482	0.398482	0.094754
C321	C	0.129263	0.852244	-0.065568
C322	C	0.091393	0.929404	-0.116244
C323	C	0.037242	0.957471	-0.150600
C324	C	0.020961	0.908378	-0.134279
C325	C	0.058831	0.831214	-0.083600
C326	C	0.112982	0.803146	-0.049245
H327	H	0.103445	0.965750	-0.128328
H328	H	0.009209	1.014594	-0.188115
H329	H	-0.019124	0.929156	-0.159711
H330	H	0.046780	0.794868	-0.071516
H331	H	0.141016	0.746024	-0.011729
H332	H	0.782083	0.221763	0.254988
C333	C	0.519603	0.402123	-0.615449
C334	C	0.578456	0.350568	-0.596687
C335	C	0.608256	0.281828	-0.534267
C336	C	0.579203	0.264644	-0.490610
C337	C	0.520347	0.316201	-0.509372
C338	C	0.490547	0.384940	-0.571791
H339	H	0.599966	0.363287	-0.629005
H340	H	0.651825	0.243663	-0.520379
H341	H	0.601262	0.213759	-0.444403
H342	H	0.498837	0.303481	-0.477053
H343	H	0.446978	0.423106	-0.585679
C344	C	0.519662	0.852120	-0.253136
C345	C	0.578513	0.803008	-0.220322
C346	C	0.608325	0.831054	-0.213991
C347	C	0.579284	0.908213	-0.240474
C348	C	0.520429	0.957330	-0.273290
C349	C	0.490618	0.929284	-0.279621
H350	H	0.600014	0.745886	-0.200716
H351	H	0.651893	0.794694	-0.189698
H352	H	0.601352	0.928974	-0.235787
H353	H	0.498929	1.014452	-0.292896
H354	H	0.447050	0.965644	-0.303914
H355	H	0.321901	0.419985	0.056736
C356	C	0.462770	0.905697	-0.372332
C357	C	0.492582	0.933740	-0.366004
C358	C	0.492595	0.989854	-0.422111
C359	C	0.462795	1.017925	-0.484546
C360	C	0.432980	0.989882	-0.490877
C361	C	0.432968	0.933768	-0.434770
H362	H	0.514644	0.912960	-0.319784
H363	H	0.514666	1.010614	-0.417425
H364	H	0.462804	1.059464	-0.526080
H365	H	0.410919	1.010662	-0.537097
H366	H	0.410897	0.913008	-0.439456
C367	C	0.243106	0.852207	0.065662
C368	C	0.271565	0.887252	0.049365
C369	C	0.277055	0.915294	0.083744
C370	C	0.254088	0.908291	0.134419
C371	C	0.225627	0.873245	0.150718
C372	C	0.220137	0.845203	0.116339
H373	H	0.288569	0.892437	0.011850
H374	H	0.298124	0.941237	0.071678
H375	H	0.258152	0.929049	0.159868
H376	H	0.208624	0.868059	0.188233
H377	H	0.199068	0.819260	0.128406
H378	H	0.143336	0.844904	-0.254832
C379	C	0.796155	0.214412	0.065716
C380	C	0.812426	0.179333	0.133580
C381	C	0.866575	0.151251	0.167957
C382	C	0.904451	0.158247	0.134470
C383	C	0.888180	0.193327	0.066603
C384	C	0.834032	0.221410	0.032225
H385	H	0.784387	0.174153	0.158372
H386	H	0.878619	0.125282	0.218198
H387	H	0.944535	0.137458	0.159919
H388	H	0.916219	0.198508	0.041810
H389	H	0.821987	0.247379	-0.018015
H390	H	0.511855	0.419945	-0.254832
C391	C	0.405819	0.664559	-0.746653
C392	C	0.361863	0.681753	-0.720182
C393	C	0.332062	0.750488	-0.726493
C394	C	0.346218	0.802028	-0.759275
C395	C	0.390176	0.784834	-0.785749
C396	C	0.419977	0.716100	-0.779437
H397	H	0.351382	0.643600	-0.695912
H398	H	0.299521	0.763215	-0.706895
H399	H	0.324157	0.852909	-0.763947
H400	H	0.400657	0.822988	-0.810018
H401	H	0.452518	0.703372	-0.799035
C402	C	0.785687	0.160859	0.000094
C403	C	0.839834	0.132781	0.034461
C404	C	0.888494	0.076654	0.034460
C405	C	0.883006	0.048604	0.000090
C406	C	0.828856	0.076682	-0.034279
C407	C	0.780197	0.132809	-0.034277
H408	H	0.843899	0.153545	0.059906
H409	H	0.928579	0.055870	0.059902
H410	H	0.919027	0.007056	0.000089
H411	H	0.824792	0.055918	-0.059724
H412	H	0.740112	0.153594	-0.059720
H413	H	0.683790	0.221757	0.368367
H414	H	0.511856	0.419986	-0.724219
C415	C	0.243063	0.402117	0.065680
C416	C	0.220112	0.384919	0.116369
C417	C	0.225596	0.316177	0.150740
C418	C	0.254031	0.264635	0.134421
C419	C	0.276984	0.281833	0.083728
C420	C	0.271500	0.350574	0.049358
H421	H	0.199061	0.423074	0.128452
H422	H	0.208604	0.303447	0.188266
H423	H	0.258091	0.213749	0.159864
H424	H	0.298035	0.243677	0.071646
H425	H	0.288492	0.363304	0.011832
C426	C	0.405850	0.852158	-0.384404
C427	C	0.434902	0.845143	-0.428065
C428	C	0.405096	0.873223	-0.490504
C429	C	0.346238	0.908317	-0.509281
C430	C	0.317183	0.915333	-0.465618
C431	C	0.346989	0.887253	-0.403180
H432	H	0.478475	0.819163	-0.414167
H433	H	0.426605	0.868029	-0.522826
H434	H	0.324174	0.929103	-0.555502
H435	H	0.273610	0.941313	-0.479517
H436	H	0.325480	0.892447	-0.370858
C437	C	-0.203825	0.402084	0.065717
C438	C	-0.187561	0.350532	0.049407
C439	C	-0.133423	0.281798	0.083780
C440	C	-0.095550	0.264616	0.134462
C441	C	-0.111814	0.316168	0.150775
C442	C	-0.165951	0.384903	0.116402
H443	H	-0.215598	0.363251	0.011887
H444	H	-0.121384	0.243635	0.071704
H445	H	-0.055474	0.213734	0.159907
H446	H	-0.083777	0.303450	0.188295
H447	H	-0.177991	0.423065	0.128478
H448	H	0.701831	0.314265	0.056793
C449	C	0.378724	0.086888	0.096930
C450	C	0.407767	0.079885	0.147613
C451	C	0.377956	0.107947	0.181974
C452	C	0.319102	0.143012	0.165652
C453	C	0.290056	0.150016	0.114967
C454	C	0.319867	0.121954	0.080606
H455	H	0.451337	0.053927	0.159697
H456	H	0.399458	0.102762	0.219494
H457	H	0.297034	0.163785	0.191088
H458	H	0.246485	0.175974	0.102882
H459	H	0.298365	0.127139	0.043085
H460	H	0.413568	0.752326	-0.275643
H461	H	0.511846	0.314306	-0.056604
H462	H	0.223605	0.752346	-0.162287
H463	H	0.538969	0.357481	-0.365722
C464	C	0.519602	0.402087	-0.146051
C465	C	0.549409	0.333356	-0.139741
C466	C	0.579216	0.264628	-0.077313
C467	C	0.579216	0.264632	-0.021195
C468	C	0.549408	0.333366	-0.027504
C469	C	0.519601	0.402093	-0.089932
H470	H	0.549409	0.333351	-0.181284
H471	H	0.601281	0.213747	-0.072643
H472	H	0.601281	0.213756	0.025018
H473	H	0.549407	0.333371	0.014040
H474	H	0.497535	0.452975	-0.094602
H475	H	0.511849	0.314341	0.275775
H476	H	0.413528	0.221745	0.056745
H477	H	0.538970	0.079594	-0.087831
C478	C	0.139696	0.905769	-0.372382
C479	C	0.085563	0.933792	-0.366068
C480	C	0.036884	0.989910	-0.422182
C481	C	0.042338	1.018005	-0.484612
C482	C	0.096474	0.989981	-0.490929
C483	C	0.145153	0.933863	-0.434814
H484	H	0.081523	0.912994	-0.319851
H485	H	-0.003191	1.010654	-0.417506
H486	H	0.006303	1.059546	-0.526151
H487	H	0.100514	1.010779	-0.537145
H488	H	0.185228	0.913119	-0.439490
H489	H	0.413516	0.221783	0.254989
H490	H	0.511890	-0.155098	-0.056597
C491	C	0.546720	-0.020246	-0.096757
C492	C	0.532567	0.028865	-0.164618
C493	C	0.562374	0.000821	-0.198992
C494	C	0.606334	-0.076333	-0.165505
C495	C	0.620489	-0.125449	-0.097640
C496	C	0.590682	-0.097405	-0.063267
H497	H	0.500023	0.085983	-0.189411
H498	H	0.551895	0.037180	-0.249230
H499	H	0.628399	-0.097093	-0.190950
H500	H	0.653033	-0.182567	-0.072848
H501	H	0.601161	-0.133764	-0.013029
C502	C	0.335977	0.745049	-0.277293
C503	C	0.341433	0.773111	-0.339722
C504	C	0.395567	0.745052	-0.346041
C505	C	0.444246	0.688930	-0.289931
C506	C	0.438792	0.660864	-0.227497
C507	C	0.384658	0.688923	-0.221179
H508	H	0.305396	0.814659	-0.381262
H509	H	0.399604	0.765829	-0.392258
H510	H	0.484320	0.668158	-0.294608
H511	H	0.474829	0.619316	-0.185958
H512	H	0.380621	0.668146	-0.174961
H513	H	0.413526	0.314312	0.056744
H514	H	0.603484	0.314294	-0.056593
H515	H	0.413565	-0.155099	0.056756
H516	H	0.145468	0.357483	0.088003
C517	C	-0.101362	0.727024	-0.096750
C518	C	-0.117640	0.778586	-0.164609
C519	C	-0.171771	0.847330	-0.198961
C520	C	-0.209625	0.864512	-0.165452
C521	C	-0.193348	0.812949	-0.097588
C522	C	-0.139216	0.744204	-0.063237
H523	H	-0.089618	0.765868	-0.189418
H524	H	-0.183820	0.885501	-0.249198
H525	H	-0.249696	0.915401	-0.190880
H526	H	-0.221370	0.825667	-0.072779
H527	H	-0.127167	0.706034	-0.013000
H528	H	0.386471	-0.012958	0.088008
C529	C	-0.008454	0.727020	-0.096764
C530	C	0.014503	0.744208	-0.147449
C531	C	0.009028	0.812944	-0.181819
C532	C	-0.019405	0.864491	-0.165506
C533	C	-0.042365	0.847305	-0.114818
C534	C	-0.036889	0.778569	-0.080447
H535	H	0.035553	0.706048	-0.159527
H536	H	0.026024	0.825666	-0.219342
H537	H	-0.023458	0.915373	-0.190949
H538	H	-0.063414	0.885465	-0.102739
H539	H	-0.053886	0.765847	-0.042925
H540	H	0.065210	0.357477	0.088018
H541	H	-0.298168	0.419937	0.056789
H542	H	0.462677	0.175529	0.357945
H543	H	-0.396479	0.646656	-0.056586
H544	H	-0.316220	0.646665	-0.056586
H545	H	-0.067536	0.357474	0.088027
H546	H	0.223585	0.646703	-0.056635
H547	H	-0.220035	0.709147	-0.087828
H548	H	0.413558	0.646676	-0.368177
H549	H	-0.139776	0.709151	-0.087834
H550	H	0.386473	0.709173	-0.634110
H551	H	0.538969	0.357484	-0.458272
H552	H	0.321935	0.752358	0.056740
