data_functionalizedCrystal
_audit_creation_method	'MofGen! by Chris Wilmer'
_symmetry_space_group_name_H-M	'P1'
_symmetry_Int_Tables_number	1
_symmetry_cell_setting	triclinic
loop_
_symmetry_equiv_pos_as_xyz
  x,y,z
_cell_length_a	42.795305
_cell_length_b	42.779661
_cell_length_c	42.784822
_cell_angle_alpha	89.990848
_cell_angle_beta	120.002739
_cell_angle_gamma	120.011937
loop_
_atom_site_label
_atom_site_type_symbol
_atom_site_fract_x
_atom_site_fract_y
_atom_site_fract_z
O1	O	-0.223712	-0.214463	-0.490109
O2	O	-0.159712	-0.169001	-0.380654
O3	O	-0.223699	-0.169000	-0.444655
O4	O	-0.159725	-0.214464	-0.426108
O5	O	-0.275683	-0.220997	-0.444655
O6	O	-0.211696	-0.220998	-0.380654
O7	O	-0.275695	-0.266460	-0.490109
Zn8	Zn	-0.251949	-0.251985	-0.435381
Zn9	Zn	-0.183458	-0.183477	-0.435381
O10	O	-0.211709	-0.266461	-0.426108
C11	C	-0.384312	-0.022793	-0.463533
C12	C	-0.365688	-0.041780	-0.463797
C13	C	-0.440909	-0.079406	-0.463533
C14	C	-0.422199	-0.098307	-0.463797
C15	C	-0.384324	-0.079405	-0.463533
C16	C	-0.422187	-0.041781	-0.463797
C17	C	-0.339483	0.113726	-0.453286
C18	C	-0.318768	0.152387	-0.450389
C19	C	-0.280043	0.171782	-0.448934
C20	C	-0.257575	0.213703	-0.445786
C21	C	-0.262037	0.152512	-0.450380
C22	C	-0.282756	0.113852	-0.453283
C23	C	-0.321481	0.094459	-0.454735
C24	C	-0.282430	-0.113973	-0.453286
C25	C	-0.261602	-0.131791	-0.450388
C26	C	-0.279488	-0.169074	-0.448932
C27	C	-0.256905	-0.188395	-0.445785
C28	C	-0.318209	-0.188539	-0.450378
C29	C	-0.339041	-0.170724	-0.453282
C30	C	-0.321145	-0.133437	-0.454733
C31	C	-0.567127	-0.113978	-0.453285
C32	C	-0.602874	-0.131795	-0.450383
C33	C	-0.620813	-0.169079	-0.448929
C34	C	-0.659570	-0.188400	-0.445780
C35	C	-0.603002	-0.188542	-0.450373
C36	C	-0.567255	-0.170723	-0.453274
C37	C	-0.549323	-0.133441	-0.454733
C38	C	-0.343942	0.052540	-0.457879
C39	C	-0.361847	0.019126	-0.460386
C40	C	-0.479667	-0.098725	-0.460386
C41	C	-0.510562	-0.114124	-0.457878
C42	C	-0.361738	-0.098723	-0.460386
C43	C	-0.343734	-0.114121	-0.457879
O44	O	-0.763149	-0.214475	-0.426107
O45	O	-0.672256	-0.169008	-0.444655
O46	O	-0.672253	-0.169010	-0.380654
O47	O	-0.763152	-0.214473	-0.490108
O48	O	-0.672264	-0.221006	-0.380654
O49	O	-0.672267	-0.221003	-0.444655
O50	O	-0.763160	-0.266471	-0.426107
Zn51	Zn	-0.717715	-0.251993	-0.435381
Zn52	Zn	-0.717701	-0.183486	-0.435381
O53	O	-0.763163	-0.266468	-0.490108
C54	C	-0.384401	-0.356296	-0.796973
C55	C	-0.422281	-0.393920	-0.815870
C56	C	-0.384399	-0.356297	-0.740373
C57	C	-0.422279	-0.393921	-0.759357
C58	C	-0.440999	-0.412908	-0.796973
C59	C	-0.365767	-0.337395	-0.759356
C60	C	-0.282479	-0.264594	-0.831534
C61	C	-0.261643	-0.246649	-0.849349
C62	C	-0.279531	-0.265993	-0.886625
C63	C	-0.256936	-0.246540	-0.905940
C64	C	-0.318257	-0.303281	-0.906086
C65	C	-0.339093	-0.321221	-0.888273
C66	C	-0.321202	-0.301876	-0.850995
C67	C	-0.567245	-0.549426	-0.888654
C68	C	-0.603001	-0.588087	-0.906595
C69	C	-0.620936	-0.607483	-0.887257
C70	C	-0.659700	-0.649402	-0.906703
C71	C	-0.603115	-0.588214	-0.849976
C72	C	-0.567365	-0.549553	-0.832038
C73	C	-0.549431	-0.530162	-0.851382
C74	C	-0.282471	-0.264599	-0.603883
C75	C	-0.261629	-0.246657	-0.565229
C76	C	-0.279514	-0.266002	-0.545839
C77	C	-0.256918	-0.246551	-0.503927
C78	C	-0.318238	-0.303289	-0.565104
C79	C	-0.339076	-0.321230	-0.603756
C80	C	-0.321190	-0.301880	-0.623144
C81	C	-0.343797	-0.321333	-0.831682
C82	C	-0.361807	-0.336842	-0.816287
C83	C	-0.361802	-0.336844	-0.698463
C84	C	-0.343790	-0.321337	-0.665056
C85	C	-0.479763	-0.454827	-0.816423
C86	C	-0.510663	-0.488241	-0.831927
C87	C	-0.051106	-0.412677	-0.407230
C88	C	-0.013231	-0.393690	-0.406966
C89	C	-0.051091	-0.356064	-0.407230
C90	C	-0.013216	-0.337163	-0.406966
C91	C	0.005493	-0.356065	-0.407230
C92	C	-0.069729	-0.393689	-0.406966
C93	C	-0.153042	-0.549196	-0.417478
C94	C	-0.173885	-0.587857	-0.420375
C95	C	-0.156009	-0.607252	-0.421829
C96	C	-0.178610	-0.649173	-0.424978
C97	C	-0.117288	-0.587982	-0.420383
C98	C	-0.096445	-0.549323	-0.417481
C99	C	-0.114324	-0.529930	-0.416028
C100	C	0.131710	-0.321498	-0.417477
C101	C	0.167460	-0.303680	-0.420374
C102	C	0.185400	-0.266398	-0.421830
C103	C	0.224158	-0.247077	-0.424977
C104	C	0.167590	-0.246932	-0.420384
C105	C	0.131847	-0.264747	-0.417480
C106	C	0.113906	-0.302034	-0.416029
C107	C	-0.152982	-0.321491	-0.417477
C108	C	-0.173812	-0.303673	-0.420380
C109	C	-0.155922	-0.266389	-0.421834
C110	C	-0.178507	-0.247069	-0.424982
C111	C	-0.117203	-0.246926	-0.420389
C112	C	-0.096376	-0.264746	-0.417489
C113	C	-0.114267	-0.302028	-0.416030
C114	C	-0.091723	-0.488010	-0.412885
C115	C	-0.073707	-0.454596	-0.410377
C116	C	-0.073676	-0.336745	-0.410377
C117	C	-0.091679	-0.321346	-0.412884
C118	C	0.044251	-0.336748	-0.410377
C119	C	0.075146	-0.321350	-0.412884
O120	O	-0.159844	0.337004	-0.426109
O121	O	-0.223855	0.227526	-0.444655
O122	O	-0.159853	0.291539	-0.380655
O123	O	-0.223846	0.272990	-0.490109
O124	O	-0.211824	0.291540	-0.380655
O125	O	-0.275826	0.227526	-0.444655
O126	O	-0.211815	0.337004	-0.426108
Zn127	Zn	-0.252072	0.282265	-0.435382
Zn128	Zn	-0.183598	0.282264	-0.435382
O129	O	-0.275817	0.272990	-0.490109
O130	O	-0.763290	-0.772706	-0.932247
O131	O	-0.672388	-0.663226	-0.886797
O132	O	-0.672394	-0.727236	-0.886793
O133	O	-0.763285	-0.708696	-0.932251
O134	O	-0.672396	-0.727235	-0.938778
O135	O	-0.672391	-0.663225	-0.938783
O136	O	-0.763292	-0.772705	-0.984232
Zn137	Zn	-0.717842	-0.717965	-0.969761
Zn138	Zn	-0.717839	-0.717966	-0.901268
O139	O	-0.763287	-0.708695	-0.984236
O140	O	-0.211709	-0.220990	-0.983982
O141	O	-0.275710	-0.266451	-0.938534
O142	O	-0.211720	-0.266449	-0.938523
O143	O	-0.275699	-0.220992	-0.983993
O144	O	-0.159739	-0.214450	-0.886540
O145	O	-0.223729	-0.214452	-0.886552
O146	O	-0.159728	-0.168991	-0.931999
Zn147	Zn	-0.183476	-0.183466	-0.901022
Zn148	Zn	-0.251963	-0.251976	-0.969511
O149	O	-0.223718	-0.168993	-0.932011
C150	C	0.005326	-0.022784	-0.073799
C151	C	-0.013393	-0.041771	-0.054903
C152	C	-0.051270	-0.079398	-0.130397
C153	C	-0.069903	-0.098299	-0.111414
C154	C	-0.051272	-0.079396	-0.073799
C155	C	-0.013391	-0.041773	-0.111414
C156	C	0.131567	0.113736	-0.039239
C157	C	0.167322	0.152397	-0.021426
C158	C	0.185256	0.171792	0.015849
C159	C	0.224018	0.213713	0.035163
C160	C	0.167436	0.152522	0.035309
C161	C	0.131688	0.113863	0.017497
C162	C	0.113753	0.094469	-0.019779
C163	C	-0.096082	-0.113964	0.017877
C164	C	-0.116793	-0.131783	0.035816
C165	C	-0.155522	-0.169065	0.016478
C166	C	-0.177986	-0.188387	0.035923
C167	C	-0.173535	-0.188531	-0.020801
C168	C	-0.152820	-0.170716	-0.038738
C169	C	-0.114092	-0.133429	-0.019394
C170	C	-0.096072	-0.113970	-0.266883
C171	C	-0.116785	-0.131788	-0.305536
C172	C	-0.155514	-0.169073	-0.324925
C173	C	-0.177975	-0.188394	-0.366836
C174	C	-0.173529	-0.188536	-0.305662
C175	C	-0.152816	-0.170716	-0.267010
C176	C	-0.114084	-0.133434	-0.247622
C177	C	0.074988	0.052550	-0.039092
C178	C	0.044089	0.019135	-0.054486
C179	C	-0.073728	-0.098717	-0.172306
C180	C	-0.091629	-0.114116	-0.205712
C181	C	-0.073732	-0.098714	-0.054351
C182	C	-0.091635	-0.114112	-0.038848
C183	C	-0.384307	-0.079176	-0.073790
C184	C	-0.365669	-0.041552	-0.054892
C185	C	-0.440894	-0.079174	-0.130389
C186	C	-0.422171	-0.041550	-0.111405
C187	C	-0.384294	-0.022564	-0.073789
C188	C	-0.422184	-0.098076	-0.111407
C189	C	-0.339528	-0.170876	-0.039232
C190	C	-0.318824	-0.188821	-0.021417
C191	C	-0.280098	-0.169477	0.015858
C192	C	-0.257643	-0.188929	0.035173
C193	C	-0.262079	-0.132189	0.035320
C194	C	-0.282786	-0.114249	0.017508
C195	C	-0.321512	-0.133595	-0.019770
C196	C	-0.282358	0.113953	0.017894
C197	C	-0.261516	0.152613	0.035836
C198	C	-0.279391	0.172010	0.016498
C199	C	-0.256793	0.213928	0.035945
C200	C	-0.318114	0.152740	-0.020783
C201	C	-0.338959	0.114080	-0.038721
C202	C	-0.321074	0.094689	-0.019378
C203	C	-0.567131	-0.170871	-0.266880
C204	C	-0.602880	-0.188813	-0.305534
C205	C	-0.620807	-0.169468	-0.324923
C206	C	-0.659567	-0.188919	-0.366835
C207	C	-0.602983	-0.132181	-0.305658
C208	C	-0.567234	-0.114241	-0.267006
C209	C	-0.549313	-0.133591	-0.247618
C210	C	-0.343960	-0.114137	-0.039083
C211	C	-0.361855	-0.098629	-0.054477
C212	C	-0.479654	-0.098627	-0.172299
C213	C	-0.510550	-0.114134	-0.205706
C214	C	-0.361693	0.019355	-0.054338
C215	C	-0.343678	0.052768	-0.038833
C216	C	-1.051139	-0.412687	-0.796965
C217	C	-1.069773	-0.393704	-0.815860
C218	C	-0.994542	-0.356076	-0.740365
C219	C	-1.013261	-0.337179	-0.759346
C220	C	-1.051141	-0.356082	-0.796961
C221	C	-1.013260	-0.393697	-0.759350
C222	C	-1.095942	-0.549195	-0.831533
C223	C	-1.116652	-0.587854	-0.849349
C224	C	-1.155381	-0.607250	-0.886624
C225	C	-1.177843	-0.649169	-0.905940
C226	C	-1.173397	-0.587985	-0.906082
C227	C	-1.152683	-0.549328	-0.888268
C228	C	-1.113954	-0.529933	-0.850992
C229	C	-1.153067	-0.321531	-0.888630
C230	C	-1.173904	-0.303718	-0.906568
C231	C	-1.156023	-0.266438	-0.887228
C232	C	-1.178615	-0.247123	-0.906670
C233	C	-1.117297	-0.246971	-0.849948
C234	C	-1.096456	-0.264781	-0.832014
C235	C	-1.114348	-0.302065	-0.851359
C236	C	-0.868300	-0.321497	-0.603882
C237	C	-0.832548	-0.303679	-0.565228
C238	C	-0.814613	-0.266398	-0.545837
C239	C	-0.775850	-0.247077	-0.503926
C240	C	-0.832434	-0.246939	-0.565099
C241	C	-0.868186	-0.264759	-0.603750
C242	C	-0.886113	-0.302038	-0.623140
C243	C	-1.091499	-0.488016	-0.831676
C244	C	-1.073598	-0.454604	-0.816280
C245	C	-0.955779	-0.336756	-0.698456
C246	C	-0.924880	-0.321356	-0.665051
C247	C	-1.073737	-0.336770	-0.816407
C248	C	-1.091748	-0.321376	-0.831908
C249	C	-0.051159	0.310416	-0.073790
C250	C	-0.013288	0.310680	-0.054893
C251	C	-0.051163	0.310417	-0.130390
C252	C	-0.013291	0.310681	-0.111407
C253	C	0.005425	0.310416	-0.073791
C254	C	-0.069789	0.310682	-0.111406
C255	C	-0.153058	0.300168	-0.039225
C256	C	-0.173890	0.297270	-0.021410
C257	C	-0.156007	0.295815	0.015866
C258	C	-0.178596	0.292666	0.035182
C259	C	-0.117289	0.297261	0.035327
C260	C	-0.096458	0.300163	0.017513
C261	C	-0.114344	0.301617	-0.019765
C262	C	0.131635	0.300164	0.017888
C263	C	0.167381	0.297266	0.035828
C264	C	0.185310	0.295809	0.016489
C265	C	0.224063	0.292661	0.035935
C266	C	0.167493	0.297256	-0.020792
C267	C	0.131754	0.300161	-0.038728
C268	C	0.113825	0.301613	-0.019384
C269	C	-0.153073	0.300170	-0.266879
C270	C	-0.173911	0.297268	-0.305534
C271	C	-0.156032	0.295813	-0.324924
C272	C	-0.178625	0.292665	-0.366836
C273	C	-0.117318	0.297258	-0.305660
C274	C	-0.096482	0.300158	-0.267008
C275	C	-0.114362	0.301618	-0.247619
C276	C	-0.091754	0.304761	-0.039079
C277	C	-0.073748	0.307269	-0.054475
C278	C	-0.073756	0.307270	-0.172300
C279	C	-0.091765	0.304763	-0.205707
C280	C	0.044178	0.307268	-0.054342
C281	C	0.075069	0.304759	-0.038838
O282	O	-0.211536	0.337233	0.061489
O283	O	-0.275556	0.227754	0.016036
O284	O	-0.211543	0.291766	0.016047
O285	O	-0.275549	0.273222	0.061479
O286	O	-0.159580	0.291760	0.068038
O287	O	-0.223593	0.227748	0.068028
O288	O	-0.159574	0.337227	0.113481
Zn289	Zn	-0.183333	0.282487	0.099009
Zn290	Zn	-0.251796	0.282495	0.030508
O291	O	-0.223587	0.273216	0.113470
C292	C	-0.440842	0.254114	-0.796974
C293	C	-0.422128	0.253849	-0.815871
C294	C	-0.384256	0.254113	-0.740374
C295	C	-0.365628	0.253848	-0.759357
C296	C	-0.384257	0.254113	-0.796973
C297	C	-0.422127	0.253849	-0.759358
C298	C	-0.567050	0.264364	-0.831539
C299	C	-0.602796	0.267263	-0.849355
C300	C	-0.620728	0.268718	-0.886630
C301	C	-0.659480	0.271868	-0.905947
C302	C	-0.602913	0.267272	-0.906091
C303	C	-0.567174	0.264368	-0.888277
C304	C	-0.549243	0.262915	-0.850999
C305	C	-0.339459	0.264363	-0.888652
C306	C	-0.318752	0.267261	-0.906592
C307	C	-0.280031	0.268717	-0.887252
C308	C	-0.257572	0.271865	-0.906698
C309	C	-0.262020	0.267270	-0.849971
C310	C	-0.282730	0.264365	-0.832035
C311	C	-0.321451	0.262915	-0.851379
C312	C	-0.339453	0.264360	-0.603884
C313	C	-0.318741	0.267262	-0.565230
C314	C	-0.280020	0.268716	-0.545840
C315	C	-0.257560	0.271865	-0.503928
C316	C	-0.262011	0.267271	-0.565103
C317	C	-0.282722	0.264371	-0.603756
C318	C	-0.321447	0.262912	-0.623145
C319	C	-0.510486	0.259770	-0.831685
C320	C	-0.479595	0.257262	-0.816289
C321	C	-0.361799	0.257259	-0.698464
C322	C	-0.343900	0.259767	-0.665057
C323	C	-0.361802	0.257261	-0.816422
C324	C	-0.343903	0.259769	-0.831925
H325	H	-0.552526	-0.083620	-0.454471
C326	C	0.007868	0.311256	-0.131993
H327	H	0.033149	0.311374	-0.115289
H328	H	0.016418	0.333578	-0.139160
H329	H	-0.012911	0.289164	-0.154228
C330	C	-0.216132	-0.229543	-0.042075
H331	H	-0.223890	-0.238585	-0.066843
H332	H	-0.239395	-0.229535	-0.044397
H333	H	-0.211388	-0.245813	-0.028112
H334	H	-0.064917	-0.533636	-0.416301
C335	C	-0.888031	-0.362509	-0.625205
H336	H	-0.872305	-0.371549	-0.608197
H337	H	-0.885712	-0.362504	-0.646157
H338	H	-0.918254	-0.378777	-0.634412
H339	H	-0.205411	-0.603543	-0.421553
C340	C	-0.053480	-0.072954	0.039155
H341	H	-0.045716	-0.063915	0.063925
H342	H	-0.058219	-0.056682	0.025195
H343	H	-0.030218	-0.072967	0.041475
C344	C	-0.547660	-0.192129	-0.454858
H345	H	-0.523798	-0.176175	-0.456788
H346	H	-0.569817	-0.214850	-0.476523
H347	H	-0.537267	-0.198562	-0.432231
C348	C	-0.053467	-0.072962	-0.245557
H349	H	-0.045706	-0.063921	-0.262565
H350	H	-0.030209	-0.072976	-0.224610
H351	H	-0.058206	-0.056688	-0.236342
H352	H	-0.102125	-0.115931	0.066168
H353	H	-0.102735	-0.603776	-0.421565
H354	H	-0.370568	-0.186576	-0.454461
C355	C	-0.622733	-0.229555	-0.448774
H356	H	-0.646576	-0.237382	-0.446843
H357	H	-0.600625	-0.230152	-0.427103
H358	H	-0.633179	-0.246432	-0.471395
C359	C	0.111843	0.092404	-0.080240
H360	H	0.087996	0.066621	-0.088064
H361	H	0.133951	0.092846	-0.080836
H362	H	0.101404	0.104583	-0.097116
H363	H	-0.817851	-0.216592	-0.549300
C364	C	-0.443444	-0.414518	-0.738771
H365	H	-0.468731	-0.439692	-0.755476
H366	H	-0.451986	-0.400746	-0.731604
H367	H	-0.422671	-0.415829	-0.716536
H368	H	-0.230509	0.168305	-0.449198
C369	C	-0.443285	0.253277	-0.857622
H370	H	-0.468562	0.253165	-0.866207
H371	H	-0.451840	0.230953	-0.873337
H372	H	-0.422502	0.275367	-0.859077
H373	H	-0.167635	0.301357	-0.251095
H374	H	0.002278	-0.026528	-0.126652
H375	H	-0.333406	0.268440	-0.549547
C376	C	-0.262803	-0.243314	-0.790533
H377	H	-0.280755	-0.259340	-0.782709
H378	H	-0.261759	-0.220599	-0.789935
H379	H	-0.233756	-0.236881	-0.773658
C380	C	-0.443449	-0.414512	-0.857624
H381	H	-0.426864	-0.397808	-0.866208
H382	H	-0.472925	-0.421673	-0.873335
H383	H	-0.443611	-0.436756	-0.859084
H384	H	-0.333430	0.168073	-0.449210
C385	C	-0.324494	-0.020958	-0.013141
H386	H	-0.316027	-0.037660	-0.004558
H387	H	-0.331094	-0.013794	0.002574
H388	H	-0.300956	0.001285	-0.011687
C389	C	-0.622702	-0.110900	-0.326984
H390	H	-0.646547	-0.126925	-0.352762
H391	H	-0.600590	-0.088184	-0.326541
H392	H	-0.633141	-0.104470	-0.314806
C393	C	-0.111066	-0.140066	-0.131993
H394	H	-0.119527	-0.148652	-0.115287
H395	H	-0.104451	-0.155772	-0.139149
H396	H	-0.134615	-0.141540	-0.154234
C397	C	-0.992097	-0.295419	-0.738759
H398	H	-0.966810	-0.286829	-0.713591
H399	H	-1.012870	-0.293962	-0.737453
H400	H	-0.983548	-0.279703	-0.752531
H401	H	-0.167488	-0.186568	-0.069089
H402	H	-0.882690	-0.248911	-0.619431
H403	H	-0.332819	-0.319027	-0.936437
C404	C	0.007922	-0.414283	-0.406392
H405	H	-0.008667	-0.439460	-0.406279
H406	H	0.037400	-0.400513	-0.384072
H407	H	0.008074	-0.415586	-0.428476
C408	C	-0.219419	0.268869	-0.543776
H409	H	-0.209664	0.270800	-0.517998
H410	H	-0.197151	0.290544	-0.544218
H411	H	-0.225171	0.246243	-0.555953
H412	H	-0.552725	-0.083882	-0.251322
H413	H	0.002453	-0.306249	-0.406541
H414	H	0.181957	-0.319532	-0.421551
C415	C	-0.172662	-0.362502	-0.415877
H416	H	-0.154710	-0.370325	-0.413938
H417	H	-0.201709	-0.379381	-0.438496
H418	H	-0.173700	-0.363099	-0.394204
H419	H	-0.205065	-0.218896	-0.321451
C420	C	-0.097651	0.295653	-0.326989
H421	H	-0.115602	0.293721	-0.352767
H422	H	-0.096620	0.273976	-0.326545
H423	H	-0.068601	0.318277	-0.314814
H424	H	-0.102731	0.296078	0.065677
C425	C	0.007874	0.311256	-0.013141
H426	H	-0.008707	0.311369	-0.004556
H427	H	0.037354	0.333580	0.002572
H428	H	0.008023	0.289166	-0.011683
H429	H	0.182202	-0.216573	-0.421564
H430	H	-0.552455	0.263180	-0.801187
H431	H	-0.102114	-0.115938	-0.321218
C432	C	-0.110898	-0.414279	-0.406388
H433	H	-0.119370	-0.439454	-0.406270
H434	H	-0.134434	-0.415580	-0.428468
H435	H	-0.104282	-0.400506	-0.384064
C436	C	-0.324590	-0.295635	-0.738765
H437	H	-0.316125	-0.287051	-0.713597
H438	H	-0.331187	-0.279916	-0.752534
H439	H	-0.301051	-0.294177	-0.737455
C440	C	-0.547520	-0.528095	-0.909930
H441	H	-0.523672	-0.502312	-0.893907
H442	H	-0.569628	-0.528535	-0.932641
H443	H	-0.537082	-0.540274	-0.916361
C444	C	-1.216501	-0.325133	-0.947568
H445	H	-1.224172	-0.349888	-0.956517
H446	H	-1.211811	-0.311221	-0.963885
H447	H	-1.239805	-0.327507	-0.947593
H448	H	-0.617506	-0.603773	-0.936948
H449	H	-0.230075	-0.115939	-0.449210
H450	H	-0.205413	0.296092	-0.037257
H451	H	-0.617298	0.268439	-0.833508
C452	C	-0.172629	-0.192128	-0.245821
H453	H	-0.198658	-0.216886	-0.262902
H454	H	-0.179730	-0.178217	-0.236613
H455	H	-0.151724	-0.194495	-0.224878
C456	C	0.186918	0.173591	-0.042832
H457	H	0.171115	0.156505	-0.067583
H458	H	0.217136	0.182805	-0.028923
H459	H	0.184584	0.194536	-0.045203
H460	H	-0.064960	0.301335	-0.251325
C461	C	-0.219034	-0.205645	-0.544039
H462	H	-0.211369	-0.196692	-0.561123
H463	H	-0.195729	-0.205612	-0.523098
H464	H	-0.223729	-0.189328	-0.534830
H465	H	-0.100263	0.311108	-0.126645
C466	C	-0.219044	-0.205639	-0.827942
H467	H	-0.209198	-0.197724	-0.843891
H468	H	-0.196832	-0.205091	-0.805230
H469	H	-0.224825	-0.188800	-0.821504
C470	C	-0.216399	-0.325082	-0.421967
H471	H	-0.224067	-0.349836	-0.420679
H472	H	-0.239707	-0.327452	-0.445242
H473	H	-0.211689	-0.311166	-0.400950
H474	H	-0.335156	0.253418	-0.744115
C475	C	-0.324516	-0.021189	-0.464371
H476	H	-0.316061	-0.037899	-0.464494
H477	H	-0.300973	0.001051	-0.442287
H478	H	-0.331119	-0.014023	-0.486692
C479	C	-0.262967	-0.073237	0.038912
H480	H	-0.280847	-0.065324	0.022965
H481	H	-0.233913	-0.056402	0.045349
H482	H	-0.261923	-0.072686	0.061626
H483	H	-0.167603	-0.533409	-0.416294
C484	C	-1.215998	-0.609320	-0.947078
H485	H	-1.223760	-0.592310	-0.956115
H486	H	-1.239256	-0.630273	-0.947061
H487	H	-1.211260	-0.618533	-0.963352
C488	C	-1.097620	-0.205963	-0.828673
H489	H	-1.071571	-0.196919	-0.803906
H490	H	-1.118570	-0.205977	-0.826350
H491	H	-1.090570	-0.189691	-0.842636
H492	H	-0.437831	-0.026307	-0.126648
C493	C	-0.381551	0.092886	-0.079724
H494	H	-0.389213	0.109973	-0.088674
H495	H	-0.404859	0.071939	-0.079758
H496	H	-0.376853	0.083677	-0.096039
H497	H	-0.552859	-0.533867	-0.801685
H498	H	-0.437856	-0.128991	-0.126645
C499	C	-0.547581	0.262777	-0.909681
H500	H	-0.563376	0.264062	-0.934432
H501	H	-0.549918	0.239497	-0.912049
H502	H	-0.517360	0.283799	-0.895770
C503	C	0.111982	-0.362508	-0.415874
H504	H	0.127710	-0.371547	-0.417146
H505	H	0.081758	-0.378780	-0.436887
H506	H	0.114314	-0.362495	-0.392595
H507	H	0.182091	0.296070	-0.036539
H508	H	-0.617391	-0.219173	-0.321217
H509	H	-0.370624	-0.351580	-0.904121
C510	C	0.112260	-0.243335	-0.415888
H511	H	0.128061	-0.218580	-0.417172
H512	H	0.114594	-0.240968	-0.392613
H513	H	0.082040	-0.257248	-0.436905
H514	H	-0.064934	0.301341	0.033360
H515	H	-0.552542	-0.186629	-0.251096
H516	H	-0.167625	0.301353	-0.069577
H517	H	-0.205434	0.296091	-0.321216
C518	C	0.112158	0.301753	-0.079733
H519	H	0.127951	0.300468	-0.088684
H520	H	0.114495	0.325033	-0.079769
H521	H	0.081937	0.280731	-0.096045
C522	C	-0.053786	-0.243335	-0.415896
H523	H	-0.046111	-0.218577	-0.417173
H524	H	-0.058487	-0.257246	-0.436908
H525	H	-0.030480	-0.240967	-0.392616
H526	H	-0.437790	0.253424	-0.744119
H527	H	-0.371061	-0.186632	-0.069584
H528	H	0.182042	0.168316	0.065658
C529	C	-1.053864	-0.243369	-0.791012
H530	H	-1.046197	-0.218616	-0.782059
H531	H	-1.030557	-0.240995	-0.790978
H532	H	-1.058564	-0.257285	-0.774698
H533	H	-1.167352	-0.533644	-0.904113
H534	H	0.117182	0.098176	0.033344
H535	H	-0.332776	-0.218898	-0.449198
C536	C	0.111920	0.301767	0.039168
H537	H	0.127653	0.300495	0.063939
H538	H	0.081696	0.280750	0.025210
H539	H	0.114257	0.325051	0.041486
H540	H	0.002276	-0.026526	-0.023995
H541	H	0.181883	0.296086	0.066181
H542	H	-0.102636	-0.216567	-0.421574
C543	C	-0.338641	-0.229831	-0.042826
H544	H	-0.364667	-0.238780	-0.067579
H545	H	-0.345747	-0.246152	-0.028920
H546	H	-0.317735	-0.229859	-0.045194
H547	H	-0.268060	0.263187	-0.619440
C548	C	-0.219483	-0.110913	0.076320
H549	H	-0.209729	-0.126937	0.084141
H550	H	-0.225221	-0.104480	0.093196
H551	H	-0.197215	-0.088197	0.076914
C552	C	-0.262692	0.092623	0.039172
H553	H	-0.236650	0.109633	0.063944
H554	H	-0.255642	0.083407	0.025214
H555	H	-0.283652	0.071670	0.041490
H556	H	-0.370982	0.263174	-0.619669
C557	C	-0.218922	0.173808	0.076837
H558	H	-0.211256	0.156722	0.085785
H559	H	-0.223612	0.183020	0.093155
H560	H	-0.195615	0.194753	0.076866
C561	C	-0.337779	0.174072	-0.042056
H562	H	-0.319819	0.199857	-0.026036
H563	H	-0.366825	0.161895	-0.048489
H564	H	-0.338816	0.173631	-0.064767
C565	C	-1.110949	-0.414298	-0.857610
H566	H	-1.119421	-0.439473	-0.866195
H567	H	-1.104349	-0.400525	-0.873325
H568	H	-1.134485	-0.415607	-0.859062
H569	H	-1.101982	-0.603537	-0.833503
H570	H	-0.267903	-0.248842	-0.619666
C571	C	-0.381676	-0.362239	-0.624948
H572	H	-0.389348	-0.371188	-0.607867
H573	H	-0.376991	-0.378561	-0.634162
H574	H	-0.404977	-0.362263	-0.645888
H575	H	-0.997597	-0.408941	-0.744112
H576	H	-0.437841	-0.026534	-0.464218
C577	C	-1.053339	-0.527861	-0.790534
H578	H	-1.043585	-0.502080	-0.782709
H579	H	-1.031076	-0.528297	-0.789942
H580	H	-1.059077	-0.540042	-0.773657
H581	H	-0.818043	-0.319527	-0.549547
C582	C	-1.172741	-0.362537	-0.909911
H583	H	-1.198784	-0.371578	-0.934681
H584	H	-1.179791	-0.378812	-0.895952
H585	H	-1.151785	-0.362518	-0.912232
C586	C	-0.622636	0.268873	-0.947090
H587	H	-0.646471	0.270813	-0.954912
H588	H	-0.633083	0.246251	-0.963966
H589	H	-0.600520	0.290552	-0.947685
C590	C	-0.382053	0.262760	-0.909931
H591	H	-0.389815	0.264033	-0.934703
H592	H	-0.377305	0.283777	-0.895974
H593	H	-0.405318	0.239476	-0.912250
C594	C	-0.338558	0.268859	-0.947593
H595	H	-0.364581	0.267583	-0.956542
H596	H	-0.345667	0.247843	-0.963910
H597	H	-0.317645	0.292144	-0.947622
C598	C	-0.219429	0.268870	-0.828697
H599	H	-0.209671	0.270810	-0.844716
H600	H	-0.225173	0.246248	-0.822263
H601	H	-0.197161	0.290549	-0.805986
H602	H	-0.332800	-0.319042	-0.549314
C603	C	-0.443364	-0.140067	-0.464370
H604	H	-0.468647	-0.148656	-0.464487
H605	H	-0.422588	-0.141526	-0.442289
H606	H	-0.451922	-0.155785	-0.486693
C607	C	-0.622459	-0.110384	-0.448789
H608	H	-0.606660	-0.085629	-0.450075
H609	H	-0.620123	-0.108015	-0.425513
H610	H	-0.652680	-0.124297	-0.469804
C611	C	-0.262922	0.262774	-0.791031
H612	H	-0.280803	0.260836	-0.783120
H613	H	-0.233865	0.285400	-0.774199
H614	H	-0.261884	0.241099	-0.790478
C615	C	-0.382079	0.092395	-0.454886
H616	H	-0.391837	0.066611	-0.456816
H617	H	-0.404344	0.092836	-0.476558
H618	H	-0.376331	0.104574	-0.432266
C619	C	-0.262953	0.092657	-0.454873
H620	H	-0.280840	0.066854	-0.456811
H621	H	-0.233899	0.104886	-0.432252
H622	H	-0.261911	0.093149	-0.476544
C623	C	-0.262751	-0.072963	-0.454887
H624	H	-0.280698	-0.065137	-0.456818
H625	H	-0.261714	-0.072365	-0.476559
H626	H	-0.233702	-0.056084	-0.432267
C627	C	-0.622841	-0.609546	-0.828702
H628	H	-0.646683	-0.635331	-0.844722
H629	H	-0.633279	-0.597369	-0.822270
H630	H	-0.600730	-0.609104	-0.805992
