data_functionalizedCrystal
_audit_creation_method	'MofGen! by Chris Wilmer'
_symmetry_space_group_name_H-M	'P1'
_symmetry_Int_Tables_number	1
_symmetry_cell_setting	triclinic
loop_
_symmetry_equiv_pos_as_xyz
  x,y,z
_cell_length_a	16.109301
_cell_length_b	17.038272
_cell_length_c	14.586319
_cell_angle_alpha	89.995924
_cell_angle_beta	89.999213
_cell_angle_gamma	87.286518
loop_
_atom_site_label
_atom_site_type_symbol
_atom_site_fract_x
_atom_site_fract_y
_atom_site_fract_z
O1	O	1.110268	0.100495	-0.076183
O2	O	0.869094	0.113001	-0.076198
O3	O	0.988248	-0.007067	-0.076183
O4	O	0.991114	0.220564	-0.076198
O5	O	0.988239	-0.007069	0.076298
O6	O	0.869085	0.113000	0.076283
O7	O	1.110259	0.100493	0.076298
Cu8	Cu	0.989671	0.106746	0.090213
Cu9	Cu	0.989682	0.106748	-0.090113
O10	O	0.991105	0.220562	0.076283
C11	C	0.838079	0.112494	0.000041
C12	C	0.745676	0.110975	0.000035
C13	C	0.528212	0.178690	0.000042
C14	C	0.441390	0.177257	0.000048
C15	C	0.451147	0.034799	0.000053
C16	C	0.537968	0.036233	0.000054
C17	C	0.576498	0.108181	0.000043
C18	C	0.402855	0.105314	0.000049
C19	C	0.308719	0.103759	0.000055
C20	C	0.670640	0.109736	0.000039
C21	C	0.985636	-0.036196	0.000057
C22	C	0.977857	-0.122989	0.000056
C23	C	1.049277	-0.173104	0.000062
C24	C	1.041963	-0.254654	0.000052
C25	C	0.963228	-0.286089	0.000044
C26	C	0.891802	-0.235967	0.000036
C27	C	0.899116	-0.154418	0.000039
C28	C	0.937385	-0.531846	0.000030
C29	C	0.930076	-0.613402	0.000031
C30	C	1.080238	-0.632083	0.000045
C31	C	1.087546	-0.550532	0.000053
C32	C	1.016120	-0.500418	0.000040
C33	C	0.955749	-0.369446	0.000038
C34	C	1.023599	-0.417062	0.000040
C35	C	1.141274	0.101001	0.000057
C36	C	1.233677	0.102519	0.000057
C37	C	0.993717	0.249691	0.000041
C38	C	1.001496	0.336484	0.000036
N39	N	0.989670	0.106744	0.217045
N40	N	0.989689	0.106744	-0.216945
C41	C	1.042451	0.053596	0.452058
C42	C	1.042453	0.053594	0.548039
C43	C	0.936902	0.159895	0.548036
C44	C	0.936896	0.159893	0.452056
C45	C	0.989675	0.106744	0.404070
C46	C	0.989684	0.106744	0.596030
C47	C	0.989686	0.106743	0.700098
C48	C	0.989672	0.106744	0.299996
H49	H	0.577284	-0.021187	0.000057
O50	O	1.093577	0.001901	0.405363
C51	C	1.045606	-0.046355	0.349901
H52	H	0.982771	-0.015203	0.335502
H53	H	1.035833	-0.104115	0.386936
C54	C	1.168462	-0.101388	0.276425
C55	C	1.091290	-0.063123	0.258734
H56	H	1.196643	-0.111735	0.220190
H57	H	1.200782	-0.068880	0.313793
H58	H	1.160307	-0.149517	0.307289
H59	H	1.099447	-0.014991	0.227881
H60	H	1.058973	-0.095624	0.221359
O61	O	1.093643	0.001997	0.594796
C62	C	1.082347	0.013404	0.689801
H63	H	1.018315	0.042605	0.702913
H64	H	1.132177	0.052631	0.717032
C65	C	1.167839	-0.102440	0.722978
C66	C	1.089190	-0.066580	0.739083
H67	H	1.172063	-0.151776	0.753379
H68	H	1.175452	-0.110124	0.658972
H69	H	1.209355	-0.069742	0.745671
H70	H	1.047677	-0.099273	0.716380
H71	H	1.081570	-0.058903	0.803087
O72	O	0.565508	0.248645	0.000080
C73	C	0.504267	0.310569	0.000059
H74	H	0.443809	0.288662	0.028926
H75	H	0.493534	0.332323	-0.073094
C76	C	0.607796	0.405326	0.024402
C77	C	0.533542	0.378421	0.059865
H78	H	0.625854	0.447183	0.061289
H79	H	0.649056	0.363607	0.024413
H80	H	0.598841	0.423448	-0.036558
H81	H	0.542500	0.360291	0.120818
H82	H	0.492284	0.420139	0.059865
O83	O	0.394399	0.245698	-0.000081
C84	C	0.343901	0.249141	-0.079063
H85	H	0.335127	0.187084	-0.105385
H86	H	0.374955	0.284841	-0.134366
C87	C	0.269419	0.364725	-0.022748
C88	C	0.258637	0.288505	-0.055073
H89	H	0.216826	0.389009	-0.007952
H90	H	0.303442	0.362408	0.030462
H91	H	0.295301	0.394465	-0.068840
H92	H	0.232766	0.258764	-0.008977
H93	H	0.224608	0.290818	-0.108275
H94	H	0.840958	-0.113615	0.000035
O95	O	1.125780	-0.142609	-0.000095
C96	C	1.169677	-0.168231	-0.079054
H97	H	1.123737	-0.185178	-0.134252
H98	H	1.212244	-0.221394	-0.061200
C99	C	1.278606	-0.080697	-0.047067
C100	C	1.222182	-0.101505	-0.114864
H101	H	1.310997	-0.039540	-0.069154
H102	H	1.249034	-0.063437	0.006132
H103	H	1.314071	-0.125006	-0.032194
H104	H	1.186711	-0.057200	-0.129727
H105	H	1.251749	-0.118757	-0.168066
O106	O	0.413811	-0.035135	-0.000070
C107	C	0.437981	-0.078101	-0.079052
H108	H	0.499634	-0.056806	-0.105376
H109	H	0.388444	-0.069029	-0.134353
C110	C	0.372296	-0.192213	-0.022734
C111	C	0.448022	-0.166062	-0.055061
H112	H	0.378486	-0.246471	-0.007938
H113	H	0.356009	-0.163265	0.030477
H114	H	0.331023	-0.184645	-0.068824
H115	H	0.489291	-0.173620	-0.008968
H116	H	0.464316	-0.195014	-0.108264
H117	H	1.100122	-0.295455	0.000059
O118	O	0.885519	0.211446	0.594613
C119	C	0.802321	0.198724	0.571154
H120	H	0.797488	0.136127	0.544775
H121	H	0.780960	0.242053	0.515440
C122	C	0.752759	0.287740	0.688819
C123	C	0.746822	0.210855	0.656428
H124	H	0.718523	0.295226	0.741418
H125	H	0.808811	0.296314	0.704623
H126	H	0.734959	0.323839	0.642384
H127	H	0.764631	0.174758	0.702859
H128	H	0.690771	0.202276	0.640634
O129	O	0.885746	0.211560	0.405335
C130	C	0.933681	0.259816	0.349824
H131	H	0.996533	0.228691	0.335445
H132	H	0.943418	0.317603	0.386805
C133	C	0.810788	0.314738	0.276313
C134	C	0.887983	0.276508	0.258647
H135	H	0.782599	0.325038	0.220073
H136	H	0.778493	0.282230	0.313714
H137	H	0.818914	0.362890	0.307133
H138	H	0.879856	0.228353	0.227839
H139	H	0.920276	0.309009	0.221238
O140	O	1.163987	-0.519911	-0.000068
C141	C	1.172727	-0.473309	-0.079049
H142	H	1.108638	-0.452975	-0.105380
H143	H	1.206959	-0.509346	-0.134346
C144	C	1.301317	-0.426167	-0.022715
C145	C	1.222603	-0.401187	-0.055051
H146	H	1.332086	-0.381681	-0.007914
H147	H	1.295432	-0.457566	0.030495
H148	H	1.329834	-0.456199	-0.068801
H149	H	1.194084	-0.371165	-0.008961
H150	H	1.228485	-0.369782	-0.108253
O151	O	0.853634	-0.644033	-0.000103
C152	C	0.844918	-0.690629	-0.079084
H153	H	0.909015	-0.710949	-0.105403
H154	H	0.810688	-0.654594	-0.134390
C155	C	0.716329	-0.737802	-0.022773
C156	C	0.795054	-0.762764	-0.055094
H157	H	0.685568	-0.782296	-0.007977
H158	H	0.722199	-0.706407	0.030437
H159	H	0.687815	-0.707772	-0.068866
H160	H	0.823571	-0.792785	-0.008997
H161	H	0.789188	-0.794166	-0.108296
H162	H	1.138389	-0.672894	0.000053
O163	O	0.815300	-0.266464	-0.000136
C164	C	0.771411	-0.240833	-0.079100
H165	H	0.817356	-0.223878	-0.134292
H166	H	0.728840	-0.187674	-0.061250
C167	C	0.662481	-0.328374	-0.047126
C168	C	0.718912	-0.307556	-0.114916
H169	H	0.630094	-0.369529	-0.069218
H170	H	0.692048	-0.345640	0.006076
H171	H	0.627013	-0.284068	-0.032257
H172	H	0.754386	-0.351858	-0.129776
H173	H	0.689350	-0.290298	-0.168121
O174	O	1.100035	-0.386437	-0.000075
C175	C	1.108771	-0.339835	-0.079056
H176	H	1.044681	-0.319513	-0.105394
H177	H	1.143015	-0.375867	-0.134349
C178	C	1.237346	-0.292668	-0.022710
C179	C	1.158629	-0.267702	-0.055055
H180	H	1.268104	-0.248174	-0.007907
H181	H	1.231462	-0.324066	0.030500
H182	H	1.265872	-0.322695	-0.068793
H183	H	1.130101	-0.237685	-0.008968
H184	H	1.164509	-0.236297	-0.108257
O185	O	0.867920	-0.483284	0.000071
C186	C	0.796860	-0.528519	0.000048
H187	H	0.813662	-0.589391	0.028912
H188	H	0.772997	-0.534314	-0.073105
C189	C	0.708143	-0.413112	0.024396
C190	C	0.728777	-0.487874	0.059856
H191	H	0.666144	-0.388039	0.061285
H192	H	0.756016	-0.382635	0.024408
H193	H	0.688262	-0.417952	-0.036564
H194	H	0.748668	-0.483033	0.120810
H195	H	0.680906	-0.518349	0.059855
H196	H	0.891642	-0.395049	0.000034
