data_functionalizedCrystal
_audit_creation_method	'MofGen! by Chris Wilmer'
_symmetry_space_group_name_H-M	'P1'
_symmetry_Int_Tables_number	1
_symmetry_cell_setting	triclinic
loop_
_symmetry_equiv_pos_as_xyz
  x,y,z
_cell_length_a	29.839131
_cell_length_b	18.215407
_cell_length_c	29.839125
_cell_angle_alpha	90.010341
_cell_angle_beta	89.982291
_cell_angle_gamma	89.962959
loop_
_atom_site_label
_atom_site_type_symbol
_atom_site_fract_x
_atom_site_fract_y
_atom_site_fract_z
Zn1	Zn	-0.178969	-1.124933	-0.253986
Zn2	Zn	0.154365	-0.791600	0.079348
Zn3	Zn	0.487698	-0.458267	0.412681
Zn4	Zn	-0.254081	-1.124822	-0.178855
Zn5	Zn	0.079252	-0.791489	0.154478
Zn6	Zn	0.412586	-0.458155	0.487811
Zn7	Zn	-0.178960	-1.001882	-0.178870
Zn8	Zn	0.154373	-0.668548	0.154463
Zn9	Zn	0.487707	-0.335215	0.487796
Zn10	Zn	-0.254067	-1.001796	-0.253959
Zn11	Zn	0.079267	-0.668463	0.079374
Zn12	Zn	0.412600	-0.335130	0.412708
O13	O	-0.216519	-1.063358	-0.216418
O14	O	0.116814	-0.730025	0.116916
O15	O	0.450148	-0.396692	0.450249
O16	O	-0.188942	-1.227903	-0.244024
O17	O	0.144391	-0.894569	0.089309
O18	O	0.477724	-0.561236	0.422642
O19	O	-0.244118	-1.108503	-0.115990
O20	O	0.089215	-0.775170	0.217343
O21	O	0.422549	-0.441836	0.550676
O22	O	-0.116094	-1.018287	-0.188852
O23	O	0.217239	-0.684954	0.144482
O24	O	0.550573	-0.351621	0.477815
O25	O	-0.244127	-1.227821	-0.188826
O26	O	0.089207	-0.894488	0.144507
O27	O	0.422540	-0.561154	0.477840
O28	O	-0.116101	-1.108693	-0.244039
O29	O	0.217233	-0.775359	0.089295
O30	O	0.550566	-0.442026	0.422628
O31	O	-0.188927	-1.018179	-0.116001
O32	O	0.144406	-0.684846	0.217332
O33	O	0.477740	-0.351513	0.550665
O34	O	-0.188913	-0.898886	-0.188826
O35	O	0.144420	-0.565553	0.144507
O36	O	0.477753	-0.232220	0.477840
O37	O	-0.244103	-1.018141	-0.316830
O38	O	0.089231	-0.684808	0.016504
O39	O	0.422564	-0.351475	0.349837
O40	O	-0.244094	-0.898823	-0.243994
O41	O	0.089239	-0.565490	0.089340
O42	O	0.422573	-0.232157	0.422673
O43	O	-0.188929	-1.108610	-0.316849
O44	O	0.144405	-0.775276	0.016484
O45	O	0.477738	-0.441943	0.349818
O46	O	-0.316946	-1.108420	-0.188801
O47	O	0.016387	-0.775087	0.144532
O48	O	0.349721	-0.441753	0.477866
O49	O	-0.316936	-1.018034	-0.243979
O50	O	0.016398	-0.684700	0.089354
O51	O	0.349731	-0.351367	0.422687
C52	C	-0.216502	-0.872152	-0.216409
C53	C	0.116832	-0.538819	0.116924
C54	C	0.450165	-0.205485	0.450258
C55	C	-0.216505	-0.790353	-0.216416
C56	C	0.116828	-0.457020	0.116917
C57	C	0.450162	-0.123687	0.450251
C58	C	-0.187826	-0.602201	-0.245202
C59	C	0.145507	-0.268867	0.088131
C60	C	0.478841	0.064466	0.421465
C61	C	-0.187828	-0.525342	-0.245203
C62	C	0.145505	-0.192009	0.088130
C63	C	0.478838	0.141325	0.421464
C64	C	-0.245206	-0.525268	-0.187637
C65	C	0.088128	-0.191935	0.145696
C66	C	0.421461	0.141399	0.479030
C67	C	-0.245201	-0.602125	-0.187634
C68	C	0.088133	-0.268792	0.145700
C69	C	0.421466	0.064541	0.479033
C70	C	-0.216511	-0.640590	-0.216419
C71	C	0.116822	-0.307256	0.116914
C72	C	0.450155	0.026077	0.450248
C73	C	-0.216519	-0.486874	-0.216423
C74	C	0.116815	-0.153540	0.116910
C75	C	0.450148	0.179793	0.450244
C76	C	-0.216521	-0.403540	-0.216424
C77	C	0.116812	-0.070207	0.116909
C78	C	0.450145	0.263127	0.450242
C79	C	-0.216508	-0.723929	-0.216417
C80	C	0.116825	-0.390595	0.116916
C81	C	0.450159	-0.057262	0.450249
C82	C	-0.333242	-1.063225	-0.216395
C83	C	0.000092	-0.729892	0.116938
C84	C	0.333425	-0.396559	0.450271
C85	C	-0.383176	-1.063236	-0.216401
C86	C	-0.049843	-0.729903	0.116932
C87	C	0.283491	-0.396569	0.450266
C88	C	-0.692812	-1.110508	-0.187728
C89	C	-0.359479	-0.777175	0.145605
C90	C	-0.026146	-0.443842	0.478938
C91	C	-0.880485	-1.110599	-0.187746
C92	C	-0.547152	-0.777266	0.145588
C93	C	-0.213819	-0.443932	0.478921
O94	O	-0.904744	-1.150686	-0.163350
O95	O	-0.571411	-0.817353	0.169983
O96	O	-0.238077	-0.484020	0.503317
N97	N	-0.903961	-1.063511	-0.216451
N98	N	-0.570628	-0.730178	0.116882
N99	N	-0.237294	-0.396844	0.450215
C100	C	-0.880516	-1.016400	-0.245157
C101	C	-0.547183	-0.683067	0.088176
C102	C	-0.213849	-0.349734	0.421510
O103	O	-0.904790	-0.976356	-0.269577
O104	O	-0.571456	-0.643023	0.063757
O105	O	-0.238123	-0.309690	0.397090
C106	C	-0.692844	-1.016314	-0.245142
C107	C	-0.359510	-0.682980	0.088192
C108	C	-0.026177	-0.349647	0.421525
C109	C	-0.669370	-1.063400	-0.216431
C110	C	-0.336037	-0.730066	0.116903
C111	C	-0.002704	-0.396733	0.450236
C112	C	-0.669339	-1.157591	-0.159020
C113	C	-0.336005	-0.824258	0.174313
C114	C	-0.002672	-0.490924	0.507647
C115	C	-0.622423	-1.157565	-0.159014
C116	C	-0.289090	-0.824232	0.174319
C117	C	0.044243	-0.490898	0.507652
C118	C	-0.598981	-1.110456	-0.187717
C119	C	-0.265648	-0.777123	0.145617
C120	C	0.067685	-0.443790	0.478950
C121	C	-0.622455	-1.063374	-0.216425
C122	C	-0.289121	-0.730040	0.116908
C123	C	0.044212	-0.396707	0.450242
C124	C	-0.669399	-0.969207	-0.273849
C125	C	-0.336066	-0.635874	0.059484
C126	C	-0.002733	-0.302540	0.392818
C127	C	-0.622478	-0.969191	-0.273844
C128	C	-0.289145	-0.635858	0.059490
C129	C	0.044188	-0.302524	0.392823
C130	C	-0.599005	-1.016277	-0.245133
C131	C	-0.265672	-0.682944	0.088201
C132	C	0.067662	-0.349610	0.421534
C133	C	-0.552097	-1.016239	-0.245122
C134	C	-0.218764	-0.682905	0.088212
C135	C	0.114569	-0.349572	0.421545
N136	N	-0.528622	-1.063327	-0.216416
N137	N	-0.195288	-0.729994	0.116918
N138	N	0.138045	-0.396660	0.450251
C139	C	-0.552063	-1.110436	-0.187713
C140	C	-0.218730	-0.777102	0.145620
C141	C	0.114603	-0.443769	0.478953
C142	C	-0.979046	-1.016448	-0.245163
C143	C	-0.645713	-0.683115	0.088171
C144	C	-0.312380	-0.349781	0.421504
C145	C	-1.025964	-1.016469	-0.245166
C146	C	-0.692631	-0.683135	0.088167
C147	C	-0.359298	-0.349802	0.421501
C148	C	-1.025930	-1.110669	-0.187755
C149	C	-0.692597	-0.777335	0.145578
C150	C	-0.359264	-0.444002	0.478912
C151	C	-0.979012	-1.110644	-0.187750
C152	C	-0.645678	-0.777310	0.145584
C153	C	-0.312345	-0.443977	0.478917
C154	C	-0.955571	-1.063536	-0.216457
C155	C	-0.622237	-0.730203	0.116877
C156	C	-0.288904	-0.396869	0.450210
C157	C	-0.453538	-1.110377	-0.187703
C158	C	-0.120204	-0.777044	0.145630
C159	C	0.213129	-0.443710	0.478964
C160	C	-0.406618	-1.110345	-0.187698
C161	C	-0.073285	-0.777011	0.145635
C162	C	0.260049	-0.443678	0.478968
C163	C	-0.406656	-1.016148	-0.245111
C164	C	-0.073323	-0.682814	0.088223
C165	C	0.260011	-0.349481	0.421556
C166	C	-0.453572	-1.016177	-0.245114
C167	C	-0.120238	-0.682844	0.088219
C168	C	0.213095	-0.349510	0.421553
C169	C	-0.477011	-1.063298	-0.216408
C170	C	-0.143678	-0.729964	0.116925
C171	C	0.189655	-0.396631	0.450258
O172	O	-0.527810	-0.976178	-0.269508
O173	O	-0.194476	-0.642845	0.063825
O174	O	0.138857	-0.309512	0.397159
O175	O	-0.527781	-1.150485	-0.163304
O176	O	-0.194448	-0.817152	0.170029
O177	O	0.138885	-0.483818	0.503362
C178	C	-0.739728	-1.110534	-0.187734
C179	C	-0.406394	-0.777201	0.145599
C180	C	-0.073061	-0.443868	0.478933
C181	C	-0.763201	-1.063452	-0.216442
C182	C	-0.429868	-0.730118	0.116891
C183	C	-0.096534	-0.396785	0.450224
C184	C	-0.739759	-1.016343	-0.245145
C185	C	-0.406426	-0.683010	0.088189
C186	C	-0.073093	-0.349676	0.421522
C187	C	-0.810119	-1.063472	-0.216446
C188	C	-0.476786	-0.730139	0.116888
C189	C	-0.143452	-0.396805	0.450221
C190	C	-0.833561	-1.110581	-0.187743
C191	C	-0.500228	-0.777247	0.145590
C192	C	-0.166894	-0.443914	0.478923
C193	C	-0.810085	-1.157669	-0.159037
C194	C	-0.476752	-0.824336	0.174296
C195	C	-0.143418	-0.491002	0.507629
C196	C	-0.763170	-1.157643	-0.159032
C197	C	-0.429836	-0.824310	0.174302
C198	C	-0.096503	-0.490976	0.507635
C199	C	-0.763235	-0.969255	-0.273851
C200	C	-0.429902	-0.635921	0.059483
C201	C	-0.096568	-0.302588	0.392816
C202	C	-0.810151	-0.969284	-0.273854
C203	C	-0.476817	-0.635951	0.059480
C204	C	-0.143484	-0.302617	0.392813
C205	C	-0.833593	-1.016393	-0.245151
C206	C	-0.500259	-0.683059	0.088182
C207	C	-0.166926	-0.349726	0.421515
C208	C	-0.099341	-1.063512	-0.216450
C209	C	0.233993	-0.730178	0.116884
C210	C	0.567326	-0.396845	0.450217
C211	C	-0.049406	-1.063577	-0.216464
C212	C	0.283927	-0.730244	0.116870
C213	C	0.617260	-0.396911	0.450203
C214	C	-0.216515	-1.063378	-0.333596
C215	C	0.116818	-0.730045	-0.000263
C216	C	0.450152	-0.396712	0.333071
C217	C	-0.216513	-1.063387	-0.383530
C218	C	0.116820	-0.730053	-0.050197
C219	C	0.450153	-0.396720	0.283136
C220	C	-0.216532	-0.255311	-0.216426
C221	C	0.116801	0.078022	0.116908
C222	C	0.450135	0.411355	0.450241
C223	C	-0.216525	-0.337110	-0.216426
C224	C	0.116808	-0.003777	0.116907
C225	C	0.450141	0.329557	0.450241
C226	C	-0.187709	-1.110543	-0.693187
C227	C	0.145624	-0.777210	-0.359854
C228	C	0.478958	-0.443876	-0.026520
C229	C	-0.187671	-1.110580	-0.880860
C230	C	0.145663	-0.777246	-0.547527
C231	C	0.478996	-0.443913	-0.214194
O232	O	-0.163223	-1.150619	-0.905136
O233	O	0.170111	-0.817286	-0.571803
O234	O	0.503444	-0.483952	-0.238469
N235	N	-0.216393	-1.063484	-0.904316
N236	N	0.116940	-0.730151	-0.570982
N237	N	0.450274	-0.396818	-0.237649
C238	C	-0.245125	-1.016373	-0.880850
C239	C	0.088208	-0.683040	-0.547517
C240	C	0.421542	-0.349707	-0.214183
O241	O	-0.269551	-0.976311	-0.905107
O242	O	0.063782	-0.642978	-0.571773
O243	O	0.397116	-0.309645	-0.238440
C244	C	-0.245161	-1.016334	-0.693178
C245	C	0.088173	-0.683000	-0.359845
C246	C	0.421506	-0.349667	-0.026511
C247	C	-0.216440	-1.063437	-0.669725
C248	C	0.116894	-0.730104	-0.336391
C249	C	0.450227	-0.396770	-0.003058
C250	C	-0.158990	-1.157642	-0.669734
C251	C	0.174343	-0.824309	-0.336401
C252	C	0.507677	-0.490976	-0.003067
C253	C	-0.159001	-1.157636	-0.622818
C254	C	0.174332	-0.824302	-0.289485
C255	C	0.507665	-0.490969	0.043848
C256	C	-0.187732	-1.110530	-0.599356
C257	C	0.145601	-0.777196	-0.266023
C258	C	0.478935	-0.443863	0.067311
C259	C	-0.216451	-1.063430	-0.622809
C260	C	0.116882	-0.730097	-0.289476
C261	C	0.450215	-0.396764	0.043857
C262	C	-0.273890	-0.969219	-0.669713
C263	C	0.059443	-0.635886	-0.336380
C264	C	0.392777	-0.302553	-0.003046
C265	C	-0.273896	-0.969212	-0.622792
C266	C	0.059438	-0.635879	-0.289459
C267	C	0.392771	-0.302545	0.043875
C268	C	-0.245175	-1.016316	-0.599339
C269	C	0.088159	-0.682982	-0.266006
C270	C	0.421492	-0.349649	0.067328
C271	C	-0.245193	-1.016318	-0.552431
C272	C	0.088140	-0.682984	-0.219098
C273	C	0.421473	-0.349651	0.114235
N274	N	-0.216471	-1.063413	-0.528976
N275	N	0.116862	-0.730080	-0.195643
N276	N	0.450196	-0.396746	0.137691
C277	C	-0.187740	-1.110519	-0.552438
C278	C	0.145593	-0.777186	-0.219105
C279	C	0.478926	-0.443852	0.114228
C280	C	-0.245105	-1.016398	-0.979381
C281	C	0.088228	-0.683065	-0.646047
C282	C	0.421562	-0.349732	-0.312714
C283	C	-0.245097	-1.016409	-1.026299
C284	C	0.088237	-0.683076	-0.692965
C285	C	0.421570	-0.349742	-0.359632
C286	C	-0.187641	-1.110615	-1.026305
C287	C	0.145692	-0.777281	-0.692972
C288	C	0.479025	-0.443948	-0.359639
C289	C	-0.187652	-1.110607	-0.979387
C290	C	0.145681	-0.777274	-0.646053
C291	C	0.479014	-0.443941	-0.312720
C292	C	-0.216382	-1.063494	-0.955925
C293	C	0.116951	-0.730160	-0.622592
C294	C	0.450284	-0.396827	-0.289259
C295	C	-0.187767	-1.110502	-0.453912
C296	C	0.145566	-0.777168	-0.120579
C297	C	0.478899	-0.443835	0.212754
C298	C	-0.187783	-1.110493	-0.406993
C299	C	0.145551	-0.777159	-0.073659
C300	C	0.478884	-0.443826	0.259674
C301	C	-0.245236	-1.016285	-0.406990
C302	C	0.088097	-0.682951	-0.073657
C303	C	0.421431	-0.349618	0.259677
C304	C	-0.245222	-1.016296	-0.453906
C305	C	0.088111	-0.682963	-0.120572
C306	C	0.421444	-0.349629	0.212761
C307	C	-0.216484	-1.063407	-0.477366
C308	C	0.116849	-0.730073	-0.144032
C309	C	0.450182	-0.396740	0.189301
O310	O	-0.269625	-0.976293	-0.528127
O311	O	0.063708	-0.642960	-0.194793
O312	O	0.397042	-0.309627	0.138540
O313	O	-0.163311	-1.150563	-0.528174
O314	O	0.170022	-0.817230	-0.194840
O315	O	0.503356	-0.483897	0.138493
C316	C	-0.187697	-1.110550	-0.740103
C317	C	0.145636	-0.777217	-0.406769
C318	C	0.478969	-0.443883	-0.073436
C319	C	-0.216416	-1.063451	-0.763556
C320	C	0.116917	-0.730117	-0.430222
C321	C	0.450250	-0.396784	-0.096889
C322	C	-0.245147	-1.016345	-0.740093
C323	C	0.088186	-0.683011	-0.406760
C324	C	0.421520	-0.349678	-0.073427
C325	C	-0.216408	-1.063461	-0.810474
C326	C	0.116925	-0.730128	-0.477140
C327	C	0.450259	-0.396795	-0.143807
C328	C	-0.187677	-1.110567	-0.833936
C329	C	0.145656	-0.777234	-0.500603
C330	C	0.478989	-0.443901	-0.167269
C331	C	-0.158955	-1.157663	-0.810480
C332	C	0.174378	-0.824329	-0.477147
C333	C	0.507712	-0.490996	-0.143814
C334	C	-0.158967	-1.157656	-0.763565
C335	C	0.174367	-0.824323	-0.430232
C336	C	0.507700	-0.490989	-0.096898
C337	C	-0.273870	-0.969249	-0.763549
C338	C	0.059464	-0.635916	-0.430216
C339	C	0.392797	-0.302583	-0.096882
C340	C	-0.273856	-0.969261	-0.810464
C341	C	0.059477	-0.635927	-0.477131
C342	C	0.392811	-0.302594	-0.143798
C343	C	-0.245125	-1.016367	-0.833927
C344	C	0.088208	-0.683033	-0.500593
C345	C	0.421541	-0.349700	-0.167260
C346	C	-0.216491	-1.063381	-0.099695
C347	C	0.116843	-0.730048	0.233638
C348	C	0.450176	-0.396714	0.566972
C349	C	-0.216366	-1.063515	-0.049761
C350	C	0.116967	-0.730182	0.283572
C351	C	0.450301	-0.396848	0.616906
H352	H	-0.387507	-1.148688	-0.164317
H353	H	-0.054174	-0.815354	0.169016
H354	H	0.279159	-0.482021	0.502350
H355	H	-0.164394	-1.148853	-0.387899
H356	H	0.168939	-0.815519	-0.054566
H357	H	0.502273	-0.482186	0.278767
H358	H	-0.268503	-0.978033	-0.960283
H359	H	0.064830	-0.644700	-0.626949
H360	H	0.398163	-0.311367	-0.293616
H361	H	-1.045072	-0.978120	-0.268541
H362	H	-0.711739	-0.644786	0.064792
H363	H	-0.378406	-0.311453	0.398126
H364	H	-0.297278	-0.930862	-0.688801
H365	H	0.036056	-0.597529	-0.355467
H366	H	0.369389	-0.264195	-0.022134
H367	H	-0.472685	-0.977838	-0.268494
H368	H	-0.139351	-0.644505	0.064839
H369	H	0.193982	-0.311171	0.398173
H370	H	-0.268560	-0.633382	-0.164193
H371	H	0.064773	-0.300049	0.169141
H372	H	0.398106	0.033284	0.502474
H373	H	-0.387562	-0.977790	-0.268479
H374	H	-0.054229	-0.644457	0.064855
H375	H	0.279104	-0.311123	0.398188
H376	H	-0.164469	-0.494089	-0.268640
H377	H	0.168864	-0.160756	0.064693
H378	H	0.502198	0.172578	0.398026
H379	H	-0.135563	-1.196020	-0.829592
H380	H	0.197770	-0.862687	-0.496258
H381	H	0.531104	-0.529354	-0.162925
H382	H	-0.297248	-0.930904	-0.829556
H383	H	0.036085	-0.597571	-0.496223
H384	H	0.369418	-0.264238	-0.162889
H385	H	-0.297287	-0.930838	-0.603692
H386	H	0.036046	-0.597504	-0.270359
H387	H	0.369380	-0.264171	0.062975
H388	H	-0.268613	-0.977947	-0.473002
H389	H	0.064720	-0.644614	-0.139669
H390	H	0.398053	-0.311281	0.193665
H391	H	-0.472617	-1.148749	-0.164329
H392	H	-0.139283	-0.815415	0.169004
H393	H	0.194050	-0.482082	0.502337
H394	H	-0.164248	-1.148971	-1.045416
H395	H	0.169085	-0.815637	-0.712083
H396	H	0.502419	-0.482304	-0.378750
H397	H	-0.268489	-0.978061	-1.045390
H398	H	0.064844	-0.644727	-0.712057
H399	H	0.398178	-0.311394	-0.378724
H400	H	-0.268564	-0.493941	-0.164202
H401	H	0.064770	-0.160608	0.169132
H402	H	0.398103	0.172726	0.502465
H403	H	-0.164464	-0.633516	-0.268639
H404	H	0.168869	-0.300183	0.064694
H405	H	0.502203	0.033150	0.398028
H406	H	-0.603314	-1.195908	-0.135637
H407	H	-0.269981	-0.862575	0.197697
H408	H	0.063353	-0.529242	0.531030
H409	H	-0.744061	-1.195985	-0.135653
H410	H	-0.410728	-0.862651	0.197681
H411	H	-0.077394	-0.529318	0.531014
H412	H	-0.688420	-1.195956	-0.135647
H413	H	-0.355087	-0.862623	0.197686
H414	H	-0.021754	-0.529290	0.531020
H415	H	-0.959964	-0.978085	-0.268540
H416	H	-0.626630	-0.644752	0.064793
H417	H	-0.293297	-0.311419	0.398127
H418	H	-0.164365	-1.148861	-0.473008
H419	H	0.168969	-0.815528	-0.139675
H420	H	0.502302	-0.482195	0.193659
H421	H	-1.045025	-1.149027	-0.164384
H422	H	-0.711692	-0.815693	0.168949
H423	H	-0.378358	-0.482360	0.502282
H424	H	-0.959902	-1.148985	-0.164371
H425	H	-0.626569	-0.815652	0.168962
H426	H	-0.293236	-0.482319	0.502296
H427	H	-0.135613	-1.195991	-0.603727
H428	H	0.197720	-0.862658	-0.270394
H429	H	0.531054	-0.529324	0.062940
H430	H	-0.268629	-0.977934	-0.387879
H431	H	0.064704	-0.644601	-0.054545
H432	H	0.398038	-0.311268	0.278788
H433	H	-0.688503	-0.930861	-0.297227
H434	H	-0.355170	-0.597528	0.036107
H435	H	-0.021837	-0.264194	0.369440
H436	H	-0.744152	-0.930894	-0.297224
H437	H	-0.410819	-0.597561	0.036109
H438	H	-0.077486	-0.264227	0.369443
H439	H	-0.829180	-1.196024	-0.135666
H440	H	-0.495846	-0.862691	0.197668
H441	H	-0.162513	-0.529358	0.531001
H442	H	-0.603395	-0.930831	-0.297222
H443	H	-0.270061	-0.597498	0.036112
H444	H	0.063272	-0.264164	0.369445
H445	H	-0.135591	-1.196002	-0.688832
H446	H	0.197742	-0.862669	-0.355499
H447	H	0.531075	-0.529335	-0.022165
H448	H	-0.164264	-1.148962	-0.960294
H449	H	0.169069	-0.815629	-0.626961
H450	H	0.502402	-0.482295	-0.293628
H451	H	-0.135579	-1.196012	-0.744473
H452	H	0.197755	-0.862679	-0.411140
H453	H	0.531088	-0.529346	-0.077807
H454	H	-0.297267	-0.930890	-0.744451
H455	H	0.036067	-0.597557	-0.411117
H456	H	0.369400	-0.264223	-0.077784
H457	H	-0.829259	-0.930935	-0.297233
H458	H	-0.495925	-0.597601	0.036100
H459	H	-0.162592	-0.264268	0.369434
