data_functionalizedCrystal
_audit_creation_method	'MofGen! by Chris Wilmer'
_symmetry_space_group_name_H-M	'P1'
_symmetry_Int_Tables_number	1
_symmetry_cell_setting	triclinic
loop_
_symmetry_equiv_pos_as_xyz
  x,y,z
_cell_length_a	14.519709
_cell_length_b	14.971486
_cell_length_c	14.048226
_cell_angle_alpha	90.006640
_cell_angle_beta	90.000842
_cell_angle_gamma	83.647137
loop_
_atom_site_label
_atom_site_type_symbol
_atom_site_fract_x
_atom_site_fract_y
_atom_site_fract_z
O1	O	-1.223800	-0.117253	-0.079037
O2	O	-0.890466	0.216081	0.254296
O3	O	-0.557133	0.549414	0.587630
O4	O	-0.955315	-0.131060	-0.079066
O5	O	-0.621981	0.202273	0.254267
O6	O	-0.288648	0.535606	0.587600
O7	O	-1.096753	0.006039	-0.079044
O8	O	-0.763420	0.339373	0.254289
O9	O	-0.430087	0.672706	0.587623
O10	O	-1.082361	-0.254353	-0.079059
O11	O	-0.749028	0.078981	0.254274
O12	O	-0.415694	0.412314	0.587607
O13	O	-1.096736	0.006048	0.079277
O14	O	-0.763403	0.339381	0.412611
O15	O	-0.430070	0.672714	0.745944
O16	O	-0.955298	-0.131052	0.079255
O17	O	-0.621964	0.202281	0.412588
O18	O	-0.288631	0.535614	0.745922
O19	O	-1.223783	-0.117245	0.079284
O20	O	-0.890449	0.216089	0.412618
O21	O	-0.557116	0.549422	0.745951
Zn22	Zn	-1.089538	-0.124147	0.104407
Zn23	Zn	-0.756204	0.209186	0.437740
Zn24	Zn	-0.422871	0.542520	0.771073
Zn25	Zn	-1.089560	-0.124158	-0.104189
Zn26	Zn	-0.756227	0.209176	0.229145
Zn27	Zn	-0.422893	0.542509	0.562478
O28	O	-1.082344	-0.254344	0.079262
O29	O	-0.749011	0.078989	0.412595
O30	O	-0.415677	0.412322	0.745929
C31	C	-0.920947	-0.130413	0.000091
C32	C	-0.587613	0.202920	0.333424
C33	C	-0.254280	0.536254	0.666757
C34	C	-0.818567	-0.128485	0.000080
C35	C	-0.485233	0.204849	0.333413
C36	C	-0.151900	0.538182	0.666746
C37	C	-1.258151	-0.117892	0.000125
C38	C	-0.924817	0.215441	0.333458
C39	C	-0.591484	0.548775	0.666792
C40	C	-1.360531	-0.119820	0.000130
C41	C	-1.027197	0.213513	0.333463
C42	C	-0.693864	0.546846	0.666796
C43	C	-1.096101	0.039369	0.000116
C44	C	-0.762768	0.372702	0.333449
C45	C	-0.429435	0.706035	0.666783
C46	C	-1.094172	0.138667	0.000115
C47	C	-0.760839	0.472000	0.333448
C48	C	-0.427506	0.805333	0.666782
C49	C	-0.443675	-0.121386	0.000123
C50	C	-0.110342	0.211948	0.333457
C51	C	0.222992	0.545281	0.666790
C52	C	-0.547982	-0.123357	0.000111
C53	C	-0.214649	0.209976	0.333444
C54	C	0.118685	0.543310	0.666778
C55	C	-0.631118	-0.124935	0.000101
C56	C	-0.297784	0.208399	0.333434
C57	C	0.035549	0.541732	0.666767
C58	C	-0.735431	-0.126907	0.000090
C59	C	-0.402098	0.206427	0.333423
C60	C	-0.068764	0.539760	0.666757
C61	C	-1.082996	-0.287674	0.000100
C62	C	-0.749663	0.045660	0.333433
C63	C	-0.416330	0.378993	0.666766
C64	C	-1.084925	-0.386972	0.000094
C65	C	-0.751592	-0.053638	0.333428
C66	C	-0.418258	0.279695	0.666761
N67	N	-1.089529	-0.124139	0.246767
N68	N	-0.756196	0.209194	0.580101
N69	N	-0.422862	0.542527	0.913434
C70	C	-1.177264	0.195845	0.000125
C71	C	-0.843930	0.529179	0.333458
C72	C	-0.510597	0.862512	0.666791
C73	C	-1.175446	0.289146	0.000115
C74	C	-0.842113	0.622479	0.333448
C75	C	-0.508779	0.955813	0.666782
C76	C	-1.090536	0.325266	0.000102
C77	C	-0.757202	0.658599	0.333436
C78	C	-0.423869	0.991933	0.666769
C79	C	-1.007438	0.268080	0.000090
C80	C	-0.674105	0.601413	0.333423
C81	C	-0.340771	0.934747	0.666756
C82	C	-1.009257	0.174781	0.000093
C83	C	-0.675923	0.508115	0.333426
C84	C	-0.342590	0.841448	0.666759
C85	C	-1.003653	0.462545	0.000086
C86	C	-0.670320	0.795878	0.333419
C87	C	-0.336986	1.129211	0.666753
C88	C	-1.001834	0.555850	0.000085
C89	C	-0.668500	0.889183	0.333418
C90	C	-0.335167	1.222516	0.666751
C91	C	-1.169842	0.576909	0.000108
C92	C	-0.836509	0.910242	0.333442
C93	C	-0.503175	1.243576	0.666775
C94	C	-1.171661	0.483610	0.000111
C95	C	-0.838328	0.816944	0.333445
C96	C	-0.504994	1.150277	0.666778
C97	C	-1.088563	0.426431	0.000100
C98	C	-0.755229	0.759764	0.333434
C99	C	-0.421896	1.093098	0.666767
N100	N	-1.089576	-0.124159	-0.246549
N101	N	-0.756242	0.209175	0.086784
N102	N	-0.422909	0.542508	0.420117
C103	C	-1.152178	-0.063457	0.296595
C104	C	-0.818844	0.269877	0.629928
C105	C	-0.485511	0.603210	0.963262
C106	C	-1.152184	-0.063456	0.396253
C107	C	-0.818851	0.269877	0.729586
C108	C	-0.485517	0.603211	1.062919
C109	C	-1.089545	-0.124143	0.446081
C110	C	-0.756212	0.209190	0.779414
C111	C	-0.422878	0.542523	1.112747
C112	C	-1.026890	-0.184829	0.396246
C113	C	-0.693556	0.148504	0.729579
C114	C	-0.360223	0.481838	1.062913
C115	C	-1.026880	-0.184824	0.296590
C116	C	-0.693546	0.148509	0.629923
C117	C	-0.360213	0.481842	0.963257
C118	C	-1.026916	-0.184835	0.603960
C119	C	-0.693583	0.148498	0.937293
C120	C	-0.360250	0.481831	1.270627
C121	C	-1.026927	-0.184841	0.703623
C122	C	-0.693594	0.148492	1.036956
C123	C	-0.360260	0.481825	1.370290
C124	C	-1.152220	-0.063467	0.703623
C125	C	-0.818887	0.269866	1.036956
C126	C	-0.485554	0.603200	1.370289
C127	C	-1.152211	-0.063463	0.603967
C128	C	-0.818877	0.269871	0.937300
C129	C	-0.485544	0.603204	1.270634
C130	C	-1.089556	-0.124150	0.554139
C131	C	-0.756223	0.209184	0.887472
C132	C	-0.422889	0.542517	1.220806
H133	H	-1.246407	0.166444	0.000141
H134	H	-0.913074	0.499778	0.333474
H135	H	-0.579741	0.833111	0.666808
Br136	Br	-1.237254	0.018888	0.771249
Br137	Br	-0.903921	0.352222	1.104582
Br138	Br	-0.570587	0.685555	1.437916
Br139	Br	-0.886597	0.604870	0.000072
Br140	Br	-0.553264	0.938203	0.333405
Br141	Br	-0.219931	1.271536	0.666739
H142	H	-0.938303	0.297496	0.000073
H143	H	-0.604969	0.630829	0.333407
H144	H	-0.271636	0.964163	0.666740
H145	H	-0.941595	0.128227	0.000085
H146	H	-0.608262	0.461560	0.333418
H147	H	-0.274928	0.794893	0.666751
Br148	Br	-1.237228	0.018890	0.536340
Br149	Br	-0.903894	0.352224	0.869673
Br150	Br	-0.570561	0.685557	1.203006
Br151	Br	-1.237199	0.018903	0.228982
Br152	Br	-0.903866	0.352237	0.562315
Br153	Br	-0.570533	0.685570	0.895648
Br154	Br	-1.237205	0.018903	0.463880
Br155	Br	-0.903872	0.352237	0.797213
Br156	Br	-0.570538	0.685570	1.130546
H157	H	-1.243107	0.335698	0.000125
H158	H	-0.909774	0.669031	0.333458
H159	H	-0.576441	1.002364	0.666792
H160	H	-0.975919	-0.234258	0.744188
H161	H	-0.642586	0.099075	1.077521
H162	H	-0.309252	0.432408	1.410854
H163	H	-0.935985	0.415991	0.000075
H164	H	-0.602652	0.749324	0.333408
H165	H	-0.269319	1.082657	0.666741
Br166	Br	-0.941879	-0.267194	0.536339
Br167	Br	-0.608546	0.066139	0.869673
Br168	Br	-0.275212	0.399473	1.203006
H169	H	-0.975883	-0.234239	0.436822
H170	H	-0.642550	0.099095	0.770155
H171	H	-0.309217	0.432428	1.103488
H172	H	-1.240802	0.454205	0.000128
H173	H	-0.907469	0.787538	0.333462
H174	H	-0.574135	1.120872	0.666795
Br175	Br	-1.282619	0.654508	0.000121
Br176	Br	-0.949285	0.987842	0.333454
Br177	Br	-0.615952	1.321175	0.666788
Br178	Br	-0.941847	-0.267177	0.228966
Br179	Br	-0.608513	0.066156	0.562300
Br180	Br	-0.275180	0.399489	0.895633
