data_functionalizedCrystal
_audit_creation_method	'MofGen! by Chris Wilmer'
_symmetry_space_group_name_H-M	'P1'
_symmetry_Int_Tables_number	1
_symmetry_cell_setting	triclinic
loop_
_symmetry_equiv_pos_as_xyz
  x,y,z
_cell_length_a	11.026607
_cell_length_b	19.188925
_cell_length_c	10.065875
_cell_angle_alpha	98.759503
_cell_angle_beta	79.302338
_cell_angle_gamma	95.864283
loop_
_atom_site_label
_atom_site_type_symbol
_atom_site_fract_x
_atom_site_fract_y
_atom_site_fract_z
O1	O	1.626402	0.284149	-0.113499
O2	O	1.273273	0.250879	-0.113500
O3	O	1.460030	0.167157	-0.113492
O4	O	1.439645	0.367870	-0.113507
O5	O	1.424418	0.183204	0.113496
O6	O	1.237661	0.266925	0.113487
O7	O	1.590789	0.300195	0.113488
Zn8	Zn	1.408571	0.286108	0.149527
Zn9	Zn	1.455492	0.264966	-0.149538
O10	O	1.404032	0.383916	0.113480
C11	C	1.210289	0.252764	-0.000007
C12	C	1.075673	0.234467	-0.000007
C13	C	1.001598	0.284987	-0.000012
C14	C	0.862465	0.266078	-0.000012
C15	C	1.441565	0.149086	0.000001
C16	C	1.439587	0.071328	-0.000002
C17	C	1.535927	-0.478167	-0.000036
C18	C	1.537794	-0.405105	-0.000024
C19	C	1.428211	-0.374136	-0.000024
C20	C	1.316746	-0.416234	-0.000003
C21	C	1.314879	-0.489293	-0.000001
N22	N	1.360998	-0.269028	-0.077285
N23	N	1.362780	-0.199624	-0.077289
C24	C	1.433828	-0.154011	-0.000025
N25	N	1.503049	-0.180424	0.077226
N26	N	1.501272	-0.249835	0.077224
C27	C	1.430223	-0.294915	-0.000025
C28	C	1.547310	-0.032699	-0.000024
C29	C	1.549172	0.040365	-0.000003
C30	C	1.328122	0.029233	0.000004
C31	C	1.326261	-0.043828	-0.000003
C32	C	1.435860	-0.074790	-0.000024
C33	C	1.653774	0.298309	-0.000008
C34	C	1.788392	0.316605	-0.000017
C35	C	1.422498	0.401988	-0.000016
C36	C	1.424478	0.479744	-0.000022
N37	N	1.376557	0.300537	0.353631
N38	N	1.487515	0.250532	-0.353643
C39	C	1.444346	0.269981	0.421413
C40	C	1.419717	0.281093	0.578579
H41	H	1.041183	0.342239	-0.000008
N42	N	1.651629	-0.362089	-0.000034
N43	N	1.662325	-0.313312	0.095637
H44	H	1.742720	-0.282932	0.095629
H45	H	1.343437	0.315479	0.636897
N46	N	0.812843	0.194248	0.000008
N47	N	0.821777	0.161568	0.095692
H48	H	0.786732	0.110838	0.095708
H49	H	0.827969	0.373861	-0.000012
N50	N	1.216192	0.060870	0.000019
N51	N	1.217870	0.126102	0.000025
H52	H	1.138815	0.148450	0.000041
H53	H	1.227522	-0.391014	0.000001
N54	N	1.201019	-0.532279	0.000020
N55	N	1.103179	-0.504624	0.000034
H56	H	1.022763	-0.534983	0.000048
H57	H	1.235509	-0.078099	-0.000001
N58	N	1.026045	0.162641	0.000013
N59	N	1.034980	0.129961	0.095697
H60	H	0.999935	0.079231	0.095713
H61	H	1.563785	0.216140	0.588040
H62	H	1.520612	0.235591	0.363092
H63	H	1.636551	-0.057910	-0.000040
N64	N	1.280890	0.343687	0.426784
N65	N	1.284990	0.407290	0.410932
H66	H	1.217423	0.437767	0.462593
H67	H	1.625169	-0.503371	-0.000045
N68	N	1.663030	0.083351	-0.000002
N69	N	1.760868	0.055693	-0.000017
H70	H	1.841283	0.086053	-0.000016
