data_functionalizedCrystal
_audit_creation_method	'MofGen! by Chris Wilmer'
_symmetry_space_group_name_H-M	'P1'
_symmetry_Int_Tables_number	1
_symmetry_cell_setting	triclinic
loop_
_symmetry_equiv_pos_as_xyz
  x,y,z
_cell_length_a	10.654551
_cell_length_b	10.654551
_cell_length_c	9.482900
_cell_angle_alpha	99.428019
_cell_angle_beta	80.619896
_cell_angle_gamma	84.485316
loop_
_atom_site_label
_atom_site_type_symbol
_atom_site_fract_x
_atom_site_fract_y
_atom_site_fract_z
O1	O	1.687240	0.156914	-0.120867
O2	O	1.321763	0.173718	-0.120873
O3	O	1.512904	-0.017423	-0.120871
O4	O	1.496099	0.348056	-0.120870
O5	O	1.474080	0.021559	0.120921
O6	O	1.282939	0.212701	0.120919
O7	O	1.648416	0.195897	0.120925
Cu8	Cu	1.462133	0.207858	0.142999
Cu9	Cu	1.508046	0.161757	-0.142948
O10	O	1.457275	0.387038	0.120922
C11	C	1.255553	0.191975	0.000022
C12	C	1.116110	0.188282	0.000019
C13	C	0.898416	0.204314	0.131821
C14	C	1.029436	0.207795	0.131822
C15	C	1.071758	0.165301	-0.131793
C16	C	0.940739	0.161829	-0.131792
C17	C	0.811748	0.223815	0.263633
C18	C	0.856091	0.246799	0.395445
C19	C	0.987111	0.250280	0.395446
C20	C	1.073788	0.230776	0.263634
C21	C	1.492258	-0.044730	0.000022
C22	C	1.488568	-0.184175	0.000012
C23	C	1.507998	-0.270936	-0.131786
C24	C	1.504516	-0.401955	-0.131780
C25	C	1.462178	-0.359440	0.131835
C26	C	1.465651	-0.228422	0.131827
C27	C	1.530915	-0.226689	-0.263602
C28	C	1.550348	-0.313451	-0.395411
C29	C	1.546867	-0.444471	-0.395404
C30	C	1.523952	-0.488727	-0.263588
C31	C	1.714627	0.177639	0.000026
C32	C	1.854071	0.181330	0.000019
C33	C	1.477921	0.414345	0.000026
C34	C	1.481614	0.553788	0.000027
N35	N	1.429849	0.240282	0.344119
N36	N	1.540340	0.129323	-0.344068
C37	C	1.498515	0.171314	0.416319
C38	C	1.471664	0.198301	0.583736
H39	H	1.023209	0.269007	0.502774
C40	C	1.217908	0.234605	0.263636
H41	H	1.231908	0.251082	0.361012
H42	H	1.246424	0.300649	0.214955
H43	H	1.264301	0.154423	0.214961
C44	C	1.646619	0.022555	0.572029
H45	H	1.686210	-0.017220	0.639039
H46	H	1.708907	0.058531	0.512634
H47	H	1.610293	-0.039531	0.512666
C48	C	0.760741	0.268358	0.540426
H49	H	0.676357	0.263015	0.521552
H50	H	0.764620	0.350787	0.594509
H51	H	0.782412	0.204582	0.594653
C52	C	1.604789	0.064553	0.332407
H53	H	1.644381	0.024776	0.399415
H54	H	1.667075	0.100530	0.273012
H55	H	1.568462	0.002467	0.273043
C56	C	1.365387	0.305067	0.667649
H57	H	1.361288	0.309206	0.769164
H58	H	1.285356	0.286906	0.642794
H59	H	1.383972	0.384966	0.642774
C60	C	1.167093	0.143840	-0.276775
H61	H	1.121916	0.129665	-0.355274
H62	H	1.228025	0.071203	-0.282256
H63	H	1.210139	0.217431	-0.282250
C64	C	0.891952	0.136567	-0.276771
H65	H	0.962332	0.125439	-0.355273
H66	H	0.832784	0.207449	-0.282228
H67	H	0.850656	0.061216	-0.282263
C68	C	1.575551	-0.264773	-0.540395
H69	H	1.574854	-0.174320	-0.521526
H70	H	1.510572	-0.286034	-0.594559
H71	H	1.656796	-0.303926	-0.594539
C72	C	1.568243	-0.539906	-0.540384
H73	H	1.582399	-0.494785	-0.618883
H74	H	1.494664	-0.582963	-0.545876
H75	H	1.640886	-0.600836	-0.545847
C76	C	1.323556	0.347025	0.428031
H77	H	1.283947	0.386784	0.361023
H78	H	1.359850	0.409113	0.487415
H79	H	1.261272	0.311014	0.487405
C80	C	1.534917	-0.082595	-0.263615
H81	H	1.551393	-0.068671	-0.360992
H82	H	1.601040	-0.054183	-0.214926
H83	H	1.454824	-0.036040	-0.214950
H84	H	0.705063	0.220981	0.263647
H85	H	1.521101	-0.595412	-0.263594
H86	H	1.443523	-0.395485	0.239153
H87	H	1.449802	-0.157775	0.239149
