data_functionalizedCrystal
_audit_creation_method	'MofGen! by Chris Wilmer'
_symmetry_space_group_name_H-M	'P1'
_symmetry_Int_Tables_number	1
_symmetry_cell_setting	triclinic
loop_
_symmetry_equiv_pos_as_xyz
  x,y,z
_cell_length_a	19.188930
_cell_length_b	12.837942
_cell_length_c	11.892095
_cell_angle_alpha	85.697431
_cell_angle_beta	93.899644
_cell_angle_gamma	88.986860
loop_
_atom_site_label
_atom_site_type_symbol
_atom_site_fract_x
_atom_site_fract_y
_atom_site_fract_z
O1	O	-0.939057	-0.122707	-0.094371
O2	O	-0.736937	-0.140129	-0.094294
O3	O	-0.833514	0.019464	-0.094324
O4	O	-0.842479	-0.282300	-0.094341
O5	O	-0.825461	0.006178	0.093686
O6	O	-0.728883	-0.153415	0.093716
O7	O	-0.931003	-0.135993	0.093639
Zn8	Zn	-0.828664	-0.146814	0.123528
Zn9	Zn	-0.839275	-0.129309	-0.124183
O10	O	-0.834425	-0.295586	0.093669
C11	C	-0.706859	-0.146209	-0.000279
C12	C	-0.629238	-0.144518	-0.000249
C13	C	-0.826460	0.051427	-0.000319
C14	C	-0.817429	0.166463	-0.000317
C15	C	-0.961080	-0.129913	-0.000379
C16	C	-1.038702	-0.131604	-0.000416
C17	C	-0.590737	-0.238159	-0.000273
C18	C	-0.517805	-0.236568	-0.000285
C19	C	-0.483377	-0.141328	-0.000297
C20	C	-0.521886	-0.047675	-0.000267
C21	C	-0.594816	-0.049270	-0.000244
N22	N	-0.373146	-0.064005	-0.064326
N23	N	-0.303865	-0.062496	-0.064351
C24	C	-0.263641	-0.136517	-0.000366
N25	N	-0.295316	-0.212118	0.063631
N26	N	-0.364603	-0.213630	0.063651
C27	C	-0.404296	-0.139588	-0.000322
C28	C	-0.146059	-0.228439	-0.000401
C29	C	-0.073126	-0.226844	-0.000406
C30	C	-0.077208	-0.037948	-0.000400
C31	C	-0.150140	-0.039547	-0.000383
C32	C	-0.184561	-0.134794	-0.000389
C33	C	-0.841480	-0.327550	-0.000339
C34	C	-0.850511	-0.442585	-0.000348
N35	N	-0.821427	-0.158760	0.292584
C36	C	-0.925999	0.407919	-0.000382
C37	C	-0.917517	0.516006	-0.000381
C38	C	-0.791983	0.490728	-0.000321
C39	C	-0.800465	0.382641	-0.000322
C40	C	-0.867475	0.341240	-0.000351
C41	C	-0.875956	0.233150	-0.000344
C42	C	-0.750424	0.207875	-0.000293
C43	C	-0.741941	0.315962	-0.000292
N44	N	-0.846517	-0.117354	-0.293240
C45	C	-0.896871	-0.034169	0.529209
C46	C	-0.891818	-0.042527	0.647552
C47	C	-0.806265	-0.183827	0.647617
C48	C	-0.811318	-0.175470	0.529273
C49	C	-0.856623	-0.100639	0.470073
C50	C	-0.861679	-0.092287	0.351728
C51	C	-0.776123	-0.233582	0.351794
C52	C	-0.771070	-0.241940	0.470138
H53	H	-0.618759	-0.315717	-0.000279
C54	C	-0.484384	0.055627	-0.000341
C55	C	-0.412275	0.036986	-0.000400
C56	C	-0.377708	0.132127	-0.000477
H57	H	-0.494264	0.089619	0.065211
H58	H	-0.499964	0.098816	-0.065924
H59	H	-0.396701	-0.006186	0.065177
H60	H	-0.402374	0.003009	-0.065947
H61	H	-0.393288	0.175315	-0.066061
H62	H	-0.387594	0.166111	0.065076
H63	H	-0.328779	0.119492	-0.000528
C64	C	-0.719230	0.535654	-0.000536
C65	C	-0.687577	0.508588	-0.097263
C66	C	-0.620561	0.549969	-0.097511
H67	H	-0.691934	0.508163	0.064960
H68	H	-0.722540	0.609585	-0.000608
H69	H	-0.684263	0.434672	-0.097181
H70	H	-0.714852	0.536078	-0.162775
H71	H	-0.623871	0.623900	-0.097583
H72	H	-0.593271	0.522476	-0.032011
H73	H	-0.599078	0.531619	-0.163143
H74	H	-0.041779	-0.303102	-0.000418
H75	H	-0.626163	0.026986	-0.000225
C76	C	-0.669185	0.360877	-0.000493
C77	C	-0.637526	0.333809	-0.097214
C78	C	-0.570505	0.375176	-0.097443
H79	H	-0.641896	0.333377	0.065008
H80	H	-0.672488	0.434808	-0.000560
H81	H	-0.634219	0.259893	-0.097136
H82	H	-0.664793	0.361308	-0.162730
H83	H	-0.573808	0.449107	-0.097510
H84	H	-0.543223	0.347673	-0.031938
H85	H	-0.549018	0.356824	-0.163071
C86	C	-0.686844	0.135510	-0.000026
C87	C	-0.642783	0.147332	0.096734
C88	C	-0.584214	0.080676	0.097031
H89	H	-0.662386	0.152588	-0.065500
H90	H	-0.701461	0.065187	0.000033
H91	H	-0.628165	0.217639	0.096664
H92	H	-0.667219	0.130246	0.162223
H93	H	-0.598831	0.010353	0.097091
H94	H	-0.559763	0.097760	0.031554
H95	H	-0.554315	0.088681	0.162687
C96	C	-0.910879	-0.010941	0.287654
C97	C	-0.945028	0.045501	0.364779
C98	C	-0.990348	0.120458	0.305800
H99	H	-0.944447	-0.044724	0.241461
H100	H	-0.884881	0.035417	0.241534
H101	H	-0.971024	-0.000850	0.410880
H102	H	-0.911477	0.079306	0.410975
H103	H	-0.964351	0.166816	0.259680
H104	H	-1.023912	0.086667	0.259608
H105	H	-1.013519	0.158770	0.358120
H106	H	-0.930519	0.199444	-0.000364
H107	H	-0.174086	-0.305997	-0.000389
H108	H	-0.734182	-0.302863	0.518352
H109	H	-0.933765	0.026754	0.481007
H110	H	-0.769374	-0.244746	0.695833
C111	C	-0.732545	-0.305803	0.287449
C112	C	-0.776855	-0.364284	0.219465
C113	C	-0.736741	-0.430819	0.160165
H114	H	-0.704836	-0.351656	0.339532
H115	H	-0.702993	-0.265407	0.241234
H116	H	-0.806395	-0.404677	0.265676
H117	H	-0.804564	-0.318459	0.167361
H118	H	-0.707188	-0.390422	0.113951
H119	H	-0.709033	-0.476664	0.212257
H120	H	-0.766798	-0.470499	0.114024
C121	C	-0.998809	0.363167	-0.000470
C122	C	-1.048249	0.444699	-0.000520
C123	C	-1.115330	0.403517	-0.000619
H124	H	-1.002019	0.316912	0.065072
H125	H	-1.007570	0.326191	-0.066063
H126	H	-1.039491	0.481658	0.065066
H127	H	-1.045062	0.490960	-0.066057
H128	H	-1.124091	0.366541	-0.066212
H129	H	-1.118533	0.357262	0.064924
H130	H	-1.148884	0.458830	-0.000663
H131	H	-0.486452	-0.312824	-0.000301
H132	H	-0.049180	0.039603	-0.000479
C133	C	-0.191824	0.062240	-0.000429
C134	C	-0.146068	0.145992	-0.000471
C135	C	-0.184443	0.239779	-0.000525
H136	H	-0.217541	0.061061	0.065125
H137	H	-0.223172	0.070235	-0.066010
H138	H	-0.114732	0.138000	0.065103
H139	H	-0.120351	0.147206	-0.066020
H140	H	-0.215791	0.247773	-0.066106
H141	H	-0.210157	0.238589	0.065030
H142	H	-0.153403	0.296616	-0.000564
C143	C	-0.935599	0.029703	0.711553
C144	C	-0.976365	0.097006	0.634373
C145	C	-1.016712	0.163555	0.693289
H146	H	-0.905721	0.069584	0.757743
H147	H	-0.965204	-0.010695	0.757672
H148	H	-0.946763	0.137400	0.588274
H149	H	-1.006256	0.057154	0.588181
H150	H	-1.046316	0.123157	0.739408
H151	H	-0.986829	0.203428	0.739477
H152	H	-1.044381	0.209221	0.640932
H153	H	-0.965174	0.570293	-0.000409
