data_functionalizedCrystal
_audit_creation_method	'MofGen! by Chris Wilmer'
_symmetry_space_group_name_H-M	'P1'
_symmetry_Int_Tables_number	1
_symmetry_cell_setting	triclinic
loop_
_symmetry_equiv_pos_as_xyz
  x,y,z
_cell_length_a	11.169417
_cell_length_b	12.759394
_cell_length_c	11.169409
_cell_angle_alpha	89.965534
_cell_angle_beta	89.979436
_cell_angle_gamma	90.015716
loop_
_atom_site_label
_atom_site_type_symbol
_atom_site_fract_x
_atom_site_fract_y
_atom_site_fract_z
Zn1	Zn	1.834934	-0.418157	-0.678525
Zn2	Zn	1.834805	-0.593883	-0.477834
Zn3	Zn	1.634217	-0.418221	-0.477859
Zn4	Zn	1.634211	-0.593798	-0.678479
O5	O	1.734542	-0.506015	-0.578174
O6	O	2.002866	-0.441477	-0.651911
O7	O	1.808145	-0.570644	-0.309887
O8	O	1.660899	-0.271192	-0.504507
O9	O	2.002771	-0.570582	-0.504465
O10	O	1.808364	-0.271145	-0.651935
O11	O	1.660774	-0.441586	-0.309906
O12	O	1.466266	-0.441503	-0.504463
O13	O	1.660889	-0.570436	-0.846435
O14	O	1.466262	-0.570498	-0.651857
O15	O	1.808359	-0.441394	-0.846468
O16	O	1.808139	-0.740893	-0.504420
O17	O	1.660764	-0.740830	-0.651833
C18	C	1.422717	-0.505999	-0.578159
C19	C	1.289317	-0.506017	-0.578180
C20	C	1.734470	-0.778982	-0.578145
C21	C	1.734548	-0.895759	-0.578173
C22	C	1.888125	-0.895771	-0.424787
C23	C	1.964945	-0.950638	-0.348108
C24	C	1.965015	-1.060359	-0.348140
C25	C	1.888260	-1.115217	-0.424863
C26	C	1.811441	-1.060350	-0.501541
C27	C	1.811376	-0.950626	-0.501498
C28	C	1.657872	-1.060338	-0.654932
C29	C	1.657793	-0.950616	-0.654895
C30	C	1.581117	-1.115195	-0.731654
C31	C	1.504289	-1.060329	-0.808329
C32	C	1.504221	-0.950600	-0.808292
C33	C	1.580974	-0.895750	-0.731574
C34	C	2.047584	-0.506032	-0.578190
C35	C	2.180984	-0.506039	-0.578197
C36	C	1.734638	-0.505898	-0.891217
C37	C	1.734679	-0.505849	-1.024617
C38	C	1.734647	-0.231981	-0.578229
C39	C	1.734691	-0.115205	-0.578253
C40	C	1.734515	-0.506055	-0.266349
C41	C	1.734706	-0.505809	-0.132950
H42	H	2.027441	-0.905963	-0.285643
C43	C	1.580902	-0.775059	-0.731539
H44	H	1.524157	-0.750236	-0.788189
H45	H	1.658331	-0.750172	-0.752340
H46	H	1.560155	-0.750312	-0.654061
C47	C	1.581194	-1.235886	-0.731702
H48	H	1.524490	-1.260696	-0.788382
H49	H	1.560486	-1.260788	-0.654248
H50	H	1.658657	-1.260631	-0.752531
C51	C	1.419870	-1.120671	-0.892711
H52	H	1.430914	-1.193875	-0.881747
H53	H	1.437382	-1.102611	-0.973358
H54	H	1.339221	-1.102768	-0.875065
C55	C	1.888348	-1.235907	-0.424916
H56	H	1.831642	-1.260719	-0.481593
H57	H	1.867650	-1.260816	-0.347462
H58	H	1.965812	-1.260644	-0.445754
C59	C	2.049511	-1.120715	-0.263794
H60	H	2.095209	-1.072334	-0.218091
H61	H	2.101808	-1.163449	-0.309757
H62	H	2.003634	-1.163587	-0.211477
C63	C	1.419722	-0.890250	-0.892641
H64	H	1.430675	-0.817046	-0.881642
H65	H	1.339101	-0.908306	-0.875028
H66	H	1.437281	-0.908157	-0.973302
C67	C	1.888046	-0.775081	-0.424742
H68	H	1.944762	-0.750268	-0.368074
H69	H	1.810588	-0.750332	-0.403924
H70	H	1.908765	-0.750183	-0.502202
