data_functionalizedCrystal
_audit_creation_method	'MofGen! by Chris Wilmer'
_symmetry_space_group_name_H-M	'P1'
_symmetry_Int_Tables_number	1
_symmetry_cell_setting	triclinic
loop_
_symmetry_equiv_pos_as_xyz
  x,y,z
_cell_length_a	17.640112
_cell_length_b	21.295417
_cell_length_c	21.295411
_cell_angle_alpha	89.978356
_cell_angle_beta	101.169060
_cell_angle_gamma	101.256239
loop_
_atom_site_label
_atom_site_type_symbol
_atom_site_fract_x
_atom_site_fract_y
_atom_site_fract_z
Zn1	Zn	1.208340	-0.055888	-0.161687
Zn2	Zn	1.208217	-0.161159	-0.056433
Zn3	Zn	1.076153	-0.077198	-0.077680
Zn4	Zn	1.076115	-0.182439	-0.182898
O5	O	1.142206	-0.119171	-0.119674
O6	O	1.318929	-0.052029	-0.129957
O7	O	1.190663	-0.150034	0.028833
O8	O	1.093756	0.013729	-0.088839
O9	O	1.318839	-0.129371	-0.052626
O10	O	1.190872	0.029386	-0.150559
O11	O	1.093637	-0.088348	0.013223
O12	O	0.965543	-0.108982	-0.109406
O13	O	1.093690	-0.165639	-0.268168
O14	O	0.965515	-0.186302	-0.186709
O15	O	1.190835	-0.072662	-0.252585
O16	O	1.190626	-0.252082	-0.073193
O17	O	1.093571	-0.267716	-0.166107
C18	C	0.936850	-0.152264	-0.152665
C19	C	0.848997	-0.166436	-0.166793
C20	C	1.142103	-0.282739	-0.119656
C21	C	1.142131	-0.352703	-0.119658
C22	C	0.560026	-0.011493	-0.012347
C23	C	0.477475	-0.024823	-0.025632
C24	C	0.477500	-0.105447	-0.105989
C25	C	0.560052	-0.092122	-0.092714
C26	C	0.601309	-0.045145	-0.045892
C27	C	0.601335	-0.125774	-0.126258
C28	C	0.683881	-0.112452	-0.112981
C29	C	0.725143	-0.065478	-0.066160
C30	C	0.683854	-0.031823	-0.032615
C31	C	0.560077	-0.172754	-0.173076
C32	C	0.601360	-0.206406	-0.206620
C33	C	0.683907	-0.193080	-0.193347
C34	C	0.725169	-0.146107	-0.146526
C35	C	0.725196	-0.226736	-0.226892
C36	C	0.807741	-0.213413	-0.213615
C37	C	0.807714	-0.132785	-0.133249
C38	C	1.192712	-0.377401	-0.071312
C39	C	1.192749	-0.443137	-0.071320
C40	C	1.142191	-0.484176	-0.119670
C41	C	1.091606	-0.459470	-0.168024
C42	C	1.091576	-0.393734	-0.168018
N43	N	1.073048	-0.598589	-0.135577
N44	N	1.073079	-0.661035	-0.135578
C45	C	1.142279	-0.682236	-0.119692
N46	N	1.211449	-0.638631	-0.103791
N47	N	1.211418	-0.576179	-0.103786
C48	C	1.142218	-0.555457	-0.119682
C49	C	1.192905	-0.778212	-0.071352
C50	C	1.192943	-0.843950	-0.071364
C51	C	1.091793	-0.860283	-0.168066
C52	C	1.091762	-0.794545	-0.168056
C53	C	1.142317	-0.753514	-0.119696
C54	C	1.348365	-0.085949	-0.086555
C55	C	1.436217	-0.071792	-0.072442
C56	C	1.142272	-0.119147	-0.283854
C57	C	1.142300	-0.119137	-0.353818
C58	C	1.142332	0.045040	-0.119703
C59	C	1.142385	0.115016	-0.119715
C60	C	1.192881	-0.070723	-0.378572
C61	C	1.192880	-0.070695	-0.444314
C62	C	1.142306	-0.119093	-0.485299
C63	C	1.091715	-0.167511	-0.460539
C64	C	1.091712	-0.167533	-0.394798
N65	N	1.136208	-0.175143	-0.589495
N66	N	1.136215	-0.175120	-0.651945
C67	C	1.142311	-0.119028	-0.683373
N68	N	1.148414	-0.062957	-0.649990
N69	N	1.148411	-0.062980	-0.587533
C70	C	1.142303	-0.119074	-0.556585
C71	C	1.192894	-0.070580	-0.779413
C72	C	1.192887	-0.070553	-0.845157
C73	C	1.091726	-0.167374	-0.861380
C74	C	1.091729	-0.167396	-0.795637
C75	C	1.142317	-0.119000	-0.754657
C76	C	1.142186	-0.119142	0.043874
C77	C	1.142312	-0.118950	0.113862
H78	H	0.841308	-0.094522	-0.095131
C79	C	1.248587	-0.871122	-0.018181
C80	C	1.310650	-0.906250	-0.035534
C81	C	1.366294	-0.933423	0.017649
C82	C	1.359875	-0.925469	0.088185
C83	C	1.297809	-0.890340	0.105542
C84	C	1.242166	-0.863166	0.052358
H85	H	1.315404	-0.912139	-0.087752
H86	H	1.412238	-0.959428	0.004800
H87	H	1.401066	-0.945585	0.127555
H88	H	1.293055	-0.884451	0.157760
H89	H	1.196221	-0.837161	0.065207
H90	H	1.234073	-0.744803	-0.031975
H91	H	1.233879	-0.343994	-0.031935
C92	C	1.035929	-0.366564	-0.221200
C93	C	0.946083	-0.390154	-0.230441
C94	C	0.890435	-0.362983	-0.283623
C95	C	0.924632	-0.312222	-0.327564
C96	C	1.014482	-0.288628	-0.318324
C97	C	1.070131	-0.315799	-0.265142
H98	H	0.920764	-0.427734	-0.197913
H99	H	0.823921	-0.380449	-0.290463
H100	H	0.883437	-0.292108	-0.366932
H101	H	1.039801	-0.251049	-0.350853
H102	H	1.136644	-0.298333	-0.258302
C103	C	0.815944	-0.050819	-0.051552
C104	C	0.861315	-0.103960	-0.027935
C105	C	0.952115	-0.089300	-0.013327
C106	C	0.997545	-0.021499	-0.022336
C107	C	0.952174	0.031647	-0.045955
C108	C	0.861373	0.016987	-0.060563
H109	H	0.827685	-0.154155	-0.021264
H110	H	0.985701	-0.128642	0.004158
H111	H	1.064761	-0.010646	-0.011522
H112	H	0.985804	0.081842	-0.052625
H113	H	0.827787	0.056329	-0.078047
H114	H	0.717447	0.006440	0.005503
H115	H	1.233941	-0.463250	-0.031950
C116	C	0.432113	-0.157118	-0.157494
C117	C	0.375326	-0.215666	-0.139264
C118	C	0.329940	-0.267336	-0.190772
C119	C	0.341341	-0.260457	-0.260508
C120	C	0.398131	-0.201906	-0.278741
C121	C	0.443517	-0.150237	-0.227234
H122	H	0.366884	-0.220760	-0.087638
H123	H	0.287900	-0.310679	-0.177274
H124	H	0.307744	-0.298706	-0.298637
H125	H	0.406573	-0.196812	-0.330367
H126	H	0.485556	-0.106894	-0.240731
C127	C	1.036086	-0.220749	-0.505621
C128	C	1.070303	-0.264643	-0.545322
C129	C	1.014670	-0.317881	-0.590404
C130	C	0.924819	-0.327226	-0.595786
C131	C	0.890597	-0.283331	-0.556084
C132	C	0.946231	-0.230093	-0.511001
H133	H	1.136820	-0.257727	-0.541339
H134	H	1.040004	-0.350375	-0.619794
H135	H	0.883636	-0.366636	-0.629159
H136	H	0.824081	-0.290247	-0.560067
H137	H	0.920897	-0.197599	-0.481611
H138	H	1.050631	-0.893695	-0.207436
H139	H	0.593619	0.026770	0.025770
H140	H	0.841354	-0.240815	-0.240931
H141	H	0.691592	-0.264989	-0.265010
C142	C	1.248527	-0.017439	-0.471551
C143	C	1.214327	0.026489	-0.522238
C144	C	1.269976	0.079744	-0.549472
C145	C	1.359824	0.089073	-0.526019
C146	C	1.394028	0.045144	-0.475329
C147	C	1.338380	-0.008112	-0.448096
H148	H	1.147813	0.019584	-0.539601
H149	H	1.244655	0.112263	-0.586995
H150	H	1.401018	0.128496	-0.546179
H151	H	1.460543	0.052049	-0.457966
H152	H	1.363700	-0.040630	-0.410572
H153	H	1.050570	-0.774436	-0.207422
C154	C	1.036092	-0.220611	-0.906456
C155	C	1.036091	-0.220590	-0.978769
C156	C	0.980452	-0.273828	-1.023849
C157	C	0.924815	-0.327087	-0.996616
C158	C	0.924814	-0.327110	-0.924299
C159	C	0.980453	-0.273873	-0.879219
H160	H	1.077279	-0.181162	-0.998932
H161	H	0.980453	-0.273810	-1.077383
H162	H	0.883628	-0.366497	-1.029986
H163	H	0.883626	-0.366538	-0.904136
H164	H	0.980452	-0.273891	-0.825685
H165	H	0.443866	0.002588	0.001683
C166	C	1.035990	-0.504609	-0.221210
C167	C	1.036018	-0.576918	-0.221217
C168	C	0.980404	-0.622056	-0.274408
C169	C	0.924763	-0.594885	-0.327590
C170	C	0.924733	-0.522573	-0.327585
C171	C	0.980347	-0.477435	-0.274395
H172	H	1.077208	-0.597034	-0.181847
H173	H	0.980426	-0.675586	-0.274411
H174	H	0.883594	-0.628299	-0.366965
H175	H	0.883543	-0.502457	-0.366956
H176	H	0.980325	-0.423905	-0.274391
C177	C	1.248529	-0.017341	-0.734330
C178	C	1.304160	0.035923	-0.761564
C179	C	1.359794	0.089163	-0.716484
C180	C	1.359798	0.089138	-0.644171
C181	C	1.304165	0.035872	-0.616933
C182	C	1.248531	-0.017368	-0.662013
H183	H	1.304159	0.035943	-0.815098
H184	H	1.400978	0.128594	-0.736647
H185	H	1.400982	0.128550	-0.610800
H186	H	1.304166	0.035853	-0.563399
H187	H	1.207347	-0.056799	-0.641850
C188	C	1.036083	-0.220655	-0.768410
C189	C	0.974044	-0.203383	-0.733176
C190	C	0.918389	-0.256642	-0.705953
C191	C	0.924772	-0.327173	-0.713964
C192	C	0.986813	-0.344448	-0.749200
C193	C	1.042469	-0.291189	-0.776423
H194	H	0.969317	-0.151169	-0.727245
H195	H	0.872461	-0.243854	-0.679870
H196	H	0.883572	-0.366598	-0.693812
H197	H	0.991541	-0.396662	-0.755131
H198	H	1.088397	-0.303978	-0.802506
C199	C	1.248521	-0.017482	-0.333497
C200	C	1.242125	0.053051	-0.343571
C201	C	1.297763	0.106293	-0.298496
C202	C	1.359797	0.089002	-0.243348
C203	C	1.366195	0.018465	-0.233272
C204	C	1.310557	-0.034777	-0.278346
H205	H	1.196201	0.065854	-0.384397
H206	H	1.293026	0.158509	-0.305955
H207	H	1.400984	0.128415	-0.209981
H208	H	1.412119	0.005663	-0.192445
H209	H	1.315294	-0.086992	-0.270887
H210	H	1.234075	-0.031125	-0.865310
C211	C	0.555973	-0.258077	-0.258124
C212	C	0.567291	-0.327805	-0.251040
C213	C	0.521905	-0.379476	-0.302546
C214	C	0.465202	-0.361419	-0.361135
C215	C	0.453882	-0.291688	-0.368221
C216	C	0.499267	-0.240017	-0.316716
H217	H	0.609268	-0.341175	-0.207667
H218	H	0.530285	-0.431096	-0.297300
H219	H	0.431604	-0.399669	-0.399263
H220	H	0.411904	-0.278318	-0.411595
H221	H	0.490887	-0.188397	-0.321962
H222	H	0.492864	-0.183599	-0.183885
H223	H	1.050519	-0.206958	-0.374646
