data_functionalizedCrystal
_audit_creation_method	'MofGen! by Chris Wilmer'
_symmetry_space_group_name_H-M	'P1'
_symmetry_Int_Tables_number	1
_symmetry_cell_setting	triclinic
loop_
_symmetry_equiv_pos_as_xyz
  x,y,z
_cell_length_a	14.519709
_cell_length_b	12.837943
_cell_length_c	11.295483
_cell_angle_alpha	94.538773
_cell_angle_beta	94.101713
_cell_angle_gamma	90.745458
loop_
_atom_site_label
_atom_site_type_symbol
_atom_site_fract_x
_atom_site_fract_y
_atom_site_fract_z
O1	O	0.234188	-1.382869	-0.099009
O2	O	0.222343	-1.081042	-0.099016
O3	O	0.094719	-1.239958	-0.099002
O4	O	0.361812	-1.223954	-0.099023
O5	O	0.105910	-1.226000	0.099048
O6	O	0.233533	-1.067084	0.099034
O7	O	0.245379	-1.368911	0.099040
Cu8	Cu	0.240478	-1.216723	0.117121
Cu9	Cu	0.227244	-1.233230	-0.117096
O10	O	0.373002	-1.209996	0.099026
C11	C	0.065890	-1.232233	0.000023
C12	C	-0.036684	-1.229997	0.000024
C13	C	0.223937	-1.035435	0.000008
C14	C	0.212002	-0.920336	0.000006
C15	C	0.243785	-1.414518	0.000014
C16	C	0.255719	-1.529618	0.000008
C17	C	-0.412293	-1.221771	-0.000007
C18	C	-0.307787	-1.224055	0.000002
C19	C	-0.224492	-1.225884	0.000010
C20	C	-0.119979	-1.228169	0.000016
C21	C	0.401831	-1.217721	-0.000001
C22	C	0.504405	-1.219957	-0.000010
N23	N	0.249786	-1.205121	0.281856
C24	C	0.355473	-0.679643	0.000011
C25	C	0.344264	-0.571497	0.000010
C26	C	0.178377	-0.595894	0.000011
C27	C	0.189586	-0.704041	0.000012
C28	C	0.278137	-0.745911	0.000011
C29	C	0.289344	-0.854060	0.000003
C30	C	0.123458	-0.878455	0.000013
C31	C	0.112249	-0.770308	0.000011
N32	N	0.217929	-1.244841	-0.281831
C33	C	0.150873	-1.328362	0.531156
C34	C	0.157915	-1.319601	0.655819
C35	C	0.270905	-1.178834	0.655847
C36	C	0.263863	-1.187595	0.531184
C37	C	0.203847	-1.262362	0.468843
C38	C	0.196811	-1.271127	0.344178
C39	C	0.309795	-1.130356	0.344208
C40	C	0.316837	-1.121596	0.468871
H41	H	0.361447	-0.888149	0.000004
H42	H	0.427575	-0.713735	0.000008
C43	C	0.015527	-0.630859	0.000015
C44	C	0.081047	-0.549858	0.000016
H45	H	-0.044559	-0.602435	0.000024
H46	H	0.019447	-0.677394	-0.069047
H47	H	0.027252	-0.667671	0.069082
H48	H	0.069327	-0.513050	-0.069056
H49	H	0.077125	-0.503305	0.069085
C50	C	0.066976	-1.055068	0.000007
C51	C	0.038442	-0.951300	0.000010
H52	H	0.014490	-1.100037	0.000008
H53	H	0.098989	-1.072635	-0.069052
H54	H	0.106788	-1.062907	0.069077
H55	H	-0.001366	-0.943459	-0.069065
H56	H	0.006414	-0.933727	0.069076
C57	C	0.461935	-1.072474	0.305846
C58	C	0.368033	-1.057804	0.275713
H59	H	0.497888	-1.027691	0.263554
H60	H	0.474704	-1.056554	0.389003
H61	H	0.476895	-1.143126	0.285394
H62	H	0.353071	-0.987153	0.296173
H63	H	0.355258	-1.073717	0.192537
H64	H	0.407240	-0.517545	0.000014
C65	C	0.085824	-1.409378	0.356677
C66	C	0.130838	-1.353305	0.275649
H67	H	0.045089	-1.460106	0.314370
H68	H	0.130258	-1.443327	0.405285
H69	H	0.051585	-1.362728	0.405315
H70	H	0.165083	-1.399954	0.227017
H71	H	0.086398	-1.319355	0.227021
C72	C	0.381862	-1.040546	0.643368
C73	C	0.336854	-1.096638	0.724384
H74	H	0.422568	-0.989794	0.685683
H75	H	0.416122	-1.087172	0.594749
H76	H	0.337415	-1.006616	0.594739
H77	H	0.381301	-1.130574	0.773008
H78	H	0.302592	-1.050005	0.773023
C79	C	0.045524	-1.459622	0.643265
C80	C	0.099686	-1.392151	0.724315
H81	H	0.009578	-1.504415	0.685554
H82	H	0.005790	-1.419820	0.594657
H83	H	0.084476	-1.500403	0.594629
H84	H	0.060733	-1.351365	0.772946
H85	H	0.139424	-1.431957	0.772944
H86	H	0.040154	-0.736201	0.000026
H87	H	0.102012	-1.389247	0.480398
H88	H	0.365699	-1.060719	0.519643
