data_functionalizedCrystal
_audit_creation_method	'MofGen! by Chris Wilmer'
_symmetry_space_group_name_H-M	'P1'
_symmetry_Int_Tables_number	1
_symmetry_cell_setting	triclinic
loop_
_symmetry_equiv_pos_as_xyz
  x,y,z
_cell_length_a	12.645331
_cell_length_b	12.645330
_cell_length_c	12.645323
_cell_angle_alpha	89.972994
_cell_angle_beta	89.984262
_cell_angle_gamma	90.011881
loop_
_atom_site_label
_atom_site_type_symbol
_atom_site_fract_x
_atom_site_fract_y
_atom_site_fract_z
Zn1	Zn	1.620768	-0.422053	-0.599234
Zn2	Zn	1.620666	-0.599341	-0.421968
Zn3	Zn	1.443483	-0.422089	-0.422000
Zn4	Zn	1.443480	-0.599272	-0.599205
O5	O	1.532099	-0.510689	-0.510602
O6	O	1.769102	-0.445584	-0.575718
O7	O	1.597120	-0.575872	-0.273625
O8	O	1.467044	-0.273737	-0.445537
O9	O	1.769026	-0.575836	-0.445481
O10	O	1.597295	-0.273710	-0.575750
O11	O	1.466945	-0.445646	-0.273648
O12	O	1.295135	-0.445580	-0.445508
O13	O	1.467040	-0.575720	-0.747556
O14	O	1.295133	-0.575755	-0.575699
O15	O	1.597293	-0.445517	-0.747578
O16	O	1.597118	-0.747679	-0.445453
O17	O	1.466940	-0.747629	-0.575668
C18	C	1.256670	-0.510665	-0.510604
C19	C	1.138840	-0.510680	-0.510631
C20	C	0.971310	-0.593022	-0.592107
C21	C	1.093870	-0.592757	-0.592448
C22	C	1.094352	-0.399025	-0.541156
C23	C	0.971754	-0.399528	-0.541730
C24	C	0.971596	-0.539093	-0.398370
C25	C	1.094203	-0.541535	-0.398976
C26	C	1.532046	-0.786118	-0.510577
C27	C	1.532120	-0.903948	-0.510601
C28	C	1.613884	-1.071500	-0.428517
C29	C	1.614150	-0.948940	-0.428718
C30	C	1.562421	-0.948331	-0.622343
C31	C	1.563069	-1.070929	-0.621907
C32	C	1.420025	-1.071274	-0.482046
C33	C	1.420562	-0.948670	-0.479540
C34	C	1.808604	-0.510714	-0.510600
C35	C	1.926435	-0.510724	-0.510599
C36	C	1.532177	-0.510607	-0.787107
C37	C	1.532211	-0.510572	-0.904937
C38	C	1.532181	-0.234183	-0.510650
C39	C	1.532217	-0.116353	-0.510671
C40	C	1.450016	-0.592096	-1.072488
C41	C	1.450231	-0.592500	-0.949928
C42	C	1.643913	-0.540892	-0.949442
C43	C	1.643462	-0.541403	-1.072041
C44	C	1.503759	-0.398272	-1.072143
C45	C	1.501267	-0.398944	-0.949537
C46	C	1.532083	-0.510694	-0.235172
C47	C	1.532255	-0.510430	-0.117342
H48	H	0.942067	-0.336011	-0.485086
O49	O	0.930631	-0.645092	-0.361608
H50	H	0.963609	-0.663273	-0.282323
O51	O	1.723369	-1.112196	-0.453305
H52	H	1.776762	-1.044408	-0.469478
H53	H	1.706830	-0.483292	-0.920302
O54	O	1.583100	-0.317675	-1.110566
H55	H	1.562454	-0.238712	-1.078313
O56	O	1.339463	-1.109917	-0.561236
H57	H	1.362070	-1.082665	-0.641573
O58	O	0.932241	-0.703062	-0.567060
H59	H	0.964956	-0.759651	-0.625619
O60	O	1.671692	-1.108716	-0.654020
H61	H	1.731174	-1.078370	-0.597074
H62	H	1.423724	-0.370634	-1.103058
O63	O	1.487697	-1.110246	-0.705740
H64	H	1.531728	-1.158802	-0.764099
O65	O	1.676461	-0.648363	-0.908801
H66	H	1.613268	-0.680353	-0.856918
O67	O	1.392382	-0.368640	-0.911011
H68	H	1.397502	-0.294355	-0.864570
H69	H	1.469043	-0.675648	-0.920608
O70	O	1.383528	-1.112335	-0.375989
H71	H	1.370235	-1.044788	-0.321567
O72	O	0.930540	-0.568468	-0.701623
H73	H	0.884974	-0.637124	-0.731842
H74	H	1.124814	-0.485941	-0.334988
O75	O	1.724220	-0.909979	-0.453794
H76	H	1.722079	-0.861371	-0.526872
H77	H	1.123479	-0.336041	-0.483644
O78	O	1.132781	-0.650340	-0.368438
H79	H	1.183533	-0.682321	-0.432509
O80	O	1.486044	-0.909720	-0.705609
H81	H	1.425536	-0.858362	-0.668143
H82	H	1.643501	-0.917544	-0.646995
O83	O	1.675435	-0.650011	-1.109939
H84	H	1.755898	-0.668753	-1.080316
H85	H	1.595163	-1.101052	-0.345419
O86	O	0.933153	-0.459700	-0.317915
H87	H	0.882128	-0.400320	-0.357598
H88	H	1.125074	-0.374524	-0.622311
H89	H	1.556789	-0.334882	-0.918911
O90	O	0.933886	-0.367660	-0.650404
H91	H	1.003138	-0.352042	-0.702055
O92	O	1.727392	-0.466057	-1.111360
H93	H	1.768128	-0.429423	-1.042806
H94	H	1.595192	-0.918936	-0.345863
O95	O	1.335604	-0.908115	-0.552980
H96	H	1.353794	-0.932937	-0.635176
H97	H	1.397716	-0.919673	-0.397308
H98	H	1.367400	-0.573526	-0.919837
H99	H	1.123949	-0.675555	-0.573316
H100	H	1.366939	-0.573305	-1.101972
O101	O	1.132760	-0.567866	-0.702590
H102	H	1.063999	-0.555963	-0.755816
H103	H	1.468644	-0.674725	-1.103301
