data_functionalizedCrystal
_audit_creation_method	'MofGen! by Chris Wilmer'
_symmetry_space_group_name_H-M	'P1'
_symmetry_Int_Tables_number	1
_symmetry_cell_setting	triclinic
loop_
_symmetry_equiv_pos_as_xyz
  x,y,z
_cell_length_a	6.394984
_cell_length_b	19.288864
_cell_length_c	17.766277
_cell_angle_alpha	90.023209
_cell_angle_beta	89.995318
_cell_angle_gamma	95.184200
loop_
_atom_site_label
_atom_site_type_symbol
_atom_site_fract_x
_atom_site_fract_y
_atom_site_fract_z
O1	O	0.260547	-0.923903	-0.062834
O2	O	0.295694	-0.721986	-0.062782
O3	O	-0.025972	-0.825813	-0.062807
O4	O	0.582213	-0.820077	-0.062810
O5	O	-0.025988	-0.825794	0.062382
O6	O	0.295678	-0.721968	0.062406
O7	O	0.260531	-0.923884	0.062355
Cu8	Cu	0.278103	-0.822924	0.073811
Cu9	Cu	0.278122	-0.822947	-0.074239
O10	O	0.582196	-0.820058	0.062379
C11	C	0.294555	-0.696090	-0.000181
C12	C	0.291160	-0.618953	-0.000162
C13	C	0.896213	-0.824663	-0.000210
C14	C	0.660007	-0.821206	-0.000210
C15	C	0.261670	-0.949781	-0.000248
C16	C	0.265065	-1.026918	-0.000273
N17	N	0.278088	-0.822914	0.177942
N18	N	0.278120	-0.822963	-0.178369
C19	C	0.479899	-0.576104	-0.000174
C20	C	0.476710	-0.503625	-0.000183
C21	C	0.284771	-0.473999	-0.000193
C22	C	0.096007	-0.516858	-0.000176
C23	C	0.099202	-0.589335	-0.000160
C24	C	0.133891	-0.364267	-0.044077
C25	C	0.130704	-0.291791	-0.044097
C26	C	0.274909	-0.250457	-0.000239
C27	C	0.422336	-0.281606	0.043631
C28	C	0.425531	-0.354083	0.043646
C29	C	0.281285	-0.395411	-0.000210
C30	C	0.460203	-0.129018	-0.000260
C31	C	0.457005	-0.056539	-0.000263
C32	C	0.076297	-0.069773	-0.000264
C33	C	0.079500	-0.142251	-0.000253
C34	C	0.271458	-0.171869	-0.000254
C35	C	0.135724	-0.868904	0.217318
C36	C	0.135714	-0.868908	0.296119
C37	C	0.278105	-0.822928	0.335542
C38	C	0.420479	-0.776929	0.296156
C39	C	0.420471	-0.776922	0.217356
C40	C	0.468406	-0.815492	0.460381
C41	C	0.468417	-0.815504	0.539179
C42	C	0.278130	-0.822947	0.578588
C43	C	0.087823	-0.830392	0.539189
C44	C	0.087814	-0.830385	0.460389
C45	C	0.278128	-0.822931	0.420988
C46	C	0.135743	-0.868944	0.703410
C47	C	0.135731	-0.868943	0.782214
C48	C	0.420514	-0.776968	0.782249
C49	C	0.420508	-0.776966	0.703447
C50	C	0.278125	-0.822957	0.664033
H51	H	0.636206	-0.600214	-0.000177
C52	C	-0.024748	-0.409728	-0.092332
N53	N	-0.144229	-0.443968	-0.128677
H54	H	0.539761	-0.247953	0.079345
C55	C	-0.128131	-0.189387	-0.000248
N56	N	-0.284528	-0.224890	-0.000243
H57	H	-0.060271	-0.492732	-0.000195
C58	C	-0.020883	-0.919510	0.339442
N59	N	-0.138824	-0.957626	0.372070
C60	C	-0.108435	-0.636471	-0.000151
N61	N	-0.264831	-0.671975	-0.000147
C62	C	0.577100	-0.726349	0.339523
N63	N	0.695064	-0.688247	0.372186
H64	H	0.019790	-0.906392	0.814274
H65	H	-0.079983	-0.045652	-0.000320
H66	H	0.010669	-0.266435	-0.079822
C67	C	-0.020922	-0.919489	0.173966
N68	N	-0.138916	-0.957588	0.141312
C69	C	-0.121519	-0.838565	0.417052
N70	N	-0.279193	-0.844723	0.384411
C71	C	0.577180	-0.726358	0.174041
N72	N	0.695250	-0.688284	0.141415
H73	H	0.630408	-0.468731	-0.000191
H74	H	-0.067128	-0.836453	0.571274
H75	H	0.623372	-0.809419	0.428300
H76	H	0.019800	-0.906391	0.671318
H77	H	0.545565	-0.379442	0.079369
C78	C	0.577148	-0.726391	0.825610
N79	N	0.695127	-0.688294	0.858272
C80	C	0.664645	-0.009404	-0.000266
N81	N	0.821043	0.026098	-0.000266
H82	H	0.616507	-0.153135	-0.000249
C83	C	0.577273	-0.726424	0.660132
N84	N	0.695402	-0.688369	0.627507
H85	H	0.623376	-0.809447	0.571252
