data_functionalizedCrystal
_audit_creation_method	'MofGen! by Chris Wilmer'
_symmetry_space_group_name_H-M	'P1'
_symmetry_Int_Tables_number	1
_symmetry_cell_setting	triclinic
loop_
_symmetry_equiv_pos_as_xyz
  x,y,z
_cell_length_a	19.188930
_cell_length_b	19.188930
_cell_length_c	18.266242
_cell_angle_alpha	89.988525
_cell_angle_beta	89.977082
_cell_angle_gamma	83.144779
loop_
_atom_site_label
_atom_site_type_symbol
_atom_site_fract_x
_atom_site_fract_y
_atom_site_fract_z
O1	O	0.926149	0.087169	-0.061124
O2	O	0.722838	0.098903	-0.061075
O3	O	0.830361	-0.008620	-0.061087
O4	O	0.818627	0.194691	-0.061113
O5	O	0.830343	-0.008625	0.060675
O6	O	0.722820	0.098897	0.060687
O7	O	0.926131	0.087163	0.060638
Zn8	Zn	0.824473	0.093029	0.079994
Zn9	Zn	0.824497	0.093037	-0.080432
O10	O	0.818608	0.194686	0.060649
C11	C	0.696818	0.098520	-0.000188
C12	C	0.619313	0.097380	-0.000169
C13	C	0.574389	0.160470	-0.000188
C14	C	0.501566	0.159399	-0.000196
C15	C	0.473669	0.095233	-0.000199
C16	C	0.518603	0.032133	-0.000175
C17	C	0.591425	0.033207	-0.000160
N18	N	0.365695	0.046188	-0.041663
N19	N	0.296516	0.045172	-0.041679
C20	C	0.254260	0.091994	-0.000243
N21	N	0.283795	0.139881	0.041200
N22	N	0.352980	0.140899	0.041213
C23	C	0.394707	0.094062	-0.000215
C24	C	0.130372	0.153928	-0.000270
C25	C	0.057547	0.152853	-0.000274
C26	C	0.074586	0.025586	-0.000261
C27	C	0.147409	0.026662	-0.000250
C28	C	0.175298	0.090835	-0.000258
C29	C	0.829972	-0.034634	-0.000204
C30	C	0.828831	-0.112138	-0.000197
C31	C	0.891922	-0.157062	-0.000209
C32	C	0.890850	-0.229886	-0.000220
C33	C	0.826684	-0.257782	-0.000206
C34	C	0.763585	-0.212849	-0.000198
C35	C	0.764658	-0.140026	-0.000194
N36	N	0.777631	-0.365789	0.041244
N37	N	0.776615	-0.434968	0.041242
C38	C	0.823446	-0.477191	-0.000220
N39	N	0.871341	-0.447624	-0.041669
N40	N	0.872359	-0.378439	-0.041664
C41	C	0.825513	-0.336745	-0.000210
C42	C	0.885379	-0.601079	-0.000245
C43	C	0.884305	-0.673904	-0.000261
C44	C	0.757038	-0.656865	-0.000231
C45	C	0.758114	-0.584042	-0.000222
C46	C	0.822287	-0.556154	-0.000226
C47	C	0.952151	0.087546	-0.000252
C48	C	1.029656	0.088687	-0.000276
C49	C	0.818997	0.220700	-0.000236
C50	C	0.820138	0.298204	-0.000247
N51	N	0.824461	0.093024	0.189481
N52	N	0.824513	0.093037	-0.189919
C53	C	0.872088	0.045436	0.227785
C54	C	0.872092	0.045433	0.304430
C55	C	0.824477	0.093030	0.342768
C56	C	0.776841	0.140621	0.304455
C57	C	0.776834	0.140618	0.227812
N58	N	0.815401	0.154837	0.463094
N59	N	0.815413	0.154838	0.535902
C60	C	0.824496	0.093040	0.573691
N61	N	0.833582	0.031239	0.535920
N62	N	0.833574	0.031240	0.463106
C63	C	0.824480	0.093038	0.425875
C64	C	0.872131	0.045444	0.695101
C65	C	0.872130	0.045440	0.771748
C66	C	0.776882	0.140634	0.771772
C67	C	0.776879	0.140632	0.695127
C68	C	0.824507	0.093038	0.656796
H69	H	0.628003	-0.018171	-0.000145
C70	C	0.966942	0.029754	0.141262
C71	C	0.924209	-0.006998	0.185521
H72	H	0.999054	-0.002653	0.115133
H73	H	0.938564	0.058207	0.107586
H74	H	0.992200	0.058626	0.171054
H75	H	0.898948	-0.035866	0.155728
H76	H	0.952591	-0.035463	0.219200
C77	C	0.966244	-0.048658	0.296716
C78	C	0.924445	-0.006881	0.346545
H79	H	0.998565	-0.080953	0.322716
H80	H	0.937260	-0.073703	0.266844
H81	H	0.991265	-0.019651	0.266801
H82	H	0.899420	-0.035889	0.376457
H83	H	0.953433	0.018165	0.376429
H84	H	0.020970	0.204232	-0.000285
C85	C	0.735513	0.261607	0.671521
C86	C	0.724534	0.192952	0.653019
H87	H	0.703197	0.293906	0.645522
H88	H	0.728700	0.268413	0.722648
H89	H	0.782086	0.269063	0.658930
H90	H	0.677962	0.185494	0.665615
H91	H	0.731341	0.186142	0.601881
H92	H	0.910910	0.006688	0.663892
H93	H	0.711340	-0.235567	-0.000187
H94	H	0.935683	-0.710481	-0.000274
C95	C	0.963451	-0.321682	0.062363
C96	C	0.960204	-0.279279	-0.000228
H97	H	1.006265	-0.352176	0.062355
H98	H	0.961217	-0.292926	0.104816
H99	H	0.925077	-0.348711	0.062358
H100	H	0.998575	-0.252246	-0.000220
H101	H	0.962444	-0.308038	-0.042692
H102	H	0.153080	0.206181	-0.000267
C103	C	0.966291	-0.048639	0.764021
C104	C	0.924489	-0.006870	0.813854
H105	H	0.998619	-0.080929	0.790018
H106	H	0.937310	-0.073687	0.734150
H107	H	0.991304	-0.019625	0.734105
H108	H	0.899471	-0.035883	0.843767
H109	H	0.953473	0.018181	0.843737
C110	C	0.409817	0.232009	-0.062826
C111	C	0.452170	0.228751	-0.000222
H112	H	0.379321	0.274821	-0.062839
H113	H	0.438606	0.229785	-0.105271
H114	H	0.382790	0.193633	-0.062816
H115	H	0.479200	0.267124	-0.000234
H116	H	0.423377	0.230981	0.042234
H117	H	0.704792	-0.679578	-0.000222
C118	C	0.681764	0.156006	0.141664
C119	C	0.724483	0.192935	0.185703
H120	H	0.649444	0.188307	0.115671
H121	H	0.710124	0.127667	0.107869
H122	H	0.656742	0.127008	0.171589
H123	H	0.749509	0.221930	0.155777
H124	H	0.696119	0.221286	0.219502
H125	H	0.738071	0.179374	0.335674
H126	H	0.183988	-0.024713	-0.000238
C127	C	0.550227	0.286159	-0.000200
C128	C	0.605043	0.231008	-0.000185
H129	H	0.569154	0.329705	-0.000192
H130	H	0.522206	0.283096	-0.042666
H131	H	0.522151	0.283084	0.042257
H132	H	0.633116	0.234080	-0.042645
H133	H	0.633076	0.234073	0.042285
C134	C	0.414536	-0.026019	-0.000206
C135	C	0.487942	-0.038399	-0.000183
H136	H	0.395609	-0.069566	-0.000213
H137	H	0.399080	-0.000058	0.042247
H138	H	0.399135	-0.000047	-0.042676
H139	H	0.503343	-0.064368	0.042290
H140	H	0.503404	-0.064372	-0.042640
H141	H	0.051874	-0.026659	-0.000309
H142	H	0.944176	-0.134360	-0.000214
H143	H	0.713281	-0.103448	-0.000184
H144	H	0.937632	-0.578372	-0.000251
H145	H	0.706738	-0.547464	-0.000208
H146	H	0.738110	0.179386	0.802986
