data_functionalizedCrystal
_audit_creation_method	'MofGen! by Chris Wilmer'
_symmetry_space_group_name_H-M	'P1'
_symmetry_Int_Tables_number	1
_symmetry_cell_setting	triclinic
loop_
_symmetry_equiv_pos_as_xyz
  x,y,z
_cell_length_a	19.077105
_cell_length_b	19.121063
_cell_length_c	19.076919
_cell_angle_alpha	85.393653
_cell_angle_beta	89.923776
_cell_angle_gamma	90.263052
loop_
_atom_site_label
_atom_site_type_symbol
_atom_site_fract_x
_atom_site_fract_y
_atom_site_fract_z
Zn1	Zn	1.043169	-0.339734	0.454309
Zn2	Zn	1.042790	-0.452646	0.341419
Zn3	Zn	0.930805	-0.330327	0.331718
Zn4	Zn	0.920631	-0.452222	0.454155
O5	O	0.984349	-0.393732	0.395400
O6	O	1.141268	-0.358826	0.443459
O7	O	1.032035	-0.432660	0.241647
O8	O	0.950127	-0.233307	0.343985
O9	O	1.140989	-0.441782	0.360519
O10	O	1.032681	-0.240219	0.434052
O11	O	0.949760	-0.342793	0.234520
O12	O	0.831307	-0.342382	0.343835
O13	O	0.932786	-0.441060	0.552660
O14	O	0.823831	-0.431938	0.433788
O15	O	1.022815	-0.358416	0.552774
O16	O	1.022169	-0.550857	0.360369
O17	O	0.932419	-0.550546	0.443195
C18	C	0.802120	-0.386094	0.387742
C19	C	0.724160	-0.382844	0.384484
C20	C	0.683661	-0.428009	0.429719
C21	C	0.610410	-0.424946	0.426660
C22	C	0.577659	-0.376721	0.378362
C23	C	0.618164	-0.331551	0.333125
C24	C	0.691414	-0.334611	0.336188
C25	C	0.359002	-0.362559	0.364190
C26	C	0.285746	-0.359503	0.361130
C27	C	0.277998	-0.452898	0.454666
C28	C	0.351249	-0.455957	0.457722
C29	C	0.391747	-0.410784	0.412487
N30	N	0.502785	-0.373590	0.375233
N31	N	0.466620	-0.413912	0.415620
C32	C	0.976167	-0.576182	0.402834
C33	C	0.972730	-0.654239	0.406041
C34	C	1.017877	-0.691052	0.364463
C35	C	1.014648	-0.764395	0.367483
C36	C	0.966269	-0.800923	0.412078
C37	C	0.921120	-0.764105	0.453660
C38	C	0.924353	-0.690764	0.450644
C39	C	0.954173	-1.022359	0.423346
C40	C	0.950942	-1.095705	0.426358
C41	C	1.044471	-1.095990	0.340181
C42	C	1.047697	-1.022647	0.337165
C43	C	1.002551	-0.985836	0.378750
C44	C	0.962966	-0.875891	0.415164
C45	C	1.005857	-0.910869	0.375667
C46	C	1.167289	-0.401401	0.403088
C47	C	1.245247	-0.404669	0.406365
C48	C	0.976708	-0.400740	0.578967
C49	C	0.973452	-0.403726	0.657192
C50	C	0.992581	-0.210571	0.387953
C51	C	0.996089	-0.132518	0.384780
C52	C	0.992003	-0.386702	0.212547
C53	C	0.995403	-0.383524	0.134320
C54	C	1.018793	-0.362103	0.694003
C55	C	1.015725	-0.364906	0.767503
C56	C	0.967319	-0.409336	0.804192
C57	C	0.921973	-0.450962	0.767376
C58	C	0.925038	-0.448154	0.693877
C59	C	0.953123	-0.422342	1.024005
C60	C	0.950063	-0.425148	1.097510
C61	C	1.043814	-0.339090	1.097632
C62	C	1.046877	-0.336290	1.024131
C63	C	1.001529	-0.377913	0.987321
N64	N	0.964183	-0.412204	0.879321
N65	N	1.004662	-0.375041	0.912193
H66	H	0.377909	-0.495228	0.497049
N67	N	0.252282	-0.310246	0.311792
N68	N	0.212165	-0.331464	0.266199
H69	H	0.188530	-0.296679	0.231354
H70	H	1.051411	-0.794364	0.333625
H71	H	1.080733	-0.305203	1.127610
N72	N	0.400353	-0.316417	0.317977
N73	N	0.371100	-0.273367	0.274854
H74	H	0.400306	-0.240779	0.242211
H75	H	0.917412	-0.992393	0.457205
N76	N	0.584701	-0.282288	0.283799
N77	N	0.519300	-0.279562	0.281069
H78	H	0.495667	-0.244770	0.246231
N79	N	0.872516	-0.496330	0.804856
N80	N	0.827229	-0.471304	0.842983
H81	H	0.792299	-0.503344	0.869455
N82	N	1.097117	-0.985347	0.291606
N83	N	1.137423	-1.018225	0.254485
H84	H	1.172325	-0.991882	0.222305
H85	H	1.057269	-0.661315	0.328146
N86	N	1.096333	-0.290908	0.986668
N87	N	1.136816	-0.253749	1.019544
H88	H	1.171749	-0.221700	0.993087
N89	N	0.900589	-0.470515	1.134975
N90	N	0.860088	-0.507658	1.102101
H91	H	0.825141	-0.539689	1.128559
N92	N	0.732775	-0.288464	0.289983
N93	N	0.703527	-0.245406	0.246865
H94	H	0.732737	-0.212809	0.214234
N95	N	0.878725	-0.490663	0.656261
N96	N	0.836855	-0.462512	0.612363
H97	H	0.804143	-0.492532	0.585796
H98	H	1.081228	-1.125969	0.306326
H99	H	0.911554	-1.125446	0.462685
N100	N	0.871691	-0.801404	0.499210
N101	N	0.831383	-0.768524	0.536327
H102	H	0.796470	-0.794865	0.568496
H103	H	0.887591	-0.660792	0.484502
H104	H	1.045250	-0.881126	0.339361
N105	N	0.913546	-0.913218	0.460702
N106	N	0.868107	-0.951379	0.435704
H107	H	0.833205	-0.977745	0.467865
N108	N	1.068247	-0.316718	0.656541
N109	N	1.108725	-0.279557	0.689420
H110	H	1.143653	-0.247501	0.662965
N111	N	1.062044	-0.322383	0.805093
N112	N	1.105264	-0.282720	0.772328
H113	H	1.137980	-0.252686	0.798875
N114	N	0.906798	-0.464862	0.986422
N115	N	0.863584	-0.504530	1.019191
H116	H	0.830865	-0.534562	0.992646
H117	H	0.710321	-0.467281	0.469046
H118	H	0.245016	-0.489674	0.491494
N119	N	0.569052	-0.471082	0.472876
N120	N	0.598302	-0.514138	0.515995
H121	H	0.569093	-0.546723	0.548639
