data_functionalizedCrystal
_audit_creation_method	'MofGen! by Chris Wilmer'
_symmetry_space_group_name_H-M	'P1'
_symmetry_Int_Tables_number	1
_symmetry_cell_setting	triclinic
loop_
_symmetry_equiv_pos_as_xyz
  x,y,z
_cell_length_a	19.805407
_cell_length_b	19.805405
_cell_length_c	12.759393
_cell_angle_alpha	89.962167
_cell_angle_beta	89.977649
_cell_angle_gamma	90.028350
loop_
_atom_site_label
_atom_site_type_symbol
_atom_site_fract_x
_atom_site_fract_y
_atom_site_fract_z
Zn1	Zn	1.034749	-0.269387	-0.594076
Zn2	Zn	1.034660	-0.382592	-0.418378
Zn3	Zn	0.921559	-0.269426	-0.418401
Zn4	Zn	0.921527	-0.382543	-0.594004
O5	O	0.978124	-0.325987	-0.506215
O6	O	1.129453	-0.284408	-0.570790
O7	O	1.019633	-0.367617	-0.271360
O8	O	0.936625	-0.174704	-0.441744
O9	O	1.129388	-0.367579	-0.441706
O10	O	1.019785	-0.174675	-0.570812
O11	O	0.936539	-0.284475	-0.271376
O12	O	0.826839	-0.284427	-0.441674
O13	O	0.936570	-0.367496	-0.741035
O14	O	0.826815	-0.367534	-0.570689
O15	O	1.019753	-0.284360	-0.741088
O16	O	1.019601	-0.477302	-0.441635
O17	O	0.936483	-0.477266	-0.570667
C18	C	0.802268	-0.325980	-0.506177
C19	C	0.727036	-0.325993	-0.506186
C20	C	0.978048	-0.501843	-0.506164
C21	C	0.978077	-0.577075	-0.506177
C22	C	0.265282	-0.282761	-0.573573
C23	C	0.335971	-0.282762	-0.573565
C24	C	0.371274	-0.325997	-0.506249
C25	C	0.335885	-0.369239	-0.438943
C26	C	0.265198	-0.369241	-0.438957
C27	C	0.620958	-0.369234	-0.438887
C28	C	0.691651	-0.369228	-0.438877
C29	C	0.691731	-0.282755	-0.573496
C30	C	0.621044	-0.282757	-0.573510
C31	C	0.585661	-0.326001	-0.506208
C32	C	0.509013	-0.326000	-0.506219
C33	C	0.447921	-0.325995	-0.506232
C34	C	1.021399	-0.612415	-0.439061
C35	C	1.021427	-0.683104	-0.439084
C36	C	0.978130	-0.718451	-0.506219
C37	C	0.934807	-0.683105	-0.573343
C38	C	0.934782	-0.612418	-0.573325
C39	C	0.934907	-0.968178	-0.573421
C40	C	0.934933	-1.038871	-0.573432
C41	C	1.021552	-1.038864	-0.439181
C42	C	1.021527	-0.968177	-0.439162
C43	C	0.978206	-0.932838	-0.506289
C44	C	0.978177	-0.856190	-0.506265
C45	C	0.978156	-0.795098	-0.506239
C46	C	1.154666	-0.325995	-0.506254
C47	C	1.229898	-0.325998	-0.506270
C48	C	0.978168	-0.325918	-0.780248
C49	C	0.978186	-0.325889	-0.897025
C50	C	0.978219	-0.149444	-0.506289
C51	C	0.978259	-0.074212	-0.506320
C52	C	0.934938	-0.282588	-0.951902
C53	C	0.934958	-0.282568	-1.061626
C54	C	1.021482	-0.369151	-1.061587
C55	C	1.021458	-0.369174	-0.951865
C56	C	0.884986	-0.232599	-0.951925
C57	C	0.885006	-0.232579	-1.061649
C58	C	0.978119	-0.326007	-0.233247
C59	C	0.978231	-0.325846	-0.116471
H60	H	0.364777	-0.247556	-0.628374
N61	N	1.068150	-0.721219	-0.366687
H62	H	1.061600	-0.771363	-0.376888
H63	H	1.116479	-0.708810	-0.383105
N64	N	1.068227	-0.930053	-0.366755
H65	H	1.095679	-0.963168	-0.324243
H66	H	1.099521	-0.900678	-0.409569
H67	H	0.364635	-0.404445	-0.384137
H68	H	0.899557	-0.711890	-0.628010
H69	H	0.899632	-0.939411	-0.628076
N70	N	0.819043	-0.257436	-1.106718
H71	H	0.798224	-0.220800	-1.151305
H72	H	0.827612	-0.298714	-1.151203
H73	H	0.832549	-0.246638	-0.922138
H74	H	1.056828	-1.067646	-0.384526
H75	H	0.899506	-0.583645	-0.627979
N76	N	0.227207	-0.236121	-0.646169
H77	H	0.260352	-0.208731	-0.688803
H78	H	0.197880	-0.263706	-0.694719
N79	N	0.582967	-0.236116	-0.646101
H80	H	0.616109	-0.208723	-0.688735
H81	H	0.553638	-0.263699	-0.694651
N82	N	0.729893	-0.236123	-0.646107
H83	H	0.780031	-0.242685	-0.635896
H84	H	0.717549	-0.246722	-0.721108
H85	H	0.592158	-0.404444	-0.384083
N86	N	0.909877	-0.166655	-0.906859
H87	H	0.951137	-0.175196	-0.862293
H88	H	0.921887	-0.134803	-0.965843
H89	H	1.056665	-0.404443	-0.907188
N90	N	1.068147	-0.415838	-1.120736
H91	H	1.061599	-0.409257	-1.198572
H92	H	1.116491	-0.405315	-1.101572
N93	N	0.903651	-0.163137	-1.101142
H94	H	0.950094	-0.150673	-1.074799
H95	H	0.903631	-0.163143	-1.180296
H96	H	0.720393	-0.404438	-0.384057
N97	N	0.227030	-0.415877	-0.366370
H98	H	0.260120	-0.443266	-0.323721
H99	H	0.197697	-0.388292	-0.317833
N100	N	1.068104	-0.574296	-0.366656
H101	H	1.061516	-0.524153	-0.376826
H102	H	1.057604	-0.586701	-0.291609
N103	N	0.888231	-1.076997	-0.645843
H104	H	0.860784	-1.043884	-0.688367
H105	H	0.915777	-1.106280	-0.694505
