data_functionalizedCrystal
_audit_creation_method	'MofGen! by Chris Wilmer'
_symmetry_space_group_name_H-M	'P1'
_symmetry_Int_Tables_number	1
_symmetry_cell_setting	triclinic
loop_
_symmetry_equiv_pos_as_xyz
  x,y,z
_cell_length_a	19.288864
_cell_length_b	19.288857
_cell_length_c	13.448316
_cell_angle_alpha	89.991240
_cell_angle_beta	89.979390
_cell_angle_gamma	83.134677
loop_
_atom_site_label
_atom_site_type_symbol
_atom_site_fract_x
_atom_site_fract_y
_atom_site_fract_z
O1	O	0.921348	0.086650	-0.083015
O2	O	0.719087	0.098338	-0.082948
O3	O	0.826065	-0.008637	-0.082972
O4	O	0.814370	0.193625	-0.082992
O5	O	0.826051	-0.008643	0.082412
O6	O	0.719074	0.098332	0.082436
O7	O	0.921335	0.086643	0.082368
Cu8	Cu	0.820203	0.092487	0.097503
Cu9	Cu	0.820219	0.092495	-0.098083
O10	O	0.814357	0.193618	0.082392
C11	C	0.693204	0.097959	-0.000247
C12	C	0.616100	0.096830	-0.000221
C13	C	0.825683	-0.034516	-0.000279
C14	C	0.824556	-0.111620	-0.000276
C15	C	0.571402	0.159598	-0.000243
C16	C	0.498955	0.158537	-0.000254
C17	C	0.471209	0.094705	-0.000263
C18	C	0.515917	0.031929	-0.000235
C19	C	0.588363	0.032991	-0.000215
C20	C	0.362954	0.044528	-0.058233
C21	C	0.290509	0.043468	-0.058260
C22	C	0.247764	0.091425	-0.000323
C23	C	0.277471	0.140454	0.057628
C24	C	0.349916	0.141517	0.057649
C25	C	0.392656	0.093546	-0.000285
C26	C	0.124510	0.153048	-0.000355
C27	C	0.052062	0.151984	-0.000360
C28	C	0.069026	0.025374	-0.000351
C29	C	0.141472	0.026439	-0.000337
C30	C	0.169210	0.090278	-0.000343
C31	C	0.824037	-0.147827	-0.090426
C32	C	0.822968	-0.220273	-0.090433
C33	C	0.822432	-0.256511	-0.000284
C34	C	0.822947	-0.220295	0.089878
C35	C	0.824009	-0.147850	0.089883
C36	C	0.861428	-0.376746	0.068762
C37	C	0.860371	-0.449190	0.068754
C38	C	0.819155	-0.479957	-0.000295
C39	C	0.779005	-0.438272	-0.069351
C40	C	0.780066	-0.365826	-0.069347
C41	C	0.821281	-0.335066	-0.000279
C42	C	0.817476	-0.594718	-0.090459
C43	C	0.816403	-0.667165	-0.090462
C44	C	0.816389	-0.667187	0.089852
C45	C	0.817455	-0.594740	0.089852
C46	C	0.818002	-0.558511	-0.000306
C47	C	0.947218	0.087022	-0.000334
C48	C	1.024321	0.088151	-0.000367
C49	C	0.814739	0.219498	-0.000303
C50	C	0.815866	0.296602	-0.000313
N51	N	0.820197	0.092481	0.235067
N52	N	0.820230	0.092495	-0.235647
C53	C	0.867581	0.045132	0.287097
C54	C	0.867585	0.045131	0.391200
C55	C	0.820208	0.092484	0.443272
C56	C	0.772819	0.139835	0.391235
C57	C	0.772812	0.139832	0.287133
C58	C	0.772838	0.139840	0.608215
C59	C	0.772846	0.139844	0.712323
C60	C	0.867612	0.045139	0.712282
C61	C	0.867605	0.045136	0.608180
C62	C	0.820216	0.092488	0.556150
H63	H	0.593981	0.211581	-0.000250
H64	H	0.745442	-0.463320	-0.125577
H65	H	0.242669	0.179505	0.104807
C66	C	0.735896	-0.319974	-0.145300
N67	N	0.702624	-0.285438	-0.202506
H68	H	0.893066	-0.483126	0.124980
C69	C	0.720691	0.191925	0.229901
N70	N	0.681432	0.231164	0.186795
H71	H	0.817917	-0.565219	-0.163871
H72	H	0.624757	-0.018124	-0.000197
H73	H	0.462555	0.209652	-0.000269
C74	C	0.815799	-0.707044	0.189017
N75	N	0.815354	-0.737068	0.263711
H76	H	0.374100	0.181436	0.104838
H77	H	0.266328	0.003549	-0.105451
H78	H	0.147095	0.205029	-0.000346
C79	C	0.919700	-0.006961	0.229828
N80	N	0.958956	-0.046201	0.186696
C81	C	0.002893	0.221038	-0.000369
N82	N	-0.034142	0.273051	-0.000374
H83	H	0.894991	-0.351702	0.124997
H84	H	0.046436	-0.026600	-0.000420
C85	C	0.815868	-0.706998	-0.189641
N86	N	0.815479	-0.737002	-0.264344
C87	C	0.822356	-0.260158	0.189042
N88	N	0.821908	-0.290183	0.263735
H89	H	0.824428	-0.118370	0.163296
C90	C	0.919695	-0.006973	0.448429
N91	N	0.958941	-0.046227	0.491532
H92	H	0.817883	-0.565261	0.163263
H93	H	0.906186	0.006581	0.565784
H94	H	0.734266	0.178403	0.754715
C95	C	0.190642	-0.042612	-0.000324
N96	N	0.227677	-0.094624	-0.000313
C97	C	0.409967	-0.008230	-0.121977
N98	N	0.445375	-0.047964	-0.169989
C99	C	0.822394	-0.260109	-0.189610
N100	N	0.821960	-0.290110	-0.264310
C101	C	0.919737	-0.006952	0.769517
N102	N	0.958998	-0.046184	0.812631
H103	H	0.493322	-0.020044	-0.000256
C104	C	0.720701	0.191923	0.550984
N105	N	0.681431	0.231151	0.507878
C106	C	0.824632	-0.107979	-0.189603
N107	N	0.825079	-0.077963	-0.264304
H108	H	0.734240	0.178388	0.433637
