data_functionalizedCrystal
_audit_creation_method	'MofGen! by Chris Wilmer'
_symmetry_space_group_name_H-M	'P1'
_symmetry_Int_Tables_number	1
_symmetry_cell_setting	triclinic
loop_
_symmetry_equiv_pos_as_xyz
  x,y,z
_cell_length_a	9.065215
_cell_length_b	8.140239
_cell_length_c	9.065218
_cell_angle_alpha	90.001305
_cell_angle_beta	85.015325
_cell_angle_gamma	90.002779
loop_
_atom_site_label
_atom_site_type_symbol
_atom_site_fract_x
_atom_site_fract_y
_atom_site_fract_z
O1	O	-1.960402	-0.136579	-0.216334
O2	O	-1.627069	0.196754	0.116999
O3	O	-1.293735	0.530088	0.450332
O4	O	-1.531117	-0.136588	-0.234085
O5	O	-1.197783	0.196746	0.099248
O6	O	-0.864450	0.530079	0.432582
O7	O	-1.754633	-0.136580	-0.010567
O8	O	-1.421299	0.196754	0.322766
O9	O	-1.087966	0.530087	0.656099
O10	O	-1.736886	-0.136587	-0.439852
O11	O	-1.403553	0.196746	-0.106519
O12	O	-1.070219	0.530080	0.226814
O13	O	-1.754617	0.136647	-0.010566
O14	O	-1.421283	0.469981	0.322767
O15	O	-1.087950	0.803314	0.656100
O16	O	-1.531101	0.136639	-0.234084
O17	O	-1.197767	0.469973	0.099249
O18	O	-0.864434	0.803306	0.432582
O19	O	-1.960386	0.136648	-0.216334
O20	O	-1.627053	0.469981	0.117000
O21	O	-1.293719	0.803315	0.450333
Zn22	Zn	-1.745741	0.180024	-0.225209
Zn23	Zn	-1.412407	0.513358	0.108125
Zn24	Zn	-1.079074	0.846691	0.441458
Zn25	Zn	-1.745762	-0.179964	-0.225210
Zn26	Zn	-1.412429	0.153369	0.108124
Zn27	Zn	-1.079095	0.486703	0.441457
O28	O	-1.736870	0.136640	-0.439851
O29	O	-1.403537	0.469974	-0.106518
O30	O	-1.070203	0.803307	0.226815
C31	C	-1.476122	0.000025	-0.232380
C32	C	-1.142789	0.333358	0.100954
C33	C	-0.809455	0.666691	0.434287
C34	C	-1.312279	0.000021	-0.227282
C35	C	-0.978946	0.333355	0.106052
C36	C	-0.645612	0.666688	0.439385
N37	N	-1.745737	0.425707	-0.225207
N38	N	-1.412404	0.759040	0.108126
N39	N	-1.079070	1.092374	0.441459
C40	C	-1.015381	0.000031	-0.218039
C41	C	-0.682047	0.333364	0.115295
C42	C	-0.348714	0.666698	0.448628
C43	C	-1.179224	0.000021	-0.223136
C44	C	-0.845890	0.333354	0.110197
C45	C	-0.512557	0.666687	0.443530
N46	N	-1.745764	0.574353	-0.225207
N47	N	-1.412431	0.907687	0.108126
N48	N	-1.079097	1.241020	0.441460
C49	C	-1.752919	0.000031	0.044420
C50	C	-1.419586	0.333364	0.377753
C51	C	-1.086252	0.666698	0.711086
C52	C	-1.747819	0.000023	0.208263
C53	C	-1.414486	0.333356	0.541596
C54	C	-1.081153	0.666690	0.874929
C55	C	-1.738584	0.000026	-0.494838
C56	C	-1.405250	0.333359	-0.161505
C57	C	-1.071917	0.666692	0.171828
C58	C	-1.743683	0.000023	-0.658681
C59	C	-1.410350	0.333356	-0.325348
C60	C	-1.077017	0.666690	0.007985
