data_functionalizedCrystal
_audit_creation_method	'MofGen! by Chris Wilmer'
_symmetry_space_group_name_H-M	'P1'
_symmetry_Int_Tables_number	1
_symmetry_cell_setting	triclinic
loop_
_symmetry_equiv_pos_as_xyz
  x,y,z
_cell_length_a	6.394989
_cell_length_b	16.109301
_cell_length_c	14.586319
_cell_angle_alpha	89.997824
_cell_angle_beta	89.996926
_cell_angle_gamma	95.020404
loop_
_atom_site_label
_atom_site_type_symbol
_atom_site_fract_x
_atom_site_fract_y
_atom_site_fract_z
O1	O	-0.268488	1.105969	0.076176
O2	O	-0.301900	0.864261	0.076190
O3	O	0.018873	0.988546	0.076184
O4	O	-0.589260	0.981684	0.076183
O5	O	0.018893	0.988545	-0.076297
O6	O	-0.301880	0.864260	-0.076291
O7	O	-0.268468	1.105968	-0.076305
Cu8	Cu	-0.285172	0.985114	-0.090220
Cu9	Cu	-0.285196	0.985115	0.090106
O10	O	-0.589240	0.981683	-0.076298
C11	C	-0.300536	0.833271	-0.000048
C12	C	-0.296479	0.740933	-0.000043
C13	C	-0.477384	0.520575	-0.000054
C14	C	-0.473555	0.433814	-0.000060
C15	C	-0.092969	0.449660	-0.000055
C16	C	-0.096800	0.536419	-0.000056
C17	C	-0.289014	0.571874	-0.000051
C18	C	-0.281354	0.398354	-0.000056
C19	C	-0.277201	0.304284	-0.000062
C20	C	-0.293168	0.665950	-0.000046
N21	N	-0.285197	0.985116	0.216938
C22	C	0.096703	0.987189	-0.000053
C23	C	0.332935	0.983042	-0.000052
C24	C	-0.269831	1.136958	-0.000064
C25	C	-0.273889	1.229296	-0.000063
N26	N	-0.285154	0.985119	-0.217052
C27	C	-0.143434	1.040262	0.451941
C28	C	-0.143429	1.040264	0.547923
C29	C	-0.426931	0.929971	0.547938
C30	C	-0.426945	0.929973	0.451958
C31	C	-0.285185	0.985117	0.403962
C32	C	-0.285166	0.985118	0.595923
C33	C	-0.285162	0.985120	0.699990
C34	C	-0.285191	0.985117	0.299889
H35	H	0.056603	0.578189	-0.000056
H36	H	-0.633896	0.549440	-0.000056
C37	C	0.010560	1.100225	0.399996
C38	C	0.134664	1.148532	0.462563
C39	C	0.276531	1.203788	0.414748
H40	H	0.097893	1.069575	0.362550
H41	H	-0.064736	1.135602	0.362576
H42	H	0.209954	1.113159	0.499968
H43	H	0.047389	1.179199	0.500011
H44	H	0.201235	1.239165	0.377327
H45	H	0.363849	1.173131	0.377303
H46	H	0.360739	1.236576	0.457191
H47	H	-0.028006	1.085169	0.586984
C48	C	-0.580585	0.870129	0.600215
C49	C	-0.550196	0.881911	0.694540
C50	C	-0.691681	0.826790	0.742724
H51	H	-0.720169	0.880451	0.584606
H52	H	-0.557559	0.814417	0.584535
H53	H	-0.573238	0.937610	0.710214
H54	H	-0.410640	0.871583	0.710176
H55	H	-0.668656	0.771077	0.727044
H56	H	-0.831257	0.837116	0.727107
H57	H	-0.671069	0.834771	0.806728
H58	H	-0.626945	0.392050	-0.000064
C59	C	0.115499	0.411004	-0.000006
C60	C	0.078542	0.324044	0.000021
C61	C	0.270536	0.288409	0.000082
H62	H	0.193232	0.428385	-0.053163
H63	H	0.193063	0.428431	0.053191
H64	H	0.001011	0.306625	-0.053170
H65	H	0.000841	0.306640	0.053175
H66	H	0.348100	0.305835	0.053278
H67	H	0.348255	0.305796	-0.053077
H68	H	0.245487	0.229403	0.000108
H69	H	-0.542385	0.885068	0.412891
