data_functionalizedCrystal
_audit_creation_method	'MofGen! by Chris Wilmer'
_symmetry_space_group_name_H-M	'P1'
_symmetry_Int_Tables_number	1
_symmetry_cell_setting	triclinic
loop_
_symmetry_equiv_pos_as_xyz
  x,y,z
_cell_length_a	19.805407
_cell_length_b	17.639999
_cell_length_c	19.805399
_cell_angle_alpha	101.224068
_cell_angle_beta	89.982197
_cell_angle_gamma	101.196798
loop_
_atom_site_label
_atom_site_type_symbol
_atom_site_fract_x
_atom_site_fract_y
_atom_site_fract_z
Zn1	Zn	1.089264	0.314739	-0.328270
Zn2	Zn	1.589264	0.814739	0.171730
Zn3	Zn	1.112078	0.446914	-0.192228
Zn4	Zn	1.612078	0.946914	0.307772
Zn5	Zn	0.976082	0.314755	-0.215095
Zn6	Zn	1.476082	0.814755	0.284905
Zn7	Zn	0.998933	0.446866	-0.305387
Zn8	Zn	1.498933	0.946866	0.194613
O9	O	1.044089	0.380819	-0.260245
O10	O	1.544089	0.880819	0.239755
O11	O	1.187009	0.332286	-0.310230
O12	O	1.687009	0.832286	0.189770
O13	O	1.094022	0.429410	-0.100540
O14	O	1.594022	0.929410	0.399460
O15	O	0.971984	0.204148	-0.249254
O16	O	1.471984	0.704148	0.250746
O17	O	1.203771	0.429395	-0.210281
O18	O	1.703771	0.929395	0.289719
O19	O	1.055139	0.204136	-0.332403
O20	O	1.555139	0.704136	0.167597
O21	O	0.994106	0.332313	-0.117340
O22	O	1.494106	0.832313	0.382660
O23	O	0.884394	0.332266	-0.227066
O24	O	1.384394	0.832266	0.272934
O25	O	1.010932	0.429312	-0.403144
O26	O	1.510932	0.929312	0.096856
O27	O	0.901183	0.429328	-0.293403
O28	O	1.401183	0.929328	0.206597
O29	O	1.077297	0.332239	-0.419955
O30	O	1.577297	0.832239	0.080045
O31	O	1.116181	0.557513	-0.188093
O32	O	1.616181	1.057513	0.311907
O33	O	1.033054	0.557477	-0.271230
O34	O	1.533054	1.057477	0.228770
C35	C	0.868229	0.380794	-0.260233
C36	C	1.368229	0.880794	0.239767
C37	C	0.792999	0.380802	-0.260240
C38	C	1.292999	0.880802	0.239760
C39	C	0.748943	0.330327	-0.312334
C40	C	1.248943	0.830327	0.187666
C41	C	0.678255	0.330331	-0.312336
C42	C	1.178255	0.830331	0.187664
C43	C	0.651625	0.380815	-0.260246
C44	C	1.151625	0.880815	0.239754
C45	C	0.695686	0.431292	-0.208147
C46	C	1.195686	0.931292	0.291853
C47	C	0.766372	0.431284	-0.208143
C48	C	1.266372	0.931284	0.291857
C49	C	0.410619	0.431328	-0.208162
C50	C	0.910619	0.931328	0.291838
C51	C	0.339928	0.431334	-0.208171
C52	C	0.839928	0.931334	0.291829
C53	C	0.322502	0.330376	-0.312355
C54	C	0.822502	0.830376	0.187645
C55	C	0.393188	0.330367	-0.312351
C56	C	0.893188	0.830367	0.187649
C57	C	0.437242	0.380841	-0.260250
C58	C	0.937242	0.880841	0.239750
C59	C	0.513890	0.380835	-0.260248
C60	C	1.013890	0.880835	0.239752
C61	C	0.574980	0.380826	-0.260251
C62	C	1.074980	0.880826	0.239749
C63	C	1.079591	0.586174	-0.224712
C64	C	1.579591	1.086174	0.275288
C65	C	1.094841	0.674025	-0.209533
C66	C	1.594841	1.174025	0.290467
C67	C	0.928411	0.963004	-0.375786
C68	C	1.428411	1.463004	0.124214
C69	C	0.942742	1.045554	-0.361502
C70	C	1.442742	1.545554	0.138498
C71	C	1.029356	1.045525	-0.275019
C72	C	1.529356	1.545525	0.224981
C73	C	1.015035	0.962974	-0.289298
C74	C	1.515035	1.462974	0.210702
C75	C	0.964561	0.921719	-0.339682
C76	C	1.464561	1.421719	0.160318
C77	C	1.051185	0.921689	-0.253194
C78	C	1.551185	1.421689	0.246806
C79	C	1.036862	0.839145	-0.267470
C80	C	1.536862	1.339145	0.232530
C81	C	0.986390	0.797885	-0.317850
C82	C	1.486390	1.297885	0.182150
C83	C	0.950239	0.839175	-0.353958
C84	C	1.450239	1.339175	0.146042
C85	C	1.101655	0.962945	-0.202807
C86	C	1.601655	1.462945	0.297193
C87	C	1.137805	0.921660	-0.166703
C88	C	1.637805	1.421660	0.333297
C89	C	1.123486	0.839114	-0.180982
C90	C	1.623486	1.339114	0.319018
C91	C	1.073013	0.797854	-0.231362
C92	C	1.573013	1.297854	0.268638
C93	C	1.159637	0.797824	-0.144874
C94	C	1.659637	1.297824	0.355126
C95	C	1.145314	0.715280	-0.159149
C96	C	1.645314	1.215280	0.340851
C97	C	1.058691	0.715310	-0.245638
C98	C	1.558691	1.215310	0.254362
C99	C	1.220636	0.380844	-0.260258
C100	C	1.720636	0.880844	0.239742
C101	C	1.295870	0.380855	-0.260263
C102	C	1.795870	0.880855	0.239737
C103	C	1.044119	0.380769	-0.436796
C104	C	1.544119	0.880769	0.063204
C105	C	1.044131	0.380748	-0.512032
C106	C	1.544131	0.880748	-0.012032
C107	C	1.008446	1.174662	-0.295929
C108	C	1.508446	1.674662	0.204071
C109	C	0.993203	1.086810	-0.311127
C110	C	1.493203	1.586810	0.188873
C111	C	1.078688	0.330199	-0.556132
C112	C	1.578688	0.830199	-0.056132
C113	C	1.078691	0.330176	-0.626824
C114	C	1.578691	0.830176	-0.126824
C115	C	1.044141	0.380706	-0.653415
C116	C	1.544141	0.880706	-0.153415
C117	C	1.009579	0.431257	-0.609310
C118	C	1.509579	0.931257	-0.109310
C119	C	1.009573	0.431275	-0.538620
C120	C	1.509573	0.931275	-0.038620
C121	C	1.009605	0.431183	-0.894396
C122	C	1.509605	0.931183	-0.394396
C123	C	1.009616	0.431163	-0.965092
C124	C	1.509616	0.931163	-0.465092
C125	C	1.078723	0.330084	-0.982601
C126	C	1.578723	0.830084	-0.482601
C127	C	1.078717	0.330102	-0.911910
C128	C	1.578717	0.830102	-0.411910
C129	C	1.044152	0.380650	-0.867812
C130	C	1.544152	0.880650	-0.367812
C131	C	1.044149	0.380673	-0.791160
C132	C	1.544149	0.880673	-0.291160
C133	C	1.044148	0.380688	-0.730065
C134	C	1.544148	0.880688	-0.230065
C135	C	1.044089	0.380811	-0.084390
C136	C	1.544089	0.880811	0.415610
C137	C	1.044169	0.380610	-0.009194
C138	C	1.544169	0.880610	0.490806
H139	H	0.446480	0.472428	-0.165739
H140	H	0.946480	0.972428	0.334261
H141	H	0.887316	0.929413	-0.416819
H142	H	1.387316	1.429413	0.083181
H143	H	0.318249	0.472446	-0.165751
H144	H	0.818249	0.972446	0.334249
H145	H	0.802242	0.472385	-0.165723
H146	H	1.302242	0.972385	0.334277
C147	C	0.902978	1.090965	-0.401225
C148	C	1.402978	1.590965	0.098775
H149	H	0.870872	1.054570	-0.433279
H150	H	1.370872	1.554570	0.066721
H151	H	0.879097	1.123206	-0.369734
H152	H	1.379097	1.623206	0.130266
H153	H	0.934439	1.123125	-0.425181
H154	H	1.434439	1.623125	0.074819
C155	C	0.971603	0.486743	-0.994341
C156	C	1.471603	0.986743	-0.494341
H157	H	0.951010	0.516844	-0.957955
H158	H	1.451010	1.016844	-0.457955
H159	H	1.003446	0.521180	-1.015959
H160	H	1.503446	1.021180	-0.515959
H161	H	0.936890	0.456485	-1.027149
H162	H	1.436890	0.956485	-0.527149
H163	H	0.981472	0.472354	-0.858497
H164	H	1.481472	0.972354	-0.358497
C165	C	1.215152	0.843210	-0.089454
C166	C	1.715152	1.343210	0.410546
H167	H	1.218506	0.898283	-0.086125
H168	H	1.718506	1.398283	0.413875
H169	H	1.202935	0.829710	-0.046303
H170	H	1.702935	1.329710	0.453697
H171	H	1.258272	0.829643	-0.101754
H172	H	1.758272	1.329643	0.398246
H173	H	0.673998	0.472393	-0.165732
H174	H	1.173998	0.972393	0.334268
C175	C	0.971575	0.486840	-0.638558
C176	C	1.471575	0.986840	-0.138558
H177	H	0.976534	0.479596	-0.686974
H178	H	1.476534	0.979596	-0.186974
H179	H	0.924097	0.475271	-0.628970
H180	H	1.424097	0.975271	-0.128970
H181	H	0.990662	0.539952	-0.617778
H182	H	1.490662	1.039952	-0.117778
C183	C	1.185080	0.669863	-0.119439
C184	C	1.685080	1.169863	0.380561
H185	H	1.217196	0.706255	-0.087393
H186	H	1.717196	1.206255	0.412607
H187	H	1.153626	0.637698	-0.095487
H188	H	1.653626	1.137698	0.404513
H189	H	1.208962	0.637626	-0.150940
H190	H	1.708962	1.137626	0.349060
H191	H	0.770619	0.289220	-0.354753
H192	H	1.270619	0.789220	0.145247
H193	H	1.017595	0.681719	-0.286670
H194	H	1.517595	1.181719	0.213330
H195	H	0.974724	0.730671	-0.329467
H196	H	1.474724	1.230671	0.170533
C197	C	0.894727	0.793790	-0.409388
C198	C	1.394727	1.293790	0.090612
H199	H	0.875247	0.830198	-0.428849
H200	H	1.375247	1.330198	0.071151
H201	H	0.915016	0.761554	-0.444472
H202	H	1.415016	1.261554	0.055528
H203	H	0.859666	0.761625	-0.389033
H204	H	1.359666	1.261625	0.110967
H205	H	0.981424	0.472429	-0.502715
H206	H	1.481424	0.972429	-0.002715
C207	C	1.084877	1.090909	-0.219604
C208	C	1.584877	1.590909	0.280396
H209	H	1.088234	1.145983	-0.216276
H210	H	1.588234	1.645983	0.283724
H211	H	1.072664	1.077413	-0.176451
H212	H	1.572664	1.577413	0.323549
H213	H	1.127994	1.077337	-0.231910
H214	H	1.627994	1.577337	0.268090
H215	H	0.286624	0.289275	-0.354776
H216	H	0.786624	0.789275	0.145224
C217	C	1.193326	0.967044	-0.111288
C218	C	1.693326	1.467044	0.388712
H219	H	1.196683	1.022118	-0.107960
H220	H	1.696683	1.522118	0.392040
H221	H	1.181113	0.953548	-0.068135
H222	H	1.681113	1.453548	0.431865
H223	H	1.236443	0.953472	-0.123594
H224	H	1.736443	1.453472	0.376406
H225	H	1.113316	1.030158	-0.191187
H226	H	1.613316	1.530158	0.308813
H227	H	1.106826	0.289054	-0.534487
H228	H	1.606826	0.789054	-0.034487
H229	H	1.106833	0.289016	-0.662727
H230	H	1.606833	0.789016	-0.162727
H231	H	0.642387	0.289231	-0.354757
H232	H	1.142387	0.789231	0.145243
C233	C	1.116720	0.274520	-0.882661
C234	C	1.616720	0.774520	-0.382661
H235	H	1.111770	0.281775	-0.834243
H236	H	1.611770	0.781775	-0.334243
H237	H	1.097639	0.221410	-0.903438
H238	H	1.597639	0.721410	-0.403438
H239	H	1.164202	0.286094	-0.892248
H240	H	1.664202	0.786094	-0.392248
C241	C	0.422477	0.274833	-0.369647
C242	C	0.922477	0.774833	0.130353
H243	H	0.386113	0.244766	-0.400670
H244	H	0.886113	0.744766	0.099330
H245	H	0.455303	0.305106	-0.393856
H246	H	0.955303	0.805106	0.106144
H247	H	0.444074	0.240350	-0.349761
H248	H	0.944074	0.740350	0.150239
C249	C	1.116739	0.274477	-1.031111
C250	C	1.616739	0.774477	-0.531111
H251	H	1.111790	0.281694	-1.077022
H252	H	1.611790	0.781694	-0.577022
H253	H	1.164214	0.286057	-1.017529
H254	H	1.664214	0.786057	-0.517529
H255	H	1.097653	0.221370	-1.028717
H256	H	1.597653	0.721370	-0.528717
