data_functionalizedCrystal
_audit_creation_method	'MofGen! by Chris Wilmer'
_symmetry_space_group_name_H-M	'P1'
_symmetry_Int_Tables_number	1
_symmetry_cell_setting	triclinic
loop_
_symmetry_equiv_pos_as_xyz
  x,y,z
_cell_length_a	18.215407
_cell_length_b	13.897447
_cell_length_c	18.215399
_cell_angle_alpha	90.025056
_cell_angle_beta	90.019833
_cell_angle_gamma	90.019978
loop_
_atom_site_label
_atom_site_type_symbol
_atom_site_fract_x
_atom_site_fract_y
_atom_site_fract_z
Zn1	Zn	1.125099	-0.384013	0.416131
Zn2	Zn	1.125019	-0.545323	0.293071
Zn3	Zn	1.002032	-0.384045	0.293078
Zn4	Zn	1.002009	-0.545269	0.416096
O5	O	1.063540	-0.464663	0.354594
O6	O	1.228073	-0.405421	0.399818
O7	O	1.108681	-0.523965	0.190087
O8	O	1.018400	-0.249059	0.309419
O9	O	1.228014	-0.523934	0.309406
O10	O	1.108817	-0.249036	0.399825
O11	O	1.018322	-0.405474	0.190093
O12	O	0.899045	-0.405422	0.309385
O13	O	1.018361	-0.523843	0.519084
O14	O	0.899028	-0.523873	0.399765
O15	O	1.108795	-0.405369	0.519110
O16	O	1.108659	-0.680297	0.309372
O17	O	1.018284	-0.680258	0.399758
C18	C	0.872334	-0.464646	0.354573
C19	C	0.790535	-0.464662	0.354581
C20	C	0.602351	-0.526437	0.401583
C21	C	0.525493	-0.526440	0.401592
C22	C	0.525480	-0.402906	0.307620
C23	C	0.602338	-0.402899	0.307616
C24	C	0.640771	-0.464670	0.354596
C25	C	0.487055	-0.464680	0.354610
C26	C	0.403722	-0.464683	0.354619
C27	C	0.724110	-0.464666	0.354587
C28	C	1.063480	-0.715277	0.354577
C29	C	1.063522	-0.822491	0.354594
C30	C	1.063557	-0.909561	0.354611
C31	C	1.063609	-1.018793	0.354630
C32	C	1.255493	-0.464680	0.354615
C33	C	1.337292	-0.464687	0.354625
C34	C	1.063585	-0.464596	0.546547
C35	C	1.063604	-0.464568	0.628346
C36	C	1.063620	-0.213070	0.354627
C37	C	1.063654	-0.105856	0.354641
C38	C	1.063538	-0.464659	0.163387
C39	C	1.063661	-0.464416	0.081589
C40	C	1.110710	-0.402821	0.816554
C41	C	1.110718	-0.402792	0.893413
C42	C	1.016550	-0.526166	0.893375
C43	C	1.016538	-0.526188	0.816518
C44	C	1.063622	-0.464517	0.778109
C45	C	1.063643	-0.464466	0.931825
C46	C	1.063652	-0.464436	1.015159
C47	C	1.063612	-0.464546	0.694770
H48	H	0.494178	-0.352616	0.269370
N49	N	0.641588	-0.339788	0.259627
N50	N	0.633027	-0.250790	0.264627
H51	H	0.660749	-0.206216	0.230740
H52	H	0.978189	-0.576428	0.785215
H53	H	0.494215	-0.576735	0.439855
N54	N	1.158807	-0.339821	0.777332
N55	N	1.200844	-0.284738	0.811671
H56	H	1.234813	-0.240240	0.783973
N57	N	0.968451	-0.589142	0.932617
N58	N	0.921577	-0.555175	0.975500
H59	H	0.887606	-0.599650	1.003217
N60	N	0.641600	-0.589539	0.449574
N61	N	0.607283	-0.644683	0.491523
H62	H	0.635000	-0.689251	0.525419
N63	N	1.158818	-0.339760	0.932672
N64	N	1.200848	-0.284700	0.898367
H65	H	1.234820	-0.240178	0.926093
