data_functionalizedCrystal
_audit_creation_method	'MofGen! by Chris Wilmer'
_symmetry_space_group_name_H-M	'P1'
_symmetry_Int_Tables_number	1
_symmetry_cell_setting	triclinic
loop_
_symmetry_equiv_pos_as_xyz
  x,y,z
_cell_length_a	19.077105
_cell_length_b	15.299816
_cell_length_c	19.076919
_cell_angle_alpha	102.310100
_cell_angle_beta	90.076224
_cell_angle_gamma	78.483666
loop_
_atom_site_label
_atom_site_type_symbol
_atom_site_fract_x
_atom_site_fract_y
_atom_site_fract_z
Zn1	Zn	1.115517	-0.442478	-0.502525
Zn2	Zn	1.615517	0.057522	-0.002525
Zn3	Zn	1.139183	-0.589537	-0.405660
Zn4	Zn	1.639183	-0.089537	0.094340
Zn5	Zn	1.001149	-0.430226	-0.378599
Zn6	Zn	1.501149	0.069774	0.121401
Zn7	Zn	1.016933	-0.588986	-0.518335
Zn8	Zn	1.516933	-0.088986	-0.018335
O9	O	1.068195	-0.512807	-0.451280
O10	O	1.568195	-0.012807	0.048720
O11	O	1.217681	-0.467345	-0.494385
O12	O	1.717681	0.032655	0.005615
O13	O	1.124171	-0.563508	-0.303052
O14	O	1.624171	-0.063508	0.196948
O15	O	0.999811	-0.303865	-0.377096
O16	O	1.499811	0.196135	0.122904
O17	O	1.235068	-0.575388	-0.423218
O18	O	1.735068	-0.075388	0.076782
O19	O	1.083836	-0.312867	-0.468145
O20	O	1.583836	0.187133	0.031855
O21	O	1.022758	-0.446462	-0.283170
O22	O	1.522758	0.053538	0.216830
O23	O	0.904218	-0.445927	-0.392427
O24	O	1.404218	0.054073	0.107573
O25	O	1.026712	-0.574448	-0.615257
O26	O	1.526712	-0.074448	-0.115257
O27	O	0.915814	-0.562568	-0.495090
O28	O	1.415814	-0.062568	0.004910
O29	O	1.099141	-0.466810	-0.603641
O30	O	1.599141	0.033190	-0.103641
O31	O	1.139476	-0.717451	-0.438549
O32	O	1.639476	-0.217451	0.061451
O33	O	1.049659	-0.717045	-0.521331
O34	O	1.549659	-0.217045	-0.021331
C35	C	0.884340	-0.502859	-0.442538
C36	C	1.384340	-0.002859	0.057462
C37	C	0.805688	-0.498626	-0.438818
C38	C	1.305688	0.001374	0.061182
C39	C	1.098867	-0.750435	-0.484608
C40	C	1.598867	-0.250435	0.015392
C41	C	1.112052	-0.852098	-0.498893
C42	C	1.612052	-0.352098	0.001107
C43	C	0.774807	-0.557450	-0.490463
C44	C	1.274807	-0.057450	0.009537
C45	C	0.700904	-0.553461	-0.486970
C46	C	1.200904	-0.053461	0.013030
C47	C	0.657883	-0.490651	-0.431828
C48	C	1.157883	0.009349	0.068172
C49	C	0.688769	-0.431820	-0.380180
C50	C	1.188769	0.068180	0.119820
C51	C	0.762670	-0.435806	-0.383677
C52	C	1.262670	0.064194	0.116323
C53	C	0.436210	-0.472206	-0.415646
C54	C	0.936210	0.027794	0.084354
C55	C	0.362304	-0.468227	-0.412151
C56	C	0.862304	0.031773	0.087849
C57	C	0.374444	-0.589866	-0.518943
C58	C	0.874444	-0.089866	-0.018943
C59	C	0.448347	-0.593850	-0.522432
C60	C	0.948347	-0.093850	-0.022432
C61	C	0.479225	-0.535016	-0.470787
C62	C	0.979225	-0.035016	0.029213
N63	N	0.582342	-0.486574	-0.428254
N64	N	1.082342	0.013426	0.071746
N65	N	0.554764	-0.539090	-0.474364
N66	N	1.054764	-0.039090	0.025636
C67	C	0.974413	-1.120225	-0.349448
C68	C	1.474413	-0.620225	0.150552
C69	C	0.962021	-1.024708	-0.336029
C70	C	1.462021	-0.524708	0.163971
C71	C	0.999528	-0.981551	-0.376743
C72	C	1.499528	-0.481551	0.123257
C73	C	1.049429	-1.033921	-0.430880
C74	C	1.549429	-0.533921	0.069120
C75	C	1.061818	-1.129447	-0.444305
C76	C	1.561818	-0.629447	0.055695
C77	C	1.086933	-0.990773	-0.471600
C78	C	1.586933	-0.490773	0.028400
C79	C	1.136834	-1.043143	-0.525737
C80	C	1.636834	-0.543143	-0.025737
C81	C	1.149221	-1.138660	-0.539159
C82	C	1.649221	-0.638660	-0.039159
C83	C	1.111714	-1.181817	-0.498444
C84	C	1.611714	-0.681817	0.001556
C85	C	1.074544	-0.895246	-0.458175
C86	C	1.574544	-0.395246	0.041825
C87	C	1.161948	-0.904468	-0.553032
C88	C	1.661948	-0.404468	-0.053032
C89	C	1.174340	-0.999985	-0.566451
C90	C	1.674340	-0.499985	-0.066451
C91	C	1.252769	-0.522795	-0.460057
C92	C	1.752769	-0.022795	0.039943
C93	C	1.331423	-0.527051	-0.463797
C94	C	1.831423	-0.027051	0.036203
C95	C	1.062047	-0.521934	-0.635841
C96	C	1.562047	-0.021934	-0.135841
C97	C	1.059427	-0.525824	-0.714490
C98	C	1.559427	-0.025824	-0.214490
C99	C	1.037423	-0.274253	-0.417838
C100	C	1.537423	0.225747	0.082162
C101	C	1.024309	-0.172595	-0.403587
C102	C	1.524309	0.327405	0.096413
C103	C	1.095904	-0.471612	-0.745394
C104	C	1.595904	0.028388	-0.245394
C105	C	1.093433	-0.475263	-0.819292
C106	C	1.593433	0.024737	-0.319292
C107	C	1.054488	-0.533130	-0.862286
C108	C	1.554488	-0.033130	-0.362286
C109	C	1.018007	-0.587344	-0.831378
C110	C	1.518007	-0.087344	-0.331378
C111	C	1.020474	-0.583688	-0.757480
C112	C	1.520474	-0.083688	-0.257480
C113	C	1.043062	-0.550069	-1.083945
C114	C	1.543062	-0.050069	-0.583945
C115	C	1.040599	-0.553723	-1.157848
C116	C	1.540599	-0.053723	-0.657848
C117	C	1.116024	-0.441640	-1.145756
C118	C	1.616024	0.058360	-0.645756
C119	C	1.118491	-0.437993	-1.071858
C120	C	1.618491	0.062007	-0.571858
C121	C	1.082007	-0.492203	-1.040956
C122	C	1.582007	0.007797	-0.540956
N123	N	1.051964	-0.536865	-0.937823
N124	N	1.551964	-0.036865	-0.437823
N125	N	1.084528	-0.488463	-0.965420
N126	N	1.584528	0.011537	-0.465420
C127	C	1.074352	-0.503651	-0.267429
C128	C	1.574352	-0.003651	0.232571
C129	C	1.077076	-0.499512	-0.188751
C130	C	1.577076	0.000488	0.311249
H131	H	0.809830	-0.608599	-0.535364
H132	H	1.309830	-0.108599	-0.035364
C133	C	0.340470	-0.654572	-0.575753
C134	C	0.840470	-0.154572	-0.075753
N135	N	0.314880	-0.703309	-0.618547
N136	N	0.814880	-0.203309	-0.118547
C137	C	0.907117	-0.967108	-0.276494
C138	C	1.407117	-0.467108	0.223506
N139	N	0.865755	-0.923723	-0.231654
N140	N	1.365755	-0.423723	0.268346
C141	C	0.470167	-0.407492	-0.358830
C142	C	0.970167	0.092508	0.141170
N143	N	0.495747	-0.358748	-0.316033
N144	N	0.995747	0.141252	0.183967
H145	H	0.943877	-1.155373	-0.316307
H146	H	1.443877	-0.655373	0.183693
C147	C	0.641443	-0.362727	-0.319524
C148	C	1.141443	0.137273	0.180476
N149	N	0.605799	-0.310686	-0.273835
N150	N	1.105799	0.189314	0.226165
C151	C	1.002925	-0.609700	-1.049962
C152	C	1.502925	-0.109700	-0.549962
N153	N	0.972690	-0.654615	-1.024363
N154	N	1.472690	-0.154615	-0.524363
H155	H	1.214970	-1.042638	-0.610531
H156	H	1.714970	-0.542638	-0.110531
H157	H	1.008884	-0.600848	-1.192853
H158	H	1.508884	-0.100848	-0.692853
H159	H	1.150206	-0.390874	-1.036857
H160	H	1.650206	0.109126	-0.536857
C161	C	0.975160	-0.650990	-0.878673
C162	C	1.475160	-0.150990	-0.378673
N163	N	0.942886	-0.698929	-0.914295
N164	N	1.442886	-0.198929	-0.414295
C165	C	0.666941	-0.618189	-0.543773
C166	C	1.166941	-0.118189	-0.043773
N167	N	0.641362	-0.666952	-0.586556
N168	N	1.141362	-0.166952	-0.086556
H169	H	0.483370	-0.644998	-0.567334
H170	H	0.983370	-0.144998	-0.067334
H171	H	0.787811	-0.387900	-0.341625
H172	H	1.287811	0.112100	0.158375
C173	C	1.125343	-1.286893	-0.513203
C174	C	1.625343	-0.786893	-0.013203
N175	N	1.135606	-1.366037	-0.524318
N176	N	1.635606	-0.866037	-0.024318
C177	C	1.019654	-0.837650	-0.398625
C178	C	1.519654	-0.337650	0.101375
N179	N	0.978309	-0.794269	-0.353768
N180	N	1.478309	-0.294269	0.146232
H181	H	0.990762	-0.627823	-0.732319
H182	H	1.490762	-0.127823	-0.232319
H183	H	1.189850	-1.181297	-0.583243
H184	H	1.689850	-0.681297	-0.083243
C185	C	1.203210	-0.856999	-0.597820
C186	C	1.703210	-0.356999	-0.097820
N187	N	1.234285	-0.821240	-0.631552
N188	N	1.734285	-0.321240	-0.131552
H189	H	0.989436	-0.903776	-0.365813
H190	H	1.489436	-0.403776	0.134187
H191	H	1.127619	-0.424493	-0.710393
H192	H	1.627619	0.075507	-0.210393
H193	H	1.123138	-0.431120	-0.844450
H194	H	1.623138	0.068880	-0.344450
H195	H	1.145727	-0.397504	-1.170925
H196	H	1.645727	0.102496	-0.670925
C197	C	0.314982	-0.399127	-0.351489
C198	C	0.814982	0.100873	0.148511
N199	N	0.279340	-0.347085	-0.305799
N200	N	0.779340	0.152915	0.194201
