data_functionalizedCrystal
_audit_creation_method	'MofGen! by Chris Wilmer'
_symmetry_space_group_name_H-M	'P1'
_symmetry_Int_Tables_number	1
_symmetry_cell_setting	triclinic
loop_
_symmetry_equiv_pos_as_xyz
  x,y,z
_cell_length_a	19.188933
_cell_length_b	16.974813
_cell_length_c	16.053802
_cell_angle_alpha	88.912550
_cell_angle_beta	87.428887
_cell_angle_gamma	83.270760
loop_
_atom_site_label
_atom_site_type_symbol
_atom_site_fract_x
_atom_site_fract_y
_atom_site_fract_z
O1	O	0.929536	0.095076	-0.075824
O2	O	0.726286	0.108320	-0.076726
O3	O	0.833249	-0.013052	-0.068518
O4	O	0.822573	0.216448	-0.084032
O5	O	0.827361	-0.006399	0.069891
O6	O	0.720398	0.114973	0.061683
O7	O	0.923648	0.101729	0.062585
Zn8	Zn	0.821089	0.109408	0.084109
Zn9	Zn	0.828846	0.100642	-0.098250
O10	O	0.816686	0.223101	0.054377
C11	C	0.697329	0.111217	-0.007494
C12	C	0.619819	0.109929	-0.007410
C13	C	0.829789	-0.039087	0.002670
C14	C	0.828245	-0.126575	0.008578
C15	C	0.069730	0.097108	-0.082226
C16	C	0.142560	0.098314	-0.082311
C17	C	0.175771	0.102547	-0.006905
C18	C	0.136147	0.105555	0.068592
C19	C	0.063320	0.104341	0.068675
N20	N	0.282618	0.152000	0.046093
N21	N	0.351801	0.153154	0.046008
C22	C	0.395196	0.106202	-0.007151
N23	N	0.366794	0.058061	-0.060236
N24	N	0.297604	0.056910	-0.060154
C25	C	0.254740	0.103863	-0.006987
C26	C	0.513782	0.104496	-0.082735
C27	C	0.586614	0.105697	-0.082816
C28	C	0.580198	0.112946	0.068088
C29	C	0.507369	0.111737	0.068168
C30	C	0.474165	0.107516	-0.007246
C31	C	0.830731	-0.171299	-0.064092
C32	C	0.829275	-0.253503	-0.058537
C33	C	0.825339	-0.290982	0.019688
C34	C	0.822851	-0.246251	0.092364
C35	C	0.824302	-0.164048	0.086809
C36	C	0.820652	-0.536442	0.044393
C37	C	0.819204	-0.618652	0.049943
C38	C	0.825626	-0.625898	-0.100959
C39	C	0.827081	-0.543694	-0.106507
C40	C	0.824589	-0.498970	-0.033831
N41	N	0.823854	-0.375007	0.025368
N42	N	0.826070	-0.414945	-0.039512
C43	C	0.952605	0.098832	-0.006649
C44	C	1.030115	0.100120	-0.006739
C45	C	0.820145	0.249136	-0.016813
C46	C	0.821689	0.336624	-0.022727
N47	N	0.815800	0.115390	0.208565
N48	N	0.834140	0.094653	-0.222706
C49	C	0.861329	0.063764	0.255750
C50	C	0.857636	0.067956	0.342874
C51	C	0.808416	0.123778	0.382810
C52	C	0.762882	0.175406	0.335618
C53	C	0.766572	0.171209	0.248497
C54	C	0.792296	0.142085	0.642981
C55	C	0.788611	0.146279	0.730109
C56	C	0.883364	0.038828	0.737359
C57	C	0.887053	0.034640	0.650235
C58	C	0.841516	0.086265	0.603051
N59	N	0.804641	0.128066	0.471863
N60	N	0.845288	0.081973	0.513999
H61	H	0.042700	0.093668	-0.143634
Br62	Br	0.196335	0.094226	-0.184764
H63	H	0.920437	-0.003204	0.775784
Br64	Br	0.953854	-0.041116	0.596034
Br65	Br	0.832647	-0.314198	-0.157166
H66	H	0.031065	0.106797	0.130147
H67	H	0.748528	0.191739	0.762620
H68	H	0.163192	0.109000	0.129988
H69	H	0.486746	0.101057	-0.144141
Br70	Br	0.928136	-0.011993	0.201561
Br71	Br	0.832427	-0.492836	-0.212674
Br72	Br	0.829008	-0.686598	-0.199584
H73	H	0.618868	0.103239	-0.144289
H74	H	0.722803	0.220855	0.368139
Br75	Br	0.813869	-0.669516	0.156114
Br76	Br	0.625263	0.118674	0.170428
H77	H	0.729497	0.213247	0.210079
Br78	Br	0.817256	-0.475754	0.143025
Br79	Br	0.817498	-0.297112	0.198529
H80	H	0.475113	0.114192	0.129638
H81	H	0.833939	-0.140791	-0.127791
Br82	Br	0.730500	0.212147	0.578951
Br83	Br	0.820925	-0.103349	0.185436
Br84	Br	0.919424	-0.002111	0.406914
