data_functionalizedCrystal
_audit_creation_method	'MofGen! by Chris Wilmer'
_symmetry_space_group_name_H-M	'P1'
_symmetry_Int_Tables_number	1
_symmetry_cell_setting	triclinic
loop_
_symmetry_equiv_pos_as_xyz
  x,y,z
_cell_length_a	12.645331
_cell_length_b	25.639240
_cell_length_c	12.645323
_cell_angle_alpha	90.039057
_cell_angle_beta	90.022676
_cell_angle_gamma	90.031736
loop_
_atom_site_label
_atom_site_type_symbol
_atom_site_fract_x
_atom_site_fract_y
_atom_site_fract_z
Zn1	Zn	1.620620	-0.208161	0.599342
Zn2	Zn	1.620455	-0.295600	0.422038
Zn3	Zn	1.443335	-0.208179	0.422086
Zn4	Zn	1.443270	-0.295566	0.599253
O5	O	1.531920	-0.251876	0.510680
O6	O	1.768946	-0.219767	0.575839
O7	O	1.596918	-0.284025	0.273697
O8	O	1.466948	-0.135011	0.445657
O9	O	1.768824	-0.284008	0.445574
O10	O	1.597199	-0.134998	0.575886
O11	O	1.466788	-0.219797	0.273732
O12	O	1.294979	-0.219764	0.445571
O13	O	1.466838	-0.283949	0.747612
O14	O	1.294931	-0.283967	0.575735
O15	O	1.597136	-0.219734	0.747677
O16	O	1.596855	-0.368760	0.445489
O17	O	1.466678	-0.368735	0.575688
C18	C	1.256490	-0.251864	0.510649
C19	C	1.138660	-0.251871	0.510661
C20	C	1.531770	-0.387719	0.510597
C21	C	1.531803	-0.445833	0.510597
C22	C	0.971091	-0.211295	0.429227
C23	C	1.093651	-0.211400	0.428868
C24	C	1.094111	-0.306949	0.480119
C25	C	0.971512	-0.306727	0.479563
C26	C	0.971518	-0.237893	0.622952
C27	C	1.094125	-0.236663	0.622329
C28	C	1.599775	-0.806151	0.578612
C29	C	1.599807	-0.860755	0.578634
O30	O	1.657421	-0.888953	0.636378
N31	N	1.532067	-0.888115	0.510782
C32	C	1.464284	-0.860868	0.442912
O33	O	1.406669	-0.889154	0.385202
C34	C	1.464249	-0.806265	0.442897
C35	C	1.532000	-0.778908	0.510745
C36	C	1.667521	-0.778793	0.646456
C37	C	1.667490	-0.724193	0.646433
C38	C	1.599715	-0.696950	0.578566
C39	C	1.531970	-0.724307	0.510722
C40	C	1.396461	-0.779019	0.375033
C41	C	1.396431	-0.724412	0.375024
C42	C	1.464182	-0.697055	0.442872
C43	C	1.464165	-0.642464	0.442832
N44	N	1.531904	-0.615103	0.510683
C45	C	1.599679	-0.642346	0.578550
C46	C	1.464364	-0.975539	0.442951
C47	C	1.464404	-1.030141	0.442960
C48	C	1.599925	-1.030024	0.578684
C49	C	1.599889	-0.975421	0.578668
C50	C	1.532103	-0.948179	0.510803
C51	C	1.599612	-0.527681	0.578496
C52	C	1.599578	-0.473076	0.578464
C53	C	1.464054	-0.473198	0.442745
C54	C	1.464090	-0.527798	0.442773
C55	C	1.531873	-0.555039	0.510657
O56	O	1.406577	-0.614231	0.385120
O57	O	1.657275	-0.614054	0.636261
C58	C	1.808425	-0.251889	0.510711
C59	C	1.926255	-0.251895	0.510724
C60	C	1.531998	-0.251836	0.787185
C61	C	1.532031	-0.251819	0.905015
C62	C	1.532099	-0.115503	0.510786
C63	C	1.532176	-0.057389	0.510832
C64	C	1.531903	-0.251879	0.235250
C65	C	1.532075	-0.251749	0.117421
C66	C	1.449808	-0.292026	1.072539
C67	C	1.450023	-0.292225	0.949979
C68	C	1.643723	-0.266773	0.949528
C69	C	1.643272	-0.267025	1.072126
C70	C	1.503620	-0.196432	1.072241
C71	C	1.501127	-0.196764	0.949634
H72	H	1.123773	-0.170558	0.448015
H73	H	1.124768	-0.264076	0.686301
C74	C	1.674183	-0.557638	0.653165
N75	N	1.730356	-0.580200	0.709399
C76	C	1.133202	-0.223905	0.316516
N77	N	1.162991	-0.233326	0.231889
H78	H	1.706661	-0.238364	0.920407
H79	H	1.408930	-0.550074	0.387517
H80	H	1.123264	-0.338007	0.537613
H81	H	1.366738	-0.282758	1.102017
C82	C	1.742094	-0.808752	0.721113
N83	N	1.798277	-0.831313	0.777341
H84	H	1.668260	-0.306787	0.918819
H85	H	1.423594	-0.182801	1.103152
C86	C	1.742027	-0.694106	0.721069
N87	N	1.798173	-0.671449	0.777287
H88	H	1.341291	-0.801284	0.319783
C89	C	1.728900	-0.229123	1.112242
N90	N	1.793401	-0.200579	1.142453
C91	C	1.389500	-0.443220	0.368099
N92	N	1.333339	-0.420639	0.311882
H93	H	0.942524	-0.267464	0.683675
H94	H	1.124760	-0.319027	0.398954
C95	C	1.674472	-1.060002	0.653347
N96	N	1.730616	-1.082583	0.709581
H97	H	1.341228	-0.702234	0.319761
C98	C	1.338132	-0.279582	0.909316
N99	N	1.253849	-0.270060	0.878694
C100	C	0.929394	-0.223651	0.317538
N101	N	0.897984	-0.232958	0.233415
C102	C	1.474944	-0.347084	1.114130
N103	N	1.493884	-0.388553	1.145451
C104	C	0.929817	-0.184579	0.660465
N105	N	0.898411	-0.144420	0.688706
C106	C	1.584571	-0.155892	1.111454
N107	N	1.645547	-0.125362	1.140992
H108	H	1.468806	-0.333234	0.920644
H109	H	1.123250	-0.196132	0.645359
H110	H	1.418932	-0.185486	0.920541
C111	C	0.931311	-0.155952	0.454810
N112	N	0.901342	-0.114265	0.474081
H113	H	1.655058	-0.953149	0.633917
C114	C	0.931438	-0.348979	0.556248
N115	N	0.901259	-0.380804	0.614002
C116	C	0.932802	-0.322762	0.368720
N117	N	0.903651	-0.334837	0.285229
H118	H	1.654754	-0.450803	0.633714
H119	H	1.409245	-1.052411	0.387700
H120	H	1.409167	-0.953361	0.387678
H121	H	1.667396	-0.307463	1.100716
C122	C	1.576150	-0.154076	0.908269
N123	N	1.632661	-0.121924	0.877105
