data_functionalizedCrystal
_audit_creation_method	'MofGen! by Chris Wilmer'
_symmetry_space_group_name_H-M	'P1'
_symmetry_Int_Tables_number	1
_symmetry_cell_setting	triclinic
loop_
_symmetry_equiv_pos_as_xyz
  x,y,z
_cell_length_a	20.299480
_cell_length_b	20.298645
_cell_length_c	20.294903
_cell_angle_alpha	60.007695
_cell_angle_beta	60.015306
_cell_angle_gamma	59.991039
loop_
_atom_site_label
_atom_site_type_symbol
_atom_site_fract_x
_atom_site_fract_y
_atom_site_fract_z
O1	O	0.091305	-0.962534	0.804873
O2	O	0.034397	-0.749399	0.648508
O3	O	0.169355	-0.884263	0.648401
O4	O	-0.043654	-0.827670	0.804979
O5	O	0.214132	-0.839502	0.693072
O6	O	0.079173	-0.704639	0.693178
O7	O	0.136081	-0.917774	0.849544
Zn8	Zn	0.114736	-0.804099	0.778453
Zn9	Zn	0.055742	-0.863073	0.719598
O10	O	0.001122	-0.782910	0.849650
N11	N	0.155000	-0.763857	0.818624
N12	N	0.015485	-0.903322	0.679427
C13	C	0.179343	-0.615641	0.842971
C14	C	0.179443	-0.739552	0.966834
C15	C	0.303264	-0.739536	0.842917
C16	C	0.179356	-0.739528	0.842952
C17	C	0.210353	-0.708565	0.873918
C18	C	-0.132622	-0.927446	0.654695
C19	C	-0.008595	-0.927622	0.530981
C20	C	-0.008820	-1.051459	0.654914
C21	C	-0.008800	-0.927618	0.654995
C22	C	-0.039709	-0.958538	0.623897
N23	N	0.376268	-0.763873	0.818558
O24	O	0.652281	-0.777347	0.619856
O25	O	0.652556	-0.934198	0.832777
O26	O	0.652445	-0.933836	0.697731
O27	O	0.652392	-0.777709	0.754902
O28	O	0.518259	-0.889182	0.742556
O29	O	0.518369	-0.889544	0.877602
O30	O	0.518095	-0.732693	0.664680
Zn31	Zn	0.496927	-0.804029	0.778258
Zn32	Zn	0.673724	-0.862862	0.719200
O33	O	0.518205	-0.733055	0.799726
N34	N	0.794383	-0.903019	0.678891
N35	N	0.154981	-0.542636	0.818657
O36	O	-0.043628	-0.266455	0.805024
O37	O	0.169291	-0.266451	0.648191
O38	O	0.034217	-0.266468	0.648577
O39	O	0.091446	-0.266438	0.804638
O40	O	0.078998	-0.400670	0.693303
O41	O	0.214071	-0.400653	0.692918
O42	O	0.001152	-0.400657	0.849750
Zn43	Zn	0.114722	-0.421963	0.778435
Zn44	Zn	0.055722	-0.245145	0.719506
O45	O	0.136226	-0.400640	0.849364
N46	N	0.015453	-0.124472	0.679286
N47	N	0.155155	-0.763898	1.039838
O48	O	0.141555	-0.962488	1.315987
O49	O	-0.015254	-0.749480	1.316022
O50	O	-0.014890	-0.884527	1.315962
O51	O	0.141192	-0.827441	1.316047
O52	O	0.029815	-0.839777	1.181768
O53	O	0.029452	-0.704730	1.181828
O54	O	0.186261	-0.917739	1.181793
Zn55	Zn	0.114954	-0.804130	1.160504
Zn56	Zn	0.056053	-0.863089	1.337311
O57	O	0.185897	-0.782692	1.181853
N58	N	0.015850	-0.903330	1.457977
C59	C	0.051451	-0.700162	0.649301
C60	C	0.218580	-0.867175	0.649169
C61	C	0.119026	-0.967011	0.848750
C62	C	-0.048103	-0.799998	0.848882
C63	C	0.585495	-0.933471	0.882014
C64	C	0.585361	-0.933023	0.714775
C65	C	0.585151	-0.733419	0.615444
C66	C	0.585291	-0.733869	0.782682
C67	C	0.218449	-0.333386	0.648902
C68	C	0.051232	-0.333573	0.649435
C69	C	-0.048061	-0.333556	0.848984
C70	C	0.119212	-0.333537	0.848507
C71	C	-0.014496	-0.700269	1.248929
C72	C	-0.014037	-0.867500	1.248828
C73	C	0.185503	-0.966949	1.248886
C74	C	0.185054	-0.799709	1.248957
H75	H	0.039295	-0.638935	0.600193
O76	O	0.244339	-1.039873	1.248840
C77	C	0.313775	-1.039880	1.248888
H78	H	0.312812	-0.975157	1.223505
H79	H	0.369933	-1.075761	1.209923
H80	H	0.314730	-1.068730	1.313274
H81	H	0.585062	-0.684173	0.554297
O82	O	-0.073132	-0.627220	1.248832
C83	C	-0.045565	-0.566397	1.179339
H84	H	0.023208	-0.588607	1.156177
H85	H	-0.069156	-0.510098	1.194989
H86	H	-0.068456	-0.551301	1.130657
H87	H	0.585279	-0.684826	0.794916
O88	O	0.585276	-0.991566	0.700316
C89	C	0.515823	-1.013309	0.755642
H90	H	0.492688	-0.997242	0.811575
H91	H	0.531509	-1.081003	0.773660
H92	H	0.467111	-0.979265	0.726429
H93	H	0.131466	-0.333527	0.897533
O94	O	0.036762	-0.333695	0.590909
C95	C	0.092066	-0.403216	0.569220
H96	H	0.147996	-0.426377	0.585300
H97	H	0.110089	-0.387596	0.501535
H98	H	0.062835	-0.451889	0.603285
O99	O	0.291277	-0.332901	0.590087
C100	C	0.341468	-0.332757	0.619074
H101	H	0.302662	-0.307613	0.671058
H102	H	0.379805	-0.293485	0.568409
H103	H	0.382523	-0.397056	0.641193
O104	O	-0.072413	-0.882158	1.248694
C105	C	-0.043023	-0.961476	1.248668
H106	H	0.025703	-0.982735	1.223314
H107	H	-0.067551	-0.962605	1.209640
H108	H	-0.063454	-1.003226	1.313027
H109	H	-0.109209	-0.333558	0.898221
H110	H	0.131184	-1.028235	0.897860
H111	H	0.279759	-0.879241	0.599998
O112	O	-0.121121	-0.785467	0.907468
C113	C	-0.171269	-0.706185	0.878292
H114	H	-0.132419	-0.667872	0.826474
H115	H	-0.209918	-0.679165	0.928928
H116	H	-0.212023	-0.707407	0.855883
O117	O	0.585620	-0.992143	0.954999
C118	C	0.585618	-0.963085	1.005224
H119	H	0.610962	-0.911262	0.966433
H120	H	0.624636	-1.013784	1.043847
H121	H	0.521255	-0.940711	1.046005
H122	H	0.234089	-0.787495	1.248972
