data_functionalizedCrystal
_audit_creation_method	'MofGen! by Chris Wilmer'
_symmetry_space_group_name_H-M	'P1'
_symmetry_Int_Tables_number	1
_symmetry_cell_setting	triclinic
loop_
_symmetry_equiv_pos_as_xyz
  x,y,z
_cell_length_a	21.606444
_cell_length_b	12.970454
_cell_length_c	21.606444
_cell_angle_alpha	59.999910
_cell_angle_beta	90.002531
_cell_angle_gamma	60.000494
loop_
_atom_site_label
_atom_site_type_symbol
_atom_site_fract_x
_atom_site_fract_y
_atom_site_fract_z
Zr1	Zr	0.596233	1.128516	-0.081208
O2	O	0.497403	1.343612	-0.180035
O3	O	0.626529	0.913425	-0.050913
O4	O	0.626523	1.128523	-0.180034
O5	O	0.497415	1.128507	0.050941
O6	O	0.728375	1.128523	-0.180033
O7	O	0.497409	1.128514	-0.050914
O8	O	0.728386	0.743751	0.050942
O9	O	0.497404	1.513278	-0.180034
O10	O	0.715461	1.001893	-0.037990
O11	O	0.639454	1.001888	0.038021
O12	O	0.639447	1.255138	-0.114003
O13	O	0.563440	1.255133	-0.037991
Zr14	Zr	0.758683	1.128504	0.081240
Zr15	Zr	0.758675	1.128516	-0.081205
Zr16	Zr	0.596241	1.128504	0.081238
Zr17	Zr	0.596233	1.399114	-0.081206
Zr18	Zr	0.758682	0.857907	0.081239
O19	O	0.728387	1.343595	0.050945
O20	O	0.728375	1.343612	-0.180031
O21	O	0.497415	1.343596	0.050942
O22	O	0.857512	0.913408	0.180068
O23	O	0.857501	0.913424	-0.050909
O24	O	0.626540	0.913408	0.180064
O25	O	0.857501	1.128513	-0.050908
O26	O	0.728393	1.128497	0.180067
O27	O	0.626541	1.128497	0.180065
O28	O	0.857506	1.128506	0.050946
O29	O	0.626523	1.513278	-0.180032
O30	O	0.728392	0.743742	0.180065
O31	O	0.857512	0.743742	0.180067
O32	O	0.857505	0.743751	0.050944
O33	O	0.497410	1.513269	-0.050912
O34	O	0.626530	1.513269	-0.050910
O35	O	0.715469	1.001882	0.114035
O36	O	0.791476	1.001887	0.038024
O37	O	0.715462	1.255133	-0.037989
O38	O	0.639454	1.255127	0.038023
C39	C	0.677457	0.790034	0.000015
C40	C	0.677457	0.675158	0.000014
C41	C	0.474267	1.128510	0.000013
C42	C	0.405306	1.128511	0.000012
C43	C	0.372905	1.128519	-0.056102
C44	C	0.308111	1.128512	-0.056100
C45	C	0.275717	1.128506	0.000015
C46	C	0.308124	1.128494	0.056135
C47	C	0.372920	1.128491	0.056135
C48	C	0.046810	1.128504	0.056138
C49	C	-0.017992	1.128512	0.056132
C50	C	-0.017998	1.128525	-0.056097
C51	C	0.046798	1.128522	-0.056097
C52	C	0.079201	1.128502	0.000025
C53	C	0.149459	1.128507	0.000022
C54	C	0.205457	1.128512	0.000015
C55	C	0.880648	1.128510	0.000019
C56	C	0.949609	1.128510	0.000020
C57	C	0.677447	1.128525	-0.203178
C58	C	0.677444	1.128530	-0.272141
C59	C	0.677458	1.466986	0.000018
C60	C	0.677459	1.581862	0.000019
C61	C	0.637765	1.260720	-0.344217
C62	C	0.637771	1.260716	-0.409012
C63	C	0.677453	1.128520	-0.401729
C64	C	0.717137	0.996319	-0.329645
C65	C	0.717134	0.996325	-0.264852
C66	C	0.717149	0.996294	-0.590948
C67	C	0.717147	0.996299	-0.655749
C68	C	0.637786	1.260685	-0.735108
C69	C	0.637783	1.260691	-0.670315
C70	C	0.677470	1.128491	-0.598237
C71	C	0.677464	1.128497	-0.527979
C72	C	0.677455	1.128513	-0.471985
C73	C	0.677468	1.128496	0.203211
C74	C	0.677472	1.128491	0.272173
C75	C	0.880647	0.790033	0.000018
C76	C	0.949608	0.675158	0.000018
C77	C	0.677467	0.790019	0.203209
C78	C	0.677471	0.675139	0.272171
C79	C	0.880658	0.790019	0.203212
C80	C	0.949622	0.675138	0.272175
C81	C	0.474258	1.467001	-0.203180
C82	C	0.405294	1.581882	-0.272143
C83	C	0.474268	1.466987	0.000015
C84	C	0.405307	1.581863	0.000014
C85	C	0.677448	1.467001	-0.203177
C86	C	0.677445	1.581882	-0.272138
C87	C	0.942314	0.621213	-0.039667
C88	C	1.007103	0.513290	-0.039682
C89	C	1.079187	0.459306	-0.000006
C90	C	1.086480	0.513260	0.039680
C91	C	1.021691	0.621189	0.039690
C92	C	0.717151	0.621186	0.344241
C93	C	0.717151	0.513259	0.409044
C94	C	0.677475	0.459278	0.401776
C95	C	0.637790	0.513241	0.329698
C96	C	0.637785	0.621174	0.264896
C97	C	1.021690	0.621192	0.264884
C98	C	1.086495	0.513264	0.329675
C99	C	1.079231	0.459277	0.401758
C100	C	1.007155	0.513234	0.409048
C101	C	0.942352	0.621167	0.344257
C102	C	0.333226	1.635842	-0.264851
C103	C	0.268420	1.743803	-0.329643
C104	C	0.275684	1.797795	-0.401725
C105	C	0.347760	1.743831	-0.409015
C106	C	0.412564	1.635879	-0.344224
C107	C	0.412602	1.635818	0.039693
C108	C	0.347812	1.743771	0.039689
C109	C	0.275729	1.797759	0.000012
C110	C	0.268436	1.743800	-0.039671
C111	C	0.333225	1.635856	-0.039672
C112	C	0.717129	1.635828	-0.264845
C113	C	0.717141	1.743757	-0.329636
C114	C	0.677464	1.797744	-0.401719
C115	C	0.637778	1.743786	-0.409011
C116	C	0.637771	1.635853	-0.344221
H117	H	0.399274	1.128532	-0.101800
H118	H	0.327275	1.591929	-0.071981
H119	H	0.677475	1.885631	-0.454469
H120	H	0.222980	1.885654	0.000019
H121	H	1.001151	0.469374	-0.071999
H122	H	0.327296	1.591887	-0.206164
H123	H	-0.044386	1.128535	-0.101792
H124	H	0.209739	1.787722	-0.323692
O125	O	0.205786	1.914228	-0.471606
H126	H	0.205824	2.012587	-0.505815
H127	H	0.281731	1.128517	-0.101792
O128	O	0.595005	1.802024	-0.486769
H129	H	0.617945	1.711426	-0.493368
H130	H	1.131936	0.371422	-0.000020
H131	H	0.209737	1.787773	-0.071975
O132	O	1.164228	0.455017	0.082479
H133	H	1.208048	0.370892	0.075808
H134	H	0.749460	0.665126	0.350174
H135	H	0.353666	1.787806	-0.467713
H136	H	0.073169	1.128533	-0.101793
O137	O	0.759936	1.577594	-0.187102
H138	H	0.787538	1.633237	-0.192928
H139	H	0.281747	1.128481	0.101828
O140	O	0.677500	0.342839	0.471676
H141	H	0.652687	0.384261	0.505896
O142	O	0.759943	1.801947	-0.321764
H143	H	0.787518	1.746284	-0.260754
H144	H	0.749470	0.469335	0.467727
O145	O	0.594956	1.577688	-0.352091
H146	H	0.567363	1.633383	-0.413101
O147	O	1.029566	0.679348	0.082506
H148	H	1.001950	0.658617	0.126362
O149	O	-0.052926	1.128474	0.116668
H150	H	-0.019502	1.128436	0.155700
H151	H	0.073187	1.128492	0.101833
H152	H	0.605486	0.469274	0.323790
H153	H	0.399301	1.128481	0.101829
O154	O	0.759926	0.853750	-0.187108
H155	H	0.787513	0.761823	-0.192927
H156	H	0.749465	0.888649	-0.532267
O157	O	0.594965	1.403304	-0.352073
H158	H	0.567381	1.495222	-0.413081
H159	H	0.471243	1.591946	-0.350170
H160	H	0.605473	1.368328	-0.793804
O161	O	0.595107	0.679159	0.187162
H162	H	0.567570	0.623401	0.193003
H163	H	0.605462	1.368359	-0.467698
H164	H	1.027619	0.665132	0.206196
H165	H	0.749463	0.888642	-0.649810
O166	O	0.594983	1.403271	-0.678168
H167	H	0.567397	1.495194	-0.739174
O168	O	1.164229	0.455062	0.321805
H169	H	1.158386	0.510719	0.260795
H170	H	0.749451	0.888683	-0.323719
H171	H	1.132005	0.371391	0.454509
H172	H	1.001252	0.469262	0.467746
O173	O	0.864571	0.679443	-0.082470
H174	H	0.870396	0.623802	-0.110073
O175	O	0.864620	0.679320	0.352125
H176	H	0.870464	0.623621	0.413135
H177	H	0.471290	1.591869	0.072008
O178	O	0.355686	1.801941	0.082503
H179	H	0.416695	1.746235	0.110104
