data_functionalizedCrystal
_audit_creation_method	'MofGen! by Chris Wilmer'
_symmetry_space_group_name_H-M	'P1'
_symmetry_Int_Tables_number	1
_symmetry_cell_setting	triclinic
loop_
_symmetry_equiv_pos_as_xyz
  x,y,z
_cell_length_a	14.853554
_cell_length_b	16.974800
_cell_length_c	16.053833
_cell_angle_alpha	96.540498
_cell_angle_beta	87.123115
_cell_angle_gamma	96.490566
loop_
_atom_site_label
_atom_site_type_symbol
_atom_site_fract_x
_atom_site_fract_y
_atom_site_fract_z
O1	O	-0.114914	1.049334	0.001500
O2	O	-0.128803	0.818472	-0.014106
O3	O	0.009369	0.940076	-0.005882
O4	O	-0.253085	0.927731	-0.006725
O5	O	0.002581	0.946049	0.133380
O6	O	-0.135590	0.824445	0.125155
O7	O	-0.121702	1.055307	0.140761
Zn8	Zn	-0.129724	0.940825	0.155069
Zn9	Zn	-0.120780	0.932955	-0.028414
O10	O	-0.259873	0.933704	0.132537
C11	C	-0.131544	0.791914	0.053527
C12	C	-0.129590	0.703880	0.047576
C13	C	-0.132369	0.665782	0.120694
C14	C	-0.130519	0.583066	0.115105
C15	C	-0.125895	0.538449	0.036397
C16	C	-0.123112	0.576553	-0.036726
C17	C	-0.124956	0.659268	-0.031136
C18	C	-0.119976	0.290718	0.011538
C19	C	-0.118135	0.207997	0.005954
C20	C	-0.125540	0.214517	0.157785
C21	C	-0.127389	0.297233	0.163368
C22	C	-0.124602	0.335330	0.090245
N23	N	-0.124006	0.453900	0.030682
N24	N	-0.126484	0.419878	0.095961
C25	C	-0.290068	0.931275	0.062943
C26	C	-0.390153	0.932945	0.063052
C27	C	-0.809636	0.936790	-0.012373
C28	C	-0.817022	0.943302	0.139455
C29	C	-0.722988	0.941723	0.139348
C30	C	-0.672274	0.937678	0.063379
C31	C	-0.715593	0.935213	-0.012483
C32	C	-0.679660	0.944196	0.215208
C33	C	-0.585620	0.942618	0.215104
C34	C	-0.534905	0.938567	0.139134
C35	C	-0.578230	0.936101	0.063269
C36	C	-0.527516	0.932057	-0.012700
C37	C	-0.570840	0.929584	-0.088566
C38	C	-0.664878	0.931162	-0.088453
C39	C	-0.440868	0.936990	0.139021
C40	C	-0.433473	0.930480	-0.012810
C41	C	0.039564	0.942505	0.063711
C42	C	0.139649	0.940834	0.063596
C43	C	-0.118960	1.081866	0.073126
C44	C	-0.120914	1.169900	0.079071
N45	N	-0.135827	0.946202	0.280292
N46	N	-0.114670	0.927584	-0.153637
C47	C	-0.167340	0.973853	0.805789
C48	C	-0.163065	0.970096	0.718129
C49	C	-0.106113	0.920073	0.671045
C50	C	-0.053441	0.873799	0.711625
C51	C	-0.057722	0.877553	0.799283
C52	C	-0.087436	0.903681	0.408530
C53	C	-0.083157	0.899933	0.320866
C54	C	-0.192782	0.996229	0.327376
C55	C	-0.197054	0.999981	0.415036
C56	C	-0.144386	0.953704	0.455608
N57	N	-0.101739	0.916234	0.581442
N58	N	-0.148765	0.957540	0.545209
H59	H	-0.117703	0.321727	-0.048004
C60	C	-0.029499	0.852773	0.453148
N61	N	0.014140	0.814426	0.486757
C62	C	-0.020507	0.844899	0.269075
N63	N	0.026679	0.803449	0.230066
H64	H	-0.131150	0.333555	0.227461
C65	C	-0.128596	0.172604	0.238215
N66	N	-0.130894	0.141036	0.298798
H67	H	-0.007074	0.833067	0.673282
C68	C	-0.515042	0.925137	-0.172129
N69	N	-0.473012	0.921785	-0.235067
C70	C	-0.735452	0.948639	0.298768
N71	N	-0.777480	0.951981	0.361708
C72	C	-0.229996	1.028879	0.857574
N73	N	-0.277194	1.070322	0.896575
C74	C	0.000221	0.826655	0.843914
N75	N	0.043864	0.788315	0.877529
C76	C	-0.118023	0.527471	-0.123306
N77	N	-0.114193	0.490503	-0.188519
H78	H	-0.136142	0.702103	0.184786
H79	H	-0.114372	0.171671	-0.058143
H80	H	-0.132767	0.552053	0.174645
C81	C	-0.121900	0.701174	-0.111572
N82	N	-0.119596	0.732737	-0.172158
H83	H	-0.392188	0.927180	-0.074674
H84	H	-0.205953	1.007774	0.685098
H85	H	-0.844916	0.934774	-0.074142
C86	C	-0.872811	0.947747	0.223016
N87	N	-0.914836	0.951092	0.285957
C88	C	-0.712540	0.928458	-0.171897
N89	N	-0.748441	0.926427	-0.234746
H90	H	-0.405597	0.939005	0.200790
C91	C	-0.537974	0.945327	0.298557
N92	N	-0.502086	0.947363	0.361414
H93	H	-0.243428	1.040716	0.453367
H94	H	-0.235663	1.033904	0.294333
