data_functionalizedCrystal
_audit_creation_method	'MofGen! by Chris Wilmer'
_symmetry_space_group_name_H-M	'P1'
_symmetry_Int_Tables_number	1
_symmetry_cell_setting	triclinic
loop_
_symmetry_equiv_pos_as_xyz
  x,y,z
_cell_length_a	9.065215
_cell_length_b	10.654559
_cell_length_c	8.140239
_cell_angle_alpha	89.999324
_cell_angle_beta	89.997810
_cell_angle_gamma	84.751754
loop_
_atom_site_label
_atom_site_type_symbol
_atom_site_fract_x
_atom_site_fract_y
_atom_site_fract_z
O1	O	1.959401	0.184139	-0.136583
O2	O	1.530034	0.199249	-0.136589
O3	O	1.754582	0.008995	-0.136587
O4	O	1.734853	0.374394	-0.136585
O5	O	1.754570	0.008992	0.136640
O6	O	1.530021	0.199246	0.136638
O7	O	1.959389	0.184137	0.136644
Zn8	Zn	1.744703	0.191691	0.180022
Zn9	Zn	1.744719	0.191694	-0.179967
O10	O	1.734840	0.374391	0.136642
C11	C	1.475049	0.197796	0.000023
C12	C	1.311229	0.193457	0.000020
C13	C	1.753124	-0.037810	0.000023
C14	C	1.748781	-0.177270	0.000012
C15	C	1.608419	-0.360395	0.000024
C16	C	1.612488	-0.229357	0.000009
C17	C	1.881014	-0.256229	0.000012
C18	C	1.876943	-0.387265	0.000015
C19	C	1.456758	-0.034137	-0.095725
C20	C	1.324529	0.044817	-0.095702
C21	C	1.204663	0.014152	0.000039
C22	C	1.217021	-0.095464	0.095797
C23	C	1.349253	-0.174412	0.095789
C24	C	1.469113	-0.143748	0.000010
C25	C	2.032664	-0.582486	0.095763
C26	C	2.164897	-0.661437	0.095766
C27	C	2.284775	-0.630776	0.000035
C28	C	2.272431	-0.521156	-0.095699
C29	C	2.140198	-0.442206	-0.095702
C30	C	2.020319	-0.472876	0.000026
C31	C	2.014374	0.185589	0.000028
C32	C	2.178193	0.189929	0.000020
C33	C	1.736298	0.421196	0.000028
C34	C	1.740641	0.560656	0.000029
N35	N	1.744703	0.191689	0.425704
N36	N	1.744731	0.191687	-0.425649
H37	H	1.359314	-0.263661	0.173751
H38	H	2.370048	-0.496188	-0.173645
C39	C	2.126571	-0.321628	-0.201023
C40	C	2.007459	-0.304160	-0.336015
C41	C	1.993812	-0.183586	-0.441335
C42	C	2.099277	-0.080480	-0.411664
C43	C	2.218398	-0.097944	-0.276666
C44	C	2.232045	-0.218518	-0.171346
H45	H	1.929379	-0.380489	-0.357984
H46	H	1.905630	-0.170659	-0.541270
H47	H	2.089175	0.008776	-0.489629
H48	H	2.296478	-0.021616	-0.254697
H49	H	2.320227	-0.231446	-0.071411
C50	C	1.310944	0.165408	-0.200999
C51	C	1.442794	0.199150	-0.306319
C52	C	1.429213	0.319753	-0.411583
C53	C	1.283782	0.406615	-0.411528
C54	C	1.151921	0.372876	-0.306204
C55	C	1.165502	0.252273	-0.200940
H56	H	1.550460	0.134847	-0.306364
H57	H	1.526825	0.344728	-0.489551
H58	H	1.273728	0.495893	-0.489451
H59	H	1.044255	0.437179	-0.306160
H60	H	1.067890	0.227297	-0.122973
H61	H	2.392449	-0.695065	0.000058
H62	H	2.174938	-0.750697	0.173719
H63	H	1.097000	0.078447	0.000057
H64	H	1.497433	-0.402793	0.000041
H65	H	1.554338	-0.009180	-0.173734
H66	H	1.119416	-0.120413	0.173772
H67	H	1.991986	-0.213810	0.000017
H68	H	1.935051	-0.607465	0.173716
