data_functionalizedCrystal
_audit_creation_method	'MofGen! by Chris Wilmer'
_symmetry_space_group_name_H-M	'P1'
_symmetry_Int_Tables_number	1
_symmetry_cell_setting	triclinic
loop_
_symmetry_equiv_pos_as_xyz
  x,y,z
_cell_length_a	25.639239
_cell_length_b	16.959455
_cell_length_c	16.959447
_cell_angle_alpha	90.014322
_cell_angle_beta	89.966924
_cell_angle_gamma	89.964367
loop_
_atom_site_label
_atom_site_type_symbol
_atom_site_fract_x
_atom_site_fract_y
_atom_site_fract_z
Zn1	Zn	-0.208183	-1.208282	-0.446894
Zn2	Zn	0.291817	-0.708282	0.053106
Zn3	Zn	-0.295624	-1.208161	-0.314709
Zn4	Zn	0.204376	-0.708161	0.185291
Zn5	Zn	-0.208199	-1.076110	-0.314731
Zn6	Zn	0.291801	-0.576110	0.185269
Zn7	Zn	-0.295585	-1.076032	-0.446847
Zn8	Zn	0.204415	-0.576032	0.053153
O9	O	-0.251898	-1.142146	-0.380795
O10	O	0.248102	-0.642146	0.119205
O11	O	-0.219792	-1.318876	-0.429369
O12	O	0.280208	-0.818876	0.070631
O13	O	-0.284050	-1.190627	-0.204101
O14	O	0.215950	-0.690627	0.295899
O15	O	-0.135032	-1.093726	-0.332291
O16	O	0.364968	-0.593726	0.167709
O17	O	-0.284034	-1.318788	-0.332253
O18	O	0.215966	-0.818788	0.167747
O19	O	-0.135020	-1.190832	-0.429391
O20	O	0.364980	-0.690832	0.070609
O21	O	-0.219820	-1.093609	-0.204117
O22	O	0.280180	-0.593609	0.295883
O23	O	-0.219782	-0.965489	-0.332247
O24	O	0.280218	-0.465489	0.167753
O25	O	-0.283967	-1.093593	-0.557464
O26	O	0.216033	-0.593593	-0.057464
O27	O	-0.283983	-0.965431	-0.429312
O28	O	0.216017	-0.465431	0.070688
O29	O	-0.219754	-1.190756	-0.557498
O30	O	0.280246	-0.690756	-0.057498
O31	O	-0.368784	-1.190551	-0.332208
O32	O	0.131216	-0.690551	0.167792
O33	O	-0.368755	-1.093476	-0.429290
O34	O	0.131245	-0.593476	0.070710
C35	C	-0.251880	-0.936780	-0.380777
C36	C	0.248120	-0.436780	0.119223
C37	C	-0.251886	-0.848923	-0.380788
C38	C	0.248114	-0.348923	0.119212
C39	C	-0.387740	-1.142013	-0.380759
C40	C	0.112260	-0.642013	0.119241
C41	C	-0.445854	-1.142029	-0.380770
C42	C	0.054146	-0.642029	0.119230
C43	C	-0.251854	-1.142179	-0.586963
C44	C	0.248146	-0.642179	-0.086963
C45	C	-0.251836	-1.142193	-0.674820
C46	C	0.248164	-0.642193	-0.174820
C47	C	-0.806220	-1.192825	-0.330331
C48	C	-0.306220	-0.692825	0.169669
C49	C	-0.860824	-1.192855	-0.330341
C50	C	-0.360824	-0.692855	0.169659
O51	O	-0.889063	-1.235906	-0.287417
O52	O	-0.389063	-0.735906	0.212583
N53	N	-0.888137	-1.142285	-0.380847
N54	N	-0.388137	-0.642285	0.119153
C55	C	-0.860842	-1.091686	-0.431352
C56	C	-0.360842	-0.591686	0.068648
O57	O	-0.889088	-1.048675	-0.474313
O58	O	-0.389088	-0.548675	0.025687
C59	C	-0.806239	-1.091660	-0.431345
C60	C	-0.306239	-0.591660	0.068655
C61	C	-0.778929	-1.142228	-0.380830
C62	C	-0.278929	-0.642228	0.119170
C63	C	-0.778910	-1.243389	-0.279820
C64	C	-0.278910	-0.743389	0.220180
C65	C	-0.724309	-1.243358	-0.279809
C66	C	-0.224309	-0.743358	0.220191
C67	C	-0.697019	-1.192761	-0.330308
C68	C	-0.197019	-0.692761	0.169692
C69	C	-0.724329	-1.142196	-0.380818
C70	C	-0.224329	-0.642196	0.119182
C71	C	-0.778946	-1.041066	-0.481853
C72	C	-0.278946	-0.541066	0.018147
C73	C	-0.724339	-1.041045	-0.481842
C74	C	-0.224339	-0.541045	0.018158
C75	C	-0.697029	-1.091613	-0.431326
C76	C	-0.197029	-0.591613	0.068674
C77	C	-0.642437	-1.091568	-0.431306
C78	C	-0.142437	-0.591568	0.068694
N79	N	-0.615125	-1.142139	-0.380800
N80	N	-0.115125	-0.642139	0.119200
C81	C	-0.642415	-1.192735	-0.330301
C82	C	-0.142415	-0.692735	0.169699
C83	C	-0.975513	-1.091746	-0.431364
C84	C	-0.475513	-0.591746	0.068636
C85	C	-1.030115	-1.091767	-0.431368
C86	C	-0.530115	-0.591767	0.068632
C87	C	-1.030093	-1.192938	-0.330358
C88	C	-0.530093	-0.692938	0.169642
C89	C	-0.975490	-1.192912	-0.330351
C90	C	-0.475490	-0.692912	0.169649
C91	C	-0.948200	-1.142316	-0.380858
C92	C	-0.448200	-0.642316	0.119142
C93	C	-0.527750	-1.192664	-0.330280
C94	C	-0.027750	-0.692664	0.169720
C95	C	-0.473145	-1.192625	-0.330271
C96	C	0.026855	-0.692625	0.169729
C97	C	-0.473172	-1.091458	-0.431283
C98	C	0.026828	-0.591458	0.068717
C99	C	-0.527772	-1.091493	-0.431290
C100	C	-0.027772	-0.591493	0.068710
C101	C	-0.555060	-1.142103	-0.380786
C102	C	-0.055060	-0.642103	0.119214
O103	O	-0.614164	-1.048541	-0.474211
O104	O	-0.114164	-0.548541	0.025789
O105	O	-0.614163	-1.235746	-0.287355
O106	O	-0.114163	-0.735746	0.212645
C107	C	-0.115525	-1.142301	-0.380849
C108	C	0.384475	-0.642301	0.119151
C109	C	-0.057411	-1.142367	-0.380872
C110	C	0.442589	-0.642367	0.119128
C111	C	-0.251915	-1.348314	-0.380814
C112	C	0.248085	-0.848314	0.119186
C113	C	-0.251923	-1.436171	-0.380822
C114	C	0.248077	-0.936171	0.119178
C115	C	-0.218441	-0.477453	-0.330359
C116	C	0.281559	0.022547	0.169641
C117	C	-0.285398	-0.477442	-0.431277
C118	C	0.214602	0.022558	0.068723
C119	C	-0.285390	-0.559988	-0.431272
C120	C	0.214610	-0.059988	0.068728
C121	C	-0.251908	-0.601270	-0.380809
C122	C	0.248092	-0.101270	0.119191
C123	C	-0.218433	-0.560007	-0.330351
C124	C	0.281567	-0.060007	0.169649
C125	C	-0.318868	-0.601258	-0.481723
C126	C	0.181132	-0.101258	0.018277
C127	C	-0.318863	-0.683809	-0.481720
C128	C	0.181137	-0.183809	0.018280
C129	C	-0.285377	-0.725092	-0.431260
C130	C	0.214623	-0.225092	0.068740
C131	C	-0.251901	-0.683824	-0.380801
C132	C	0.248099	-0.183824	0.119199
C133	C	-0.218418	-0.725106	-0.330338
C134	C	0.281582	-0.225106	0.169662
C135	C	-0.184939	-0.683839	-0.279882
C136	C	0.315061	-0.183839	0.220118
C137	C	-0.184948	-0.601290	-0.279891
C138	C	0.315052	-0.101290	0.220109
C139	C	-0.285368	-0.807641	-0.431251
C140	C	0.214632	-0.307641	0.068749
C141	C	-0.218411	-0.807660	-0.330330
C142	C	0.281589	-0.307660	0.169670
C143	C	-0.285214	-1.091699	-1.046281
C144	C	0.214786	-0.591699	-0.546281
C145	C	-0.218348	-1.192876	-1.046311
C146	C	0.281652	-0.692876	-0.546311
C147	C	-0.218359	-1.192855	-0.963765
C148	C	0.281641	-0.692855	-0.463765
C149	C	-0.251799	-1.142256	-0.922473
C150	C	0.248201	-0.642256	-0.422473
C151	C	-0.285227	-1.091678	-0.963727
C152	C	0.214773	-0.591678	-0.463727
C153	C	-0.184935	-1.243438	-0.922505
C154	C	0.315065	-0.743438	-0.422505
C155	C	-0.184945	-1.243419	-0.839954
C156	C	0.315055	-0.743419	-0.339954
C157	C	-0.218382	-1.192816	-0.798661
C158	C	0.281618	-0.692816	-0.298661
C159	C	-0.251812	-1.142235	-0.839920
C160	C	0.248188	-0.642235	-0.339920
C161	C	-0.285251	-1.091636	-0.798628
C162	C	0.214749	-0.591636	-0.298628
C163	C	-0.318679	-1.041051	-0.839885
C164	C	0.181321	-0.541051	-0.339885
C165	C	-0.318665	-1.041074	-0.922433
C166	C	0.181335	-0.541074	-0.422433
C167	C	-0.218396	-1.192792	-0.716112
C168	C	0.281604	-0.692792	-0.216112
C169	C	-0.285265	-1.091615	-0.716074
C170	C	0.214735	-0.591615	-0.216074
C171	C	-0.251903	-1.142159	-0.175429
C172	C	0.248097	-0.642159	0.324571
C173	C	-0.251774	-1.142298	-0.087573
C174	C	0.248226	-0.642298	0.412427
H175	H	-0.450911	-1.233804	-0.289133
H176	H	0.049089	-0.733804	0.210867
H177	H	-0.191181	-0.443850	-0.289281
H178	H	0.308819	0.056150	0.210719
O179	O	-0.443733	-1.036890	-0.485753
O180	O	0.056267	-0.536890	0.014247
H181	H	-0.401176	-1.045377	-0.477261
H182	H	0.098824	-0.545377	0.022739
O183	O	-0.148893	-1.297977	-0.795460
O184	O	0.351107	-0.797977	-0.295460
H185	H	-0.122296	-1.262621	-0.757862
H186	H	0.377704	-0.762621	-0.257862
H187	H	-1.052323	-1.234139	-0.289242
H188	H	-0.552323	-0.734139	0.210758
O189	O	-0.148859	-1.297980	-0.967056
O190	O	0.351141	-0.797980	-0.467056
H191	H	-0.172248	-1.338169	-1.004676
H192	H	0.327752	-0.838169	-0.504676
O193	O	-0.182348	-1.247343	-0.671610
O194	O	0.317652	-0.747343	-0.171610
H195	H	-0.159093	-1.282530	-0.714191
H196	H	0.340907	-0.782530	-0.214191
O197	O	-1.059569	-1.037213	-0.485839
O198	O	-0.559569	-0.537213	0.014161
H199	H	-1.084408	-1.072572	-0.526091
H200	H	-0.584408	-0.572572	-0.026091
O201	O	-0.557225	-1.036940	-0.485767
O202	O	-0.057225	-0.536940	0.014233
H203	H	-0.582143	-0.996758	-0.450357
H204	H	-0.082143	-0.496758	0.049643
H205	H	-0.549962	-1.233876	-0.289157
H206	H	-0.049962	-0.733876	0.210843
O207	O	-0.694856	-1.297911	-0.225337
O208	O	-0.194856	-0.797911	0.274663
H209	H	-0.723014	-1.333101	-0.190236
H210	H	-0.223014	-0.833101	0.309764
H211	H	-0.702122	-0.999845	-0.522973
H212	H	-0.202122	-0.499845	-0.022973
H213	H	-0.953296	-1.050538	-0.472491
H214	H	-0.453296	-0.550538	0.027509
O215	O	-0.182304	-0.852186	-0.275892
O216	O	0.317696	-0.352186	0.224108
H217	H	-0.159031	-0.809620	-0.240805
H218	H	0.340969	-0.309620	0.259195
H219	H	-0.191126	-1.234076	-1.079936
H220	H	0.308874	-0.734076	-0.579936
H221	H	-0.346132	-0.567640	-0.522802
H222	H	0.153868	-0.067640	-0.022802
H223	H	-0.801124	-1.284596	-0.238698
H224	H	-0.301124	-0.784596	0.261302
H225	H	-0.345907	-0.999857	-0.806254
H226	H	0.154093	-0.499857	-0.306254
O227	O	-0.148827	-0.728363	-0.225448
O228	O	0.351173	-0.228363	0.274552
H229	H	-0.122251	-0.766004	-0.260894
H230	H	0.377749	-0.266004	0.239106
H231	H	-0.312661	-0.443825	-0.472356
H232	H	0.187339	0.056175	0.027644
H233	H	-0.346123	-0.717401	-0.522805
H234	H	0.153877	-0.217401	-0.022805
O235	O	-0.946033	-1.247463	-0.275882
O236	O	-0.446033	-0.747463	0.224118
H237	H	-0.956549	-1.233962	-0.213832
H238	H	-0.456549	-0.733962	0.286168
O239	O	-0.808394	-0.986529	-0.536342
O240	O	-0.308394	-0.486529	-0.036342
H241	H	-0.780235	-0.951356	-0.571458
H242	H	-0.280235	-0.451356	-0.071458
O243	O	-0.148858	-0.556784	-0.225445
O244	O	0.351142	-0.056784	0.274555
H245	H	-0.154500	-0.492448	-0.233914
H246	H	0.345500	0.007552	0.266086
O247	O	-0.321320	-1.037022	-0.671537
O248	O	0.178680	-0.537022	-0.171537
H249	H	-0.344558	-1.001851	-0.714096
H250	H	0.155442	-0.501851	-0.214096
H251	H	-0.312628	-0.841237	-0.472329
H252	H	0.187372	-0.341237	0.027671
O253	O	-0.354716	-0.986517	-0.966929
O254	O	0.145284	-0.486517	-0.466929
H255	H	-0.349091	-0.995039	-1.031267
H256	H	0.150909	-0.495039	-0.531267
H257	H	-0.312428	-1.050511	-1.079876
H258	H	0.187572	-0.550511	-0.579876
