data_functionalizedCrystal
_audit_creation_method	'MofGen! by Chris Wilmer'
_symmetry_space_group_name_H-M	'P1'
_symmetry_Int_Tables_number	1
_symmetry_cell_setting	triclinic
loop_
_symmetry_equiv_pos_as_xyz
  x,y,z
_cell_length_a	6.817900
_cell_length_b	10.992469
_cell_length_c	10.992410
_cell_angle_alpha	91.830594
_cell_angle_beta	108.764651
_cell_angle_gamma	108.765624
loop_
_atom_site_label
_atom_site_type_symbol
_atom_site_fract_x
_atom_site_fract_y
_atom_site_fract_z
V1	V	-4.114252	-0.177761	-0.400575
O2	O	-4.072376	0.008542	-0.392968
O3	O	-4.091835	-0.352470	-0.397817
O4	O	-4.091844	-0.175026	-0.575288
O5	O	-4.072367	-0.170130	-0.214269
V6	V	-4.591146	-0.155477	-0.378293
O7	O	-4.390054	-0.226642	-0.449451
O8	O	-4.765541	-0.106595	-0.329417
O9	O	-4.390356	0.019232	-0.381051
O10	O	-4.750419	-0.341780	-0.385900
O11	O	-4.750428	-0.163108	-0.564599
O12	O	-4.390347	-0.158211	-0.203581
C13	C	-3.942316	-0.395060	-0.391493
C14	C	-4.005448	-0.537887	-0.390403
C15	C	-3.807069	-0.584385	-0.382247
C16	C	-3.872923	-0.733022	-0.381616
C17	C	-4.270158	-0.764535	-0.515760
C18	C	-4.203032	-0.615889	-0.516930
C19	C	-4.079366	-0.577587	-0.271579
C20	C	-4.140104	-0.725808	-0.268700
C21	C	-3.942326	-0.168712	-0.617873
C22	C	-4.005461	-0.167632	-0.760701
C23	C	-3.872583	-0.157796	-0.955826
C24	C	-3.807033	-0.159451	-0.807342
C25	C	-4.203480	-0.294312	-0.837792
C26	C	-4.267793	-0.293192	-0.986359
C27	C	-4.145553	-0.047893	-0.948352
C28	C	-4.074844	-0.047293	-0.799339
C29	C	-4.203218	0.061816	-0.387371
C30	C	-4.119326	0.204641	-0.388470
C31	C	-4.203207	-0.164530	-0.160989
C32	C	-4.119310	-0.165603	-0.018159
H33	H	-4.353047	-0.586514	-0.528115
N34	N	-4.274959	-0.538419	-0.277908
H35	H	-4.235393	-0.475698	-0.197340
H36	H	-4.404891	-0.618196	-0.283364
H37	H	-4.252233	-0.382320	-1.032620
H38	H	-4.157720	-0.383659	-0.812178
H39	H	-4.042637	0.048305	-0.968721
N40	N	-4.253917	-0.829217	-0.633609
H41	H	-4.303727	-0.926383	-0.634495
H42	H	-4.095551	-0.795701	-0.630188
H43	H	-3.847754	-0.779329	-0.467026
H44	H	-3.942891	-0.523031	-0.176097
N45	N	-3.731033	-0.549079	-0.495315
H46	H	-3.824529	-0.503093	-0.551796
H47	H	-3.746706	-0.630738	-0.548192
H48	H	-3.931588	0.046420	-0.746991
N49	N	-4.508868	-0.307780	-1.042832
H50	H	-4.592177	-0.388771	-1.109729
H51	H	-4.522822	-0.229374	-1.085334
H52	H	-4.216957	-0.045805	-0.766828
N53	N	-4.142569	-0.585362	-0.635943
H54	H	-4.159683	-0.668401	-0.687152
H55	H	-3.984128	-0.524172	-0.608345
N56	N	-3.991110	-0.749884	-0.144053
H57	H	-3.910487	-0.805614	-0.165065
H58	H	-4.083141	-0.795974	-0.092158
H59	H	-4.314806	-0.767458	-0.266277
H60	H	-3.657894	-0.531792	-0.291257
H61	H	-3.658576	-0.068362	-0.754011
H62	H	-4.451611	-0.806311	-0.525421
H63	H	-3.755378	-0.066081	-0.974664
N64	N	-3.839531	-0.269824	-1.019369
H65	H	-3.983684	-0.325610	-1.088358
H66	H	-3.788788	-0.323744	-0.951618
H67	H	-3.749855	-0.245201	-0.782519
N68	N	-4.382620	-0.053965	-1.002444
H69	H	-4.482626	-0.137965	-0.987618
H70	H	-4.425395	-0.049845	-1.098716
H71	H	-3.756357	-0.752659	-0.290140
H72	H	-4.353856	-0.304874	-0.808988
