data_functionalizedCrystal
_audit_creation_method	'MofGen! by Chris Wilmer'
_symmetry_space_group_name_H-M	'P1'
_symmetry_Int_Tables_number	1
_symmetry_cell_setting	triclinic
loop_
_symmetry_equiv_pos_as_xyz
  x,y,z
_cell_length_a	14.971482
_cell_length_b	19.188930
_cell_length_c	17.666332
_cell_angle_alpha	89.990320
_cell_angle_beta	89.994730
_cell_angle_gamma	83.378695
loop_
_atom_site_label
_atom_site_type_symbol
_atom_site_fract_x
_atom_site_fract_y
_atom_site_fract_z
O1	O	1.186468	0.090974	-0.062947
O2	O	0.926010	0.101872	-0.062952
O3	O	1.063755	-0.005209	-0.062935
O4	O	1.048723	0.198055	-0.062965
O5	O	1.063740	-0.005211	0.062962
O6	O	0.925994	0.101870	0.062945
O7	O	1.186453	0.090971	0.062949
Cu8	Cu	1.056222	0.096420	0.074442
Cu9	Cu	1.056240	0.096423	-0.074445
O10	O	1.048707	0.198052	0.062932
C11	C	0.892680	0.101384	-0.000004
C12	C	0.793390	0.099925	-0.000005
C13	C	0.746741	0.099236	0.068622
C14	C	0.653450	0.097854	0.068623
C15	C	0.606809	0.097165	-0.000004
C16	C	0.653465	0.097852	-0.068637
C17	C	0.746755	0.099229	-0.068637
C18	C	0.459018	0.094983	-0.068631
C19	C	0.365721	0.093607	-0.068631
C20	C	0.365713	0.093608	0.068629
C21	C	0.459003	0.094985	0.068628
C22	C	0.505653	0.095673	-0.000005
C23	C	1.063261	-0.031222	0.000016
C24	C	1.061799	-0.108732	0.000022
C25	C	1.142624	-0.153396	0.000027
C26	C	1.141251	-0.226224	0.000015
C27	C	1.059049	-0.254385	0.000013
C28	C	0.978214	-0.209710	0.000004
C29	C	0.979589	-0.136884	0.000008
N30	N	0.996210	-0.362592	0.042857
N31	N	0.994909	-0.431775	0.042854
C32	C	1.054901	-0.473807	-0.000002
N33	N	1.116256	-0.444043	-0.042847
N34	N	1.117559	-0.374855	-0.042840
C35	C	1.057549	-0.333352	0.000008
C36	C	1.134242	-0.597441	-0.000011
C37	C	1.132866	-0.670270	-0.000028
C38	C	0.969826	-0.653754	-0.000032
C39	C	0.971205	-0.580926	-0.000023
C40	C	1.053415	-0.552774	-0.000009
C41	C	1.219782	0.091459	-0.000000
C42	C	1.319072	0.092919	-0.000004
C43	C	1.049202	0.224066	-0.000020
C44	C	1.050663	0.301575	-0.000032
N45	N	1.056216	0.096418	0.179162
N46	N	1.056254	0.096420	-0.179165
C47	C	1.117249	0.049018	0.781220
C48	C	1.117250	0.049020	0.701972
C49	C	1.056241	0.096417	0.662343
C50	C	0.995241	0.143828	0.701969
C51	C	0.995248	0.143830	0.781215
N52	N	0.977055	0.105211	0.537929
N53	N	0.977052	0.105205	0.462648
C54	C	1.056220	0.096416	0.423579
N55	N	1.135394	0.087618	0.462635
N56	N	1.135396	0.087620	0.537922
C57	C	1.056228	0.096421	0.576414
C58	C	1.117222	0.049012	0.298034
C59	C	1.117225	0.049019	0.218785
C60	C	0.995208	0.143824	0.218783
C61	C	0.995213	0.143821	0.298031
C62	C	1.056219	0.096411	0.337652
H63	H	0.496998	0.095544	-0.124519
H64	H	0.913770	-0.100517	0.000004
H65	H	0.784708	0.099803	0.124506
H66	H	0.945537	0.182419	0.186518
H67	H	0.902896	-0.676681	-0.000037
H68	H	0.615474	0.097281	0.124506
H69	H	0.615484	0.097287	-0.124514
H70	H	1.166899	0.010420	0.186529
H71	H	1.201183	-0.574518	-0.000004
H72	H	1.207070	-0.262597	0.000016
H73	H	0.945568	0.182421	0.669699
H74	H	0.327749	0.093047	-0.124513
H75	H	1.198686	-0.706636	-0.000028
H76	H	0.911284	-0.232643	0.000000
H77	H	0.945541	0.182418	0.330288
H78	H	0.905389	-0.544559	-0.000023
H79	H	0.784736	0.099791	-0.124520
H80	H	1.166926	0.010416	0.813476
H81	H	0.496975	0.095550	0.124510
H82	H	0.945577	0.182432	0.813471
H83	H	1.209566	-0.130480	0.000036
H84	H	1.166922	0.010418	0.669711
H85	H	1.166900	0.010411	0.330294
H86	H	0.327726	0.093048	0.124512
