data_functionalizedCrystal
_audit_creation_method	'MofGen! by Chris Wilmer'
_symmetry_space_group_name_H-M	'P1'
_symmetry_Int_Tables_number	1
_symmetry_cell_setting	triclinic
loop_
_symmetry_equiv_pos_as_xyz
  x,y,z
_cell_length_a	11.792241
_cell_length_b	15.538191
_cell_length_c	14.185569
_cell_angle_alpha	82.124202
_cell_angle_beta	76.753184
_cell_angle_gamma	114.267245
loop_
_atom_site_label
_atom_site_type_symbol
_atom_site_fract_x
_atom_site_fract_y
_atom_site_fract_z
O1	O	-0.333383	-1.226838	-0.083428
O2	O	-0.202607	-0.953247	-0.083428
O3	O	-0.435953	-1.096684	-0.083421
O4	O	-0.100037	-1.083402	-0.083435
O5	O	-0.504880	-1.139056	0.083416
O6	O	-0.271534	-0.995620	0.083409
O7	O	-0.402310	-1.269211	0.083409
Cu8	Cu	-0.343215	-1.136284	0.098642
Cu9	Cu	-0.261702	-1.086174	-0.098662
O10	O	-0.168964	-1.125774	0.083402
C11	C	-0.512357	-1.117036	-0.000003
C12	C	-0.637324	-1.114539	-0.000004
C13	C	-0.223388	-0.939408	-0.000010
C14	C	-0.182633	-0.835042	-0.000009
C15	C	-0.381528	-1.283050	-0.000012
C16	C	-0.422281	-1.387413	-0.000019
C17	C	-0.866104	-1.109944	-0.000021
C18	C	-0.738792	-1.112497	-0.000012
C19	C	-0.092559	-1.105422	-0.000019
C20	C	0.032410	-1.107917	-0.000024
N21	N	-0.400551	-1.171536	0.237415
C22	C	-0.587531	-0.545184	-0.000008
C23	C	-0.549205	-0.447114	-0.000010
C24	C	-0.333634	-0.425769	-0.000019
C25	C	-0.371943	-0.523842	-0.000012
C26	C	-0.498893	-0.583541	-0.000008
C27	C	-0.283305	-0.562199	-0.000011
C28	C	-0.321610	-0.660261	-0.000010
C29	C	-0.448553	-0.719966	-0.000008
C30	C	-0.537198	-0.681604	-0.000006
C31	C	-0.156353	-0.502495	-0.000023
C32	C	-0.067715	-0.540852	-0.000023
C33	C	-0.106023	-0.638918	-0.000013
C34	C	-0.232966	-0.698623	-0.000012
C35	C	-0.017378	-0.677280	-0.000016
C36	C	-0.055683	-0.775343	-0.000014
C37	C	-0.271271	-0.796685	-0.000010
N38	N	-0.204378	-1.050930	-0.237434
C39	C	-0.035974	-0.947360	0.605054
C40	C	-0.079400	-0.974069	0.710077
C41	C	-0.285981	-1.101108	0.710044
C42	C	-0.242574	-1.074406	0.605019
C43	C	-0.117569	-0.997532	0.552532
C44	C	-0.324170	-1.124579	0.552497
C45	C	-0.280763	-1.097882	0.447481
C46	C	-0.155762	-1.021013	0.394987
C47	C	-0.074163	-0.970836	0.447516
C48	C	-0.449171	-1.201457	0.604986
C49	C	-0.530766	-1.251630	0.552464
C50	C	-0.487364	-1.224929	0.447447
C51	C	-0.362362	-1.148060	0.394952
C52	C	-0.568963	-1.275107	0.394918
C53	C	-0.525557	-1.248410	0.289902
C54	C	-0.318956	-1.121363	0.289937
H55	H	-0.479734	-0.799811	-0.000020
H56	H	-0.230269	-0.377148	-0.000027
C57	C	-0.646717	-0.404919	-0.000002
C58	C	-0.776701	-0.449206	0.086638
C59	C	-0.874206	-0.407009	0.086646
C60	C	-0.841728	-0.320525	0.000015
C61	C	-0.711738	-0.276234	-0.086632
C62	C	-0.614232	-0.318431	-0.086640
H63	H	-0.800749	-0.513230	0.150774
H64	H	-0.970434	-0.439797	0.150788
H65	H	-0.913907	-0.289289	0.000021
H66	H	-0.687690	-0.212209	-0.150767
H67	H	-0.518005	-0.285643	-0.150781
C68	C	-0.108009	-0.991642	0.279468
C69	C	-0.184052	-0.957255	0.221713
C70	C	-0.136300	-0.927884	0.106195
C71	C	-0.012506	-0.932901	0.048431
C72	C	0.063545	-0.967289	0.106187
C73	C	0.015793	-0.996660	0.221705
H74	H	-0.275699	-0.953541	0.264473
H75	H	-0.192599	-0.902428	0.063441
H76	H	0.022843	-0.911158	-0.037082
H77	H	0.155191	-0.971004	0.063427
H78	H	0.072091	-1.022117	0.264459
C79	C	-0.410921	-0.862364	-0.000001
C80	C	-0.431109	-0.910714	-0.086632
C81	C	-0.570752	-0.976390	-0.086624
C82	C	-0.690205	-0.993717	0.000015
C83	C	-0.670020	-0.945366	0.086652
C84	C	-0.530378	-0.879689	0.086645
H85	H	-0.342679	-0.897889	-0.150773
H86	H	-0.585693	-1.012183	-0.150759
H87	H	-0.793577	-1.042334	0.000021
H88	H	-0.758451	-0.958191	0.150793
H89	H	-0.515437	-0.843896	0.150780
H90	H	0.027624	-0.908230	0.404780
C91	C	0.010366	-0.918868	0.767848
C92	C	0.052051	-0.974384	0.840032
C93	C	0.141818	-0.919186	0.897801
C94	C	0.189899	-0.808473	0.883387
C95	C	0.148215	-0.752951	0.811200
C96	C	0.058448	-0.808148	0.753431
H97	H	0.016458	-1.056346	0.850705
H98	H	0.172675	-0.960288	0.951239
H99	H	0.256350	-0.767612	0.926152
H100	H	0.183808	-0.670989	0.800527
H101	H	0.027591	-0.767047	0.699993
H102	H	-0.640576	-0.730217	0.000004
C103	C	-0.668270	-1.336187	0.610202
C104	C	-0.769627	-1.317372	0.682407
C105	C	-0.907135	-1.401928	0.740141
C106	C	-0.943287	-1.505300	0.725671
C107	C	-0.841927	-1.524120	0.653464
C108	C	-0.704419	-1.439563	0.595729
H109	H	-0.742868	-1.240846	0.693122
H110	H	-0.982168	-1.387996	0.793594
H111	H	-1.045078	-1.567893	0.768410
H112	H	-0.868686	-1.600646	0.642749
H113	H	-0.629387	-1.453496	0.542276
H114	H	-0.387760	-1.163702	0.752791
H115	H	0.065813	-0.884754	0.562317
H116	H	-0.484505	-1.223194	0.690497
H117	H	-0.125168	-0.422646	-0.000028
H118	H	-0.670739	-1.337705	0.437666
H119	H	-0.592000	-1.289267	0.247138
H120	H	-0.690909	-0.593797	0.000001
H121	H	0.035649	-0.492231	-0.000030
H122	H	0.085989	-0.628656	-0.000029
H123	H	0.016492	-0.806575	-0.000004
H124	H	-0.217170	-1.058758	0.247200
