data_functionalizedCrystal
_audit_creation_method	'MofGen! by Chris Wilmer'
_symmetry_space_group_name_H-M	'P1'
_symmetry_Int_Tables_number	1
_symmetry_cell_setting	triclinic
loop_
_symmetry_equiv_pos_as_xyz
  x,y,z
_cell_length_a	19.077105
_cell_length_b	16.959453
_cell_length_c	19.076919
_cell_angle_alpha	92.270942
_cell_angle_beta	90.076224
_cell_angle_gamma	87.721155
loop_
_atom_site_label
_atom_site_type_symbol
_atom_site_fract_x
_atom_site_fract_y
_atom_site_fract_z
Zn1	Zn	1.058268	-0.382396	-0.440413
Zn2	Zn	1.558268	0.117604	0.059587
Zn3	Zn	1.062908	-0.509487	-0.322904
Zn4	Zn	1.562908	-0.009487	0.177096
Zn5	Zn	0.945486	-0.371808	-0.318206
Zn6	Zn	1.445486	0.128192	0.181794
Zn7	Zn	0.940729	-0.509010	-0.435657
Zn8	Zn	1.440729	-0.009010	0.064343
O9	O	1.001848	-0.443175	-0.379295
O10	O	1.501848	0.056825	0.120705
O11	O	1.157216	-0.403886	-0.428782
O12	O	1.657216	0.096114	0.071218
O13	O	1.051264	-0.486992	-0.223950
O14	O	1.551264	0.013008	0.276050
O15	O	0.960496	-0.262605	-0.334441
O16	O	1.460496	0.237395	0.165559
O17	O	1.160624	-0.497259	-0.342449
O18	O	1.660624	0.002741	0.157551
O19	O	1.043357	-0.270384	-0.424226
O20	O	1.543357	0.229616	0.075774
O21	O	0.964995	-0.385839	-0.220498
O22	O	1.464995	0.114161	0.279502
O23	O	0.846523	-0.385377	-0.329830
O24	O	1.346523	0.114623	0.170170
O25	O	0.952389	-0.496447	-0.534619
O26	O	1.452389	0.003553	-0.034619
O27	O	0.843029	-0.486179	-0.416120
O28	O	1.343029	0.013821	0.083880
O29	O	1.038744	-0.403424	-0.538113
O30	O	1.538744	0.096576	-0.038113
O31	O	1.046651	-0.620031	-0.337837
O32	O	1.546651	-0.120031	0.162163
O33	O	0.956887	-0.619681	-0.420676
O34	O	1.456887	-0.119681	0.079324
C35	C	0.819280	-0.434578	-0.371950
C36	C	1.319280	0.065422	0.128050
C37	C	0.741176	-0.430920	-0.368824
C38	C	1.241176	0.069080	0.131176
C39	C	0.702684	-0.481756	-0.412212
C40	C	1.202684	0.018244	0.087788
C41	C	0.629296	-0.478309	-0.409278
C42	C	1.129296	0.021691	0.090722
C43	C	0.594402	-0.424028	-0.362953
C44	C	1.094402	0.075972	0.137047
C45	C	0.632900	-0.373186	-0.319563
C46	C	1.132900	0.126814	0.180437
C47	C	0.706285	-0.376630	-0.322501
C48	C	1.206285	0.123370	0.177499
C49	C	0.375115	-0.408087	-0.349360
C50	C	0.875115	0.091913	0.150640
C51	C	0.301724	-0.404648	-0.346425
C52	C	0.801724	0.095352	0.153575
C53	C	0.298126	-0.509771	-0.436141
C54	C	0.798126	-0.009771	0.063859
C55	C	0.371514	-0.513214	-0.439071
C56	C	0.871514	-0.013214	0.060929
C57	C	0.410004	-0.462369	-0.395684
C58	C	0.910004	0.037631	0.104316
N59	N	0.519389	-0.420504	-0.359952
N60	N	1.019389	0.079496	0.140048
N61	N	0.485016	-0.465889	-0.398690
N62	N	0.985016	0.034111	0.101310
C63	C	1.001775	-0.648537	-0.379266
C64	C	1.501775	-0.148537	0.120734
C65	C	1.001807	-0.736396	-0.379280
C66	C	1.501807	-0.236396	0.120720
C67	C	0.955050	-0.777514	-0.422378
C68	C	1.455050	-0.277514	0.077622
C69	C	1.048598	-0.777833	-0.336199
C70	C	1.548598	-0.277833	0.163801
C71	C	1.048632	-0.860381	-0.336214
C72	C	1.548632	-0.360381	0.163786
C73	C	1.001876	-0.901500	-0.379311
C74	C	1.501876	-0.401500	0.120689
C75	C	0.955085	-0.860070	-0.422395
C76	C	1.455085	-0.360070	0.077605
C77	C	1.095428	-0.901818	-0.293136
C78	C	1.595428	-0.401818	0.206864
C79	C	1.095464	-0.984371	-0.293149
C80	C	1.595464	-0.484371	0.206851
C81	C	1.048704	-1.025490	-0.336244
C82	C	1.548704	-0.525490	0.163756
C83	C	1.001910	-0.984055	-0.379328
C84	C	1.501910	-0.484055	0.120672
C85	C	0.955153	-1.025174	-0.422426
C86	C	1.455153	-0.525174	0.077574
C87	C	0.908356	-0.983740	-0.465508
C88	C	1.408356	-0.483740	0.034492
C89	C	0.908324	-0.901189	-0.465489
C90	C	1.408324	-0.401189	0.034511
C91	C	1.048735	-1.108041	-0.336262
C92	C	1.548735	-0.608041	0.163738
C93	C	0.955188	-1.107729	-0.422443
C94	C	1.455188	-0.607729	0.077557
C95	C	1.185129	-0.451807	-0.386670
C96	C	1.685129	0.048193	0.113330
C97	C	1.263232	-0.455485	-0.389812
C98	C	1.763232	0.044515	0.110188
C99	C	0.994518	-0.451063	-0.562575
C100	C	1.494518	0.048937	-0.062575
C101	C	0.991395	-0.454425	-0.640678
C102	C	1.491395	0.045575	-0.140678
C103	C	1.001940	-0.237013	-0.379340
C104	C	1.501940	0.262987	0.120660
C105	C	1.001979	-0.149159	-0.379359
C106	C	1.501979	0.350841	0.120641
C107	C	1.034886	-0.407574	-0.679191
C108	C	1.534886	0.092426	-0.179191
C109	C	1.031943	-0.410729	-0.752577
C110	C	1.531943	0.089271	-0.252577
C111	C	0.985511	-0.460739	-0.787449
C112	C	1.485511	0.039261	-0.287449
C113	C	0.942016	-0.507591	-0.748930
C114	C	1.442016	-0.007591	-0.248930
C115	C	0.944956	-0.504432	-0.675545
C116	C	1.444956	-0.004432	-0.175545
C117	C	0.971893	-0.475378	-1.006729
C118	C	1.471893	0.024622	-0.506729
C119	C	0.968958	-0.478536	-1.080119
C120	C	1.468958	0.021464	-0.580119
C121	C	1.058884	-0.381672	-1.083761
C122	C	1.558884	0.118328	-0.583761
C123	C	1.061823	-0.378520	-1.010375
C124	C	1.561823	0.121480	-0.510375
C125	C	1.018325	-0.425369	-0.971863
C126	C	1.518325	0.074631	-0.471863
N127	N	0.982503	-0.463967	-0.862461
N128	N	1.482503	0.036033	-0.362461
N129	N	1.021330	-0.422137	-0.896852
N130	N	1.521330	0.077863	-0.396852
C131	C	1.009189	-0.435263	-0.196730
C132	C	1.509189	0.064737	0.303270
C133	C	1.012449	-0.431685	-0.118633
C134	C	1.512449	0.068315	0.381367
H135	H	0.604483	-0.328985	-0.281847
H136	H	1.104483	0.171015	0.218153
H137	H	1.133499	-0.868337	-0.258051
H138	H	1.633499	-0.368337	0.241949
Br139	Br	1.124842	-0.310649	-0.963055
Br140	Br	1.624842	0.189351	-0.463055
H141	H	0.399919	-0.557417	-0.476793
H142	H	0.899919	-0.057417	0.023207
Br143	Br	0.758525	-0.307630	-0.263619
Br144	Br	1.258525	0.192370	0.236381
H145	H	0.904208	-0.548308	-0.777328
H146	H	1.404208	-0.048308	-0.277328
H147	H	0.870224	-0.867449	-0.500565
H148	H	1.370224	-0.367449	-0.000565
H149	H	0.597959	-0.519706	-0.444608
H150	H	1.097959	-0.019706	0.055392
Br151	Br	0.891541	-0.721286	-0.480841
Br152	Br	1.391541	-0.221286	0.019159
H153	H	0.266779	-0.551165	-0.471465
H154	H	0.766779	-0.051165	0.028535
Br155	Br	0.254369	-0.330985	-0.283543
Br156	Br	0.754369	0.169015	0.216457
H157	H	1.067359	-0.372580	-0.783932
H158	H	1.567359	0.127420	-0.283932
Br159	Br	0.750033	-0.555433	-0.475080
Br160	Br	1.250033	-0.055433	0.024920
H161	H	1.072698	-0.366853	-0.650805
H162	H	1.572698	0.133147	-0.150805
H163	H	0.917112	-1.141202	-0.457539
H164	H	1.417112	-0.641202	0.042461
H165	H	1.133569	-1.018099	-0.258068
H166	H	1.633569	-0.518099	0.241932
Br167	Br	0.427343	-0.339079	-0.290482
Br168	Br	0.927343	0.160921	0.209518
H169	H	1.086670	-0.744352	-0.301114
H170	H	1.586670	-0.244352	0.198886
Br171	Br	0.844910	-1.039554	-0.524003
Br172	Br	1.344910	-0.539554	-0.024003
H173	H	1.086841	-1.141773	-0.301190
H174	H	1.586841	-0.641773	0.198810
H175	H	1.094297	-0.343529	-1.115126
H176	H	1.594297	0.156471	-0.615126
Br177	Br	0.905937	-0.546409	-1.127445
Br178	Br	1.405937	-0.046409	-0.627445
H179	H	0.936484	-0.513538	-0.975382
H180	H	1.436484	-0.013538	-0.475382
Br181	Br	0.885926	-0.568012	-0.623276
Br182	Br	1.385926	-0.068012	-0.123276
