data_functionalizedCrystal
_audit_creation_method	'MofGen! by Chris Wilmer'
_symmetry_space_group_name_H-M	'P1'
_symmetry_Int_Tables_number	1
_symmetry_cell_setting	triclinic
loop_
_symmetry_equiv_pos_as_xyz
  x,y,z
_cell_length_a	13.897449
_cell_length_b	18.050590
_cell_length_c	13.897441
_cell_angle_alpha	89.966994
_cell_angle_beta	89.979267
_cell_angle_gamma	90.019832
loop_
_atom_site_label
_atom_site_type_symbol
_atom_site_fract_x
_atom_site_fract_y
_atom_site_fract_z
Zn1	Zn	1.474697	-0.295610	-0.545365
Zn2	Zn	1.808030	0.037723	-0.212032
Zn3	Zn	2.141364	0.371056	0.121302
Zn4	Zn	1.474588	-0.419815	-0.384060
Zn5	Zn	1.807922	-0.086481	-0.050726
Zn6	Zn	2.141255	0.246852	0.282607
Zn7	Zn	1.313386	-0.295646	-0.384083
Zn8	Zn	1.646719	0.037688	-0.050750
Zn9	Zn	1.980053	0.371021	0.282583
Zn10	Zn	1.313365	-0.419766	-0.545312
Zn11	Zn	1.646699	-0.086433	-0.211979
Zn12	Zn	1.980032	0.246901	0.121354
O13	O	1.394009	-0.357709	-0.464705
O14	O	1.727342	-0.024376	-0.131372
O15	O	2.060676	0.308958	0.201962
O16	O	1.609664	-0.312092	-0.523980
O17	O	1.942997	0.021241	-0.190646
O18	O	2.276331	0.354575	0.142687
O19	O	1.453168	-0.403379	-0.249081
O20	O	1.786501	-0.070045	0.084252
O21	O	2.119835	0.263288	0.417586
O22	O	1.334838	-0.191716	-0.405510
O23	O	1.668172	0.141617	-0.072176
O24	O	2.001505	0.474950	0.261157
O25	O	1.609584	-0.403344	-0.405469
O26	O	1.942918	-0.070011	-0.072136
O27	O	2.276251	0.263322	0.261197
O28	O	1.453353	-0.191690	-0.524003
O29	O	1.786686	0.141643	-0.190669
O30	O	2.120019	0.474976	0.142664
O31	O	1.334733	-0.312152	-0.249099
O32	O	1.668066	0.021181	0.084235
O33	O	2.001400	0.354514	0.417568
O34	O	1.178402	-0.312105	-0.405459
O35	O	1.511735	0.021228	-0.072125
O36	O	1.845068	0.354562	0.261208
O37	O	1.334803	-0.403261	-0.680301
O38	O	1.668136	-0.069928	-0.346968
O39	O	2.001470	0.263406	-0.013634
O40	O	1.178386	-0.403295	-0.523913
O41	O	1.511720	-0.069962	-0.190579
O42	O	1.845053	0.263371	0.142754
O43	O	1.453333	-0.312045	-0.680340
O44	O	1.786666	0.021289	-0.347006
O45	O	2.119999	0.354622	-0.013673
O46	O	1.453148	-0.523733	-0.405418
O47	O	1.786481	-0.190399	-0.072085
O48	O	2.119814	0.142934	0.261249
O49	O	1.334698	-0.523697	-0.523890
O50	O	1.668031	-0.190364	-0.190556
O51	O	2.001364	0.142970	0.142777
C52	C	1.143395	-0.357699	-0.464683
C53	C	1.476728	-0.024366	-0.131350
C54	C	1.810061	0.308967	0.201984
C55	C	1.036181	-0.357713	-0.464697
C56	C	1.369514	-0.024380	-0.131363
C57	C	1.702848	0.308954	0.201970
C58	C	0.839886	-0.357716	-0.464722
C59	C	1.173219	-0.024382	-0.131389
C60	C	1.506552	0.308951	0.201945
C61	C	0.949118	-0.357712	-0.464705
C62	C	1.282452	-0.024378	-0.131372
C63	C	1.615785	0.308955	0.201962
C64	C	1.393935	-0.550661	-0.464667
C65	C	1.727268	-0.217328	-0.131333
C66	C	2.060602	0.116005	0.202000
C67	C	1.393991	-0.633207	-0.464682
C68	C	1.727325	-0.299874	-0.131349
C69	C	2.060658	0.033460	0.201984
C70	C	1.458539	-0.832650	-0.400348
C71	C	1.791872	-0.499317	-0.067014
C72	C	2.125205	-0.165984	0.266319
C73	C	1.482104	-0.881977	-0.488383
C74	C	1.815438	-0.548644	-0.155049
C75	C	2.148771	-0.215310	0.178284
C76	C	1.394046	-0.784337	-0.464721
C77	C	1.727380	-0.451004	-0.131388
C78	C	2.060713	-0.117671	0.201946
C79	C	1.370579	-0.882092	-0.376725
C80	C	1.703912	-0.548759	-0.043392
C81	C	2.037245	-0.215426	0.289941
C82	C	1.394101	-0.930322	-0.464750
C83	C	1.727434	-0.596989	-0.131417
C84	C	2.060768	-0.263656	0.201916
C85	C	1.417657	-0.832577	-0.552802
C86	C	1.750991	-0.499244	-0.219469
C87	C	2.084324	-0.165910	0.113864
C88	C	1.306091	-0.832688	-0.441086
C89	C	1.639424	-0.499355	-0.107752
C90	C	1.972757	-0.166021	0.225581
C91	C	1.329623	-0.881992	-0.529181
C92	C	1.662956	-0.548659	-0.195848
C93	C	1.996290	-0.215326	0.137485
C94	C	1.394017	-0.700239	-0.464703
C95	C	1.727351	-0.366906	-0.131369
C96	C	2.060684	-0.033572	0.201964
C97	C	1.394130	-1.014419	-0.464778
C98	C	1.727463	-0.681086	-0.131445
C99	C	2.060797	-0.347752	0.201888
C100	C	1.645602	-0.357720	-0.464728
C101	C	1.978935	-0.024386	-0.131394
C102	C	2.312269	0.308947	0.201939
C103	C	1.752816	-0.357724	-0.464737
C104	C	2.086149	-0.024391	-0.131404
C105	C	2.419483	0.308943	0.201929
C106	C	1.394078	-0.357644	-0.716298
C107	C	1.727411	-0.024310	-0.382965
C108	C	2.060744	0.309023	-0.049632
C109	C	1.394107	-0.357616	-0.823512
C110	C	1.727440	-0.024282	-0.490179
C111	C	2.060773	0.309051	-0.156846
C112	C	1.394110	-0.164004	-0.464765
C113	C	1.727443	0.169330	-0.131431
C114	C	2.060777	0.502663	0.201902
C115	C	1.394153	-0.081458	-0.464790
C116	C	1.727486	0.251876	-0.131457
C117	C	2.060819	0.585209	0.201876
C118	C	1.394133	-0.357565	-1.019808
C119	C	1.727466	-0.024232	-0.686474
C120	C	2.060800	0.309101	-0.353141
C121	C	1.394115	-0.357595	-0.910575
C122	C	1.727449	-0.024262	-0.577242
C123	C	2.060782	0.309071	-0.243908
C124	C	1.393996	-0.357721	-0.214091
C125	C	1.727330	-0.024388	0.119243
C126	C	2.060663	0.308946	0.452576
C127	C	1.394154	-0.357540	-0.106877
C128	C	1.727488	-0.024206	0.226456
C129	C	2.060821	0.309127	0.559789
H130	H	1.513096	-0.810984	-0.345965
H131	H	1.846429	-0.477651	-0.012632
H132	H	2.179763	-0.144317	0.320701
Cl133	Cl	1.596984	-0.915391	-0.519294
Cl134	Cl	1.930317	-0.582057	-0.185961
Cl135	Cl	2.263650	-0.248724	0.147372
Cl136	Cl	1.191242	-0.799236	-0.410155
Cl137	Cl	1.524575	-0.465902	-0.076822
Cl138	Cl	1.857908	-0.132569	0.256511
H139	H	1.437455	-0.810920	-0.627296
H140	H	1.770788	-0.477587	-0.293962
H141	H	2.104122	-0.144253	0.039371
H142	H	1.275107	-0.903521	-0.583696
H143	H	1.608441	-0.570188	-0.250362
H144	H	1.941774	-0.236854	0.082971
Cl145	Cl	1.339897	-0.915672	-0.261815
Cl146	Cl	1.673231	-0.582339	0.071519
Cl147	Cl	2.006564	-0.249006	0.404852
