data_functionalizedCrystal
_audit_creation_method	'MofGen! by Chris Wilmer'
_symmetry_space_group_name_H-M	'P1'
_symmetry_Int_Tables_number	1
_symmetry_cell_setting	triclinic
loop_
_symmetry_equiv_pos_as_xyz
  x,y,z
_cell_length_a	8.497365
_cell_length_b	13.033291
_cell_length_c	13.032721
_cell_angle_alpha	74.815798
_cell_angle_beta	82.869671
_cell_angle_gamma	82.779697
loop_
_atom_site_label
_atom_site_type_symbol
_atom_site_fract_x
_atom_site_fract_y
_atom_site_fract_z
Zn1	Zn	-1.235101	1.570465	0.216427
Zn2	Zn	-1.000992	1.547734	0.394146
Zn3	Zn	-0.941538	1.392768	0.239094
Zn4	Zn	-1.234920	1.370244	0.416533
O5	O	-1.103138	1.470303	0.316550
O6	O	-1.229004	1.716097	0.221146
O7	O	-0.772349	1.527091	0.373695
O8	O	-0.955674	1.435279	0.087453
O9	O	-1.057005	1.699397	0.351715
O10	O	-1.171353	1.565833	0.070799
O11	O	-0.728668	1.413238	0.259780
O12	O	-0.955498	1.241133	0.281488
O13	O	-1.455701	1.396890	0.389871
O14	O	-1.171044	1.224584	0.411851
O15	O	-1.455834	1.543992	0.242854
O16	O	-1.056829	1.505250	0.545750
O17	O	-1.228695	1.374849	0.562198
C18	C	-1.056801	1.194316	0.351559
C19	C	-1.037019	1.076244	0.366562
C20	C	-1.093033	0.909825	0.324243
C21	C	-1.113477	1.031858	0.308739
C22	C	-1.149233	1.435168	0.592510
C23	C	-1.169022	1.420234	0.710554
C24	C	-0.693264	1.470211	0.316676
C25	C	-0.514610	1.470390	0.316438
C26	C	-1.149657	1.747367	0.281405
C27	C	-1.169480	1.865435	0.266428
C28	C	-1.056902	1.505604	0.039509
C29	C	-1.037199	1.520647	-0.078549
C30	C	-1.092890	1.478153	0.755002
C31	C	-1.113341	1.462720	0.877007
H32	H	-1.250057	0.917777	0.205449
H33	H	-0.956429	1.023908	0.427542
N34	N	-1.219734	1.381886	0.946224
H35	H	-1.332018	1.400786	0.924790
H36	H	-1.219132	1.382350	1.023546
H37	H	-0.956879	1.581668	0.869185
N38	N	-1.275422	1.339411	0.779772
H39	H	-1.363473	1.376794	0.820222
H40	H	-1.210545	1.284428	0.832063
N41	N	-0.986267	0.840509	0.405004
H42	H	-0.986789	0.763158	0.404627
H43	H	-1.026521	0.850198	0.478435
N44	N	-1.220241	1.101172	0.227969
H45	H	-1.219719	1.178522	0.228346
H46	H	-1.332430	1.079773	0.247008
N47	N	-0.986507	1.558983	0.685776
H48	H	-0.986981	1.558553	0.608432
H49	H	-0.874278	1.540037	0.707297
