data_functionalizedCrystal
_audit_creation_method	'MofGen! by Chris Wilmer'
_symmetry_space_group_name_H-M	'P1'
_symmetry_Int_Tables_number	1
_symmetry_cell_setting	triclinic
loop_
_symmetry_equiv_pos_as_xyz
  x,y,z
_cell_length_a	21.295418
_cell_length_b	21.295418
_cell_length_c	16.625539
_cell_angle_alpha	90.031685
_cell_angle_beta	90.039782
_cell_angle_gamma	90.043213
loop_
_atom_site_label
_atom_site_type_symbol
_atom_site_fract_x
_atom_site_fract_y
_atom_site_fract_z
Zn1	Zn	0.962345	-0.250342	0.456304
Zn2	Zn	1.462345	0.249658	0.956304
Zn3	Zn	0.962260	-0.355616	0.321463
Zn4	Zn	1.462260	0.144384	0.821463
Zn5	Zn	0.857075	-0.250393	0.321439
Zn6	Zn	1.357075	0.249607	0.821439
Zn7	Zn	0.857043	-0.355607	0.456208
Zn8	Zn	1.357043	0.144393	0.956208
O9	O	0.909681	-0.302990	0.388854
O10	O	1.409681	0.197010	0.888854
O11	O	1.050423	-0.264289	0.438467
O12	O	1.550423	0.235711	0.938467
O13	O	0.948285	-0.341683	0.208628
O14	O	1.448285	0.158317	0.708628
O15	O	0.871088	-0.162297	0.339360
O16	O	1.371088	0.337703	0.839360
O17	O	1.050361	-0.341633	0.339400
O18	O	1.550361	0.158367	0.839400
O19	O	0.948429	-0.162260	0.438444
O20	O	1.448429	0.337740	0.938444
O21	O	0.871006	-0.264377	0.208610
O22	O	1.371006	0.235623	0.708610
O23	O	0.768982	-0.264368	0.339266
O24	O	1.268982	0.235632	0.839266
O25	O	0.871034	-0.341618	0.569053
O26	O	1.371034	0.158382	1.069053
O27	O	0.768958	-0.341667	0.438280
O28	O	1.268958	0.158333	0.938280
O29	O	0.948398	-0.264281	0.569124
O30	O	1.448398	0.235719	1.069124
O31	O	0.948254	-0.443704	0.339307
O32	O	1.448254	0.056296	0.839307
O33	O	0.870952	-0.443697	0.438303
O34	O	1.370952	0.056303	0.938303
C35	C	0.746129	-0.303023	0.388761
C36	C	1.246129	0.196977	0.888761
C37	C	0.676161	-0.303052	0.388740
C38	C	1.176161	0.196948	0.888740
C39	C	0.643299	-0.343355	0.440220
C40	C	1.143299	0.156645	0.940220
C41	C	0.577556	-0.343340	0.440256
C42	C	1.077556	0.156660	0.940256
C43	C	0.544679	-0.303028	0.388798
C44	C	1.044679	0.196972	0.888798
C45	C	0.577549	-0.262716	0.337315
C46	C	1.077549	0.237284	0.837315
C47	C	0.643290	-0.262729	0.337286
C48	C	1.143290	0.237271	0.837286
N49	N	0.441406	-0.298112	0.318275
N50	N	0.941406	0.201888	0.818275
N51	N	0.378955	-0.298104	0.318305
N52	N	0.878955	0.201896	0.818305
C53	C	0.346604	-0.302987	0.388884
C54	C	0.846604	0.197013	0.888884
N55	N	0.379064	-0.307891	0.459433
N56	N	0.879064	0.192109	0.959433
N57	N	0.441521	-0.307903	0.459402
N58	N	0.941521	0.192097	0.959402
C59	C	0.473393	-0.303010	0.388824
C60	C	0.973393	0.196990	0.888824
C61	C	0.242456	-0.343276	0.440407
C62	C	0.742456	0.156724	0.940407
C63	C	0.176712	-0.343256	0.440444
C64	C	0.676712	0.156744	0.940444
C65	C	0.176706	-0.262636	0.337496
C66	C	0.676706	0.237364	0.837496
C67	C	0.242449	-0.262653	0.337466
C68	C	0.742449	0.237347	0.837466
C69	C	0.275320	-0.302976	0.388920
C70	C	0.775320	0.197024	0.888920
C71	C	0.909607	-0.466541	0.388815
C72	C	1.409607	0.033459	0.888815
C73	C	0.909633	-0.536509	0.388826
C74	C	1.409633	-0.036509	0.888826
C75	C	0.950083	-1.035950	0.337436
C76	C	1.450083	-0.535950	0.837436
C77	C	0.950059	-0.970207	0.337417
C78	C	1.450059	-0.470207	0.837417
C79	C	0.909769	-0.937349	0.388910
C80	C	1.409769	-0.437349	0.888910
C81	C	0.869489	-0.970238	0.440411
C82	C	1.369489	-0.470238	0.940411
C83	C	0.869510	-1.035979	0.440423
C84	C	1.369510	-0.535979	0.940423
N85	N	0.904877	-0.834096	0.459463
N86	N	1.404877	-0.334096	0.959463
N87	N	0.904861	-0.771644	0.459449
N88	N	1.404861	-0.271644	0.959449
C89	C	0.909704	-0.739274	0.388876
C90	C	1.409704	-0.239274	0.888876
N91	N	0.914576	-0.771714	0.318316
N92	N	1.414576	-0.271714	0.818316
N93	N	0.914595	-0.834171	0.318330
N94	N	1.414595	-0.334171	0.818330
C95	C	0.909742	-0.866063	0.388903
C96	C	1.409742	-0.366063	0.888903
C97	C	0.949953	-0.635107	0.337354
C98	C	1.449953	-0.135107	0.837354
C99	C	0.949924	-0.569363	0.337333
C100	C	1.449924	-0.069363	0.837333
C101	C	0.869357	-0.569395	0.440334
C102	C	1.369357	-0.069395	0.940334
C103	C	0.869382	-0.635138	0.440348
C104	C	1.369382	-0.135138	0.940348
C105	C	0.909683	-0.667990	0.388858
C106	C	1.409683	-0.167990	0.888858
C107	C	1.073871	-0.302957	0.388947
C108	C	1.573871	0.197043	0.888947
C109	C	1.143839	-0.302943	0.388987
C110	C	1.643839	0.197057	0.888987
C111	C	0.909722	-0.302943	0.599163
C112	C	1.409722	0.197057	1.099163
C113	C	0.909739	-0.302923	0.688784
C114	C	1.409739	0.197077	1.188784
C115	C	0.909772	-0.138799	0.388910
C116	C	1.409772	0.361201	0.888910
C117	C	0.909811	-0.068831	0.388934
C118	C	1.409811	0.431169	0.888934
C119	C	0.909676	-0.302991	0.179363
C120	C	1.409676	0.197009	0.679363
C121	C	0.909781	-0.302833	0.089742
C122	C	1.409781	0.197167	0.589742
C123	C	0.909768	-0.302852	1.016960
C124	C	1.409768	0.197148	1.516960
C125	C	0.909758	-0.302874	0.925651
C126	C	1.409758	0.197126	1.425651
C127	C	0.909754	-0.302888	0.852875
C128	C	1.409754	0.197112	1.352875
C129	C	0.909744	-0.302908	0.761560
C130	C	1.409744	0.197092	1.261560
H131	H	0.269206	-0.229836	0.295542
H132	H	0.769206	0.270164	0.795542
O133	O	0.542099	-0.386835	0.495750
O134	O	1.042099	0.113165	0.995750
H135	H	0.576001	-0.414886	0.531511
H136	H	1.076001	0.085114	1.031511
O137	O	0.542098	-0.219235	0.281809
O138	O	1.042098	0.280765	0.781809
H139	H	0.554666	-0.229969	0.218500
H140	H	1.054666	0.270031	0.718500
H141	H	0.982717	-0.542591	0.295393
H142	H	1.482717	-0.042591	0.795393
O143	O	0.678741	-0.219269	0.281745
O144	O	1.178741	0.280731	0.781745
H145	H	0.644838	-0.191238	0.245961
H146	H	1.144838	0.308762	0.745961
H147	H	0.982898	-1.062694	0.295507
H148	H	1.482898	-0.562694	0.795507
O149	O	0.993430	-0.670542	0.281834
O150	O	1.493430	-0.170542	0.781834
H151	H	0.986691	-0.721781	0.290509
H152	H	1.486691	-0.221781	0.790509
H153	H	0.836683	-0.943481	0.482336
H154	H	1.336683	-0.443481	0.982336
O155	O	0.825900	-0.533966	0.495877
O156	O	1.325900	-0.033966	0.995877
H157	H	0.832654	-0.482727	0.487222
H158	H	1.332654	0.017273	0.987222
H159	H	0.836715	-1.062751	0.482362
H160	H	1.336715	-0.562751	0.982362
H161	H	0.149938	-0.229810	0.295602
H162	H	0.649938	0.270190	0.795602
O163	O	0.993517	-0.934735	0.281891
O164	O	1.493517	-0.434735	0.781891
H165	H	0.986734	-0.883501	0.290538
H166	H	1.486734	-0.383501	0.790538
O167	O	0.825949	-0.670610	0.495896
O168	O	1.325949	-0.170610	0.995896
H169	H	0.836715	-0.657952	0.559195
H170	H	1.336715	-0.157952	1.059195
O171	O	0.678750	-0.386837	0.495727
O172	O	1.178750	0.113163	0.995727
H173	H	0.666071	-0.436226	0.481794
H174	H	1.166071	0.063774	0.981794
O175	O	0.277917	-0.386756	0.495910
O176	O	0.777917	0.113244	0.995910
H177	H	0.244018	-0.414772	0.531725
H178	H	0.744018	0.085228	1.031725
H179	H	0.149957	-0.376075	0.482370
H180	H	0.649957	0.123925	0.982370
