data_functionalizedCrystal
_audit_creation_method	'MofGen! by Chris Wilmer'
_symmetry_space_group_name_H-M	'P1'
_symmetry_Int_Tables_number	1
_symmetry_cell_setting	triclinic
loop_
_symmetry_equiv_pos_as_xyz
  x,y,z
_cell_length_a	19.288864
_cell_length_b	27.732048
_cell_length_c	17.766277
_cell_angle_alpha	89.988664
_cell_angle_beta	89.976791
_cell_angle_gamma	82.889449
loop_
_atom_site_label
_atom_site_type_symbol
_atom_site_fract_x
_atom_site_fract_y
_atom_site_fract_z
O1	O	0.920977	0.060300	-0.062844
O2	O	1.170977	0.310300	0.187156
O3	O	1.420977	0.560300	0.437156
O4	O	1.670977	0.810300	0.687156
O5	O	0.718666	0.068434	-0.062793
O6	O	0.968666	0.318434	0.187207
O7	O	1.218666	0.568434	0.437207
O8	O	1.468666	0.818434	0.687207
O9	O	0.826105	-0.006011	-0.062806
O10	O	1.076105	0.243989	0.187194
O11	O	1.326105	0.493989	0.437194
O12	O	1.576105	0.743989	0.687194
O13	O	0.813538	0.134745	-0.062831
O14	O	1.063538	0.384745	0.187169
O15	O	1.313538	0.634745	0.437169
O16	O	1.563538	0.884745	0.687169
O17	O	0.826086	-0.006014	0.062383
O18	O	1.076086	0.243986	0.312383
O19	O	1.326086	0.493986	0.562383
O20	O	1.576086	0.743986	0.812383
O21	O	0.718647	0.068430	0.062395
O22	O	0.968647	0.318430	0.312395
O23	O	1.218647	0.568430	0.562395
O24	O	1.468647	0.818430	0.812395
O25	O	0.920958	0.060296	0.062345
O26	O	1.170958	0.310296	0.312345
O27	O	1.420958	0.560296	0.562345
O28	O	1.670958	0.810296	0.812345
Cu29	Cu	0.819801	0.064363	0.073801
Cu30	Cu	1.069801	0.314363	0.323801
Cu31	Cu	1.319801	0.564363	0.573801
Cu32	Cu	1.569801	0.814363	0.823801
Cu33	Cu	0.819823	0.064367	-0.074249
Cu34	Cu	1.069823	0.314367	0.175751
Cu35	Cu	1.319823	0.564367	0.425751
Cu36	Cu	1.569823	0.814367	0.675751
O37	O	0.813519	0.134741	0.062357
O38	O	1.063519	0.384741	0.312357
O39	O	1.313519	0.634741	0.562357
O40	O	1.563519	0.884741	0.812357
C41	C	0.692781	0.068171	-0.000192
C42	C	0.942781	0.318171	0.249808
C43	C	1.192781	0.568171	0.499808
C44	C	1.442781	0.818171	0.749808
C45	C	0.615683	0.067385	-0.000172
C46	C	0.865683	0.317385	0.249828
C47	C	1.115683	0.567385	0.499828
C48	C	1.365683	0.817385	0.749828
C49	C	0.570714	0.111066	-0.000192
C50	C	0.820714	0.361066	0.249808
C51	C	1.070714	0.611066	0.499808
C52	C	1.320714	0.861066	0.749808
C53	C	0.498271	0.110328	-0.000200
C54	C	0.748271	0.360328	0.249800
C55	C	0.998271	0.610328	0.499800
C56	C	1.248271	0.860328	0.749800
C57	C	0.470801	0.065906	-0.000204
C58	C	0.720801	0.315906	0.249796
C59	C	0.970801	0.565906	0.499796
C60	C	1.220801	0.815906	0.749796
C61	C	0.515780	0.022219	-0.000180
C62	C	0.765780	0.272219	0.249820
C63	C	1.015780	0.522219	0.499820
C64	C	1.265780	0.772219	0.749820
C65	C	0.588220	0.022959	-0.000164
C66	C	0.838220	0.272959	0.249836
C67	C	1.088220	0.522959	0.499836
C68	C	1.338220	0.772959	0.749836
C69	C	0.362763	0.030987	-0.044082
C70	C	0.612763	0.280987	0.205918
C71	C	0.862763	0.530987	0.455918
C72	C	1.112763	0.780987	0.705918
C73	C	0.290324	0.030250	-0.044102
C74	C	0.540324	0.280250	0.205898
C75	C	0.790324	0.530250	0.455898
C76	C	1.040324	0.780250	0.705898
C77	C	0.247370	0.063624	-0.000249
C78	C	0.497370	0.313624	0.249751
C79	C	0.747370	0.563624	0.499751
C80	C	0.997370	0.813624	0.749751
C81	C	0.276863	0.097744	0.043615
C82	C	0.526863	0.347744	0.293615
C83	C	0.776863	0.597744	0.543615
C84	C	1.026863	0.847744	0.793615
C85	C	0.349304	0.098483	0.043631
C86	C	0.599304	0.348483	0.293631
C87	C	0.849304	0.598483	0.543631
C88	C	1.099304	0.848483	0.793631
C89	C	0.392252	0.065099	-0.000220
C90	C	0.642252	0.315099	0.249780
C91	C	0.892252	0.565099	0.499780
C92	C	1.142252	0.815099	0.749780
C93	C	0.123850	0.106507	-0.000277
C94	C	0.373850	0.356507	0.249723
C95	C	0.623850	0.606507	0.499723
C96	C	0.873850	0.856507	0.749723
C97	C	0.051406	0.105767	-0.000280
C98	C	0.301406	0.355767	0.249720
C99	C	0.551406	0.605767	0.499720
C100	C	0.801406	0.855767	0.749720
C101	C	0.068916	0.017658	-0.000267
C102	C	0.318916	0.267658	0.249733
C103	C	0.568916	0.517658	0.499733
C104	C	0.818916	0.767658	0.749733
C105	C	0.141358	0.018399	-0.000256
C106	C	0.391358	0.268399	0.249744
C107	C	0.641358	0.518399	0.499744
C108	C	0.891358	0.768399	0.749744
C109	C	0.168820	0.062825	-0.000264
C110	C	0.418820	0.312825	0.249736
C111	C	0.668820	0.562825	0.499736
C112	C	0.918820	0.812825	0.749736
C113	C	0.825831	-0.024020	-0.000209
C114	C	1.075831	0.225980	0.249791
C115	C	1.325831	0.475980	0.499791
C116	C	1.575831	0.725980	0.749791
C117	C	0.825037	-0.077678	-0.000203
C118	C	1.075037	0.172322	0.249797
C119	C	1.325037	0.422322	0.499797
C120	C	1.575037	0.672322	0.749797
C121	C	0.883526	-0.416316	-0.000256
C122	C	1.133526	-0.166316	0.249744
C123	C	1.383526	0.083684	0.499744
C124	C	1.633526	0.333684	0.749744
C125	C	0.880579	-0.617985	-0.000266
C126	C	1.130579	-0.367985	0.249734
C127	C	1.380579	-0.117985	0.499734
C128	C	1.630579	0.132015	0.749734
O129	O	0.934063	-0.649079	-0.000312
O130	O	1.184063	-0.399079	0.249688
O131	O	1.434063	-0.149079	0.499688
O132	O	1.684063	0.100921	0.749688
N133	N	0.816872	-0.637301	-0.000249
N134	N	1.066872	-0.387301	0.249751
N135	N	1.316872	-0.137301	0.499751
N136	N	1.566872	0.112699	0.749751
C137	C	0.753897	-0.606196	-0.000235
C138	C	1.003897	-0.356196	0.249765
C139	C	1.253897	-0.106196	0.499765
C140	C	1.503897	0.143804	0.749765
O141	O	0.699643	-0.627253	-0.000229
O142	O	0.949643	-0.377253	0.249771
O143	O	1.199643	-0.127253	0.499771
O144	O	1.449643	0.122747	0.749771
C145	C	0.756845	-0.404529	-0.000231
C146	C	1.006845	-0.154529	0.249769
C147	C	1.256845	0.095471	0.499769
C148	C	1.506845	0.345471	0.749769
C149	C	0.820556	-0.385216	-0.000240
C150	C	1.070556	-0.135216	0.249760
C151	C	1.320556	0.114784	0.499760
C152	C	1.570556	0.364784	0.749760
C153	C	0.947232	-0.397002	-0.000266
C154	C	1.197232	-0.147002	0.249734
C155	C	1.447232	0.102998	0.499734
C156	C	1.697232	0.352998	0.749734
C157	C	0.947968	-0.346588	-0.000259
C158	C	1.197968	-0.096588	0.249741
C159	C	1.447968	0.153412	0.499741
C160	C	1.697968	0.403412	0.749741
C161	C	0.884998	-0.315488	-0.000243
C162	C	1.134998	-0.065488	0.249757
C163	C	1.384998	0.184512	0.499757
C164	C	1.634998	0.434512	0.749757
C165	C	0.821292	-0.334801	-0.000233
C166	C	1.071292	-0.084801	0.249767
C167	C	1.321292	0.165199	0.499767
C168	C	1.571292	0.415199	0.749767
C169	C	0.693871	-0.373425	-0.000222
C170	C	0.943871	-0.123425	0.249778
C171	C	1.193871	0.126575	0.499778
C172	C	1.443871	0.376575	0.749778
C173	C	0.694614	-0.323006	-0.000223
C174	C	0.944614	-0.073006	0.249777
C175	C	1.194614	0.176994	0.499777
C176	C	1.444614	0.426994	0.749777
C177	C	0.758325	-0.303693	-0.000232
C178	C	1.008325	-0.053693	0.249768
C179	C	1.258325	0.196307	0.499768
C180	C	1.508325	0.446307	0.749768
C181	C	0.759059	-0.253287	-0.000210
C182	C	1.009059	-0.003287	0.249790
C183	C	1.259059	0.246713	0.499790
C184	C	1.509059	0.496713	0.749790
N185	N	0.822766	-0.233971	-0.000227
N186	N	1.072766	0.016029	0.249773
N187	N	1.322766	0.266029	0.499773
N188	N	1.572766	0.516029	0.749773
C189	C	0.885735	-0.265071	-0.000243
C190	C	1.135735	-0.015071	0.249757
C191	C	1.385735	0.234929	0.499757
C192	C	1.635735	0.484929	0.749757
C193	C	0.752354	-0.712075	-0.000236
C194	C	1.002354	-0.462075	0.249764
C195	C	1.252354	-0.212075	0.499764
C196	C	1.502354	0.037925	0.749764
C197	C	0.751617	-0.762492	-0.000236
C198	C	1.001617	-0.512492	0.249764
C199	C	1.251617	-0.262492	0.499764
C200	C	1.501617	-0.012492	0.749764
C201	C	0.878299	-0.774276	-0.000268
C202	C	1.128299	-0.524276	0.249732
C203	C	1.378299	-0.274276	0.499732
C204	C	1.628299	-0.024276	0.749732
C205	C	0.879035	-0.723859	-0.000263
C206	C	1.129035	-0.473859	0.249737
C207	C	1.379035	-0.223859	0.499737
C208	C	1.629035	0.026141	0.749737
C209	C	0.816061	-0.692759	-0.000253
C210	C	1.066061	-0.442759	0.249747
C211	C	1.316061	-0.192759	0.499747
C212	C	1.566061	0.057241	0.749747
C213	C	0.887276	-0.159197	-0.000229
C214	C	1.137276	0.090803	0.249771
C215	C	1.387276	0.340803	0.499771
C216	C	1.637276	0.590803	0.749771
C217	C	0.888007	-0.108778	-0.000219
C218	C	1.138007	0.141222	0.249781
C219	C	1.388007	0.391222	0.499781
C220	C	1.638007	0.641222	0.749781
C221	C	0.761325	-0.096998	-0.000191
C222	C	1.011325	0.153002	0.249809
C223	C	1.261325	0.403002	0.499809
C224	C	1.511325	0.653002	0.749809
C225	C	0.760595	-0.147412	-0.000197
C226	C	1.010595	0.102588	0.249803
C227	C	1.260595	0.352588	0.499803
C228	C	1.510595	0.602588	0.749803
C229	C	0.823576	-0.178511	-0.000218
C230	C	1.073576	0.071489	0.249782
C231	C	1.323576	0.321489	0.499782
C232	C	1.573576	0.571489	0.749782
O233	O	0.705603	-0.222164	-0.000172
O234	O	0.955603	0.027836	0.249828
O235	O	1.205603	0.277836	0.499828
O236	O	1.455603	0.527836	0.749828
O237	O	0.939982	-0.244005	-0.000266
O238	O	1.189982	0.005995	0.249734
O239	O	1.439982	0.255995	0.499734
O240	O	1.689982	0.505995	0.749734
C241	C	0.882790	-0.466730	-0.000263
C242	C	1.132790	-0.216730	0.249737
C243	C	1.382790	0.033270	0.499737
C244	C	1.632790	0.283270	0.749737
C245	C	0.819084	-0.486044	-0.000253
C246	C	1.069084	-0.236044	0.249747
C247	C	1.319084	0.013956	0.499747
C248	C	1.569084	0.263956	0.749747
C249	C	0.756114	-0.454943	-0.000236
C250	C	1.006114	-0.204943	0.249764
C251	C	1.256114	0.045057	0.499764
C252	C	1.506114	0.295057	0.749764
C253	C	0.818347	-0.536461	-0.000253
C254	C	1.068347	-0.286461	0.249747
C255	C	1.318347	-0.036461	0.499747
C256	C	1.568347	0.213539	0.749747
C257	C	0.881317	-0.567561	-0.000269
C258	C	1.131317	-0.317561	0.249731
C259	C	1.381317	-0.067561	0.499731
C260	C	1.631317	0.182439	0.749731
C261	C	0.945023	-0.548245	-0.000285
C262	C	1.195023	-0.298245	0.249715
C263	C	1.445023	-0.048245	0.499715
C264	C	1.695023	0.201755	0.749715
C265	C	0.945760	-0.497831	-0.000279
C266	C	1.195760	-0.247831	0.249721
C267	C	1.445760	0.002169	0.499721
C268	C	1.695760	0.252169	0.749721
C269	C	0.692407	-0.474260	-0.000220
C270	C	0.942407	-0.224260	0.249780
C271	C	1.192407	0.025740	0.499780
C272	C	1.442407	0.275740	0.749780
C273	C	0.691676	-0.524674	-0.000226
C274	C	0.941676	-0.274674	0.249774
C275	C	1.191676	-0.024674	0.499774
C276	C	1.441676	0.225326	0.749774
C277	C	0.754646	-0.555775	-0.000242
C278	C	1.004646	-0.305775	0.249758
C279	C	1.254646	-0.055775	0.499758
C280	C	1.504646	0.194225	0.749758
C281	C	0.946842	0.060560	-0.000258
C282	C	1.196842	0.310560	0.249742
C283	C	1.446842	0.560560	0.499742
C284	C	1.696842	0.810560	0.749742
C285	C	1.023941	0.061345	-0.000282
C286	C	1.273941	0.311345	0.249718
C287	C	1.523941	0.561345	0.499718
C288	C	1.773941	0.811345	0.749718
C289	C	0.813792	0.152751	-0.000241
C290	C	1.063792	0.402751	0.249759
C291	C	1.313792	0.652751	0.499759
C292	C	1.563792	0.902751	0.749759
C293	C	0.814587	0.206408	-0.000252
C294	C	1.064587	0.456408	0.249748
C295	C	1.314587	0.706408	0.499748
C296	C	1.564587	0.956408	0.749748
N297	N	0.819790	0.064359	0.177931
N298	N	1.069790	0.314359	0.427931
N299	N	1.319790	0.564359	0.677931
N300	N	1.569790	0.814359	0.927931
N301	N	0.819839	0.064367	-0.178379
N302	N	1.069839	0.314367	0.071621
N303	N	1.319839	0.564367	0.321621
N304	N	1.569839	0.814367	0.571621
C305	C	0.867380	0.031411	0.217313
C306	C	1.117380	0.281411	0.467313
C307	C	1.367380	0.531411	0.717313
C308	C	1.617380	0.781411	0.967313
C309	C	0.867384	0.031409	0.296114
C310	C	1.117384	0.281409	0.546114
C311	C	1.367384	0.531409	0.796114
C312	C	1.617384	0.781409	1.046114
C313	C	0.819805	0.064363	0.335532
C314	C	1.069805	0.314363	0.585532
C315	C	1.319805	0.564363	0.835532
C316	C	1.569805	0.814363	1.085532
C317	C	0.772207	0.097314	0.296141
C318	C	1.022207	0.347314	0.546141
C319	C	1.272207	0.597314	0.796141
C320	C	1.522207	0.847314	1.046141
C321	C	0.772200	0.097312	0.217341
C322	C	1.022200	0.347312	0.467341
C323	C	1.272200	0.597312	0.717341
C324	C	1.522200	0.847312	0.967341
C325	C	0.810231	0.108406	0.460363
C326	C	1.060231	0.358406	0.710363
C327	C	1.310231	0.608406	0.960363
C328	C	1.560231	0.858406	1.210363
C329	C	0.810244	0.108408	0.539162
C330	C	1.060244	0.358408	0.789162
C331	C	1.310244	0.608408	1.039162
C332	C	1.560244	0.858408	1.289162
C333	C	0.819823	0.064369	0.578578
C334	C	1.069823	0.314369	0.828578
C335	C	1.319823	0.564369	1.078578
C336	C	1.569823	0.814369	1.328578
C337	C	0.829406	0.020325	0.539186
C338	C	1.079406	0.270325	0.789186
C339	C	1.329406	0.520325	1.039186
C340	C	1.579406	0.770325	1.289186
C341	C	0.829399	0.020323	0.460385
C342	C	1.079399	0.270323	0.710385
C343	C	1.329399	0.520323	0.960385
C344	C	1.579399	0.770323	1.210385
C345	C	0.819807	0.064369	0.420977
C346	C	1.069807	0.314369	0.670977
C347	C	1.319807	0.564369	0.920977
C348	C	1.569807	0.814369	1.170977
C349	C	0.867420	0.031416	0.703405
C350	C	1.117420	0.281416	0.953405
C351	C	1.367420	0.531416	1.203405
C352	C	1.617420	0.781416	1.453405
C353	C	0.867419	0.031413	0.782209
C354	C	1.117419	0.281413	1.032209
C355	C	1.367419	0.531413	1.282209
C356	C	1.617419	0.781413	1.532209
C357	C	0.772245	0.097322	0.782234
C358	C	1.022245	0.347322	1.032234
C359	C	1.272245	0.597322	1.282234
C360	C	1.522245	0.847322	1.532234
C361	C	0.772243	0.097321	0.703432
C362	C	1.022243	0.347321	0.953432
C363	C	1.272243	0.597321	1.203432
C364	C	1.522243	0.847321	1.453432
C365	C	0.819834	0.064368	0.664023
C366	C	1.069834	0.314368	0.914023
C367	C	1.319834	0.564368	1.164023
C368	C	1.569834	0.814368	1.414023
H369	H	0.241891	0.124920	0.079325
H370	H	0.491891	0.374920	0.329325
H371	H	0.741891	0.624920	0.579325
H372	H	0.991891	0.874920	0.829325
Br373	Br	0.607401	-0.399623	-0.000213
Br374	Br	0.857401	-0.149623	0.249787
Br375	Br	1.107401	0.100377	0.499787
Br376	Br	1.357401	0.350377	0.749787
Br377	Br	0.665149	-0.788696	-0.000206
Br378	Br	0.915149	-0.538696	0.249794
Br379	Br	1.165149	-0.288696	0.499794
Br380	Br	1.415149	-0.038696	0.749794
H381	H	0.802418	0.144270	0.428277
H382	H	1.052418	0.394270	0.678277
H383	H	1.302418	0.644270	0.928277
H384	H	1.552418	0.894270	1.178277
H385	H	0.998512	-0.422320	-0.000282
H386	H	1.248512	-0.172320	0.249718
H387	H	1.498512	0.077680	0.499718
H388	H	1.748512	0.327680	0.749718
H389	H	0.999848	-0.330868	-0.000270
H390	H	1.249848	-0.080868	0.249730
H391	H	1.499848	0.169132	0.499730
H392	H	1.749848	0.419132	0.749730
H393	H	0.146211	0.142682	-0.000272
H394	H	0.396211	0.392682	0.249728
H395	H	0.646211	0.642682	0.499728
H396	H	0.896211	0.892682	0.749728
H397	H	0.733494	0.124152	0.671365
H398	H	0.983494	0.374152	0.921365
H399	H	1.233494	0.624152	1.171365
H400	H	1.483494	0.874152	1.421365
H401	H	0.906170	0.004580	0.814274
H402	H	1.156170	0.254580	1.064274
H403	H	1.406170	0.504580	1.314274
H404	H	1.656170	0.754580	1.564274
Br405	Br	0.963757	-0.816494	-0.000292
Br406	Br	1.213757	-0.566494	0.249708
Br407	Br	1.463757	-0.316494	0.499708
Br408	Br	1.713757	-0.066494	0.749708
H409	H	0.014793	0.141339	-0.000292
H410	H	0.264793	0.391339	0.249708
H411	H	0.514793	0.641339	0.499708
H412	H	0.764793	0.891339	0.749708
Br413	Br	0.707630	0.142035	0.349633
Br414	Br	0.957630	0.392035	0.599633
Br415	Br	1.207630	0.642035	0.849633
Br416	Br	1.457630	0.892035	1.099633
Br417	Br	0.607981	0.171358	-0.000202
Br418	Br	0.857981	0.421358	0.249798
Br419	Br	1.107981	0.671358	0.499798
Br420	Br	1.357981	0.921358	0.749798
H421	H	0.710057	-0.071667	-0.000175
H422	H	0.960057	0.178333	0.249825
H423	H	1.210057	0.428333	0.499825
H424	H	1.460057	0.678333	0.749825
Br425	Br	0.974478	-0.082571	-0.000230
Br426	Br	1.224478	0.167429	0.249770
Br427	Br	1.474478	0.417429	0.499770
Br428	Br	1.724478	0.667429	0.749770
H429	H	0.997640	-0.482111	-0.000286
H430	H	1.247640	-0.232111	0.249714
H431	H	1.497640	0.017889	0.499714
H432	H	1.747640	0.267889	0.749714
Br433	Br	0.707667	0.142041	0.835722
Br434	Br	0.957667	0.392041	1.085722
Br435	Br	1.207667	0.642041	1.335722
Br436	Br	1.457667	0.892041	1.585722
H437	H	0.708716	-0.163138	-0.000169
H438	H	0.958716	0.086862	0.249831
H439	H	1.208716	0.336862	0.499831
H440	H	1.458716	0.586862	0.749831
Br441	Br	0.666880	-0.669874	-0.000224
Br442	Br	0.916880	-0.419874	0.249776
Br443	Br	1.166880	-0.169874	0.499776
Br444	Br	1.416880	0.080126	0.749776
H445	H	0.461651	0.145899	-0.000214
H446	H	0.711651	0.395899	0.249786
H447	H	0.961651	0.645899	0.499786
H448	H	1.211651	0.895899	0.749786
H449	H	0.996296	-0.573576	-0.000295
H450	H	1.246296	-0.323576	0.249705
H451	H	1.496296	-0.073576	0.499705
H452	H	1.746296	0.176424	0.749705
Br453	Br	0.797247	0.168181	0.592615
Br454	Br	1.047247	0.418181	0.842615
Br455	Br	1.297247	0.668181	1.092615
Br456	Br	1.547247	0.918181	1.342615
H457	H	0.046551	-0.018511	-0.000317
H458	H	0.296551	0.231489	0.249683
H459	H	0.546551	0.481489	0.499683
H460	H	0.796551	0.731489	0.749683
Br461	Br	0.202391	-0.040886	-0.000231
Br462	Br	0.452391	0.209114	0.249769
Br463	Br	0.702391	0.459114	0.499769
Br464	Br	0.952391	0.709114	0.749769
H465	H	0.733446	0.124143	0.185276
H466	H	0.983446	0.374143	0.435276
H467	H	1.233446	0.624143	0.685276
H468	H	1.483446	0.874143	0.935276
Br469	Br	0.972751	-0.201395	-0.000259
Br470	Br	1.222751	0.048605	0.249741
Br471	Br	1.472751	0.298605	0.499741
Br472	Br	1.722751	0.548605	0.749741
Br473	Br	0.931963	-0.013310	0.163828
Br474	Br	1.181963	0.236690	0.413828
Br475	Br	1.431963	0.486690	0.663828
Br476	Br	1.681963	0.736690	0.913828
Br477	Br	0.250303	-0.016049	-0.103641
Br478	Br	0.500303	0.233951	0.146359
Br479	Br	0.750303	0.483951	0.396359
Br480	Br	1.000303	0.733951	0.646359
H481	H	0.373314	0.126263	0.079349
H482	H	0.623314	0.376263	0.329349
H483	H	0.873314	0.626263	0.579349
H484	H	1.123314	0.876263	0.829349
Br485	Br	0.931973	-0.013311	0.349570
Br486	Br	1.181973	0.236689	0.599570
Br487	Br	1.431973	0.486689	0.849570
Br488	Br	1.681973	0.736689	1.099570
Br489	Br	0.421052	-0.014312	-0.103600
Br490	Br	0.671052	0.235688	0.146400
Br491	Br	0.921052	0.485688	0.396400
Br492	Br	1.171052	0.735688	0.646400
H493	H	0.837199	-0.015539	0.428315
H494	H	1.087199	0.234461	0.678315
H495	H	1.337199	0.484461	0.928315
H496	H	1.587199	0.734461	1.178315
Br497	Br	0.478501	-0.038067	-0.000177
Br498	Br	0.728501	0.211933	0.249823
Br499	Br	0.978501	0.461933	0.499823
Br500	Br	1.228501	0.711933	0.749823
Br501	Br	0.605203	-0.550878	-0.000207
Br502	Br	0.855203	-0.300878	0.249793
Br503	Br	1.105203	-0.050878	0.499793
Br504	Br	1.355203	0.199122	0.749793
Br505	Br	0.842417	-0.039447	0.592668
Br506	Br	1.092417	0.210553	0.842668
Br507	Br	1.342417	0.460553	1.092668
Br508	Br	1.592417	0.710553	1.342668
Br509	Br	0.965503	-0.697654	-0.000273
Br510	Br	1.215503	-0.447654	0.249727
Br511	Br	1.465503	-0.197654	0.499727
Br512	Br	1.715503	0.052346	0.749727
Br513	Br	0.609144	-0.280801	-0.000213
Br514	Br	0.859144	-0.030801	0.249787
Br515	Br	1.109144	0.219199	0.499787
Br516	Br	1.359144	0.469199	0.749787
Br517	Br	0.649254	-0.036327	-0.000136
Br518	Br	0.899254	0.213673	0.249864
Br519	Br	1.149254	0.463673	0.499864
Br520	Br	1.399254	0.713673	0.749864
Br521	Br	0.932004	-0.013306	0.649919
Br522	Br	1.182004	0.236694	0.899919
Br523	Br	1.432004	0.486694	1.149919
Br524	Br	1.682004	0.736694	1.399919
H525	H	0.641128	-0.448942	-0.000208
H526	H	0.891128	-0.198942	0.249792
H527	H	1.141128	0.051058	0.499792
H528	H	1.391128	0.301058	0.749792
