data_functionalizedCrystal
_audit_creation_method	'MofGen! by Chris Wilmer'
_symmetry_space_group_name_H-M	'P1'
_symmetry_Int_Tables_number	1
_symmetry_cell_setting	triclinic
loop_
_symmetry_equiv_pos_as_xyz
  x,y,z
_cell_length_a	14.908520
_cell_length_b	14.908779
_cell_length_c	14.908308
_cell_angle_alpha	83.241764
_cell_angle_beta	96.360765
_cell_angle_gamma	90.163414
loop_
_atom_site_label
_atom_site_type_symbol
_atom_site_fract_x
_atom_site_fract_y
_atom_site_fract_z
Zn1	Zn	-0.462183	-1.325899	-0.460117
Zn2	Zn	-0.604822	-1.325796	-0.317493
Zn3	Zn	-0.445762	-1.184281	-0.316513
Zn4	Zn	-0.604768	-1.165773	-0.477546
O5	O	-0.529384	-1.250437	-0.392918
O6	O	-0.487999	-1.452123	-0.434314
O7	O	-0.576873	-1.314727	-0.190282
O8	O	-0.321700	-1.210855	-0.327859
O9	O	-0.592796	-1.452048	-0.329529
O10	O	-0.333764	-1.314901	-0.433364
O11	O	-0.460012	-1.210755	-0.189562
O12	O	-0.459960	-1.055588	-0.344759
O13	O	-0.592704	-1.179312	-0.602316
O14	O	-0.576781	-1.041990	-0.463069
O15	O	-0.487946	-1.296955	-0.589511
O16	O	-0.731055	-1.296781	-0.346429
O17	O	-0.731015	-1.179212	-0.464019
C18	C	-0.516583	-1.016057	-0.405699
C19	C	-0.511130	-0.915785	-0.411190
C20	C	-0.609840	-0.727304	-0.312209
C21	C	-0.604719	-0.633090	-0.317365
C22	C	-0.495773	-0.633140	-0.426665
C23	C	-0.500894	-0.727354	-0.421508
C24	C	-0.557928	-0.774433	-0.364277
C25	C	-0.563044	-0.868650	-0.359116
C26	C	-0.454103	-0.868697	-0.468420
C27	C	-0.448982	-0.774483	-0.473576
C28	C	-0.763770	-1.236000	-0.407240
C29	C	-0.864048	-1.229905	-0.413393
C30	C	-1.052472	-1.340988	-0.302596
C31	C	-1.146692	-1.335264	-0.308374
C32	C	-1.146710	-1.212738	-0.430731
C33	C	-1.052490	-1.218462	-0.424953
C34	C	-1.005374	-1.282588	-0.360882
C35	C	-0.911152	-1.288307	-0.355100
C36	C	-0.911172	-1.165786	-0.477461
C37	C	-1.005392	-1.160062	-0.483240
C38	C	-0.294084	-1.264954	-0.378558
C39	C	-0.193814	-1.271140	-0.372439
C40	C	-0.542151	-1.236080	-0.629785
C41	C	-0.547591	-1.229962	-0.730724
C42	C	-0.542229	-0.485734	-0.380079
C43	C	-0.547686	-0.586005	-0.374590
C44	C	-0.448710	-1.340967	-0.907066
C45	C	-0.453819	-1.335222	-1.001907
C46	C	-0.562913	-1.212723	-1.015248
C47	C	-0.557804	-1.218468	-0.920407
C48	C	-0.500701	-1.282593	-0.866319
C49	C	-0.495598	-1.288342	-0.771477
C50	C	-0.604686	-1.165840	-0.784820
C51	C	-0.609795	-1.160094	-0.879661
C52	C	-0.516604	-1.264794	-0.156964
C53	C	-0.510919	-1.271102	-0.056001
H54	H	-0.646993	-0.594721	-0.274967
H55	H	-0.449346	-0.594791	-0.473267
H56	H	-0.411828	-0.907080	-0.510813
N57	N	-0.387472	-0.723703	-0.535304
H58	H	-0.392104	-0.656867	-0.530672
H59	H	-0.323160	-0.744979	-0.516428
N60	N	-1.056214	-1.090894	-0.552332
H61	H	-1.012077	-1.054765	-0.588378
H62	H	-1.099527	-1.122653	-0.594789
H63	H	-1.014109	-1.393196	-0.250420
N64	N	-1.197496	-1.398240	-0.245502
H65	H	-1.240810	-1.435402	-0.282558
H66	H	-1.153293	-1.439672	-0.204048
N67	N	-0.860331	-1.357467	-0.285998
H68	H	-0.904468	-1.393596	-0.249954
H69	H	-0.825458	-1.399315	-0.318329
N70	N	-0.387142	-1.410136	-0.848716
H71	H	-0.322805	-1.399115	-0.862036
H72	H	-0.391882	-1.404877	-0.782478
H73	H	-1.185088	-1.160535	-0.482900
H74	H	-0.411479	-1.382753	-1.035078
N75	N	-0.671388	-1.090932	-0.937989
H76	H	-0.652970	-1.028343	-0.924138
H77	H	-0.666718	-1.096218	-1.004235
N78	N	-0.624559	-0.919434	-0.297397
H79	H	-0.587695	-0.963318	-0.250986
H80	H	-0.656659	-0.875220	-0.265260
N81	N	-0.624458	-1.143530	-1.073592
H82	H	-0.619789	-1.148739	-1.139856
H83	H	-0.688772	-1.154569	-1.060209
N84	N	-0.860374	-1.102787	-0.540328
H85	H	-0.793536	-1.116139	-0.526946
H86	H	-0.881064	-1.111838	-0.605445
N87	N	-0.434020	-1.357507	-0.713134
H88	H	-0.369686	-1.346472	-0.726461
H89	H	-0.438754	-1.352255	-0.646894
N90	N	-0.660772	-1.102862	-0.740891
H91	H	-0.702465	-1.139323	-0.702095
H92	H	-0.619655	-1.065707	-0.701633
N93	N	-0.671340	-0.778091	-0.250475
H94	H	-0.703447	-0.733938	-0.218268
H95	H	-0.717261	-0.812384	-0.287785
