data_functionalizedCrystal
_audit_creation_method	'MofGen! by Chris Wilmer'
_symmetry_space_group_name_H-M	'P1'
_symmetry_Int_Tables_number	1
_symmetry_cell_setting	triclinic
loop_
_symmetry_equiv_pos_as_xyz
  x,y,z
_cell_length_a	12.759399
_cell_length_b	14.908618
_cell_length_c	12.759393
_cell_angle_alpha	86.683802
_cell_angle_beta	90.030045
_cell_angle_gamma	93.289414
loop_
_atom_site_label
_atom_site_type_symbol
_atom_site_fract_x
_atom_site_fract_y
_atom_site_fract_z
Zn1	Zn	-0.511072	-1.379275	0.686650
Zn2	Zn	-0.686784	-1.379181	0.510969
Zn3	Zn	-0.500968	-1.228404	0.500855
Zn4	Zn	-0.676550	-1.228392	0.676481
O5	O	-0.593844	-1.303813	0.593739
O6	O	-0.542892	-1.505509	0.671835
O7	O	-0.662190	-1.359147	0.362604
O8	O	-0.355290	-1.248462	0.525524
O9	O	-0.671987	-1.505440	0.542763
O10	O	-0.362714	-1.359306	0.662027
O11	O	-0.525672	-1.248371	0.355173
O12	O	-0.515748	-1.102156	0.515663
O13	O	-0.654545	-1.248440	0.824853
O14	O	-0.644747	-1.102147	0.644694
O15	O	-0.532968	-1.359294	0.832325
O16	O	-0.832445	-1.359134	0.532901
O17	O	-0.824926	-1.248350	0.654502
C18	C	-0.866807	-1.303755	0.593720
C19	C	-0.983588	-1.303813	0.593753
C20	C	-0.578042	-1.069418	0.577978
C21	C	-0.571307	-0.969142	0.571260
C22	C	-1.034673	-1.246177	0.522647
C23	C	-1.144401	-1.246238	0.522668
C24	C	-1.151949	-1.361574	0.664910
C25	C	-1.042223	-1.361516	0.664883
C26	C	-1.030316	-1.179585	0.440528
C27	C	-1.140044	-1.179647	0.440549
C28	C	-0.693187	-0.780753	0.692817
C29	C	-0.686862	-0.686535	0.686509
C30	C	-0.552328	-0.686487	0.552342
C31	C	-0.558652	-0.780705	0.558650
C32	C	-0.629085	-0.827834	0.628889
C33	C	-0.635415	-0.922054	0.635191
C34	C	-0.500876	-0.922004	0.501030
C35	C	-0.494551	-0.827787	0.494722
C36	C	-0.319816	-1.303896	0.593782
C37	C	-0.203042	-1.303931	0.593800
C38	C	-0.593742	-1.303876	0.867776
C39	C	-0.593699	-1.303903	0.984555
C40	C	-0.609700	-0.539124	0.609554
C41	C	-0.616436	-0.639399	0.616273
C42	C	-0.593873	-1.303802	0.320771
C43	C	-0.593632	-1.303950	0.204004
C44	C	-0.530388	-1.361632	1.043310
C45	C	-0.530351	-1.361654	1.153035
C46	C	-0.656945	-1.246214	1.145241
C47	C	-0.656975	-1.246189	1.035518
C48	C	-0.457303	-1.428284	1.047811
C49	C	-0.457267	-1.428305	1.157536
H50	H	-1.199704	-1.408555	0.722821
H51	H	-0.739058	-0.648205	0.738569
C52	C	-0.351955	-1.395126	1.200867
C53	C	-0.311941	-1.463004	1.267176
C54	C	-0.214945	-1.432461	1.307126
H55	H	-0.304339	-1.380084	1.144529
H56	H	-0.360924	-1.343408	1.239345
H57	H	-0.302967	-1.514705	1.228699
H58	H	-0.359527	-1.478053	1.323530
H59	H	-0.223913	-1.380744	1.345604
H60	H	-0.167338	-1.417420	1.250783
H61	H	-0.187787	-1.478508	1.352129
H62	H	-0.437204	-0.789401	0.437538
H63	H	-0.750541	-0.819126	0.750003
H64	H	-1.001841	-1.198318	0.360428
H65	H	-1.165176	-1.109783	0.457597
H66	H	-0.483764	-1.498177	1.192009
H67	H	-1.000631	-1.408456	0.722774
C68	C	-0.711907	-0.973063	0.711555
C69	C	-0.766667	-0.911660	0.766212
C70	C	-0.837129	-0.958613	0.836582
H71	H	-0.760203	-1.009800	0.673873
H72	H	-0.674255	-1.009821	0.759913
H73	H	-0.804317	-0.874917	0.717861
H74	H	-0.718399	-0.874921	0.803916
H75	H	-0.799477	-0.995371	0.884940
H76	H	-0.885417	-0.995348	0.798891
H77	H	-0.874285	-0.916958	0.873682
H78	H	-0.991859	-1.113184	0.465142
H79	H	-0.448682	-0.960348	0.448972
H80	H	-0.708525	-1.199177	0.987683
H81	H	-1.175792	-1.204724	0.364966
C82	C	-0.725616	-1.183660	1.200772
C83	C	-0.712059	-1.196050	1.309440
C84	C	-0.775315	-1.138450	1.360626
H85	H	-0.706224	-1.123008	1.178840
H86	H	-0.797125	-1.196847	1.183722
H87	H	-0.640566	-1.182857	1.326482
H88	H	-0.731458	-1.256690	1.331402
H89	H	-0.846824	-1.151638	1.343576
H90	H	-0.755918	-1.077802	1.338686
H91	H	-0.766133	-1.146855	1.434363
C92	C	-0.347165	-1.403170	1.006493
C93	C	-0.314851	-1.317351	1.037417
C94	C	-0.213408	-1.294181	0.999362
H95	H	-0.300283	-1.445722	1.034157
H96	H	-0.347159	-1.403099	0.932029
H97	H	-0.314850	-1.317428	1.111866
H98	H	-0.361705	-1.274780	1.009755
H99	H	-0.213402	-1.294110	0.924898
H100	H	-0.166535	-1.336738	1.027029
H101	H	-0.191474	-1.235948	1.020330
C102	C	-0.475924	-0.635146	0.476161
C103	C	-0.484106	-0.542558	0.484328
C104	C	-0.413731	-0.495235	0.414174
H105	H	-0.406353	-0.650511	0.492650
H106	H	-0.492222	-0.650477	0.406533
H107	H	-0.467801	-0.527233	0.553941
H108	H	-0.553661	-0.527167	0.467829
H109	H	-0.430030	-0.510566	0.344546
H110	H	-0.344165	-0.510606	0.430670
H111	H	-0.419280	-0.432409	0.419699
H112	H	-0.490940	-1.494636	1.018233
