data_functionalizedCrystal
_audit_creation_method	'MofGen! by Chris Wilmer'
_symmetry_space_group_name_H-M	'P1'
_symmetry_Int_Tables_number	1
_symmetry_cell_setting	triclinic
loop_
_symmetry_equiv_pos_as_xyz
  x,y,z
_cell_length_a	19.805407
_cell_length_b	19.120904
_cell_length_c	19.805399
_cell_angle_alpha	87.529423
_cell_angle_beta	90.019573
_cell_angle_gamma	87.528276
loop_
_atom_site_label
_atom_site_type_symbol
_atom_site_fract_x
_atom_site_fract_y
_atom_site_fract_z
Zn1	Zn	1.023213	0.279646	0.371208
Zn2	Zn	1.523213	0.779646	0.871208
Zn3	Zn	1.018288	0.397105	0.253184
Zn4	Zn	1.518288	0.897105	0.753184
Zn5	Zn	0.910026	0.279666	0.258031
Zn6	Zn	1.410026	0.779666	0.758031
Zn7	Zn	0.905152	0.397068	0.366332
Zn8	Zn	1.405152	0.897068	0.866332
O9	O	0.964170	0.338371	0.312189
O10	O	1.464170	0.838371	0.812189
O11	O	1.117276	0.295235	0.355563
O12	O	1.617276	0.795235	0.855563
O13	O	1.003905	0.381550	0.159109
O14	O	1.503905	0.881550	0.659109
O15	O	0.929142	0.181373	0.277113
O16	O	1.429142	0.681373	0.777113
O17	O	1.113657	0.381532	0.268852
O18	O	1.613657	0.881532	0.768852
O19	O	1.012299	0.181359	0.360263
O20	O	1.512299	0.681359	0.860263
O21	O	0.924366	0.295268	0.162671
O22	O	1.424366	0.795268	0.662671
O23	O	0.814664	0.295232	0.272386
O24	O	1.314664	0.795232	0.772386
O25	O	0.920835	0.381468	0.461696
O26	O	1.420835	0.881468	0.961696
O27	O	0.811083	0.381487	0.351954
O28	O	1.311083	0.881487	0.851954
O29	O	1.007573	0.295199	0.465278
O30	O	1.507573	0.795199	0.965278
O31	O	0.999179	0.495391	0.264124
O32	O	1.499179	0.995391	0.764124
O33	O	0.916059	0.495363	0.347254
O34	O	1.416059	0.995363	0.847254
C35	C	0.788314	0.338358	0.312167
C36	C	1.288314	0.838358	0.812167
C37	C	0.713082	0.338369	0.312174
C38	C	1.213082	0.838369	0.812174
C39	C	0.956574	0.520862	0.304649
C40	C	1.456574	1.020862	0.804649
C41	C	0.953386	0.598933	0.301446
C42	C	1.453386	1.098933	0.801446
C43	C	0.675888	0.383350	0.353532
C44	C	1.175888	0.883350	0.853532
C45	C	0.605199	0.383351	0.353541
C46	C	1.105199	0.883351	0.853541
C47	C	0.571706	0.338374	0.312189
C48	C	1.071706	0.838374	0.812189
C49	C	0.608905	0.293389	0.270829
C50	C	1.108905	0.793389	0.770829
C51	C	0.679592	0.293385	0.270823
C52	C	1.179592	0.793385	0.770823
C53	C	0.323831	0.293404	0.270850
C54	C	0.823831	0.793404	0.770850
C55	C	0.253139	0.293414	0.270857
C56	C	0.753139	0.793414	0.770857
C57	C	0.249438	0.383371	0.353569
C58	C	0.749438	0.883371	0.853569
C59	C	0.320126	0.383366	0.353563
C60	C	0.820126	0.883366	0.853563
C61	C	0.357319	0.338379	0.312206
C62	C	0.857319	0.838379	0.812206
C63	C	0.433967	0.338377	0.312197
C64	C	0.933967	0.838377	0.812197
C65	C	0.495059	0.338379	0.312193
C66	C	0.995059	0.838379	0.812193
C67	C	0.995152	0.635543	0.343268
C68	C	1.495152	1.135543	0.843268
C69	C	0.992154	0.708898	0.340259
C70	C	1.492154	1.208898	0.840259
C71	C	0.947394	0.745642	0.295425
C72	C	1.447394	1.245642	0.795425
C73	C	0.905623	0.709027	0.253601
C74	C	1.405623	1.209027	0.753601
C75	C	0.908618	0.635673	0.256613
C76	C	1.408618	1.135673	0.756613
C77	C	0.936183	0.967128	0.284165
C78	C	1.436183	1.467128	0.784165
C79	C	0.933193	1.040487	0.281155
C80	C	1.433193	1.540487	0.781155
C81	C	1.019724	1.040353	0.367814
C82	C	1.519724	1.540353	0.867814
C83	C	1.022717	0.966997	0.370820
C84	C	1.522717	1.466997	0.870820
C85	C	0.980945	0.930389	0.328998
C86	C	1.480945	1.430389	0.828998
C87	C	0.944330	0.820624	0.292347
C88	C	1.444330	1.320624	0.792347
C89	C	0.984006	0.855409	0.332080
C90	C	1.484006	1.355409	0.832080
C91	C	1.140712	0.338385	0.312210
C92	C	1.640712	0.838385	0.812210
C93	C	1.215944	0.338391	0.312220
C94	C	1.715944	0.838391	0.812220
C95	C	0.964210	0.338327	0.488733
C96	C	1.464210	0.838327	0.988733
C97	C	0.964227	0.338308	0.563966
C98	C	1.464227	0.838308	1.063966
C99	C	0.971786	1.155168	0.319766
C100	C	1.471786	1.655168	0.819766
C101	C	0.974959	1.077097	0.322977
C102	C	1.474959	1.577097	0.822977
C103	C	0.964171	0.338365	0.136333
C104	C	1.464171	0.838365	0.636333
C105	C	0.964294	0.338186	0.061109
C106	C	1.464294	0.838186	0.561109
C107	C	1.009392	0.293386	0.601177
C108	C	1.509392	0.793386	1.101177
C109	C	1.009400	0.293365	0.671866
C110	C	1.509400	0.793365	1.171866
C111	C	0.964245	0.338271	0.705343
C112	C	1.464245	0.838271	1.205343
C113	C	0.919074	0.383196	0.668128
C114	C	1.419074	0.883196	1.168128
C115	C	0.919064	0.383212	0.597440
C116	C	1.419064	0.883212	1.097440
C117	C	0.919115	0.383131	0.953204
C118	C	1.419115	0.883131	1.453204
C119	C	0.919131	0.383112	1.023897
C120	C	1.419131	0.883112	1.523897
C121	C	1.009451	0.293283	1.027630
C122	C	1.509451	0.793283	1.527630
C123	C	1.009441	0.293300	0.956942
C124	C	1.509441	0.793300	1.456942
C125	C	0.964268	0.338221	0.919733
C126	C	1.464268	0.838221	1.419733
C127	C	0.964259	0.338242	0.843084
C128	C	1.464259	0.838242	1.343084
C129	C	0.964256	0.338255	0.781991
C130	C	1.464256	0.838255	1.281991
H131	H	0.703153	0.419977	0.387204
H132	H	1.203153	0.919977	0.887204
H133	H	1.059165	0.937082	0.407328
H134	H	1.559165	1.437082	0.907328
C135	C	0.869449	0.432510	1.060721
C136	C	1.369449	0.932510	1.560721
N137	N	0.832031	0.469714	1.088456
N138	N	1.332031	0.969714	1.588456
C139	C	0.572060	0.243913	0.225342
C140	C	1.072060	0.743913	0.725342
N141	N	0.544309	0.206648	0.191078
N142	N	1.044309	0.706648	0.691078
H143	H	1.046213	0.256735	0.929688
H144	H	1.546213	0.756735	1.429688
H145	H	1.053732	1.070167	0.401864
H146	H	1.553732	1.570167	0.901864
C147	C	0.895155	0.861050	0.242970
C148	C	1.395155	1.361050	0.742970
N149	N	0.858136	0.891501	0.205759
N150	N	1.358136	1.391501	0.705759
C151	C	0.869397	0.432587	0.704956
C152	C	1.369397	0.932587	1.204956
N153	N	0.831978	0.469789	0.732694
N154	N	1.331978	0.969789	1.232694
C155	C	1.059135	0.243859	1.068567
C156	C	1.559135	0.743859	1.568567
N157	N	1.096555	0.206634	1.099399
N158	N	1.596555	0.706634	1.599399
H159	H	0.882279	0.419786	0.567144
H160	H	1.382279	0.919786	1.067144
H161	H	0.896740	1.070402	0.244645
H162	H	1.396740	1.570402	0.744645
C163	C	0.564289	0.432847	0.399025
C164	C	1.064289	0.932847	0.899025
N165	N	0.533475	0.470133	0.433281
N166	N	1.033475	0.970133	0.933281
C167	C	0.869422	0.432544	0.912283
C168	C	1.369422	0.932544	1.412283
N169	N	0.831989	0.469763	0.881459
N170	N	1.331989	0.969763	1.381459
H171	H	0.869175	0.738951	0.217099
H172	H	1.369175	1.238951	0.717099
C173	C	0.356964	0.432845	0.399053
C174	C	0.856964	0.932845	0.899053
N175	N	0.384710	0.470111	0.433320
N176	N	0.884710	0.970111	0.933320
H177	H	0.219147	0.419999	0.387246
H178	H	0.719147	0.919999	0.887246
C179	C	0.364734	0.243921	0.225352
C180	C	0.864734	0.743921	0.725352
N181	N	0.395545	0.206649	0.191079
N182	N	0.895545	0.706649	0.691079
C183	C	0.216298	0.243928	0.225369
C184	C	0.716298	0.743928	0.725369
N185	N	0.188549	0.206657	0.191110
N186	N	0.688549	0.706657	0.691110
H187	H	1.031604	0.605630	0.379774
H188	H	1.531604	1.105630	0.879774
C189	C	1.038109	0.749166	0.386259
C190	C	1.538109	1.249166	0.886259
N191	N	1.072727	0.779495	0.420904
N192	N	1.572727	1.279495	0.920904
C193	C	0.720505	0.243904	0.225324
C194	C	1.220505	0.743904	0.725324
N195	N	0.751320	0.206633	0.191054
N196	N	1.251320	0.706633	0.691054
C197	C	0.862673	0.595403	0.210605
C198	C	1.362673	1.095403	0.710605
N199	N	0.828064	0.565072	0.175951
N200	N	1.328064	1.065072	0.675951
H201	H	1.020447	0.825490	0.368587
H202	H	1.520447	1.325490	0.868587
C203	C	1.059067	0.243984	0.564358
C204	C	1.559067	0.743984	1.064358
N205	N	1.096481	0.206770	0.536629
N206	N	1.596481	0.706770	1.036629
H207	H	1.046180	0.256786	0.702160
H208	H	1.546180	0.756786	1.202160
H209	H	0.902172	0.937327	0.250111
H210	H	1.402172	1.437327	0.750111
