data_functionalizedCrystal
_audit_creation_method	'MofGen! by Chris Wilmer'
_symmetry_space_group_name_H-M	'P1'
_symmetry_Int_Tables_number	1
_symmetry_cell_setting	triclinic
loop_
_symmetry_equiv_pos_as_xyz
  x,y,z
_cell_length_a	12.759401
_cell_length_b	18.050590
_cell_length_c	12.759393
_cell_angle_alpha	89.965321
_cell_angle_beta	89.980404
_cell_angle_gamma	90.018830
loop_
_atom_site_label
_atom_site_type_symbol
_atom_site_fract_x
_atom_site_fract_y
_atom_site_fract_z
Zn1	Zn	1.606238	-0.295618	-0.593952
Zn2	Zn	2.106238	0.204382	-0.093952
Zn3	Zn	1.606117	-0.419826	-0.418259
Zn4	Zn	2.106117	0.080174	0.081741
Zn5	Zn	1.430537	-0.295655	-0.418291
Zn6	Zn	1.930537	0.204345	0.081709
Zn7	Zn	1.430517	-0.419771	-0.593901
Zn8	Zn	1.930517	0.080229	-0.093901
O9	O	1.518352	-0.357718	-0.506101
O10	O	2.018352	0.142282	-0.006101
O11	O	1.753243	-0.312102	-0.570654
O12	O	2.253243	0.187898	-0.070654
O13	O	1.582784	-0.403393	-0.271242
O14	O	2.082784	0.096607	0.228758
O15	O	1.453903	-0.191725	-0.441628
O16	O	1.953903	0.308275	0.058372
O17	O	1.753155	-0.403357	-0.441573
O18	O	2.253155	0.096643	0.058427
O19	O	1.582990	-0.191698	-0.570685
O20	O	2.082990	0.308302	-0.070685
O21	O	1.453786	-0.312165	-0.271266
O22	O	1.953786	0.187835	0.228734
O23	O	1.283513	-0.312112	-0.441578
O24	O	1.783513	0.187888	0.058422
O25	O	1.453869	-0.403264	-0.740929
O26	O	1.953869	0.096736	-0.240929
O27	O	1.283499	-0.403300	-0.570597
O28	O	1.783499	0.096700	-0.070597
O29	O	1.582971	-0.312049	-0.740966
O30	O	2.082971	0.187951	-0.240966
O31	O	1.582765	-0.523743	-0.441524
O32	O	2.082765	-0.023743	0.058476
O33	O	1.453752	-0.523703	-0.570566
O34	O	1.953752	-0.023703	-0.070566
C35	C	1.245385	-0.357704	-0.506086
C36	C	1.745385	0.142296	-0.006086
C37	C	1.128608	-0.357716	-0.506105
C38	C	1.628608	0.142284	-0.006105
C39	C	0.964035	-0.405281	-0.573187
C40	C	1.464035	0.094719	-0.073187
C41	C	1.073759	-0.405273	-0.573176
C42	C	1.573759	0.094727	-0.073176
C43	C	1.073728	-0.310170	-0.439033
C44	C	1.573728	0.189830	0.060967
C45	C	0.964006	-0.310183	-0.439039
C46	C	1.464006	0.189817	0.060961
C47	C	1.518272	-0.550670	-0.506059
C48	C	2.018272	-0.050670	-0.006059
C49	C	1.518333	-0.633215	-0.506076
C50	C	2.018333	-0.133215	-0.006076
C51	C	1.588636	-0.832661	-0.436000
C52	C	2.088636	-0.332661	0.064000
C53	C	1.614306	-0.881986	-0.531887
C54	C	2.114306	-0.381986	-0.031887
C55	C	1.518393	-0.784346	-0.506118
C56	C	2.018393	-0.284346	-0.006118
C57	C	1.492831	-0.882102	-0.410275
C58	C	1.992831	-0.382102	0.089725
C59	C	1.518452	-0.930331	-0.506150
C60	C	2.018452	-0.430331	-0.006150
C61	C	1.544111	-0.832584	-0.602055
C62	C	2.044111	-0.332584	-0.102055
C63	C	1.422592	-0.832696	-0.480378
C64	C	1.922592	-0.332696	0.019622
C65	C	1.448224	-0.881998	-0.576330
C66	C	1.948224	-0.381998	-0.076330
C67	C	1.518361	-0.700247	-0.506098
C68	C	2.018361	-0.200247	-0.006098
C69	C	1.518484	-1.014427	-0.506181
C70	C	2.018484	-0.514427	-0.006181
C71	C	1.792386	-0.357731	-0.506116
C72	C	2.292386	0.142269	-0.006116
C73	C	1.909162	-0.357737	-0.506122
C74	C	2.409162	0.142263	-0.006122
C75	C	1.518431	-0.357646	-0.780134
C76	C	2.018431	0.142354	-0.280134
C77	C	1.518465	-0.357616	-0.896911
C78	C	2.018465	0.142384	-0.396911
C79	C	1.518462	-0.164012	-0.506166
C80	C	2.018462	0.335988	-0.006166
C81	C	1.518509	-0.081466	-0.506193
C82	C	2.018509	0.418534	-0.006193
C83	C	1.585693	-0.310113	-0.951794
C84	C	2.085693	0.189887	-0.451794
C85	C	1.585711	-0.310081	-1.061518
C86	C	2.085711	0.189919	-0.561518
C87	C	1.451269	-0.405061	-1.061466
C88	C	1.951269	0.094939	-0.561466
C89	C	1.451247	-0.405089	-0.951744
C90	C	1.951247	0.094911	-0.451744
C91	C	1.518335	-0.357735	-0.233133
C92	C	2.018335	0.142265	0.266867
C93	C	1.518505	-0.357556	-0.116357
C94	C	2.018505	0.142444	0.383643
H95	H	0.919385	-0.444004	-0.627810
H96	H	1.419385	0.055996	-0.127810
H97	H	1.640423	-0.271455	-0.907152
H98	H	2.140423	0.228545	-0.407152
Cl99	Cl	1.739432	-0.915400	-0.565551
Cl100	Cl	2.239432	-0.415400	-0.065551
Cl101	Cl	1.142738	-0.465048	-0.657487
Cl102	Cl	1.642738	0.034952	-0.157487
Cl103	Cl	1.142681	-0.250387	-0.354711
Cl104	Cl	1.642681	0.249613	0.145289
Cl105	Cl	1.366777	-0.464743	-1.130407
Cl106	Cl	1.866777	0.035257	-0.630407
H107	H	1.640453	-0.271398	-1.106200
H108	H	2.140453	0.228602	-0.606200
Cl109	Cl	1.577692	-0.799149	-0.727249
Cl110	Cl	2.077692	-0.299149	-0.227249
Cl111	Cl	1.366718	-0.464808	-0.882743
Cl112	Cl	1.866718	0.035192	-0.382743
Cl113	Cl	0.895017	-0.250411	-0.354719
Cl114	Cl	1.395017	0.249589	0.145281
H115	H	1.648059	-0.810997	-0.376766
H116	H	2.148059	-0.310997	0.123234
Cl117	Cl	1.356551	-0.915239	-0.668001
Cl118	Cl	1.856551	-0.415239	-0.168001
H119	H	1.341572	-0.811026	-0.458557
H120	H	1.841572	-0.311026	0.041443
H121	H	1.471186	-0.903853	-0.329208
H122	H	1.971186	-0.403853	0.170792
