data_functionalizedCrystal
_audit_creation_method	'MofGen! by Chris Wilmer'
_symmetry_space_group_name_H-M	'P1'
_symmetry_Int_Tables_number	1
_symmetry_cell_setting	triclinic
loop_
_symmetry_equiv_pos_as_xyz
  x,y,z
_cell_length_a	10.654556
_cell_length_b	14.044190
_cell_length_c	9.730223
_cell_angle_alpha	89.993542
_cell_angle_beta	89.999363
_cell_angle_gamma	88.839593
loop_
_atom_site_label
_atom_site_type_symbol
_atom_site_fract_x
_atom_site_fract_y
_atom_site_fract_z
O1	O	1.681225	0.133256	-0.114321
O2	O	1.317023	0.145943	-0.114323
O3	O	1.493652	0.001578	-0.114295
O4	O	1.504595	0.277620	-0.114349
O5	O	1.493651	0.001582	0.114285
O6	O	1.317021	0.145947	0.114257
O7	O	1.681223	0.133259	0.114259
Zn8	Zn	1.499122	0.139604	0.150550
Zn9	Zn	1.499124	0.139599	-0.150614
O10	O	1.504593	0.277624	0.114231
C11	C	1.270130	0.145012	-0.000032
C12	C	1.130407	0.142221	-0.000032
C13	C	1.488864	-0.033766	-0.000001
C14	C	1.474585	-0.139086	0.000011
C15	C	0.933483	0.138292	-0.124641
C16	C	1.064768	0.140909	-0.124636
C17	C	1.064754	0.140907	0.124575
C18	C	0.933471	0.138284	0.124568
C19	C	0.933492	0.138297	-0.268521
C20	C	1.064777	0.140914	-0.268515
C21	C	1.549751	-0.388877	-0.000043
C22	C	1.448501	-0.331915	-0.000033
C23	C	1.463018	-0.224615	-0.000009
C24	C	1.535235	-0.496187	-0.000067
C25	C	1.728115	0.134190	-0.000034
C26	C	1.867839	0.136981	-0.000044
C27	C	1.509381	0.312968	-0.000066
C28	C	1.523660	0.418288	-0.000087
N29	N	1.499129	0.139606	0.356086
N30	N	1.499126	0.139588	-0.356150
C31	C	1.577365	0.075703	0.428025
C32	C	1.577360	0.075692	0.571908
C33	C	1.420881	0.203494	0.571901
C34	C	1.420880	0.203501	0.428021
C35	C	1.667711	0.001920	0.428030
C36	C	1.667707	0.001909	0.571913
H37	H	0.880030	0.137197	0.226027
F38	F	1.677294	-0.347290	-0.000026
F39	F	1.337597	0.271502	0.351459
H40	H	1.350915	-0.363734	-0.000042
H41	H	1.357172	0.255515	0.630486
F42	F	1.134615	0.142294	0.257188
F43	F	1.795988	0.023147	0.622957
F44	F	1.630104	-0.093376	0.376995
F45	F	0.874779	0.226594	-0.326892
F46	F	0.892239	0.050757	-0.340716
H47	H	1.109693	0.073355	-0.313148
H48	H	1.761217	0.025025	0.383399
F49	F	1.106044	0.228456	-0.340727
H50	H	1.630268	-0.066991	0.616541
