data_functionalizedCrystal
_audit_creation_method	'MofGen! by Chris Wilmer'
_symmetry_space_group_name_H-M	'P1'
_symmetry_Int_Tables_number	1
_symmetry_cell_setting	triclinic
loop_
_symmetry_equiv_pos_as_xyz
  x,y,z
_cell_length_a	10.654562
_cell_length_b	15.944551
_cell_length_c	15.021413
_cell_angle_alpha	89.990496
_cell_angle_beta	89.992213
_cell_angle_gamma	83.994421
loop_
_atom_site_label
_atom_site_type_symbol
_atom_site_fract_x
_atom_site_fract_y
_atom_site_fract_z
O1	O	1.666305	0.118032	-0.074093
O2	O	1.300683	0.129261	-0.074082
O3	O	1.493478	0.001430	-0.074080
O4	O	1.473510	0.245863	-0.074095
O5	O	1.493461	0.001416	0.073985
O6	O	1.300666	0.129247	0.073982
O7	O	1.666288	0.118019	0.073971
Zn8	Zn	1.483474	0.123631	0.097485
Zn9	Zn	1.483497	0.123648	-0.097596
O10	O	1.473493	0.245850	0.073969
C11	C	1.253888	0.128427	-0.000048
C12	C	1.114477	0.125954	-0.000044
C13	C	1.048952	0.124793	0.080659
C14	C	0.917960	0.122476	0.080644
C15	C	0.918029	0.122484	-0.080783
C16	C	1.049020	0.124795	-0.080768
C17	C	1.114410	0.125952	0.161383
C18	C	1.048885	0.124792	0.242092
C19	C	0.917892	0.122474	0.242078
C20	C	0.852425	0.121317	0.161353
C21	C	1.492641	-0.029876	-0.000047
C22	C	1.490156	-0.123136	-0.000047
C23	C	1.364712	-0.338723	-0.000055
C24	C	1.422955	-0.399408	0.072948
C25	C	1.485660	-0.293888	-0.000053
C26	C	1.423001	-0.399378	-0.073032
C27	C	1.481308	-0.458826	-0.000064
C28	C	1.543936	-0.353345	0.073010
C29	C	1.543965	-0.353309	-0.073036
C30	C	1.602296	-0.413976	-0.000015
C31	C	1.488163	-0.198872	-0.000047
C32	C	1.478814	-0.553842	-0.000064
C33	C	1.713084	0.118852	-0.000064
C34	C	1.852494	0.121325	-0.000074
C35	C	1.474330	0.277155	-0.000065
C36	C	1.476816	0.370416	-0.000071
N37	N	1.483468	0.123618	0.230623
N38	N	1.483513	0.123654	-0.230733
C39	C	1.571949	0.064032	0.529615
C40	C	1.597346	0.139850	0.470243
C41	C	1.483498	0.123644	0.587660
C42	C	1.458146	0.047816	0.470291
C43	C	1.483487	0.123627	0.412236
C44	C	1.508952	0.199501	0.529594
C45	C	1.369702	0.107416	0.529647
C46	C	1.395051	0.183289	0.470301
C47	C	1.483508	0.123652	0.688717
C48	C	1.483476	0.123628	0.311181
H49	H	1.102371	0.125745	-0.146483
Cl50	Cl	1.343967	-0.430923	0.168241
Cl51	Cl	1.425035	-0.051180	0.430077
Cl52	Cl	1.279084	0.128871	0.161407
Cl53	Cl	1.622844	-0.322036	0.168402
H54	H	1.371836	-0.419747	-0.134755
H55	H	1.693577	0.153575	0.444150
H56	H	1.702777	-0.446550	0.000023
Cl57	Cl	1.221174	0.086190	0.569966
H58	H	1.646805	0.013684	0.555658
H59	H	1.530495	0.263637	0.555535
H60	H	1.102198	0.125728	0.307815
H61	H	0.864546	0.121523	0.307795
H62	H	0.745763	0.119428	0.161348
Cl63	Cl	0.835727	0.121023	-0.182258
H64	H	1.595084	-0.332875	-0.134760
H65	H	1.264320	-0.305999	0.000021
Cl66	Cl	1.279554	0.261192	0.430337
