data_functionalizedCrystal
_audit_creation_method	'MofGen! by Chris Wilmer'
_symmetry_space_group_name_H-M	'P1'
_symmetry_Int_Tables_number	1
_symmetry_cell_setting	triclinic
loop_
_symmetry_equiv_pos_as_xyz
  x,y,z
_cell_length_a	13.897449
_cell_length_b	13.897448
_cell_length_c	21.395355
_cell_angle_alpha	89.984371
_cell_angle_beta	89.973949
_cell_angle_gamma	90.018519
loop_
_atom_site_label
_atom_site_type_symbol
_atom_site_fract_x
_atom_site_fract_y
_atom_site_fract_z
Zn1	Zn	1.474728	-0.384105	-0.354299
Zn2	Zn	1.808061	-0.050772	-0.020966
Zn3	Zn	2.141395	0.282561	0.312368
Zn4	Zn	1.474614	-0.545385	-0.249527
Zn5	Zn	1.807948	-0.212052	0.083806
Zn6	Zn	2.141281	0.121282	0.417140
Zn7	Zn	1.313410	-0.384108	-0.249533
Zn8	Zn	1.646743	-0.050775	0.083800
Zn9	Zn	1.980076	0.282559	0.417134
Zn10	Zn	1.313399	-0.545362	-0.354264
Zn11	Zn	1.646732	-0.212029	-0.020931
Zn12	Zn	1.980065	0.121304	0.312402
O13	O	1.394038	-0.464740	-0.301906
O14	O	1.727371	-0.131407	0.031428
O15	O	2.060704	0.201927	0.364761
O16	O	1.609694	-0.405508	-0.340413
O17	O	1.943028	-0.072174	-0.007079
O18	O	2.276361	0.261159	0.326254
O19	O	1.453187	-0.524002	-0.161850
O20	O	1.786521	-0.190668	0.171484
O21	O	2.119854	0.142665	0.504817
O22	O	1.334861	-0.249126	-0.263448
O23	O	1.668194	0.084207	0.069886
O24	O	2.001527	0.417541	0.403219
O25	O	1.609611	-0.523999	-0.263437
O26	O	1.942944	-0.190666	0.069896
O27	O	2.276278	0.142667	0.403230
O28	O	1.453381	-0.249124	-0.340419
O29	O	1.786714	0.084209	-0.007085
O30	O	2.120047	0.417543	0.326248
O31	O	1.334751	-0.405512	-0.161854
O32	O	1.668084	-0.072179	0.171479
O33	O	2.001417	0.261155	0.504812
O34	O	1.178427	-0.405490	-0.263414
O35	O	1.511760	-0.072157	0.069919
O36	O	1.845093	0.261176	0.403253
O37	O	1.334842	-0.523961	-0.441947
O38	O	1.668176	-0.190627	-0.108614
O39	O	2.001509	0.142706	0.224720
O40	O	1.178419	-0.523963	-0.340360
O41	O	1.511752	-0.190630	-0.007026
O42	O	1.845085	0.142703	0.326307
O43	O	1.453370	-0.405486	-0.441972
O44	O	1.786704	-0.072153	-0.108639
O45	O	2.120037	0.261181	0.224694
O46	O	1.453177	-0.680364	-0.263403
O47	O	1.786510	-0.347030	0.069930
O48	O	2.119843	-0.013697	0.403263
O49	O	1.334732	-0.680347	-0.340354
O50	O	1.668066	-0.347014	-0.007020
O51	O	2.001399	-0.013680	0.326313
C52	C	1.143423	-0.464725	-0.301884
C53	C	1.476757	-0.131392	0.031449
C54	C	1.810090	0.201941	0.364783
C55	C	1.036209	-0.464742	-0.301889
C56	C	1.369543	-0.131409	0.031444
C57	C	1.702876	0.201925	0.364777
C58	C	0.949140	-0.464745	-0.301900
C59	C	1.282473	-0.131412	0.031433
C60	C	1.615806	0.201921	0.364767
C61	C	0.839907	-0.464752	-0.301919
C62	C	1.173240	-0.131419	0.031414
C63	C	1.506574	0.201915	0.364748
C64	C	1.393967	-0.715354	-0.301888
C65	C	1.727301	-0.382021	0.031446
C66	C	2.060634	-0.048688	0.364779
C67	C	1.394025	-0.822568	-0.301901
C68	C	1.727359	-0.489235	0.031432
C69	C	2.060692	-0.155902	0.364766
C70	C	1.394127	-1.018863	-0.301940
C71	C	1.727460	-0.685530	0.031393
C72	C	2.060793	-0.352197	0.364726
C73	C	1.394068	-0.909631	-0.301920
C74	C	1.727401	-0.576298	0.031413
C75	C	2.060734	-0.242964	0.364746
C76	C	1.645631	-0.464756	-0.301928
C77	C	1.978964	-0.131422	0.031405
C78	C	2.312297	0.201911	0.364739
C79	C	1.752845	-0.464762	-0.301938
C80	C	2.086178	-0.131429	0.031396
C81	C	2.419511	0.201904	0.364729
C82	C	1.394118	-0.464721	-0.465329
C83	C	1.727451	-0.131387	-0.131996
C84	C	2.060784	0.201946	0.201338
C85	C	1.394152	-0.464712	-0.534970
C86	C	1.727485	-0.131379	-0.201637
C87	C	2.060819	0.201954	0.131696
C88	C	1.394135	-0.213147	-0.301938
C89	C	1.727468	0.120186	0.031396
C90	C	2.060801	0.453520	0.364729
C91	C	1.394176	-0.105933	-0.301951
C92	C	1.727509	0.227400	0.031382
C93	C	2.060843	0.560733	0.364715
C94	C	1.455867	-0.403020	-0.567698
C95	C	1.789200	-0.069686	-0.234365
C96	C	2.122533	0.263647	0.098969
C97	C	1.455865	-0.402978	-0.633133
C98	C	1.789199	-0.069645	-0.299800
C99	C	2.122532	0.263688	0.033533
C100	C	1.394159	-0.464647	-0.665839
C101	C	1.727493	-0.131313	-0.332506
C102	C	2.060826	0.202020	0.000828
C103	C	1.332433	-0.526343	-0.633104
C104	C	1.665766	-0.193010	-0.299770
C105	C	1.999099	0.140323	0.033563
C106	C	1.332429	-0.526376	-0.567669
C107	C	1.665762	-0.193043	-0.234336
C108	C	1.999095	0.140290	0.098997
C109	C	1.386519	-0.551499	-0.769507
C110	C	1.719852	-0.218166	-0.436174
C111	C	2.053185	0.115168	-0.102840
C112	C	1.386529	-0.551468	-0.834940
C113	C	1.719862	-0.218134	-0.501607
C114	C	2.053196	0.115199	-0.168273
C115	C	1.394165	-0.464545	-0.867660
C116	C	1.727499	-0.131211	-0.534326
C117	C	2.060832	0.202122	-0.200993
C118	C	1.401811	-0.377650	-0.834938
C119	C	1.735145	-0.044317	-0.501605
C120	C	2.068478	0.289017	-0.168272
C121	C	1.401808	-0.377683	-0.769504
C122	C	1.735141	-0.044350	-0.436171
C123	C	2.068474	0.288984	-0.102837
C124	C	1.394156	-0.464617	-0.736791
C125	C	1.727489	-0.131284	-0.403458
C126	C	2.060823	0.202049	-0.070125
C127	C	1.455882	-0.402802	-0.971340
C128	C	1.789215	-0.069469	-0.638006
C129	C	2.122549	0.263865	-0.304673
C130	C	1.455874	-0.402759	-1.036776
C131	C	1.789207	-0.069426	-0.703443
C132	C	2.122541	0.263908	-0.370110
C133	C	1.332446	-0.526132	-1.036745
C134	C	1.665780	-0.192799	-0.703412
C135	C	1.999113	0.140534	-0.370079
C136	C	1.332449	-0.526167	-0.971310
C137	C	1.665783	-0.192834	-0.637977
C138	C	1.999116	0.140500	-0.304643
C139	C	1.394172	-0.464503	-0.938611
C140	C	1.727506	-0.131170	-0.605278
C141	C	2.060839	0.202164	-0.271944
C142	C	1.394013	-0.464690	-0.139118
C143	C	1.727347	-0.131357	0.194215
C144	C	2.060680	0.201977	0.527548
C145	C	1.394166	-0.464427	-0.069477
C146	C	1.727499	-0.131093	0.263856
C147	C	2.060833	0.202240	0.597189
H148	H	1.506125	-0.352807	-0.541078
H149	H	1.839459	-0.019474	-0.207745
H150	H	2.172792	0.313860	0.125588
H151	H	1.506128	-0.352516	-1.063422
H152	H	1.839461	-0.019182	-0.730089
H153	H	2.172795	0.314151	-0.396755
H154	H	1.506119	-0.352736	-0.659785
H155	H	1.839452	-0.019402	-0.326452
H156	H	2.172785	0.313931	0.006881
C157	C	1.410205	-0.282100	-0.733513
C158	C	1.743538	0.051233	-0.400180
C159	C	2.076871	0.384567	-0.066846
N160	N	1.416523	-0.210105	-0.706405
N161	N	1.749857	0.123228	-0.373071
N162	N	2.083190	0.456562	-0.039738
C163	C	1.410210	-0.282026	-0.870925
C164	C	1.743543	0.051307	-0.537591
C165	C	2.076876	0.384640	-0.204258
N166	N	1.416536	-0.210005	-0.898033
N167	N	1.749870	0.123328	-0.564699
N168	N	2.083203	0.456661	-0.231366
C169	C	1.378118	-0.647053	-0.870927
C170	C	1.711451	-0.313719	-0.537594
C171	C	2.044784	0.019614	-0.204261
N172	N	1.371780	-0.719050	-0.898031
N173	N	1.705113	-0.385717	-0.564698
N174	N	2.038446	-0.052383	-0.231365
C175	C	1.378136	-0.647129	-0.733522
C176	C	1.711470	-0.313796	-0.400189
C177	C	2.044803	0.019537	-0.066855
N178	N	1.371830	-0.719156	-0.706419
N179	N	1.705163	-0.385823	-0.373086
N180	N	2.038496	-0.052490	-0.039752
H181	H	1.282194	-0.576334	-1.063373
H182	H	1.615527	-0.243001	-0.730040
H183	H	1.948861	0.090333	-0.396707
C184	C	1.523769	-0.334962	-0.935369
C185	C	1.857102	-0.001629	-0.602035
C186	C	2.190436	0.331704	-0.268702
N187	N	1.574901	-0.283864	-0.908277
N188	N	1.908234	0.049470	-0.574944
N189	N	2.241568	0.382803	-0.241610
H190	H	1.282188	-0.576551	-0.659737
H191	H	1.615521	-0.243218	-0.326403
H192	H	1.948855	0.090116	0.006930
H193	H	1.282200	-0.576409	-0.944663
H194	H	1.615533	-0.243076	-0.611330
H195	H	1.948867	0.090257	-0.277996
H196	H	1.282169	-0.576612	-0.541023
H197	H	1.615502	-0.243279	-0.207690
H198	H	1.948835	0.090054	0.125644
