data_functionalizedCrystal
_audit_creation_method	'MofGen! by Chris Wilmer'
_symmetry_space_group_name_H-M	'P1'
_symmetry_Int_Tables_number	1
_symmetry_cell_setting	triclinic
loop_
_symmetry_equiv_pos_as_xyz
  x,y,z
_cell_length_a	15.021413
_cell_length_b	15.944551
_cell_length_c	15.944551
_cell_angle_alpha	83.498738
_cell_angle_beta	90.009956
_cell_angle_gamma	89.990189
loop_
_atom_site_label
_atom_site_type_symbol
_atom_site_fract_x
_atom_site_fract_y
_atom_site_fract_z
O1	O	0.073941	1.114511	0.108339
O2	O	0.073964	0.869962	0.121695
O3	O	0.073944	0.998915	-0.007258
O4	O	0.073961	0.985559	0.237292
O5	O	-0.074121	0.998929	-0.007275
O6	O	-0.074101	0.869976	0.121678
O7	O	-0.074123	1.114526	0.108321
Zn8	Zn	-0.097620	0.992253	0.114997
Zn9	Zn	0.097461	0.992234	0.115020
O10	O	-0.074103	0.985573	0.237274
C11	C	-0.000066	0.838675	0.121132
C12	C	-0.000057	0.745429	0.119470
N13	N	-0.230758	0.992272	0.114981
N14	N	0.230598	0.992222	0.115029
C15	C	-0.000081	0.530572	0.035565
C16	C	0.072926	0.469545	0.074536
C17	C	-0.000068	0.574703	0.116462
C18	C	-0.073054	0.469581	0.074538
C19	C	-0.000083	0.409790	0.113551
C20	C	0.072998	0.514904	0.155455
C21	C	-0.073047	0.514947	0.155446
C22	C	-0.000023	0.453937	0.194476
C23	C	-0.000059	0.669705	0.118137
C24	C	-0.000085	0.314789	0.111883
C25	C	0.470285	0.932482	0.174536
C26	C	0.529618	0.916371	0.098574
C27	C	0.412205	0.992239	0.115011
C28	C	0.529614	1.008327	0.190956
C29	C	0.587629	0.992253	0.115000
C30	C	0.470232	0.976090	0.039010
C31	C	0.470222	1.068078	0.131442
C32	C	0.529529	1.052000	0.055425
C33	C	0.311148	0.992228	0.115018
C34	C	0.688685	0.992264	0.114984
C35	C	-0.000089	0.998367	-0.038561
C36	C	-0.000089	0.996705	-0.131807
C37	C	-0.000092	1.145813	0.108885
C38	C	-0.000094	1.239059	0.110547
C39	C	-0.000069	0.912801	-0.346663
C40	C	-0.073077	0.951770	-0.407689
C41	C	-0.000082	0.993698	-0.302533
C42	C	0.072903	0.951775	-0.407656
C43	C	-0.000071	0.990787	-0.467445
C44	C	-0.073150	1.032690	-0.362330
C45	C	0.072895	1.032683	-0.362290
C46	C	-0.000131	1.071711	-0.423298
C47	C	-0.000089	0.995372	-0.207530
C48	C	-0.000070	0.989119	-0.562446
C49	C	-0.000069	0.986120	0.268577
C50	C	-0.000063	0.987782	0.361823
H51	H	0.000005	0.563905	-0.031573
N52	N	0.154656	0.906431	-0.434263
H53	H	0.154592	0.846414	-0.406098
H54	H	0.209749	0.936437	-0.416944
H55	H	0.555682	1.021939	0.255188
N56	N	-0.000146	0.823857	-0.302542
H57	H	-0.055342	0.793414	-0.318927
H58	H	0.000453	0.825673	-0.239434
H59	H	0.555714	0.852243	0.084669
N60	N	0.154847	0.541362	0.200754
H61	H	0.154361	0.604607	0.201572
H62	H	0.209872	0.524410	0.170409
H63	H	0.000023	0.420779	0.261683
H64	H	-0.134767	0.535084	0.189627
N65	N	-0.154836	0.906467	-0.434329
H66	H	-0.154780	0.846449	-0.406166
H67	H	-0.154486	0.906223	-0.497642
N68	N	-0.154809	0.442978	0.029193
H69	H	-0.154744	0.471144	-0.030823
H70	H	-0.209901	0.460299	0.059200
N71	N	0.435837	0.957976	-0.046092
H72	H	0.368603	0.958057	-0.045555
H73	H	0.458032	0.900902	-0.058595
N74	N	0.154678	0.442894	0.029231
H75	H	0.154622	0.471054	-0.030788
H76	H	0.154316	0.379581	0.028990
H77	H	-0.134941	1.066883	-0.342347
H78	H	0.444111	1.132187	0.145376
H79	H	0.444271	0.881909	0.224821
H80	H	0.555378	1.102543	0.005027
H81	H	-0.000178	1.138919	-0.456457
N82	N	0.154645	1.077967	-0.335615
H83	H	0.209766	1.047349	-0.351911
H84	H	0.153642	1.079222	-0.272434
