data_functionalizedCrystal
_audit_creation_method	'MofGen! by Chris Wilmer'
_symmetry_space_group_name_H-M	'P1'
_symmetry_Int_Tables_number	1
_symmetry_cell_setting	triclinic
loop_
_symmetry_equiv_pos_as_xyz
  x,y,z
_cell_length_a	19.188929
_cell_length_b	19.188905
_cell_length_c	18.266242
_cell_angle_alpha	89.983837
_cell_angle_beta	90.028140
_cell_angle_gamma	96.860334
loop_
_atom_site_label
_atom_site_type_symbol
_atom_site_fract_x
_atom_site_fract_y
_atom_site_fract_z
O1	O	-0.087085	0.926160	-0.061036
O2	O	-0.098838	0.722847	-0.061016
O3	O	0.008694	0.830371	-0.060982
O4	O	-0.194618	0.818636	-0.061071
O5	O	0.008700	0.830353	0.060780
O6	O	-0.098833	0.722828	0.060746
O7	O	-0.087080	0.926142	0.060726
Zn8	Zn	-0.092955	0.824482	0.080068
Zn9	Zn	-0.092963	0.824506	-0.080359
O10	O	-0.194612	0.818618	0.060691
C11	C	-0.098458	0.696826	-0.000132
C12	C	-0.097324	0.619321	-0.000122
C13	C	-0.096782	0.582939	-0.066496
C14	C	-0.095709	0.510115	-0.066504
C15	C	-0.095164	0.473678	-0.000135
C16	C	-0.095709	0.510068	0.066248
C17	C	-0.096790	0.582890	0.066255
N18	N	-0.053733	0.364651	0.049275
N19	N	-0.052705	0.295474	0.049264
C20	C	-0.091911	0.254272	-0.000151
N21	N	-0.132174	0.284861	-0.049567
N22	N	-0.133199	0.354045	-0.049558
C23	C	-0.093993	0.394716	-0.000135
C24	C	-0.090207	0.138926	-0.066539
C25	C	-0.089138	0.066100	-0.066545
C26	C	-0.089132	0.066056	0.066209
C27	C	-0.090207	0.138879	0.066213
C28	C	-0.090742	0.175310	-0.000163
C29	C	-0.220626	0.819007	-0.000202
C30	C	-0.298131	0.820148	-0.000237
C31	C	-0.343060	0.757056	-0.000215
C32	C	-0.415884	0.758128	-0.000199
C33	C	-0.443775	0.822295	-0.000189
C34	C	-0.398835	0.885395	-0.000214
C35	C	-0.326013	0.884321	-0.000238
N36	N	-0.551737	0.871336	0.041291
N37	N	-0.620915	0.872352	0.041315
C38	C	-0.663183	0.825533	-0.000119
N39	N	-0.633660	0.777650	-0.041568
N40	N	-0.564476	0.776633	-0.041589
C41	C	-0.522737	0.823466	-0.000164
C42	C	-0.787077	0.763599	-0.000081
C43	C	-0.859902	0.764673	-0.000069
C44	C	-0.842851	0.891942	-0.000077
C45	C	-0.770028	0.890866	-0.000096
C46	C	-0.742146	0.826693	-0.000095
C47	C	0.034708	0.829982	-0.000090
C48	C	0.112213	0.828841	-0.000060
C49	C	-0.087460	0.952163	-0.000160
C50	C	-0.088594	1.029668	-0.000175
N51	N	-0.092950	0.824471	0.189555
N52	N	-0.092962	0.824523	-0.189845
C53	C	-0.045358	0.872098	0.227879
C54	C	-0.045355	0.872103	0.304524
C55	C	-0.092956	0.824487	0.342842
C56	C	-0.140551	0.776851	0.304509
C57	C	-0.140549	0.776843	0.227865
N58	N	-0.154764	0.815411	0.463148
N59	N	-0.154764	0.815423	0.535956
C60	C	-0.092966	0.824506	0.573764
N61	N	-0.031165	0.833592	0.536014
N62	N	-0.031165	0.833584	0.463199
C63	C	-0.092964	0.824490	0.425949
C64	C	-0.045366	0.872141	0.695196
C65	C	-0.045362	0.872141	0.771842
C66	C	-0.140565	0.776892	0.771825
C67	C	-0.140563	0.776889	0.695180
C68	C	-0.092964	0.824517	0.656870
H69	H	-0.097218	0.612597	-0.120544
H70	H	-0.090650	0.168589	-0.120587
C71	C	-0.088539	0.026080	-0.139561
H72	H	-0.089004	0.058211	-0.179088
H73	H	-0.128824	-0.007783	-0.142348
H74	H	-0.047406	0.003132	-0.142297
C75	C	-0.097374	0.622913	0.139269
H76	H	-0.096891	0.590786	0.178797
H77	H	-0.138497	0.645869	0.142017
H78	H	-0.057079	0.656771	0.142043
C79	C	-0.720604	0.960268	-0.000107
H80	H	-0.747642	0.998638	-0.000092
H81	H	-0.691870	0.962503	-0.042576
H82	H	-0.691813	0.962484	0.042352
C83	C	-0.312393	0.686469	-0.000223
H84	H	-0.349586	0.649047	-0.000214
H85	H	-0.284306	0.683397	0.042228
H86	H	-0.284374	0.683411	-0.042700
H87	H	-0.095269	0.480487	-0.120556
C88	C	0.006996	0.924522	0.653052
H89	H	0.035349	0.952881	0.686856
H90	H	-0.018044	0.953505	0.623128
H91	H	0.035998	0.899488	0.623179
H92	H	-0.006603	0.910922	0.803046
C93	C	0.006980	0.924503	0.185739
H94	H	0.000157	0.917689	0.134603
H95	H	0.053568	0.917093	0.198318
H96	H	-0.000514	0.971069	0.198289
H97	H	-0.179308	0.738080	0.335711
H98	H	-0.179319	0.738109	0.663975
H99	H	-0.179304	0.738058	0.196661
C100	C	-0.090794	0.178902	0.139225
H101	H	-0.090310	0.146774	0.178753
H102	H	-0.131921	0.201854	0.141971
H103	H	-0.050503	0.212764	0.142003
H104	H	-0.452473	0.706750	-0.000180
H105	H	-0.095267	0.480396	0.120286
C106	C	-0.088763	0.025953	0.139214
H107	H	-0.088108	-0.022637	0.129704
H108	H	-0.129715	0.032499	0.166315
H109	H	-0.048295	0.043240	0.166657
C110	C	-0.429509	0.955978	-0.000201
H111	H	-0.392317	0.993401	-0.000222
H112	H	-0.457530	0.959037	0.042269
H113	H	-0.457594	0.959047	-0.042658
C114	C	-0.276589	0.953725	-0.000254
H115	H	-0.303626	0.992096	-0.000242
H116	H	-0.247854	0.955959	-0.042722
H117	H	-0.247800	0.955943	0.042206
C118	C	-0.756403	0.693013	-0.000096
H119	H	-0.793594	0.655590	-0.000094
H120	H	-0.728317	0.689936	0.042355
H121	H	-0.728381	0.689962	-0.042572
H122	H	-0.896483	0.713294	-0.000057
C123	C	-0.873519	0.962526	-0.000069
H124	H	-0.836327	0.999949	-0.000088
H125	H	-0.901544	0.965587	0.042398
H126	H	-0.901601	0.965595	-0.042529
C127	C	0.006997	0.924496	0.346690
H128	H	0.035343	0.952862	0.312896
H129	H	0.035997	0.899477	0.376617
H130	H	-0.018056	0.953483	0.376560
C131	C	-0.192925	0.724515	0.813965
H132	H	-0.186113	0.731342	0.865101
H133	H	-0.185462	0.677941	0.801427
H134	H	-0.239506	0.731956	0.801376
