data_functionalizedCrystal
_audit_creation_method	'MofGen! by Chris Wilmer'
_symmetry_space_group_name_H-M	'P1'
_symmetry_Int_Tables_number	1
_symmetry_cell_setting	triclinic
loop_
_symmetry_equiv_pos_as_xyz
  x,y,z
_cell_length_a	19.288840
_cell_length_b	19.288864
_cell_length_c	18.366186
_cell_angle_alpha	89.971967
_cell_angle_beta	90.016271
_cell_angle_gamma	96.868870
loop_
_atom_site_label
_atom_site_type_symbol
_atom_site_fract_x
_atom_site_fract_y
_atom_site_fract_z
O1	O	-0.921364	0.086566	-0.060706
O2	O	-0.421364	0.586566	0.439294
O3	O	-0.719101	0.098273	-0.060685
O4	O	-0.219101	0.598273	0.439315
O5	O	-0.826077	-0.008712	-0.060651
O6	O	-0.326077	0.491288	0.439349
O7	O	-0.814388	0.193550	-0.060740
O8	O	-0.314388	0.693550	0.439260
O9	O	-0.826059	-0.008717	0.060448
O10	O	-0.326059	0.491283	0.560448
O11	O	-0.719083	0.098268	0.060414
O12	O	-0.219083	0.598268	0.560414
O13	O	-0.921346	0.086561	0.060394
O14	O	-0.421346	0.586561	0.560394
Zn15	Zn	-0.820211	0.092413	0.079631
Zn16	Zn	-0.320211	0.592413	0.579631
Zn17	Zn	-0.820235	0.092420	-0.079923
Zn18	Zn	-0.320235	0.592420	0.420077
O19	O	-0.814370	0.193545	0.060359
O20	O	-0.314370	0.693545	0.560359
C21	C	-0.693215	0.097896	-0.000132
C22	C	-0.193215	0.597896	0.499868
C23	C	-0.616110	0.096774	-0.000122
C24	C	-0.116110	0.596774	0.499878
N25	N	-0.820200	0.092408	0.188522
N26	N	-0.320200	0.592408	0.688522
C27	C	-0.825692	-0.034591	-0.000091
C28	C	-0.325692	0.465409	0.499909
C29	C	-0.824563	-0.111694	-0.000061
C30	C	-0.324563	0.388306	0.499939
C31	C	-0.947232	0.086937	-0.000161
C32	C	-0.447232	0.586937	0.499839
C33	C	-1.024336	0.088059	-0.000176
C34	C	-0.524336	0.588059	0.499824
C35	C	-0.579917	0.096238	-0.066135
C36	C	-0.079917	0.596238	0.433865
C37	C	-0.507470	0.095176	-0.066143
C38	C	-0.007470	0.595176	0.433857
C39	C	-0.471221	0.094636	-0.000135
C40	C	0.028779	0.594636	0.499865
C41	C	-0.507423	0.095176	0.065886
C42	C	-0.007423	0.595176	0.565886
C43	C	-0.579868	0.096245	0.065893
C44	C	-0.079868	0.596245	0.565893
C45	C	-0.361886	0.052256	0.050445
C46	C	0.138114	0.552256	0.550445
C47	C	-0.289443	0.051183	0.050435
C48	C	0.210557	0.551183	0.550435
C49	C	-0.247778	0.091342	-0.000153
C50	C	0.252222	0.591342	0.499847
C51	C	-0.278565	0.132566	-0.050744
C52	C	0.221435	0.632566	0.449256
C53	C	-0.351009	0.133635	-0.050737
C54	C	0.148991	0.633635	0.449263
C55	C	-0.392667	0.093477	-0.000135
C56	C	0.107333	0.593477	0.499865
C57	C	-0.133029	0.089655	-0.066179
C58	C	0.366971	0.589655	0.433821
C59	C	-0.060580	0.088598	-0.066185
C60	C	0.439420	0.588598	0.433815
C61	C	-0.060535	0.088591	0.065847
C62	C	0.439465	0.588591	0.565847
C63	C	-0.132982	0.089656	0.065851
C64	C	0.367018	0.589656	0.565851
C65	C	-0.169225	0.090185	-0.000164
C66	C	0.330775	0.590185	0.499836
C67	C	-0.814755	0.219424	-0.000202
C68	C	-0.314755	0.719424	0.499798
C69	C	-0.815884	0.296527	-0.000237
C70	C	-0.315884	0.796527	0.499763
C71	C	-0.753115	0.341229	-0.000216
C72	C	-0.253115	0.841229	0.499784
C73	C	-0.754176	0.413676	-0.000199
C74	C	-0.254176	0.913676	0.499801
C75	C	-0.818009	0.441418	-0.000189
C76	C	-0.318009	0.941418	0.499811
C77	C	-0.880786	0.396706	-0.000215
C78	C	-0.380786	0.896706	0.499785
C79	C	-0.879723	0.324261	-0.000238
C80	C	-0.379723	0.824261	0.499762
C81	C	-0.868182	0.549662	0.042271
C82	C	-0.368182	1.049662	0.542271
C83	C	-0.869242	0.622106	0.042299
C84	C	-0.369242	1.122106	0.542299
C85	C	-0.821289	0.664863	-0.000120
C86	C	-0.321289	1.164863	0.499880
C87	C	-0.772263	0.635169	-0.042557
C88	C	-0.272263	1.135169	0.457443
C89	C	-0.771201	0.562724	-0.042580
C90	C	-0.271201	1.062724	0.457420
C91	C	-0.819168	0.519972	-0.000164
C92	C	-0.319168	1.019972	0.499836
C93	C	-0.759666	0.788121	-0.000082
C94	C	-0.259666	1.288121	0.499918
C95	C	-0.760729	0.860569	-0.000070
C96	C	-0.260729	1.360569	0.499930
C97	C	-0.887341	0.843598	-0.000078
C98	C	-0.387341	1.343598	0.499922
C99	C	-0.886276	0.771151	-0.000097
C100	C	-0.386276	1.271151	0.499903
C101	C	-0.822436	0.743418	-0.000096
C102	C	-0.322436	1.243418	0.499904
N103	N	-0.820252	0.092420	-0.188814
N104	N	-0.320252	0.592420	0.311186
C105	C	-0.867584	0.045059	0.226638
C106	C	-0.367584	0.545059	0.726638
C107	C	-0.867589	0.045055	0.302865
C108	C	-0.367589	0.545055	0.802865
C109	C	-0.820215	0.092414	0.340975
C110	C	-0.320215	0.592414	0.840975
C111	C	-0.772822	0.139767	0.302850
C112	C	-0.272822	0.639767	0.802850
C113	C	-0.772815	0.139764	0.226624
C114	C	-0.272815	0.639764	0.726624
C115	C	-0.810917	0.155703	0.461708
C116	C	-0.310917	0.655703	0.961708
C117	C	-0.810930	0.155706	0.537933
C118	C	-0.310930	0.655706	1.037933
C119	C	-0.820235	0.092423	0.576082
C120	C	-0.320235	0.592423	1.076082
C121	C	-0.829543	0.029132	0.537997
C122	C	-0.329543	0.529132	1.037997
C123	C	-0.829535	0.029129	0.461771
C124	C	-0.329535	0.529129	0.961771
C125	C	-0.820218	0.092422	0.423630
C126	C	-0.320218	0.592422	0.923630
C127	C	-0.867627	0.045066	0.696853
C128	C	-0.367627	0.545066	1.196853
C129	C	-0.867627	0.045062	0.773082
C130	C	-0.367627	0.545062	1.273082
C131	C	-0.772863	0.139779	0.773065
C132	C	-0.272863	0.639779	1.273065
C133	C	-0.772860	0.139777	0.696838
C134	C	-0.272860	0.639777	1.196838
C135	C	-0.820246	0.092421	0.658736
C136	C	-0.320246	0.592421	1.158736
H137	H	-0.609421	0.096669	-0.119890
H138	H	-0.109421	0.596669	0.380110
H139	H	-0.477995	0.094741	-0.119901
H140	H	0.022005	0.594741	0.380099
H141	H	-0.734288	0.178336	0.804093
H142	H	-0.234288	0.678336	1.304093
H143	H	-0.803355	0.207241	0.568936
H144	H	-0.303355	0.707241	1.068936
H145	H	-0.244641	0.165270	-0.091935
H146	H	0.255359	0.665270	0.408065
H147	H	-0.709613	0.896966	-0.000058
H148	H	-0.209613	1.396966	0.499942
H149	H	-0.906209	0.006503	0.665829
H150	H	-0.406209	0.506503	1.165829
H151	H	-0.477905	0.094739	0.119631
H152	H	0.022095	0.594739	0.619631
H153	H	-0.376073	0.167202	-0.091928
H154	H	0.123927	0.667202	0.408072
H155	H	-0.162452	0.090088	0.119605
H156	H	0.337548	0.590088	0.619605
H157	H	-0.906176	0.006496	0.333905
H158	H	-0.406176	0.506496	0.833905
H159	H	-0.939315	0.866184	-0.000123
H160	H	-0.439315	1.366184	0.499877
H161	H	-0.162538	0.090093	-0.119933
H162	H	0.337462	0.590093	0.380067
H163	H	-0.907237	0.514853	0.076812
H164	H	-0.407237	1.014853	0.576812
H165	H	-0.837120	-0.022400	0.569057
H166	H	-0.337120	0.477600	1.069057
H167	H	-0.733211	0.669981	-0.077093
H168	H	-0.233211	1.169981	0.422907
H169	H	-0.909158	0.646278	0.076856
H170	H	-0.409158	1.146278	0.576856
H171	H	-0.803327	0.207239	0.430653
H172	H	-0.303327	0.707239	0.930653
H173	H	-0.734228	0.178322	0.195589
H174	H	-0.234228	0.678322	0.695589
H175	H	-0.031022	0.088156	0.119592
H176	H	0.468978	0.588156	0.619592
H177	H	-0.932759	0.419298	-0.000220
H178	H	-0.432759	0.919298	0.499780
H179	H	-0.906211	0.006500	0.804116
H180	H	-0.406211	0.506500	1.304116
H181	H	-0.734249	0.178326	0.333883
H182	H	-0.234249	0.678326	0.833883
H183	H	-0.031112	0.088165	-0.119943
H184	H	0.468888	0.588165	0.380057
H185	H	-0.734278	0.178336	0.665802
H186	H	-0.234278	0.678336	1.165802
H187	H	-0.701132	0.318654	-0.000221
H188	H	-0.201132	0.818654	0.499779
H189	H	-0.837112	-0.022404	0.430765
H190	H	-0.337112	0.477596	0.930765
H191	H	-0.930839	0.287864	-0.000256
H192	H	-0.430839	0.787864	0.499744
H193	H	-0.707684	0.765539	-0.000076
H194	H	-0.207684	1.265539	0.499924
H195	H	-0.395805	0.019552	0.091643
H196	H	0.104195	0.519552	0.591643
H197	H	-0.609336	0.096683	0.119650
H198	H	-0.109336	0.596683	0.619650
H199	H	-0.264383	0.017613	0.091626
H200	H	0.235617	0.517613	0.591626
H201	H	-0.703061	0.450080	-0.000180
H202	H	-0.203061	0.950080	0.499820
H203	H	-0.906167	0.006497	0.195617
H204	H	-0.406167	0.506497	0.695617
H205	H	-0.731284	0.538549	-0.077135
H206	H	-0.231284	1.038549	0.422865
H207	H	-0.937389	0.734754	-0.000110
H208	H	-0.437389	1.234754	0.499890
