data_functionalizedCrystal
_audit_creation_method	'MofGen! by Chris Wilmer'
_symmetry_space_group_name_H-M	'P1'
_symmetry_Int_Tables_number	1
_symmetry_cell_setting	triclinic
loop_
_symmetry_equiv_pos_as_xyz
  x,y,z
_cell_length_a	38.067044
_cell_length_b	38.077471
_cell_length_c	38.077489
_cell_angle_alpha	59.996876
_cell_angle_beta	89.997479
_cell_angle_gamma	59.999941
loop_
_atom_site_label
_atom_site_type_symbol
_atom_site_fract_x
_atom_site_fract_y
_atom_site_fract_z
O1	O	0.240983	0.309782	-0.010457
O2	O	0.189899	0.237866	0.010391
O3	O	0.189898	0.309780	-0.061525
O4	O	0.240984	0.237868	0.061459
O5	O	0.248325	0.251369	-0.061525
O6	O	0.248326	0.179455	0.010391
O7	O	0.299410	0.251371	-0.010457
Zn8	Zn	0.283144	0.206139	-0.000033
Zn9	Zn	0.206165	0.283098	-0.000033
O10	O	0.299411	0.179457	0.061460
C11	C	0.361071	0.449899	-0.025332
C12	C	0.403348	0.428868	-0.025631
C13	C	0.361073	0.386301	-0.025328
C14	C	0.403350	0.365366	-0.025626
C15	C	0.424684	0.386304	-0.025332
C16	C	0.339833	0.428865	-0.025627
C17	C	0.297315	0.513473	-0.020172
C18	C	0.277153	0.553648	-0.016916
C19	C	0.298888	0.573799	-0.015285
C20	C	0.277030	0.617358	-0.011752
C21	C	0.340786	0.553781	-0.016913
C22	C	0.360947	0.513609	-0.020171
C23	C	0.339211	0.493455	-0.021798
C24	C	0.493436	0.381311	-0.020176
C25	C	0.536879	0.358036	-0.016920
C26	C	0.558669	0.314521	-0.015284
C27	C	0.605773	0.289282	-0.011751
C28	C	0.537018	0.294278	-0.016908
C29	C	0.493577	0.317553	-0.020166
C30	C	0.471787	0.361068	-0.021798
C31	C	0.297318	0.381302	-0.020163
C32	C	0.277160	0.358020	-0.016897
C33	C	0.298897	0.314506	-0.015261
C34	C	0.277041	0.289263	-0.011724
C35	C	0.340793	0.294265	-0.016888
C36	C	0.360954	0.317543	-0.020151
C37	C	0.339214	0.361062	-0.021789
C38	C	0.025602	0.057328	0.031587
C39	C	0.046937	0.014766	0.031883
C40	C	0.089216	0.057326	0.031590
C41	C	0.110454	0.014764	0.031886
C42	C	0.089215	-0.006267	0.031587
C43	C	0.046938	0.078263	0.031886
C44	C	-0.127801	0.171857	0.020072
C45	C	-0.171243	0.195271	0.016815
C46	C	-0.193036	0.175176	0.015179
C47	C	-0.240141	0.200566	0.011640
C48	C	-0.171383	0.131663	0.016803
C49	C	-0.127943	0.108248	0.020065
C50	C	-0.106152	0.128347	0.021699
C51	C	0.128058	-0.148110	0.020067
C52	C	0.148079	-0.188283	0.016811
C53	C	0.189973	-0.208436	0.015176
C54	C	0.211683	-0.251990	0.011639
C55	C	0.211846	-0.188416	0.016803
C56	C	0.191828	-0.148249	0.020067
C57	C	0.149929	-0.128096	0.021696
C58	C	0.128064	0.171848	0.020083
C59	C	0.148085	0.195264	0.016824
C60	C	0.189980	0.175167	0.015191
C61	C	0.211690	0.200555	0.011655
C62	C	0.211850	0.131657	0.016813
C63	C	0.191827	0.108245	0.020070
C64	C	0.149934	0.128342	0.021709
C65	C	-0.059048	0.102957	0.025232
C66	C	-0.021502	0.082718	0.028050
C67	C	0.110924	0.082714	0.028056
C68	C	0.128227	0.102951	0.025241
C69	C	0.110921	-0.049821	0.028050
C70	C	0.128224	-0.084539	0.025231
C71	C	0.025609	0.495236	-0.406321
C72	C	0.046944	0.474204	-0.364056
C73	C	0.089223	0.431640	-0.406320
C74	C	0.110461	0.410704	-0.364054
C75	C	0.089222	0.431641	-0.342725
C76	C	0.046945	0.474203	-0.427554
C77	C	-0.127793	0.637083	-0.509336
C78	C	-0.171235	0.677258	-0.529494
C79	C	-0.193028	0.697411	-0.507764
C80	C	-0.240133	0.740966	-0.529616
C81	C	-0.171375	0.677389	-0.465875
C82	C	-0.127935	0.637221	-0.445722
C83	C	-0.106144	0.617068	-0.467454
C84	C	0.128065	0.381294	-0.189364
C85	C	0.148087	0.358022	-0.145934
C86	C	0.189980	0.314504	-0.124145
C87	C	0.211691	0.289264	-0.077054
C88	C	0.211853	0.294262	-0.145791
C89	C	0.191835	0.317538	-0.189222
C90	C	0.149936	0.361056	-0.211006
C91	C	0.128069	0.381290	-0.509330
C92	C	0.148090	0.358013	-0.529486
C93	C	0.189985	0.314495	-0.507754
C94	C	0.211695	0.289254	-0.529605
C95	C	0.211855	0.294254	-0.465867
C96	C	0.191833	0.317531	-0.445714
C97	C	0.149940	0.361052	-0.467451
C98	C	-0.059040	0.573510	-0.445597
C99	C	-0.021494	0.538791	-0.428175
C100	C	0.110930	0.406402	-0.428173
C101	C	0.128234	0.386286	-0.445593
C102	C	0.110929	0.406404	-0.295634
C103	C	0.128231	0.386289	-0.258098
O104	O	0.744327	0.179469	0.010372
O105	O	0.621308	0.251386	-0.010477
O106	O	0.693234	0.179475	0.061440
O107	O	0.672401	0.251380	-0.061545
O108	O	0.693233	0.237889	0.061435
O109	O	0.621307	0.309800	-0.010482
O110	O	0.744325	0.237883	0.010368
Zn111	Zn	0.682816	0.283116	-0.000058
Zn112	Zn	0.682818	0.206153	-0.000052
O113	O	0.672399	0.309794	-0.061549
O114	O	0.248318	0.733750	0.010371
O115	O	0.299401	0.631615	-0.010478
O116	O	0.299399	0.631604	0.061439
O117	O	0.248320	0.733761	-0.061546
O118	O	0.240971	0.631608	0.061433
O119	O	0.240972	0.631619	-0.010484
O120	O	0.189889	0.733754	0.010365
Zn121	Zn	0.206154	0.682688	-0.000060
Zn122	Zn	0.283137	0.682682	-0.000053
O123	O	0.189891	0.733765	-0.061552
O124	O	0.240994	0.237857	-0.616718
O125	O	0.189905	0.309773	-0.565652
O126	O	0.189908	0.237857	-0.565645
O127	O	0.240991	0.309773	-0.616725
O128	O	0.248334	0.179447	-0.507233
O129	O	0.248330	0.251363	-0.507240
O130	O	0.299420	0.179447	-0.558306
Zn131	Zn	0.283152	0.206131	-0.523499
Zn132	Zn	0.206173	0.283089	-0.600459
O133	O	0.299417	0.251363	-0.558313
O134	O	-0.378682	0.857367	-0.558320
O135	O	-0.255665	0.755224	-0.507250
O136	O	-0.327595	0.755221	-0.507245
O137	O	-0.306752	0.857370	-0.558325
O138	O	-0.327595	0.755221	-0.565656
O139	O	-0.255666	0.755224	-0.565661
O140	O	-0.378682	0.857368	-0.616731
Zn141	Zn	-0.317174	0.806296	-0.600470
Zn142	Zn	-0.317173	0.806295	-0.523511
O143	O	-0.306753	0.857370	-0.616736
C144	C	0.424698	0.039345	0.321627
C145	C	0.403363	0.060377	0.342861
C146	C	0.361084	0.102942	0.258032
C147	C	0.339846	0.123877	0.279363
C148	C	0.361086	0.102940	0.321629
C149	C	0.403361	0.060379	0.279361
C150	C	0.493450	-0.024227	0.321460
C151	C	0.536894	-0.064402	0.341478
C152	C	0.558683	-0.084552	0.383358
C153	C	0.605789	-0.128110	0.405063
C154	C	0.537033	-0.064534	0.405227
C155	C	0.493591	-0.024363	0.385211
C156	C	0.471801	-0.004209	0.343328
C157	C	0.361253	0.107934	0.385368
C158	C	0.341229	0.131209	0.405525
C159	C	0.299338	0.174723	0.383794
C160	C	0.277626	0.199963	0.405646
C161	C	0.277463	0.194966	0.341907
C162	C	0.297484	0.171691	0.321753
C163	C	0.339379	0.128177	0.343483
C164	C	0.361247	0.107940	0.189297
C165	C	0.341224	0.131220	0.145863
C166	C	0.299333	0.174734	0.124081
C167	C	0.277619	0.199976	0.076988
C168	C	0.277461	0.194975	0.145725
C169	C	0.297483	0.171698	0.189157
C170	C	0.339376	0.128180	0.210942
C171	C	0.708041	0.103000	0.321595
C172	C	0.708333	0.060439	0.342829
C173	C	0.708054	0.102991	0.258004
C174	C	0.708346	0.060430	0.279335
C175	C	0.708040	0.039403	0.321599
C176	C	0.708348	0.123930	0.279330
C177	C	0.702881	0.171902	0.321424
C178	C	0.699619	0.195319	0.341439
C179	C	0.697975	0.175228	0.383317
C180	C	0.694436	0.200618	0.405020
C181	C	0.699597	0.131716	0.405186
C182	C	0.702861	0.108299	0.385173
C183	C	0.704501	0.128394	0.343292
C184	C	0.702863	-0.024161	0.385336
C185	C	0.699600	-0.064334	0.405493
C186	C	0.697969	-0.084486	0.383764
C187	C	0.694429	-0.128041	0.405617
C188	C	0.699605	-0.064473	0.341879
C189	C	0.702871	-0.024304	0.321725
C190	C	0.704498	-0.004149	0.343453
C191	C	0.702907	0.171882	0.189269
C192	C	0.699653	0.195294	0.145837
C193	C	0.698022	0.175194	0.124056
C194	C	0.694497	0.200574	0.076965
C195	C	0.699642	0.131686	0.145701
C196	C	0.702895	0.108274	0.189132
C197	C	0.704527	0.128374	0.210914
C198	C	0.361056	0.386271	0.321601
C199	C	0.403333	0.365331	0.342837
C200	C	0.361059	0.449872	0.258008
C201	C	0.403337	0.428835	0.279340
C202	C	0.424671	0.386268	0.321606
C203	C	0.339819	0.428838	0.279336
C204	C	0.297298	0.381279	0.321431
C205	C	0.277135	0.358003	0.341447
C206	C	0.298870	0.314485	0.383327
C207	C	0.277011	0.289244	0.405031
C208	C	0.340768	0.294240	0.405197
C209	C	0.360930	0.317516	0.385183
C210	C	0.339195	0.361034	0.343300
C211	C	0.493422	0.317361	0.385346
C212	C	0.536866	0.293944	0.405504
C213	C	0.558656	0.314041	0.383776
C214	C	0.605761	0.288652	0.405629
C215	C	0.537006	0.357559	0.341889
C216	C	0.493564	0.380976	0.321733
C217	C	0.471774	0.360875	0.343461
C218	C	0.297305	0.513454	0.189272
C219	C	0.277147	0.553630	0.145838
C220	C	0.298885	0.573779	0.124057
C221	C	0.277029	0.617342	0.076964
C222	C	0.340782	0.553756	0.145703
C223	C	0.360942	0.513581	0.189135
C224	C	0.339202	0.493431	0.210918
C225	C	0.651254	0.495210	-0.406333
C226	C	0.650963	0.474172	-0.427563
C227	C	0.651242	0.431620	-0.342738
C228	C	0.650952	0.410679	-0.364064
C229	C	0.651258	0.431610	-0.406328
C230	C	0.650947	0.474183	-0.364069
C231	C	0.662771	0.637060	-0.445174
C232	C	0.666030	0.677235	-0.465193
C233	C	0.667674	0.697382	-0.507074
C234	C	0.671215	0.740936	-0.528778
C235	C	0.666055	0.677354	-0.528937
C236	C	0.662791	0.637187	-0.508921
C237	C	0.661149	0.617040	-0.467038
C238	C	0.662804	0.381241	-0.509326
C239	C	0.666067	0.357963	-0.529480
C240	C	0.667701	0.314446	-0.507748
C241	C	0.671244	0.289199	-0.529594
C242	C	0.666066	0.294210	-0.465862
C243	C	0.662796	0.317491	-0.445711
C244	C	0.661167	0.361008	-0.467448
C245	C	0.662725	0.381294	-0.189384
C246	C	0.665977	0.358023	-0.145953
C247	C	0.667610	0.314506	-0.124164
C248	C	0.671138	0.289271	-0.077073
C249	C	0.665993	0.294259	-0.145806
C250	C	0.662742	0.317530	-0.189236
C251	C	0.661104	0.361051	-0.211022
C252	C	0.657613	0.573483	-0.445335
C253	C	0.654793	0.538764	-0.428036
C254	C	0.654769	0.406389	-0.295648
C255	C	0.657579	0.386278	-0.258113
C256	C	0.654802	0.406367	-0.428177
C257	C	0.657625	0.386247	-0.445594
O258	O	0.672300	0.251451	0.492702
O259	O	0.693156	0.179530	0.441640
O260	O	0.621221	0.251453	0.441625
O261	O	0.744235	0.179529	0.492718
O262	O	0.621234	0.309858	0.383215
O263	O	0.693169	0.237935	0.383230
O264	O	0.672313	0.309856	0.434293
Zn265	Zn	0.682743	0.283168	0.399488
Zn266	Zn	0.682726	0.206218	0.476445
O267	O	0.744248	0.237933	0.434308
C268	C	0.025616	1.057384	-0.406346
C269	C	0.046953	1.078320	-0.427577
C270	C	0.089227	0.993780	-0.342748
C271	C	0.110468	1.014813	-0.364075
C272	C	0.089230	1.057380	-0.406341
C273	C	0.046949	1.014817	-0.364080
C274	C	-0.127788	1.107743	-0.445189
C275	C	-0.171230	1.131019	-0.465208
C276	C	-0.193021	1.174541	-0.507091
C277	C	-0.240126	1.199785	-0.528797
C278	C	-0.171366	1.194783	-0.528955
C279	C	-0.127926	1.171503	-0.508938
C280	C	-0.106137	1.127981	-0.467053
C281	C	0.128083	1.171911	-0.509345
C282	C	0.148108	1.195324	-0.529500
C283	C	0.190000	1.175227	-0.507768
C284	C	0.211713	1.200612	-0.529615
C285	C	0.211871	1.131709	-0.465880
C286	C	0.191850	1.108292	-0.445728
C287	C	0.149952	1.128400	-0.467466
C288	C	0.128063	0.851919	-0.189389
C289	C	0.148082	0.811743	-0.145957
C290	C	0.189977	0.791587	-0.124168
C291	C	0.211684	0.748027	-0.077075
C292	C	0.211849	0.811609	-0.145811
C293	C	0.191829	0.851785	-0.189241
C294	C	0.149936	0.871934	-0.211029
C295	C	-0.059034	1.102744	-0.445350
C296	C	-0.021488	1.082625	-0.428049
C297	C	0.110932	0.950220	-0.295657
C298	C	0.128233	0.915498	-0.258121
C299	C	0.110940	1.082769	-0.428191
C300	C	0.128244	1.103007	-0.445610
H301	H	0.395069	0.301059	-0.021473
Cl302	Cl	0.020492	-0.012412	0.032622
H303	H	0.661465	0.301013	-0.411608
Cl304	Cl	0.264514	-0.213754	0.014755
Cl305	Cl	0.264517	0.786272	-0.118420
Cl306	Cl	0.120594	0.383459	-0.582141
H307	H	0.029814	0.491810	-0.346934
H308	H	-0.188869	0.230699	0.015492
H309	H	0.245966	0.258832	-0.128051
Cl310	Cl	0.704911	0.001174	0.412654
Cl311	Cl	0.219323	0.053548	0.022110
H312	H	0.698299	0.230745	0.323630
H313	H	0.475709	-0.007822	0.287358
H314	H	0.698336	0.230718	0.128217
H315	H	0.243032	0.569932	0.128218
H316	H	0.305109	0.158127	0.262237
H317	H	0.661428	0.301040	-0.206853
Cl318	Cl	0.224486	0.578808	-0.014867
H319	H	0.029813	0.491804	-0.462280
Cl320	Cl	0.020511	1.131202	-0.481193
H321	H	0.420479	0.331114	-0.026101
H322	H	0.661475	0.416674	-0.527028
Cl323	Cl	-0.100409	0.197124	0.022129
Cl324	Cl	0.269971	0.435990	0.268779
Cl325	Cl	0.224795	0.249673	0.314590
H326	H	0.093944	-0.131705	0.021397
Cl327	Cl	0.564430	-0.089869	0.457880
H328	H	0.093952	0.188216	0.021416
H329	H	-0.188861	0.693555	-0.563598
Cl330	Cl	0.075402	0.435997	-0.536654
Cl331	Cl	0.668047	0.239550	-0.118416
Cl332	Cl	0.269987	0.197135	0.269098
H333	H	0.420475	0.446473	-0.026111
Cl334	Cl	0.660753	0.612016	-0.536406
Cl335	Cl	0.413613	0.488449	-0.022224
H336	H	0.209640	-0.131953	0.021393
H337	H	0.358464	0.258802	0.439301
Cl338	Cl	0.075398	0.877251	-0.216778
Cl339	Cl	-0.198780	0.106401	0.014750
Cl340	Cl	0.286204	0.456037	-0.026360
H341	H	0.093952	0.416729	-0.207099
H342	H	0.145191	-0.002837	0.032364
H343	H	0.145207	0.997201	-0.346949
Cl344	Cl	-0.198771	0.702727	-0.438561
Cl345	Cl	0.466044	0.436018	-0.022231
H346	H	0.395364	0.072501	0.403066
Cl347	Cl	-0.100726	0.053550	0.022108
H348	H	0.661388	0.416732	-0.207122
H349	H	0.145194	0.376446	-0.346926
Cl350	Cl	0.020493	0.131140	0.032624
Cl351	Cl	0.264518	0.106392	0.014755
Cl352	Cl	0.120581	-0.213446	0.014763
H353	H	0.554501	0.374524	-0.015599
H354	H	0.554517	-0.080697	0.323670
H355	H	0.667391	0.693763	-0.563037
H356	H	-0.110054	0.620679	-0.527036
Cl357	Cl	0.269972	0.488126	0.216655
H358	H	-0.110308	0.620924	-0.411618
Cl359	Cl	0.269987	0.488140	-0.022221
Cl360	Cl	0.704959	0.197153	0.216651
H361	H	0.305093	0.446420	0.262199
Cl362	Cl	0.224491	0.383468	-0.014853
H363	H	0.708819	0.158185	0.262203
Cl364	Cl	0.120589	0.383467	-0.118724
H365	H	0.029816	0.997216	-0.346959
H366	H	0.554767	0.258840	-0.015572
Cl367	Cl	0.697545	-0.089490	0.458146
Cl368	Cl	0.269987	0.436012	-0.022223
Cl369	Cl	0.697557	-0.089812	0.314564
Cl370	Cl	0.219332	0.292093	-0.216432
H371	H	0.395046	0.301027	0.402989
Cl372	Cl	0.668122	0.383402	-0.582132
H373	H	0.420491	0.042774	0.262238
H374	H	0.358495	0.258828	-0.015552
Cl375	Cl	0.219329	0.292085	-0.393058
Cl376	Cl	0.120589	0.249962	0.014783
H377	H	0.667391	0.258780	-0.448169
Cl378	Cl	0.368111	0.579118	-0.014862
H379	H	0.243022	0.374491	0.323638
Cl380	Cl	0.264525	0.239546	-0.438545
H381	H	0.420492	0.042766	0.377592
H382	H	0.475681	0.300992	0.403043
Cl383	Cl	-0.100705	1.196947	-0.536425
Cl384	Cl	0.466356	0.292115	-0.022220
H385	H	0.661433	0.620662	-0.411072
H386	H	0.130269	0.795445	-0.128337
H387	H	-0.110052	1.072306	-0.411085
Cl388	Cl	0.704948	0.197161	0.268775
Cl389	Cl	0.368113	0.579088	0.118319
H390	H	-0.188858	1.114535	-0.447404
H391	H	0.359036	0.114736	0.128244
H392	H	0.475962	-0.008069	0.403020
Cl393	Cl	0.269987	0.197145	0.216367
H394	H	0.698258	0.115360	0.439288
Cl395	Cl	0.413911	0.053229	0.216683
H396	H	0.704203	-0.008011	0.287622
Cl397	Cl	0.368729	0.105758	0.458181
H398	H	0.475937	0.416410	0.287629
Cl399	Cl	0.564077	0.239240	0.458160
H400	H	0.243349	0.230411	0.127986
Cl401	Cl	0.709102	0.033240	0.252905
H402	H	0.704214	0.072848	0.206755
H403	H	0.708808	0.042841	0.377556
Cl404	Cl	-0.198759	1.249490	-0.581607
H405	H	0.704185	0.072870	0.402982
H406	H	0.093970	1.188284	-0.527047
Cl407	Cl	0.413614	0.488406	0.216346
H408	H	0.698311	0.115321	0.127964
H409	H	0.130297	1.230757	-0.563604
H410	H	0.245984	1.115341	-0.448187
H411	H	0.420466	0.446440	0.262216
H412	H	0.420459	0.331079	0.377565
H413	H	0.554755	0.373921	0.324199
H414	H	0.650475	0.376428	-0.346935
H415	H	0.650488	0.491776	-0.462291
Cl416	Cl	0.650208	0.501361	-0.337632
H417	H	0.667297	0.374510	-0.128334
H418	H	0.209660	1.072859	-0.411624
H419	H	0.667355	0.693532	-0.447386
Cl420	Cl	0.219328	0.876952	-0.216447
