data_functionalizedCrystal
_audit_creation_method	'MofGen! by Chris Wilmer'
_symmetry_space_group_name_H-M	'P1'
_symmetry_Int_Tables_number	1
_symmetry_cell_setting	triclinic
loop_
_symmetry_equiv_pos_as_xyz
  x,y,z
_cell_length_a	18.050590
_cell_length_b	21.395361
_cell_length_c	21.395355
_cell_angle_alpha	90.021511
_cell_angle_beta	90.006016
_cell_angle_gamma	90.017531
loop_
_atom_site_label
_atom_site_type_symbol
_atom_site_fract_x
_atom_site_fract_y
_atom_site_fract_z
Zn1	Zn	-1.135350	0.249732	-0.353938
Zn2	Zn	-0.802017	0.583065	-0.020605
Zn3	Zn	-0.468683	0.916398	0.312728
Zn4	Zn	-1.135235	0.354491	-0.249155
Zn5	Zn	-0.801901	0.687825	0.084178
Zn6	Zn	-0.468568	1.021158	0.417511
Zn7	Zn	-1.011148	0.249708	-0.249209
Zn8	Zn	-0.677815	0.583041	0.084124
Zn9	Zn	-0.344482	0.916374	0.417458
Zn10	Zn	-1.011112	0.354451	-0.353930
Zn11	Zn	-0.677779	0.687784	-0.020596
Zn12	Zn	-0.344445	1.021118	0.312737
O13	O	-1.073211	0.302095	-0.301558
O14	O	-0.739878	0.635429	0.031775
O15	O	-0.406545	0.968762	0.365109
O16	O	-1.239259	0.263655	-0.340020
O17	O	-0.905926	0.596988	-0.006687
O18	O	-0.572593	0.930322	0.326647
O19	O	-1.118741	0.340598	-0.161485
O20	O	-0.785408	0.673932	0.171849
O21	O	-0.452074	1.007265	0.505182
O22	O	-1.027688	0.162033	-0.263128
O23	O	-0.694354	0.495366	0.070206
O24	O	-0.361021	0.828699	0.403539
O25	O	-1.239174	0.340622	-0.263036
O26	O	-0.905841	0.673955	0.070297
O27	O	-0.572508	1.007288	0.403630
O28	O	-1.118938	0.162050	-0.340072
O29	O	-0.785605	0.495384	-0.006739
O30	O	-0.452271	0.828717	0.326595
O31	O	-1.027576	0.263614	-0.161524
O32	O	-0.694242	0.596947	0.171809
O33	O	-0.360909	0.930281	0.505143
O34	O	-0.907219	0.263575	-0.263119
O35	O	-0.573886	0.596908	0.070214
O36	O	-0.240552	0.930242	0.403548
O37	O	-1.027625	0.340553	-0.441609
O38	O	-0.694292	0.673886	-0.108275
O39	O	-0.360959	1.007220	0.225058
O40	O	-0.907192	0.340530	-0.340057
O41	O	-0.573859	0.673863	-0.006724
O42	O	-0.240526	1.007196	0.326610
O43	O	-1.118903	0.263616	-0.441615
O44	O	-0.785569	0.596949	-0.108282
O45	O	-0.452236	0.930283	0.225052
O46	O	-1.118706	0.442164	-0.263028
O47	O	-0.785372	0.775497	0.070305
O48	O	-0.452039	1.108831	0.403639
O49	O	-1.027513	0.442134	-0.340005
O50	O	-0.694180	0.775468	-0.006672
O51	O	-0.360847	1.108801	0.326662
C52	C	-0.880259	0.302046	-0.301593
C53	C	-0.546926	0.635379	0.031740
C54	C	-0.213592	0.968713	0.365073
C55	C	-0.797713	0.302040	-0.301623
C56	C	-0.464380	0.635373	0.031710
C57	C	-0.131047	0.968707	0.365044
C58	C	-0.598270	0.344001	-0.343371
C59	C	-0.264936	0.677334	-0.010037
C60	C	0.068397	1.010667	0.323296
C61	C	-0.548883	0.286871	-0.358795
C62	C	-0.215549	0.620205	-0.025462
C63	C	0.117784	0.953538	0.307871
C64	C	-0.646583	0.302070	-0.301599
C65	C	-0.313250	0.635403	0.031735
C66	C	0.020084	0.968736	0.365068
C67	C	-0.548888	0.359227	-0.286180
C68	C	-0.215555	0.692560	0.047153
C69	C	0.117778	1.025893	0.380487
C70	C	-0.500598	0.302103	-0.301577
C71	C	-0.167265	0.635437	0.031757
C72	C	0.166069	0.968770	0.365090
C73	C	-0.598283	0.244910	-0.317053
C74	C	-0.264950	0.578243	0.016280
C75	C	0.068384	0.911577	0.349614
C76	C	-0.598293	0.317304	-0.244411
C77	C	-0.264960	0.650637	0.088922
C78	C	0.068373	0.983970	0.422256
C79	C	-0.548929	0.260135	-0.259814
C80	C	-0.215595	0.593468	0.073519
C81	C	0.117738	0.926802	0.406853
C82	C	-0.730681	0.302051	-0.301613
C83	C	-0.397348	0.635384	0.031720
C84	C	-0.064015	0.968718	0.365053
C85	C	-0.416501	0.302116	-0.301562
C86	C	-0.083168	0.635449	0.031771
C87	C	0.250165	0.968782	0.365105
C88	C	-1.073113	0.464883	-0.301523
C89	C	-0.739780	0.798216	0.031810
C90	C	-0.406447	1.131550	0.365143
C91	C	-1.073139	0.534524	-0.301529
C92	C	-0.739806	0.867858	0.031804
C93	C	-0.406473	1.201191	0.365137
C94	C	-0.266917	0.302137	-0.301534
C95	C	0.066417	0.635470	0.031800
C96	C	0.399750	0.968803	0.365133
C97	C	-0.349463	0.302132	-0.301550
C98	C	-0.016129	0.635466	0.031783
C99	C	0.317204	0.968799	0.365116
C100	C	-1.073273	0.302083	-0.464981
C101	C	-0.739940	0.635416	-0.131648
C102	C	-0.406606	0.968749	0.201685
C103	C	-1.073299	0.302077	-0.534623
C104	C	-0.739966	0.635411	-0.201289
C105	C	-0.406632	0.968744	0.132044
C106	C	-1.073330	0.138672	-0.301607
C107	C	-0.739997	0.472005	0.031727
C108	C	-0.406663	0.805339	0.365060
C109	C	-1.073380	0.069031	-0.301628
C110	C	-0.740047	0.402364	0.031706
C111	C	-0.406714	0.735697	0.365039
C112	C	-1.120665	0.567232	-0.261488
C113	C	-0.787332	0.900565	0.071845
C114	C	-0.453998	1.233899	0.405178
C115	C	-1.120700	0.632667	-0.261502
C116	C	-0.787366	0.966001	0.071831
C117	C	-0.454033	1.299334	0.405164
C118	C	-1.073195	0.665393	-0.301551
C119	C	-0.739862	0.998726	0.031783
C120	C	-0.406528	1.332059	0.365116
C121	C	-1.025666	0.632677	-0.341599
C122	C	-0.692332	0.966010	-0.008266
C123	C	-0.358999	1.299344	0.325067
C124	C	-1.025638	0.567243	-0.341589
C125	C	-0.692305	0.900576	-0.008255
C126	C	-0.358971	1.233909	0.325078
C127	C	-1.006327	0.769095	-0.306479
C128	C	-0.672993	1.102428	0.026854
C129	C	-0.339660	1.435761	0.360188
C130	C	-1.006353	0.834528	-0.306485
C131	C	-0.673020	1.167861	0.026848
C132	C	-0.339687	1.501194	0.360181
C133	C	-1.073282	0.867213	-0.301587
C134	C	-0.739948	1.200547	0.031746
C135	C	-0.406615	1.533880	0.365079
C136	C	-1.140185	0.834458	-0.296670
C137	C	-0.806852	1.167791	0.036663
C138	C	-0.473518	1.501125	0.369996
C139	C	-1.140157	0.769024	-0.296659
C140	C	-0.806824	1.102357	0.036674
C141	C	-0.473490	1.435690	0.370007
C142	C	-1.073220	0.736345	-0.301567
C143	C	-0.739887	1.069678	0.031766
C144	C	-0.406554	1.403012	0.365100
C145	C	-1.120849	0.970874	-0.261560
C146	C	-0.787516	1.304207	0.071774
C147	C	-0.454182	1.637540	0.405107
C148	C	-1.120885	1.036310	-0.261578
C149	C	-0.787551	1.369643	0.071755
C150	C	-0.454218	1.702977	0.405089
C151	C	-1.025844	1.036318	-0.341672
C152	C	-0.692511	1.369652	-0.008338
C153	C	-0.359178	1.702985	0.324995
C154	C	-1.025815	0.970883	-0.341657
C155	C	-0.692482	1.304216	-0.008323
C156	C	-0.359148	1.637550	0.325010
C157	C	-1.073316	0.938165	-0.301597
C158	C	-0.739983	1.271498	0.031736
C159	C	-0.406650	1.604831	0.365069
C160	C	-1.120825	0.262015	-0.567340
C161	C	-0.787492	0.595348	-0.234007
C162	C	-0.454159	0.928681	0.099326
C163	C	-1.120824	0.261988	-0.632776
C164	C	-0.787491	0.595321	-0.299442
C165	C	-0.454158	0.928654	0.033891
C166	C	-1.073305	0.302035	-0.665491
C167	C	-0.739972	0.635368	-0.332158
C168	C	-0.406638	0.968701	0.001176
C169	C	-1.025770	0.342100	-0.632766
C170	C	-0.692436	0.675434	-0.299432
C171	C	-0.359103	1.008767	0.033901
C172	C	-1.025767	0.342122	-0.567331
C173	C	-0.692433	0.675455	-0.233998
C174	C	-0.359100	1.008788	0.099335
C175	C	-1.067407	0.358449	-0.769155
C176	C	-0.734074	0.691782	-0.435822
C177	C	-0.400740	1.025115	-0.102489
C178	C	-1.067415	0.358428	-0.834588
C179	C	-0.734082	0.691762	-0.501255
C180	C	-0.400748	1.025095	-0.167922
C181	C	-1.073310	0.301968	-0.867312
C182	C	-0.739976	0.635302	-0.533979
C183	C	-0.406643	0.968635	-0.200645
C184	C	-1.079212	0.245527	-0.834595
C185	C	-0.745878	0.578860	-0.501261
C186	C	-0.412545	0.912194	-0.167928
C187	C	-1.079209	0.245548	-0.769160
C188	C	-0.745875	0.578882	-0.435827
C189	C	-0.412542	0.912215	-0.102494
C190	C	-1.073302	0.302016	-0.736444
C191	C	-0.739969	0.635349	-0.403110
C192	C	-0.406636	0.968682	-0.069777
C193	C	-1.120837	0.261873	-0.970982
C194	C	-0.787504	0.595206	-0.637649
C195	C	-0.454170	0.928540	-0.304315
C196	C	-1.120831	0.261845	-1.036419
C197	C	-0.787497	0.595178	-0.703085
C198	C	-0.454164	0.928512	-0.369752
C199	C	-1.025780	0.341963	-1.036407
C200	C	-0.692447	0.675297	-0.703074
C201	C	-0.359114	1.008630	-0.369741
C202	C	-1.025783	0.341986	-0.970972
C203	C	-0.692449	0.675319	-0.637639
C204	C	-0.359116	1.008652	-0.304305
C205	C	-1.073315	0.301941	-0.938263
C206	C	-0.739982	0.635275	-0.604930
C207	C	-0.406648	0.968608	-0.271597
C208	C	-1.073193	0.302063	-0.138771
C209	C	-0.739859	0.635396	0.194563
C210	C	-0.406526	0.968729	0.527896
C211	C	-1.073310	0.301892	-0.069130
C212	C	-0.739977	0.635225	0.264204
C213	C	-0.406644	0.968558	0.597537
H214	H	-0.527179	0.273997	-0.407148
H215	H	-0.193845	0.607330	-0.073815
H216	H	0.139488	0.940663	0.259518
H217	H	-0.527188	0.407549	-0.273150
H218	H	-0.193855	0.740882	0.060184
H219	H	0.139479	1.074215	0.393517
H220	H	-1.194684	0.861069	-0.292682
H221	H	-0.861351	1.194402	0.040651
H222	H	-0.528018	1.527736	0.373985
N223	N	-1.085571	0.184621	-0.869873
N224	N	-0.752238	0.517955	-0.536540
N225	N	-0.418904	0.851288	-0.203206
H226	H	-1.131333	0.185466	-0.897027
H227	H	-0.798000	0.518799	-0.563693
H228	H	-0.464666	0.852132	-0.230360
H229	H	-1.040299	0.178754	-0.896980
H230	H	-0.706966	0.512088	-0.563647
H231	H	-0.373632	0.845421	-0.230313
H232	H	-1.062408	0.404414	-0.742517
H233	H	-0.729075	0.737747	-0.409184
H234	H	-0.395742	1.071080	-0.075851
N235	N	-1.172071	0.218808	-0.532064
N236	N	-0.838737	0.552141	-0.198731
N237	N	-0.505404	0.885475	0.134603
H238	H	-1.164855	0.224896	-0.485646
H239	H	-0.831522	0.558229	-0.152313
H240	H	-0.498189	0.891562	0.181021
H241	H	-1.225107	0.228562	-0.543499
H242	H	-0.891774	0.561895	-0.210165
H243	H	-0.558441	0.895228	0.123168
N244	N	-1.171909	0.531945	-0.218292
N245	N	-0.838575	0.865278	0.115041
N246	N	-0.505242	1.198612	0.448375
H247	H	-1.164682	0.485529	-0.224360
H248	H	-0.831349	0.818862	0.108973
H249	H	-0.498015	1.152195	0.442307
H250	H	-1.160381	0.543412	-0.173540
H251	H	-0.827048	0.876746	0.159793
H252	H	-0.493715	1.210079	0.493127
N253	N	-1.171962	0.667956	-0.218315
N254	N	-0.838629	1.001289	0.115019
N255	N	-0.505296	1.334623	0.448352
H256	H	-1.202050	0.637300	-0.192937
H257	H	-0.868717	0.970633	0.140396
H258	H	-0.535384	1.303966	0.473730
H259	H	-1.141755	0.695137	-0.189312
H260	H	-0.808421	1.028470	0.144021
H261	H	-0.475088	1.361803	0.477354
N262	N	-1.172089	0.218774	-0.668070
N263	N	-0.838755	0.552108	-0.334737
N264	N	-0.505422	0.885441	-0.001404
H265	H	-1.225142	0.228528	-0.656686
H266	H	-0.891809	0.561862	-0.323352
H267	H	-0.558475	0.895195	0.009981
H268	H	-1.164816	0.224858	-0.714475
H269	H	-0.831482	0.558191	-0.381141
H270	H	-0.498149	0.891524	-0.047808
N271	N	-1.085576	0.184678	-0.733871
N272	N	-0.752243	0.518012	-0.400538
N273	N	-0.418909	0.851345	-0.067204
H274	H	-1.089313	0.148905	-0.764526
H275	H	-0.755980	0.482239	-0.431192
H276	H	-0.422646	0.815572	-0.097859
H277	H	-1.040331	0.178858	-0.706719
H278	H	-0.706997	0.512191	-0.373385
H279	H	-0.373664	0.845524	-0.040052
H280	H	-0.619889	0.196573	-0.330140
H281	H	-0.286556	0.529906	0.003194
H282	H	0.046777	0.863240	0.336527
N283	N	-0.974421	0.667966	-0.384791
N284	N	-0.641088	1.001300	-0.051458
N285	N	-0.307754	1.334633	0.281875
H286	H	-0.985924	0.656551	-0.429563
H287	H	-0.652591	0.989884	-0.096229
H288	H	-0.319258	1.323217	0.237104
H289	H	-0.981669	0.714371	-0.378668
H290	H	-0.648336	1.047705	-0.045335
H291	H	-0.315003	1.381038	0.287998
N292	N	-1.061052	0.419300	-0.869875
N293	N	-0.727719	0.752633	-0.536542
N294	N	-0.394386	1.085966	-0.203209
H295	H	-1.103969	0.447358	-0.858486
H296	H	-0.770636	0.780691	-0.525153
H297	H	-0.437303	1.114024	-0.191819
H298	H	-1.012945	0.440555	-0.858472
H299	H	-0.679612	0.773888	-0.525139
H300	H	-0.346278	1.107222	-0.191805
H301	H	-1.159537	0.229263	-0.944349
H302	H	-0.826203	0.562596	-0.611016
H303	H	-0.492870	0.895930	-0.277682
N304	N	-1.172080	0.218621	-1.071710
N305	N	-0.838747	0.551954	-0.738377
N306	N	-0.505413	0.885288	-0.405044
H307	H	-1.202187	0.193257	-1.041058
H308	H	-0.868853	0.526590	-0.707725
H309	H	-0.535520	0.859923	-0.374391
H310	H	-1.206430	0.244119	-1.098867
H311	H	-0.873097	0.577452	-0.765534
H312	H	-0.539763	0.910786	-0.432201
H313	H	-0.987082	0.374564	-1.063044
H314	H	-0.653748	0.707897	-0.729710
H315	H	-0.320415	1.041231	-0.396377
N316	N	-1.172144	1.071593	-0.218387
N317	N	-0.838810	1.404926	0.114946
N318	N	-0.505477	1.738260	0.448279
H319	H	-1.206561	1.098706	-0.243869
H320	H	-0.873227	1.432040	0.089464
H321	H	-0.539894	1.765373	0.422797
H322	H	-1.202178	1.040896	-0.193017
H323	H	-0.868845	1.374230	0.140317
H324	H	-0.535511	1.707563	0.473650
N325	N	-1.172080	0.935578	-0.218357
N326	N	-0.838747	1.268912	0.114976
N327	N	-0.505414	1.602245	0.448310
H328	H	-1.202198	0.966231	-0.192996
H329	H	-0.868865	1.299564	0.140338
H330	H	-0.535532	1.632897	0.473671
H331	H	-1.206420	0.908393	-0.243873
H332	H	-0.873087	1.241726	0.089461
H333	H	-0.539753	1.575060	0.422794
N334	N	-0.974510	0.385187	-0.935679
N335	N	-0.641177	0.718520	-0.602345
N336	N	-0.307843	1.051853	-0.269012
H337	H	-0.944401	0.410549	-0.966331
H338	H	-0.611068	0.743882	-0.632998
H339	H	-0.277734	1.077216	-0.299664
H340	H	-1.004703	0.414203	-0.908523
H341	H	-0.671370	0.747536	-0.575190
H342	H	-0.338036	1.080870	-0.241856
N343	N	-1.212310	0.733693	-0.291359
N344	N	-0.878977	1.067027	0.041975
N345	N	-0.545644	1.400360	0.375308
H346	H	-1.254716	0.764324	-0.288257
H347	H	-0.921383	1.097657	0.045076
H348	H	-0.588050	1.430990	0.378410
H349	H	-1.219169	0.706520	-0.329534
H350	H	-0.885835	1.039854	0.003799
H351	H	-0.552502	1.373187	0.337133
H352	H	-0.527400	0.224649	-0.224479
H353	H	-0.194067	0.557982	0.108854
H354	H	0.139266	0.891315	0.442187
N355	N	-0.974504	0.385284	-0.668047
N356	N	-0.641171	0.718618	-0.334714
N357	N	-0.307837	1.051951	-0.001380
H358	H	-0.981716	0.379191	-0.714464
H359	H	-0.648382	0.712524	-0.381131
H360	H	-0.315049	1.045857	-0.047798
H361	H	-0.986018	0.430042	-0.656611
H362	H	-0.652685	0.763375	-0.323278
H363	H	-0.319352	1.096708	0.010056
H364	H	-0.987062	0.374745	-0.540693
H365	H	-0.653729	0.708078	-0.207360
H366	H	-0.320395	1.041411	0.125973
H367	H	-0.987168	1.062963	-0.374283
H368	H	-0.653835	1.396296	-0.040949
H369	H	-0.320502	1.729629	0.292384
H370	H	-0.986936	0.540612	-0.374196
H371	H	-0.653603	0.873945	-0.040862
H372	H	-0.320269	1.207278	0.292471
N373	N	-0.974541	0.935603	-0.384835
N374	N	-0.641208	1.268936	-0.051501
N375	N	-0.307875	1.602269	0.281832
H376	H	-0.981731	0.889185	-0.378751
H377	H	-0.648398	1.222519	-0.045417
H378	H	-0.315064	1.555852	0.287916
H379	H	-0.986076	0.947008	-0.429591
H380	H	-0.652743	1.280342	-0.096258
H381	H	-0.319410	1.613675	0.237076
N382	N	-0.934197	0.869854	-0.311779
N383	N	-0.600864	1.203188	0.021554
N384	N	-0.267530	1.536521	0.354888
H385	H	-0.891795	0.839221	-0.314886
H386	H	-0.558461	1.172554	0.018447
H387	H	-0.225128	1.505887	0.351780
H388	H	-0.935254	0.896985	-0.350387
H389	H	-0.601921	1.230319	-0.017054
H390	H	-0.268587	1.563652	0.316279
N391	N	-0.627059	0.334371	-0.180376
N392	N	-0.293726	0.667705	0.152957
N393	N	0.039607	1.001038	0.486290
H394	H	-0.609121	0.377563	-0.168773
H395	H	-0.275788	0.710897	0.164560
H396	H	0.057545	1.044230	0.497894
H397	H	-0.683005	0.333791	-0.180802
H398	H	-0.349671	0.667124	0.152531
H399	H	-0.016338	1.000457	0.485864
H400	H	-0.951821	0.742489	-0.310470
H401	H	-0.618488	1.075822	0.022864
H402	H	-0.285155	1.409155	0.356197
H403	H	-0.619937	0.379400	-0.378733
H404	H	-0.286603	0.712734	-0.045400
H405	H	0.046730	1.046067	0.287934
