data_functionalizedCrystal
_audit_creation_method	'MofGen! by Chris Wilmer'
_symmetry_space_group_name_H-M	'P1'
_symmetry_Int_Tables_number	1
_symmetry_cell_setting	triclinic
loop_
_symmetry_equiv_pos_as_xyz
  x,y,z
_cell_length_a	19.288864
_cell_length_b	12.503572
_cell_length_c	19.288865
_cell_angle_alpha	93.519508
_cell_angle_beta	96.863755
_cell_angle_gamma	93.494652
loop_
_atom_site_label
_atom_site_type_symbol
_atom_site_fract_x
_atom_site_fract_y
_atom_site_fract_z
O1	O	0.917303	-0.089677	-0.090690
O2	O	1.417303	0.410323	0.409310
O3	O	0.715046	-0.089605	-0.102375
O4	O	1.215046	0.410395	0.397625
O5	O	0.822020	-0.089622	0.004599
O6	O	1.322020	0.410378	0.504599
O7	O	0.810329	-0.089660	-0.197664
O8	O	1.310329	0.410340	0.302336
O9	O	0.830068	0.089019	0.012654
O10	O	1.330068	0.589019	0.512654
O11	O	0.723094	0.089036	-0.094320
O12	O	1.223094	0.589036	0.405680
O13	O	0.925352	0.088964	-0.082635
O14	O	1.425352	0.588964	0.417365
Cu15	Cu	0.824958	0.105311	-0.087742
Cu16	Cu	1.324958	0.605311	0.412258
Cu17	Cu	0.815440	-0.105952	-0.097268
Cu18	Cu	1.315440	0.394048	0.402732
O19	O	0.818378	0.088980	-0.189609
O20	O	1.318378	0.588980	0.310391
C21	C	0.693194	-0.000275	-0.097971
C22	C	1.193194	0.499725	0.402029
C23	C	0.616092	-0.000247	-0.096841
C24	C	1.116092	0.499753	0.403159
C25	C	0.571394	-0.000276	-0.159610
C26	C	1.071394	0.499724	0.340390
C27	C	0.498947	-0.000287	-0.158550
C28	C	0.998947	0.499713	0.341450
C29	C	0.471199	-0.000292	-0.094718
C30	C	0.971199	0.499708	0.405282
C31	C	0.515907	-0.000257	-0.031940
C32	C	1.015907	0.499743	0.468060
C33	C	0.588353	-0.000235	-0.033002
C34	C	1.088353	0.499765	0.466998
C35	C	0.360116	-0.062904	-0.047362
C36	C	0.860116	0.437096	0.452638
C37	C	0.287670	-0.062933	-0.046303
C38	C	0.787670	0.437067	0.453697
C39	C	0.247750	-0.000356	-0.091441
C40	C	0.747750	0.499644	0.408559
C41	C	0.280283	0.062236	-0.137650
C42	C	0.780283	0.562236	0.362350
C43	C	0.352730	0.062258	-0.138711
C44	C	0.852730	0.562258	0.361289
C45	C	0.392644	-0.000316	-0.093560
C46	C	0.892644	0.499684	0.406440
C47	C	0.124496	-0.000396	-0.153065
C48	C	0.624496	0.499604	0.346935
C49	C	0.052048	-0.000401	-0.152002
C50	C	0.552048	0.499599	0.347998
C51	C	0.069009	-0.000382	-0.025391
C52	C	0.569009	0.499618	0.474609
C53	C	0.141456	-0.000366	-0.026455
C54	C	0.641456	0.499634	0.473545
C55	C	0.169195	-0.000378	-0.090295
C56	C	0.669195	0.499622	0.409705
N57	N	0.808745	-0.254544	-0.103963
N58	N	1.308745	0.245456	0.396037
C59	C	0.798892	-0.473657	-0.113811
C60	C	1.298892	0.026343	0.386189
C61	C	0.841509	-0.526991	-0.071195
C62	C	1.341509	-0.026991	0.428805
C63	C	0.836026	-0.648913	-0.076675
C64	C	1.336026	-0.148913	0.423325
C65	C	0.804374	-0.351724	-0.108332
C66	C	1.304374	0.148276	0.391668
C67	C	0.947204	-0.000368	-0.087039
C68	C	1.447204	0.499632	0.412961
C69	C	1.024306	-0.000404	-0.088169
C70	C	1.524306	0.499596	0.411831
C71	C	0.825668	-0.000298	0.034503
C72	C	1.325668	0.499702	0.534503
C73	C	0.824540	-0.000288	0.111607
C74	C	1.324540	0.499712	0.611607
N75	N	0.831658	0.253902	-0.081041
N76	N	1.331658	0.753902	0.418959
C77	C	0.814730	-0.000346	-0.219513
C78	C	1.314730	0.499654	0.280487
C79	C	0.815858	-0.000363	-0.296617
C80	C	1.315858	0.499637	0.203383
C81	C	0.887307	-0.000305	0.156302
C82	C	1.387307	0.499695	0.656302
C83	C	0.886245	-0.000322	0.228749
C84	C	1.386245	0.499678	0.728749
C85	C	0.822414	-0.000300	0.256497
C86	C	1.322414	0.499700	0.756497
C87	C	0.759639	-0.000289	0.211792
C88	C	1.259639	0.499711	0.711792
C89	C	0.760701	-0.000283	0.139346
C90	C	1.260701	0.499717	0.639346
C91	C	0.775055	0.062292	0.367607
C92	C	1.275055	0.562292	0.867607
C93	C	0.773995	0.062293	0.440052
C94	C	1.273995	0.562293	0.940052
C95	C	0.819133	-0.000323	0.479942
C96	C	1.319133	0.499677	0.979942
C97	C	0.865344	-0.062925	0.447381
C98	C	1.365344	0.437075	0.947381
C99	C	0.866407	-0.062919	0.374936
C100	C	1.366407	0.437081	0.874936
C101	C	0.821255	-0.000307	0.335051
C102	C	1.321255	0.499693	0.835051
C103	C	0.880754	-0.000359	0.603193
C104	C	1.380754	0.499641	1.103193
C105	C	0.879690	-0.000383	0.675640
C106	C	1.379690	0.499617	1.175640
C107	C	0.753081	-0.000339	0.658681
C108	C	1.253081	0.499661	1.158681
C109	C	0.754147	-0.000326	0.586235
C110	C	1.254147	0.499674	1.086235
C111	C	0.817986	-0.000332	0.558496
C112	C	1.317986	0.499668	1.058496
H113	H	0.593974	-0.000288	-0.211593
H114	H	1.093974	0.499712	0.288407
H115	H	0.462547	-0.000308	-0.209666
H116	H	0.962547	0.499692	0.290334
H117	H	0.758291	-0.519558	-0.154408
H118	H	1.258291	-0.019558	0.345592
H119	H	0.939289	-0.000313	0.133722
H120	H	1.439289	0.499687	0.633722
F121	F	0.693893	-0.000266	0.091776
F122	F	1.193893	0.499734	0.591776
F123	F	0.894579	-0.466989	-0.018127
F124	F	1.394579	0.033011	0.481873
H125	H	0.937359	-0.000340	0.265147
H126	H	1.437359	0.499660	0.765147
H127	H	0.904032	-0.113894	0.348428
H128	H	1.404032	0.386106	0.848428
H129	H	0.902100	-0.113913	0.479858
H130	H	1.402100	0.386087	0.979858
H131	H	0.932735	-0.000369	0.580606
H132	H	1.432735	0.499631	1.080606
F133	F	0.724817	0.128923	0.474699
F134	F	1.224817	0.628923	0.974699
H135	H	0.930804	-0.000402	0.712030
H136	H	1.430804	0.499598	1.212030
F137	F	0.253052	-0.129558	0.002869
F138	F	0.753052	0.370442	0.502869
H139	H	0.015656	-0.000418	-0.203118
H140	H	0.515656	0.499582	0.296882
F141	F	0.685147	-0.000321	0.688208
F142	F	1.185147	0.499679	1.188208
F143	F	0.687341	-0.000304	0.538665
F144	F	1.187341	0.499696	1.038665
F145	F	0.691705	-0.000273	0.241324
F146	F	1.191705	0.499727	0.741324
F147	F	0.387351	0.128875	-0.187886
F148	F	0.887351	0.628875	0.312114
F149	F	0.237803	0.128840	-0.185693
F150	F	0.737803	0.628840	0.314307
H151	H	0.046415	-0.000452	0.026579
H152	H	0.546415	0.499548	0.526579
H153	H	0.177850	-0.000348	0.024658
H154	H	0.677850	0.499652	0.524658
H155	H	0.147083	-0.000391	-0.205046
H156	H	0.647083	0.499609	0.294954
F157	F	0.402595	-0.129511	0.000684
F158	F	0.902595	0.370489	0.500684
H159	H	0.493309	-0.000275	0.020032
H160	H	0.993309	0.499725	0.520032
F161	F	0.635926	-0.000204	0.033809
F162	F	1.135926	0.499796	0.533809
F163	F	0.727010	0.128942	0.325159
F164	F	1.227010	0.628942	0.825159
