data_functionalizedCrystal
_audit_creation_method	'MofGen! by Chris Wilmer'
_symmetry_space_group_name_H-M	'P1'
_symmetry_Int_Tables_number	1
_symmetry_cell_setting	triclinic
loop_
_symmetry_equiv_pos_as_xyz
  x,y,z
_cell_length_a	10.686220
_cell_length_b	15.299816
_cell_length_c	10.686551
_cell_angle_alpha	85.426198
_cell_angle_beta	89.691918
_cell_angle_gamma	83.959204
loop_
_atom_site_label
_atom_site_type_symbol
_atom_site_fract_x
_atom_site_fract_y
_atom_site_fract_z
Zn1	Zn	2.027753	-0.214219	0.610037
Zn2	Zn	2.052702	-0.373258	0.435655
Zn3	Zn	1.807691	-0.236697	0.421355
Zn4	Zn	1.858671	-0.371478	0.661037
O5	O	1.936704	-0.298913	0.532021
O6	O	2.204361	-0.226655	0.571546
O7	O	2.009306	-0.365295	0.260471
O8	O	1.805106	-0.110751	0.419055
O9	O	2.222691	-0.343500	0.443429
O10	O	1.966785	-0.094236	0.557680
O11	O	1.829298	-0.264964	0.249964
O12	O	1.641154	-0.263238	0.468508
O13	O	1.891994	-0.340465	0.827559
O14	O	1.678609	-0.362260	0.644601
O15	O	2.016218	-0.224928	0.790090
O16	O	2.058739	-0.495987	0.492881
O17	O	1.916186	-0.494678	0.658468
C18	C	1.614947	-0.314995	0.560538
C19	C	1.477306	-0.321895	0.572771
C20	C	1.995737	-0.527213	0.582785
C21	C	2.021107	-0.624872	0.604533
C22	C	1.756216	-0.934843	0.376932
C23	C	1.732373	-0.843088	0.356502
C24	C	1.804555	-0.788529	0.418507
C25	C	1.900583	-0.825736	0.500947
C26	C	1.924422	-0.917500	0.521387
C27	C	1.972761	-0.771186	0.562962
C28	C	2.068789	-0.808393	0.645402
C29	C	2.092624	-0.900148	0.665837
C30	C	2.020442	-0.954707	0.603832
C31	C	1.948922	-0.679422	0.542523
C32	C	2.117128	-0.662078	0.686978
C33	C	2.140970	-0.753834	0.707408
C34	C	2.259717	-0.282768	0.503394
C35	C	2.397366	-0.275889	0.491195
C36	C	1.957009	-0.279990	0.855012
C37	C	1.965662	-0.271927	0.992652
C38	C	1.877476	-0.069719	0.481083
C39	C	1.852237	0.027950	0.459377
C40	C	1.916533	-0.317695	0.210266
C41	C	1.908055	-0.325499	0.072551
H42	H	1.785138	-0.713818	0.401867
H43	H	2.039854	-1.029423	0.620457
C44	C	1.447151	-0.215541	0.384199
C45	C	1.521674	-0.139051	0.414878
C46	C	1.571468	-0.078703	0.307881
C47	C	1.546738	-0.094843	0.170203
C48	C	1.472211	-0.171336	0.139518
C49	C	1.422418	-0.231684	0.246515
H50	H	1.539984	-0.127100	0.516801
H51	H	1.626638	-0.022077	0.330597
H52	H	1.583599	-0.050169	0.090997
H53	H	1.453902	-0.183287	0.037595
H54	H	1.367248	-0.288309	0.223799
C55	C	1.427517	-0.382246	0.679773
C56	C	1.285234	-0.389302	0.692274
C57	C	1.235445	-0.449652	0.799274
C58	C	1.327938	-0.502946	0.893771
C59	C	1.470230	-0.495891	0.881273
C60	C	1.520019	-0.435541	0.774273
H61	H	1.216756	-0.349850	0.622319
H62	H	1.130110	-0.454874	0.808525
H63	H	1.291081	-0.547620	0.972978
H64	H	1.538707	-0.535344	0.951228
H65	H	1.625354	-0.430320	0.765022
H66	H	1.870735	-0.649137	0.475400
C67	C	2.041242	-0.201625	1.042485
C68	C	2.182781	-0.202782	1.013930
C69	C	2.258359	-0.132482	1.063764
C70	C	2.192399	-0.061025	1.142154
C71	C	2.050853	-0.059865	1.170713
C72	C	1.975275	-0.130165	1.120879
H73	H	2.231615	-0.255681	0.955897
H74	H	2.363141	-0.133341	1.042622
H75	H	2.248347	-0.008984	1.179044
H76	H	2.002019	-0.006966	1.228746
H77	H	1.870492	-0.129306	1.142021
C78	C	1.626753	-0.802163	0.265820
C79	C	1.547356	-0.862169	0.197611
C80	C	1.441730	-0.821243	0.106923
C81	C	1.415500	-0.720312	0.084444
C82	C	1.494899	-0.660300	0.152655
C83	C	1.600525	-0.701225	0.243343
H84	H	1.566771	-0.936890	0.214250
H85	H	1.382954	-0.865668	0.056429
H86	H	1.337309	-0.690016	0.017311
H87	H	1.475484	-0.585579	0.136016
H88	H	1.659301	-0.656800	0.293837
H89	H	1.697451	-0.979272	0.326462
C90	C	2.198254	-0.941074	0.756523
C91	C	2.308527	-1.002384	0.708353
C92	C	2.414160	-1.043306	0.799036
C93	C	2.409519	-1.022917	0.937889
C94	C	2.299241	-0.961603	0.986066
C95	C	2.193608	-0.920682	0.895383
H96	H	2.311967	-1.017480	0.605559
H97	H	2.495795	-1.088694	0.763372
H98	H	2.487715	-1.053210	1.005018
H99	H	2.295802	-0.946508	1.088860
H100	H	2.111973	-0.875293	0.931048
C101	C	1.832479	-0.395797	1.022721
C102	C	1.690940	-0.394641	1.051274
C103	C	1.615363	-0.464940	1.001435
C104	C	1.681325	-0.536396	0.923044
C105	C	1.822871	-0.537555	0.894487
C106	C	1.898449	-0.467256	0.944326
H107	H	1.642105	-0.341743	1.109307
H108	H	1.510580	-0.464082	1.022576
H109	H	1.625378	-0.588435	0.886151
H110	H	1.871707	-0.590453	0.836454
H111	H	2.003231	-0.468114	0.923186
H112	H	2.219157	-0.784141	0.774532
H113	H	2.175902	-0.617657	0.737471
