data_functionalizedCrystal
_audit_creation_method	'MofGen! by Chris Wilmer'
_symmetry_space_group_name_H-M	'P1'
_symmetry_Int_Tables_number	1
_symmetry_cell_setting	triclinic
loop_
_symmetry_equiv_pos_as_xyz
  x,y,z
_cell_length_a	10.654549
_cell_length_b	10.908878
_cell_length_c	9.730223
_cell_angle_alpha	89.996116
_cell_angle_beta	89.997731
_cell_angle_gamma	72.284784
loop_
_atom_site_label
_atom_site_type_symbol
_atom_site_fract_x
_atom_site_fract_y
_atom_site_fract_z
O1	O	1.628707	0.180023	-0.114256
O2	O	2.128707	0.680023	0.385744
O3	O	1.259500	0.197175	-0.114265
O4	O	1.759500	0.697175	0.385735
O5	O	1.493046	0.002103	-0.114254
O6	O	1.993046	0.502103	0.385746
O7	O	1.395160	0.375095	-0.114267
O8	O	1.895160	0.875095	0.385733
O9	O	1.493035	0.002097	0.114326
O10	O	1.993035	0.502097	0.614326
O11	O	1.259488	0.197170	0.114315
O12	O	1.759488	0.697170	0.614315
O13	O	1.628695	0.180018	0.114324
O14	O	2.128695	0.680018	0.614324
Zn15	Zn	1.444090	0.188593	0.150612
Zn16	Zn	1.944090	0.688593	0.650612
Zn17	Zn	1.444105	0.188600	-0.150552
Zn18	Zn	1.944105	0.688600	0.349448
O19	O	1.395149	0.375090	0.114313
O20	O	1.895149	0.875090	0.614313
C21	C	1.212970	0.195913	0.000024
C22	C	1.712970	0.695913	0.500024
C23	C	1.074345	0.192145	0.000020
C24	C	1.574345	0.692145	0.500020
C25	C	0.839635	0.303451	0.000022
C26	C	1.339635	0.803451	0.500022
C27	C	0.969884	0.307001	0.000014
C28	C	1.469884	0.807001	0.500014
C29	C	1.048553	0.073732	0.000021
C30	C	1.548553	0.573732	0.500021
C31	C	0.918306	0.070184	0.000020
C32	C	1.418306	0.570184	0.500020
C33	C	1.502188	-0.045660	0.000035
C34	C	2.002188	0.454340	0.500035
C35	C	1.529431	-0.187970	0.000031
C36	C	2.029431	0.312030	0.500031
C37	C	1.430027	-0.237864	0.000026
C38	C	1.930027	0.262136	0.500026
C39	C	1.458182	-0.384948	0.000022
C40	C	1.958182	0.115052	0.500022
C41	C	1.675225	0.181280	0.000033
C42	C	2.175225	0.681280	0.500033
C43	C	1.813849	0.185047	0.000027
C44	C	2.313849	0.685047	0.500027
C45	C	1.386006	0.422853	0.000022
C46	C	1.886006	0.922853	0.500022
C47	C	1.358764	0.565163	0.000017
C48	C	1.858764	1.065163	0.500017
N49	N	1.444089	0.188587	0.356148
N50	N	1.944089	0.688587	0.856148
N51	N	1.444118	0.188595	-0.356089
N52	N	1.944118	0.688595	0.143911
C53	C	1.547525	0.102246	0.428079
C54	C	2.047525	0.602246	0.928079
C55	C	1.547537	0.102246	0.571962
C56	C	2.047537	0.602246	1.071962
C57	C	1.340672	0.274941	0.571970
C58	C	1.840672	0.774941	1.071970
C59	C	1.340656	0.274933	0.428090
C60	C	1.840656	0.774933	0.928090
H61	H	0.754588	0.396980	0.000027
H62	H	1.254588	0.896980	0.500027
H63	H	1.256461	0.345243	0.630560
H64	H	1.756461	0.845243	1.130560
F65	F	0.997320	0.433023	0.000003
F66	F	1.497320	0.933023	0.500003
H67	H	1.631745	0.031936	0.369507
H68	H	2.131745	0.531936	0.869507
F69	F	1.657625	0.010348	0.648511
F70	F	2.157625	0.510348	1.148511
F71	F	1.291543	-0.151375	0.000031
F72	F	1.791543	0.348625	0.500031
H73	H	1.256420	0.345243	0.369520
H74	H	1.756420	0.845243	0.869520
H75	H	1.133617	-0.019785	0.000018
H76	H	1.633617	0.480215	0.500018
H77	H	0.897317	-0.026240	0.000019
H78	H	1.397317	0.473760	0.500019
H79	H	1.252809	-0.368668	0.000027
H80	H	1.752809	0.131332	0.500027
F81	F	1.596673	-0.471434	0.000033
F82	F	2.096673	0.028566	0.500033
F83	F	1.667915	-0.274459	0.000042
F84	F	2.167915	0.225541	0.500042
