data_functionalizedCrystal
_audit_creation_method	'MofGen! by Chris Wilmer'
_symmetry_space_group_name_H-M	'P1'
_symmetry_Int_Tables_number	1
_symmetry_cell_setting	triclinic
loop_
_symmetry_equiv_pos_as_xyz
  x,y,z
_cell_length_a	29.839134
_cell_length_b	29.839131
_cell_length_c	11.169409
_cell_angle_alpha	89.959939
_cell_angle_beta	89.964026
_cell_angle_gamma	90.034165
loop_
_atom_site_label
_atom_site_type_symbol
_atom_site_fract_x
_atom_site_fract_y
_atom_site_fract_z
Zn1	Zn	0.686771	-0.178904	-0.678971
Zn2	Zn	1.186771	0.321096	-0.178971
Zn3	Zn	0.686688	-0.254045	-0.478261
Zn4	Zn	1.186688	0.245955	0.021739
Zn5	Zn	0.611639	-0.178921	-0.478251
Zn6	Zn	1.111639	0.321079	0.021749
Zn7	Zn	0.611602	-0.253998	-0.678852
Zn8	Zn	1.111602	0.246002	-0.178852
O9	O	0.649175	-0.216467	-0.578584
O10	O	1.149175	0.283533	-0.078584
O11	O	0.749627	-0.188884	-0.652400
O12	O	1.249627	0.311116	-0.152400
O13	O	0.676713	-0.244107	-0.310310
O14	O	1.176713	0.255893	0.189690
O15	O	0.621656	-0.116051	-0.504924
O16	O	1.121656	0.383949	-0.004924
O17	O	0.749566	-0.244091	-0.504939
O18	O	1.249566	0.255909	-0.004939
O19	O	0.676855	-0.116039	-0.652391
O20	O	1.176855	0.383961	-0.152391
O21	O	0.621575	-0.188913	-0.310303
O22	O	1.121575	0.311087	0.189697
O23	O	0.548767	-0.188867	-0.504808
O24	O	1.048767	0.311133	-0.004808
O25	O	0.621593	-0.244010	-0.846817
O26	O	1.121593	0.255990	-0.346817
O27	O	0.548740	-0.244026	-0.652188
O28	O	1.048740	0.255974	-0.152188
O29	O	0.676819	-0.188839	-0.846905
O30	O	1.176819	0.311161	-0.346905
O31	O	0.676678	-0.316906	-0.504823
O32	O	1.176678	0.183094	-0.004823
O33	O	0.621512	-0.316872	-0.652197
O34	O	1.121512	0.183128	-0.152197
C35	C	0.532453	-0.216444	-0.578484
C36	C	1.032453	0.283556	-0.078484
C37	C	0.482518	-0.216445	-0.578470
C38	C	0.982518	0.283555	-0.078470
C39	C	0.125933	-0.187703	-0.502000
C40	C	0.625933	0.312297	-0.002000
C41	C	0.313606	-0.187691	-0.501927
C42	C	0.813606	0.312309	-0.001927
O43	O	0.337872	-0.163216	-0.436797
O44	O	0.837872	0.336784	0.063203
N45	N	0.337073	-0.216452	-0.578531
N46	N	0.837073	0.283548	-0.078531
C47	C	0.313619	-0.245216	-0.655164
C48	C	0.813619	0.254784	-0.155164
O49	O	0.337886	-0.269676	-0.720328
O50	O	0.837886	0.230324	-0.220328
C51	C	0.125947	-0.245226	-0.655242
C52	C	0.625947	0.254774	-0.155242
C53	C	0.102482	-0.216466	-0.578624
C54	C	0.602482	0.283534	-0.078624
C55	C	0.102468	-0.158945	-0.425389
C56	C	0.602468	0.341055	0.074611
C57	C	0.055552	-0.158951	-0.425404
C58	C	0.555552	0.341049	0.074596
C59	C	0.032102	-0.187714	-0.502028
C60	C	0.532102	0.312286	-0.002028
C61	C	0.055567	-0.216472	-0.578639
C62	C	0.555567	0.283528	-0.078639
C63	C	0.102494	-0.273988	-0.731881
C64	C	0.602494	0.226012	-0.231881
C65	C	0.055573	-0.273987	-0.731895
C66	C	0.555573	0.226013	-0.231895
C67	C	0.032108	-0.245227	-0.655278
C68	C	0.532108	0.254773	-0.155278
C69	C	-0.014799	-0.245240	-0.655278
C70	C	0.485201	0.254760	-0.155278
N71	N	-0.038267	-0.216479	-0.578674
N72	N	0.461733	0.283521	-0.078674
C73	C	-0.014816	-0.187716	-0.502049
C74	C	0.485184	0.312284	-0.002049
C75	C	0.412150	-0.245210	-0.655116
C76	C	0.912150	0.254790	-0.155116
C77	C	0.459068	-0.245208	-0.655095
C78	C	0.959068	0.254792	-0.155095
C79	C	0.459051	-0.187681	-0.501859
C80	C	0.959051	0.312319	-0.001859
C81	C	0.412132	-0.187686	-0.501875
C82	C	0.912132	0.312314	-0.001875
C83	C	0.388682	-0.216448	-0.578512
C84	C	0.888682	0.283552	-0.078512
C85	C	-0.113342	-0.187729	-0.502084
C86	C	0.386658	0.312271	-0.002084
C87	C	-0.160262	-0.187738	-0.502102
C88	C	0.339738	0.312262	-0.002102
C89	C	-0.160241	-0.245262	-0.655342
C90	C	0.339759	0.254738	-0.155342
C91	C	-0.113325	-0.245255	-0.655320
C92	C	0.386675	0.254745	-0.155320
C93	C	-0.089877	-0.216485	-0.578688
C94	C	0.410123	0.283515	-0.078688
O95	O	-0.039094	-0.269699	-0.720383
O96	O	0.460906	0.230301	-0.220383
O97	O	-0.039091	-0.163252	-0.436914
O98	O	0.460909	0.336748	0.063086
C99	C	0.172848	-0.187698	-0.501985
C100	C	0.672848	0.312302	-0.001985
C101	C	0.196313	-0.216456	-0.578596
C102	C	0.696313	0.283544	-0.078596
C103	C	0.172862	-0.245219	-0.655221
C104	C	0.672862	0.254781	-0.155221
C105	C	0.243231	-0.216454	-0.578575
C106	C	0.743231	0.283546	-0.078575
C107	C	0.266681	-0.187691	-0.501950
C108	C	0.766681	0.312309	-0.001950
C109	C	0.243214	-0.158930	-0.425346
C110	C	0.743214	0.341070	0.074654
C111	C	0.196299	-0.158935	-0.425360
C112	C	0.696299	0.341065	0.074640
C113	C	0.196330	-0.273980	-0.731825
C114	C	0.696330	0.226020	-0.231825
C115	C	0.243245	-0.273973	-0.731803
C116	C	0.743245	0.226027	-0.231803
C117	C	0.266696	-0.245210	-0.655178
C118	C	0.766696	0.254790	-0.155178
C119	C	0.649094	-0.333190	-0.578524
C120	C	1.149094	0.166810	-0.078524
C121	C	0.649100	-0.383124	-0.578539
C122	C	1.149100	0.116876	-0.078539
C123	C	0.677952	-0.692773	-0.501959
C124	C	1.177952	-0.192773	-0.001959
C125	C	0.678008	-0.880446	-0.502005
C126	C	1.178008	-0.380446	-0.002005
O127	O	0.702474	-0.904715	-0.436848
O128	O	1.202474	-0.404715	0.063152
N129	N	0.649268	-0.903909	-0.578674
N130	N	1.149268	-0.403909	-0.078674
C131	C	0.620515	-0.880451	-0.655343
C132	C	1.120515	-0.380451	-0.155343
O133	O	0.596075	-0.904714	-0.720564
O134	O	1.096075	-0.404714	-0.220564
C135	C	0.620462	-0.692779	-0.655301
C136	C	1.120462	-0.192779	-0.155301
C137	C	0.649200	-0.669318	-0.578619
C138	C	1.149200	-0.169318	-0.078619
C139	C	0.706688	-0.669312	-0.425283
C140	C	1.206688	-0.169312	0.074717
C141	C	0.706672	-0.622397	-0.425268
C142	C	1.206672	-0.122397	0.074732
C143	C	0.677920	-0.598942	-0.501928
C144	C	1.177920	-0.098942	-0.001928
C145	C	0.649184	-0.622403	-0.578603
C146	C	1.149184	-0.122403	-0.078603
C147	C	0.591712	-0.669322	-0.731975
C148	C	1.091712	-0.169322	-0.231975
C149	C	0.591702	-0.622401	-0.731960
C150	C	1.091702	-0.122401	-0.231960
C151	C	0.620440	-0.598940	-0.655277
C152	C	1.120440	-0.098940	-0.155277
C153	C	0.620417	-0.552033	-0.655248
C154	C	1.120417	-0.052033	-0.155248
N155	N	0.649156	-0.528570	-0.578578
N156	N	1.149156	-0.028570	-0.078578
C157	C	0.677908	-0.552024	-0.501919
C158	C	1.177908	-0.052024	-0.001919
C159	C	0.620544	-0.978982	-0.655357
C160	C	1.120544	-0.478982	-0.155357
C161	C	0.620557	-1.025900	-0.655366
C162	C	1.120557	-0.525900	-0.155366
C163	C	0.678050	-1.025891	-0.502030
C164	C	1.178050	-0.525891	-0.002030
C165	C	0.678035	-0.978972	-0.502016
C166	C	1.178035	-0.478972	-0.002016
C167	C	0.649284	-0.955519	-0.578688
C168	C	1.149284	-0.455519	-0.078688
C169	C	0.677872	-0.453498	-0.501891
C170	C	1.177872	0.046502	-0.001891
C171	C	0.677852	-0.406579	-0.501879
C172	C	1.177852	0.093421	-0.001879
C173	C	0.620361	-0.406591	-0.655219
C174	C	1.120361	0.093409	-0.155219
C175	C	0.620379	-0.453507	-0.655227
C176	C	1.120379	0.046493	-0.155227
C177	C	0.649138	-0.476959	-0.578559
C178	C	1.149138	0.023041	-0.078559
O179	O	0.595967	-0.527734	-0.720380
O180	O	1.095967	-0.027734	-0.220380
O181	O	0.702351	-0.527753	-0.436726
O182	O	1.202351	-0.027753	0.063274
C183	C	0.677968	-0.739688	-0.501974
C184	C	1.177968	-0.239688	-0.001974
C185	C	0.649232	-0.763149	-0.578650
C186	C	1.149232	-0.263149	-0.078650
C187	C	0.620480	-0.739695	-0.655310
C188	C	1.120480	-0.239695	-0.155310
C189	C	0.649245	-0.810067	-0.578659
C190	C	1.149245	-0.310067	-0.078659
C191	C	0.677996	-0.833522	-0.501999
C192	C	1.177996	-0.333522	-0.001999
C193	C	0.706736	-0.810058	-0.425330
C194	C	1.206736	-0.310058	0.074670
C195	C	0.706720	-0.763143	-0.425314
C196	C	1.206720	-0.263143	0.074686
C197	C	0.591741	-0.763158	-0.731979
C198	C	1.091741	-0.263158	-0.231979
C199	C	0.591759	-0.810073	-0.731987
C200	C	1.091759	-0.310073	-0.231987
C201	C	0.620511	-0.833528	-0.655327
C202	C	1.120511	-0.333528	-0.155327
C203	C	0.766353	-0.216491	-0.578684
C204	C	1.266353	0.283509	-0.078684
C205	C	0.816288	-0.216501	-0.578727
C206	C	1.316288	0.283499	-0.078727
C207	C	0.649211	-0.216417	-0.891626
C208	C	1.149211	0.283583	-0.391626
C209	C	0.649226	-0.216396	-1.025026
C210	C	1.149226	0.283604	-0.525026
C211	C	0.649269	-0.099289	-0.578670
C212	C	1.149269	0.400711	-0.078670
C213	C	0.649309	-0.049354	-0.578706
C214	C	1.149309	0.450646	-0.078706
C215	C	0.649165	-0.216484	-0.266759
C216	C	1.149165	0.283516	0.233241
C217	C	0.649237	-0.216379	-0.133360
C218	C	1.149237	0.283621	0.366640
H219	H	0.036483	-0.297408	-0.794308
H220	H	0.536483	0.202592	-0.294308
Br221	Br	0.745682	-0.590564	-0.321210
Br222	Br	1.245682	-0.090564	0.178790
H223	H	0.597151	-1.044998	-0.717798
H224	H	1.097151	-0.544998	-0.217798
H225	H	0.701254	-0.387478	-0.439430
H226	H	1.201254	0.112522	0.060570
Br227	Br	0.717037	-0.947138	-0.397942
Br228	Br	1.217037	-0.447138	0.102058
H229	H	0.701291	-0.472588	-0.439463
H230	H	1.201291	0.027412	0.060537
H231	H	0.568290	-0.603307	-0.794400
H232	H	1.068290	-0.103307	-0.294400
H233	H	0.393030	-0.164265	-0.439490
H234	H	0.893030	0.335735	0.060510
H235	H	-0.094256	-0.164299	-0.439688
H236	H	0.405744	0.335701	0.060312
H237	H	0.730121	-0.744044	-0.362872
H238	H	1.230121	-0.244044	0.137128
Br239	Br	0.275085	-0.313012	-0.835786
Br240	Br	0.775085	0.186988	-0.335786
H241	H	0.596950	-0.387487	-0.717631
H242	H	1.096950	0.112513	-0.217631
Br243	Br	0.380332	-0.284249	-0.759131
Br244	Br	0.880332	0.215751	-0.259131
H245	H	0.730104	-0.688404	-0.362857
H246	H	1.230104	-0.188404	0.137143
H247	H	0.036451	-0.135531	-0.363014
H248	H	0.536451	0.364469	0.136986
H249	H	0.262316	-0.135511	-0.362951
H250	H	0.762316	0.364489	0.137049
H251	H	0.730145	-0.829163	-0.362907
H252	H	1.230145	-0.329163	0.137093
Br253	Br	0.581366	-0.485348	-0.759268
Br254	Br	1.081366	0.014652	-0.259268
H255	H	-0.179365	-0.164317	-0.439707
H256	H	0.320635	0.335683	0.060293
Br257	Br	0.134327	-0.313022	-0.835868
Br258	Br	0.634327	0.186978	-0.335868
H259	H	0.478152	-0.164262	-0.439467
H260	H	0.978152	0.335738	0.060533
H261	H	0.701461	-1.044996	-0.439611
H262	H	1.201461	-0.544996	0.060389
Br263	Br	0.552752	-0.841907	-0.836063
Br264	Br	1.052752	-0.341907	-0.336063
Br265	Br	0.581521	-0.947158	-0.759423
Br266	Br	1.081521	-0.447158	-0.259423
Br267	Br	0.490907	-0.284248	-0.759059
Br268	Br	0.990907	0.215752	-0.259059
H269	H	0.568328	-0.744065	-0.794406
H270	H	1.068328	-0.244065	-0.294406
H271	H	0.568308	-0.688416	-0.794412
H272	H	1.068308	-0.188416	-0.294412
H273	H	-0.094219	-0.268677	-0.717699
H274	H	0.405781	0.231323	-0.217699
H275	H	0.121556	-0.135520	-0.362992
H276	H	0.621556	0.364480	0.137008
Br277	Br	0.164461	-0.119901	-0.321375
Br278	Br	0.664461	0.380099	0.178625
H279	H	-0.179343	-0.268682	-0.717724
H280	H	0.320657	0.231318	-0.217724
H281	H	0.177241	-0.297403	-0.794224
H282	H	0.677241	0.202597	-0.294224
