data_functionalizedCrystal
_audit_creation_method	'MofGen! by Chris Wilmer'
_symmetry_space_group_name_H-M	'P1'
_symmetry_Int_Tables_number	1
_symmetry_cell_setting	triclinic
loop_
_symmetry_equiv_pos_as_xyz
  x,y,z
_cell_length_a	13.033293
_cell_length_b	18.101396
_cell_length_c	13.032268
_cell_angle_alpha	82.853868
_cell_angle_beta	89.079182
_cell_angle_gamma	82.793385
loop_
_atom_site_label
_atom_site_type_symbol
_atom_site_fract_x
_atom_site_fract_y
_atom_site_fract_z
Zn1	Zn	1.498354	0.230410	-0.781469
Zn2	Zn	1.998354	0.730410	-0.281469
Zn3	Zn	1.520046	0.336839	-0.609490
Zn4	Zn	2.020046	0.836839	-0.109490
Zn5	Zn	1.348216	0.226499	-0.587645
Zn6	Zn	1.848216	0.726499	-0.087645
Zn7	Zn	1.326283	0.367712	-0.759529
Zn8	Zn	1.826283	0.867712	-0.259529
O9	O	1.423225	0.290365	-0.684533
O10	O	1.923225	0.790365	-0.184533
O11	O	1.645155	0.233245	-0.776981
O12	O	2.145155	0.733245	-0.276981
O13	O	1.515510	0.307645	-0.462685
O14	O	2.015510	0.807645	0.037315
O15	O	1.368233	0.123380	-0.613397
O16	O	1.868233	0.623380	-0.113397
O17	O	1.661093	0.311437	-0.650628
O18	O	2.161093	0.811437	-0.150628
O19	O	1.478538	0.126253	-0.755798
O20	O	1.978538	0.626253	-0.255798
O21	O	1.389267	0.226579	-0.446635
O22	O	1.889267	0.726579	0.053365
O23	O	1.201382	0.256515	-0.592121
O24	O	1.701382	0.756515	-0.092121
O25	O	1.330851	0.364056	-0.906347
O26	O	1.830851	0.864056	-0.406347
O27	O	1.185268	0.360263	-0.718403
O28	O	1.685268	0.860263	-0.218403
O29	O	1.457271	0.263181	-0.922467
O30	O	1.957271	0.763181	-0.422467
O31	O	1.494243	0.444572	-0.629353
O32	O	1.994243	0.944572	-0.129353
O33	O	1.351885	0.467255	-0.739586
O34	O	1.851885	0.967255	-0.239586
C35	C	1.156007	0.311316	-0.650512
C36	C	1.656007	0.811316	-0.150512
C37	C	1.041687	0.320299	-0.635981
C38	C	1.541687	0.820299	-0.135981
C39	C	0.982822	0.285695	-0.692117
C40	C	1.482822	0.785695	-0.192117
C41	C	0.864666	0.294979	-0.677100
C42	C	1.364666	0.794979	-0.177100
C43	C	1.423063	0.482786	-0.684485
C44	C	1.923063	0.982786	-0.184485
C45	C	1.423083	0.565100	-0.684511
C46	C	1.923083	1.065100	-0.184511
C47	C	1.423259	0.864183	-0.684594
C48	C	1.923259	1.364183	-0.184594
C49	C	1.333855	0.847165	-0.754170
C50	C	1.833855	1.347165	-0.254170
C51	C	1.333522	0.761550	-0.753873
C52	C	1.833522	1.261550	-0.253873
C53	C	1.423172	0.715805	-0.684554
C54	C	1.923172	1.215805	-0.184554
C55	C	1.407597	0.738272	-0.572442
C56	C	1.907597	1.238272	-0.072442
C57	C	1.407013	0.824006	-0.572853
C58	C	1.907013	1.324006	-0.072853
C59	C	1.528536	0.826804	-0.726198
C60	C	2.028536	1.326804	-0.226198
C61	C	1.527607	0.741443	-0.728493
C62	C	2.027607	1.241443	-0.228493
C63	C	1.423125	0.631947	-0.684524
C64	C	1.923125	1.131947	-0.184524
C65	C	1.423304	0.948040	-0.684616
C66	C	1.923304	1.448040	-0.184616
C67	C	1.691485	0.269333	-0.718689
C68	C	2.191485	0.769333	-0.218689
C69	C	1.805802	0.260371	-0.733244
C70	C	2.305802	0.760371	-0.233244
C71	C	1.389194	0.317498	-0.952764
C72	C	1.889194	0.817498	-0.452764
C73	C	1.374693	0.329061	-1.067067
C74	C	1.874693	0.829061	-0.567067
C75	C	1.423376	1.097196	-0.684607
C76	C	1.923376	1.597196	-0.184607
C77	C	1.423347	1.014887	-0.684637
C78	C	1.923347	1.514887	-0.184637
C79	C	1.430777	0.284305	-1.126003
C80	C	1.930777	0.784305	-0.626003
C81	C	1.415790	0.296254	-1.244142
C82	C	1.915790	0.796254	-0.744142
C83	C	1.457182	0.263279	-0.417354
C84	C	1.957182	0.763279	0.082646
C85	C	1.471883	0.251492	-0.303077
C86	C	1.971883	0.751492	0.196923
H87	H	0.827594	0.331478	-0.617918
H88	H	1.327594	0.831478	-0.117918
H89	H	1.489885	0.237139	-1.088998
H90	H	1.989885	0.737139	-0.588998
H91	H	1.545414	0.854128	-0.807284
H92	H	2.045414	1.354128	-0.307284
O93	O	0.992582	0.368641	-0.557587
O94	O	1.492582	0.868641	-0.057587
H95	H	1.053677	0.392572	-0.518744
H96	H	1.553677	0.892572	-0.018744
H97	H	1.539601	0.727429	-0.811069
H98	H	2.039601	1.227429	-0.311069
O99	O	1.230725	0.881646	-0.716620
O100	O	1.730725	1.381646	-0.216620
H101	H	1.180866	0.836847	-0.694296
H102	H	1.680866	1.336847	-0.194296
H103	H	1.594976	0.836537	-0.675691
H104	H	2.094976	1.336537	-0.175691
O105	O	0.854892	0.212021	-0.811641
O106	O	1.354892	0.712021	-0.311641
H107	H	0.939991	0.212319	-0.811141
H108	H	1.439991	0.712319	-0.311141
H109	H	1.315575	0.376220	-1.104071
H110	H	1.815575	0.876220	-0.604071
O111	O	1.619058	0.699423	-0.667695
O112	O	2.119058	1.199423	-0.167695
H113	H	1.591379	0.659432	-0.604929
H114	H	2.091379	1.159432	-0.104929
O115	O	1.305616	0.855665	-0.528303
O116	O	1.805616	1.355665	-0.028303
H117	H	1.320797	0.882200	-0.458647
H118	H	1.820797	1.382200	0.041353
O119	O	1.031919	0.237345	-0.770506
O120	O	1.531919	0.737345	-0.270506
H121	H	1.117018	0.237644	-0.770003
H122	H	1.617018	0.737644	-0.270003
H123	H	1.341671	0.747192	-0.836570
H124	H	1.841671	1.247192	-0.336570
H125	H	1.341782	0.874460	-0.837104
H126	H	1.841782	1.374460	-0.337104
H127	H	1.255216	0.745590	-0.725224
H128	H	1.755216	1.245590	-0.225224
H129	H	1.470053	0.834167	-0.518503
H130	H	1.970053	1.334167	-0.018503
H131	H	1.356668	0.343417	-1.281142
H132	H	1.856668	0.843417	-0.781142
H133	H	1.530993	0.204322	-1.266077
H134	H	2.030993	0.704322	-0.766077
H135	H	1.471279	0.707331	-0.518584
H136	H	1.971279	1.207331	-0.018584
O137	O	1.307395	0.714919	-0.527462
O138	O	1.807395	1.214919	-0.027462
H139	H	1.268542	0.687316	-0.584753
H140	H	1.768542	1.187316	-0.084753
