data_functionalizedCrystal
_audit_creation_method	'MofGen! by Chris Wilmer'
_symmetry_space_group_name_H-M	'P1'
_symmetry_Int_Tables_number	1
_symmetry_cell_setting	triclinic
loop_
_symmetry_equiv_pos_as_xyz
  x,y,z
_cell_length_a	11.295663
_cell_length_b	12.837943
_cell_length_c	12.837942
_cell_angle_alpha	94.828940
_cell_angle_beta	85.464944
_cell_angle_gamma	94.531612
loop_
_atom_site_label
_atom_site_type_symbol
_atom_site_fract_x
_atom_site_fract_y
_atom_site_fract_z
O1	O	0.099001	-1.395983	-0.278487
O2	O	0.099008	-1.092849	-0.265044
O3	O	0.098997	-1.237695	-0.120198
O4	O	0.099011	-1.251137	-0.423333
O5	O	-0.099049	-1.250389	-0.107496
O6	O	-0.099038	-1.105543	-0.252342
O7	O	-0.099045	-1.408677	-0.265785
Cu8	Cu	-0.117125	-1.258269	-0.257903
Cu9	Cu	0.117087	-1.243257	-0.272925
O10	O	-0.099035	-1.263831	-0.410631
C11	C	-0.000014	-1.060127	-0.254152
C12	C	-0.000012	-0.943712	-0.240607
N13	N	-0.281857	-1.268836	-0.247338
C14	C	-0.000025	-1.239500	-0.074778
C15	C	-0.000023	-1.225956	0.041637
C16	C	-0.468849	-1.345004	-0.171243
C17	C	-0.344188	-1.336996	-0.179233
C18	C	-0.344196	-1.208681	-0.307459
C19	C	-0.468857	-1.216689	-0.299469
C20	C	-0.531179	-1.284851	-0.231357
C21	C	-0.655842	-1.292852	-0.223362
C22	C	-0.655847	-1.164544	-0.351593
C23	C	-0.531187	-1.156536	-0.359583
N24	N	0.281820	-1.232697	-0.283483
C25	C	-0.000021	-1.441399	-0.276677
C26	C	-0.000015	-1.557814	-0.290222
C27	C	-0.000021	-0.718838	-0.403436
C28	C	-0.000020	-0.609456	-0.390715
C29	C	-0.000016	-0.615563	-0.202444
C30	C	-0.000017	-0.724945	-0.215165
C31	C	-0.000018	-0.776579	-0.315665
C32	C	-0.000011	-0.885963	-0.328385
C33	C	-0.000016	-0.892068	-0.140115
C34	C	-0.000015	-0.782686	-0.127394
C35	C	-0.000010	-1.262025	-0.456051
C36	C	-0.000004	-1.275570	-0.572466
C37	C	-0.000002	-1.388784	0.266510
C38	C	0.000000	-1.376062	0.375892
C39	C	-0.000008	-1.187792	0.369785
C40	C	-0.000010	-1.200513	0.260403
C41	C	-0.000009	-1.301013	0.208769
C42	C	-0.000020	-1.313734	0.099385
C43	C	-0.000019	-1.125463	0.093280
C44	C	-0.000017	-1.112742	0.202662
H45	H	-0.706583	-1.348350	-0.167900
Br46	Br	0.000013	-0.970435	-0.020990
H47	H	-0.293437	-1.153193	-0.362922
H48	H	-0.000014	-0.928001	-0.410217
Br49	Br	-0.553432	-1.437491	-0.078793
Br50	Br	-0.740449	-1.082894	-0.433169
H51	H	-0.000034	-1.053994	0.046257
H52	H	-0.293443	-1.385980	-0.130284
H53	H	-0.480430	-1.101043	-0.415041
Br54	Br	-0.000032	-0.531096	-0.509838
Br55	Br	-0.000000	-0.788916	-0.539824
Br56	Br	-0.000003	-0.976356	0.272745
Br57	Br	-0.000031	-1.450124	0.029312
Br58	Br	-0.000036	-0.545471	-0.066061
H59	H	-0.000028	-0.740631	-0.045569
H60	H	-0.000013	-1.470615	0.224469
H61	H	0.000010	-1.447535	0.422900
Br62	Br	0.000034	-1.051408	0.439875
