data_functionalizedCrystal
_audit_creation_method	'MofGen! by Chris Wilmer'
_symmetry_space_group_name_H-M	'P1'
_symmetry_Int_Tables_number	1
_symmetry_cell_setting	triclinic
loop_
_symmetry_equiv_pos_as_xyz
  x,y,z
_cell_length_a	10.654541
_cell_length_b	16.974800
_cell_length_c	15.455313
_cell_angle_alpha	90.973911
_cell_angle_beta	92.691200
_cell_angle_gamma	83.935819
loop_
_atom_site_label
_atom_site_type_symbol
_atom_site_fract_x
_atom_site_fract_y
_atom_site_fract_z
O1	O	0.160091	1.049949	0.001600
O2	O	0.660091	1.549949	0.501600
O3	O	0.179269	0.820621	-0.014505
O4	O	0.679269	1.320621	0.485495
O5	O	-0.013114	0.940558	-0.006077
O6	O	0.486886	1.440558	0.493923
O7	O	0.352474	0.930011	-0.006828
O8	O	0.852474	1.430011	0.493172
O9	O	-0.002158	0.933699	0.137703
O10	O	0.497842	1.433699	0.637703
O11	O	0.190225	0.813762	0.129275
O12	O	0.690225	1.313762	0.629275
O13	O	0.171046	1.043090	0.145381
O14	O	0.671046	1.543090	0.645381
Cu15	Cu	0.181636	0.927800	0.150456
Cu16	Cu	0.681636	1.427800	0.650456
Cu17	Cu	0.168680	0.935911	-0.019581
Cu18	Cu	0.668680	1.435911	0.480419
O19	O	0.363430	0.923152	0.136952
O20	O	0.863430	1.423152	0.636952
C21	C	0.183817	0.787827	0.055322
C22	C	0.683817	1.287827	0.555322
C23	C	0.181030	0.700330	0.049178
C24	C	0.681030	1.200330	0.549178
C25	C	0.185690	0.655490	0.124667
C26	C	0.685690	1.155490	0.624667
C27	C	0.183052	0.573279	0.118896
C28	C	0.683052	1.073279	0.618896
C29	C	0.175763	0.535909	0.037634
C30	C	0.675763	1.035909	0.537634
C31	C	0.171099	0.580755	-0.037861
C32	C	0.671099	1.080755	0.462139
C33	C	0.173728	0.662965	-0.032089
C34	C	0.673728	1.162965	0.467911
C35	C	0.167250	0.290438	0.011967
C36	C	0.667250	0.790438	0.511967
C37	C	0.164625	0.208221	0.006200
C38	C	0.664625	0.708221	0.506200
C39	C	0.176576	0.200750	0.162958
C40	C	0.676576	0.700750	0.662958
C41	C	0.179212	0.282962	0.168723
C42	C	0.679212	0.782962	0.668723
C43	C	0.174542	0.327802	0.093228
C44	C	0.674542	0.827802	0.593228
N45	N	0.173070	0.451875	0.031733
N46	N	0.673070	0.951875	0.531733
N47	N	0.177225	0.411834	0.099130
N48	N	0.677225	0.911834	0.599130
C49	C	-0.054426	0.936355	0.065758
C50	C	0.445574	1.436355	0.565758
C51	C	-0.193846	0.934039	0.065594
C52	C	0.306154	1.434039	0.565594
C53	C	-0.223299	1.077456	0.075678
C54	C	0.276701	1.577456	0.575678
C55	C	-0.303524	1.148074	0.080644
C56	C	0.196476	1.648074	0.580644
C57	C	-0.434519	1.145893	0.080488
C58	C	0.065481	1.645893	0.580488
C59	C	-0.485292	1.073087	0.075363
C60	C	0.014708	1.573087	0.575363
C61	C	-0.405068	1.002470	0.070396
C62	C	0.094932	1.502470	0.570396
C63	C	-0.274071	1.004658	0.070555
C64	C	0.225929	1.504658	0.570555
C65	C	-0.375615	0.859055	0.060307
C66	C	0.124385	1.359055	0.560307
C67	C	-0.244618	0.861233	0.060469
C68	C	0.255382	1.361233	0.560469
C69	C	-0.426388	0.786249	0.055181
C70	C	0.073612	1.286249	0.555181
C71	C	-0.346163	0.715629	0.050220
C72	C	0.153837	1.215629	0.550220
C73	C	-0.215160	0.717813	0.050377
C74	C	0.284840	1.217813	0.550377
C75	C	-0.164394	0.790616	0.055502
C76	C	0.335606	1.290616	0.555502
C77	C	0.404741	0.927356	0.065115
C78	C	0.904741	1.427356	0.565115
C79	C	0.544161	0.929672	0.065273
C80	C	1.044161	1.429672	0.565273
C81	C	0.166499	1.075884	0.075551
C82	C	0.666499	1.575884	0.575551
C83	C	0.169285	1.163381	0.081690
C84	C	0.669285	1.663381	0.581690
N85	N	0.190748	0.922100	0.270051
N86	N	0.690748	1.422100	0.770051
N87	N	0.159557	0.941616	-0.139175
N88	N	0.659557	1.441616	0.360825
C89	C	0.109047	0.973072	0.319027
C90	C	0.609047	1.473072	0.819027
C91	C	0.115950	0.968769	0.409533
C92	C	0.615950	1.468769	0.909533
C93	C	0.204561	0.913498	0.451061
C94	C	0.704561	1.413498	0.951061
C95	C	0.286265	0.862521	0.402078
C96	C	0.786265	1.362521	0.902078
C97	C	0.279356	0.866820	0.311574
C98	C	0.779356	1.366820	0.811574
C99	C	0.234352	0.894939	0.721338
C100	C	0.734352	1.394939	1.221338
C101	C	0.241258	0.890645	0.811849
C102	C	0.741258	1.390645	1.311849
C103	C	0.070941	0.996893	0.819297
C104	C	0.570941	1.496893	1.319297
C105	C	0.064044	1.001190	0.728791
C106	C	0.564044	1.501190	1.228791
C107	C	0.145744	0.950211	0.679816
C108	C	0.645744	1.450211	1.179816
N109	N	0.211622	0.909100	0.543572
N110	N	0.711622	1.409100	1.043572
N111	N	0.138676	0.954605	0.587306
N112	N	0.638676	1.454605	1.087306
H113	H	0.185142	0.313383	0.234895
H114	H	0.685142	0.813383	0.734895
H115	H	0.180376	0.164233	0.224422
H116	H	0.680376	0.664233	0.724422
C117	C	0.026091	1.024845	0.463403
C118	C	0.526091	1.524845	0.963403
H119	H	-0.027658	1.058387	0.425709
H120	H	0.472342	1.558387	0.925709
H121	H	-0.023627	0.994546	0.496714
H122	H	0.476373	1.494546	0.996714
H123	H	0.074127	1.056215	0.501013
H124	H	0.574127	1.556215	1.001013
C125	C	0.168611	0.712289	-0.115127
C126	C	0.668611	1.212289	0.384873
H127	H	0.163905	0.678259	-0.164351
H128	H	0.663905	1.178259	0.335649
H129	H	0.096222	0.750129	-0.115739
H130	H	0.596222	1.250129	0.384261
H131	H	0.242565	0.738899	-0.116529
H132	H	0.742565	1.238899	0.383471
H133	H	-0.591958	1.071319	0.075226
H134	H	-0.091958	1.571319	0.575226
H135	H	-0.387514	0.656357	0.046042
H136	H	0.112486	1.156357	0.546042
C137	C	-0.570479	0.783845	0.055002
C138	C	-0.070479	1.283845	0.555002
H139	H	-0.589225	0.730373	0.051230
H140	H	-0.089225	1.230373	0.551230
H141	H	-0.601744	0.807437	0.106967
H142	H	-0.101744	1.307437	0.606967
H143	H	-0.609361	0.812231	0.006683
H144	H	-0.109361	1.312231	0.506683
C145	C	0.163084	0.539650	-0.127247
C146	C	0.663084	1.039650	0.372753
H147	H	0.162199	0.484265	-0.119875
H148	H	0.662199	0.984265	0.380125
H149	H	0.087895	0.560270	-0.158111
H150	H	0.587895	1.060270	0.341889
H151	H	0.234238	0.549047	-0.158898
H152	H	0.734238	1.049047	0.341102
C153	C	0.369226	0.810755	0.257696
C154	C	0.869226	1.310755	0.757696
H155	H	0.352413	0.821226	0.197848
H156	H	0.852413	1.321226	0.697848
H157	H	0.454214	0.819061	0.273148
H158	H	0.954214	1.319061	0.773148
H159	H	0.356475	0.757382	0.268845
H160	H	0.856475	1.257382	0.768845
C161	C	-0.126917	0.640135	0.044910
C162	C	0.373083	1.140135	0.544910
H163	H	-0.041628	0.651857	0.045732
H164	H	0.458372	1.151857	0.545732
H165	H	-0.138522	0.607912	0.092947
H166	H	0.361478	1.107912	0.592947
H167	H	-0.146154	0.612716	-0.007337
H168	H	0.353846	1.112716	0.492663
H169	H	0.300878	0.853430	0.681469
H170	H	0.800878	1.353430	1.181469
C171	C	-0.020303	0.793017	0.055674
C172	C	0.479697	1.293017	0.555674
H173	H	0.020208	0.740534	0.051987
H174	H	0.520208	1.240534	0.551987
H175	H	0.000074	0.822395	0.007436
H176	H	0.500074	1.322395	0.507436
H177	H	0.007706	0.817595	0.107719
H178	H	0.507706	1.317595	0.607719
C179	C	-0.033435	1.061984	0.683116
C180	C	0.466565	1.561984	1.183116
H181	H	-0.081114	1.091721	0.725248
H182	H	0.418886	1.591721	1.225248
H183	H	0.009189	1.096710	0.650116
H184	H	0.509189	1.596710	1.150116
H185	H	-0.088537	1.035023	0.645815
H186	H	0.411463	1.535023	1.145815
C187	C	0.011573	1.033870	0.273354
C188	C	0.511573	1.533870	0.773354
H189	H	-0.036104	1.063604	0.315488
H190	H	0.463896	1.563604	0.815488
H191	H	0.054195	1.068597	0.240355
H192	H	0.554195	1.568597	0.740355
H193	H	-0.043531	1.006909	0.236053
H194	H	0.456469	1.506909	0.736053
C195	C	0.156635	0.167113	-0.083192
C196	C	0.656635	0.667113	0.416808
H197	H	0.154230	0.205592	-0.127328
H198	H	0.654230	0.705592	0.372672
H199	H	0.228542	0.129593	-0.089083
H200	H	0.728542	0.629593	0.410917
H201	H	0.082197	0.140802	-0.088314
H202	H	0.582197	0.640802	0.411686
H203	H	0.191636	0.685909	0.190839
H204	H	0.691636	1.185909	0.690839
C205	C	-0.522774	1.223567	0.085949
C206	C	-0.022774	1.723567	0.585949
H207	H	-0.608060	1.211837	0.085115
H208	H	-0.108060	1.711837	0.585115
H209	H	-0.503546	1.250997	0.138184
H210	H	-0.003546	1.750997	0.638184
H211	H	-0.511176	1.255783	0.037899
H212	H	-0.011176	1.755783	0.537899
H213	H	-0.116636	1.079239	0.075817
H214	H	0.383364	1.579239	0.575817
H215	H	0.313421	0.845634	0.845656
H216	H	0.813421	1.345634	1.345656
C217	C	-0.018932	1.052958	0.873170
C218	C	0.481068	1.552958	1.373170
H219	H	-0.002137	1.042479	0.933019
H220	H	0.497863	1.542479	1.433019
H221	H	-0.006198	1.106330	0.862023
H222	H	0.493802	1.606330	1.362023
H223	H	-0.103920	1.044640	0.857714
H224	H	0.396080	1.544640	1.357714
H225	H	0.163443	0.326937	-0.049507
H226	H	0.663443	0.826937	0.450493
C227	C	-0.247671	1.228154	0.086286
C228	C	0.252329	1.728154	0.586286
H229	H	-0.158165	1.219342	0.085676
H230	H	0.341835	1.719342	0.585676
H231	H	-0.279005	1.259659	0.038196
H232	H	0.220995	1.759659	0.538196
H233	H	-0.271375	1.254859	0.138480
H234	H	0.228625	1.754859	0.638480
C235	C	0.383737	0.801725	0.447756
C236	C	0.883737	1.301725	0.947756
H237	H	0.376162	0.806469	0.508672
H238	H	0.876162	1.306469	1.008672
H239	H	0.368736	0.749762	0.429242
H240	H	0.868736	1.249762	0.929242
H241	H	0.466461	0.811450	0.433543
H242	H	0.966461	1.311450	0.933543
H243	H	0.186826	0.536775	0.180368
H244	H	0.686826	1.036775	0.680368
