data_functionalizedCrystal
_audit_creation_method	'MofGen! by Chris Wilmer'
_symmetry_space_group_name_H-M	'P1'
_symmetry_Int_Tables_number	1
_symmetry_cell_setting	triclinic
loop_
_symmetry_equiv_pos_as_xyz
  x,y,z
_cell_length_a	10.686220
_cell_length_b	18.050590
_cell_length_c	10.686551
_cell_angle_alpha	94.409718
_cell_angle_beta	89.691918
_cell_angle_gamma	94.400502
loop_
_atom_site_label
_atom_site_type_symbol
_atom_site_fract_x
_atom_site_fract_y
_atom_site_fract_z
Zn1	Zn	1.972267	-0.181058	0.562364
Zn2	Zn	2.472267	0.318942	1.062364
Zn3	Zn	1.956022	-0.315478	0.352590
Zn4	Zn	2.456022	0.184522	0.852590
Zn5	Zn	1.746383	-0.200056	0.368680
Zn6	Zn	2.246383	0.299944	0.868680
Zn7	Zn	1.762452	-0.313973	0.578368
Zn8	Zn	2.262452	0.186027	1.078368
O9	O	1.859281	-0.252641	0.465500
O10	O	2.359281	0.247359	0.965500
O11	O	2.145654	-0.191568	0.521106
O12	O	2.645654	0.308432	1.021106
O13	O	1.914689	-0.308747	0.179178
O14	O	2.414689	0.191253	0.679178
O15	O	1.776420	-0.093606	0.394409
O16	O	2.276420	0.406394	0.894409
O17	O	2.133719	-0.290326	0.366986
O18	O	2.633719	0.209674	0.866986
O19	O	1.942376	-0.079649	0.536708
O20	O	2.442376	0.420351	1.036708
O21	O	1.760668	-0.223948	0.190999
O22	O	2.260668	0.276052	0.690999
O23	O	1.572972	-0.222488	0.409926
O24	O	2.072972	0.277512	0.909926
O25	O	1.803808	-0.287761	0.751791
O26	O	2.303808	0.212239	1.251791
O27	O	1.584778	-0.306182	0.563983
O28	O	2.084778	0.193818	1.063983
O29	O	1.957958	-0.190109	0.740034
O30	O	2.457958	0.309891	1.240034
O31	O	1.930271	-0.419208	0.382503
O32	O	2.430271	0.080792	0.882503
O33	O	1.788056	-0.418102	0.548381
O34	O	2.288056	0.081898	1.048381
C35	C	1.533359	-0.266234	0.490438
C36	C	2.033359	0.233766	0.990438
C37	C	1.393930	-0.272065	0.501136
C38	C	1.893930	0.227935	1.001136
C39	C	1.859181	-0.445600	0.465458
C40	C	2.359181	0.054400	0.965458
C41	C	1.859256	-0.528141	0.465473
C42	C	2.359256	-0.028141	0.965473
C43	C	1.936775	-0.728153	0.375372
C44	C	2.436775	-0.228153	0.875372
C45	C	1.976211	-0.770629	0.487518
C46	C	2.476211	-0.270629	0.987518
C47	C	1.859331	-0.679266	0.465517
C48	C	2.359331	-0.179266	0.965517
C49	C	1.820026	-0.783864	0.353412
C50	C	2.320026	-0.283864	0.853412
C51	C	1.859405	-0.825247	0.465550
C52	C	2.359405	-0.325247	0.965550
C53	C	1.898830	-0.720649	0.577719
C54	C	2.398830	-0.220649	1.077719
C55	C	1.742586	-0.733886	0.443540
C56	C	2.242586	-0.233886	0.943540
C57	C	1.781985	-0.776338	0.555769
C58	C	2.281985	-0.276338	1.055769
C59	C	1.859291	-0.595171	0.465496
C60	C	2.359291	-0.095171	0.965496
C61	C	1.859445	-0.909340	0.465584
C62	C	2.359445	-0.409340	0.965584
C63	C	2.186476	-0.238996	0.440466
C64	C	2.686476	0.261004	0.940466
C65	C	2.325907	-0.233181	0.429798
C66	C	2.825907	0.266819	0.929798
C67	C	1.884487	-0.236648	0.792702
C68	C	2.384487	0.263352	1.292702
C69	C	1.895229	-0.229832	0.932137
C70	C	2.395229	0.270168	1.432137
C71	C	1.859418	-0.058926	0.465568
C72	C	2.359418	0.441074	0.965568
C73	C	1.859476	0.023624	0.465597
C74	C	2.359476	0.523624	0.965597
C75	C	1.834245	-0.268516	0.139566
C76	C	2.334245	0.231484	0.639566
C77	C	1.823746	-0.275112	0.000114
C78	C	2.323746	0.224888	0.500114
H79	H	2.002297	-0.706968	0.299210
H80	H	2.502297	-0.206968	0.799210
H81	H	1.345494	-0.309824	0.570394
H82	H	1.845494	0.190176	1.070394
H83	H	2.074973	-0.786977	0.506130
H84	H	2.574973	-0.286977	1.006130
H85	H	1.374337	-0.195429	0.360537
H86	H	1.874337	0.304571	0.860537
O87	O	1.943072	-0.684296	0.703344
O88	O	2.443072	-0.184296	1.203344
H89	H	1.942743	-0.622869	0.702326
H90	H	2.442743	-0.122869	1.202326
O91	O	1.611807	-0.712196	0.418837
O92	O	2.111807	-0.212196	0.918837
H93	H	1.546819	-0.763174	0.405621
H94	H	2.046819	-0.263174	0.905621
H95	H	1.754332	-0.319093	0.951640
H96	H	2.254332	0.180907	1.451640
H97	H	1.964656	-0.185853	0.980615
H98	H	2.464656	0.314147	1.480615
H99	H	1.716530	-0.797375	0.632098
H100	H	2.216530	-0.297375	1.132098
H101	H	1.786753	-0.811403	0.258594
H102	H	2.286753	-0.311403	0.758594
