data_functionalizedCrystal
_audit_creation_method	'MofGen! by Chris Wilmer'
_symmetry_space_group_name_H-M	'P1'
_symmetry_Int_Tables_number	1
_symmetry_cell_setting	triclinic
loop_
_symmetry_equiv_pos_as_xyz
  x,y,z
_cell_length_a	14.519731
_cell_length_b	10.540535
_cell_length_c	12.996460
_cell_angle_alpha	89.992517
_cell_angle_beta	89.994327
_cell_angle_gamma	84.106248
loop_
_atom_site_label
_atom_site_type_symbol
_atom_site_fract_x
_atom_site_fract_y
_atom_site_fract_z
O1	O	1.224752	0.166529	-0.085572
O2	O	0.956383	0.186096	-0.085574
O3	O	1.096692	-0.008456	-0.085563
O4	O	1.084443	0.361082	-0.085584
O5	O	1.096677	-0.008467	0.085571
O6	O	0.956368	0.186086	0.085560
O7	O	1.224737	0.166518	0.085561
Cu8	Cu	1.090551	0.176301	0.101186
Cu9	Cu	1.090569	0.176314	-0.101199
O10	O	1.084428	0.361071	0.085550
C11	C	0.922011	0.185174	-0.000008
C12	C	0.819616	0.182427	-0.000008
C13	C	0.736460	0.180194	-0.000012
C14	C	0.632136	0.177405	-0.000012
C15	C	0.548985	0.175191	-0.000012
C16	C	0.444655	0.172402	-0.000014
C17	C	1.095767	-0.055755	0.000005
C18	C	1.093021	-0.196676	0.000006
C19	C	0.990578	-0.232311	-0.000002
C20	C	0.987689	-0.378883	-0.000409
C21	C	1.139793	-0.406467	-0.097553
C22	C	1.141973	-0.259724	-0.097616
C23	C	1.143446	-0.259889	0.097002
C24	C	1.138709	-0.406188	0.098265
C25	C	1.259109	0.167441	-0.000008
C26	C	1.361504	0.170188	-0.000014
C27	C	1.085353	0.408370	-0.000020
C28	C	1.088099	0.549291	-0.000028
N29	N	1.090546	0.176291	0.243533
N30	N	1.090582	0.176314	-0.243546
C31	C	1.090567	0.176315	0.663348
C32	C	1.090559	0.176313	0.546543
C33	C	1.090557	0.176304	0.453444
C34	C	1.090547	0.176300	0.336632
H35	H	0.947252	-0.407823	0.069481
H36	H	1.211994	-0.455964	0.104448
H37	H	0.951233	-0.189956	0.069928
H38	H	0.951904	-0.188451	-0.069838
H39	H	1.217073	-0.237451	-0.101769
H40	H	1.101090	-0.434426	0.170416
H41	H	0.947475	-0.406917	-0.070739
H42	H	1.218817	-0.238455	0.097953
H43	H	1.107074	-0.219187	-0.170798
H44	H	1.213724	-0.454570	-0.100906
H45	H	1.104338	-0.436996	-0.170416
H46	H	1.111473	-0.217120	0.170952
