data_functionalizedCrystal
_audit_creation_method	'MofGen! by Chris Wilmer'
_symmetry_space_group_name_H-M	'P1'
_symmetry_Int_Tables_number	1
_symmetry_cell_setting	triclinic
loop_
_symmetry_equiv_pos_as_xyz
  x,y,z
_cell_length_a	12.827893
_cell_length_b	19.121063
_cell_length_c	12.827893
_cell_angle_alpha	87.574376
_cell_angle_beta	90.003786
_cell_angle_gamma	92.469061
loop_
_atom_site_label
_atom_site_type_symbol
_atom_site_fract_x
_atom_site_fract_y
_atom_site_fract_z
Zn1	Zn	1.579663	-0.279735	0.608543
Zn2	Zn	1.572111	-0.397158	0.441233
Zn3	Zn	1.404952	-0.279724	0.433817
Zn4	Zn	1.397398	-0.397152	0.615933
O5	O	1.488531	-0.338442	0.524882
O6	O	1.724897	-0.295319	0.586360
O7	O	1.549938	-0.381578	0.294013
O8	O	1.434449	-0.181440	0.450798
O9	O	1.719349	-0.381589	0.463438
O10	O	1.562809	-0.181448	0.579168
O11	O	1.427127	-0.295300	0.288564
O12	O	1.257714	-0.295294	0.457964
O13	O	1.421575	-0.381579	0.761189
O14	O	1.252164	-0.381568	0.591764
O15	O	1.555484	-0.295313	0.755760
O16	O	1.542614	-0.495443	0.470604
O17	O	1.414252	-0.495439	0.598956
C18	C	1.217022	-0.338429	0.524862
C19	C	1.100868	-0.338441	0.524879
C20	C	1.051806	-0.295693	0.458780
C21	C	0.931755	-0.295704	0.458796
C22	C	1.476822	-0.520925	0.536410
C23	C	1.471909	-0.598992	0.541376
C24	C	1.536483	-0.635647	0.476939
C25	C	1.531868	-0.709000	0.481617
C26	C	1.462673	-0.745695	0.550726
C27	C	1.398096	-0.709035	0.615170
C28	C	1.402716	-0.635684	0.610498
C29	C	1.445379	-0.967169	0.568181
C30	C	1.440761	-1.040525	0.572846
C31	C	1.574535	-1.040484	0.439293
C32	C	1.579146	-0.967132	0.434622
C33	C	1.514573	-0.930478	0.499070
C34	C	1.457951	-0.820673	0.555507
C35	C	1.519300	-0.855502	0.494294
C36	C	1.761100	-0.338456	0.524902
C37	C	1.877253	-0.338462	0.524911
C38	C	1.488529	-0.338446	0.797452
C39	C	1.488528	-0.338448	0.913605
C40	C	1.500314	-0.155247	0.513331
C41	C	1.505335	-0.077180	0.508409
C42	C	1.554781	-0.295769	1.082748
C43	C	1.554783	-0.295766	0.962697
C44	C	1.488524	-0.338454	1.253372
C45	C	1.488525	-0.338452	1.137219
H46	H	1.053995	-0.375049	0.581479
H47	H	1.611507	-0.259231	1.124990
H48	H	1.098679	-0.259090	0.402173
H49	H	1.431806	-0.374996	1.094977
Cl50	Cl	0.942398	-0.394967	0.612296
Cl51	Cl	1.623470	-0.589523	0.390047
H52	H	1.431794	-0.374988	0.960432
H53	H	1.584451	-0.738841	0.429145
Cl54	Cl	1.666153	-0.921005	0.347753
Cl55	Cl	0.866603	-0.239193	0.371426
Cl56	Cl	1.606289	-0.809369	0.407421
Cl57	Cl	1.655714	-1.086567	0.358286
H58	H	1.384426	-1.070401	0.629142
H59	H	1.392799	-0.937331	0.620655
H60	H	1.611503	-0.259221	0.915864
Cl61	Cl	1.311112	-0.755167	0.702058
H62	H	1.350135	-0.605840	0.662970
H63	H	1.401610	-0.850559	0.611774
