data_functionalizedCrystal
_audit_creation_method	'MofGen! by Chris Wilmer'
_symmetry_space_group_name_H-M	'P1'
_symmetry_Int_Tables_number	1
_symmetry_cell_setting	triclinic
loop_
_symmetry_equiv_pos_as_xyz
  x,y,z
_cell_length_a	12.759401
_cell_length_b	29.839131
_cell_length_c	12.759393
_cell_angle_alpha	90.045545
_cell_angle_beta	90.018567
_cell_angle_gamma	90.034273
loop_
_atom_site_label
_atom_site_type_symbol
_atom_site_fract_x
_atom_site_fract_y
_atom_site_fract_z
Zn1	Zn	1.606105	-0.178838	0.593881
Zn2	Zn	1.605937	-0.253977	0.418158
Zn3	Zn	1.430407	-0.178860	0.418220
Zn4	Zn	1.430333	-0.253941	0.593800
O5	O	1.518196	-0.216404	0.506015
O6	O	1.753104	-0.188811	0.570579
O7	O	1.582613	-0.244037	0.271146
O8	O	1.453816	-0.115990	0.441582
O9	O	1.752980	-0.244015	0.441477
O10	O	1.582900	-0.115974	0.570639
O11	O	1.453652	-0.188849	0.271191
O12	O	1.283377	-0.188814	0.441503
O13	O	1.453689	-0.243954	0.740832
O14	O	1.283322	-0.243975	0.570501
O15	O	1.582828	-0.188776	0.740892
O16	O	1.582541	-0.316839	0.441398
O17	O	1.453526	-0.316813	0.570441
C18	C	1.245228	-0.216394	0.506000
C19	C	1.128452	-0.216400	0.506019
C20	C	1.073647	-0.187709	0.573347
C21	C	0.963923	-0.187718	0.573354
C22	C	0.963818	-0.245111	0.438701
C23	C	1.073540	-0.245100	0.438690
C24	C	1.073707	-0.154575	0.651091
C25	C	0.963983	-0.154584	0.651097
C26	C	1.518036	-0.333127	0.505926
C27	C	1.518063	-0.383061	0.505924
C28	C	1.585395	-0.692661	0.573311
C29	C	1.585509	-0.880334	0.573374
O30	O	1.642601	-0.904562	0.630603
N31	N	1.518374	-0.903846	0.506132
C32	C	1.451201	-0.880437	0.438873
O33	O	1.394093	-0.904742	0.381689
C34	C	1.451082	-0.692765	0.438816
C35	C	1.518229	-0.669255	0.506056
C36	C	1.652536	-0.669152	0.640545
C37	C	1.652511	-0.622236	0.640525
C38	C	1.585345	-0.598830	0.573270
C39	C	1.518204	-0.622340	0.506035
C40	C	1.383904	-0.669356	0.371564
C41	C	1.383879	-0.622435	0.371558
C42	C	1.451026	-0.598926	0.438797
C43	C	1.451013	-0.552018	0.438760
N44	N	1.518148	-0.528507	0.506002
C45	C	1.585314	-0.551912	0.573257
C46	C	1.451269	-0.978968	0.438907
C47	C	1.451300	-1.025885	0.438919
C48	C	1.585608	-1.025779	0.573422
C49	C	1.585581	-0.978861	0.573403
C50	C	1.518404	-0.955456	0.506149
C51	C	1.585257	-0.453387	0.573208
C52	C	1.585229	-0.406467	0.573179
C53	C	1.450918	-0.406577	0.438681
C54	C	1.450950	-0.453493	0.438706
C55	C	1.518123	-0.476896	0.505978
O56	O	1.393943	-0.527762	0.381569
O57	O	1.642397	-0.527600	0.630450
C58	C	1.585421	-0.739577	0.573331
C59	C	1.518280	-0.763086	0.506097
C60	C	1.451114	-0.739680	0.438842
C61	C	1.518310	-0.810004	0.506109
C62	C	1.585476	-0.833410	0.573365
C63	C	1.652612	-0.809898	0.640607
C64	C	1.652587	-0.762982	0.640586
C65	C	1.383978	-0.763192	0.371599
C66	C	1.384010	-0.810108	0.371624
C67	C	1.451176	-0.833514	0.438879
C68	C	1.792229	-0.216415	0.506030
C69	C	1.909006	-0.216420	0.506037
C70	C	1.518269	-0.216359	0.780048
C71	C	1.518301	-0.216339	0.896825
C72	C	1.518385	-0.099226	0.506127
C73	C	1.518466	-0.049291	0.506175
C74	C	1.518183	-0.216417	0.233048
C75	C	1.518355	-0.216310	0.116272
C76	C	1.585553	-0.187606	0.951720
C77	C	1.585578	-0.187590	1.061444
C78	C	1.451096	-0.245044	1.061369
C79	C	1.451066	-0.245058	0.951647
C80	C	1.663198	-0.154436	0.951765
C81	C	1.663223	-0.154420	1.061489
H82	H	1.639912	-0.387327	0.627933
Cl83	Cl	1.737003	-0.733435	0.725123
Cl84	Cl	1.788840	-0.168801	1.107464
H85	H	1.107762	-0.167075	0.728321
H86	H	1.640298	-1.044844	0.628182
H87	H	0.919095	-0.268478	0.383885
H88	H	0.934230	-0.163946	0.732428
H89	H	1.639949	-0.472436	0.627995
Cl90	Cl	1.736921	-0.592688	0.725068
Cl91	Cl	1.366578	-0.281146	1.130295
Cl92	Cl	1.366548	-0.483048	0.354163
H93	H	1.396299	-0.268454	0.906955
H94	H	1.396633	-1.045023	0.384155
H95	H	1.329226	-0.688490	0.316810
Cl96	Cl	0.911459	-0.103535	0.606350
Cl97	Cl	1.142434	-0.281156	0.354015
Cl98	Cl	1.618167	-0.103407	1.114094
Cl99	Cl	1.736982	-0.698568	0.725110
H100	H	1.640258	-0.959722	0.628155
H101	H	1.103503	-0.119767	0.629457
Cl102	Cl	1.366806	-0.949551	0.354353
Cl103	Cl	1.366485	-0.377144	0.354137
Cl104	Cl	1.299422	-0.593015	0.287004
H105	H	1.707305	-0.828963	0.695365
Cl106	Cl	1.299591	-0.839657	0.287082
H107	H	1.329282	-0.744139	0.316833
H108	H	1.641459	-0.119644	0.922028
H109	H	1.740459	-0.166909	0.917722
