data_functionalizedCrystal
_audit_creation_method	'MofGen! by Chris Wilmer'
_symmetry_space_group_name_H-M	'P1'
_symmetry_Int_Tables_number	1
_symmetry_cell_setting	triclinic
loop_
_symmetry_equiv_pos_as_xyz
  x,y,z
_cell_length_a	20.453700
_cell_length_b	11.353959
_cell_length_c	11.102291
_cell_angle_alpha	76.858639
_cell_angle_beta	108.605752
_cell_angle_gamma	72.473377
loop_
_atom_site_label
_atom_site_type_symbol
_atom_site_fract_x
_atom_site_fract_y
_atom_site_fract_z
V1	V	1.377236	-0.180922	0.436295
O2	O	1.356535	0.008677	0.386796
O3	O	1.376102	-0.358723	0.472930
O4	O	1.369395	-0.178147	0.608503
O5	O	1.363289	-0.173149	0.250284
V6	V	1.535427	-0.158243	0.409234
O7	O	1.470866	-0.230671	0.495656
O8	O	1.591864	-0.108495	0.349873
O9	O	1.462159	0.019557	0.372599
O10	O	1.595261	-0.347843	0.458733
O11	O	1.588507	-0.166017	0.595245
O12	O	1.468867	-0.161019	0.237026
V13	V	1.043903	-0.180922	0.436295
O14	O	1.023201	0.008677	0.386796
O15	O	1.042769	-0.358723	0.472930
O16	O	1.036061	-0.178147	0.608503
O17	O	1.029956	-0.173149	0.250284
V18	V	1.202094	-0.158243	0.409234
O19	O	1.137533	-0.230671	0.495656
O20	O	1.258530	-0.108495	0.349873
O21	O	1.128826	0.019557	0.372599
O22	O	1.261928	-0.347843	0.458733
O23	O	1.255174	-0.166017	0.595245
O24	O	1.135534	-0.161019	0.237026
C25	C	1.327817	-0.402066	0.476271
C26	C	1.354041	-0.547420	0.507372
V27	V	1.710570	-0.180922	0.436295
O28	O	1.689868	0.008677	0.386796
O29	O	1.709436	-0.358723	0.472930
O30	O	1.702728	-0.178147	0.608503
O31	O	1.696622	-0.173149	0.250284
V32	V	1.868761	-0.158243	0.409234
O33	O	1.804199	-0.230671	0.495656
O34	O	1.925197	-0.108495	0.349873
O35	O	1.795492	0.019557	0.372599
O36	O	1.928595	-0.347843	0.458733
O37	O	1.921840	-0.166017	0.595245
O38	O	1.802200	-0.161019	0.237026
C39	C	1.346011	-0.594474	0.406704
C40	C	1.373114	-0.744705	0.438846
C41	C	1.319260	-0.171722	0.649205
C42	C	1.340042	-0.170629	0.790247
C43	C	1.398226	0.062894	0.369256
C44	C	1.365082	0.208246	0.338163
C45	C	1.406783	-0.167448	0.196318
C46	C	1.379079	-0.168534	0.055274
C47	C	0.994483	-0.402066	0.476271
C48	C	1.020707	-0.547420	0.507372
C49	C	1.411384	-0.176637	0.864424
C50	C	1.430902	-0.175585	0.996937
C51	C	1.307731	-0.162522	0.981085
C52	C	1.288212	-0.163565	0.848571
C53	C	1.482497	-0.184185	0.873579
C54	C	1.502015	-0.183132	1.006092
C55	C	0.985926	-0.171722	0.649205
C56	C	1.006709	-0.170629	0.790247
C57	C	1.064893	0.062894	0.369256
C58	C	1.031749	0.208246	0.338163
C59	C	1.073449	-0.167448	0.196318
C60	C	1.045746	-0.168534	0.055274
C61	C	1.661150	-0.402066	0.476271
C62	C	1.687374	-0.547420	0.507372
C63	C	1.652593	-0.171722	0.649205
C64	C	1.673375	-0.170629	0.790247
C65	C	1.731559	0.062894	0.369256
C66	C	1.698415	0.208246	0.338163
C67	C	1.740116	-0.167448	0.196318
C68	C	1.712412	-0.168534	0.055274
C69	C	1.094615	-0.622347	0.529803
C70	C	1.119268	-0.758927	0.559047
C71	C	1.070011	-0.820575	0.565849
C72	C	0.996097	-0.745638	0.543420
C73	C	0.971447	-0.609063	0.514186
C74	C	1.072837	0.283172	0.315736
C75	C	1.041699	0.419751	0.286499
C76	C	0.969474	0.481399	0.279699
C77	C	0.928383	0.406463	0.302125
C78	C	0.959519	0.269889	0.331352
C79	C	1.761282	-0.622347	0.529803
C80	C	1.785935	-0.758927	0.559047
C81	C	1.736677	-0.820575	0.565849
C82	C	1.662764	-0.745638	0.543420
C83	C	1.638113	-0.609063	0.514186
C84	C	1.739504	0.283172	0.315736
C85	C	1.708366	0.419751	0.286499
C86	C	1.636141	0.481399	0.279699
C87	C	1.595050	0.406463	0.302125
C88	C	1.626186	0.269889	0.331352
C89	C	1.078050	-0.176637	0.864424
C90	C	1.097568	-0.175585	0.996937
C91	C	0.974397	-0.162522	0.981085
C92	C	0.954878	-0.163565	0.848571
C93	C	1.149163	-0.184185	0.873579
C94	C	1.168681	-0.183132	1.006092
C95	C	1.744717	-0.176637	0.864424
C96	C	1.764235	-0.175585	0.996937
C97	C	1.641064	-0.162522	0.981085
C98	C	1.621545	-0.163565	0.848571
C99	C	1.815830	-0.184185	0.873579
C100	C	1.835348	-0.183132	1.006092
H101	H	1.319075	-0.523540	0.296723
C102	C	1.867240	-0.841330	0.583700
N103	N	1.928478	-0.903391	0.602264
C104	C	1.580981	0.187481	0.356038
N105	N	1.546928	0.125418	0.374633
C106	C	1.200573	-0.841330	0.583700
N107	N	1.261811	-0.903391	0.602264
C108	C	1.815481	-0.554562	0.522336
N109	N	1.856311	-0.503516	0.516723
C110	C	1.847115	-0.057721	1.017664
N111	N	1.855975	0.036738	1.026381
H112	H	1.577930	-0.548066	0.495917
H113	H	1.090092	-0.931785	0.589654
C114	C	1.153469	-0.064287	0.783415
N115	N	1.156710	0.026021	0.715503
H116	H	1.563454	-0.158674	0.788181
C117	C	0.848935	0.474298	0.294640
N118	N	0.789095	0.525395	0.289006
H119	H	1.622664	-0.795854	0.548963
H120	H	1.798314	0.232997	0.321269
H121	H	1.741835	0.480745	0.268245
H122	H	1.819023	-0.095438	0.806844
H123	H	1.485690	-0.095438	0.806844
C124	C	0.914314	0.187481	0.356038
N125	N	0.880261	0.125418	0.374633
H126	H	1.598868	-0.156768	1.028589
H127	H	0.944130	0.592608	0.255899
C128	C	1.390432	-0.643244	0.655956
N129	N	1.417840	-0.715418	0.767873
H130	H	1.517919	-0.281694	0.870694
H131	H	0.896787	-0.158674	0.788181
C132	C	1.409506	-0.840525	0.587438
N133	N	1.436914	-0.912699	0.699354
C134	C	1.763803	-0.970813	0.597999
N135	N	1.784238	-1.083972	0.622210
C136	C	1.148814	-0.554562	0.522336
N137	N	1.189644	-0.503516	0.516723
H138	H	1.338144	-0.720824	0.228174
C139	C	1.152285	0.215388	0.323199
N140	N	1.212124	0.164342	0.328808
H141	H	1.610797	0.592608	0.255899
C142	C	1.863686	-0.315910	0.869673
N143	N	1.899732	-0.415127	0.866731
H144	H	1.230121	-0.158674	0.788181
H145	H	0.911263	-0.548066	0.495917
H146	H	1.265534	-0.156768	1.028589
C147	C	1.515601	0.474298	0.294640
N148	N	1.455762	0.525395	0.289006
C149	C	1.086925	0.502147	0.261891
N150	N	1.120994	0.564200	0.243375
C151	C	1.197019	-0.315910	0.869673
N152	N	1.233065	-0.415127	0.866731
C153	C	1.513781	-0.057721	1.017664
N154	N	1.522641	0.036738	1.026381
C155	C	0.917374	-0.154675	1.045227
N156	N	0.874416	-0.148737	1.093526
C157	C	1.180448	-0.057721	1.017664
N158	N	1.189308	0.036738	1.026381
H159	H	0.955997	-0.795854	0.548963
C160	C	1.238122	-0.310870	1.105760
N161	N	1.290417	-0.407087	1.180830
H162	H	1.553427	-0.277675	1.079861
H163	H	1.886760	-0.277675	1.079861
