data_functionalizedCrystal
_audit_creation_method	'MofGen! by Chris Wilmer'
_symmetry_space_group_name_H-M	'P1'
_symmetry_Int_Tables_number	1
_symmetry_cell_setting	triclinic
loop_
_symmetry_equiv_pos_as_xyz
  x,y,z
_cell_length_a	11.792254
_cell_length_b	14.519731
_cell_length_c	10.268362
_cell_angle_alpha	89.993732
_cell_angle_beta	89.995475
_cell_angle_gamma	83.943725
loop_
_atom_site_label
_atom_site_type_symbol
_atom_site_fract_x
_atom_site_fract_y
_atom_site_fract_z
O1	O	1.506211	0.126459	-0.108302
O2	O	1.175801	0.139474	-0.108305
O3	O	1.349754	-0.001238	-0.108292
O4	O	1.332258	0.267171	-0.108316
O5	O	1.349739	-0.001244	0.108309
O6	O	1.175786	0.139468	0.108295
O7	O	1.506196	0.126453	0.108298
Cu8	Cu	1.340990	0.132960	0.128074
Cu9	Cu	1.341007	0.132967	-0.128081
O10	O	1.332243	0.267165	0.108285
C11	C	1.133507	0.138651	-0.000005
C12	C	1.007508	0.136197	-0.000006
C13	C	0.905182	0.134203	-0.000012
C14	C	0.776809	0.131710	-0.000012
C15	C	1.348926	-0.035604	0.000009
C16	C	1.346470	-0.137993	0.000009
C17	C	1.344474	-0.221145	0.000006
C18	C	1.341980	-0.325463	-0.000004
C19	C	1.340000	-0.408609	-0.000012
C20	C	1.337506	-0.512934	-0.000020
C21	C	1.548490	0.127276	-0.000005
C22	C	1.674489	0.129730	-0.000012
C23	C	1.333071	0.301531	-0.000019
C24	C	1.335527	0.403920	-0.000028
N25	N	1.340985	0.132955	0.308240
N26	N	1.341021	0.132965	-0.308247
C27	C	1.341002	0.132965	0.573911
C28	C	1.340989	0.132962	0.426073
