data_functionalizedCrystal
_audit_creation_method	'MofGen! by Chris Wilmer'
_symmetry_space_group_name_H-M	'P1'
_symmetry_Int_Tables_number	1
_symmetry_cell_setting	triclinic
loop_
_symmetry_equiv_pos_as_xyz
  x,y,z
_cell_length_a	12.503572
_cell_length_b	11.026607
_cell_length_c	11.026607
_cell_angle_alpha	108.586017
_cell_angle_beta	85.701682
_cell_angle_gamma	94.293464
loop_
_atom_site_label
_atom_site_type_symbol
_atom_site_fract_x
_atom_site_fract_y
_atom_site_fract_z
O1	O	-0.089318	-1.732471	-0.527857
O2	O	-0.089320	-1.365891	-0.467093
O3	O	-0.089315	-1.518799	-0.314185
O4	O	-0.089323	-1.579563	-0.680765
O5	O	0.089326	-1.507305	-0.325709
O6	O	0.089322	-1.354397	-0.478617
O7	O	0.089323	-1.720977	-0.539381
Cu8	Cu	0.105634	-1.536638	-0.510051
Cu9	Cu	-0.105630	-1.550231	-0.496423
O10	O	0.089319	-1.568069	-0.692289
C11	C	0.000001	-1.312485	-0.461645
C12	C	0.000000	-1.170471	-0.428228
N13	N	0.254226	-1.527086	-0.519638
N14	N	-0.254222	-1.559790	-0.486828
C15	C	0.473341	-1.513037	-0.533751
C16	C	0.526670	-1.573836	-0.472718
C17	C	0.648593	-1.566019	-0.480571
C18	C	0.351407	-1.520853	-0.525900
C19	C	0.000004	-1.501842	-0.272288
C20	C	0.000000	-1.468426	-0.130273
C21	C	0.000001	-1.774384	-0.544829
C22	C	-0.000006	-1.916398	-0.578245
C23	C	-0.000003	-1.116822	-0.520498
C24	C	-0.000003	-0.970043	-0.485962
C25	C	-0.000003	-1.585026	-0.734186
C26	C	-0.000006	-1.618443	-0.876200
C27	C	-0.000001	-1.560695	-0.076624
C28	C	-0.000005	-1.526160	0.070155
H29	H	0.480759	-1.631759	-0.414570
H30	H	-0.000029	-0.907316	-0.381391
C31	C	0.534495	-1.435581	-0.611094
C32	C	0.507275	-1.307533	-0.561470
C33	C	0.563614	-1.236144	-0.632675
H34	H	0.516177	-1.469136	-0.698023
H35	H	0.609502	-1.440442	-0.606106
H36	H	0.432285	-1.302677	-0.566470
H37	H	0.525595	-1.273940	-0.474549
H38	H	0.638621	-1.241005	-0.627687
H39	H	0.545293	-1.269710	-0.719601
H40	H	0.545162	-1.149254	-0.599008
H41	H	0.000006	-1.665258	-0.139358
C42	C	-0.000171	-1.329062	-0.046473
C43	C	-0.092068	-1.310466	0.036669
C44	C	-0.092256	-1.182103	0.113893
H45	H	-0.000225	-1.275516	-0.099005
H46	H	0.062090	-1.308155	0.002068
H47	H	-0.154314	-1.331359	-0.011867
H48	H	-0.092034	-1.363983	0.089229
H49	H	-0.029994	-1.161196	0.162433
H50	H	-0.092307	-1.128567	0.061350
H51	H	-0.154601	-1.169471	0.170321
H52	H	0.000001	-1.179554	-0.625061
C53	C	0.000208	-0.999958	-0.717714
C54	C	0.092123	-0.967849	-0.784108
C55	C	0.092361	-1.044813	-0.912580
H56	H	-0.062019	-0.986409	-0.755092
H57	H	0.000265	-1.087505	-0.722445
H58	H	0.092056	-0.880323	-0.779384
H59	H	0.154365	-0.981404	-0.746770
H60	H	0.092419	-1.132360	-0.917312
H61	H	0.030130	-1.031257	-0.949945
H62	H	0.154729	-1.023045	-0.957642
H63	H	-0.000025	-1.107739	-0.323664
C64	C	0.000048	-1.757800	0.039950
C65	C	0.000076	-1.764352	-0.088965
C66	C	0.000140	-1.892701	-0.166244
H67	H	-0.062231	-1.803167	0.061430
H68	H	0.062370	-1.795049	0.053483
H69	H	-0.062239	-1.727120	-0.102492
H70	H	0.062351	-1.719012	-0.110484
H71	H	0.062461	-1.929951	-0.152711
H72	H	-0.062141	-1.938058	-0.144754
H73	H	0.000169	-1.897164	-0.253722
H74	H	-0.000012	-1.421591	0.132884
