data_functionalizedCrystal
_audit_creation_method	'MofGen! by Chris Wilmer'
_symmetry_space_group_name_H-M	'P1'
_symmetry_Int_Tables_number	1
_symmetry_cell_setting	triclinic
loop_
_symmetry_equiv_pos_as_xyz
  x,y,z
_cell_length_a	15.944493
_cell_length_b	10.654554
_cell_length_c	9.130313
_cell_angle_alpha	89.998999
_cell_angle_beta	90.006727
_cell_angle_gamma	96.019057
loop_
_atom_site_label
_atom_site_type_symbol
_atom_site_fract_x
_atom_site_fract_y
_atom_site_fract_z
O1	O	-0.117995	1.666267	-0.121845
O2	O	-0.129231	1.300641	-0.121844
O3	O	-0.001393	1.493476	-0.121815
O4	O	-0.245833	1.473432	-0.121875
O5	O	-0.001396	1.493474	0.121784
O6	O	-0.129234	1.300638	0.121755
O7	O	-0.117998	1.666265	0.121754
Cu8	Cu	-0.123616	1.483451	0.143997
Cu9	Cu	-0.123612	1.483454	-0.144087
O10	O	-0.245836	1.473429	0.121724
C11	C	-0.128407	1.253852	-0.000044
C12	C	-0.125936	1.114442	-0.000043
C13	C	-0.046021	0.932939	-0.000042
C14	C	-0.048342	1.063930	-0.000028
C15	C	-0.201214	1.033956	-0.000057
C16	C	-0.198892	0.902968	-0.000061
C17	C	0.042239	0.950246	-0.000031
C18	C	0.039918	1.081237	-0.000017
C19	C	-0.277134	1.474250	-0.000083
C20	C	-0.370397	1.476706	-0.000106
C21	C	-0.605498	1.363198	-0.000058
C22	C	-0.656429	1.424410	-0.120158
C23	C	-0.541144	1.481257	-0.000072
C24	C	-0.656390	1.424435	0.120011
C25	C	-0.706079	1.485644	-0.000033
C26	C	-0.590847	1.542437	-0.120272
C27	C	-0.590804	1.542444	0.120005
C28	C	-0.641702	1.603743	-0.000125
C29	C	-0.446130	1.478726	-0.000096
C30	C	-0.801091	1.488184	-0.000019
C31	C	0.029905	1.492656	-0.000011
C32	C	0.123168	1.490200	0.000003
C33	C	-0.118822	1.713053	-0.000050
C34	C	-0.121293	1.852463	-0.000061
N35	N	-0.123619	1.483458	0.346619
N36	N	-0.123603	1.483457	-0.346710
C37	C	-0.067032	1.568868	0.423284
C38	C	-0.067021	1.568864	0.576621
C39	C	-0.180193	1.398039	0.576614
C40	C	-0.180199	1.398037	0.423280
C41	C	-0.001695	1.667497	0.423289
C42	C	-0.001685	1.667493	0.576626
H43	H	0.073170	1.123435	-0.101957
H44	H	0.070345	0.914991	-0.105207
H45	H	-0.016078	1.763814	0.618238
F46	F	0.082692	1.640587	0.368903
H47	H	0.066587	1.127227	0.105174
H48	H	-0.589281	1.261505	-0.000180
H49	H	-0.226259	1.328490	0.639048
H50	H	-0.685091	1.374554	-0.221700
F51	F	-0.240415	1.307120	0.341688
F52	F	-0.553567	1.607562	-0.253144
F53	F	-0.662693	1.736763	-0.000205
F54	F	-0.028445	1.786318	0.361112
H55	H	-0.562126	1.592256	0.221550
H56	H	-0.685021	1.374553	0.221551
H57	H	-0.260186	0.837447	-0.000059
H58	H	-0.264393	1.075093	-0.000055
F59	F	0.087355	0.912456	0.133218
H60	H	0.059327	1.637789	0.624188
