data_functionalizedCrystal
_audit_creation_method	'MofGen! by Chris Wilmer'
_symmetry_space_group_name_H-M	'P1'
_symmetry_Int_Tables_number	1
_symmetry_cell_setting	triclinic
loop_
_symmetry_equiv_pos_as_xyz
  x,y,z
_cell_length_a	12.759395
_cell_length_b	12.594516
_cell_length_c	12.759387
_cell_angle_alpha	89.970353
_cell_angle_beta	89.981185
_cell_angle_gamma	90.017589
loop_
_atom_site_label
_atom_site_type_symbol
_atom_site_fract_x
_atom_site_fract_y
_atom_site_fract_z
Zn1	Zn	1.606241	-0.423630	-0.594022
Zn2	Zn	1.606133	-0.601651	-0.418349
Zn3	Zn	1.430545	-0.423692	-0.418359
Zn4	Zn	1.430528	-0.601572	-0.593989
O5	O	1.518362	-0.512636	-0.506180
O6	O	1.753248	-0.447252	-0.570729
O7	O	1.582803	-0.578103	-0.271330
O8	O	1.453904	-0.274738	-0.441679
O9	O	1.753168	-0.578044	-0.441663
O10	O	1.582987	-0.274693	-0.570738
O11	O	1.453799	-0.447357	-0.271336
O12	O	1.283521	-0.447281	-0.441646
O13	O	1.453875	-0.577909	-0.741014
O14	O	1.283509	-0.577968	-0.570681
O15	O	1.582971	-0.447176	-0.741039
O16	O	1.582786	-0.750586	-0.441631
O17	O	1.453770	-0.750528	-0.570672
C18	C	1.245394	-0.512623	-0.506162
C19	C	1.128617	-0.512643	-0.506179
C20	C	1.128643	-0.648949	-0.640325
C21	C	1.073795	-0.717110	-0.707401
C22	C	0.964073	-0.717123	-0.707414
C23	C	0.909197	-0.648965	-0.640346
C24	C	0.964045	-0.580804	-0.573270
C25	C	1.073769	-0.580801	-0.573262
C26	C	0.964020	-0.444495	-0.439130
C27	C	1.073741	-0.444486	-0.439111
C28	C	0.909144	-0.376337	-0.372062
C29	C	0.963992	-0.308180	-0.304979
C30	C	1.073720	-0.308171	-0.304968
C31	C	1.128589	-0.376325	-0.372034
C32	C	1.518293	-0.789177	-0.506169
C33	C	1.518359	-0.907483	-0.506200
C34	C	1.448181	-0.976743	-0.576336
C35	C	1.422582	-1.047615	-0.480469
C36	C	1.544054	-1.047410	-0.602083
C37	C	1.492710	-0.976796	-0.410282
C38	C	1.614226	-0.976585	-0.531961
C39	C	1.588664	-1.047425	-0.436028
C40	C	1.792395	-0.512650	-0.506198
C41	C	1.909172	-0.512656	-0.506206
C42	C	1.518433	-0.512526	-0.780213
C43	C	1.518463	-0.512479	-0.896990
C44	C	1.518459	-0.235015	-0.506213
C45	C	1.518501	-0.116710	-0.506227
C46	C	1.384140	-0.376325	-0.897016
C47	C	1.316998	-0.308226	-0.951890
C48	C	1.317029	-0.308187	-1.061612
C49	C	1.384208	-0.376257	-1.116462
C50	C	1.451351	-0.444356	-1.061588
C51	C	1.451314	-0.444385	-0.951864
C52	C	1.585667	-0.580515	-1.061562
C53	C	1.585642	-0.580549	-0.951840
C54	C	1.652845	-0.648584	-1.116413
C55	C	1.719995	-0.716679	-1.061539
C56	C	1.719961	-0.716714	-0.951810
C57	C	1.652784	-0.648648	-0.896967
C58	C	1.518351	-0.512669	-0.233212
C59	C	1.518524	-0.512416	-0.116436
H60	H	0.919303	-0.252687	-0.250383
H61	H	1.652754	-0.648666	-0.807625
H62	H	1.384218	-0.376229	-1.205803
H63	H	1.341575	-1.078837	-0.458703
C64	C	1.367875	-0.934807	-0.656348
H65	H	1.402883	-0.893236	-0.707718
H66	H	1.317303	-0.892339	-0.621330
H67	H	1.333907	-0.992984	-0.689372
H68	H	1.774640	-0.772165	-0.907138
H69	H	0.819802	-0.376348	-0.372082
H70	H	1.470941	-0.945906	-0.329184
H71	H	1.695215	-0.945365	-0.553774
C72	C	1.249333	-0.648933	-0.640318
H73	H	1.274160	-0.699278	-0.689872
H74	H	1.274131	-0.667243	-0.572487
H75	H	1.274169	-0.580263	-0.658617
H76	H	1.648073	-1.078265	-0.376659
C77	C	1.573341	-1.089311	-0.711607
H78	H	1.523359	-1.065096	-0.761339
H79	H	1.573812	-1.164728	-0.710681
H80	H	1.640915	-1.063935	-0.730377
H81	H	1.384116	-0.376341	-0.807675
H82	H	1.118487	-0.772600	-0.762008
H83	H	1.262300	-0.252807	-0.907219
C84	C	1.134049	-0.233192	-0.231187
H85	H	1.207256	-0.242938	-0.240786
H86	H	1.116031	-0.248674	-0.160571
H87	H	1.116089	-0.161696	-0.246704
H88	H	1.262355	-0.252737	-1.106290
C89	C	1.249280	-0.376314	-0.372021
H90	H	1.274089	-0.325964	-0.322465
H91	H	1.274133	-0.357997	-0.439851
H92	H	1.274076	-0.444979	-0.353722
C93	C	1.652572	-0.648865	-1.237102
H94	H	1.702094	-0.699257	-1.261906
H95	H	1.670684	-0.580272	-1.262268
H96	H	1.584674	-0.667353	-1.261589
H97	H	0.819856	-0.648972	-0.640371
C98	C	0.903738	-0.792050	-0.781241
H99	H	0.952130	-0.832630	-0.821193
H100	H	0.860985	-0.751351	-0.827073
H101	H	0.860888	-0.838398	-0.741008
C102	C	1.793882	-0.791544	-1.121873
H103	H	1.784285	-0.781767	-1.195078
H104	H	1.778476	-0.863063	-1.103875
H105	H	1.864479	-0.775971	-1.103904
