data_functionalizedCrystal
_audit_creation_method	'MofGen! by Chris Wilmer'
_symmetry_space_group_name_H-M	'P1'
_symmetry_Int_Tables_number	1
_symmetry_cell_setting	triclinic
loop_
_symmetry_equiv_pos_as_xyz
  x,y,z
_cell_length_a	10.685661
_cell_length_b	12.759394
_cell_length_c	10.685880
_cell_angle_alpha	94.340093
_cell_angle_beta	81.602365
_cell_angle_gamma	85.635347
loop_
_atom_site_label
_atom_site_type_symbol
_atom_site_fract_x
_atom_site_fract_y
_atom_site_fract_z
Zn1	Zn	1.995684	-0.601001	-0.866159
Zn2	Zn	1.979278	-0.762128	-0.653911
Zn3	Zn	1.767131	-0.571872	-0.637691
Zn4	Zn	1.783397	-0.762033	-0.849866
O5	O	1.881373	-0.674259	-0.751907
O6	O	2.171134	-0.634605	-0.851610
O7	O	1.937463	-0.724740	-0.474137
O8	O	1.797508	-0.428721	-0.668028
O9	O	2.159081	-0.752985	-0.695672
O10	O	1.965424	-0.450122	-0.835882
O11	O	1.781600	-0.584960	-0.462220
O12	O	1.591662	-0.584867	-0.652230
O13	O	1.825231	-0.752823	-1.029650
O14	O	1.603613	-0.724578	-0.808114
O15	O	1.981197	-0.634513	-1.041620
O16	O	1.953235	-0.909131	-0.679874
O17	O	1.809323	-0.909061	-0.823842
C18	C	1.551581	-0.651552	-0.726645
C19	C	1.410497	-0.641866	-0.715868
C20	C	1.881300	-0.947220	-0.751880
C21	C	1.881389	-1.064005	-0.751920
C22	C	2.056128	-1.086131	-0.926819
C23	C	2.143539	-1.152058	-1.014281
C24	C	2.143616	-1.261787	-1.014315
C25	C	2.056271	-1.305590	-0.926879
C26	C	1.968861	-1.239662	-0.839417
C27	C	1.968795	-1.129932	-0.839390
C28	C	1.794118	-1.217536	-0.664526
C29	C	1.794044	-1.107808	-0.664484
C30	C	1.706773	-1.261339	-0.577090
C31	C	1.619366	-1.195411	-0.489620
C32	C	1.619293	-1.085677	-0.489589
C33	C	1.706634	-1.041880	-0.577022
C34	C	2.212452	-0.697055	-0.777268
C35	C	2.353539	-0.706769	-0.788075
C36	C	1.906858	-0.696906	-1.082978
C37	C	1.917719	-0.706557	-1.224061
C38	C	1.881482	-0.400236	-0.751963
C39	C	1.881528	-0.283464	-0.751988
C40	C	1.856059	-0.651629	-0.422129
C41	C	1.845444	-0.641699	-0.281065
H42	H	2.056085	-0.996785	-0.926790
O43	O	2.001634	-0.781570	-1.294470
C44	C	2.125694	-0.765116	-1.271878
H45	H	2.121004	-0.718396	-1.175808
H46	H	2.174148	-0.719092	-1.349746
C47	C	2.207851	-0.929806	-1.389781
C48	C	2.202091	-0.872431	-1.271781
H49	H	2.254980	-0.996002	-1.389727
H50	H	2.124270	-0.940891	-1.405007
H51	H	2.248226	-0.891441	-1.454658
H52	H	2.161702	-0.910790	-1.206908
H53	H	2.285667	-0.861356	-1.256544
O54	O	1.424262	-0.781769	-0.871743
C55	C	1.507261	-0.732876	-0.959660
H56	H	1.523557	-0.651486	-0.916546
H57	H	1.463508	-0.724430	-1.049895
C58	C	1.615000	-0.900786	-1.044994
C59	C	1.635023	-0.800825	-0.992037
H60	H	1.693808	-0.942701	-1.064972
H61	H	1.559079	-0.933727	-0.985767
H62	H	1.578535	-0.893733	-1.120184
H63	H	1.671472	-0.807878	-0.916841
H64	H	1.690953	-0.767886	-1.051254
O65	O	1.339850	-0.566871	-0.632118
C66	C	1.256811	-0.615768	-0.544242
H67	H	1.296211	-0.700675	-0.539275
H68	H	1.159413	-0.615298	-0.575884
C69	C	1.196059	-0.450833	-0.418320
C70	C	1.244457	-0.555115	-0.412211
H71	H	1.188433	-0.413418	-0.336877
H72	H	1.252000	-0.417889	-0.477525
H73	H	1.114899	-0.450456	-0.444693
H74	H	1.325622	-0.555491	-0.385853
H75	H	1.188529	-0.588058	-0.352997
O76	O	2.228256	-1.109554	-1.099385
C77	C	2.210197	-1.143109	-1.223747
H78	H	2.109297	-1.166799	-1.222319
H79	H	2.280830	-1.213699	-1.262207
C80	C	2.355282	-1.023311	-1.311321
C81	C	2.231351	-1.052398	-1.309569
H82	H	2.368336	-0.967359	-1.364263
H83	H	2.367453	-1.000707	-1.227537
H84	H	2.414128	-1.082144	-1.343368
H85	H	2.172508	-0.993570	-1.277508
H86	H	2.219170	-1.074991	-1.393350
O87	O	1.761524	-0.566745	-1.210576
C88	C	1.637469	-0.583164	-1.233216
H89	H	1.633809	-0.669120	-1.269233
H90	H	1.610165	-0.529749	-1.307537
C91	C	1.548280	-0.451567	-1.064659
C92	C	1.543783	-0.557143	-1.108886
H93	H	1.490488	-0.435512	-0.987970
H94	H	1.631858	-0.440502	-1.049409
H95	H	1.525530	-0.407067	-1.126605
H96	H	1.566548	-0.601641	-1.046948
H97	H	1.460206	-0.568214	-1.124124
O98	O	1.534479	-1.238084	-0.404867
C99	C	1.458021	-1.300855	-0.470813
H100	H	1.510135	-1.326887	-0.570469
H101	H	1.364985	-1.253097	-0.477466
C102	C	1.365772	-1.366799	-0.276847
C103	C	1.429784	-1.398779	-0.399242
H104	H	1.348348	-1.427201	-0.232697
H105	H	1.417279	-1.324506	-0.232416
H106	H	1.288249	-1.327000	-0.282407
H107	H	1.507312	-1.438566	-0.393680
H108	H	1.378289	-1.441081	-0.443671
O109	O	1.706329	-0.935276	-0.576983
C110	C	1.587143	-0.892545	-0.600202
H111	H	1.512413	-0.949315	-0.572878
H112	H	1.592476	-0.880070	-0.705304
C113	C	1.642481	-0.716306	-0.554059
C114	C	1.550693	-0.786028	-0.520489
H115	H	1.619998	-0.650599	-0.504894
H116	H	1.722781	-0.745094	-0.538421
H117	H	1.646916	-0.705923	-0.641645
H118	H	1.546271	-0.796421	-0.432909
H119	H	1.470391	-0.757240	-0.536112
H120	H	2.214781	-1.315466	-1.085546
H121	H	2.056332	-1.394938	-0.926923
H122	H	1.706838	-1.350687	-0.577127
H123	H	1.548109	-1.032003	-0.418371
