data_functionalizedCrystal
_audit_creation_method	'MofGen! by Chris Wilmer'
_symmetry_space_group_name_H-M	'P1'
_symmetry_Int_Tables_number	1
_symmetry_cell_setting	triclinic
loop_
_symmetry_equiv_pos_as_xyz
  x,y,z
_cell_length_a	15.297327
_cell_length_b	13.033293
_cell_length_c	13.033109
_cell_angle_alpha	74.800007
_cell_angle_beta	107.902170
_cell_angle_gamma	107.951422
loop_
_atom_site_label
_atom_site_type_symbol
_atom_site_fract_x
_atom_site_fract_y
_atom_site_fract_z
Zn1	Zn	-0.272005	1.651843	-0.855503
Zn2	Zn	0.227995	2.151843	-0.355503
Zn3	Zn	-0.411325	1.604361	-0.702628
Zn4	Zn	0.088675	2.104361	-0.202628
Zn5	Zn	-0.272022	1.451644	-0.655309
Zn6	Zn	0.227978	1.951644	-0.155309
Zn7	Zn	-0.446608	1.443077	-0.863870
Zn8	Zn	0.053392	1.943077	-0.363870
O9	O	-0.350490	1.537731	-0.769327
O10	O	0.149510	2.037731	-0.269327
O11	O	-0.275713	1.796826	-0.851526
O12	O	0.224287	2.296826	-0.351526
O13	O	-0.378087	1.567817	-0.545088
O14	O	0.121913	2.067817	-0.045088
O15	O	-0.140650	1.501657	-0.658561
O16	O	0.359350	2.001657	-0.158561
O17	O	-0.378070	1.761942	-0.739209
O18	O	0.121930	2.261942	-0.239209
O19	O	-0.140637	1.648742	-0.805643
O20	O	0.359363	2.148742	-0.305643
O21	O	-0.275742	1.455616	-0.510323
O22	O	0.224258	1.955616	-0.010323
O23	O	-0.309955	1.299225	-0.666673
O24	O	0.190045	1.799225	-0.166673
O25	O	-0.438205	1.487056	-1.014022
O26	O	0.061795	1.987056	-0.514022
O27	O	-0.438222	1.292932	-0.819902
O28	O	0.061778	1.792932	-0.319902
O29	O	-0.309925	1.640436	-1.007876
O30	O	0.190075	2.140436	-0.507876
O31	O	-0.547376	1.559510	-0.747321
O32	O	-0.047376	2.059510	-0.247321
O33	O	-0.573298	1.441015	-0.865785
O34	O	-0.073298	1.941015	-0.365785
C35	C	-0.377920	1.256853	-0.739061
C36	C	0.122080	1.756853	-0.239061
C37	C	-0.389679	1.136690	-0.726143
C38	C	0.110321	1.636690	-0.226143
C39	C	-0.344376	1.100373	-0.776074
C40	C	0.155624	1.600373	-0.276074
C41	C	-0.356529	0.976180	-0.762723
C42	C	0.143471	1.476180	-0.262723
C43	C	-0.594399	1.494213	-0.812622
C44	C	-0.094399	1.994213	-0.312622
C45	C	-0.698738	1.475698	-0.831190
C46	C	-0.198738	1.975698	-0.331190
C47	C	-0.938737	1.670544	-0.637033
C48	C	-0.438737	2.170544	-0.137033
C49	C	-0.840705	1.687938	-0.619582
C50	C	-0.340705	2.187938	-0.119582
C51	C	-0.805208	1.634880	-0.672482
C52	C	-0.305208	2.134880	-0.172482
C53	C	-0.867754	1.564424	-0.742837
C54	C	-0.367754	2.064424	-0.242837
C55	C	-0.965796	1.547021	-0.760284
C56	C	-0.465796	2.047021	-0.260284
C57	C	-0.832267	1.511357	-0.795733
C58	C	-0.332267	2.011357	-0.295733
C59	C	-0.894812	1.440901	-0.866088
C60	C	-0.394812	1.940901	-0.366088
C61	C	-0.992844	1.423502	-0.883532
C62	C	-0.492844	1.923502	-0.383532
C63	C	-1.028341	1.476560	-0.830631
C64	C	-0.528341	1.976560	-0.330631
C65	C	-0.734225	1.528760	-0.778287
C66	C	-0.234225	2.028760	-0.278287
C67	C	-0.761284	1.405237	-0.901538
C68	C	-0.261284	1.905237	-0.401538
C69	C	-0.859316	1.387843	-0.918989
C70	C	-0.359316	1.887843	-0.418989
C71	C	-0.105628	1.581452	-0.725891
C72	C	0.394372	2.081452	-0.225891
C73	C	-0.001282	1.600083	-0.707380
C74	C	0.498718	2.100083	-0.207380
C75	C	-0.377999	1.568087	-1.051266
C76	C	0.122001	2.068087	-0.551266
C77	C	-0.389722	1.581023	-1.171412
C78	C	0.110278	2.081023	-0.671412
C79	C	-0.322954	1.819706	-0.799712
C80	C	0.177046	2.319706	-0.299712
C81	C	-0.311220	1.939867	-0.812661
C82	C	0.188780	2.439867	-0.312661
C83	C	-0.344310	1.531275	-1.207775
C84	C	0.155690	2.031275	-0.707775
C85	C	-0.356425	1.544643	-1.331952
C86	C	0.143575	2.044643	-0.831952
C87	C	-0.323014	1.507568	-0.488480
C88	C	0.176986	2.007568	0.011520
C89	C	-0.311007	1.494889	-0.368311
C90	C	0.188993	1.994889	0.131689
H91	H	-0.683308	1.586125	-0.721003
H92	H	-0.183308	2.086125	-0.221003
O93	O	-0.453107	1.650543	-1.251946
O94	O	0.046893	2.150543	-0.751946
H95	H	-0.526505	1.616526	-1.241421
H96	H	-0.026505	2.116526	-0.741421
H97	H	-0.263157	1.442394	-1.307516
H98	H	0.236843	1.942394	-0.807516
H99	H	-1.108166	1.462404	-0.844840
H100	H	-0.608166	1.962404	-0.344840
O101	O	-0.699474	1.653647	-0.653677
O102	O	-0.199474	2.153647	-0.153677
H103	H	-0.661945	1.711562	-0.595877
H104	H	-0.161945	2.211562	-0.095877
O105	O	-0.773252	1.763936	-0.543715
O106	O	-0.273252	2.263936	-0.043715
H107	H	-0.785643	1.732986	-0.460232
H108	H	-0.285643	2.232986	0.039768
O109	O	-0.281077	1.180964	-0.845792
O110	O	0.218923	1.680964	-0.345792
H111	H	-0.281469	1.265864	-0.845342
H112	H	0.218531	1.765864	-0.345342
O113	O	-0.280924	1.461753	-1.127246
O114	O	0.219076	1.961753	-0.627246
H115	H	-0.307403	1.376338	-1.142551
H116	H	0.192597	1.876338	-0.642551
H117	H	-0.404277	1.597133	-1.392748
H118	H	0.095723	2.097133	-0.892748
O119	O	-0.977019	1.727796	-0.580009
O120	O	-0.477019	2.227796	-0.080009
H121	H	-1.055697	1.703871	-0.603977
H122	H	-0.555697	2.203871	-0.103977
H123	H	-0.404313	0.915331	-0.710086
H124	H	0.095687	1.415331	-0.210086
H125	H	-0.263428	1.000715	-0.865289
H126	H	0.236572	1.500715	-0.365289
H127	H	-1.043768	1.366118	-0.940806
H128	H	-0.543768	1.866118	-0.440806
O129	O	-0.926777	1.311833	-0.994852
O130	O	-0.426777	1.811833	-0.494852
H131	H	-1.000909	1.308641	-0.998082
H132	H	-0.500909	1.808641	-0.498082
O133	O	-0.452976	1.056100	-0.656422
O134	O	0.047024	1.556100	-0.156422
H135	H	-0.452593	0.971199	-0.656882
H136	H	0.047407	1.471199	-0.156882
O137	O	-0.723014	1.348007	-0.958609
O138	O	-0.223014	1.848007	-0.458609
H139	H	-0.644336	1.371955	-0.934669
H140	H	-0.144336	1.871955	-0.434669
