data_functionalizedCrystal
_audit_creation_method	'MofGen! by Chris Wilmer'
_symmetry_space_group_name_H-M	'P1'
_symmetry_Int_Tables_number	1
_symmetry_cell_setting	triclinic
loop_
_symmetry_equiv_pos_as_xyz
  x,y,z
_cell_length_a	14.519731
_cell_length_b	13.596369
_cell_length_c	14.971486
_cell_angle_alpha	90.000599
_cell_angle_beta	83.651491
_cell_angle_gamma	90.006024
loop_
_atom_site_label
_atom_site_type_symbol
_atom_site_fract_x
_atom_site_fract_y
_atom_site_fract_z
O1	O	1.223788	0.081794	0.117336
O2	O	0.955305	0.081796	0.131123
O3	O	1.096743	0.081788	-0.005966
O4	O	1.082351	0.081802	0.254425
O5	O	1.096725	-0.081795	-0.005958
O6	O	0.955288	-0.081787	0.131131
O7	O	1.223770	-0.081789	0.117343
Zn8	Zn	1.089526	-0.107760	0.124238
Zn9	Zn	1.089549	0.107767	0.124228
O10	O	1.082333	-0.081781	0.254433
C11	C	0.920938	0.000004	0.130481
C12	C	0.818559	0.000005	0.128545
C13	C	0.735415	0.000009	0.126972
C14	C	0.631108	0.000009	0.125007
C15	C	0.547970	0.000009	0.123447
C16	C	0.443655	0.000011	0.121481
N17	N	1.089518	-0.254852	0.124245
C18	C	1.089522	-0.343850	0.124247
C19	C	1.089531	-0.455501	0.124240
C20	C	1.089543	-0.544492	0.124230
C21	C	1.089554	-0.656151	0.124225
C22	C	1.258138	0.000005	0.117985
C23	C	1.360517	0.000011	0.119921
C24	C	1.096090	-0.000003	-0.039287
C25	C	1.094162	-0.000003	-0.138586
N26	N	1.089566	0.254859	0.124215
C27	C	1.177252	-0.000004	-0.195758
C28	C	1.175434	0.000006	-0.289059
C29	C	1.090525	0.000010	-0.325185
C30	C	1.007428	0.000014	-0.268005
C31	C	1.009247	0.000012	-0.174706
C32	C	1.003643	0.000018	-0.462470
C33	C	1.001824	0.000019	-0.555775
C34	C	1.169830	0.000013	-0.576822
C35	C	1.171649	0.000010	-0.483524
C36	C	1.088552	0.000012	-0.426350
C37	C	1.082985	0.000012	0.287754
C38	C	1.084914	0.000018	0.387052
H39	H	1.246395	-0.000013	-0.166352
H40	H	0.935976	0.000022	-0.415921
Cl41	Cl	1.279896	0.000002	-0.360929
H42	H	0.941586	0.000013	-0.128157
H43	H	0.932683	0.000007	-0.585186
H44	H	1.240790	-0.000001	-0.454113
Cl45	Cl	1.274296	0.000015	-0.648697
Cl46	Cl	0.900684	0.000032	-0.313421
