data_functionalizedCrystal
_audit_creation_method	'MofGen! by Chris Wilmer'
_symmetry_space_group_name_H-M	'P1'
_symmetry_Int_Tables_number	1
_symmetry_cell_setting	triclinic
loop_
_symmetry_equiv_pos_as_xyz
  x,y,z
_cell_length_a	18.215407
_cell_length_b	12.827892
_cell_length_c	18.215399
_cell_angle_alpha	89.976162
_cell_angle_beta	89.982632
_cell_angle_gamma	90.012835
loop_
_atom_site_label
_atom_site_type_symbol
_atom_site_fract_x
_atom_site_fract_y
_atom_site_fract_z
Zn1	Zn	1.125120	-0.416115	-0.416088
Zn2	Zn	1.125049	-0.590874	-0.293031
Zn3	Zn	1.002053	-0.416140	-0.293041
Zn4	Zn	1.002039	-0.590807	-0.416061
O5	O	1.063566	-0.503484	-0.354555
O6	O	1.228095	-0.439315	-0.399772
O7	O	1.108710	-0.567734	-0.190048
O8	O	1.018414	-0.269901	-0.309379
O9	O	1.228043	-0.567710	-0.309362
O10	O	1.108831	-0.269882	-0.399782
O11	O	1.018345	-0.439358	-0.190056
O12	O	0.899067	-0.439292	-0.309353
O13	O	1.018390	-0.567595	-0.519049
O14	O	0.899057	-0.567619	-0.399735
O15	O	1.108818	-0.439250	-0.519069
O16	O	1.108696	-0.737101	-0.309336
O17	O	1.018321	-0.737052	-0.399725
C18	C	0.872359	-0.503452	-0.354543
C19	C	0.790560	-0.503463	-0.354555
C20	C	0.602393	-0.436746	-0.401705
C21	C	0.525534	-0.436755	-0.401708
C22	C	0.525490	-0.570252	-0.307419
C23	C	0.602348	-0.570237	-0.307413
C24	C	0.640797	-0.503485	-0.354560
C25	C	0.487081	-0.503509	-0.354569
C26	C	0.403747	-0.503519	-0.354571
C27	C	0.724136	-0.503473	-0.354557
C28	C	1.063519	-0.774994	-0.354542
C29	C	1.063567	-0.891147	-0.354562
C30	C	1.108341	-0.942922	-0.309883
C31	C	1.108391	-1.062972	-0.309902
C32	C	1.255518	-0.503517	-0.354569
C33	C	1.337317	-0.503531	-0.354575
C34	C	1.063610	-0.503412	-0.546508
C35	C	1.063629	-0.503381	-0.628307
C36	C	1.063632	-0.230914	-0.354585
C37	C	1.063660	-0.114761	-0.354597
C38	C	1.110732	-0.436489	-0.816513
C39	C	1.110741	-0.436459	-0.893372
C40	C	1.016579	-0.570112	-0.893340
C41	C	1.016567	-0.570136	-0.816482
C42	C	1.063648	-0.503327	-0.778071
C43	C	1.063668	-0.503272	-0.931787
C44	C	1.063678	-0.503239	-1.015121
C45	C	1.063638	-0.503357	-0.694732
C46	C	1.063563	-0.503480	-0.163349
C47	C	1.063687	-0.503217	-0.081551
H48	H	0.633696	-0.382389	-0.440093
H49	H	1.025323	-1.070244	-0.392847
C50	C	0.483292	-0.363347	-0.453571
H51	H	0.517201	-0.323599	-0.481651
H52	H	0.453303	-0.317766	-0.425478
H53	H	0.453321	-0.403393	-0.485592
C54	C	1.011832	-0.951316	-0.406259
H55	H	0.983739	-0.903265	-0.434291
H56	H	0.979829	-0.993962	-0.378061
H57	H	1.040017	-0.993829	-0.438332
C58	C	1.160078	-0.882753	-0.258189
H59	H	1.188179	-0.930803	-0.230164
H60	H	1.131902	-0.840232	-0.226120
H61	H	1.192086	-0.840115	-0.286396
C62	C	1.162509	-0.362989	-0.774263
H63	H	1.190545	-0.323172	-0.808168
H64	H	1.194563	-0.402969	-0.744278
H65	H	1.134353	-0.317461	-0.744286
C66	C	1.162537	-0.362943	-0.935655
H67	H	1.190576	-0.323166	-0.901769
H68	H	1.134403	-0.317394	-0.965639
H69	H	1.194599	-0.402921	-0.965636
H70	H	0.978249	-0.624508	-0.924624
H71	H	0.978220	-0.624562	-0.785182
H72	H	0.494176	-0.624599	-0.269034
H73	H	1.146721	-1.107497	-0.271650
C74	C	0.644595	-0.643657	-0.255554
H75	H	0.610690	-0.683425	-0.227483
H76	H	0.674569	-0.603620	-0.223534
H77	H	0.674584	-0.689235	-0.283657
