data_functionalizedCrystal
_audit_creation_method	'MofGen! by Chris Wilmer'
_symmetry_space_group_name_H-M	'P1'
_symmetry_Int_Tables_number	1
_symmetry_cell_setting	triclinic
loop_
_symmetry_equiv_pos_as_xyz
  x,y,z
_cell_length_a	19.077105
_cell_length_b	12.759394
_cell_length_c	19.076919
_cell_angle_alpha	92.274121
_cell_angle_beta	90.076224
_cell_angle_gamma	87.711291
loop_
_atom_site_label
_atom_site_type_symbol
_atom_site_fract_x
_atom_site_fract_y
_atom_site_fract_z
Zn1	Zn	1.058327	-0.508276	-0.440432
Zn2	Zn	1.062986	-0.677203	-0.322930
Zn3	Zn	0.945543	-0.494202	-0.318225
Zn4	Zn	0.940807	-0.676569	-0.435682
O5	O	1.001916	-0.589062	-0.379317
O6	O	1.157277	-0.536840	-0.428802
O7	O	1.051338	-0.647302	-0.223974
O8	O	0.960536	-0.349050	-0.334454
O9	O	1.160700	-0.660950	-0.342473
O10	O	1.043398	-0.359391	-0.424239
O11	O	0.965054	-0.512852	-0.220517
O12	O	0.846582	-0.512238	-0.329849
O13	O	0.952465	-0.659870	-0.534644
O14	O	0.843103	-0.646222	-0.416144
O15	O	1.038806	-0.536225	-0.538133
O16	O	1.046746	-0.824137	-0.337868
O17	O	0.956982	-0.823671	-0.420707
C18	C	0.819346	-0.577635	-0.371971
C19	C	0.741242	-0.572772	-0.368845
C20	C	0.702757	-0.640344	-0.412235
C21	C	0.629370	-0.635761	-0.409302
C22	C	0.594467	-0.563612	-0.362974
C23	C	0.632957	-0.496033	-0.319582
C24	C	0.706343	-0.500611	-0.322520
C25	C	0.375178	-0.542424	-0.349381
C26	C	0.301786	-0.537853	-0.346444
C27	C	0.298204	-0.677581	-0.436166
C28	C	0.371592	-0.682157	-0.439096
C29	C	0.410075	-0.614574	-0.395707
N30	N	0.519453	-0.558928	-0.359972
N31	N	0.485088	-0.619253	-0.398713
C32	C	1.001874	-0.862026	-0.379298
C33	C	1.001920	-0.978807	-0.379316
C34	C	1.095456	-0.979246	-0.293126
C35	C	1.142242	-1.034328	-0.250040
C36	C	1.142282	-1.144054	-0.250061
C37	C	1.095533	-1.198699	-0.293174
C38	C	1.048747	-1.143617	-0.336260
C39	C	1.048710	-1.033889	-0.336233
C40	C	0.955216	-1.143178	-0.422453
C41	C	0.955171	-1.033453	-0.422429
C42	C	0.908467	-1.197824	-0.465566
C43	C	0.861676	-1.142741	-0.508649
C44	C	0.861637	-1.033009	-0.508626
C45	C	0.908385	-0.978370	-0.465515
C46	C	1.185198	-0.600535	-0.386692
C47	C	1.263302	-0.605424	-0.389835
C48	C	0.994587	-0.599547	-0.562597
C49	C	0.991465	-0.604015	-0.640701
C50	C	1.001976	-0.315035	-0.379352
C51	C	1.002002	-0.198260	-0.379367
C52	C	1.034948	-0.541742	-0.679212
C53	C	1.032006	-0.545935	-0.752598
C54	C	0.985582	-0.612408	-0.787471
C55	C	0.942093	-0.674683	-0.748955
C56	C	0.945033	-0.670484	-0.675570
C57	C	0.971966	-0.631866	-1.006753
C58	C	0.969031	-0.636063	-1.080143
C59	C	1.058943	-0.507313	-1.083780
C60	C	1.061881	-0.503124	-1.010394
C61	C	1.018390	-0.565395	-0.971884
N62	N	0.982574	-0.616698	-0.862484
N63	N	1.021395	-0.561098	-0.896873
C64	C	1.009256	-0.578545	-0.196751
C65	C	1.012515	-0.573790	-0.118654
H66	H	0.731170	-0.699099	-0.449959
O67	O	1.085026	-0.470052	-0.641601
H68	H	1.054930	-0.412723	-0.606900
H69	H	0.823541	-0.988168	-0.543715
H70	H	1.099686	-0.448998	-0.982005
H71	H	0.598039	-0.690786	-0.444634
O72	O	1.105829	-0.440118	-1.125313
H73	H	1.095978	-0.454187	-1.182200
H74	H	1.067416	-0.495228	-0.783950
O75	O	0.918953	-0.707754	-1.117761
H76	H	0.889199	-0.750342	-1.078655
O77	O	0.747856	-0.427732	-0.275721
H78	H	0.782715	-0.474710	-0.241260
H79	H	0.936563	-0.682588	-0.975407
H80	H	0.904292	-0.728803	-0.777355
O81	O	0.908512	-1.316171	-0.465589
H82	H	0.868150	-1.344913	-0.502809
O83	O	0.898124	-0.737634	-0.634028
H84	H	0.865349	-0.784564	-0.670605
H85	H	0.908353	-0.889026	-0.465488
H86	H	0.266864	-0.732601	-0.471492
O87	O	0.409237	-0.759966	-0.489071
H88	H	0.370147	-0.806176	-0.518756
O89	O	0.264124	-0.460044	-0.296475
H90	H	0.277715	-0.379179	-0.309185
O91	O	0.416682	-0.469567	-0.302563
H92	H	0.380081	-0.418648	-0.269844
H93	H	0.604533	-0.437283	-0.281863
O94	O	1.095408	-0.860899	-0.293103
H95	H	1.135776	-0.832155	-0.255890
H96	H	1.180306	-0.989826	-0.214939
O97	O	0.811251	-1.201674	-0.555139
H98	H	0.819138	-1.287226	-0.547913
O99	O	1.192740	-1.203474	-0.203590
H100	H	1.225238	-1.147047	-0.173604
H101	H	1.095576	-1.288044	-0.293193
