data_functionalizedCrystal
_audit_creation_method	'MofGen! by Chris Wilmer'
_symmetry_space_group_name_H-M	'P1'
_symmetry_Int_Tables_number	1
_symmetry_cell_setting	triclinic
loop_
_symmetry_equiv_pos_as_xyz
  x,y,z
_cell_length_a	16.625548
_cell_length_b	18.215405
_cell_length_c	18.215399
_cell_angle_alpha	90.030551
_cell_angle_beta	89.980331
_cell_angle_gamma	89.974047
loop_
_atom_site_label
_atom_site_type_symbol
_atom_site_fract_x
_atom_site_fract_y
_atom_site_fract_z
Zn1	Zn	1.232660	0.292971	-0.416099
Zn2	Zn	1.232559	0.416042	-0.293027
Zn3	Zn	1.097824	0.292996	-0.293047
Zn4	Zn	1.097786	0.416002	-0.416053
O5	O	1.165207	0.354503	-0.354557
O6	O	1.345479	0.309302	-0.399785
O7	O	1.214660	0.399747	-0.190046
O8	O	1.115768	0.190009	-0.309398
O9	O	1.345405	0.399722	-0.309365
O10	O	1.214831	0.189990	-0.399804
O11	O	1.115670	0.309346	-0.190060
O12	O	0.984986	0.309307	-0.309353
O13	O	1.115704	0.399655	-0.519043
O14	O	0.984959	0.399679	-0.399724
O15	O	1.214795	0.309264	-0.519077
O16	O	1.214624	0.519021	-0.309319
O17	O	1.115607	0.518992	-0.399705
C18	C	1.165122	0.545709	-0.354521
C19	C	1.165159	0.627508	-0.354531
C20	C	0.955716	0.354492	-0.354536
C21	C	0.866095	0.354506	-0.354545
C22	C	1.165256	0.354452	-0.546510
C23	C	1.165277	0.354431	-0.628309
C24	C	0.537920	0.354510	-0.354576
C25	C	0.629228	0.354507	-0.354565
C26	C	0.702005	0.354508	-0.354560
C27	C	0.793319	0.354504	-0.354550
C28	C	1.375516	0.354514	-0.354578
C29	C	1.465137	0.354519	-0.354587
C30	C	1.165315	0.162550	-0.354608
C31	C	1.165361	0.080751	-0.354630
C32	C	1.216839	0.815693	-0.307553
C33	C	1.216875	0.892551	-0.307571
C34	C	1.113679	0.892561	-0.401613
C35	C	1.113648	0.815704	-0.401598
C36	C	1.165226	0.777272	-0.354564
C37	C	1.165294	0.930988	-0.354597
C38	C	1.165332	1.014321	-0.354616
C39	C	1.165189	0.693933	-0.354545
C40	C	1.216893	0.307320	-0.816522
C41	C	1.216902	0.307299	-0.893380
C42	C	1.113719	0.401427	-0.893334
C43	C	1.113706	0.401444	-0.816476
C44	C	1.165297	0.354392	-0.778072
C45	C	1.165320	0.354353	-0.931788
C46	C	1.165330	0.354330	-1.015122
C47	C	1.165286	0.354414	-0.694733
C48	C	1.165205	0.354500	-0.163350
C49	C	1.165340	0.354315	-0.081552
H50	H	1.258904	0.923831	-0.269291
O51	O	1.063461	0.929814	-0.447260
C52	C	0.983102	0.911117	-0.431090
H53	H	0.981429	0.855335	-0.402787
H54	H	0.955986	0.954421	-0.393239
C55	C	0.936267	0.976061	-0.537554
C56	C	0.934211	0.907546	-0.502797
H57	H	0.906107	0.973861	-0.581785
H58	H	0.990406	0.988660	-0.548446
H59	H	0.913672	1.012140	-0.506004
H60	H	0.956815	0.871470	-0.534343
H61	H	0.880075	0.894940	-0.491911
O62	O	1.063623	0.778344	-0.447346
C63	C	1.109481	0.733805	-0.494896
H64	H	1.172991	0.756919	-0.499501
H65	H	1.112253	0.675571	-0.472131
C66	C	0.992035	0.704205	-0.565710
C67	C	1.070037	0.732598	-0.571371
H68	H	0.967703	0.703457	-0.612883
H69	H	0.961138	0.734210	-0.533673
H70	H	0.994356	0.655680	-0.546737
H71	H	1.067714	0.781125	-0.590335
H72	H	1.100932	0.702601	-0.603413
O73	O	1.063610	0.447105	-0.779008
C74	C	1.074676	0.437040	-0.702937
H75	H	1.101112	0.380248	-0.692466
H76	H	1.117588	0.480697	-0.681119
C77	C	0.960616	0.513541	-0.676319
C78	C	0.993078	0.443786	-0.663458
H79	H	0.910284	0.517706	-0.651966
H80	H	0.953162	0.520325	-0.727569
H81	H	0.996384	0.549914	-0.658138
H82	H	0.957315	0.407415	-0.681648
H83	H	1.000524	0.436996	-0.612210
H84	H	1.258899	0.269005	-0.785255
H85	H	1.258915	0.268967	-0.924683
O86	O	1.063536	0.447161	-0.930527
C87	C	1.018008	0.488725	-0.880106
H88	H	1.015219	0.458592	-0.825330
H89	H	1.047507	0.544618	-0.871917
C90	C	0.935619	0.536338	-0.977364
C91	C	0.932188	0.499325	-0.910088
H92	H	0.882682	0.542880	-0.995858
H93	H	0.966294	0.508338	-1.011334
H94	H	0.960205	0.582912	-0.970530
H95	H	0.907612	0.452749	-0.916923
H96	H	0.901507	0.527317	-0.876119
H97	H	1.258839	0.784403	-0.269256
