data_functionalizedCrystal
_audit_creation_method	'MofGen! by Chris Wilmer'
_symmetry_space_group_name_H-M	'P1'
_symmetry_Int_Tables_number	1
_symmetry_cell_setting	triclinic
loop_
_symmetry_equiv_pos_as_xyz
  x,y,z
_cell_length_a	14.971486
_cell_length_b	12.837942
_cell_length_c	13.448316
_cell_angle_alpha	89.994234
_cell_angle_beta	89.998199
_cell_angle_gamma	89.221535
loop_
_atom_site_label
_atom_site_type_symbol
_atom_site_fract_x
_atom_site_fract_y
_atom_site_fract_z
O1	O	1.198338	0.135106	-0.082576
O2	O	0.939302	0.151285	-0.082603
O3	O	1.063076	-0.007715	-0.082584
O4	O	1.074564	0.294105	-0.082595
O5	O	1.063058	-0.007724	0.082800
O6	O	0.939284	0.151275	0.082781
O7	O	1.198320	0.135096	0.082808
Cu8	Cu	1.068800	0.143185	0.097895
Cu9	Cu	1.068822	0.143196	-0.097690
O10	O	1.074546	0.294095	0.082789
C11	C	0.905907	0.150556	0.000086
C12	C	0.806427	0.148388	0.000075
C13	C	1.059187	-0.046345	0.000107
C14	C	1.047612	-0.161436	0.000104
C15	C	0.757077	0.241796	0.000073
C16	C	0.663606	0.239752	0.000088
C17	C	0.619486	0.144300	0.000098
C18	C	0.668842	0.050885	0.000103
C19	C	0.762313	0.052930	0.000095
C20	C	0.474021	0.046630	0.000117
C21	C	0.380545	0.044585	0.000123
C22	C	0.375314	0.233453	0.000110
C23	C	0.468784	0.235497	0.000102
C24	C	0.518135	0.142082	0.000105
C25	C	1.186755	-0.402222	0.000098
C26	C	1.175884	-0.510362	0.000095
C27	C	1.015001	-0.485856	0.000089
C28	C	1.025872	-0.377717	0.000092
C29	C	1.111751	-0.335904	0.000098
C30	C	1.122621	-0.227763	0.000108
C31	C	0.961739	-0.203260	0.000094
C32	C	0.950868	-0.311399	0.000091
C33	C	1.231715	0.135824	0.000117
C34	C	1.331195	0.137993	0.000121
C35	C	1.078436	0.332726	0.000096
C36	C	1.090010	0.447817	0.000092
N37	N	1.068792	0.143176	0.235460
N38	N	1.068837	0.143197	-0.235255
C39	C	1.123620	0.072800	0.287508
C40	C	1.123626	0.072799	0.391612
C41	C	1.068807	0.143180	0.443664
C42	C	1.013972	0.213559	0.391608
C43	C	1.013963	0.213554	0.287507
C44	C	1.013998	0.213566	0.608588
C45	C	1.014008	0.213573	0.712697
C46	C	1.123661	0.072811	0.712693
C47	C	1.123651	0.072806	0.608592
C48	C	1.068818	0.143187	0.556543
H49	H	0.623429	0.315815	0.000086
H50	H	0.969343	0.270875	0.566213
H51	H	0.802492	-0.023133	0.000096
H52	H	1.256681	-0.368178	0.000113
H53	H	0.792993	0.319524	0.000065
C54	C	1.210724	-0.072874	0.000120
C55	C	1.217017	-0.181797	0.000113
H56	H	1.269003	-0.044502	0.000127
H57	H	1.179462	-0.050116	-0.057548
H58	H	1.179452	-0.050136	0.057798
H59	H	1.248284	-0.204536	-0.057569
H60	H	1.248293	-0.204565	0.057787
C61	C	0.874509	-0.498282	0.085080
C62	C	0.920605	-0.531821	0.000069
H63	H	0.816231	-0.526654	0.085060
H64	H	0.905768	-0.521059	0.142745
H65	H	0.870257	-0.424386	0.085078
H66	H	0.924863	-0.605718	0.000075
H67	H	0.889339	-0.509051	-0.057611
C68	C	1.130731	-0.068477	0.491830
C69	C	1.183774	-0.004809	0.551508
H70	H	1.167810	-0.116466	0.456627
H71	H	1.090231	-0.105577	0.532549
H72	H	1.098191	-0.026565	0.445829
H73	H	1.216310	-0.046721	0.597514
H74	H	1.224291	0.032294	0.510786
C75	C	0.976721	0.392931	0.255427
C76	C	0.953698	0.290917	0.230288
H77	H	0.939516	0.440689	0.220098
H78	H	0.968878	0.403002	0.324866
H79	H	1.037383	0.404291	0.238350
H80	H	0.893039	0.279555	0.247372
H81	H	0.961534	0.280842	0.160834
C82	C	0.810388	-0.323813	0.085101
C83	C	0.856471	-0.357361	0.000084
H84	H	0.752108	-0.352181	0.085092
H85	H	0.841653	-0.346587	0.142762
H86	H	0.806138	-0.249917	0.085094
H87	H	0.860726	-0.431257	0.000094
H88	H	0.825198	-0.334592	-0.057592
H89	H	1.236960	-0.564355	0.000092
H90	H	1.168264	0.015492	0.245134
H91	H	0.900666	-0.149251	0.000102
H92	H	0.504704	0.313223	0.000085
H93	H	1.168271	0.015493	0.433989
H94	H	0.335129	0.309515	0.000112
H95	H	1.168308	0.015504	0.755077
C96	C	0.905587	0.352676	0.702250
C97	C	0.953732	0.290916	0.769916
H98	H	0.868368	0.400416	0.737577
H99	H	0.945985	0.390058	0.661643
H100	H	0.869744	0.309437	0.661650
H101	H	0.989581	0.334155	0.810510
H102	H	0.913329	0.253532	0.810540
H103	H	0.344625	-0.033141	0.000132
C104	C	0.894162	0.235825	0.508705
C105	C	0.953714	0.290922	0.448827
H106	H	0.856967	0.283589	0.544032
H107	H	0.858305	0.192616	0.468106
H108	H	0.926830	0.193914	0.554597
H109	H	0.921046	0.332826	0.402930
H110	H	0.989575	0.334148	0.489429
H111	H	0.632913	-0.026834	0.000125
C112	C	0.469807	-0.140268	0.000109
C113	C	0.528269	-0.056054	0.000110
H114	H	0.503300	-0.203657	0.000093
H115	H	0.433250	-0.137149	0.057785
H116	H	0.433234	-0.137119	-0.057562
H117	H	0.564838	-0.059198	0.057785
H118	H	0.564842	-0.059174	-0.057572
