data_functionalizedCrystal
_audit_creation_method	'MofGen! by Chris Wilmer'
_symmetry_space_group_name_H-M	'P1'
_symmetry_Int_Tables_number	1
_symmetry_cell_setting	triclinic
loop_
_symmetry_equiv_pos_as_xyz
  x,y,z
_cell_length_a	10.654545
_cell_length_b	10.967829
_cell_length_c	9.730223
_cell_angle_alpha	77.867717
_cell_angle_beta	89.997167
_cell_angle_gamma	84.599203
loop_
_atom_site_label
_atom_site_type_symbol
_atom_site_fract_x
_atom_site_fract_y
_atom_site_fract_z
O1	O	1.667818	0.175250	-0.155779
O2	O	1.302336	0.191955	-0.159740
O3	O	1.493506	0.002025	-0.114750
O4	O	1.476648	0.365180	-0.200769
O5	O	1.493493	0.002020	0.113832
O6	O	1.302324	0.191950	0.068841
O7	O	1.667805	0.175245	0.072803
Zn8	Zn	1.485063	0.183597	0.107114
Zn9	Zn	1.485079	0.183604	-0.194052
O10	O	1.476636	0.365175	0.027812
C11	C	1.255532	0.190727	-0.045160
C12	C	1.116089	0.187061	-0.044294
C13	C	1.050578	0.185333	0.080715
C14	C	0.919559	0.181867	0.081536
C15	C	0.919573	0.181864	-0.167674
C16	C	1.050591	0.185321	-0.168491
C17	C	1.492272	-0.044478	0.010553
C18	C	1.488599	-0.183035	0.043363
C19	C	1.486969	-0.244799	-0.060422
C20	C	1.483173	-0.388004	-0.026513
C21	C	1.714609	0.176473	-0.041780
C22	C	1.854052	0.180139	-0.042656
C23	C	1.477870	0.411678	-0.097493
C24	C	1.481542	0.550235	-0.130313
N25	N	1.485061	0.183591	0.312652
N26	N	1.485091	0.183599	-0.399587
C27	C	1.569740	0.099526	0.404491
C28	C	1.569752	0.099527	0.548374
C29	C	1.400403	0.267669	0.508563
C30	C	1.400385	0.267661	0.364684
H31	H	1.103903	0.186750	0.181844
H32	H	0.866226	0.180460	0.183331
C33	C	1.486690	-0.254810	0.197319
C34	C	1.375448	-0.331125	0.249530
C35	C	1.373538	-0.402897	0.403491
C36	C	1.482870	-0.398354	0.505240
C37	C	1.594120	-0.322037	0.453030
C38	C	1.596030	-0.250265	0.299070
H39	H	1.294506	-0.334490	0.174208
H40	H	1.291183	-0.459392	0.442139
H41	H	1.481457	-0.451484	0.619210
H42	H	1.675062	-0.318672	0.528353
H43	H	1.678385	-0.193769	0.260422
C44	C	0.847517	0.179964	-0.304287
C45	C	0.770776	0.069421	-0.312370
C46	C	0.698722	0.067525	-0.448987
C47	C	0.703409	0.176173	-0.577521
C48	C	0.780153	0.286725	-0.569442
C49	C	0.852207	0.288620	-0.432825
H50	H	0.767304	-0.011014	-0.217217
H51	H	0.641911	-0.014313	-0.454966
H52	H	0.650070	0.174770	-0.678653
H53	H	0.783625	0.367160	-0.664595
H54	H	0.909019	0.370458	-0.426846
H55	H	1.488377	-0.191657	-0.174380
H56	H	1.481751	-0.441139	0.087452
H57	H	1.103932	0.186725	-0.270294
C58	C	1.307272	0.360152	0.565797
C59	C	1.307357	0.360244	0.724038
C60	C	1.214227	0.452733	0.781267
C61	C	1.121011	0.545132	0.680254
C62	C	1.120922	0.545044	0.522003
C63	C	1.214053	0.452554	0.464775
H64	H	1.376364	0.291841	0.798823
H65	H	1.214293	0.452798	0.898415
H66	H	1.052070	0.613599	0.722618
H67	H	1.051915	0.613446	0.447219
H68	H	1.213987	0.452490	0.347627
C69	C	1.483452	-0.377999	-0.284279
C70	C	1.594693	-0.301687	-0.336496
C71	C	1.596603	-0.229923	-0.490459
C72	C	1.487271	-0.234471	-0.592206
C73	C	1.376021	-0.310787	-0.539991
C74	C	1.374111	-0.382551	-0.386027
H75	H	1.675635	-0.298317	-0.261176
H76	H	1.678958	-0.173429	-0.529112
H77	H	1.488684	-0.181347	-0.706179
H78	H	1.295079	-0.314157	-0.615311
H79	H	1.291756	-0.439045	-0.347375
C80	C	1.662904	0.007057	0.649398
C81	C	1.756059	-0.085393	0.592156
C82	C	1.849213	-0.177868	0.693182
C83	C	1.849212	-0.177892	0.851450
C84	C	1.756053	-0.085438	0.908701
C85	C	1.662899	0.007036	0.807675
H86	H	1.756063	-0.085378	0.474989
H87	H	1.918176	-0.246308	0.650800
H88	H	1.918170	-0.246347	0.926236
H89	H	1.756049	-0.085453	1.025868
H90	H	1.593936	0.075477	0.850056
H91	H	1.638686	0.031070	0.362131
H92	H	1.331423	0.336118	0.289902
