data_functionalizedCrystal
_audit_creation_method	'MofGen! by Chris Wilmer'
_symmetry_space_group_name_H-M	'P1'
_symmetry_Int_Tables_number	1
_symmetry_cell_setting	triclinic
loop_
_symmetry_equiv_pos_as_xyz
  x,y,z
_cell_length_a	14.908571
_cell_length_b	16.625546
_cell_length_c	14.908308
_cell_angle_alpha	93.264070
_cell_angle_beta	90.175053
_cell_angle_gamma	86.718495
loop_
_atom_site_label
_atom_site_type_symbol
_atom_site_fract_x
_atom_site_fract_y
_atom_site_fract_z
Zn1	Zn	1.345280	-0.420778	-0.587557
Zn2	Zn	1.845280	0.079222	-0.087557
Zn3	Zn	1.353856	-0.548312	-0.437189
Zn4	Zn	1.853856	-0.048312	0.062811
Zn5	Zn	1.203596	-0.405291	-0.428555
Zn6	Zn	1.703596	0.094709	0.071445
Zn7	Zn	1.194884	-0.547354	-0.578841
Zn8	Zn	1.694884	-0.047354	-0.078841
O9	O	1.274404	-0.480434	-0.508036
O10	O	1.774404	0.019566	-0.008036
O11	O	1.472243	-0.444578	-0.574871
O12	O	1.972243	0.055422	-0.074871
O13	O	1.341159	-0.523260	-0.310220
O14	O	1.841159	-0.023260	0.189780
O15	O	1.222448	-0.294517	-0.449681
O16	O	1.722448	0.205483	0.050319
O17	O	1.478544	-0.538277	-0.464397
O18	O	1.978544	-0.038277	0.035603
O19	O	1.326543	-0.305896	-0.566499
O20	O	1.826543	0.194104	-0.066499
O21	O	1.230763	-0.418182	-0.303876
O22	O	1.730763	0.081818	0.196124
O23	O	1.076615	-0.417254	-0.441230
O24	O	1.576615	0.082746	0.058770
O25	O	1.207599	-0.536644	-0.705821
O26	O	1.707599	-0.036644	-0.205821
O27	O	1.070214	-0.521627	-0.551644
O28	O	1.570214	-0.021627	-0.051644
O29	O	1.318095	-0.443649	-0.712225
O30	O	1.818095	0.056351	-0.212225
O31	O	1.332711	-0.661013	-0.455945
O32	O	1.832711	-0.161013	0.044055
O33	O	1.215914	-0.660309	-0.560016
O34	O	1.715914	-0.160309	-0.060016
C35	C	1.040789	-0.467656	-0.494555
C36	C	1.540789	0.032344	0.005445
C37	C	0.940846	-0.462211	-0.488810
C38	C	1.440846	0.037789	0.011190
C39	C	0.746435	-0.560814	-0.592833
C40	C	1.246435	-0.060814	-0.092833
C41	C	0.652530	-0.555700	-0.587437
C42	C	1.152530	-0.055700	-0.087437
C43	C	0.659128	-0.446865	-0.472629
C44	C	1.159128	0.053135	0.027371
C45	C	0.753033	-0.451979	-0.478024
C46	C	1.253033	0.048021	0.021976
C47	C	0.796683	-0.508956	-0.538127
C48	C	1.296683	-0.008956	-0.038127
C49	C	0.890591	-0.514074	-0.543517
C50	C	1.390591	-0.014074	-0.043517
C51	C	0.897187	-0.405236	-0.428714
C52	C	1.397187	0.094764	0.071286
C53	C	0.803282	-0.400121	-0.423318
C54	C	1.303282	0.099879	0.076682
C55	C	1.274321	-0.689918	-0.507993
C56	C	1.774321	-0.189918	-0.007993
C57	C	1.274366	-0.779542	-0.508010
C58	C	1.774366	-0.279542	-0.008010
C59	C	1.274517	-1.107731	-0.508112
C60	C	1.774517	-0.607731	-0.008112
C61	C	1.274472	-1.016419	-0.508086
C62	C	1.774472	-0.516419	-0.008086
C63	C	1.274441	-0.943640	-0.508060
C64	C	1.774441	-0.443640	-0.008060
C65	C	1.274397	-0.852322	-0.508035
C66	C	1.774397	-0.352322	-0.008035
C67	C	1.508931	-0.493262	-0.521569
C68	C	2.008931	0.006738	-0.021569
C69	C	1.608873	-0.498728	-0.527336
C70	C	2.108873	0.001272	-0.027336
C71	C	1.260918	-0.491767	-0.742560
C72	C	1.760918	0.008233	-0.242560
C73	C	1.255172	-0.496597	-0.842501
C74	C	1.755172	0.003403	-0.342501
C75	C	1.274511	-0.270134	-0.508099
C76	C	1.774511	0.229866	-0.008099
C77	C	1.274556	-0.180516	-0.508127
C78	C	1.774556	0.319484	-0.008127
C79	C	1.359429	-0.408817	-1.036969
C80	C	1.859429	0.091183	-0.536969
C81	C	1.354033	-0.413353	-1.130872
C82	C	1.854033	0.086647	-0.630872
C83	C	1.238977	-0.510198	-1.124211
C84	C	1.738977	-0.010198	-0.624211
C85	C	1.244374	-0.505662	-1.030308
C86	C	1.744374	-0.005662	-0.530308
C87	C	1.304603	-0.454971	-0.986690
C88	C	1.804603	0.045029	-0.486690
C89	C	1.310004	-0.450441	-0.892786
C90	C	1.810004	0.049559	-0.392786
C91	C	1.194945	-0.547281	-0.886127
C92	C	1.694945	-0.047281	-0.386127
C93	C	1.189548	-0.551817	-0.980030
C94	C	1.689548	-0.051817	-0.480030
C95	C	1.287889	-0.469089	-0.274426
C96	C	1.787889	0.030911	0.225574
C97	C	1.293810	-0.464042	-0.174497
C98	C	1.793810	0.035958	0.325503
H99	H	0.781976	-0.607211	-0.641766
H100	H	1.281976	-0.107211	-0.141766
H101	H	1.359047	-0.409167	-0.857274
H102	H	1.859047	0.090833	-0.357274
H103	H	0.611620	-0.597926	-0.631986
H104	H	1.111620	-0.097926	-0.131986
H105	H	0.926129	-0.560469	-0.592455
H106	H	1.426129	-0.060469	-0.092455
O107	O	0.761017	-0.344709	-0.364915
O108	O	1.261017	0.155291	0.135085
C109	C	0.825509	-0.300051	-0.317767
C110	C	1.325509	0.199949	0.182233
H111	H	0.890341	-0.302733	-0.358447
H112	H	1.390341	0.197267	0.141553
H113	H	0.839401	-0.326732	-0.249997
H114	H	1.339401	0.173268	0.250003
C115	C	0.709988	-0.208312	-0.252898
C116	C	1.209988	0.291688	0.247102
C117	C	0.789613	-0.211600	-0.302866
C118	C	1.289613	0.288400	0.197134
H119	H	0.687845	-0.153752	-0.243702
H120	H	1.187845	0.346248	0.256298
H121	H	0.666538	-0.238400	-0.284659
H122	H	1.166538	0.261600	0.215341
H123	H	0.721576	-0.230550	-0.196428
H124	H	1.221576	0.269450	0.303572
H125	H	0.778023	-0.189372	-0.359338
H126	H	1.278023	0.310628	0.140662
H127	H	0.833061	-0.181506	-0.271114
H128	H	1.333061	0.318494	0.228886
O129	O	0.946099	-0.354971	-0.375529
O130	O	1.446099	0.145029	0.124471
C131	C	1.003715	-0.400947	-0.320467
C132	C	1.503715	0.099053	0.179533
H133	H	1.015961	-0.464385	-0.352870
H134	H	1.515961	0.035615	0.147130
H135	H	0.971333	-0.404525	-0.251739
H136	H	1.471333	0.095475	0.248261
C137	C	1.078813	-0.282722	-0.269591
C138	C	1.578813	0.217278	0.230409
C139	C	1.093860	-0.360636	-0.309393
C140	C	1.593860	0.139364	0.190607
H141	H	1.134417	-0.257855	-0.262756
H142	H	1.634417	0.242145	0.237244
H143	H	1.039994	-0.251746	-0.306684
H144	H	1.539994	0.248254	0.193316
H145	H	1.051825	-0.285715	-0.212322
H146	H	1.551825	0.214285	0.287678
H147	H	1.120836	-0.357642	-0.366665
H148	H	1.620836	0.142358	0.133335
H149	H	1.132686	-0.391611	-0.272309
H150	H	1.632686	0.108389	0.227691
O151	O	0.616575	-0.391565	-0.414302
O152	O	1.116575	0.108435	0.085698
C153	C	0.522916	-0.398145	-0.421311
C154	C	1.022916	0.101855	0.078689
H155	H	0.508392	-0.461139	-0.449862
H156	H	1.008392	0.038861	0.050138
H157	H	0.493560	-0.351276	-0.467801
H158	H	0.993560	0.148724	0.032199
C159	C	0.497719	-0.306178	-0.292533
C160	C	0.997719	0.193822	0.207467
C161	C	0.479880	-0.383552	-0.327592
C162	C	0.979880	0.116448	0.172408
H163	H	0.471171	-0.297173	-0.234724
H164	H	0.971171	0.202827	0.265276
H165	H	0.560819	-0.301743	-0.287812
H166	H	1.060819	0.198257	0.212188
H167	H	0.473256	-0.267130	-0.331283
H168	H	0.973256	0.232870	0.168717
H169	H	0.504353	-0.422599	-0.288848
H170	H	1.004353	0.077401	0.211152
H171	H	0.416783	-0.387994	-0.332304
H172	H	0.916783	0.112006	0.167696
H173	H	1.408475	-0.367547	-1.001455
H174	H	1.908475	0.132453	-0.501455
H175	H	1.398676	-0.375767	-1.171805
H176	H	1.898676	0.124233	-0.671805
H177	H	1.189942	-0.551467	-1.159741
H178	H	1.689942	-0.051467	-0.659741
O179	O	1.131172	-0.601150	-1.022453
O180	O	1.631172	-0.101150	-0.522453
C181	C	1.179219	-0.658630	-1.079729
C182	C	1.679219	-0.158630	-0.579729
H183	H	1.251661	-0.666112	-1.055515
H184	H	1.751661	-0.166112	-0.555515
H185	H	1.178235	-0.637305	-1.151080
H186	H	1.678235	-0.137305	-0.651080
C187	C	1.046200	-0.730930	-1.108359
C188	C	1.546200	-0.230930	-0.608359
C189	C	1.135173	-0.740124	-1.078614
C190	C	1.635173	-0.240124	-0.578614
H191	H	1.019028	-0.781199	-1.107676
H192	H	1.519028	-0.281199	-0.607676
H193	H	1.013828	-0.692203	-1.069774
H194	H	1.513828	-0.192203	-0.569774
H195	H	1.045392	-0.713157	-1.167816
H196	H	1.545392	-0.213157	-0.667816
H197	H	1.135979	-0.757888	-1.019155
H198	H	1.635979	-0.257888	-0.519155
H199	H	1.167544	-0.778857	-1.117189
H200	H	1.667544	-0.278857	-0.617189
H201	H	1.150303	-0.584866	-0.845180
H202	H	1.650303	-0.084866	-0.345180
