data_functionalizedCrystal
_audit_creation_method	'MofGen! by Chris Wilmer'
_symmetry_space_group_name_H-M	'P1'
_symmetry_Int_Tables_number	1
_symmetry_cell_setting	triclinic
loop_
_symmetry_equiv_pos_as_xyz
  x,y,z
_cell_length_a	10.723023
_cell_length_b	10.723023
_cell_length_c	9.798715
_cell_angle_alpha	90.002054
_cell_angle_beta	89.996380
_cell_angle_gamma	95.532452
loop_
_atom_site_label
_atom_site_type_symbol
_atom_site_fract_x
_atom_site_fract_y
_atom_site_fract_z
O1	O	-1.657187	0.175020	0.113493
O2	O	-1.294034	0.191775	0.113494
O3	O	-1.483988	0.001821	0.113489
O4	O	-1.467233	0.364974	0.113498
O5	O	-1.483975	0.001820	-0.113494
O6	O	-1.294021	0.191773	-0.113489
O7	O	-1.657174	0.175019	-0.113490
Zn8	Zn	-1.475595	0.183396	-0.149527
Zn9	Zn	-1.475613	0.183398	0.149531
O10	O	-1.467220	0.364972	-0.113485
C11	C	-1.247528	0.190555	0.000003
C12	C	-1.108974	0.186908	0.000003
C13	C	-1.482762	-0.044679	-0.000001
C14	C	-1.479115	-0.183233	0.000005
C15	C	-0.904013	0.181513	0.117584
C16	C	-1.047216	0.185282	0.117586
C17	C	-1.473726	-0.388194	0.117593
C18	C	-1.477496	-0.244991	0.117590
C19	C	-0.703680	0.176239	0.000001
C20	C	-0.842234	0.179886	0.000001
C21	C	-1.468446	0.411473	0.000008
C22	C	-1.472093	0.550027	0.000012
N23	N	-1.475592	0.183394	-0.353627
C24	C	-1.555546	0.103465	-0.578561
C25	C	-1.555529	0.103466	-0.421398
N26	N	-1.475625	0.183390	0.353631
H27	H	-0.850888	0.180107	0.218250
Br28	Br	-1.669570	-0.010601	-0.324216
H29	H	-1.055853	0.185516	-0.100669
Br30	Br	-1.135756	0.187629	0.285383
Br31	Br	-1.474429	-0.361441	-0.167785
H32	H	-1.407161	0.251820	-0.411930
H33	H	-1.407194	0.251823	-0.588071
H34	H	-1.472341	-0.441322	0.218260
Br35	Br	-0.930770	0.182201	-0.167793
H36	H	-1.478890	-0.191862	0.218255
H37	H	-1.477703	-0.236353	-0.100666
Br38	Br	-1.669629	-0.010585	-0.675712
