data_functionalizedCrystal
_audit_creation_method	'MofGen! by Chris Wilmer'
_symmetry_space_group_name_H-M	'P1'
_symmetry_Int_Tables_number	1
_symmetry_cell_setting	triclinic
loop_
_symmetry_equiv_pos_as_xyz
  x,y,z
_cell_length_a	21.395362
_cell_length_b	25.639239
_cell_length_c	25.639233
_cell_angle_alpha	89.981253
_cell_angle_beta	89.967207
_cell_angle_gamma	90.054564
loop_
_atom_site_label
_atom_site_type_symbol
_atom_site_fract_x
_atom_site_fract_y
_atom_site_fract_z
Zn1	Zn	0.957756	-0.207993	-0.295891
Zn2	Zn	1.207756	0.042007	-0.045891
Zn3	Zn	1.457756	0.292007	0.204109
Zn4	Zn	1.707756	0.542007	0.454109
Zn5	Zn	0.957664	-0.295412	-0.208455
Zn6	Zn	1.207664	-0.045412	0.041545
Zn7	Zn	1.457664	0.204588	0.291545
Zn8	Zn	1.707664	0.454588	0.541545
Zn9	Zn	0.852991	-0.208016	-0.208438
Zn10	Zn	1.102991	0.041984	0.041562
Zn11	Zn	1.352991	0.291984	0.291562
Zn12	Zn	1.602991	0.541984	0.541562
Zn13	Zn	0.852925	-0.295423	-0.295829
Zn14	Zn	1.102925	-0.045423	-0.045829
Zn15	Zn	1.352925	0.204577	0.204171
Zn16	Zn	1.602925	0.454577	0.454171
O17	O	0.905334	-0.251711	-0.252153
O18	O	1.155334	-0.001711	-0.002153
O19	O	1.405334	0.248289	0.247847
O20	O	1.655334	0.498289	0.497847
O21	O	1.045422	-0.219574	-0.284325
O22	O	1.295422	0.030426	-0.034325
O23	O	1.545422	0.280426	0.215675
O24	O	1.795422	0.530426	0.465675
O25	O	0.943768	-0.283823	-0.135287
O26	O	1.193768	-0.033823	0.114713
O27	O	1.443768	0.216177	0.364713
O28	O	1.693768	0.466177	0.614713
O29	O	0.866954	-0.134848	-0.220058
O30	O	1.116954	0.115152	0.029942
O31	O	1.366954	0.365152	0.279942
O32	O	1.616954	0.615152	0.529942
O33	O	1.045354	-0.283801	-0.220086
O34	O	1.295354	-0.033801	0.029914
O35	O	1.545354	0.216199	0.279914
O36	O	1.795354	0.466199	0.529914
O37	O	0.943924	-0.134831	-0.284309
O38	O	1.193924	0.115169	-0.034309
O39	O	1.443924	0.365169	0.215691
O40	O	1.693924	0.615169	0.465691
O41	O	0.866865	-0.219614	-0.135275
O42	O	1.116865	0.030386	0.114725
O43	O	1.366865	0.280386	0.364725
O44	O	1.616865	0.530386	0.614725
O45	O	0.765304	-0.219626	-0.219998
O46	O	1.015304	0.030374	0.030002
O47	O	1.265304	0.280374	0.280002
O48	O	1.515304	0.530374	0.530002
O49	O	0.866842	-0.283821	-0.369002
O50	O	1.116842	-0.033821	-0.119002
O51	O	1.366842	0.216179	0.130998
O52	O	1.616842	0.466179	0.380998
O53	O	0.765256	-0.283843	-0.284203
O54	O	1.015256	-0.033843	-0.034203
O55	O	1.265256	0.216157	0.215797
O56	O	1.515256	0.466157	0.465797
O57	O	0.943861	-0.219586	-0.369048
O58	O	1.193861	0.030414	-0.119048
O59	O	1.443861	0.280414	0.130952
O60	O	1.693861	0.530414	0.380952
O61	O	0.943704	-0.368578	-0.220026
O62	O	1.193704	-0.118578	0.029974
O63	O	1.443704	0.131422	0.279974
O64	O	1.693704	0.381422	0.529974
O65	O	0.866753	-0.368587	-0.284219
O66	O	1.116753	-0.118587	-0.034219
O67	O	1.366753	0.131413	0.215781
O68	O	1.616753	0.381413	0.465781
C69	C	0.742546	-0.251739	-0.252092
C70	C	0.992546	-0.001739	-0.002092
C71	C	1.242546	0.248261	0.247908
C72	C	1.492546	0.498261	0.497908
C73	C	0.672905	-0.251763	-0.252079
C74	C	0.922905	-0.001763	-0.002079
C75	C	1.172905	0.248237	0.247921
C76	C	1.422905	0.498237	0.497921
C77	C	0.640183	-0.285245	-0.285460
C78	C	0.890183	-0.035245	-0.035460
C79	C	1.140183	0.214755	0.214540
C80	C	1.390183	0.464755	0.464540
C81	C	0.574748	-0.285233	-0.285484
C82	C	0.824748	-0.035233	-0.035484
C83	C	1.074748	0.214767	0.214516
C84	C	1.324748	0.464767	0.464516
C85	C	0.542037	-0.251743	-0.252116
C86	C	0.792037	-0.001743	-0.002116
C87	C	1.042037	0.248257	0.247884
C88	C	1.292037	0.498257	0.497884
C89	C	0.574767	-0.218254	-0.218732
C90	C	0.824767	0.031746	0.031268
C91	C	1.074767	0.281746	0.281268
C92	C	1.324767	0.531746	0.531268
C93	C	0.640201	-0.218264	-0.218714
C94	C	0.890201	0.031736	0.031286
C95	C	1.140201	0.281736	0.281286
C96	C	1.390201	0.531736	0.531286
C97	C	0.438324	-0.247530	-0.205047
C98	C	0.688324	0.002470	0.044953
C99	C	0.938324	0.252470	0.294953
C100	C	1.188324	0.502470	0.544953
C101	C	0.372891	-0.247524	-0.205065
C102	C	0.622891	0.002476	0.044935
C103	C	0.872891	0.252476	0.294935
C104	C	1.122891	0.502476	0.544935
C105	C	0.340216	-0.251709	-0.252174
C106	C	0.590216	-0.001709	-0.002174
C107	C	0.840216	0.248291	0.247826
C108	C	1.090216	0.498291	0.497826
C109	C	0.372982	-0.255911	-0.299266
C110	C	0.622982	-0.005911	-0.049266
C111	C	0.872982	0.244089	0.200734
C112	C	1.122982	0.494089	0.450734
C113	C	0.438417	-0.255921	-0.299248
C114	C	0.688417	-0.005921	-0.049248
C115	C	0.938417	0.244079	0.200752
C116	C	1.188417	0.494079	0.450752
C117	C	0.471085	-0.251728	-0.252133
C118	C	0.721085	-0.001728	-0.002133
C119	C	0.971085	0.248272	0.247867
C120	C	1.221085	0.498272	0.497867
C121	C	0.236542	-0.285179	-0.285584
C122	C	0.486542	-0.035179	-0.035584
C123	C	0.736542	0.214821	0.214416
C124	C	0.986542	0.464821	0.464416
C125	C	0.171105	-0.285163	-0.285608
C126	C	0.421105	-0.035163	-0.035608
C127	C	0.671105	0.214837	0.214392
C128	C	0.921105	0.464837	0.464392
C129	C	0.171125	-0.218187	-0.218852
C130	C	0.421125	0.031813	0.031148
C131	C	0.671125	0.281813	0.281148
C132	C	0.921125	0.531813	0.531148
C133	C	0.236561	-0.218201	-0.218832
C134	C	0.486561	0.031799	0.031168
C135	C	0.736561	0.281799	0.281168
C136	C	0.986561	0.531799	0.531168
C137	C	0.269265	-0.251699	-0.252197
C138	C	0.519265	-0.001699	-0.002197
C139	C	0.769265	0.248301	0.247803
C140	C	1.019265	0.498301	0.497803
C141	C	0.905229	-0.387554	-0.252129
C142	C	1.155229	-0.137554	-0.002129
C143	C	1.405229	0.112446	0.247871
C144	C	1.655229	0.362446	0.497871
C145	C	0.905241	-0.445668	-0.252136
C146	C	1.155241	-0.195668	-0.002136
C147	C	1.405241	0.054332	0.247864
C148	C	1.655241	0.304332	0.497864
C149	C	0.945507	-0.806014	-0.218785
C150	C	1.195507	-0.556014	0.031215
C151	C	1.445507	-0.306014	0.281215
C152	C	1.695507	-0.056014	0.531215
C153	C	0.945531	-0.860618	-0.218792
C154	C	1.195531	-0.610618	0.031208
C155	C	1.445531	-0.360618	0.281208
C156	C	1.695531	-0.110618	0.531208
O157	O	0.979658	-0.888840	-0.190409
O158	O	1.229658	-0.638840	0.059591
O159	O	1.479658	-0.388840	0.309591
O160	O	1.729658	-0.138840	0.559591
N161	N	0.905444	-0.887950	-0.252188
N162	N	1.155444	-0.637950	-0.002188
N163	N	1.405444	-0.387950	0.247812
N164	N	1.655444	-0.137950	0.497812
C165	C	0.865335	-0.860675	-0.285583
C166	C	1.115335	-0.610675	-0.035583
C167	C	1.365335	-0.360675	0.214417
C168	C	1.615335	-0.110675	0.464417
O169	O	0.831240	-0.888937	-0.313990
O170	O	1.081240	-0.638937	-0.063990
O171	O	1.331240	-0.388937	0.186010
O172	O	1.581240	-0.138937	0.436010
C173	C	0.865314	-0.806072	-0.285578
C174	C	1.115314	-0.556072	-0.035578
C175	C	1.365314	-0.306072	0.214422
C176	C	1.615314	-0.056072	0.464422
C177	C	0.905399	-0.778742	-0.252176
C178	C	1.155399	-0.528742	-0.002176
C179	C	1.405399	-0.278742	0.247824
C180	C	1.655399	-0.028742	0.497824
C181	C	0.985590	-0.778684	-0.185386
C182	C	1.235590	-0.528684	0.064614
C183	C	1.485590	-0.278684	0.314614
C184	C	1.735590	-0.028684	0.564614
C185	C	0.985564	-0.724084	-0.185378
C186	C	1.235564	-0.474084	0.064622
C187	C	1.485564	-0.224084	0.314622
C188	C	1.735564	0.025916	0.564622
C189	C	0.945457	-0.696813	-0.218770
C190	C	1.195457	-0.446813	0.031230
C191	C	1.445457	-0.196813	0.281230
C192	C	1.695457	0.053187	0.531230
C193	C	0.905374	-0.724142	-0.252168
C194	C	1.155374	-0.474142	-0.002168
C195	C	1.405374	-0.224142	0.247832
C196	C	1.655374	0.025858	0.497832
C197	C	0.825208	-0.778798	-0.318975
C198	C	1.075208	-0.528798	-0.068975
C199	C	1.325208	-0.278798	0.181025
C200	C	1.575208	-0.028798	0.431025
C201	C	0.825191	-0.724191	-0.318968
C202	C	1.075191	-0.474191	-0.068968
C203	C	1.325191	-0.224191	0.181032
C204	C	1.575191	0.025809	0.431032
C205	C	0.865276	-0.696861	-0.285566
C206	C	1.115276	-0.446861	-0.035566
C207	C	1.365276	-0.196861	0.214434
C208	C	1.615276	0.053139	0.464434
C209	C	0.865241	-0.642270	-0.285552
C210	C	1.115241	-0.392270	-0.035552
C211	C	1.365241	-0.142270	0.214448
C212	C	1.615241	0.107730	0.464448
N213	N	0.905328	-0.614938	-0.252156
N214	N	1.155328	-0.364938	-0.002156
N215	N	1.405328	-0.114938	0.247844
N216	N	1.655328	0.135062	0.497844
C217	C	0.945436	-0.642209	-0.218765
C218	C	1.195436	-0.392209	0.031235
C219	C	1.445436	-0.142209	0.281235
C220	C	1.695436	0.107791	0.531235
C221	C	0.865382	-0.975346	-0.285591
C222	C	1.115382	-0.725346	-0.035591
C223	C	1.365382	-0.475346	0.214409
C224	C	1.615382	-0.225346	0.464409
C225	C	0.865399	-1.029948	-0.285593
C226	C	1.115399	-0.779948	-0.035593
C227	C	1.365399	-0.529948	0.214407
C228	C	1.615399	-0.279948	0.464407
C229	C	0.945597	-1.029887	-0.218803
C230	C	1.195597	-0.779887	0.031197
C231	C	1.445597	-0.529887	0.281197
C232	C	1.695597	-0.279887	0.531197
C233	C	0.945576	-0.975284	-0.218798
C234	C	1.195576	-0.725284	0.031202
C235	C	1.445576	-0.475284	0.281202
C236	C	1.695576	-0.225284	0.531202
C237	C	0.905469	-0.948014	-0.252195
C238	C	1.155469	-0.698014	-0.002195
C239	C	1.405469	-0.448014	0.247805
C240	C	1.655469	-0.198014	0.497805
C241	C	0.945379	-0.527544	-0.218751
C242	C	1.195379	-0.277544	0.031249
C243	C	1.445379	-0.027544	0.281249
C244	C	1.695379	0.222456	0.531249
C245	C	0.945349	-0.472939	-0.218745
C246	C	1.195349	-0.222939	0.031255
C247	C	1.445349	0.027061	0.281255
C248	C	1.695349	0.277061	0.531255
C249	C	0.865154	-0.473005	-0.285537
C250	C	1.115154	-0.223005	-0.035537
C251	C	1.365154	0.026995	0.214463
C252	C	1.615154	0.276995	0.464463
C253	C	0.865182	-0.527605	-0.285542
C254	C	1.115182	-0.277605	-0.035542
C255	C	1.365182	-0.027605	0.214458
C256	C	1.615182	0.222395	0.464458
C257	C	0.905300	-0.554874	-0.252147
C258	C	1.155300	-0.304874	-0.002147
C259	C	1.405300	-0.054874	0.247853
C260	C	1.655300	0.195126	0.497853
O261	O	0.831134	-0.614013	-0.313922
O262	O	1.081134	-0.364013	-0.063922
O263	O	1.331134	-0.114013	0.186078
O264	O	1.581134	0.135987	0.436078
O265	O	0.979531	-0.613941	-0.190368
O266	O	1.229531	-0.363941	0.059632
O267	O	1.479531	-0.113941	0.309632
O268	O	1.729531	0.136059	0.559632
C269	C	1.068757	-0.251684	-0.252214
C270	C	1.318757	-0.001684	-0.002214
C271	C	1.568757	0.248316	0.247786
C272	C	1.818757	0.498316	0.497786
C273	C	1.138399	-0.251672	-0.252240
C274	C	1.388399	-0.001672	-0.002240
C275	C	1.638399	0.248328	0.247760
C276	C	1.888399	0.498328	0.497760
C277	C	0.905354	-0.251702	-0.388526
C278	C	1.155354	-0.001702	-0.138526
C279	C	1.405354	0.248298	0.111474
C280	C	1.655354	0.498298	0.361474
C281	C	0.905363	-0.251698	-0.446640
C282	C	1.155363	-0.001698	-0.196640
C283	C	1.405363	0.248302	0.053360
C284	C	1.655363	0.498302	0.303360
C285	C	0.905457	-0.115338	-0.252189
C286	C	1.155457	0.134662	-0.002189
C287	C	1.405457	0.384662	0.247811
C288	C	1.655457	0.634662	0.497811
C289	C	0.905509	-0.057224	-0.252204
C290	C	1.155509	0.192776	-0.002204
C291	C	1.405509	0.442776	0.247796
C292	C	1.655509	0.692776	0.497796
C293	C	0.945517	-0.218152	-0.807033
C294	C	1.195517	0.031848	-0.557033
C295	C	1.445517	0.281848	-0.307033
C296	C	1.695517	0.531848	-0.057033
C297	C	0.945525	-0.218137	-0.861637
C298	C	1.195525	0.031863	-0.611637
C299	C	1.445525	0.281863	-0.361637
C300	C	1.695525	0.531863	-0.111637
O301	O	0.979615	-0.189676	-0.889899
O302	O	1.229615	0.060324	-0.639899
O303	O	1.479615	0.310324	-0.389899
O304	O	1.729615	0.560324	-0.139899
N305	N	0.905432	-0.251575	-0.888923
N306	N	1.155432	-0.001575	-0.638923
N307	N	1.405432	0.248425	-0.388923
N308	N	1.655432	0.498425	-0.138923
C309	C	0.865324	-0.285027	-0.861602
C310	C	1.115324	-0.035027	-0.611602
C311	C	1.365324	0.214973	-0.361602
C312	C	1.615324	0.464973	-0.111602
O313	O	0.831222	-0.313467	-0.889824
O314	O	1.081222	-0.063467	-0.639824
O315	O	1.331222	0.186533	-0.389824
O316	O	1.581222	0.436533	-0.139824
C317	C	0.865314	-0.285038	-0.806998
C318	C	1.115314	-0.035038	-0.556998
C319	C	1.365314	0.214962	-0.306998
C320	C	1.615314	0.464962	-0.056998
C321	C	0.905414	-0.251601	-0.779715
C322	C	1.155414	-0.001601	-0.529715
C323	C	1.405414	0.248399	-0.279715
C324	C	1.655414	0.498399	-0.029715
C325	C	0.985614	-0.184717	-0.779750
C326	C	1.235614	0.065283	-0.529750
C327	C	1.485614	0.315283	-0.279750
C328	C	1.735614	0.565283	-0.029750
C329	C	0.985607	-0.184732	-0.725149
C330	C	1.235607	0.065268	-0.475149
C331	C	1.485607	0.315268	-0.225149
C332	C	1.735607	0.565268	0.024851
C333	C	0.945503	-0.218182	-0.697832
C334	C	1.195503	0.031818	-0.447832
C335	C	1.445503	0.281818	-0.197832
C336	C	1.695503	0.531818	0.052168
C337	C	0.905407	-0.251617	-0.725115
C338	C	1.155407	-0.001617	-0.475115
C339	C	1.405407	0.248383	-0.225115
C340	C	1.655407	0.498383	0.024885
C341	C	0.825203	-0.318486	-0.779678
C342	C	1.075203	-0.068486	-0.529678
C343	C	1.325203	0.181514	-0.279678
C344	C	1.575203	0.431514	-0.029678
C345	C	0.825196	-0.318494	-0.725071
C346	C	1.075196	-0.068494	-0.475071
C347	C	1.325196	0.181506	-0.225071
C348	C	1.575196	0.431506	0.024929
C349	C	0.865296	-0.285058	-0.697788
C350	C	1.115296	-0.035058	-0.447788
C351	C	1.365296	0.214942	-0.197788
C352	C	1.615296	0.464942	0.052212
C353	C	0.865296	-0.285082	-0.643197
C354	C	1.115296	-0.035082	-0.393197
C355	C	1.365296	0.214918	-0.143197
C356	C	1.615296	0.464918	0.106803
N357	N	0.905389	-0.251643	-0.615911
N358	N	1.155389	-0.001643	-0.365911
N359	N	1.405389	0.248357	-0.115911
N360	N	1.655389	0.498357	0.134089
C361	C	0.945493	-0.218194	-0.643228
C362	C	1.195493	0.031806	-0.393228
C363	C	1.445493	0.281806	-0.143228
C364	C	1.695493	0.531806	0.106772
C365	C	0.865348	-0.284999	-0.976272
C366	C	1.115348	-0.034999	-0.726272
C367	C	1.365348	0.215001	-0.476272
C368	C	1.615348	0.465001	-0.226272
C369	C	0.865361	-0.284991	-1.030875
C370	C	1.115361	-0.034991	-0.780875
C371	C	1.365361	0.215009	-0.530875
C372	C	1.615361	0.465009	-0.280875
C373	C	0.945562	-0.218101	-1.030906
C374	C	1.195562	0.031899	-0.780906
C375	C	1.445562	0.281899	-0.530906
C376	C	1.695562	0.531899	-0.280906
C377	C	0.945551	-0.218112	-0.976303
C378	C	1.195551	0.031888	-0.726303
C379	C	1.445551	0.281888	-0.476303
C380	C	1.695551	0.531888	-0.226303
C381	C	0.905441	-0.251561	-0.948986
C382	C	1.155441	-0.001561	-0.698986
C383	C	1.405441	0.248439	-0.448986
C384	C	1.655441	0.498439	-0.198986
C385	C	0.945475	-0.218228	-0.528563
C386	C	1.195475	0.031772	-0.278563
C387	C	1.445475	0.281772	-0.028563
C388	C	1.695475	0.531772	0.221437
C389	C	0.945466	-0.218248	-0.473958
C390	C	1.195466	0.031752	-0.223958
C391	C	1.445466	0.281752	0.026042
C392	C	1.695466	0.531752	0.276042
C393	C	0.865264	-0.285136	-0.473931
C394	C	1.115264	-0.035136	-0.223931
C395	C	1.365264	0.214864	0.026069
C396	C	1.615264	0.464864	0.276069
C397	C	0.865275	-0.285119	-0.528531
C398	C	1.115275	-0.035119	-0.278531
C399	C	1.365275	0.214881	-0.028531
C400	C	1.615275	0.464881	0.221469
C401	C	0.905383	-0.251661	-0.555846
C402	C	1.155383	-0.001661	-0.305846
C403	C	1.405383	0.248339	-0.055846
C404	C	1.655383	0.498339	0.194154
O405	O	0.831222	-0.313526	-0.614900
O406	O	1.081222	-0.063526	-0.364900
O407	O	1.331222	0.186474	-0.114900
O408	O	1.581222	0.436474	0.135100
O409	O	0.979583	-0.189753	-0.614999
O410	O	1.229583	0.060247	-0.364999
O411	O	1.479583	0.310247	-0.114999
O412	O	1.729583	0.560247	0.135001
C413	C	0.905350	-0.251682	-0.116311
C414	C	1.155350	-0.001682	0.133689
C415	C	1.405350	0.248318	0.383689
C416	C	1.655350	0.498318	0.633689
C417	C	0.905463	-0.251539	-0.058197
C418	C	1.155463	-0.001539	0.191803
C419	C	1.405463	0.248461	0.441803
C420	C	1.655463	0.498461	0.691803
H421	H	0.977991	-0.450689	-0.191543
H422	H	1.227991	-0.200689	0.058457
H423	H	1.477991	0.049311	0.308457
H424	H	1.727991	0.299311	0.558457
H425	H	0.792526	-0.345728	-0.702832
H426	H	1.042526	-0.095728	-0.452832
H427	H	1.292526	0.154272	-0.202832
H428	H	1.542526	0.404272	0.047168
O429	O	0.988805	-0.182013	-1.060380
O430	O	1.238805	0.067987	-0.810380
O431	O	1.488805	0.317987	-0.560380
O432	O	1.738805	0.567987	-0.310380
H433	H	1.020660	-0.205400	-1.085274
H434	H	1.270660	0.044600	-0.835274
H435	H	1.520660	0.294600	-0.585274
H436	H	1.770660	0.544600	-0.335274
O437	O	0.822113	-0.321056	-1.060300
O438	O	1.072113	-0.071056	-0.810300
O439	O	1.322113	0.178944	-0.560300
O440	O	1.572113	0.428944	-0.310300
H441	H	0.794224	-0.344312	-1.032125
H442	H	1.044224	-0.094312	-0.782125
H443	H	1.294224	0.155688	-0.532125
H444	H	1.544224	0.405688	-0.282125
H445	H	0.666843	-0.190997	-0.191530
H446	H	0.916843	0.059003	0.058470
H447	H	1.166843	0.309003	0.308470
H448	H	1.416843	0.559003	0.558470
O449	O	0.337753	-0.260421	-0.350083
O450	O	0.587753	-0.010421	-0.100083
O451	O	0.837753	0.239579	0.149917
O452	O	1.087753	0.489579	0.399917
H453	H	0.286748	-0.259700	-0.342188
H454	H	0.536748	-0.009700	-0.092188
H455	H	0.786748	0.240300	0.157812
H456	H	1.036748	0.490300	0.407812
H457	H	0.144493	-0.190916	-0.191685
H458	H	0.394493	0.059084	0.058315
H459	H	0.644493	0.309084	0.308315
H460	H	0.894493	0.559084	0.558315
H461	H	0.792563	-0.801040	-0.346172
H462	H	1.042563	-0.551040	-0.096172
H463	H	1.292563	-0.301040	0.153828
H464	H	1.542563	-0.051040	0.403828
H465	H	0.832496	-0.450792	-0.312722
H466	H	1.082496	-0.200792	-0.062722
H467	H	1.332496	0.049208	0.187278
H468	H	1.582496	0.299208	0.437278
O469	O	0.675454	-0.321374	-0.321450
O470	O	0.925454	-0.071374	-0.071450
O471	O	1.175454	0.178626	0.178550
O472	O	1.425454	0.428626	0.428550
H473	H	0.726453	-0.315760	-0.315827
H474	H	0.976453	-0.065760	-0.065827
H475	H	1.226453	0.184240	0.184173
H476	H	1.476453	0.434240	0.434173
H477	H	0.832628	-0.312351	-0.550746
H478	H	1.082628	-0.062351	-0.300746
H479	H	1.332628	0.187649	-0.050746
H480	H	1.582628	0.437649	0.199254
H481	H	0.464922	-0.244120	-0.166683
H482	H	0.714922	0.005880	0.083317
H483	H	0.964922	0.255880	0.333317
H484	H	1.214922	0.505880	0.583317
O485	O	1.028859	-0.808090	-0.149371
O486	O	1.278859	-0.558090	0.100629
O487	O	1.528859	-0.308090	0.350629
O488	O	1.778859	-0.058090	0.600629
H489	H	1.022153	-0.850653	-0.154982
H490	H	1.272153	-0.600653	0.095018
H491	H	1.522153	-0.350653	0.345018
H492	H	1.772153	-0.100653	0.595018
O493	O	0.822006	-0.321210	-0.444463
O494	O	1.072006	-0.071210	-0.194463
O495	O	1.322006	0.178790	0.055537
O496	O	1.572006	0.428790	0.305537
H497	H	0.828735	-0.315594	-0.401911
H498	H	1.078735	-0.065594	-0.151911
H499	H	1.328735	0.184406	0.098089
H500	H	1.578735	0.434406	0.348089
H501	H	0.548100	-0.312498	-0.312669
H502	H	0.798100	-0.062498	-0.062669
H503	H	1.048100	0.187502	0.187331
H504	H	1.298100	0.437502	0.437331
H505	H	0.832685	-0.312240	-0.954034
H506	H	1.082685	-0.062240	-0.704034
H507	H	1.332685	0.187760	-0.454034
H508	H	1.582685	0.437760	-0.204034
O509	O	0.822107	-0.945940	-0.321608
O510	O	1.072107	-0.695940	-0.071608
O511	O	1.322107	-0.445940	0.178392
O512	O	1.572107	-0.195940	0.428392
H513	H	0.850109	-0.921024	-0.348245
H514	H	1.100109	-0.671024	-0.098245
H515	H	1.350109	-0.421024	0.151755
H516	H	1.600109	-0.171024	0.401755
H517	H	0.978217	-0.953035	-0.191600
H518	H	1.228217	-0.703035	0.058400
H519	H	1.478217	-0.453035	0.308400
H520	H	1.728217	-0.203035	0.558400
H521	H	0.978049	-0.549740	-0.191559
H522	H	1.228049	-0.299740	0.058441
H523	H	1.478049	-0.049740	0.308441
H524	H	1.728049	0.200260	0.558441
H525	H	0.465092	-0.259341	-0.337592
H526	H	0.715092	-0.009341	-0.087592
H527	H	0.965092	0.240659	0.162408
H528	H	1.215092	0.490659	0.412408
O529	O	0.781944	-0.354543	-0.809097
O530	O	1.031944	-0.104543	-0.559097
O531	O	1.281944	0.145457	-0.309097
O532	O	1.531944	0.395457	-0.059097
H533	H	0.754052	-0.377795	-0.780919
H534	H	1.004052	-0.127795	-0.530919
H535	H	1.254052	0.122205	-0.280919
H536	H	1.504052	0.372205	-0.030919
O537	O	0.988867	-1.059310	-0.182797
O538	O	1.238867	-0.809310	0.067203
O539	O	1.488867	-0.559310	0.317203
O540	O	1.738867	-0.309310	0.567203
H541	H	0.960861	-1.084237	-0.156174
H542	H	1.210861	-0.834237	0.093826
H543	H	1.460861	-0.584237	0.343826
H544	H	1.710861	-0.334237	0.593826
O545	O	0.271823	-0.321301	-0.321575
O546	O	0.521823	-0.071301	-0.071575
O547	O	0.771823	0.178699	0.178425
O548	O	1.021823	0.428699	0.428425
H549	H	0.238073	-0.344575	-0.344799
H550	H	0.488073	-0.094575	-0.094799
H551	H	0.738073	0.155425	0.155201
H552	H	0.988073	0.405425	0.405201
H553	H	0.832752	-1.052195	-0.312788
H554	H	1.082752	-0.802195	-0.062788
H555	H	1.332752	-0.552195	0.187212
H556	H	1.582752	-0.302195	0.437212
O557	O	0.781932	-0.694777	-0.354989
O558	O	1.031932	-0.444777	-0.104989
O559	O	1.281932	-0.194777	0.145011
O560	O	1.531932	0.055223	0.395011
H561	H	0.750065	-0.669943	-0.331551
H562	H	1.000065	-0.419943	-0.081551
H563	H	1.250065	-0.169943	0.168449
H564	H	1.500065	0.080057	0.418449
H565	H	1.018207	-0.701835	-0.158181
H566	H	1.268207	-0.451835	0.091819
H567	H	1.518207	-0.201835	0.341819
H568	H	1.768207	0.048165	0.591819
O569	O	0.988733	-0.182136	-0.558011
O570	O	1.238733	0.067864	-0.308011
O571	O	1.488733	0.317864	-0.058011
O572	O	1.738733	0.567864	0.191989
H573	H	0.960719	-0.155525	-0.582872
H574	H	1.210719	0.094475	-0.332872
H575	H	1.460719	0.344475	-0.082872
H576	H	1.710719	0.594475	0.167128
O577	O	0.821947	-0.557087	-0.321565
O578	O	1.071947	-0.307087	-0.071565
O579	O	1.321947	-0.057087	0.178435
O580	O	1.571947	0.192913	0.428435
H581	H	0.794056	-0.528948	-0.344784
H582	H	1.044056	-0.278948	-0.094784
H583	H	1.294056	-0.028948	0.155216
H584	H	1.544056	0.221052	0.405216
O585	O	0.988718	-0.182183	-0.444530
O586	O	1.238718	0.067817	-0.194530
O587	O	1.488718	0.317817	0.055470
O588	O	1.738718	0.567817	0.305470
H589	H	1.016600	-0.158918	-0.472703
H590	H	1.266600	0.091082	-0.222703
H591	H	1.516600	0.341082	0.027297
H592	H	1.766600	0.591082	0.277297
H593	H	1.018259	-0.157504	-0.702940
H594	H	1.268259	0.092496	-0.452940
H595	H	1.518259	0.342496	-0.202940
H596	H	1.768259	0.592496	0.047060
H597	H	0.144464	-0.312427	-0.312794
H598	H	0.394464	-0.062427	-0.062794
H599	H	0.644464	0.187573	0.187206
H600	H	0.894464	0.437573	0.437206
H601	H	1.018271	-0.157475	-0.801986
H602	H	1.268271	0.092525	-0.551986
H603	H	1.518271	0.342525	-0.301986
H604	H	1.768271	0.592525	-0.051986
H605	H	0.263203	-0.190938	-0.191646
H606	H	0.513203	0.059062	0.058354
H607	H	0.763203	0.309062	0.308354
H608	H	1.013203	0.559062	0.558354
H609	H	0.978203	-0.190884	-0.954093
H610	H	1.228203	0.059116	-0.704093
H611	H	1.478203	0.309116	-0.454093
H612	H	1.728203	0.559116	-0.204093
H613	H	0.346218	-0.244106	-0.166719
H614	H	0.596218	0.005894	0.083281
H615	H	0.846218	0.255894	0.333281
H616	H	1.096218	0.505894	0.583281
H617	H	0.548129	-0.190986	-0.191565
H618	H	0.798129	0.059014	0.058435
H619	H	1.048129	0.309014	0.308435
H620	H	1.298129	0.559014	0.558435
