data_functionalizedCrystal
_audit_creation_method	'MofGen! by Chris Wilmer'
_symmetry_space_group_name_H-M	'P1'
_symmetry_Int_Tables_number	1
_symmetry_cell_setting	triclinic
loop_
_symmetry_equiv_pos_as_xyz
  x,y,z
_cell_length_a	13.032831
_cell_length_b	19.121063
_cell_length_c	13.032268
_cell_angle_alpha	99.247498
_cell_angle_beta	90.886977
_cell_angle_gamma	85.565596
loop_
_atom_site_label
_atom_site_type_symbol
_atom_site_fract_x
_atom_site_fract_y
_atom_site_fract_z
Zn1	Zn	1.465022	-0.473659	-0.806576
Zn2	Zn	1.479383	-0.578156	-0.640274
Zn3	Zn	1.316950	-0.444360	-0.611224
Zn4	Zn	1.285899	-0.574364	-0.790193
O5	O	1.386814	-0.517635	-0.712067
O6	O	1.609870	-0.501370	-0.803529
O7	O	1.476841	-0.549733	-0.491924
O8	O	1.343577	-0.350107	-0.631836
O9	O	1.620421	-0.578143	-0.681348
O10	O	1.452365	-0.371633	-0.775360
O11	O	1.357502	-0.451434	-0.470581
O12	O	1.169889	-0.447756	-0.615951
O13	O	1.290655	-0.571680	-0.936863
O14	O	1.147076	-0.543270	-0.747439
O15	O	1.422256	-0.497693	-0.948899
O16	O	1.446733	-0.675793	-0.665463
O17	O	1.304581	-0.673007	-0.775608
C18	C	1.121419	-0.491923	-0.676766
C19	C	1.007877	-0.480942	-0.661690
C20	C	0.946005	-0.523366	-0.719935
C21	C	0.828653	-0.512018	-0.704355
C22	C	1.373870	-0.699851	-0.721936
C23	C	1.368422	-0.777815	-0.726206
C24	C	1.439917	-0.815879	-0.670926
C25	C	1.434798	-0.889136	-0.674948
C26	C	1.358179	-0.924327	-0.734244
C27	C	1.286681	-0.886258	-0.789530
C28	C	1.291805	-0.813003	-0.785514
C29	C	1.339006	-1.145437	-0.749244
C30	C	1.333886	-1.218697	-0.753254
C31	C	1.482005	-1.221570	-0.638672
C32	C	1.487118	-1.148313	-0.634656
C33	C	1.415624	-1.110251	-0.689946
C34	C	1.352943	-0.999207	-0.738354
C35	C	1.420865	-1.035374	-0.685842
C36	C	1.653245	-0.543448	-0.747506
C37	C	1.766782	-0.554448	-0.762608
C38	C	1.351390	-0.537532	-0.981395
C39	C	1.336295	-0.546011	-1.096167
C40	C	1.399833	-0.334712	-0.702185
C41	C	1.405381	-0.256761	-0.697974
C42	C	1.394678	-0.513183	-1.153291
C43	C	1.379078	-0.521945	-1.271914
C44	C	1.422162	-0.497771	-0.443791
C45	C	1.437469	-0.489113	-0.329036
H46	H	0.794751	-0.467290	-0.642953
O47	O	0.962967	-0.421711	-0.580340
H48	H	0.910781	-0.384833	-0.618293
H49	H	1.280791	-1.114453	-0.794261
H50	H	0.979912	-0.568086	-0.781340
O51	O	1.254776	-0.591827	-1.147701
H52	H	1.271063	-0.647053	-1.132360
H53	H	0.800683	-0.599170	-0.824020
O54	O	1.518994	-0.443293	-1.277511
H55	H	1.482238	-0.399580	-1.220354
H56	H	1.502304	-0.787232	-0.622636
O57	O	1.297555	-0.567765	-1.323443
H58	H	1.313842	-0.622990	-1.308103
O59	O	1.511904	-0.930193	-0.615319
H60	H	1.566033	-0.893414	-0.573400
O61	O	1.559117	-1.262636	-0.579063
H62	H	1.553309	-1.240944	-0.494913
O63	O	1.270291	-1.037165	-0.802285
H64	H	1.306716	-1.078813	-0.862754
H65	H	1.549508	-1.119663	-0.586372
H66	H	1.271503	-1.247349	-0.801559
O67	O	1.204033	-0.924213	-0.853472
H68	H	1.240456	-0.965862	-0.913941
O69	O	1.214684	-0.771941	-0.845122
H70	H	1.160536	-0.808715	-0.887018
O71	O	1.476191	-0.467364	-1.101750
H72	H	1.459894	-0.412136	-1.117078
O73	O	1.503513	-0.997421	-0.621906
H74	H	1.467086	-0.955779	-0.561431
