data_functionalizedCrystal
_audit_creation_method	'MofGen! by Chris Wilmer'
_symmetry_space_group_name_H-M	'P1'
_symmetry_Int_Tables_number	1
_symmetry_cell_setting	triclinic
loop_
_symmetry_equiv_pos_as_xyz
  x,y,z
_cell_length_a	11.026607
_cell_length_b	15.995350
_cell_length_c	10.065875
_cell_angle_alpha	98.791555
_cell_angle_beta	79.302338
_cell_angle_gamma	96.039196
loop_
_atom_site_label
_atom_site_type_symbol
_atom_site_fract_x
_atom_site_fract_y
_atom_site_fract_z
O1	O	1.627917	0.340991	-0.113481
O2	O	1.274611	0.301065	-0.113484
O3	O	1.460922	0.200596	-0.113481
O4	O	1.441606	0.441460	-0.113484
O5	O	1.425395	0.219853	0.113507
O6	O	1.239084	0.320322	0.113504
O7	O	1.592390	0.360247	0.113508
Zn8	Zn	1.410096	0.343342	0.149545
Zn9	Zn	1.456905	0.317971	-0.149522
O10	O	1.406079	0.460716	0.113504
C11	C	1.211637	0.303328	0.000010
C12	C	1.076923	0.281371	0.000008
C13	C	1.003118	0.341997	0.000007
C14	C	0.863884	0.319305	0.000005
C15	C	1.442360	0.178909	0.000011
C16	C	1.439967	0.085597	0.000003
C17	C	1.431369	-0.253446	0.000007
C18	C	1.298762	-0.226055	-0.000503
C19	C	1.301076	-0.128960	0.000009
C20	C	1.435634	-0.085243	0.000004
C21	C	1.480793	-0.105459	0.129624
C22	C	1.477442	-0.202588	0.129732
C23	C	1.520584	-0.224432	-0.128396
C24	C	1.520821	-0.127636	-0.130109
C25	C	1.438051	0.009819	0.000007
C26	C	1.428955	-0.348507	0.000014
C27	C	1.655365	0.357984	0.000011
C28	C	1.790080	0.379940	0.000003
C29	C	1.424641	0.482403	0.000010
C30	C	1.427036	0.575714	0.000009
N31	N	1.378160	0.360658	0.353650
N32	N	1.488851	0.300649	-0.353627
C33	C	1.445785	0.323989	0.421430
C34	C	1.421215	0.337324	0.578597
H35	H	1.043008	0.410702	0.000014
N36	N	1.320422	0.391990	0.655832
H37	H	1.238088	0.367397	0.631053
H38	H	1.317265	0.393749	0.757133
H39	H	1.260276	-0.260465	-0.093456
N40	N	0.811063	0.228293	0.000023
H41	H	0.719086	0.224983	0.000025
H42	H	0.852612	0.192370	-0.084122
H43	H	1.420240	-0.075746	0.226085
H44	H	1.521868	0.282719	0.363107
N45	N	1.024107	0.190360	0.000002
H46	H	1.039232	0.168666	0.084147
H47	H	0.932147	0.187113	-0.000050
H48	H	1.492579	-0.259845	-0.226640
H49	H	0.829963	0.448650	0.000012
H50	H	1.234718	-0.101006	0.093083
N51	N	1.252194	-0.112015	-0.123063
H52	H	1.228944	-0.167697	-0.178136
H53	H	1.176766	-0.078659	-0.091995
N54	N	1.277371	0.415317	0.430901
H55	H	1.295438	0.474755	0.406105
H56	H	1.195081	0.390655	0.406091
H57	H	1.231496	-0.245765	0.091931
N58	N	1.394128	-0.225485	0.258064
H59	H	1.443111	-0.252497	0.313199
H60	H	1.359937	-0.172480	0.313932
N61	N	1.605254	-0.225203	0.137528
H62	H	1.663519	-0.172090	0.140886
H63	H	1.601668	-0.252417	0.222488
N64	N	1.589638	0.245977	0.569140
H65	H	1.592904	0.244198	0.467813
H66	H	1.671917	0.270600	0.594025
H67	H	1.578894	-0.076025	0.134441
N68	N	1.477402	-0.111806	-0.257136
H69	H	1.402867	-0.077315	-0.230527
H70	H	1.546152	-0.079682	-0.314660
H71	H	1.620171	-0.098149	-0.137938
N72	N	1.650354	-0.247064	-0.129564
H73	H	1.651410	-0.275970	-0.047369
H74	H	1.678315	-0.286622	-0.215611
