data_functionalizedCrystal
_audit_creation_method	'MofGen! by Chris Wilmer'
_symmetry_space_group_name_H-M	'P1'
_symmetry_Int_Tables_number	1
_symmetry_cell_setting	triclinic
loop_
_symmetry_equiv_pos_as_xyz
  x,y,z
_cell_length_a	14.971482
_cell_length_b	9.065215
_cell_length_c	14.048226
_cell_angle_alpha	89.994559
_cell_angle_beta	89.994098
_cell_angle_gamma	84.313653
loop_
_atom_site_label
_atom_site_type_symbol
_atom_site_fract_x
_atom_site_fract_y
_atom_site_fract_z
O1	O	1.188381	0.192235	-0.079146
O2	O	0.928151	0.215265	-0.079151
O3	O	1.063646	-0.011002	-0.079144
O4	O	1.052886	0.418502	-0.079153
O5	O	1.063630	-0.011015	0.079177
O6	O	0.928135	0.215251	0.079171
O7	O	1.188364	0.192222	0.079175
Zn8	Zn	1.058247	0.203734	0.104310
Zn9	Zn	1.058269	0.203752	-0.104285
O10	O	1.052869	0.418489	0.079169
C11	C	0.894811	0.214229	0.000009
C12	C	0.795491	0.211146	0.000008
C13	C	0.748826	0.209686	0.086310
C14	C	0.655506	0.206765	0.086311
C15	C	0.608851	0.205315	0.000009
C16	C	0.655522	0.206770	-0.086300
C17	C	0.748842	0.209680	-0.086300
C18	C	0.461015	0.200708	-0.086293
C19	C	0.367689	0.197800	-0.086294
C20	C	0.367679	0.197793	0.086317
C21	C	0.460999	0.200703	0.086317
C22	C	0.507663	0.202161	0.000008
C23	C	1.062604	-0.065974	0.000015
C24	C	1.059514	-0.229755	0.000012
C25	C	1.221705	0.193257	0.000013
C26	C	1.321025	0.196341	0.000008
C27	C	1.053911	0.473461	0.000007
C28	C	1.057001	0.637241	0.000004
N29	N	1.058238	0.203722	0.246670
N30	N	1.058284	0.203753	-0.246646
C31	C	1.118255	0.103572	0.296491
C32	C	1.118261	0.103571	0.396149
C33	C	1.058254	0.203728	0.445984
C34	C	0.998231	0.303882	0.396156
C35	C	0.998221	0.303875	0.296500
C36	C	0.998257	0.303893	0.603870
C37	C	0.998268	0.303903	0.703533
C38	C	1.118296	0.103589	0.703519
C39	C	1.118287	0.103582	0.603863
C40	C	1.058265	0.203739	0.554042
H41	H	0.786805	0.210879	0.156587
N42	N	0.799172	0.211246	-0.179386
H43	H	0.776423	0.302125	-0.217122
H44	H	0.865356	0.213246	-0.166215
N45	N	0.317350	0.196226	0.179407
H46	H	0.251017	0.196239	0.166316
H47	H	0.339302	0.104296	0.216520
N48	N	0.605197	0.205208	-0.179379
H49	H	0.614927	0.297100	-0.217113
H50	H	0.627976	0.114272	-0.217033
H51	H	0.617517	0.205552	0.156587
N52	N	1.182971	-0.004449	0.242732
H53	H	1.246593	0.012706	0.260055
H54	H	1.171748	-0.109139	0.260105
H55	H	1.167168	0.022039	0.744089
N56	N	0.511312	0.202267	0.179403
H57	H	0.556546	0.112090	0.183251
H58	H	0.543459	0.294917	0.183193
H59	H	0.499007	0.201896	-0.156576
H60	H	1.167130	0.022021	0.436713
N61	N	0.933556	0.411939	0.757287
H62	H	0.895529	0.475384	0.710606
H63	H	0.893568	0.355358	0.798658
N64	N	0.933515	0.411918	0.449905
H65	H	0.895492	0.475360	0.403219
H66	H	0.893522	0.355336	0.491270
N67	N	0.933516	0.411910	0.550132
H68	H	0.895505	0.475364	0.596822
H69	H	0.968281	0.477221	0.508769
H70	H	0.329705	0.196620	-0.156568
H71	H	1.167153	0.022034	0.563288
N72	N	0.933485	0.411885	0.242760
H73	H	0.895472	0.475336	0.289450
H74	H	0.968245	0.477200	0.201394
