data_functionalizedCrystal
_audit_creation_method	'MofGen! by Chris Wilmer'
_symmetry_space_group_name_H-M	'P1'
_symmetry_Int_Tables_number	1
_symmetry_cell_setting	triclinic
loop_
_symmetry_equiv_pos_as_xyz
  x,y,z
_cell_length_a	17.639762
_cell_length_b	18.050582
_cell_length_c	17.640280
_cell_angle_alpha	78.781636
_cell_angle_beta	92.188400
_cell_angle_gamma	101.179815
loop_
_atom_site_label
_atom_site_type_symbol
_atom_site_fract_x
_atom_site_fract_y
_atom_site_fract_z
Zn1	Zn	1.221979	-0.175402	-0.067303
Zn2	Zn	1.247593	-0.022266	-0.194280
Zn3	Zn	1.095014	-0.070425	-0.093021
Zn4	Zn	1.120657	-0.165618	-0.219947
O5	O	1.171311	-0.108428	-0.143637
O6	O	1.331636	-0.139027	-0.062642
O7	O	1.227341	0.075272	-0.180869
O8	O	1.090405	-0.108600	0.016650
O9	O	1.350454	-0.026519	-0.155931
O10	O	1.183686	-0.185726	0.035545
O11	O	1.115242	0.039890	-0.106474
O12	O	0.992157	-0.099113	-0.131363
O13	O	1.134110	-0.270842	-0.199677
O14	O	1.010997	-0.169051	-0.224614
O15	O	1.208551	-0.278030	-0.087530
O16	O	1.252206	-0.017032	-0.303943
O17	O	1.158947	-0.122352	-0.322801
C18	C	0.974026	-0.138246	-0.183565
C19	C	0.889630	-0.151017	-0.200664
C20	C	0.780521	-0.205332	-0.273383
C21	C	0.859823	-0.193328	-0.257310
C22	C	0.840140	-0.120696	-0.160067
C23	C	0.760835	-0.132697	-0.176129
C24	C	0.731032	-0.175015	-0.232788
C25	C	0.711346	-0.102380	-0.135535
C26	C	0.632048	-0.114377	-0.151599
C27	C	0.602239	-0.156691	-0.208257
C28	C	0.651734	-0.187011	-0.248852
C29	C	0.741151	-0.060058	-0.078880
C30	C	0.691662	-0.029741	-0.038286
C31	C	0.612362	-0.041742	-0.054346
C32	C	0.582553	-0.084056	-0.111004
C33	C	0.562867	-0.011422	-0.013750
C34	C	0.483569	-0.023418	-0.029814
C35	C	0.503255	-0.096053	-0.127068
C36	C	1.171334	-0.302136	-0.143598
C37	C	1.171344	-0.384684	-0.143581
C38	C	1.130888	-0.580235	-0.204489
C39	C	1.203921	-0.614916	-0.209023
C40	C	1.171369	-0.535822	-0.143515
C41	C	1.098370	-0.648222	-0.138953
C42	C	1.171389	-0.681815	-0.143455
C43	C	1.244447	-0.569401	-0.148078
C44	C	1.138842	-0.602717	-0.077985
C45	C	1.211918	-0.637374	-0.082483
C46	C	1.171358	-0.451718	-0.143552
C47	C	1.171408	-0.765915	-0.143416
C48	C	1.369367	-0.078493	-0.103554
C49	C	1.453766	-0.065736	-0.086474
C50	C	1.211159	-0.063418	-0.340920
C51	C	1.228276	-0.044177	-0.425304
C52	C	1.171321	0.084522	-0.143613
C53	C	1.171415	0.167042	-0.143387
C54	C	1.041589	-0.254823	-0.752102
C55	C	1.057674	-0.236719	-0.831394
C56	C	1.154845	-0.127136	-0.811680
C57	C	1.138771	-0.145233	-0.732385
C58	C	1.082141	-0.209077	-0.702603
C59	C	1.179323	-0.099487	-0.682885
C60	C	1.163247	-0.117580	-0.603597
C61	C	1.106618	-0.181420	-0.573809
C62	C	1.066065	-0.227170	-0.623315
C63	C	1.235948	-0.035640	-0.712669
C64	C	1.276501	0.010106	-0.663169
C65	C	1.260428	-0.007990	-0.583879
C66	C	1.203800	-0.071830	-0.554091
C67	C	1.300982	0.037760	-0.534374
C68	C	1.284906	0.019667	-0.455086
C69	C	1.187724	-0.089923	-0.474804
C70	C	1.131328	-0.153626	0.054419
C71	C	1.114289	-0.172887	0.138820
H72	H	0.627466	-0.221480	-0.294983
O73	O	1.090001	-0.550428	-0.265969
C74	C	1.027385	-0.524365	-0.239396
H75	H	1.012489	-0.555730	-0.177668
H76	H	0.975146	-0.536438	-0.278299
H77	H	1.043885	-0.459853	-0.240732
O78	O	1.318171	-0.528841	-0.152840
C79	C	1.352421	-0.535052	-0.221689
H80	H	1.321267	-0.589270	-0.241923
H81	H	1.415885	-0.538386	-0.210670
H82	H	1.347808	-0.482525	-0.268145
H83	H	1.246210	-0.662196	-0.030883
H84	H	0.443273	0.001264	0.003246
H85	H	0.537670	-0.166457	-0.221336
O86	O	0.907961	-0.222829	-0.296621
C87	C	0.945112	-0.273787	-0.244169
H88	H	0.945345	-0.259033	-0.184183
H89	H	1.007131	-0.268189	-0.263814
H90	H	0.912902	-0.335342	-0.242096
H91	H	1.111302	-0.596728	-0.022617
H92	H	0.805721	-0.050290	-0.065804
O93	O	0.751502	-0.246554	-0.328314
C94	C	0.696911	-0.311357	-0.294434
H95	H	0.708735	-0.326065	-0.229798
H96	H	0.701584	-0.362320	-0.322153
H97	H	0.636272	-0.298090	-0.303955
H98	H	1.347084	0.089746	-0.558636
O99	O	1.236641	-0.622021	-0.275171
C100	C	1.193789	-0.592814	-0.339347
H101	H	1.132400	-0.594198	-0.320345
H102	H	1.191998	-0.629624	-0.385316
H103	H	1.222315	-0.531003	-0.364274
O104	O	0.474226	-0.137069	-0.182157
C105	C	0.438257	-0.090473	-0.240448
H106	H	0.420930	-0.042161	-0.216005
H107	H	0.384570	-0.126813	-0.261958
H108	H	0.480183	-0.064768	-0.290516
H109	H	0.864418	-0.086238	-0.113937
H110	H	0.715939	0.004716	0.007844
H111	H	1.036627	-0.682352	-0.135118
H112	H	1.317927	0.056919	-0.414782
H113	H	0.587146	0.023040	0.032376
H114	H	1.141616	-0.141916	-0.450554
H115	H	1.093525	-0.196145	-0.509249
H116	H	1.019957	-0.279163	-0.599065
H117	H	0.995481	-0.306816	-0.727852
O118	O	1.018234	-0.281265	-0.879366
C119	C	0.964793	-0.341481	-0.836076
H120	H	0.984427	-0.352279	-0.773235
H121	H	0.961296	-0.395995	-0.860615
H122	H	0.905444	-0.324864	-0.839372
O123	O	1.209843	-0.065160	-0.840738
C124	C	1.215317	-0.058981	-0.921338
H125	H	1.192615	-0.117568	-0.937211
H126	H	1.278294	-0.038512	-0.939921
H127	H	1.179470	-0.015868	-0.952058
H128	H	1.249038	-0.020912	-0.777231
O129	O	1.331498	0.072082	-0.692227
C130	C	1.336972	0.078261	-0.772828
H131	H	1.314270	0.019674	-0.788701
H132	H	1.399950	0.098730	-0.791411
H133	H	1.301125	0.121375	-0.803547
