data_functionalizedCrystal
_audit_creation_method	'MofGen! by Chris Wilmer'
_symmetry_space_group_name_H-M	'P1'
_symmetry_Int_Tables_number	1
_symmetry_cell_setting	triclinic
loop_
_symmetry_equiv_pos_as_xyz
  x,y,z
_cell_length_a	11.792241
_cell_length_b	10.967819
_cell_length_c	10.065918
_cell_angle_alpha	111.758108
_cell_angle_beta	80.243066
_cell_angle_gamma	95.541128
loop_
_atom_site_label
_atom_site_type_symbol
_atom_site_fract_x
_atom_site_fract_y
_atom_site_fract_z
O1	O	-0.227793	1.732422	0.520931
O2	O	0.105541	2.065755	0.854265
O3	O	0.438874	2.399088	1.187598
O4	O	-0.231383	1.356383	0.432491
O5	O	0.101950	1.689717	0.765824
O6	O	0.435284	2.023050	1.099157
O7	O	-0.064720	1.553529	0.478866
O8	O	0.268613	1.886863	0.812199
O9	O	0.601946	2.220196	1.145532
O10	O	-0.394455	1.535276	0.474556
O11	O	-0.061122	1.868609	0.807890
O12	O	0.272211	2.201943	1.141223
O13	O	-0.033781	1.519396	0.243851
O14	O	0.299552	1.852730	0.577184
O15	O	0.632886	2.186063	0.910518
O16	O	-0.200444	1.322250	0.197476
O17	O	0.132890	1.655584	0.530809
O18	O	0.466223	1.988917	0.864143
O19	O	-0.196853	1.698289	0.285917
O20	O	0.136480	2.031622	0.619250
O21	O	0.469813	2.364956	0.952583
Zn22	Zn	-0.193736	1.504850	0.204383
Zn23	Zn	0.139597	1.838184	0.537716
Zn24	Zn	0.472930	2.171517	0.871049
Zn25	Zn	-0.234500	1.549822	0.514024
Zn26	Zn	0.098833	1.883155	0.847358
Zn27	Zn	0.432167	2.216489	1.180691
O28	O	-0.363516	1.501143	0.239542
O29	O	-0.030183	1.834476	0.572875
O30	O	0.303151	2.167810	0.906208
C31	C	-0.213313	1.291176	0.303661
C32	C	0.120020	1.624509	0.636995
C33	C	0.453353	1.957842	0.970328
C34	C	-0.205552	1.147730	0.269925
C35	C	0.127781	1.481063	0.603258
C36	C	0.461114	1.814397	0.936592
C37	C	-0.210114	0.953211	0.341788
C38	C	0.123219	1.286544	0.675121
C39	C	0.456553	1.619877	1.008454
C40	C	-0.218126	1.101469	0.376647
C41	C	0.115207	1.434802	0.709981
C42	C	0.448541	1.768136	1.043314
C43	C	-0.421314	1.519356	0.357316
C44	C	-0.087981	1.852689	0.690650
C45	C	0.245352	2.186022	1.023983
C46	C	-0.547441	1.522786	0.358117
C47	C	-0.214107	1.856119	0.691451
C48	C	0.119226	2.189453	1.024784
C49	C	-0.778366	1.529101	0.359637
C50	C	-0.445033	1.862434	0.692970
C51	C	-0.111700	2.195768	1.026304
C52	C	-0.649863	1.525592	0.358793
C53	C	-0.316529	1.858926	0.692126
C54	C	0.016804	2.192259	1.025460
C55	C	-0.006923	1.535317	0.361094
C56	C	0.326411	1.868650	0.694427
C57	C	0.659744	2.201984	1.027761
C58	C	0.119203	1.531888	0.360302
C59	C	0.452536	1.865221	0.693636
C60	C	0.785869	2.198555	1.026969
C61	C	-0.214923	1.763497	0.414749
C62	C	0.118410	2.096830	0.748083
C63	C	0.451743	2.430164	1.081416
C64	C	-0.222686	1.906944	0.448495
C65	C	0.110648	2.240277	0.781828
C66	C	0.443981	2.573611	1.115161
N67	N	-0.165915	1.474168	-0.006937
N68	N	0.167418	1.807501	0.326396
N69	N	0.500751	2.140835	0.659729
C70	C	-0.224821	1.539138	-0.059440
C71	C	0.108513	1.872471	0.273894
C72	C	0.441846	2.205805	0.607227
C73	C	-0.203399	1.515535	-0.222157
C74	C	0.129935	1.848868	0.111177
C75	C	0.463268	2.182202	0.444510
N76	N	-0.262312	1.580514	0.725347
N77	N	0.071021	1.913848	1.058680
N78	N	0.404354	2.247181	1.392014
H79	H	-0.234828	1.171614	0.493819
H80	H	0.098505	1.504947	0.827152
H81	H	0.431838	1.838280	1.160485
H82	H	-0.193426	0.883060	0.224624
H83	H	0.139908	1.216394	0.557957
H84	H	0.473241	1.549727	0.891291
F85	F	-0.183737	1.056051	0.116771
F86	F	0.149596	1.389384	0.450104
F87	F	0.482929	1.722717	0.783437
H88	H	-0.239387	0.977092	0.565658
H89	H	0.093947	1.310426	0.898991
H90	H	0.427280	1.643759	1.232325
H91	H	-0.328604	1.653620	-0.199143
H92	H	0.004729	1.986953	0.134190
H93	H	0.338062	2.320286	0.467524
H94	H	-0.099623	1.401074	-0.082452
H95	H	0.233711	1.734408	0.250882
H96	H	0.567044	2.067741	0.584215
H97	H	-0.291106	1.612240	0.016077
H98	H	0.042227	1.945574	0.349410
H99	H	0.375561	2.278907	0.682744
H100	H	-0.137101	1.442437	-0.297667
H101	H	0.196232	1.775770	0.035667
H102	H	0.529565	2.109103	0.369000
