data_functionalizedCrystal
_audit_creation_method	'MofGen! by Chris Wilmer'
_symmetry_space_group_name_H-M	'P1'
_symmetry_Int_Tables_number	1
_symmetry_cell_setting	triclinic
loop_
_symmetry_equiv_pos_as_xyz
  x,y,z
_cell_length_a	27.440280
_cell_length_b	20.875641
_cell_length_c	20.875641
_cell_angle_alpha	60.089808
_cell_angle_beta	89.996742
_cell_angle_gamma	62.433818
loop_
_atom_site_label
_atom_site_type_symbol
_atom_site_fract_x
_atom_site_fract_y
_atom_site_fract_z
Zr1	Zr	0.491805	0.694282	-0.105791
O2	O	0.420384	0.820532	-0.209052
O3	O	0.511027	0.563025	-0.070860
O4	O	0.518204	0.687047	-0.204333
O5	O	0.410585	0.703963	0.025980
O6	O	0.598406	0.687037	-0.204336
O7	O	0.413207	0.696510	-0.075580
O8	O	0.585567	0.465183	0.034422
O9	O	0.423424	0.925817	-0.212778
O10	O	0.582307	0.618860	-0.059923
O11	O	0.520497	0.624430	0.015872
O12	O	0.528947	0.770451	-0.141274
O13	O	0.467137	0.776021	-0.065479
Zr14	Zr	0.615536	0.706154	0.056179
Zr15	Zr	0.619717	0.694266	-0.105796
Zr16	Zr	0.487623	0.706170	0.056184
Zr17	Zr	0.496653	0.862199	-0.111734
Zr18	Zr	0.610688	0.538237	0.062122
O19	O	0.596314	0.837411	0.021248
O20	O	0.602259	0.820508	-0.209060
O21	O	0.414439	0.837435	0.021256
O22	O	0.686957	0.579904	0.159440
O23	O	0.692902	0.563001	-0.070868
O24	O	0.505081	0.579928	0.159448
O25	O	0.696756	0.696472	-0.075591
O26	O	0.589137	0.713389	0.154721
O27	O	0.508935	0.713399	0.154724
O28	O	0.694134	0.703926	0.025968
O29	O	0.525097	0.925803	-0.212782
O30	O	0.582244	0.474633	0.163171
O31	O	0.683917	0.474619	0.163166
O32	O	0.687241	0.465170	0.034418
O33	O	0.420100	0.935266	-0.084030
O34	O	0.521774	0.935253	-0.084034
O35	O	0.578394	0.629985	0.091662
O36	O	0.640204	0.624415	0.015867
O37	O	0.586844	0.776006	-0.065484
O38	O	0.525034	0.781576	0.010311
C39	C	0.547606	0.490179	-0.017373
C40	C	0.545548	0.418894	-0.014850
C41	C	0.393671	0.700239	-0.024799
C42	C	0.339369	0.700246	-0.024797
C43	C	0.576844	0.382497	-0.053229
C44	C	0.574911	0.315512	-0.050851
C45	C	0.541679	0.284931	-0.010098
C46	C	0.510383	0.321332	0.028286
C47	C	0.512319	0.388311	0.025912
C48	C	0.532432	0.084921	0.001248
C49	C	0.530497	0.017939	0.003617
C50	C	0.595027	0.012123	-0.075519
C51	C	0.596957	0.079107	-0.077893
C52	C	0.565663	0.115499	-0.039506
N53	N	0.539702	0.216465	-0.007669
N54	N	0.567644	0.183960	-0.041931
C55	C	0.004115	0.696091	-0.080756
C56	C	-0.046903	0.696085	-0.080756
O57	O	-0.072051	0.692560	-0.128323
N58	N	-0.073866	0.700193	-0.024808
C59	C	-0.049804	0.704299	0.031150
O60	O	-0.077422	0.707791	0.078739
C61	C	0.001215	0.704299	0.031153
C62	C	0.028172	0.700200	-0.024804
C63	C	0.031071	0.691991	-0.136708
C64	C	0.082085	0.692000	-0.136709
C65	C	0.106143	0.696108	-0.080757
C66	C	0.079186	0.700208	-0.024805
C67	C	0.025278	0.708398	0.087113
C68	C	0.076302	0.708398	0.087111
C69	C	0.103258	0.704298	0.031154
C70	C	0.154257	0.704324	0.031146
N71	N	0.181219	0.700216	-0.024803
C72	C	0.157162	0.696108	-0.080754
C73	C	-0.156947	0.704296	0.031140
C74	C	-0.207968	0.704303	0.031135
C75	C	-0.205063	0.696087	-0.080771
C76	C	-0.154044	0.696087	-0.080768
C77	C	-0.129985	0.700189	-0.024808
C78	C	0.264295	0.696126	-0.080751
C79	C	0.315312	0.696138	-0.080749
C80	C	0.312404	0.704349	0.031159
C81	C	0.261390	0.704341	0.031154
C82	C	0.237338	0.700227	-0.024804
O83	O	0.179439	0.707843	0.078690
O84	O	0.184790	0.692604	-0.128329
C85	C	0.713670	0.700197	-0.024813
C86	C	0.767972	0.700190	-0.024815
C87	C	0.558901	0.685348	-0.227412
C88	C	0.560676	0.680301	-0.296175
C89	C	0.559735	0.910257	-0.032239
C90	C	0.561793	0.981542	-0.034762
C91	C	0.533657	0.757057	-0.370945
C92	C	0.535333	0.752310	-0.435552
C93	C	0.564024	0.670806	-0.425388
C94	C	0.591046	0.594045	-0.350610
C95	C	0.589373	0.598793	-0.286005
C96	C	0.572015	0.648121	-0.614054
C97	C	0.573684	0.643379	-0.678667
C98	C	0.517972	0.801645	-0.763604
C99	C	0.516299	0.806386	-0.698994
C100	C	0.543323	0.729624	-0.624222
N101	N	0.565735	0.665952	-0.491426
N102	N	0.541615	0.734479	-0.558186
C103	C	0.548440	0.715088	0.177800
C104	C	0.546665	0.720135	0.246563
C105	C	0.707605	0.490158	-0.017379
C106	C	0.759850	0.418866	-0.014859
C107	C	0.542376	0.505049	0.185234
C108	C	0.538543	0.438811	0.256520
C109	C	0.702375	0.505028	0.185227
C110	C	0.752844	0.438783	0.256511
C111	C	0.404966	0.895408	-0.234839
C112	C	0.354497	0.961653	-0.306123
C113	C	0.399735	0.910278	-0.032233
C114	C	0.347491	0.981570	-0.034753
C115	C	0.564965	0.895387	-0.234846
C116	C	0.568798	0.961625	-0.306131
C117	C	0.754162	0.382486	-0.053243
C118	C	0.803247	0.315508	-0.050890
C119	C	0.858018	0.284906	-0.010148
C120	C	0.863704	0.321292	0.028238
C121	C	0.814620	0.388274	0.025880
C122	C	0.566964	0.410605	0.329564
C123	C	0.563360	0.348376	0.396551
C124	C	0.531338	0.314351	0.390491
C125	C	0.502913	0.342563	0.317438
C126	C	0.506514	0.404795	0.250453
C127	C	0.808815	0.404765	0.250422
C128	C	0.856241	0.342529	0.317394
C129	C	0.847695	0.314308	0.390454
C130	C	0.791719	0.348331	0.396541
C131	C	0.744294	0.410571	0.329569
C132	C	0.298527	0.995679	-0.300034
C133	C	0.251101	1.057935	-0.367007
C134	C	0.259646	1.086161	-0.440067
C135	C	0.315623	1.052133	-0.446154
C136	C	0.363047	0.989882	-0.379182
C137	C	0.353179	1.017956	0.003624
C138	C	0.304095	1.084952	0.001253
C139	C	0.249324	1.115556	-0.039492
C140	C	0.243638	1.079167	-0.077875
C141	C	0.292721	1.012176	-0.075507
C142	C	0.600825	0.995631	-0.300046
C143	C	0.604438	1.057861	-0.367020
C144	C	0.576020	1.086088	-0.440079
C145	C	0.543992	1.052075	-0.446162
C146	C	0.540383	0.989842	-0.379189
H147	H	0.603902	0.407395	-0.086418
H148	H	0.600395	0.285877	-0.082101
H149	H	0.492938	0.872755	-0.707279
H150	H	0.308736	1.114569	0.032512
H151	H	0.586510	0.325414	0.456027
H152	H	0.623967	0.972659	-0.240565
H153	H	0.331998	0.707697	0.076712
H154	H	0.199037	1.104095	-0.111048
H155	H	0.784770	0.325344	0.456035
H156	H	0.514301	0.962161	-0.384154
H157	H	0.397771	0.993044	0.036808
H158	H	0.698722	0.438260	0.334538
H159	H	0.408620	0.962178	-0.384148
H160	H	0.908305	0.296366	0.061409
H161	H	0.630518	1.085548	-0.362052
H162	H	0.528411	0.263678	0.445040
H163	H	0.513333	0.814813	-0.496431
H164	H	0.239437	0.707692	0.076713
H165	H	0.901815	0.314833	0.312424
H166	H	0.593040	0.438302	0.334514
H167	H	0.578964	1.136763	-0.494606
H168	H	0.611374	0.536290	-0.225124
H169	H	0.798606	0.285890	-0.082149
H170	H	0.624017	0.104005	-0.111077
H171	H	0.205527	1.085631	-0.362035
H172	H	0.506952	0.114541	0.032509
H173	H	0.483328	0.296424	0.061472
H174	H	-0.137364	0.707643	0.076708
H175	H	0.510290	0.823427	-0.379230
H176	H	0.620506	-0.017514	-0.106771
H177	H	0.495970	0.864140	-0.824488
H178	H	0.476841	0.314850	0.312515
H179	H	0.597046	0.577005	-0.670383
H180	H	0.288082	0.982552	-0.106757
H181	H	0.886317	0.263628	0.444980
H182	H	0.209362	1.170104	-0.041413
H183	H	0.594020	0.585616	-0.553180
H184	H	0.614409	0.527682	-0.342339
H185	H	0.819259	0.417886	0.057142
H186	H	0.520856	1.075067	-0.505655
H187	H	0.483371	0.427752	0.190979
H188	H	0.815784	0.427734	0.190939
H189	H	0.503433	-0.006956	0.036802
H190	H	0.897981	0.230364	-0.008233
H191	H	0.709570	0.407401	-0.086430
H192	H	0.291557	0.972701	-0.240551
H193	H	0.322574	1.075122	-0.505647
H194	H	0.337258	0.692802	-0.126319
H195	H	0.486833	0.417947	0.057162
H196	H	0.104032	0.688658	-0.182272
H197	H	0.244718	0.692774	-0.126317
H198	H	0.011490	0.688643	-0.182271
H199	H	-0.132099	0.692749	-0.126333
H200	H	-0.224659	0.692740	-0.126329
H201	H	0.221025	1.136850	-0.494593
H202	H	0.003338	0.711736	0.132679
H203	H	0.095889	0.711735	0.132683
H204	H	-0.229917	0.707654	0.076693
