data_functionalizedCrystal
_audit_creation_method	'MofGen! by Chris Wilmer'
_symmetry_space_group_name_H-M	'P1'
_symmetry_Int_Tables_number	1
_symmetry_cell_setting	triclinic
loop_
_symmetry_equiv_pos_as_xyz
  x,y,z
_cell_length_a	27.780882
_cell_length_b	27.780884
_cell_length_c	27.780936
_cell_angle_alpha	90.002261
_cell_angle_beta	59.997799
_cell_angle_gamma	119.999789
loop_
_atom_site_label
_atom_site_type_symbol
_atom_site_fract_x
_atom_site_fract_y
_atom_site_fract_z
O1	O	0.424592	-0.330213	-0.014321
O2	O	0.326022	-0.260214	0.014251
O3	O	0.424588	-0.260214	-0.084318
O4	O	0.326026	-0.330213	0.084247
O5	O	0.344528	-0.340274	-0.084318
O6	O	0.245962	-0.340274	0.014251
O7	O	0.344532	-0.410273	-0.014321
Zn8	Zn	0.282536	-0.387985	-0.000035
Zn9	Zn	0.388018	-0.282503	-0.000035
O10	O	0.245966	-0.410273	0.084248
C11	C	0.177734	-0.120430	0.029862
C12	C	0.211527	-0.056934	0.025772
C13	C	0.119397	-0.149664	0.030267
C14	C	0.177730	-0.207598	0.029867
C15	C	0.211519	-0.237303	0.025783
C16	C	0.119393	-0.236700	0.030273
C17	C	0.090568	-0.207596	0.029862
C18	C	0.031162	-0.237298	0.025772
C19	C	0.206427	-0.149666	0.030273
C20	C	-0.016831	-0.261295	0.022466
C21	C	0.238829	-0.005636	0.022467
C22	C	0.238818	-0.261301	0.022482
C23	C	-0.077040	-0.291400	0.018321
C24	C	0.273079	0.058719	0.018322
C25	C	0.273065	-0.291409	0.018343
O26	O	-0.234707	-0.410266	-0.014339
O27	O	-0.094711	-0.340265	0.014229
O28	O	-0.094704	-0.340270	-0.084338
O29	O	-0.234714	-0.410261	0.084228
O30	O	-0.094701	-0.260209	-0.084343
O31	O	-0.094708	-0.260204	0.014225
O32	O	-0.234704	-0.330205	-0.014344
Zn33	Zn	-0.164706	-0.282493	-0.000061
Zn34	Zn	-0.164709	-0.387977	-0.000054
O35	O	-0.234711	-0.330200	0.084223
C36	C	0.492828	-0.207603	-0.372394
C37	C	0.459037	-0.237307	-0.402098
C38	C	0.551166	-0.149673	-0.401496
C39	C	0.492828	-0.207604	-0.285228
C40	C	0.459036	-0.237307	-0.221733
C41	C	0.551166	-0.149673	-0.314463
C42	C	0.579994	-0.120438	-0.372393
C43	C	0.639400	-0.056943	-0.402096
C44	C	0.464132	-0.236706	-0.314464
C45	C	0.687394	-0.005646	-0.426092
C46	C	0.431736	-0.261304	-0.426095
C47	C	0.431736	-0.261304	-0.170435
C48	C	0.747605	0.058709	-0.456197
C49	C	0.397486	-0.291409	-0.456201
C50	C	0.397486	-0.291410	-0.106080
C51	C	0.580008	-0.462879	-0.029964
C52	C	0.639417	-0.433174	-0.025878
C53	C	0.551182	-0.520809	-0.030373
C54	C	0.492839	-0.462880	-0.029960
C55	C	0.459045	-0.433178	-0.025869
C56	C	0.464144	-0.520811	-0.030368
C57	C	0.492842	-0.550045	-0.029964
C58	C	0.459052	-0.613540	-0.025878
C59	C	0.551178	-0.433777	-0.030369
C60	C	0.431752	-0.664837	-0.022575
C61	C	0.687412	-0.409177	-0.022576
C62	C	0.431742	-0.409182	-0.022562
C63	C	0.397504	-0.729192	-0.018433
C64	C	0.747625	-0.379070	-0.018434
C65	C	0.397490	-0.379077	-0.018415
O66	O	0.344549	0.249047	-0.014343
O67	O	0.245980	0.080483	0.014226
O68	O	0.344550	0.179042	-0.084342
O69	O	0.245978	0.150488	0.084224
O70	O	0.424607	0.179040	-0.084336
O71	O	0.326036	0.080480	0.014231
O72	O	0.424605	0.249045	-0.014338
Zn73	Zn	0.388031	0.164762	-0.000053
Zn74	Zn	0.282554	0.164766	-0.000059
O75	O	0.326034	0.150486	0.084230
O76	O	0.905273	0.249033	-0.494995
O77	O	0.765273	0.080470	-0.425001
O78	O	0.765270	0.179032	-0.424994
O79	O	0.905276	0.150471	-0.495003
O80	O	0.765272	0.179034	-0.505055
O81	O	0.765275	0.080472	-0.505062
O82	O	0.905275	0.249035	-0.575056
Zn83	Zn	0.835275	0.164754	-0.552770
Zn84	Zn	0.835273	0.164751	-0.447287
O85	O	0.905278	0.150473	-0.575063
O86	O	0.326020	-0.330218	-0.575063
O87	O	0.424588	-0.260215	-0.505065
O88	O	0.326020	-0.260217	-0.505059
O89	O	0.424589	-0.330216	-0.575069
O90	O	0.245961	-0.340275	-0.425000
O91	O	0.344530	-0.340273	-0.425006
O92	O	0.245962	-0.410276	-0.495003
Zn93	Zn	0.282535	-0.387986	-0.447293
Zn94	Zn	0.388015	-0.282505	-0.552775
O95	O	0.344531	-0.410274	-0.495009
C96	C	0.090559	-0.550051	0.372323
C97	C	0.031152	-0.613546	0.402025
C98	C	0.119386	-0.520817	0.401426
C99	C	0.177725	-0.462885	0.285158
C100	C	0.211517	-0.433181	0.221663
C101	C	0.206420	-0.433783	0.314394
C102	C	0.177724	-0.462886	0.372324
C103	C	0.211515	-0.433183	0.402029
C104	C	0.119387	-0.520816	0.314392
C105	C	0.238815	-0.409187	0.426026
C106	C	-0.016842	-0.664843	0.426021
C107	C	0.238818	-0.409184	0.170365
C108	C	0.273064	-0.379082	0.456133
C109	C	-0.077053	-0.729198	0.456125
C110	C	0.273068	-0.379078	0.106010
C111	C	0.177761	-0.120445	-0.372420
C112	C	0.211554	-0.056951	-0.402125
C113	C	0.206457	-0.149682	-0.401521
C114	C	0.090590	-0.207608	-0.285252
C115	C	0.031179	-0.237308	-0.221756
C116	C	0.119418	-0.236712	-0.314485
C117	C	0.177759	-0.207612	-0.372416
C118	C	0.211551	-0.237318	-0.402117
C119	C	0.119420	-0.149677	-0.314489
C120	C	0.238852	-0.261316	-0.426113
C121	C	0.238857	-0.005654	-0.426124
C122	C	-0.016817	-0.261303	-0.170458
C123	C	0.273102	-0.291424	-0.456216
C124	C	0.273109	0.058701	-0.456232
C125	C	-0.077032	-0.291406	-0.106103
C126	C	-0.507174	-0.462860	0.372301
C127	C	-0.540966	-0.433155	0.402003
C128	C	-0.535872	-0.520790	0.401406
C129	C	-0.420004	-0.462864	0.285137
C130	C	-0.360594	-0.433163	0.221642
C131	C	-0.448834	-0.520794	0.314373
C132	C	-0.507175	-0.550027	0.372304
C133	C	-0.540968	-0.613521	0.402010
C134	C	-0.448833	-0.433760	0.314371
C135	C	-0.568270	-0.664818	0.426008
C136	C	-0.568268	-0.409157	0.425999
C137	C	-0.312597	-0.409168	0.170343
C138	C	-0.602522	-0.729173	0.456115
C139	C	-0.602518	-0.379050	0.456103
C140	C	-0.252383	-0.379064	0.105988
C141	C	0.580005	0.194619	-0.372405
C142	C	0.639409	0.190525	-0.402104
C143	C	0.551178	0.195023	-0.401510
C144	C	0.492843	0.194635	-0.285245
C145	C	0.459054	0.190558	-0.221751
C146	C	0.464149	0.195039	-0.314482
C147	C	0.492843	0.194621	-0.372410
C148	C	0.459052	0.190530	-0.402115
C149	C	0.551179	0.195036	-0.314476
C150	C	0.431752	0.187222	-0.426113
C151	C	0.687401	0.187216	-0.426097
C152	C	0.431754	0.187263	-0.170455
C153	C	0.397503	0.183075	-0.456220
C154	C	0.747609	0.183066	-0.456199
C155	C	0.397506	0.183130	-0.106101
O156	O	0.424649	0.249027	-0.575092
O157	O	0.326070	0.080461	-0.505095
O158	O	0.424629	0.179018	-0.505082
O159	O	0.326090	0.150471	-0.575105
O160	O	0.344563	0.179021	-0.425026
O161	O	0.246004	0.080464	-0.425039
O162	O	0.344583	0.249030	-0.495036
Zn163	Zn	0.282581	0.164748	-0.447327
Zn164	Zn	0.388072	0.164744	-0.552804
O165	O	0.246024	0.150474	-0.495049
C166	C	0.177742	0.134906	0.372298
C167	C	0.211532	0.138997	0.402003
C168	C	0.119406	0.134505	0.401398
C169	C	0.177741	0.134893	0.285133
C170	C	0.211531	0.138970	0.221639
C171	C	0.119406	0.134492	0.314364
C172	C	0.090580	0.134909	0.372293
C173	C	0.031176	0.139004	0.401992
C174	C	0.206435	0.134489	0.314370
C175	C	-0.016815	0.142313	0.425985
C176	C	0.238832	0.142304	0.426002
C177	C	0.238831	0.142265	0.170343
C178	C	-0.077023	0.146464	0.456086
C179	C	0.273081	0.146451	0.456109
C180	C	0.273079	0.146398	0.105989
H181	H	0.253368	-0.126194	0.030932
H182	H	0.253364	-0.386185	0.290920
C183	C	0.583446	-0.552010	-0.031242
C184	C	0.640804	-0.513993	-0.031498
C185	C	0.670542	-0.542714	-0.032299
H186	H	0.596675	-0.563034	-0.065615
H187	H	0.551480	-0.586255	0.002771
H188	H	0.672764	-0.479759	-0.065507
H189	H	0.627593	-0.502966	0.002873
H190	H	0.638576	-0.576959	0.001714
H191	H	0.683767	-0.553737	-0.066673
H192	H	0.709458	-0.516926	-0.032468
H193	H	0.095281	-0.284313	-0.291012
H194	H	0.095249	-0.544287	0.449028
H195	H	0.575310	0.195676	-0.449109
C196	C	0.401477	0.195798	-0.283178
C197	C	0.348149	0.145618	-0.280285
C198	C	0.290406	0.146294	-0.251447
H199	H	0.411559	0.230133	-0.304347
H200	H	0.388392	0.195950	-0.244400
H201	H	0.361232	0.145472	-0.319057
H202	H	0.338046	0.111276	-0.259112
H203	H	0.277320	0.146446	-0.212669
H204	H	0.300494	0.180630	-0.272620
H205	H	0.254214	0.112245	-0.249476
H206	H	0.253386	0.133843	0.290899
H207	H	0.417177	-0.284299	-0.290989
C208	C	0.401580	-0.551996	-0.031284
C209	C	0.382509	-0.513972	-0.031561
C210	C	0.324891	-0.542673	-0.032420
H211	H	0.365259	-0.586246	0.002706
H212	H	0.411759	-0.562999	-0.065679
H213	H	0.372327	-0.502976	0.002829
H214	H	0.418814	-0.479721	-0.065550
H215	H	0.335070	-0.553677	-0.066814
H216	H	0.288575	-0.576923	0.001572
H217	H	0.311948	-0.516877	-0.032613
C218	C	0.583450	0.196035	-0.283241
C219	C	0.650351	0.246742	-0.314602
C220	C	0.680091	0.247684	-0.285839
H221	H	0.583749	0.162063	-0.281207
H222	H	0.557946	0.196260	-0.244490
H223	H	0.675848	0.246511	-0.353342
H224	H	0.650071	0.280722	-0.316637
H225	H	0.654587	0.247910	-0.247088
H226	H	0.680386	0.213710	-0.283807
H227	H	0.725484	0.282091	-0.307110
C228	C	0.583459	-0.370304	-0.031262
C229	C	0.640827	-0.350958	-0.031534
C230	C	0.670581	-0.292491	-0.032361
H231	H	0.551525	-0.367992	0.002737
H232	H	0.596673	-0.346076	-0.065648
H233	H	0.627612	-0.375179	0.002848
H234	H	0.672776	-0.353255	-0.065531
H235	H	0.683795	-0.268263	-0.066747
H236	H	0.638642	-0.290185	0.001639
H237	H	0.709512	-0.279355	-0.032551
H238	H	0.095257	-0.544288	0.290923
H239	H	0.095283	0.133836	0.290888
H240	H	-0.424738	-0.386177	0.290884
H241	H	0.253408	-0.126207	-0.449117
C242	C	-0.416786	-0.552205	0.283172
C243	C	-0.454554	-0.609304	0.321198
C244	C	-0.425060	-0.638260	0.292476
H245	H	-0.371384	-0.531071	0.272132
H246	H	-0.416573	-0.554259	0.248936
H247	H	-0.454759	-0.607247	0.355423
H248	H	-0.499956	-0.630454	0.332241
H249	H	-0.424848	-0.640314	0.258240
H250	H	-0.379658	-0.617120	0.281437
H251	H	-0.450685	-0.677005	0.318270
C252	C	0.087330	-0.118290	-0.283300
C253	C	0.125083	-0.061194	-0.321324
C254	C	0.095540	-0.032268	-0.292616
H255	H	0.087078	-0.116223	-0.249053
H256	H	0.041930	-0.139462	-0.272289
H257	H	0.170471	-0.040027	-0.332327
H258	H	0.125338	-0.063244	-0.355572
H259	H	0.050140	-0.053440	-0.281605
H260	H	0.095289	-0.030205	-0.258369
H261	H	0.121147	0.006473	-0.318412
H262	H	0.095280	0.133853	0.448996
C263	C	-0.598519	-0.552013	0.464848
C264	C	-0.617627	-0.514006	0.484177
C265	C	-0.675352	-0.542757	0.542604
H266	H	-0.588465	-0.563068	0.489145
H267	H	-0.634777	-0.586241	0.467070
H268	H	-0.581377	-0.479788	0.481960
H269	H	-0.627694	-0.502949	0.459897
H270	H	-0.711609	-0.576986	0.544827
H271	H	-0.665292	-0.553811	0.566896
H272	H	-0.688327	-0.516976	0.555725
H273	H	0.575291	-0.126204	-0.449095
C274	C	0.087350	-0.300137	0.031055
C275	C	0.134645	-0.303290	-0.019116
C276	C	0.105154	-0.361716	-0.018413
H277	H	0.048416	-0.313416	0.031210
H278	H	0.074204	-0.324353	0.065408
H279	H	0.147781	-0.279082	-0.053461
H280	H	0.173581	-0.290023	-0.019282
H281	H	0.092008	-0.385932	0.015941
H282	H	0.066221	-0.374990	-0.018256
H283	H	0.137241	-0.363864	-0.052450
C284	C	0.087289	-0.118288	0.031194
C285	C	0.125032	-0.061195	0.031478
C286	C	0.095455	-0.032288	0.032362
H287	H	0.041902	-0.139459	0.065585
H288	H	0.087022	-0.116226	-0.002799
H289	H	0.125292	-0.063259	0.065468
H290	H	0.170418	-0.040009	-0.002911
H291	H	0.095188	-0.030226	-0.001631
H292	H	0.050068	-0.053463	0.066754
H293	H	0.121062	0.006454	0.032549
C294	C	0.583237	-0.118474	-0.283068
C295	C	0.545478	-0.156491	-0.225967
C296	C	0.574997	-0.127769	-0.197030
H297	H	0.583470	-0.084235	-0.281007
H298	H	0.628642	-0.107449	-0.304230
H299	H	0.500085	-0.167508	-0.204810
H300	H	0.545243	-0.190731	-0.228011
H301	H	0.620403	-0.116744	-0.218192
H302	H	0.575229	-0.093531	-0.194973
H303	H	0.549387	-0.153561	-0.158286
