data_functionalizedCrystal
_audit_creation_method	'MofGen! by Chris Wilmer'
_symmetry_space_group_name_H-M	'P1'
_symmetry_Int_Tables_number	1
_symmetry_cell_setting	triclinic
loop_
_symmetry_equiv_pos_as_xyz
  x,y,z
_cell_length_a	12.827893
_cell_length_b	19.120786
_cell_length_c	12.827885
_cell_angle_alpha	87.523932
_cell_angle_beta	89.980728
_cell_angle_gamma	92.465365
loop_
_atom_site_label
_atom_site_type_symbol
_atom_site_fract_x
_atom_site_fract_y
_atom_site_fract_z
Zn1	Zn	1.579850	-0.279595	-0.573054
Zn2	Zn	1.572257	-0.397069	-0.390838
Zn3	Zn	1.405089	-0.279629	-0.398326
Zn4	Zn	1.397592	-0.397017	-0.565541
O5	O	1.488697	-0.338327	-0.481940
O6	O	1.725078	-0.295185	-0.548894
O7	O	1.550041	-0.381527	-0.245593
O8	O	1.434586	-0.181334	-0.427782
O9	O	1.719499	-0.381493	-0.415020
O10	O	1.562982	-0.181308	-0.556154
O11	O	1.427224	-0.295244	-0.251094
O12	O	1.257859	-0.295194	-0.420497
O13	O	1.421810	-0.381405	-0.712776
O14	O	1.252351	-0.381438	-0.543349
O15	O	1.555713	-0.295135	-0.718296
O16	O	1.542772	-0.495353	-0.407735
O17	O	1.414447	-0.495315	-0.536089
C18	C	1.217188	-0.338314	-0.481921
C19	C	1.101034	-0.338326	-0.481936
C20	C	1.052005	-0.295694	-0.548275
C21	C	0.931954	-0.295704	-0.548293
C22	C	1.477000	-0.520820	-0.470307
C23	C	1.472092	-0.598890	-0.465365
C24	C	1.536585	-0.635495	-0.529935
C25	C	1.531969	-0.708851	-0.525293
C26	C	1.462865	-0.745601	-0.456077
C27	C	1.398365	-0.708991	-0.391505
C28	C	1.402976	-0.635637	-0.396152
C29	C	1.445595	-0.967088	-0.438703
C30	C	1.440990	-1.040448	-0.434058
C31	C	1.574594	-1.040302	-0.567849
C32	C	1.579204	-0.966946	-0.572485
C33	C	1.514700	-0.930343	-0.507918
C34	C	1.458147	-0.820582	-0.451328
C35	C	1.519413	-0.855362	-0.512672
C36	C	1.761266	-0.338341	-0.481960
C37	C	1.877419	-0.338347	-0.481968
C38	C	1.488772	-0.338260	-0.754514
C39	C	1.488804	-0.338231	-0.870670
C40	C	1.500468	-0.155123	-0.493641
C41	C	1.505483	-0.077052	-0.498627
C42	C	1.555072	-0.295534	-0.925186
C43	C	1.555106	-0.295503	-1.045239
C44	C	1.488685	-0.338344	-0.210429
C45	C	1.488868	-0.338175	-0.094287
H46	H	1.054133	-0.374831	-0.425152
H47	H	0.919586	-0.374851	-0.425175
H48	H	1.575674	-0.825438	-0.569032
N49	N	1.413689	-0.386621	-0.926575
H50	H	1.426668	-0.436825	-0.904436
H51	H	1.339732	-0.375666	-0.908310
H52	H	1.432135	-0.374734	-1.047421
H53	H	1.393075	-0.937292	-0.386127
H54	H	1.592862	-0.605577	-0.586294
N55	N	1.323831	-0.748625	-0.316846
H56	H	1.330699	-0.800650	-0.323693
H57	H	1.340949	-0.735825	-0.243041
H58	H	1.584495	-0.738650	-0.577864
H59	H	1.098906	-0.259184	-0.605054
N60	N	1.383628	-0.860221	-0.376660
H61	H	1.333263	-0.890666	-0.417152
H62	H	1.424303	-0.890612	-0.326370
N63	N	0.876101	-0.247358	-0.623536
H64	H	0.798258	-0.254220	-0.612885
H65	H	0.898324	-0.197167	-0.610607
H66	H	1.350457	-0.605834	-0.343574
N67	N	1.630216	-0.247155	-0.869294
H68	H	1.619551	-0.254043	-0.791455
H69	H	1.704158	-0.258095	-0.887639
N70	N	1.653734	-0.927309	-0.647144
H71	H	1.693889	-0.961629	-0.687348
H72	H	1.613077	-0.896876	-0.697392
H73	H	1.627109	-1.070112	-0.620417
N74	N	1.630268	-0.247083	-1.107314
H75	H	1.619641	-0.253925	-1.184276
H76	H	1.617239	-0.196911	-1.091495
H77	H	1.384712	-1.070368	-0.377693
