data_functionalizedCrystal
_audit_creation_method	'MofGen! by Chris Wilmer'
_symmetry_space_group_name_H-M	'P1'
_symmetry_Int_Tables_number	1
_symmetry_cell_setting	triclinic
loop_
_symmetry_equiv_pos_as_xyz
  x,y,z
_cell_length_a	12.827893
_cell_length_b	12.827885
_cell_length_c	12.759400
_cell_angle_alpha	90.030494
_cell_angle_beta	89.985345
_cell_angle_gamma	89.980919
loop_
_atom_site_label
_atom_site_type_symbol
_atom_site_fract_x
_atom_site_fract_y
_atom_site_fract_z
Zn1	Zn	1.597675	-0.590838	0.418216
Zn2	Zn	1.597571	-0.416096	0.593932
Zn3	Zn	1.422916	-0.416112	0.418267
Zn4	Zn	1.422904	-0.590797	0.593854
O5	O	1.510266	-0.503461	0.506067
O6	O	1.743897	-0.567669	0.441537
O7	O	1.574364	-0.269862	0.570684
O8	O	1.446147	-0.439314	0.271240
O9	O	1.743821	-0.439287	0.570634
O10	O	1.574541	-0.567684	0.271202
O11	O	1.446046	-0.269874	0.441624
O12	O	1.276678	-0.439274	0.441548
O13	O	1.446125	-0.737039	0.570501
O14	O	1.276669	-0.567614	0.570550
O15	O	1.574529	-0.737069	0.441461
O16	O	1.574352	-0.439247	0.740942
O17	O	1.446025	-0.567599	0.740885
C18	C	1.238756	-0.503442	0.506047
C19	C	1.122603	-0.503459	0.506064
C20	C	0.950812	-0.567101	0.442314
C21	C	1.070862	-0.567085	0.442295
C22	C	1.510337	-0.776031	0.505966
C23	C	1.510368	-0.892185	0.505923
C24	C	1.573913	-0.943984	0.442058
C25	C	1.573946	-1.064035	0.442012
C26	C	1.782836	-0.503481	0.506088
C27	C	1.898990	-0.503489	0.506097
C28	C	1.510204	-0.503439	0.779035
C29	C	1.510273	-0.503465	0.895811
C30	C	1.510256	-0.231951	0.506092
C31	C	1.510428	-0.115798	0.505839
C32	C	1.510357	-0.503506	0.232034
C33	C	1.510396	-0.503525	0.115257
C34	C	1.577168	-0.436706	0.950668
C35	C	1.577232	-0.436738	1.060392
C36	C	1.443499	-0.570291	1.060393
C37	C	1.443440	-0.570263	0.950671
C38	C	1.654374	-0.359597	0.950669
C39	C	1.654439	-0.359629	1.060393
H40	H	1.115428	-0.621541	0.387684
H41	H	1.735283	-0.381333	0.920812
O42	O	1.445343	-0.945253	0.571005
C43	C	1.267613	-0.978791	0.621996
C44	C	1.341134	-0.918648	0.548207
H45	H	1.183346	-0.957287	0.603605
H46	H	1.279109	-1.066160	0.610338
H47	H	1.285968	-0.957395	0.706735
H48	H	1.322825	-0.939957	0.463440
H49	H	1.329625	-0.831294	0.559956
O50	O	1.638937	-0.890989	0.376916
C51	C	1.816677	-0.857363	0.326018
C52	C	1.743152	-0.917459	0.399843
H53	H	1.900951	-0.878726	0.344543
H54	H	1.798467	-0.878797	0.241256
H55	H	1.805040	-0.770011	0.337650
H56	H	1.754748	-1.004825	0.388305
H57	H	1.761380	-0.895939	0.484578
H58	H	1.389086	-0.624677	1.105072
H59	H	0.906302	-0.621577	0.387725
H60	H	0.943499	-0.449023	0.560696
H61	H	1.625405	-0.282683	0.916720
O62	O	1.638751	-1.117331	0.376809
C63	C	1.697944	-1.285580	0.317385
C64	C	1.624482	-1.225351	0.391267
H65	H	1.686449	-1.372925	0.329065
H66	H	1.679628	-1.264271	0.232634
H67	H	1.782205	-1.264122	0.335813
H68	H	1.540196	-1.246777	0.372934
H69	H	1.642887	-1.246665	0.475996
O70	O	1.445667	-1.062553	0.571128
C71	C	1.431653	-0.939218	0.712949
C72	C	1.505109	-0.999446	0.639060
H73	H	1.479683	-0.888199	0.767906
H74	H	1.377078	-0.888047	0.664740
H75	H	1.383809	-0.996886	0.760952
H76	H	1.553020	-0.941854	0.591042
H77	H	1.559614	-1.050632	0.687329
H78	H	1.388980	-0.624633	0.906007
H79	H	1.731330	-0.388686	1.094338
O80	O	1.628580	-0.263019	1.095850
C81	C	1.581535	-0.086926	1.050216
C82	C	1.610784	-0.196287	1.009919
H83	H	1.567160	-0.032937	0.980762
H84	H	1.507823	-0.092097	1.099871
H85	H	1.648047	-0.054766	1.099860
H86	H	1.544339	-0.228511	0.960232
H87	H	1.684528	-0.191050	0.960321
H88	H	1.078044	-0.448993	0.560672
