data_functionalizedCrystal
_audit_creation_method	'MofGen! by Chris Wilmer'
_symmetry_space_group_name_H-M	'P1'
_symmetry_Int_Tables_number	1
_symmetry_cell_setting	triclinic
loop_
_symmetry_equiv_pos_as_xyz
  x,y,z
_cell_length_a	10.654550
_cell_length_b	16.992695
_cell_length_c	9.730223
_cell_angle_alpha	89.995280
_cell_angle_beta	89.999957
_cell_angle_gamma	87.576577
loop_
_atom_site_label
_atom_site_type_symbol
_atom_site_fract_x
_atom_site_fract_y
_atom_site_fract_z
O1	O	1.677361	0.110190	-0.114188
O2	O	1.312790	0.120688	-0.114214
O3	O	1.493614	0.001288	-0.114190
O4	O	1.496537	0.229590	-0.114212
O5	O	1.493601	0.001285	0.114390
O6	O	1.312777	0.120685	0.114366
O7	O	1.677349	0.110187	0.114391
Zn8	Zn	1.495061	0.115435	0.150671
Zn9	Zn	1.495078	0.115439	-0.150493
O10	O	1.496525	0.229586	0.114368
C11	C	1.265919	0.119916	0.000073
C12	C	1.126277	0.117609	0.000064
C13	C	1.489848	-0.027946	0.000099
C14	C	1.478628	-0.115051	0.000098
C15	C	1.052866	0.187910	0.000061
C16	C	0.921658	0.185738	0.000085
C17	C	0.937282	0.042959	0.000109
C18	C	1.068488	0.045132	0.000095
C19	C	1.586879	-0.164703	0.000107
C20	C	1.576330	-0.246547	0.000093
C21	C	1.457529	-0.278738	0.000080
C22	C	1.349270	-0.229080	0.000067
C23	C	1.359820	-0.147237	0.000071
C24	C	1.413802	-0.522573	0.000058
C25	C	1.403260	-0.604422	0.000059
C26	C	1.630321	-0.621884	0.000082
C27	C	1.640861	-0.540039	0.000094
C28	C	1.532602	-0.490388	0.000074
N29	N	1.446743	-0.362395	0.000071
N30	N	1.543389	-0.406733	0.000074
C31	C	1.724220	0.110959	0.000102
C32	C	1.863862	0.113265	0.000102
C33	C	1.500291	0.258821	0.000075
C34	C	1.511510	0.345926	0.000068
N35	N	1.495059	0.115432	0.356207
N36	N	1.495089	0.115437	-0.356030
C37	C	1.575159	0.062584	0.428144
C38	C	1.575171	0.062584	0.572026
C39	C	1.414980	0.168287	0.572024
C40	C	1.414962	0.168282	0.428144
H41	H	1.099913	0.246926	0.000046
O42	O	0.850216	0.253977	-0.000109
C43	C	0.773864	0.256998	-0.118500
H44	H	0.760981	0.194690	-0.157949
H45	H	0.678298	0.285688	-0.091871
H46	H	0.820568	0.293060	-0.201414
H47	H	0.890215	-0.016050	0.000142
H48	H	1.349770	0.211318	0.630609
O49	O	1.287753	-0.635563	-0.000030
C50	C	1.194461	-0.574191	-0.000019
H51	H	1.235265	-0.518407	-0.043284
H52	H	1.112028	-0.591732	-0.066402
H53	H	1.160652	-0.562808	0.109634
O54	O	1.653046	0.011357	0.642056
C55	C	1.734802	0.053826	0.725239
H56	H	1.690911	0.114925	0.746790
H57	H	1.751409	0.021196	0.826419
H58	H	1.828192	0.059699	0.669775
H59	H	1.349729	0.211317	0.369569
H60	H	1.271671	-0.106811	0.000064
O61	O	1.139754	-0.023184	-0.000149
C62	C	1.112418	-0.067156	-0.118505
H63	H	1.071769	-0.025985	-0.201253
H64	H	1.202247	-0.098106	-0.158244
H65	H	1.041135	-0.112932	-0.091726
H66	H	1.683620	-0.138501	0.000126
O67	O	1.308677	-0.474320	-0.000196
C68	C	1.307997	-0.426439	-0.118564
H69	H	1.369254	-0.456050	-0.201302
H70	H	1.207709	-0.417794	-0.158309
H71	H	1.346477	-0.366755	-0.091798
O72	O	1.652992	0.011167	0.358476
C73	C	1.723713	-0.035465	0.452830
H74	H	1.672120	-0.036645	0.555400
H75	H	1.736594	-0.098009	0.411274
H76	H	1.819609	-0.009449	0.468112
H77	H	1.664480	-0.286971	0.000104
H78	H	1.737601	-0.513836	0.000105
H79	H	1.718458	-0.662318	0.000096
O80	O	1.233796	-0.260253	0.000234
C81	C	1.167310	-0.234962	0.118626
H82	H	1.207250	-0.178025	0.158100
H83	H	1.063816	-0.224168	0.091989
H84	H	1.177099	-0.282238	0.201524
