data_functionalizedCrystal
_audit_creation_method	'MofGen! by Chris Wilmer'
_symmetry_space_group_name_H-M	'P1'
_symmetry_Int_Tables_number	1
_symmetry_cell_setting	triclinic
loop_
_symmetry_equiv_pos_as_xyz
  x,y,z
_cell_length_a	15.944551
_cell_length_b	8.559649
_cell_length_c	7.088929
_cell_angle_alpha	84.674985
_cell_angle_beta	83.774879
_cell_angle_gamma	103.361299
loop_
_atom_site_label
_atom_site_type_symbol
_atom_site_fract_x
_atom_site_fract_y
_atom_site_fract_z
O1	O	-0.018804	-2.103727	-0.158956
O2	O	0.024575	-1.638526	-0.158968
O3	O	-0.120210	-1.883832	-0.158944
O4	O	0.125981	-1.858421	-0.158979
O5	O	-0.139599	-1.916614	0.159034
O6	O	0.005187	-1.671309	0.159010
O7	O	-0.038193	-2.136509	0.159023
Cu8	Cu	-0.018273	-1.906902	0.188050
Cu9	Cu	0.004656	-1.868133	-0.187996
O10	O	0.106593	-1.891203	0.158999
C11	C	0.018169	-1.595388	0.000020
C12	C	0.027954	-1.418008	0.000015
C13	C	-0.161130	-1.899168	0.000045
C14	C	-0.254172	-1.896006	0.000046
C15	C	-0.031786	-2.179647	0.000031
C16	C	-0.041571	-2.357025	0.000022
C17	C	-0.458727	-1.736394	0.000015
C18	C	-0.534087	-1.826675	0.156800
C19	C	-0.424528	-1.890284	0.000031
C20	C	-0.514957	-1.794391	-0.156702
C21	C	-0.589082	-1.884745	0.000009
C22	C	-0.498671	-1.980621	0.156945
C23	C	-0.479525	-1.948300	-0.156697
C24	C	-0.554877	-2.038697	0.000126
C25	C	-0.329732	-1.893471	0.000046
C26	C	-0.683878	-1.881571	0.000008
C27	C	0.147513	-1.875866	0.000005
C28	C	0.240556	-1.879027	-0.000008
N29	N	-0.034401	-1.934182	0.452541
N30	N	0.020776	-1.840866	-0.452487
H31	H	-0.417185	-1.608676	0.000169
O32	O	-0.489331	-2.074413	0.315196
C33	C	-0.401049	-2.076235	0.313313
H34	H	-0.358567	-1.964085	0.220393
H35	H	-0.389299	-2.189291	0.252704
C36	C	-0.430048	-2.214743	0.632773
C37	C	-0.377871	-2.076992	0.518660
H38	H	-0.415750	-2.215218	0.759441
H39	H	-0.489526	-2.213522	0.634041
H40	H	-0.420251	-2.308943	0.582244
H41	H	-0.387676	-1.982796	0.569177
H42	H	-0.318394	-2.078197	0.517406
H43	H	-0.108579	-1.440515	0.000023
H44	H	0.094969	-1.334507	-0.000005
O45	O	0.089025	-1.725678	0.449902
C46	C	0.142292	-1.799539	0.334129
H47	H	0.102532	-1.921441	0.304319
H48	H	0.198986	-1.818452	0.411148
C49	C	0.226438	-1.540281	0.180504
C50	C	0.177602	-1.689997	0.143878
H51	H	0.248222	-1.472709	0.063152
H52	H	0.190553	-1.490518	0.258508
H53	H	0.273676	-1.556064	0.244692
H54	H	0.130359	-1.674215	0.079713
H55	H	0.213479	-1.739755	0.065859
O56	O	-0.102548	-2.049784	0.549863
C57	C	-0.096233	-2.203006	0.501016
H58	H	-0.025717	-2.198323	0.445859
H59	H	-0.138799	-2.237919	0.384967
C60	C	-0.213699	-2.335293	0.746673
C61	C	-0.127088	-2.329544	0.678944
H62	H	-0.232735	-2.413350	0.856423
H63	H	-0.217956	-2.232064	0.779579
H64	H	-0.249160	-2.364382	0.649949
H65	H	-0.091627	-2.300436	0.775658
H66	H	-0.122825	-2.432771	0.646058
O67	O	-0.562631	-1.765064	0.314784
C68	C	-0.512897	-1.605707	0.314252
H69	H	-0.482954	-1.552894	0.161683
H70	H	-0.458945	-1.606915	0.407168
C71	C	-0.608674	-1.566208	0.581641
C72	C	-0.571904	-1.501337	0.394250
H73	H	-0.645071	-1.501828	0.630995
H74	H	-0.642179	-1.673572	0.582005
H75	H	-0.563707	-1.567211	0.659048
H76	H	-0.616871	-1.500353	0.316843
H77	H	-0.538408	-1.393970	0.393875
O78	O	-0.604163	-2.191285	-0.000026
C79	C	-0.575248	-2.255838	-0.163887
H80	H	-0.504783	-2.190279	-0.218003
H81	H	-0.617653	-2.239204	-0.280104
C82	C	-0.668113	-2.517904	-0.046321
C83	C	-0.581564	-2.437392	-0.112778
H84	H	-0.672012	-2.629896	-0.014800
H85	H	-0.687596	-2.474412	0.064072
H86	H	-0.703441	-2.504025	-0.143180
H87	H	-0.546240	-2.451255	-0.015912
H88	H	-0.562075	-2.480890	-0.223155
H89	H	-0.455510	-1.999667	-0.289250
H90	H	-0.522750	-1.715616	-0.289260
