data_functionalizedCrystal
_audit_creation_method	'MofGen! by Chris Wilmer'
_symmetry_space_group_name_H-M	'P1'
_symmetry_Int_Tables_number	1
_symmetry_cell_setting	triclinic
loop_
_symmetry_equiv_pos_as_xyz
  x,y,z
_cell_length_a	12.759394
_cell_length_b	18.101398
_cell_length_c	12.759387
_cell_angle_alpha	90.018269
_cell_angle_beta	89.970033
_cell_angle_gamma	89.987569
loop_
_atom_site_label
_atom_site_type_symbol
_atom_site_fract_x
_atom_site_fract_y
_atom_site_fract_z
Zn1	Zn	-0.418251	-1.132238	-0.593948
Zn2	Zn	-0.593968	-1.132163	-0.418271
Zn3	Zn	-0.418299	-1.008389	-0.418292
Zn4	Zn	-0.593884	-1.008385	-0.593917
O5	O	-0.506101	-1.070294	-0.506107
O6	O	-0.441575	-1.235861	-0.570649
O7	O	-0.570720	-1.115714	-0.271253
O8	O	-0.271272	-1.024851	-0.441615
O9	O	-0.570674	-1.235806	-0.441580
O10	O	-0.271236	-1.115842	-0.570669
O11	O	-0.441657	-1.024778	-0.271268
O12	O	-0.441576	-0.904755	-0.441585
O13	O	-0.570531	-1.024845	-0.740943
O14	O	-0.570578	-0.904753	-0.570616
O15	O	-0.441494	-1.115839	-0.740965
O16	O	-0.740978	-1.115711	-0.441550
O17	O	-0.740916	-1.024772	-0.570596
C18	C	-0.506074	-0.877883	-0.506100
C19	C	-0.506088	-0.795569	-0.506122
C20	C	-0.506109	-0.644861	-0.506120
C21	C	-0.587398	-0.613530	-0.587177
C22	C	-0.587728	-0.527912	-0.586937
C23	C	-0.506130	-0.496478	-0.506120
C24	C	-0.535687	-0.527532	-0.395264
C25	C	-0.536265	-0.613177	-0.395733
C26	C	-0.395060	-0.613317	-0.534950
C27	C	-0.395670	-0.527667	-0.537392
C28	C	-0.506140	-0.412619	-0.506113
C29	C	-0.506101	-0.728720	-0.506119
C30	C	-0.779068	-1.070253	-0.506090
C31	C	-0.895845	-1.070303	-0.506118
C32	C	-0.895650	-1.164981	-0.640602
C33	C	-0.950413	-1.212344	-0.707852
C34	C	-1.060135	-1.212388	-0.707875
C35	C	-1.115095	-1.165063	-0.640643
C36	C	-1.060332	-1.117700	-0.573392
C37	C	-0.950608	-1.117663	-0.573375
C38	C	-1.060527	-1.023019	-0.438915
C39	C	-0.950806	-1.022977	-0.438885
C40	C	-1.115488	-0.975693	-0.371682
C41	C	-1.060725	-0.928333	-0.304425
C42	C	-0.950997	-0.928292	-0.304404
C43	C	-0.896042	-0.975615	-0.371635
C44	C	-0.232067	-1.070355	-0.506148
C45	C	-0.115291	-1.070381	-0.506165
C46	C	-0.505998	-1.070350	-0.780141
C47	C	-0.505954	-1.070374	-0.896918
C48	C	-0.506131	-0.263456	-0.506115
C49	C	-0.506151	-0.345770	-0.506118
C50	C	-0.371596	-1.165132	-0.896961
C51	C	-0.304402	-1.212522	-0.951844
C52	C	-0.304364	-1.212540	-1.061565
C53	C	-0.371525	-1.165162	-1.116407
C54	C	-0.438719	-1.117772	-1.061524
C55	C	-0.438753	-1.117761	-0.951800
C56	C	-0.573070	-1.023011	-1.061481
C57	C	-0.573115	-1.022995	-0.951759
C58	C	-0.640231	-0.975632	-1.116323
C59	C	-0.707432	-0.928245	-1.061440
C60	C	-0.707468	-0.928230	-0.951712
C61	C	-0.640309	-0.975605	-0.896877
C62	C	-0.506127	-1.070281	-0.233140
C63	C	-0.505875	-1.070400	-0.116364
H64	H	-0.615964	-0.506068	-0.370482
N65	N	-0.465173	-0.639169	-0.317361
N66	N	-0.415295	-0.594055	-0.262489
H67	H	-0.365088	-0.612408	-0.207138
H68	H	-0.617426	-0.633135	-0.371365
H69	H	-0.762175	-0.889631	-0.907033
N70	N	-1.227565	-0.975754	-0.371711
N71	N	-1.276484	-1.033551	-0.349820
H72	H	-1.355640	-1.033597	-0.349838
N73	N	-0.690953	-0.502165	-0.562944
N74	N	-0.739172	-0.462591	-0.627098
H75	H	-0.812078	-0.444405	-0.610149
H76	H	-0.478296	-0.507170	-0.333212
N77	N	-0.895062	-0.879898	-0.235725
N78	N	-0.907387	-0.811566	-0.242634
H79	H	-0.867887	-0.777386	-0.194129
H80	H	-0.331906	-0.506270	-0.482704
N81	N	-0.361193	-0.640451	-0.634647
N82	N	-0.418498	-0.683372	-0.685665
H83	H	-0.394590	-0.702538	-0.756079
H84	H	-0.249719	-1.251095	-0.907180
H85	H	-0.905654	-1.250875	-0.762595
H86	H	-0.249642	-1.251124	-1.106251
N87	N	-0.367718	-0.502223	-0.639749
N88	N	-0.428864	-0.461268	-0.689540
H89	H	-0.409131	-0.443299	-0.761835
H90	H	-0.334500	-0.633579	-0.475918
N91	N	-0.371490	-1.165160	-1.228484
N92	N	-0.349503	-1.107401	-1.277445
H93	H	-0.349481	-1.107397	-1.356601
N94	N	-0.640172	-0.975652	-1.228400
N95	N	-0.580173	-1.017966	-1.277392
H96	H	-0.580133	-1.017980	-1.356548
H97	H	-0.806309	-1.164957	-0.640581
H98	H	-0.806701	-0.975589	-0.371620
H99	H	-0.569172	-0.634151	-0.669617
H100	H	-1.104723	-1.250947	-0.762647
N101	N	-0.371632	-1.165131	-0.784884
N102	N	-0.311670	-1.207436	-0.735931
H103	H	-0.311693	-1.207437	-0.656775
H104	H	-0.669218	-0.635035	-0.568282
N105	N	-0.640349	-0.975574	-0.784799
N106	N	-0.700340	-0.933256	-0.735805
H107	H	-0.700365	-0.933232	-0.656649
N108	N	-1.227173	-1.165119	-0.640655
N109	N	-1.276187	-1.180648	-0.558728
H110	H	-1.355344	-1.180689	-0.558734
H111	H	-0.762104	-0.889670	-1.106101
N112	N	-0.564586	-0.501580	-0.690037
N113	N	-0.548081	-0.546457	-0.762674
H114	H	-0.531739	-0.527865	-0.835494
N115	N	-1.116880	-0.879995	-0.235772
N116	N	-1.214845	-0.880035	-0.235812
H117	H	-1.254510	-0.845895	-0.187325
