data_functionalizedCrystal
_audit_creation_method	'MofGen! by Chris Wilmer'
_symmetry_space_group_name_H-M	'P1'
_symmetry_Int_Tables_number	1
_symmetry_cell_setting	triclinic
loop_
_symmetry_equiv_pos_as_xyz
  x,y,z
_cell_length_a	16.625548
_cell_length_b	12.645330
_cell_length_c	16.625539
_cell_angle_alpha	89.975749
_cell_angle_beta	89.979432
_cell_angle_gamma	90.018760
loop_
_atom_site_label
_atom_site_type_symbol
_atom_site_fract_x
_atom_site_fract_y
_atom_site_fract_z
Zn1	Zn	1.232707	-0.422007	-0.455932
Zn2	Zn	1.566041	-0.088674	-0.122599
Zn3	Zn	1.899374	0.244659	0.210735
Zn4	Zn	1.232622	-0.599293	-0.321109
Zn5	Zn	1.565955	-0.265960	0.012224
Zn6	Zn	1.899288	0.067373	0.345558
Zn7	Zn	1.097869	-0.422048	-0.321113
Zn8	Zn	1.431202	-0.088714	0.012221
Zn9	Zn	1.764536	0.244619	0.345554
Zn10	Zn	1.097851	-0.599232	-0.455899
Zn11	Zn	1.431184	-0.265899	-0.122565
Zn12	Zn	1.764517	0.067434	0.210768
O13	O	1.165262	-0.510645	-0.388513
O14	O	1.498595	-0.177312	-0.055180
O15	O	1.831929	0.156022	0.278154
O16	O	1.345528	-0.445533	-0.438060
O17	O	1.678862	-0.112200	-0.104727
O18	O	2.012195	0.221133	0.228607
O19	O	1.214718	-0.575824	-0.208277
O20	O	1.548052	-0.242490	0.125056
O21	O	1.881385	0.090843	0.458390
O22	O	1.115799	-0.273695	-0.339012
O23	O	1.449132	0.059638	-0.005679
O24	O	1.782466	0.392972	0.327654
O25	O	1.345465	-0.575784	-0.339006
O26	O	1.678799	-0.242451	-0.005672
O27	O	2.012132	0.090882	0.327661
O28	O	1.214864	-0.273665	-0.438064
O29	O	1.548197	0.059668	-0.104730
O30	O	1.881531	0.393001	0.228603
O31	O	1.115716	-0.445602	-0.208280
O32	O	1.449049	-0.112269	0.125054
O33	O	1.782383	0.221065	0.458387
O34	O	0.985034	-0.445543	-0.338980
O35	O	1.318368	-0.112210	-0.005647
O36	O	1.651701	0.221124	0.327687
O37	O	1.115768	-0.575681	-0.568736
O38	O	1.449101	-0.242347	-0.235402
O39	O	1.782434	0.090986	0.097931
O40	O	0.985021	-0.575720	-0.438007
O41	O	1.318354	-0.242387	-0.104673
O42	O	1.651687	0.090947	0.228660
O43	O	1.214846	-0.445474	-0.568760
O44	O	1.548180	-0.112141	-0.235427
O45	O	1.881513	0.221192	0.097907
O46	O	1.214701	-0.747632	-0.338973
O47	O	1.548034	-0.414299	-0.005640
O48	O	1.881367	-0.080966	0.327693
O49	O	1.115685	-0.747588	-0.438003
O50	O	1.449018	-0.414254	-0.104670
O51	O	1.782352	-0.080921	0.228664
C52	C	0.955771	-0.510630	-0.388491
C53	C	1.289105	-0.177297	-0.055157
C54	C	1.622438	0.156037	0.278176
C55	C	0.866150	-0.510649	-0.388500
C56	C	1.199484	-0.177316	-0.055167
C57	C	1.532817	0.156018	0.278167
C58	C	1.165203	-0.786075	-0.388502
C59	C	1.498537	-0.452742	-0.055168
C60	C	1.831870	-0.119408	0.278165
C61	C	1.165252	-0.903905	-0.388524
C62	C	1.498585	-0.570572	-0.055191
C63	C	1.831919	-0.237238	0.278143
C64	C	0.537975	-0.510656	-0.388534
C65	C	0.871308	-0.177323	-0.055201
C66	C	1.204641	0.156011	0.278132
C67	C	0.629283	-0.510651	-0.388522
C68	C	0.962616	-0.177318	-0.055189
C69	C	1.295950	0.156016	0.278144
C70	C	0.702059	-0.510653	-0.388517
C71	C	1.035393	-0.177320	-0.055183
C72	C	1.368726	0.156014	0.278150
C73	C	0.793374	-0.510647	-0.388506
C74	C	1.126707	-0.177314	-0.055172
C75	C	1.460040	0.156020	0.278161
C76	C	1.103218	-1.071485	-0.451015
C77	C	1.436551	-0.738152	-0.117682
C78	C	1.769885	-0.404818	0.215651
C79	C	1.102901	-0.948925	-0.450815
C80	C	1.436234	-0.615592	-0.117481
C81	C	1.769567	-0.282259	0.215852
C82	C	1.142250	-0.948498	-0.303549
C83	C	1.475584	-0.615165	0.029785
C84	C	1.808917	-0.281832	0.363118
C85	C	1.141872	-1.071097	-0.303928
C86	C	1.475205	-0.737763	0.029405
C87	C	1.808538	-0.404430	0.362739
C88	C	1.250667	-1.070992	-0.410318
C89	C	1.584000	-0.737659	-0.076985
C90	C	1.917334	-0.404326	0.256348
C91	C	1.250144	-0.948386	-0.412177
C92	C	1.583477	-0.615052	-0.078843
C93	C	1.916810	-0.281719	0.254490
C94	C	1.375571	-0.510661	-0.388536
C95	C	1.708904	-0.177328	-0.055203
C96	C	2.042238	0.156006	0.278131
C97	C	1.465192	-0.510668	-0.388546
C98	C	1.798525	-0.177335	-0.055213
C99	C	2.131859	0.155999	0.278121
C100	C	1.165315	-0.510566	-0.598822
C101	C	1.498648	-0.177233	-0.265489
C102	C	1.831981	0.156101	0.067845
C103	C	1.165337	-0.510533	-0.688443
C104	C	1.498670	-0.177199	-0.355110
C105	C	1.832004	0.156134	-0.021777
C106	C	1.165343	-0.234140	-0.388542
C107	C	1.498677	0.099193	-0.055209
C108	C	1.832010	0.432527	0.278125
C109	C	1.165378	-0.116310	-0.388554
C110	C	1.498711	0.217024	-0.055221
C111	C	1.832044	0.550357	0.278112
C112	C	1.165374	-0.510414	-1.016619
C113	C	1.498707	-0.177080	-0.683286
C114	C	1.832041	0.156253	-0.349952
C115	C	1.165362	-0.510450	-0.925311
C116	C	1.498695	-0.177117	-0.591977
C117	C	1.832028	0.156216	-0.258644
C118	C	1.165356	-0.510474	-0.852534
C119	C	1.498689	-0.177141	-0.519201
C120	C	1.832023	0.156193	-0.185867
C121	C	1.165343	-0.510509	-0.761220
C122	C	1.498676	-0.177175	-0.427886
C123	C	1.832009	0.156158	-0.094553
C124	C	1.165256	-0.510647	-0.179022
C125	C	1.498590	-0.177314	0.154311
C126	C	1.831923	0.156019	0.487644
C127	C	1.165390	-0.510382	-0.089402
C128	C	1.498724	-0.177049	0.243932
C129	C	1.832057	0.156284	0.577265
H130	H	1.117292	-0.918772	-0.513823
H131	H	1.450625	-0.585439	-0.180490
H132	H	1.783958	-0.252105	0.152844
O133	O	1.060524	-0.907959	-0.278684
O134	O	1.393857	-0.574626	0.054650
O135	O	1.727191	-0.241292	0.387983
H136	H	1.044931	-0.940030	-0.218508
H137	H	1.378264	-0.606696	0.114825
H138	H	1.711597	-0.273363	0.448159
O139	O	1.019980	-1.112395	-0.432161
O140	O	1.353313	-0.779062	-0.098827
O141	O	1.686647	-0.445728	0.234506
H142	H	1.022688	-1.164513	-0.378495
H143	H	1.356022	-0.831180	-0.045162
H144	H	1.689355	-0.497847	0.288171
H145	H	1.186089	-0.919338	-0.255739
H146	H	1.519422	-0.586005	0.077595
H147	H	1.852756	-0.252672	0.410928
O148	O	1.059288	-1.109108	-0.279503
O149	O	1.392621	-0.775775	0.053830
O150	O	1.725955	-0.442441	0.387164
H151	H	1.058200	-1.196872	-0.279525
H152	H	1.391533	-0.863538	0.053808
H153	H	1.724866	-0.530205	0.387142
H154	H	1.298894	-0.917733	-0.369996
H155	H	1.632228	-0.584400	-0.036663
H156	H	1.965561	-0.251067	0.296671
O157	O	1.121807	-1.110953	-0.534681
O158	O	1.455140	-0.777620	-0.201348
O159	O	1.788473	-0.444286	0.131986
H160	H	1.175584	-1.162874	-0.532654
H161	H	1.508918	-0.829540	-0.199321
H162	H	1.842251	-0.496207	0.134013
O163	O	1.312058	-1.109623	-0.350194
O164	O	1.645391	-0.776290	-0.016861
O165	O	1.978724	-0.442956	0.316472
H166	H	1.282018	-1.160820	-0.305011
H167	H	1.615351	-0.827487	0.028322
H168	H	1.948684	-0.494153	0.361656
O169	O	1.019154	-0.910187	-0.431695
O170	O	1.352487	-0.576853	-0.098361
O171	O	1.685820	-0.243520	0.234972
H172	H	0.978724	-0.979020	-0.422549
H173	H	1.312057	-0.645686	-0.089216
H174	H	1.645391	-0.312353	0.244117
H175	H	1.185181	-1.100752	-0.255803
H176	H	1.518515	-0.767419	0.077531
H177	H	1.851848	-0.434086	0.410864
H178	H	1.271650	-1.101837	-0.471229
H179	H	1.604983	-0.768503	-0.137896
H180	H	1.938316	-0.435170	0.195438
H181	H	1.267490	-0.919236	-0.474714
H182	H	1.600823	-0.585902	-0.141380
H183	H	1.934157	-0.252569	0.191953
