data_functionalizedCrystal
_audit_creation_method	'MofGen! by Chris Wilmer'
_symmetry_space_group_name_H-M	'P1'
_symmetry_Int_Tables_number	1
_symmetry_cell_setting	triclinic
loop_
_symmetry_equiv_pos_as_xyz
  x,y,z
_cell_length_a	14.560438
_cell_length_b	14.560438
_cell_length_c	14.560438
_cell_angle_alpha	59.996693
_cell_angle_beta	90.001255
_cell_angle_gamma	60.001608
loop_
_atom_site_label
_atom_site_type_symbol
_atom_site_fract_x
_atom_site_fract_y
_atom_site_fract_z
Zr1	Zr	0.884764	1.005316	-0.120587
O2	O	0.738115	1.196927	-0.267248
O3	O	0.929719	0.813707	-0.075618
O4	O	0.929716	1.005319	-0.267235
O5	O	0.738122	1.005313	0.075509
O6	O	1.080855	1.005319	-0.267234
O7	O	0.738118	1.005315	-0.075632
O8	O	1.080862	0.662561	0.075533
O9	O	0.738116	1.348071	-0.267258
O10	O	1.061687	0.892518	-0.056450
O11	O	0.948896	0.892516	0.056344
O12	O	0.948892	1.118114	-0.169259
O13	O	0.836101	1.118112	-0.056465
Zr14	Zr	1.125821	1.005312	0.120467
Zr15	Zr	1.125814	1.005316	-0.120585
Zr16	Zr	0.884770	1.005312	0.120466
Zr17	Zr	0.884766	1.246373	-0.120602
Zr18	Zr	1.125819	0.764255	0.120482
O19	O	1.080866	1.196921	0.075499
O20	O	1.080857	1.196927	-0.267247
O21	O	0.738123	1.196921	0.075497
O22	O	1.272470	0.813702	0.267128
O23	O	1.272461	0.813707	-0.075617
O24	O	0.929728	0.813702	0.267127
O25	O	1.272463	1.005316	-0.075629
O26	O	1.080869	1.005310	0.267115
O27	O	0.929729	1.005310	0.267114
O28	O	1.272467	1.005313	0.075512
O29	O	0.929718	1.348071	-0.267257
O30	O	1.080866	0.662558	0.267137
O31	O	1.272469	0.662558	0.267138
O32	O	1.272464	0.662561	0.075534
O33	O	0.738121	1.348067	-0.075654
O34	O	0.929723	1.348067	-0.075653
O35	O	1.061693	0.892514	0.169140
O36	O	1.174484	0.892516	0.056345
O37	O	1.061689	1.118112	-0.056464
O38	O	0.948898	1.118110	0.056330
C39	C	1.005290	0.703789	-0.000041
C40	C	1.005289	0.601454	-0.000034
C41	C	0.922021	0.636669	-0.083317
C42	C	0.922026	0.540529	-0.083346
C43	C	1.088572	0.373960	0.083201
C44	C	1.088571	0.470099	0.083225
C45	C	0.703776	1.005314	-0.000061
C46	C	0.601444	1.005314	-0.000062
C47	C	0.516092	0.887554	0.058830
C48	C	0.612244	0.887554	0.058825
C49	C	0.494482	1.123083	-0.058957
C50	C	0.398332	1.123083	-0.058958
C51	C	0.526901	0.769786	0.117730
C52	C	0.633857	0.652017	0.176624
C53	C	0.730009	0.652016	0.176619
C54	C	0.719206	0.769784	0.117720
C55	C	1.306809	1.005314	-0.000059
C56	C	1.409141	1.005314	-0.000058
C57	C	1.005285	1.005319	-0.301579
C58	C	1.005282	1.005321	-0.403912
C59	C	1.005295	1.306840	-0.000079
C60	C	1.005295	1.409175	-0.000086
C61	C	0.946406	1.123078	-0.510874
C62	C	0.946419	1.123071	-0.607023
C63	C	1.064187	0.887542	-0.489234
C64	C	1.064179	0.887549	-0.393088
C65	C	1.005300	1.005309	0.301460
C66	C	1.005303	1.005307	0.403792
C67	C	1.306807	0.703789	-0.000039
C68	C	1.409138	0.601454	-0.000032
C69	C	1.005298	0.703784	0.301479
C70	C	1.005300	0.601447	0.403818
C71	C	1.306815	0.703784	0.301480
C72	C	1.409149	0.601447	0.403820
C73	C	0.703770	1.306845	-0.301600
C74	C	0.601436	1.409181	-0.403940
C75	C	0.703778	1.306840	-0.000081
C76	C	0.601447	1.409175	-0.000088
C77	C	1.005287	1.306845	-0.301599
C78	C	1.005285	1.409182	-0.403938
C79	C	1.398338	0.553375	-0.058904
C80	C	1.494493	0.457228	-0.058901
C81	C	1.612245	0.457244	0.058854
C82	C	1.516091	0.553395	0.058844
C83	C	1.064178	0.553366	0.510776
C84	C	1.064167	0.457219	0.606931
C85	C	0.946397	0.457238	0.489157
C86	C	0.946403	0.553390	0.393005
C87	C	1.516101	0.553368	0.393025
C88	C	1.612251	0.457220	0.489189
C89	C	1.494482	0.457236	0.606938
C90	C	1.398335	0.553388	0.510776
H91	H	1.156376	0.267002	0.150988
C92	C	0.881630	0.606281	0.275341
N93	N	0.832844	0.646119	0.186718
C94	C	0.280680	1.252625	-0.123733
N95	N	0.192063	1.350199	-0.172524
C96	C	0.830418	0.781158	-0.174911
N97	N	0.761422	0.889988	-0.243906
C98	C	0.881622	0.404359	0.477275
N99	N	0.832836	0.364527	0.468323
C100	C	1.482599	0.404350	0.724595
N101	N	1.473647	0.364514	0.813215
H102	H	1.156384	0.441413	0.151046
C103	C	1.527976	0.606285	0.123612
N104	N	1.536926	0.646123	0.172391
H105	H	1.112129	0.791652	-0.305989
C106	C	0.830415	0.579277	-0.174954
N107	N	0.761408	0.608467	-0.243956
C108	C	1.280676	0.606287	0.522655
N109	N	1.192058	0.646136	0.531601
H110	H	1.112137	0.791656	-0.480435
C111	C	0.824980	0.769776	0.117715
N112	N	0.904650	0.769769	0.117717
C113	C	1.729899	0.404360	0.123625
N114	N	1.818517	0.364525	0.172417
H115	H	0.448616	0.769774	0.117743
H116	H	1.524911	0.592497	0.305941
C117	C	0.645735	0.522479	0.241404
N118	N	0.654683	0.424908	0.290198
C119	C	1.280692	0.606247	-0.123680
N120	N	1.192081	0.646071	-0.172476
H121	H	0.817092	0.556122	0.224566
H122	H	0.485696	1.218965	-0.106908
H123	H	0.898477	1.218961	-0.694113
H124	H	0.898448	1.218975	-0.519694
H125	H	1.485689	0.418089	-0.106843
H126	H	1.699334	0.418078	0.480392
H127	H	1.112110	0.418077	0.694017
H128	H	1.112131	0.592496	0.519587
