data_functionalizedCrystal
_audit_creation_method	'MofGen! by Chris Wilmer'
_symmetry_space_group_name_H-M	'P1'
_symmetry_Int_Tables_number	1
_symmetry_cell_setting	triclinic
loop_
_symmetry_equiv_pos_as_xyz
  x,y,z
_cell_length_a	10.685980
_cell_length_b	18.101396
_cell_length_c	10.685880
_cell_angle_alpha	85.660342
_cell_angle_beta	80.918858
_cell_angle_gamma	85.596378
loop_
_atom_site_label
_atom_site_type_symbol
_atom_site_fract_x
_atom_site_fract_y
_atom_site_fract_z
Zn1	Zn	1.995576	0.244016	-0.866652
Zn2	Zn	1.979090	0.359072	-0.654386
Zn3	Zn	1.767017	0.244055	-0.638125
Zn4	Zn	1.783190	0.376636	-0.850288
O5	O	1.881218	0.305945	-0.752363
O6	O	2.171027	0.251911	-0.852149
O7	O	1.937289	0.336481	-0.474604
O8	O	1.797466	0.140413	-0.668482
O9	O	2.158914	0.336443	-0.696198
O10	O	1.965388	0.140384	-0.836381
O11	O	1.781480	0.251978	-0.462657
O12	O	1.591524	0.269009	-0.652615
O13	O	1.825033	0.366378	-1.030084
O14	O	1.603407	0.366416	-0.808490
O15	O	1.981072	0.268943	-1.042107
O16	O	1.952972	0.465039	-0.680330
O17	O	1.809046	0.477943	-0.824259
C18	C	1.551407	0.319624	-0.727013
C19	C	1.410314	0.325494	-0.716198
C20	C	1.881012	0.498363	-0.752314
C21	C	1.881043	0.580677	-0.752344
C22	C	1.881274	0.879761	-0.752435
C23	C	1.790971	0.856586	-0.843252
C24	C	1.790498	0.770974	-0.842908
C25	C	1.881159	0.731382	-0.752391
C26	C	1.834672	0.758491	-0.615838
C27	C	1.834071	0.844187	-0.616378
C28	C	2.018194	0.843950	-0.797010
C29	C	2.017644	0.758452	-0.799883
C30	C	1.881096	0.647524	-0.752358
C31	C	1.881334	0.963619	-0.752459
C32	C	2.212318	0.292213	-0.777813
C33	C	2.353413	0.286362	-0.788658
C34	C	1.906695	0.319615	-1.083440
C35	C	1.917552	0.325441	-1.224525
C36	C	1.881418	1.112778	-0.752444
C37	C	1.881391	1.030466	-0.752482
C38	C	1.855913	0.292271	-0.422580
C39	C	1.845303	0.286227	-0.281515
H40	H	1.351082	0.363491	-0.645879
H41	H	1.820772	0.753082	-0.943839
Br42	Br	1.841075	0.896160	-1.011990
Br43	Br	2.034498	0.388835	-1.323096
Br44	Br	1.728331	0.222843	-1.182937
H45	H	1.412638	0.248363	-0.858965
H46	H	1.689224	0.753743	-0.812569
Br47	Br	1.623215	0.897883	-0.793274
Br48	Br	1.666746	0.882385	-0.555436
Br49	Br	2.130549	0.867722	-0.686996
H50	H	1.896435	0.858932	-0.545852
Br51	Br	1.940104	0.714565	-0.499224
H52	H	1.735287	0.739913	-0.578834
H53	H	2.058567	0.868103	-0.895430
Br54	Br	2.075769	0.729429	-0.967469
H55	H	2.089316	0.731099	-0.739378
