data_functionalizedCrystal
_audit_creation_method	'MofGen! by Chris Wilmer'
_symmetry_space_group_name_H-M	'P1'
_symmetry_Int_Tables_number	1
_symmetry_cell_setting	triclinic
loop_
_symmetry_equiv_pos_as_xyz
  x,y,z
_cell_length_a	15.944545
_cell_length_b	15.944551
_cell_length_c	14.421503
_cell_angle_alpha	90.003340
_cell_angle_beta	89.995153
_cell_angle_gamma	83.497455
loop_
_atom_site_label
_atom_site_type_symbol
_atom_site_fract_x
_atom_site_fract_y
_atom_site_fract_z
O1	O	1.114533	0.108295	-0.077054
O2	O	1.447866	0.441629	0.256280
O3	O	1.781199	0.774962	0.589613
O4	O	0.869982	0.121657	-0.077069
O5	O	1.203316	0.454990	0.256264
O6	O	1.536649	0.788324	0.589598
O7	O	0.998936	-0.007299	-0.077053
O8	O	1.332269	0.326035	0.256281
O9	O	1.665602	0.659368	0.589614
O10	O	0.985579	0.237251	-0.077070
O11	O	1.318913	0.570585	0.256263
O12	O	1.652246	0.903918	0.589597
O13	O	0.998914	-0.007280	0.077171
O14	O	1.332247	0.326054	0.410504
O15	O	1.665581	0.659387	0.743838
O16	O	0.869961	0.121676	0.077154
O17	O	1.203294	0.455010	0.410488
O18	O	1.536627	0.788343	0.743821
O19	O	1.114511	0.108315	0.077170
O20	O	1.447845	0.441648	0.410503
O21	O	1.781178	0.774981	0.743836
Cu22	Cu	0.992234	0.114997	0.091244
Cu23	Cu	1.325567	0.448330	0.424577
Cu24	Cu	1.658901	0.781664	0.757911
Cu25	Cu	0.992259	0.114974	-0.091143
Cu26	Cu	1.325593	0.448308	0.242190
Cu27	Cu	1.658926	0.781641	0.575524
O28	O	0.985558	0.237270	0.077153
O29	O	1.318891	0.570604	0.410487
O30	O	1.652225	0.903937	0.743820
C31	C	0.838677	0.121113	0.000041
C32	C	1.172011	0.454446	0.333374
C33	C	1.505344	0.787780	0.666708
C34	C	0.745431	0.119453	0.000035
C35	C	1.078764	0.452786	0.333369
C36	C	1.412098	0.786119	0.666702
C37	C	0.474798	0.034559	0.000051
C38	C	0.808132	0.367892	0.333385
C39	C	1.141465	0.701226	0.666718
C40	C	0.525370	0.075497	0.076091
C41	C	0.858703	0.408831	0.409424
C42	C	1.192036	0.742164	0.742757
C43	C	0.409787	0.113532	0.000052
C44	C	0.743121	0.446865	0.333385
C45	C	1.076454	0.780199	0.666718
C46	C	0.525371	0.075500	-0.075961
C47	C	0.858705	0.408833	0.257372
C48	C	1.192038	0.742166	0.590705
C49	C	0.574701	0.116437	0.000042
C50	C	0.908034	0.449770	0.333375
C51	C	1.241367	0.783103	0.666709
C52	C	0.459130	0.154449	0.076154
C53	C	0.792463	0.487783	0.409487
C54	C	1.125797	0.821116	0.742821
C55	C	0.459128	0.154440	-0.075967
C56	C	0.792462	0.487773	0.257367
C57	C	1.125795	0.821107	0.590700
C58	C	0.509667	0.195436	0.000092
C59	C	0.843000	0.528770	0.333425
C60	C	1.176333	0.862103	0.666758
C61	C	0.314785	0.111856	0.000058
C62	C	0.648119	0.445190	0.333391
C63	C	0.981452	0.778523	0.666725
C64	C	0.669700	0.118119	0.000042
C65	C	1.003034	0.451452	0.333376
C66	C	1.336367	0.784785	0.666709
C67	C	0.998370	-0.038583	0.000059
C68	C	1.331704	0.294750	0.333393
C69	C	1.665037	0.628084	0.666726
C70	C	0.996708	-0.131829	0.000060
C71	C	1.330041	0.201504	0.333393
C72	C	1.663375	0.534838	0.666726
C73	C	0.912803	-0.346684	0.000042
C74	C	1.246137	-0.013351	0.333375
C75	C	1.579470	0.319983	0.666708
C76	C	0.951755	-0.407693	0.076086
C77	C	1.285089	-0.074359	0.409419
C78	C	1.618422	0.258974	0.742752
C79	C	0.993701	-0.302555	0.000052
C80	C	1.327034	0.030778	0.333386
C81	C	1.660367	0.364112	0.666719
C82	C	0.951796	-0.407695	-0.075967
C83	C	1.285129	-0.074362	0.257367
C84	C	1.618462	0.258972	0.590700
C85	C	0.990790	-0.467468	0.000041
C86	C	1.324123	-0.134134	0.333375
C87	C	1.657457	0.199199	0.666708
C88	C	1.032675	-0.362335	0.076159
C89	C	1.366008	-0.029002	0.409492
C90	C	1.699342	0.304331	0.742826
C91	C	1.032704	-0.362331	-0.075961
C92	C	1.366037	-0.028998	0.257372
C93	C	1.699370	0.304335	0.590705
C94	C	1.071715	-0.423322	0.000101
C95	C	1.405048	-0.089989	0.333434
C96	C	1.738381	0.243344	0.666768
C97	C	0.995375	-0.207553	0.000060
C98	C	1.328709	0.125781	0.333393
C99	C	1.662042	0.459114	0.666726
C100	C	0.989122	-0.562469	0.000041
C101	C	1.322455	-0.229135	0.333374
C102	C	1.655788	0.104198	0.666707
C103	C	1.145816	0.108859	0.000058
C104	C	1.479149	0.442192	0.333391
C105	C	1.812483	0.775525	0.666725
C106	C	1.239062	0.110519	0.000057
C107	C	1.572396	0.443852	0.333391
C108	C	1.905729	0.777186	0.666724
C109	C	0.986123	0.268555	0.000039
C110	C	1.319456	0.601888	0.333373
C111	C	1.652790	0.935221	0.666706
C112	C	0.987785	0.361801	0.000033
C113	C	1.321119	0.695134	0.333366
C114	C	1.654452	1.028467	0.666700
N115	N	0.992222	0.115013	0.219525
N116	N	1.325556	0.448346	0.552859
N117	N	1.658889	0.781679	0.886192
N118	N	0.992278	0.114952	-0.219424
N119	N	1.325611	0.448286	0.113909
N120	N	1.658944	0.781619	0.447242
C121	C	0.932584	0.174615	0.469171
C122	C	1.265917	0.507948	0.802505
C123	C	1.599251	0.841282	1.135838
C124	C	1.008484	0.190921	0.530977
C125	C	1.341817	0.524254	0.864311
C126	C	1.675151	0.857587	1.197644
C127	C	0.992243	0.114993	0.408687
C128	C	1.325576	0.448326	0.742020
C129	C	1.658910	0.781659	1.075353
C130	C	0.916362	0.098707	0.530974
C131	C	1.249695	0.432040	0.864308
C132	C	1.583029	0.765373	1.197641
C133	C	0.992256	0.114975	0.591408
C134	C	1.325589	0.448308	0.924741
C135	C	1.658922	0.781642	1.258075
C136	C	1.068181	0.131336	0.469132
C137	C	1.401515	0.464669	0.802465
C138	C	1.734848	0.798003	1.135799
C139	C	0.976010	0.039089	0.469124
C140	C	1.309343	0.372422	0.802457
C141	C	1.642676	0.705756	1.135790
C142	C	1.051965	0.055362	0.530902
C143	C	1.385298	0.388696	0.864235
C144	C	1.718631	0.722029	1.197568
C145	C	0.992234	0.115005	0.303426
C146	C	1.325568	0.448338	0.636759
C147	C	1.658901	0.781671	0.970092
C148	C	0.992273	0.114962	0.696667
C149	C	1.325606	0.448296	1.030000
C150	C	1.658940	0.781629	1.363334
H151	H	0.525158	0.263501	0.000131
H152	H	0.858492	0.596835	0.333464
H153	H	1.191825	0.930168	0.666798
H154	H	0.962243	-0.025073	0.441933
H155	H	1.295577	0.308261	0.775267
H156	H	1.628910	0.641594	1.108600
O157	O	1.026705	0.275922	0.566993
O158	O	1.360038	0.609256	0.900326
O159	O	1.693371	0.942589	1.233659
H160	H	1.027148	0.274916	0.643948
H161	H	1.360482	0.608250	0.977282
H162	H	1.693815	0.941583	1.310615
H163	H	1.066900	-0.342210	-0.140250
H164	H	1.400233	-0.008876	0.193084
H165	H	1.733566	0.324457	0.526417
H166	H	0.852186	0.084940	0.558142
H167	H	1.185519	0.418273	0.891475
H168	H	1.518853	0.751607	1.224808
H169	H	0.459145	-0.033453	0.000130
H170	H	0.792478	0.299880	0.333463
H171	H	1.125812	0.633214	0.666797
H172	H	0.430191	0.187755	-0.140259
H173	H	0.763524	0.521088	0.193074
H174	H	1.096858	0.854422	0.526408
O175	O	0.865819	0.241446	0.433258
O176	O	1.199153	0.574779	0.766591
O177	O	1.532486	0.908113	1.099924
H178	H	0.896013	0.287065	0.389853
H179	H	1.229346	0.620399	0.723187
H180	H	1.562679	0.953732	1.056520
H181	H	0.554291	0.042153	0.140381
H182	H	0.887625	0.375486	0.473714
H183	H	1.220958	0.708820	0.807048
H184	H	0.845655	-0.313375	0.000113
H185	H	1.178988	0.019959	0.333447
H186	H	1.512322	0.353292	0.666780
H187	H	0.917578	-0.427779	-0.140260
H188	H	1.250911	-0.094446	0.193073
H189	H	1.584244	0.238888	0.526406
H190	H	1.132372	0.145180	0.442081
H191	H	1.465705	0.478513	0.775415
H192	H	1.799038	0.811847	1.108748
H193	H	1.138922	-0.456483	0.000148
H194	H	1.472255	-0.123149	0.333482
H195	H	1.805589	0.210184	0.666815
H196	H	0.430312	0.187785	0.140508
H197	H	0.763645	0.521118	0.473842
H198	H	1.096978	0.854451	0.807175
H199	H	0.554298	0.042126	-0.140243
H200	H	0.887631	0.375459	0.193090
H201	H	1.220964	0.708793	0.526424
H202	H	0.917530	-0.427792	0.140370
H203	H	1.250863	-0.094459	0.473704
H204	H	1.584197	0.238874	0.807037
H205	H	1.066854	-0.342338	0.140519
H206	H	1.400187	-0.009004	0.473852
H207	H	1.733520	0.324329	0.807186
H208	H	1.102477	0.004931	0.557836
H209	H	1.435810	0.338264	0.891169
H210	H	1.769144	0.671598	1.224503
