data_functionalizedCrystal
_audit_creation_method	'MofGen! by Chris Wilmer'
_symmetry_space_group_name_H-M	'P1'
_symmetry_Int_Tables_number	1
_symmetry_cell_setting	triclinic
loop_
_symmetry_equiv_pos_as_xyz
  x,y,z
_cell_length_a	12.759401
_cell_length_b	21.295417
_cell_length_c	12.759393
_cell_angle_alpha	89.960830
_cell_angle_beta	89.981504
_cell_angle_gamma	90.030668
loop_
_atom_site_label
_atom_site_type_symbol
_atom_site_fract_x
_atom_site_fract_y
_atom_site_fract_z
Zn1	Zn	1.606140	-0.250569	-0.593926
Zn2	Zn	1.939473	0.082764	-0.260592
Zn3	Zn	2.272807	0.416097	0.072741
Zn4	Zn	1.605986	-0.355853	-0.418223
Zn5	Zn	1.939319	-0.022520	-0.084889
Zn6	Zn	2.272653	0.310813	0.248444
Zn7	Zn	1.430442	-0.250602	-0.418265
Zn8	Zn	1.763775	0.082731	-0.084932
Zn9	Zn	2.097109	0.416064	0.248401
Zn10	Zn	1.430382	-0.355805	-0.593864
Zn11	Zn	1.763715	-0.022472	-0.260531
Zn12	Zn	2.097049	0.310862	0.072803
O13	O	1.518237	-0.303208	-0.506069
O14	O	1.851571	0.030126	-0.172736
O15	O	2.184904	0.363459	0.160597
O16	O	1.753141	-0.264542	-0.570626
O17	O	2.086474	0.068791	-0.237293
O18	O	2.419807	0.402125	0.096040
O19	O	1.582660	-0.341926	-0.271207
O20	O	1.915993	-0.008592	0.062126
O21	O	2.249327	0.324741	0.395460
O22	O	1.453838	-0.162509	-0.441611
O23	O	1.787172	0.170825	-0.108277
O24	O	2.120505	0.504158	0.225056
O25	O	1.753027	-0.341894	-0.441538
O26	O	2.086361	-0.008560	-0.108205
O27	O	2.419694	0.324773	0.225129
O28	O	1.582923	-0.162484	-0.570668
O29	O	1.916256	0.170849	-0.237334
O30	O	2.249589	0.504182	0.095999
O31	O	1.453689	-0.264598	-0.271238
O32	O	1.787022	0.068735	0.062095
O33	O	2.120355	0.402068	0.395428
O34	O	1.283413	-0.264551	-0.441551
O35	O	1.616746	0.068782	-0.108217
O36	O	1.950080	0.402115	0.225116
O37	O	1.453736	-0.341811	-0.740893
O38	O	1.787070	-0.008478	-0.407560
O39	O	2.120403	0.324855	-0.074227
O40	O	1.283369	-0.341843	-0.570562
O41	O	1.616702	-0.008510	-0.237229
O42	O	1.950036	0.324824	0.096104
O43	O	1.582865	-0.264495	-0.740939
O44	O	1.916198	0.068838	-0.407605
O45	O	2.249531	0.402172	-0.074272
O46	O	1.582602	-0.443936	-0.441478
O47	O	1.915935	-0.110603	-0.108145
O48	O	2.249269	0.222730	0.225189
O49	O	1.453587	-0.443901	-0.570521
O50	O	1.786920	-0.110567	-0.237188
O51	O	2.120253	0.222766	0.096145
C52	C	1.245270	-0.303196	-0.506055
C53	C	1.578603	0.030137	-0.172722
C54	C	1.911937	0.363471	0.160612
C55	C	1.128493	-0.303206	-0.506074
C56	C	1.461827	0.030127	-0.172741
C57	C	1.795160	0.363461	0.160593
C58	C	1.073636	-0.343516	-0.573139
C59	C	1.406969	-0.010183	-0.239806
C60	C	1.740303	0.323150	0.093527
C61	C	0.963912	-0.343524	-0.573151
C62	C	1.297245	-0.010191	-0.239817
C63	C	1.630579	0.323142	0.093516
C64	C	0.963912	-0.262910	-0.439022
C65	C	1.297246	0.070423	-0.105689
C66	C	1.630579	0.403757	0.227644
C67	C	1.073635	-0.262899	-0.439017
C68	C	1.406968	0.070434	-0.105684
C69	C	1.740301	0.403767	0.227649
C70	C	1.073635	-0.390061	-0.650574
C71	C	1.406968	-0.056727	-0.317241
C72	C	1.740302	0.276606	0.016093
C73	C	0.963911	-0.390069	-0.650585
C74	C	1.297244	-0.056735	-0.317252
C75	C	1.630577	0.276598	0.016081
C76	C	1.518100	-0.466759	-0.506011
C77	C	1.851433	-0.133426	-0.172678
C78	C	2.184766	0.199907	0.160655
C79	C	1.518137	-0.536727	-0.506021
C80	C	1.851470	-0.203394	-0.172688
C81	C	2.184804	0.129939	0.160645
C82	C	1.585375	-0.569592	-0.438898
C83	C	1.918708	-0.236258	-0.105564
C84	C	2.252042	0.097075	0.227769
C85	C	1.585424	-0.635334	-0.438921
C86	C	1.918757	-0.302001	-0.105588
C87	C	2.252091	0.031333	0.227745
C88	C	1.518217	-0.668210	-0.506058
C89	C	1.851550	-0.334876	-0.172724
C90	C	2.184883	-0.001543	0.160609
C91	C	1.450974	-0.635338	-0.573195
C92	C	1.784307	-0.302004	-0.239861
C93	C	2.117641	0.031329	0.093472
C94	C	1.450934	-0.569596	-0.573177
C95	C	1.784267	-0.236263	-0.239843
C96	C	2.117601	0.097070	0.093490
N97	N	1.426309	-0.771475	-0.514062
N98	N	1.759643	-0.438142	-0.180729
N99	N	2.092976	-0.104808	0.152604
N100	N	1.426350	-0.833927	-0.514073
N101	N	1.759684	-0.500593	-0.180740
N102	N	2.093017	-0.167260	0.152593
C103	C	1.518334	-0.866284	-0.506118
C104	C	1.851668	-0.532951	-0.172785
C105	C	2.185001	-0.199618	0.160549
N106	N	1.610278	-0.833832	-0.498130
N107	N	1.943611	-0.500498	-0.164797
N108	N	2.276945	-0.167165	0.168536
N109	N	1.610236	-0.771375	-0.498114
N110	N	1.943569	-0.438041	-0.164781
N111	N	2.276903	-0.104708	0.168553
C112	C	1.518253	-0.739495	-0.506085
C113	C	1.851586	-0.406162	-0.172752
C114	C	2.184920	-0.072828	0.160581
C115	C	1.585631	-0.970434	-0.439016
C116	C	1.918965	-0.637101	-0.105683
C117	C	2.252298	-0.303768	0.227651
C118	C	1.585682	-1.036178	-0.439047
C119	C	1.919016	-0.702845	-0.105714
C120	C	2.252349	-0.369511	0.227620
C121	C	1.451223	-1.036180	-0.573315
C122	C	1.784556	-0.702847	-0.239982
C123	C	2.117890	-0.369514	0.093352
C124	C	1.451181	-0.970438	-0.573289
C125	C	1.784515	-0.637104	-0.239956
C126	C	2.117848	-0.303771	0.093377
C127	C	1.518384	-0.937569	-0.506134
C128	C	1.851717	-0.604235	-0.172801
C129	C	2.185051	-0.270902	0.160532
C130	C	1.792271	-0.303220	-0.506084
C131	C	2.125604	0.030114	-0.172751
C132	C	2.458937	0.363447	0.160582
C133	C	1.909047	-0.303225	-0.506091
C134	C	2.242381	0.030109	-0.172757
C135	C	2.575714	0.363442	0.160576
C136	C	1.518311	-0.303144	-0.780103
C137	C	1.851644	0.030189	-0.446770
C138	C	2.184978	0.363523	-0.113436
C139	C	1.518342	-0.303117	-0.896880
C140	C	1.851676	0.030216	-0.563546
C141	C	2.185009	0.363550	-0.230213
C142	C	1.518404	-0.139017	-0.506151
C143	C	1.851738	0.194316	-0.172817
C144	C	2.185071	0.527649	0.160516
C145	C	1.518475	-0.069049	-0.506185
C146	C	1.851809	0.264284	-0.172852
C147	C	2.185142	0.597618	0.160481
C148	C	1.585589	-0.262855	-0.951767
C149	C	1.918922	0.070479	-0.618434
C150	C	2.252256	0.403812	-0.285100
C151	C	1.585614	-0.262832	-1.061491
C152	C	1.918947	0.070501	-0.728158
C153	C	2.252281	0.403835	-0.394824
C154	C	1.451143	-0.343339	-1.061431
C155	C	1.784476	-0.010006	-0.728098
C156	C	2.117810	0.323327	-0.394764
C157	C	1.451113	-0.343358	-0.951709
C158	C	1.784447	-0.010025	-0.618375
C159	C	2.117780	0.323308	-0.285042
C160	C	1.663228	-0.216376	-0.951803
C161	C	1.996561	0.116957	-0.618469
C162	C	2.329895	0.450290	-0.285136
C163	C	1.663253	-0.216353	-1.061527
C164	C	1.996586	0.116980	-0.728193
C165	C	2.329920	0.450313	-0.394860
C166	C	1.518225	-0.303225	-0.233102
C167	C	1.851558	0.030108	0.100231
C168	C	2.184891	0.363441	0.433565
C169	C	1.518397	-0.303075	-0.116326
C170	C	1.851730	0.030258	0.217007
C171	C	2.185064	0.363592	0.550341
H172	H	1.103449	-0.377059	-0.731984
H173	H	1.436782	-0.043726	-0.398650
H174	H	1.770116	0.289607	-0.065317
H175	H	1.740492	-0.233853	-0.917763
H176	H	2.073825	0.099481	-0.584429
H177	H	2.407158	0.432814	-0.251096
H178	H	1.107628	-0.436347	-0.621279
H179	H	1.440961	-0.103014	-0.287946
H180	H	1.774294	0.230320	0.045387
H181	H	1.396506	-1.062947	-0.627983
H182	H	1.729839	-0.729614	-0.294650
H183	H	2.063173	-0.396280	0.038683
H184	H	1.396255	-0.662109	-0.627859
H185	H	1.729588	-0.328776	-0.294526
H186	H	2.062922	0.004558	0.038807
H187	H	1.634161	-0.170033	-1.095585
H188	H	1.967494	0.163301	-0.762252
H189	H	2.300827	0.496634	-0.428918
H190	H	0.929921	-0.372666	-0.727941
H191	H	1.263254	-0.039333	-0.394608
H192	H	1.596588	0.294000	-0.061275
H193	H	1.396180	-0.542838	-0.627838
H194	H	1.729513	-0.209504	-0.294505
H195	H	2.062847	0.123829	0.038829
H196	H	1.640355	-0.943671	-0.384338
H197	H	1.973689	-0.610338	-0.051004
H198	H	2.307022	-0.277005	0.282329
H199	H	1.640098	-0.542832	-0.384219
H200	H	1.973431	-0.209498	-0.050885
H201	H	2.306765	0.123835	0.282448
H202	H	0.934093	-0.438810	-0.628642
H203	H	1.267426	-0.105477	-0.295309
H204	H	1.600759	0.227857	0.038024
H205	H	0.919233	-0.230093	-0.384428
H206	H	1.252566	0.103240	-0.051095
H207	H	1.585900	0.436574	0.282239
H208	H	1.640442	-1.062935	-0.384389
H209	H	1.973775	-0.729602	-0.051056
H210	H	2.307109	-0.396268	0.282278
H211	H	1.396425	-0.943678	-0.627944
H212	H	1.729759	-0.610345	-0.294610
H213	H	2.063092	-0.277011	0.038723
H214	H	1.396351	-0.376142	-0.907024
H215	H	1.729685	-0.042808	-0.573690
H216	H	2.063018	0.290525	-0.240357
H217	H	1.640181	-0.662097	-0.384261
H218	H	1.973514	-0.328764	-0.050928
H219	H	2.306848	0.004569	0.282405
H220	H	1.396405	-0.376101	-1.106086
H221	H	1.729739	-0.042768	-0.772753
H222	H	2.063072	0.290566	-0.439419
H223	H	1.641482	-0.167626	-0.922058
H224	H	1.974815	0.165707	-0.588724
H225	H	2.308148	0.499041	-0.255391
H226	H	1.744618	-0.229411	-1.091302
H227	H	2.077951	0.103923	-0.757969
H228	H	2.411284	0.437256	-0.424636
H229	H	1.118295	-0.230071	-0.384413
H230	H	1.451629	0.103263	-0.051080
H231	H	1.784962	0.436596	0.282254
