data_functionalizedCrystal
_audit_creation_method	'MofGen! by Chris Wilmer'
_symmetry_space_group_name_H-M	'P1'
_symmetry_Int_Tables_number	1
_symmetry_cell_setting	triclinic
loop_
_symmetry_equiv_pos_as_xyz
  x,y,z
_cell_length_a	14.971486
_cell_length_b	11.792241
_cell_length_c	13.448316
_cell_angle_alpha	89.993264
_cell_angle_beta	89.998199
_cell_angle_gamma	83.903772
loop_
_atom_site_label
_atom_site_type_symbol
_atom_site_fract_x
_atom_site_fract_y
_atom_site_fract_z
O1	O	1.187540	0.147909	-0.082578
O2	O	0.927211	0.165622	-0.082605
O3	O	1.063693	-0.008446	-0.082584
O4	O	1.051058	0.321977	-0.082599
O5	O	1.063676	-0.008456	0.082800
O6	O	0.927194	0.165611	0.082779
O7	O	1.187523	0.147899	0.082806
Cu8	Cu	1.057357	0.156754	0.097893
Cu9	Cu	1.057377	0.156767	-0.097692
O10	O	1.051041	0.321966	0.082785
C11	C	0.893874	0.164824	0.000084
C12	C	0.794568	0.162451	0.000073
C13	C	0.737752	0.264710	0.000070
C14	C	0.644444	0.262473	0.000085
C15	C	0.607953	0.157975	0.000096
C16	C	0.664776	0.055707	0.000102
C17	C	0.758082	0.057946	0.000095
C18	C	0.470294	0.051049	0.000116
C19	C	0.376981	0.048810	0.000122
C20	C	0.356656	0.255577	0.000107
C21	C	0.449963	0.257815	0.000099
C22	C	0.506779	0.155547	0.000103
C23	C	1.062891	-0.050737	0.000108
C24	C	1.060515	-0.176735	0.000107
C25	C	1.056147	-0.407419	0.000089
C26	C	1.058574	-0.279050	0.000099
C27	C	1.220859	0.148696	0.000115
C28	C	1.320166	0.151070	0.000119
C29	C	1.051843	0.364257	0.000091
C30	C	1.054218	0.490256	0.000086
N31	N	1.057349	0.156744	0.235458
N32	N	1.057392	0.156767	-0.235257
C33	C	1.117802	0.079699	0.287507
C34	C	1.117808	0.079698	0.391611
C35	C	1.057363	0.156749	0.443662
C36	C	0.996904	0.233798	0.391605
C37	C	0.996895	0.233792	0.287504
C38	C	0.996929	0.233805	0.608585
C39	C	0.996939	0.233813	0.712694
C40	C	1.117842	0.079711	0.712692
C41	C	1.117832	0.079706	0.608591
C42	C	1.057374	0.156756	0.556541
H43	H	0.635057	-0.029377	0.000126
H44	H	0.947684	0.296530	0.433992
C45	C	0.581950	0.374965	0.000082
C46	C	0.586389	0.460562	-0.085807
C47	C	0.523897	0.573060	-0.085806
C48	C	0.456967	0.599961	0.000083
C49	C	0.452526	0.514362	0.085978
C50	C	0.515018	0.401863	0.085977
H51	H	0.635937	0.440650	-0.149393
H52	H	0.527185	0.636427	-0.149391
H53	H	0.410707	0.683239	0.000084
H54	H	0.402978	0.534274	0.149564
H55	H	0.511730	0.338497	0.149563
C56	C	1.184293	-0.005060	0.230256
C57	C	1.148922	-0.091939	0.158706
C58	C	1.215413	-0.176704	0.101459
C59	C	1.317274	-0.174590	0.115761
C60	C	1.352650	-0.087708	0.187314
C61	C	1.286159	-0.002943	0.244561
H62	H	1.073514	-0.093507	0.148116
H63	H	1.189225	-0.241020	0.048490
H64	H	1.366495	-0.237338	0.073382
H65	H	1.428059	-0.086140	0.197904
H66	H	1.312348	0.061373	0.297530
H67	H	0.947718	0.296554	0.755069
C68	C	1.184320	-0.005047	0.551328
C69	C	1.182202	-0.134299	0.565651
C70	C	1.248687	-0.219054	0.508387
C71	C	1.317292	-0.174557	0.436801
C72	C	1.319413	-0.045299	0.422475
C73	C	1.252927	0.039456	0.479739
H74	H	1.131414	-0.167244	0.618646
H75	H	1.247117	-0.314740	0.518993
H76	H	1.366509	-0.237298	0.394411
H77	H	1.370201	-0.012354	0.369480
H78	H	1.254498	0.135142	0.469134
H79	H	0.947666	0.296529	0.245126
H80	H	0.767455	0.349805	0.000060
C81	C	0.820583	-0.054543	0.000095
C82	C	0.887524	-0.081434	-0.085785
C83	C	0.950024	-0.193926	-0.085780
C84	C	0.945581	-0.279527	0.000105
C85	C	0.878637	-0.252638	0.085992
C86	C	0.816137	-0.140146	0.085986
H87	H	0.890815	-0.018065	-0.149368
H88	H	0.999580	-0.213831	-0.149359
H89	H	0.991847	-0.362800	0.000109
H90	H	0.875346	-0.316006	0.149575
H91	H	0.766581	-0.120241	0.149565
C92	C	1.184343	-0.005050	0.769945
C93	C	1.148986	-0.091928	0.841526
C94	C	1.215488	-0.176680	0.898785
C95	C	1.317347	-0.174553	0.884464
C96	C	1.352709	-0.087672	0.812880
C97	C	1.286207	-0.002920	0.755620
H98	H	1.073580	-0.093505	0.852130
H99	H	1.189310	-0.240995	0.951777
H100	H	1.366576	-0.237292	0.926851
H101	H	1.428116	-0.086095	0.802275
H102	H	1.312385	0.061396	0.702629
C103	C	0.294165	0.368077	0.000107
C104	C	0.227216	0.394976	-0.085765
C105	C	0.164722	0.507472	-0.085771
C106	C	0.169178	0.593071	0.000096
C107	C	0.236129	0.566174	0.085975
C108	C	0.298623	0.453677	0.085981
H109	H	0.223915	0.331609	-0.149335
H110	H	0.115160	0.527382	-0.149345
H111	H	0.122916	0.676347	0.000092
H112	H	0.239430	0.629541	0.149545
H113	H	0.348185	0.433767	0.149554
H114	H	0.479670	0.342907	0.000080
H115	H	0.947693	0.296545	0.566210
C116	C	0.532796	-0.061445	0.000119
C117	C	0.528360	-0.147052	0.086000
C118	C	0.590862	-0.259541	0.085998
C119	C	0.657801	-0.286423	0.000114
C120	C	0.662240	-0.200814	-0.085773
C121	C	0.599738	-0.088325	-0.085771
H122	H	0.478805	-0.127154	0.149583
H123	H	0.587576	-0.322915	0.149578
H124	H	0.704069	-0.369695	0.000112
H125	H	0.711795	-0.220712	-0.149355
H126	H	0.603024	-0.024951	-0.149351
H127	H	0.347274	-0.036282	0.000133
H128	H	1.167032	0.016961	0.433989
