data_functionalizedCrystal
_audit_creation_method	'MofGen! by Chris Wilmer'
_symmetry_space_group_name_H-M	'P1'
_symmetry_Int_Tables_number	1
_symmetry_cell_setting	triclinic
loop_
_symmetry_equiv_pos_as_xyz
  x,y,z
_cell_length_a	14.853569
_cell_length_b	14.853559
_cell_length_c	14.048226
_cell_angle_alpha	89.995761
_cell_angle_beta	89.995515
_cell_angle_gamma	83.633509
loop_
_atom_site_label
_atom_site_type_symbol
_atom_site_fract_x
_atom_site_fract_y
_atom_site_fract_z
O1	O	1.196363	0.117713	-0.079112
O2	O	1.696363	0.617713	0.420888
O3	O	0.933903	0.131733	-0.079123
O4	O	1.433903	0.631733	0.420877
O5	O	1.072147	-0.006507	-0.079116
O6	O	1.572147	0.493493	0.420884
O7	O	1.058118	0.255953	-0.079119
O8	O	1.558118	0.755953	0.420881
O9	O	1.072131	-0.006515	0.079205
O10	O	1.572131	0.493485	0.579205
O11	O	0.933886	0.131725	0.079198
O12	O	1.433886	0.631725	0.579198
O13	O	1.196346	0.117705	0.079209
O14	O	1.696346	0.617705	0.579209
Zn15	Zn	1.065113	0.124714	0.104341
Zn16	Zn	1.565113	0.624714	0.604341
Zn17	Zn	1.065135	0.124725	-0.104255
Zn18	Zn	1.565135	0.624725	0.395745
O19	O	1.058101	0.255945	0.079202
O20	O	1.558101	0.755945	0.579202
C21	C	0.900306	0.131094	0.000036
C22	C	1.400306	0.631094	0.500036
C23	C	0.800222	0.129189	0.000032
C24	C	1.300222	0.629189	0.500032
C25	C	1.071505	-0.040100	0.000042
C26	C	1.571505	0.459900	0.500042
C27	C	1.069604	-0.140184	0.000037
C28	C	1.569604	0.359816	0.500037
C29	C	0.763848	0.046178	0.000029
C30	C	1.263848	0.546178	0.500029
C31	C	0.742554	0.210411	0.000038
C32	C	1.242554	0.710411	0.500038
C33	C	0.648520	0.208625	0.000039
C34	C	1.148520	0.708625	0.500039
C35	C	0.612146	0.125614	0.000037
C36	C	1.112146	0.625614	0.500037
C37	C	0.669806	0.044389	0.000033
C38	C	1.169806	0.544389	0.500033
C39	C	0.590853	0.289848	0.000053
C40	C	1.090853	0.789848	0.500053
C41	C	0.496812	0.288065	0.000055
C42	C	0.996812	0.788065	0.500055
C43	C	0.460437	0.205053	0.000045
C44	C	0.960437	0.705053	0.500045
C45	C	0.518103	0.123825	0.000041
C46	C	1.018103	0.623825	0.500041
C47	C	0.481729	0.040813	0.000038
C48	C	0.981729	0.540813	0.500038
C49	C	0.539394	-0.040416	0.000027
C50	C	1.039394	0.459584	0.500027
C51	C	0.633430	-0.038623	0.000024
C52	C	1.133430	0.461377	0.500024
C53	C	0.366401	0.203260	0.000048
C54	C	0.866401	0.703260	0.500048
C55	C	0.387687	0.039024	0.000042
C56	C	0.887687	0.539024	0.500042
C57	C	1.061549	-0.563355	-0.086264
C58	C	1.561549	-0.063355	0.413736
C59	C	1.061531	-0.563358	0.086344
C60	C	1.561531	-0.063358	0.586344
C61	C	1.063325	-0.469325	0.086345
C62	C	1.563325	0.030675	0.586345
C63	C	1.064229	-0.422302	0.000040
C64	C	1.564229	0.077698	0.500040
C65	C	1.063340	-0.469312	-0.086266
C66	C	1.563340	0.030688	0.413734
C67	C	1.064204	-0.422306	0.172649
C68	C	1.564204	0.077694	0.672649
C69	C	1.065997	-0.328267	0.172653
C70	C	1.565997	0.171733	0.672653
C71	C	1.066908	-0.281243	0.086347
C72	C	1.566908	0.218757	0.586347
C73	C	1.066020	-0.328260	0.000038
C74	C	1.566020	0.171740	0.500038
C75	C	1.066924	-0.281237	-0.086267
C76	C	1.566924	0.218763	0.413733
C77	C	1.066043	-0.328252	-0.172577
C78	C	1.566043	0.171748	0.327423
C79	C	1.064251	-0.422289	-0.172572
C80	C	1.564251	0.077711	0.327428
C81	C	1.068700	-0.187207	0.086342
C82	C	1.568700	0.312793	0.586342
C83	C	1.068715	-0.187194	-0.086269
C84	C	1.568715	0.312806	0.413731
C85	C	1.229943	0.118345	0.000048
C86	C	1.729943	0.618345	0.500048
C87	C	1.330027	0.120249	0.000046
C88	C	1.830027	0.620249	0.500046
C89	C	1.058744	0.289538	0.000041
C90	C	1.558744	0.789538	0.500041
C91	C	1.060645	0.389622	0.000040
C92	C	1.560645	0.889622	0.500040
N93	N	1.065105	0.124706	0.246701
N94	N	1.565105	0.624706	0.746701
N95	N	1.065151	0.124725	-0.246615
N96	N	1.565151	0.624725	0.253385
C97	C	1.126339	0.063518	0.296522
C98	C	1.626339	0.563518	0.796522
C99	C	1.126345	0.063518	0.396180
C100	C	1.626345	0.563518	0.896180
C101	C	1.065121	0.124710	0.446015
C102	C	1.565121	0.624710	0.946015
C103	C	1.003880	0.185900	0.396187
C104	C	1.503880	0.685900	0.896187
C105	C	1.003871	0.185896	0.296531
C106	C	1.503871	0.685896	0.796531
C107	C	1.003906	0.185907	0.603901
C108	C	1.503906	0.685907	1.103901
C109	C	1.003917	0.185913	0.703564
C110	C	1.503917	0.685913	1.203564
C111	C	1.126381	0.063529	0.703550
C112	C	1.626381	0.563529	1.203550
C113	C	1.126371	0.063524	0.603894
C114	C	1.626371	0.563524	1.103894
C115	C	1.065132	0.124716	0.554073
C116	C	1.565132	0.624716	1.054073
H117	H	0.358079	-0.028574	0.000035
H118	H	0.858079	0.471426	0.500035
H119	H	0.954007	0.235720	0.255967
H120	H	1.454007	0.735720	0.755967
F121	F	1.063317	-0.472332	-0.264421
F122	F	1.563317	0.027668	0.235579
H123	H	0.954036	0.235733	0.563340
H124	H	1.454036	0.735733	1.063340
H125	H	0.954061	0.235741	0.744134
H126	H	1.454061	0.735741	1.244134
H127	H	1.069456	-0.148915	-0.156550
H128	H	1.569456	0.351085	0.343450
H129	H	1.060835	-0.601639	-0.156536
H130	H	1.560835	-0.101639	0.343464
F131	F	1.191537	-0.001597	0.550856
F132	F	1.691537	0.498403	1.050856
F133	F	1.191508	-0.001608	0.243494
F134	F	1.691508	0.498392	0.743494
H135	H	1.066773	-0.289953	-0.242847
H136	H	1.566773	0.210047	0.257153
H137	H	0.680389	-0.104755	0.000016
H138	H	1.180389	0.395245	0.500016
H139	H	0.772176	0.277995	0.000047
H140	H	1.272176	0.777995	0.500047
H141	H	1.176206	0.013694	0.436744
H142	H	1.676206	0.513694	0.936744
H143	H	0.810803	-0.019956	0.000016
H144	H	1.310803	0.480044	0.500016
F145	F	0.500671	-0.128759	0.000032
F146	F	1.000671	0.371241	0.500032
H147	H	0.620476	0.357431	0.000061
H148	H	1.120476	0.857431	0.500061
H149	H	0.449869	0.354207	0.000063
H150	H	0.949869	0.854207	0.500063
H151	H	0.954026	0.235721	0.436768
H152	H	1.454026	0.735721	0.936768
H153	H	1.176244	0.013705	0.744120
H154	H	1.676244	0.513705	1.244120
H155	H	1.060789	-0.601649	0.156609
H156	H	1.560789	-0.101649	0.656609
F157	F	0.305035	0.289703	0.000071
F158	F	0.805035	0.789703	0.500071
F159	F	1.063224	-0.472354	0.264494
F160	F	1.563224	0.027646	0.764494
H161	H	1.066718	-0.289996	0.242932
H162	H	1.566718	0.210004	0.742932
F163	F	1.069635	-0.137174	0.178193
F164	F	1.569635	0.362826	0.678193
