data_functionalizedCrystal
_audit_creation_method	'MofGen! by Chris Wilmer'
_symmetry_space_group_name_H-M	'P1'
_symmetry_Int_Tables_number	1
_symmetry_cell_setting	triclinic
loop_
_symmetry_equiv_pos_as_xyz
  x,y,z
_cell_length_a	10.654537
_cell_length_b	13.596369
_cell_length_c	10.654555
_cell_angle_alpha	89.996723
_cell_angle_beta	95.514234
_cell_angle_gamma	90.004919
loop_
_atom_site_label
_atom_site_type_symbol
_atom_site_fract_x
_atom_site_fract_y
_atom_site_fract_z
O1	O	-1.667857	-0.081765	0.176357
O2	O	-1.302378	-0.081771	0.193172
O3	O	-1.493513	-0.081768	0.002026
O4	O	-1.476722	-0.081769	0.367503
O5	O	-1.493492	0.081815	0.002016
O6	O	-1.302356	0.081812	0.193163
O7	O	-1.667836	0.081818	0.176347
Zn8	Zn	-1.485093	0.107787	0.184753
Zn9	Zn	-1.485121	-0.107740	0.184766
O10	O	-1.476700	0.081814	0.367494
C11	C	-1.255569	0.000020	0.191935
C12	C	-1.116125	0.000017	0.188246
N13	N	-1.485083	0.254879	0.184744
C14	C	-1.088163	0.000005	0.416810
C15	C	-1.008673	-0.000005	0.529354
C16	C	-0.877655	-0.000006	0.525881
C17	C	-0.826125	0.000007	0.409851
C18	C	-0.905615	0.000017	0.297307
C19	C	-1.036635	0.000014	0.300793
C20	C	-0.933576	0.000037	0.068746
C21	C	-1.064595	0.000030	0.072217
C22	C	-0.882046	0.000049	-0.047283
C23	C	-0.961536	0.000052	-0.159830
C24	C	-1.092562	0.000051	-0.156352
C25	C	-1.144085	0.000040	-0.040327
C26	C	-1.485110	0.656170	0.184771
C27	C	-1.485099	0.544518	0.184768
C28	C	-1.485097	0.455528	0.184759
C29	C	-1.485084	0.343869	0.184753
C30	C	-0.714644	0.000026	0.177589
C31	C	-0.854086	0.000027	0.181290
C32	C	-1.492266	0.000022	-0.044777
C33	C	-1.488569	0.000015	-0.184219
N34	N	-1.485128	0.745168	0.184770
C35	C	-1.481606	0.178366	-0.446260
C36	C	-1.483326	0.267536	-0.380751
C37	C	-1.486794	0.267537	-0.249732
C38	C	-1.488539	0.178356	-0.184219
C39	C	-1.486820	0.089186	-0.249729
C40	C	-1.483355	0.089195	-0.380751
C41	C	-1.486849	-0.089155	-0.249728
C42	C	-1.483390	-0.089158	-0.380748
C43	C	-1.488594	-0.178335	-0.184216
C44	C	-1.486884	-0.267508	-0.249726
C45	C	-1.483416	-0.267505	-0.380753
C46	C	-1.481670	-0.178328	-0.446258
C47	C	-1.477947	0.000023	0.414296
C48	C	-1.481644	0.000023	0.553739
H49	H	-1.050644	-0.000013	0.623824
C50	C	-0.701994	-0.084038	-0.114502
C51	C	-0.738029	0.000047	-0.051108
H52	H	-0.613084	-0.084037	-0.116870
H53	H	-0.726475	-0.141075	-0.071508
H54	H	-0.741969	-0.084017	-0.198130
H55	H	-0.698061	0.000022	0.032524
H56	H	-0.713534	0.057099	-0.094099
C57	C	-1.339393	-0.084049	-0.097566
C58	C	-1.288101	0.000037	-0.036500
H59	H	-1.428302	-0.084050	-0.095191
H60	H	-1.320090	-0.084031	-0.182763
H61	H	-1.304587	-0.141092	-0.056143
H62	H	-1.322901	0.057080	-0.077929
H63	H	-1.307416	0.000028	0.048713
C64	C	-1.476705	-0.275421	-0.633946
C65	C	-1.477851	-0.178324	-0.590275
H66	H	-1.474349	-0.275413	-0.722857
H67	H	-1.404392	-0.308348	-0.595366
H68	H	-1.550610	-0.308347	-0.613247
H69	H	-1.403940	-0.145399	-0.610965
H70	H	-1.550170	-0.145383	-0.628868
H71	H	-1.194844	-0.000017	0.419650
C72	C	-1.493565	-0.275443	0.003468
C73	C	-1.492401	-0.178340	-0.040197
H74	H	-1.495908	-0.275445	0.092380
H75	H	-1.565890	-0.308364	-0.035105
H76	H	-1.419671	-0.308367	-0.017243
H77	H	-1.566299	-0.145417	-0.019494
H78	H	-1.420068	-0.145405	-0.001611
H79	H	-1.488296	-0.340111	-0.196374
H80	H	-1.491349	0.178365	-0.077535
C81	C	-1.590012	0.419559	-0.434254
C82	C	-1.481412	0.365564	-0.452758
H83	H	-1.588822	0.480079	-0.478698
H84	H	-1.662544	0.382923	-0.464670
H85	H	-1.592308	0.432306	-0.346843
H86	H	-1.479121	0.352811	-0.540168
H87	H	-1.408861	0.402207	-0.422348
H88	H	-0.812933	-0.000007	0.617524
H89	H	-0.719442	0.000019	0.407033
H90	H	-1.482006	-0.340118	-0.434081
H91	H	-1.157277	0.000063	-0.248000
C92	C	-0.945028	-0.084023	-0.355723
C93	C	-0.904896	0.000066	-0.287360
H94	H	-0.910062	-0.084010	-0.434459
H95	H	-0.917807	-0.141057	-0.309338
H96	H	-1.034434	-0.084018	-0.369754
H97	H	-0.815489	0.000057	-0.273321
H98	H	-0.932109	0.057115	-0.333756
C99	C	-1.476635	0.275469	-0.633948
C100	C	-1.477802	0.178368	-0.590279
H101	H	-1.474279	0.275469	-0.722859
H102	H	-1.550519	0.308392	-0.613245
H103	H	-1.404300	0.308393	-0.595367
H104	H	-1.550142	0.145446	-0.628853
H105	H	-1.403910	0.145430	-0.610993
C106	C	-1.380045	0.419534	-0.196200
C107	C	-1.488670	0.365550	-0.177709
H108	H	-1.381205	0.480044	-0.151738
H109	H	-1.307530	0.382882	-0.165797
H110	H	-1.377746	0.432302	-0.283608
H111	H	-1.490964	0.352775	-0.090302
H112	H	-1.561204	0.402210	-0.208106
