data_functionalizedCrystal
_audit_creation_method	'MofGen! by Chris Wilmer'
_symmetry_space_group_name_H-M	'P1'
_symmetry_Int_Tables_number	1
_symmetry_cell_setting	triclinic
loop_
_symmetry_equiv_pos_as_xyz
  x,y,z
_cell_length_a	17.038275
_cell_length_b	16.098662
_cell_length_c	17.038272
_cell_angle_alpha	92.863855
_cell_angle_beta	88.888330
_cell_angle_gamma	87.130498
loop_
_atom_site_label
_atom_site_type_symbol
_atom_site_fract_x
_atom_site_fract_y
_atom_site_fract_z
O1	O	-1.052091	0.069135	0.173862
O2	O	-0.824281	0.069163	0.171155
O3	O	-0.936832	0.069143	0.058602
O4	O	-0.939541	0.069156	0.286414
O5	O	-0.930136	-0.069367	0.051941
O6	O	-0.817585	-0.069347	0.164493
O7	O	-1.045395	-0.069375	0.167200
Zn8	Zn	-0.930427	-0.091352	0.164789
Zn9	Zn	-0.939249	0.091141	0.173566
O10	O	-0.932844	-0.069354	0.279753
C11	C	-0.791641	-0.000088	0.165361
C12	C	-0.704358	-0.000078	0.158013
C13	C	-0.658749	-0.000074	0.225477
C14	C	-0.576736	-0.000084	0.218568
C15	C	-0.540335	-0.000093	0.144194
C16	C	-0.585950	-0.000099	0.076725
C17	C	-0.667960	-0.000095	0.083635
C18	C	-0.292946	-0.000113	0.119782
C19	C	-0.210929	-0.000115	0.112877
C20	C	-0.201721	-0.000102	0.254720
C21	C	-0.283734	-0.000092	0.261624
C22	C	-0.329342	-0.000103	0.194155
C23	C	-0.456505	-0.000101	0.137129
C24	C	-0.413169	-0.000100	0.201220
N25	N	-0.924412	-0.215899	0.158799
C26	C	-0.931021	-0.000112	0.025979
C27	C	-0.923673	-0.000111	-0.061305
C28	C	-0.078036	-0.000118	0.172993
C29	C	-0.165320	-0.000111	0.180341
C30	C	-0.896579	-0.740707	0.130834
C31	C	-0.900784	-0.653520	0.135055
C32	C	-0.953677	-0.609940	0.187996
C33	C	-1.002373	-0.653551	0.236714
C34	C	-0.998172	-0.740736	0.232489
C35	C	-0.968907	-0.346696	0.203292
C36	C	-0.973103	-0.259504	0.207515
C37	C	-0.871514	-0.259480	0.105854
C38	C	-0.867314	-0.346667	0.101637
C39	C	-0.916014	-0.390270	0.150352
C40	C	-0.957974	-0.520820	0.192313
C41	C	-0.911720	-0.479388	0.146031
N42	N	-0.945271	0.215687	0.179550
C43	C	-0.991136	-0.000120	-0.106914
C44	C	-0.984228	-0.000111	-0.188926
C45	C	-0.909855	-0.000099	-0.225327
C46	C	-0.842387	-0.000087	-0.179711
C47	C	-0.849297	-0.000090	-0.097701
C48	C	-0.885445	-0.000085	-0.472714
C49	C	-0.878541	-0.000084	-0.554730
C50	C	-1.020382	-0.000106	-0.563940
C51	C	-1.027285	-0.000114	-0.481928
C52	C	-0.959817	-0.000098	-0.436319
C53	C	-0.902792	-0.000093	-0.309156
C54	C	-0.966882	-0.000099	-0.352491
C55	C	-0.938655	-0.000098	0.312376
C56	C	-0.946004	-0.000094	0.399660
H57	H	-0.330070	-0.000122	0.064843
Cl58	Cl	-1.030124	-0.401500	0.264540
Cl59	Cl	-0.839546	-0.598706	0.073832
H60	H	-0.868657	-0.514875	0.102924
H61	H	-0.824245	-0.382144	0.058526
Cl62	Cl	-1.024464	-0.466026	0.258867
Cl63	Cl	-0.519402	-0.000074	0.303384
Cl64	Cl	-0.410736	-0.000108	0.043634
Cl65	Cl	-1.084638	-0.000143	-0.061162
H66	H	-0.181294	-0.000121	0.052310
Cl67	Cl	-0.540187	-0.000115	-0.016775
H68	H	-1.027436	-0.000090	-0.322849
H69	H	-0.830508	-0.000072	-0.435589
Cl70	Cl	-0.809297	-0.000073	-0.354923
Cl71	Cl	-1.059390	-0.795554	0.293731
Cl72	Cl	-0.830079	-0.795486	0.064280
Cl73	Cl	-1.069043	-0.000125	-0.246261
H74	H	-0.781831	-0.000072	-0.209355
Cl75	Cl	-0.725298	-0.000103	-0.001181
H76	H	-0.831867	-0.223968	0.066193
H77	H	-1.087847	-0.000124	-0.452296
Cl78	Cl	-0.458933	-0.000092	0.294715
H79	H	-0.794361	-0.000083	-0.060566
H80	H	-0.688380	-0.000066	0.286040
H81	H	-1.016173	-0.224023	0.250631
H82	H	-1.045443	-0.618060	0.279816
H83	H	-0.313367	-0.000075	0.322187
H84	H	-0.164579	-0.000095	0.309649
Cl85	Cl	-0.785036	-0.000074	-0.600490
Cl86	Cl	-1.105193	-0.000124	-0.621281
