data_functionalizedCrystal
_audit_creation_method	'MofGen! by Chris Wilmer'
_symmetry_space_group_name_H-M	'P1'
_symmetry_Int_Tables_number	1
_symmetry_cell_setting	triclinic
loop_
_symmetry_equiv_pos_as_xyz
  x,y,z
_cell_length_a	12.759401
_cell_length_b	12.759398
_cell_length_c	12.759393
_cell_angle_alpha	90.027790
_cell_angle_beta	89.982824
_cell_angle_gamma	89.968306
loop_
_atom_site_label
_atom_site_type_symbol
_atom_site_fract_x
_atom_site_fract_y
_atom_site_fract_z
Zn1	Zn	1.606119	0.418209	-0.594002
Zn2	Zn	1.605966	0.593925	-0.418331
Zn3	Zn	1.430425	0.418262	-0.418342
Zn4	Zn	1.430358	0.593847	-0.593973
O5	O	1.518217	0.506061	-0.506162
O6	O	1.753120	0.441529	-0.570707
O7	O	1.582644	0.570678	-0.271311
O8	O	1.453823	0.271234	-0.441660
O9	O	1.753007	0.570627	-0.441642
O10	O	1.582905	0.271195	-0.570717
O11	O	1.453675	0.441618	-0.271319
O12	O	1.283395	0.441543	-0.441631
O13	O	1.453709	0.570494	-0.740998
O14	O	1.283346	0.570545	-0.570667
O15	O	1.582840	0.441454	-0.741019
O16	O	1.582579	0.740936	-0.441614
O17	O	1.453560	0.740879	-0.570657
C18	C	1.245249	0.506042	-0.506148
C19	C	1.128473	0.506059	-0.506166
C20	C	1.073613	0.573338	-0.573244
C21	C	0.963889	0.573351	-0.573255
C22	C	0.963895	0.438803	-0.439103
C23	C	1.073617	0.438786	-0.439097
C24	C	1.073608	0.651021	-0.650693
C25	C	0.963884	0.651034	-0.650704
C26	C	1.518074	0.779028	-0.506154
C27	C	1.518109	0.895805	-0.506185
C28	C	1.451018	1.060507	-0.438986
C29	C	1.450977	0.950783	-0.438955
C30	C	1.585279	0.950557	-0.573459
C31	C	1.585314	1.060279	-0.573494
C32	C	1.373483	1.060636	-0.361328
C33	C	1.373442	0.950912	-0.361297
C34	C	1.792250	0.506081	-0.506177
C35	C	1.909027	0.506090	-0.506183
C36	C	1.518284	0.505959	-0.780195
C37	C	1.518313	0.505916	-0.896972
C38	C	1.518319	1.232028	-0.506205
C39	C	1.518185	1.115251	-0.506252
C40	C	1.451097	0.573076	-0.951824
C41	C	1.451135	0.573038	-1.061549
C42	C	1.585609	0.438671	-1.061558
C43	C	1.585575	0.438715	-0.951836
C44	C	1.373456	0.650648	-0.951820
C45	C	1.373495	0.650610	-1.061544
C46	C	1.518210	0.506086	-0.233194
C47	C	1.518385	0.505834	-0.116418
H48	H	1.103421	0.629323	-0.732099
H49	H	1.118280	0.383994	-0.384483
H50	H	1.639933	0.905787	-0.628206
C51	C	1.658179	1.119578	-0.646700
C52	C	1.635247	1.092802	-0.750619
C53	C	1.702363	1.147394	-0.818086
H54	H	1.648659	1.192814	-0.637240
H55	H	1.728789	1.101518	-0.631444
H56	H	1.564654	1.110869	-0.765870
H57	H	1.644773	1.019575	-0.760113
H58	H	1.772973	1.129334	-0.802829
H59	H	1.692838	1.220628	-0.808616
H60	H	1.686820	1.129228	-0.888601
H61	H	1.296115	0.916927	-0.390361
H62	H	1.640371	0.383959	-1.106242
H63	H	0.934065	0.732383	-0.628776
H64	H	0.929893	0.621991	-0.728055
C65	C	1.270508	0.611607	-0.906372
C66	C	1.289240	0.522825	-0.844696
C67	C	1.194430	0.486821	-0.802822
H68	H	1.239973	0.665014	-0.864393
H69	H	1.224026	0.593981	-0.961793
H70	H	1.335705	0.540454	-0.789283
H71	H	1.319760	0.469396	-0.886651
H72	H	1.147947	0.469195	-0.858242
H73	H	1.163902	0.540235	-0.760848
H74	H	1.207125	0.426573	-0.760978
C75	C	1.119006	0.753926	-0.611469
C76	C	1.180667	0.735119	-0.522689
C77	C	1.222495	0.829890	-0.486518
H78	H	1.160987	0.784470	-0.664810
H79	H	1.063563	0.800426	-0.593795
H80	H	1.236102	0.688637	-0.540366
H81	H	1.138709	0.704590	-0.469327
H82	H	1.167052	0.876389	-0.468844
H83	H	1.264471	0.860427	-0.539865
H84	H	1.264328	0.817144	-0.426272
H85	H	1.640319	0.384038	-0.907179
H86	H	1.395199	0.732029	-0.922037
H87	H	1.292149	0.628793	-1.091326
H88	H	1.402686	1.094706	-0.284072
C89	C	0.904144	0.365892	-0.366317
C90	C	0.796311	0.380324	-0.380658
C91	C	0.741240	0.313189	-0.313611
H92	H	0.922032	0.295273	-0.381738
H93	H	0.922035	0.381197	-0.295678
H94	H	0.778428	0.365012	-0.451281
H95	H	0.778392	0.450930	-0.365229
H96	H	0.759131	0.328494	-0.242972
H97	H	0.759136	0.242574	-0.329038
H98	H	0.668070	0.322979	-0.323325
C99	C	1.264931	1.100216	-0.390377
C100	C	1.198493	1.014732	-0.408110
C101	C	1.098495	1.051152	-0.434886
H102	H	1.237804	1.141621	-0.334732
H103	H	1.269291	1.141491	-0.452175
H104	H	1.194130	0.973474	-0.346319
H105	H	1.225586	0.973318	-0.463759
H106	H	1.102856	1.092428	-0.496684
H107	H	1.071379	1.092557	-0.379237
H108	H	1.053408	0.993158	-0.446931
C109	C	1.402619	0.911462	-0.252760
C110	C	1.420508	0.997024	-0.186401
C111	C	1.447397	0.960724	-0.086418
H112	H	1.346981	0.870201	-0.225529
H113	H	1.464380	0.870069	-0.257180
H114	H	1.358754	1.038400	-0.181977
H115	H	1.476150	1.038294	-0.213598
H116	H	1.509159	0.919331	-0.090838
H117	H	1.391755	0.919463	-0.059198
H118	H	1.459547	1.018771	-0.041384
H119	H	1.402598	0.727898	-1.095567
