data_functionalizedCrystal
_audit_creation_method	'MofGen! by Chris Wilmer'
_symmetry_space_group_name_H-M	'P1'
_symmetry_Int_Tables_number	1
_symmetry_cell_setting	triclinic
loop_
_symmetry_equiv_pos_as_xyz
  x,y,z
_cell_length_a	10.489746
_cell_length_b	10.489741
_cell_length_c	10.268362
_cell_angle_alpha	90.001054
_cell_angle_beta	90.001713
_cell_angle_gamma	84.540238
loop_
_atom_site_label
_atom_site_type_symbol
_atom_site_fract_x
_atom_site_fract_y
_atom_site_fract_z
O1	O	1.694051	0.179993	0.108212
O2	O	1.322856	0.196879	0.108234
O3	O	1.516900	0.002838	0.108215
O4	O	1.500007	0.374034	0.108231
O5	O	1.516881	0.002845	-0.108386
O6	O	1.322837	0.196886	-0.108367
O7	O	1.694032	0.180000	-0.108389
Cu8	Cu	1.508433	0.188443	-0.128155
Cu9	Cu	1.508455	0.188435	0.128000
O10	O	1.499988	0.374040	-0.108370
C11	C	1.275315	0.195606	-0.000064
C12	C	1.133686	0.191786	-0.000056
C13	C	0.980828	0.066062	-0.000080
C14	C	1.058213	0.128922	-0.106869
C15	C	1.058187	0.128945	0.106683
C16	C	0.958721	0.247904	-0.106965
C17	C	0.958690	0.247909	0.106682
C18	C	1.036025	0.310856	-0.000133
C19	C	1.515614	-0.044690	-0.000085
C20	C	1.511797	-0.186320	-0.000082
C21	C	1.388333	-0.254462	-0.000066
C22	C	1.446647	-0.346580	-0.106864
C23	C	1.446695	-0.346561	0.106687
C24	C	1.570162	-0.276572	-0.106969
C25	C	1.570193	-0.276544	0.106678
C26	C	1.628597	-0.368635	-0.000147
C27	C	1.741573	0.181273	-0.000088
C28	C	1.883202	0.185093	-0.000088
C29	C	1.501273	0.421569	-0.000067
C30	C	1.505091	0.563198	-0.000061
N31	N	1.508427	0.188448	-0.308321
C32	C	1.508436	0.188449	-0.426163
C33	C	1.508452	0.188437	-0.574001
N34	N	1.508471	0.188421	0.308166
H35	H	0.956107	-0.037439	-0.000192
C36	C	0.951828	0.253800	-0.340626
C37	C	0.900308	0.315689	-0.228996
H38	H	0.915771	0.295650	-0.415961
H39	H	0.932587	0.167133	-0.340319
H40	H	1.042068	0.256665	-0.341310
H41	H	0.810069	0.312815	-0.228307
H42	H	0.919540	0.402378	-0.229303
H43	H	1.060501	0.414436	-0.000187
H44	H	1.101681	0.078676	-0.197158
C45	C	0.950395	0.253125	0.340302
C46	C	0.899959	0.315676	0.228570
H47	H	0.914129	0.294951	0.415556
H48	H	1.040693	0.255366	0.341616
H49	H	0.930549	0.166638	0.339516
H50	H	0.919814	0.402161	0.229352
H51	H	0.809641	0.313448	0.227256
C52	C	1.232557	-0.111671	0.111708
C53	C	1.251298	-0.187436	-0.000187
H54	H	1.147956	-0.070301	0.111631
H55	H	1.292310	-0.049092	0.112525
H56	H	1.244674	-0.164247	0.186854
H57	H	1.239190	-0.134859	-0.075334
H58	H	1.191527	-0.250023	-0.001016
H59	H	1.101637	0.078671	0.196967
C60	C	1.374314	-0.521757	-0.228018
C61	C	1.376120	-0.388457	-0.228743
H62	H	1.330775	-0.547604	-0.303262
H63	H	1.331278	-0.546867	-0.152187
H64	H	1.459671	-0.561202	-0.228137
H65	H	1.290763	-0.349011	-0.228614
H66	H	1.419155	-0.363334	-0.304594
H67	H	1.622350	-0.245736	-0.197361
C68	C	1.830061	-0.400046	-0.112147
C69	C	1.765750	-0.435370	-0.000232
H70	H	1.914728	-0.441255	-0.112205
H71	H	1.833221	-0.309857	-0.112857
H72	H	1.785856	-0.425092	-0.187281
H73	H	1.809949	-0.410315	0.074902
H74	H	1.762596	-0.525579	0.000490
C75	C	1.575842	-0.269567	0.340297
C76	C	1.640665	-0.234619	0.228561
H77	H	1.619338	-0.243673	0.415549
H78	H	1.573254	-0.359823	0.341609
H79	H	1.490974	-0.228887	0.339521
H80	H	1.725530	-0.275307	0.229334
H81	H	1.643266	-0.144346	0.227250
C82	C	1.374332	-0.521687	0.227889
C83	C	1.376160	-0.388388	0.228576
H84	H	1.330773	-0.547500	0.303130
H85	H	1.459671	-0.561143	0.228030
H86	H	1.331291	-0.546814	0.152049
H87	H	1.419210	-0.363262	0.304412
H88	H	1.290805	-0.348918	0.228447
