data_functionalizedCrystal
_audit_creation_method	'MofGen! by Chris Wilmer'
_symmetry_space_group_name_H-M	'P1'
_symmetry_Int_Tables_number	1
_symmetry_cell_setting	triclinic
loop_
_symmetry_equiv_pos_as_xyz
  x,y,z
_cell_length_a	14.044220
_cell_length_b	14.044190
_cell_length_c	17.766277
_cell_angle_alpha	89.989261
_cell_angle_beta	89.995720
_cell_angle_gamma	93.190328
loop_
_atom_site_label
_atom_site_type_symbol
_atom_site_fract_x
_atom_site_fract_y
_atom_site_fract_z
O1	O	1.277180	0.230170	-0.062529
O2	O	1.000509	0.221865	-0.062548
O3	O	1.134688	0.087681	-0.062524
O4	O	1.143001	0.364354	-0.062553
O5	O	1.134662	0.087672	0.062664
O6	O	1.000482	0.221855	0.062641
O7	O	1.277154	0.230161	0.062659
Cu8	Cu	1.138816	0.226007	0.074081
Cu9	Cu	1.138847	0.226018	-0.073969
O10	O	1.142975	0.364344	0.062635
C11	C	0.964874	0.218224	0.000044
C12	C	0.858731	0.207380	0.000038
C13	C	1.131039	0.052054	0.000072
C14	C	1.120191	-0.054089	0.000078
C15	C	0.664392	0.187553	0.000055
C16	C	0.613264	0.264468	0.000050
C17	C	0.505128	0.253436	0.000059
C18	C	0.772539	0.198583	0.000045
C19	C	1.177292	-0.299547	0.000052
C20	C	1.100375	-0.248422	0.000052
C21	C	1.111404	-0.140285	0.000067
C22	C	1.166265	-0.407694	0.000038
C23	C	1.312789	0.233801	0.000065
C24	C	1.418932	0.244646	0.000067
C25	C	1.146624	0.399971	0.000037
C26	C	1.157472	0.506114	0.000027
N27	N	1.138801	0.225999	0.178211
N28	N	1.138869	0.226020	-0.178100
C29	C	1.198239	0.166616	0.217608
C30	C	1.198244	0.166612	0.296410
C31	C	1.138822	0.226008	0.335811
C32	C	1.079371	0.285395	0.296404
C33	C	1.079361	0.285390	0.217604
C34	C	1.133667	0.311900	0.460640
C35	C	1.133684	0.311906	0.539439
C36	C	1.138848	0.226022	0.578858
C37	C	1.144015	0.140129	0.539468
C38	C	1.144005	0.140125	0.460668
C39	C	1.138826	0.226019	0.421257
C40	C	1.198295	0.166630	0.703701
C41	C	1.198294	0.166624	0.782504
C42	C	1.079426	0.285415	0.782497
C43	C	1.079422	0.285413	0.703696
C44	C	1.138862	0.226021	0.664302
H45	H	0.650706	0.338602	0.000038
O46	O	1.262372	0.102559	0.661193
H47	H	1.337834	0.121037	0.676298
O48	O	1.149320	0.047459	0.418187
H49	H	1.148360	0.061880	0.356771
O50	O	1.015240	0.349437	0.175110
H51	H	1.025210	0.339448	0.113696
O52	O	0.614810	0.089357	0.000065
H53	H	0.536425	0.095994	0.000063
O54	O	1.015338	0.349499	0.824971
H55	H	0.965537	0.305380	0.860895
O56	O	1.015325	0.349473	0.661194
H57	H	0.974011	0.390782	0.701829
H58	H	1.251418	-0.262106	0.000065
H59	H	1.026243	-0.285865	0.000043
H60	H	1.246636	0.118254	0.185537
H61	H	1.246648	0.118254	0.328493
H62	H	1.148220	0.070194	0.571562
O63	O	1.262416	0.102584	0.825004
H64	H	1.303753	0.061298	0.784369
O65	O	1.128130	0.404543	0.581922
H66	H	1.124524	0.464261	0.541275
O67	O	1.128103	0.404538	0.418125
H68	H	1.124530	0.464264	0.458751
O69	O	1.015283	0.349466	0.338895
H70	H	1.025284	0.339502	0.400309
