data_functionalizedCrystal
_audit_creation_method	'MofGen! by Chris Wilmer'
_symmetry_space_group_name_H-M	'P1'
_symmetry_Int_Tables_number	1
_symmetry_cell_setting	triclinic
loop_
_symmetry_equiv_pos_as_xyz
  x,y,z
_cell_length_a	12.645330
_cell_length_b	13.032831
_cell_length_c	13.032268
_cell_angle_alpha	90.886977
_cell_angle_beta	82.848687
_cell_angle_gamma	97.177187
loop_
_atom_site_label
_atom_site_type_symbol
_atom_site_fract_x
_atom_site_fract_y
_atom_site_fract_z
Zn1	Zn	-0.715929	-1.498478	0.780858
Zn2	Zn	-0.873876	-1.520220	0.608884
Zn3	Zn	-0.671644	-1.348336	0.587098
Zn4	Zn	-0.868144	-1.326468	0.759009
O5	O	-0.782398	-1.423375	0.683962
O6	O	-0.757814	-1.645282	0.776307
O7	O	-0.830915	-1.515670	0.462076
O8	O	-0.529182	-1.368306	0.612827
O9	O	-0.873856	-1.661256	0.649958
O10	O	-0.561718	-1.478614	0.755182
O11	O	-0.682336	-1.389388	0.446071
O12	O	-0.676778	-1.201515	0.591641
O13	O	-0.864087	-1.331034	0.905824
O14	O	-0.821146	-1.185448	0.717943
O15	O	-0.752256	-1.457409	0.921877
O16	O	-1.021452	-1.494465	0.628771
O17	O	-1.017241	-1.352116	0.739067
C18	C	-0.743535	-1.156164	0.650057
C19	C	-0.726938	-1.041847	0.635577
C20	C	-1.057816	-1.423302	0.683938
C21	C	-1.175658	-1.423360	0.683974
C22	C	-0.812472	-1.389357	0.952210
C23	C	-0.825288	-1.374860	1.066522
C24	C	-1.340692	-1.334105	0.753648
C25	C	-1.218045	-1.333733	0.753341
C26	C	-1.203807	-1.407793	0.571873
C27	C	-1.326389	-1.407248	0.572295
C28	C	-1.361707	-1.528779	0.725584
C29	C	-1.239270	-1.527810	0.727870
C30	C	-0.505912	-1.423474	0.684012
C31	C	-0.388090	-1.423516	0.684033
C32	C	-0.821414	-1.691630	0.718000
C33	C	-0.838040	-1.805944	0.732505
C34	C	-0.791061	-0.982971	0.691519
C35	C	-0.773908	-0.864818	0.676555
C36	C	-0.752374	-1.457320	0.416765
C37	C	-0.739288	-1.472016	0.302479
C38	C	-0.775669	-1.430925	1.125428
C39	C	-0.788914	-1.415944	1.243575
H40	H	-1.199591	-1.341878	0.836032
H41	H	-1.159066	-1.332138	0.537955
Br42	Br	-1.146325	-1.203199	0.705654
H43	H	-0.659337	-1.004781	0.576608
Br44	Br	-0.950699	-0.867701	0.830827
H45	H	-0.723380	-1.490012	1.088392
H46	H	-0.686993	-1.531105	1.265449
Br47	Br	-1.369408	-1.204364	0.706481
H48	H	-0.841195	-1.356842	1.280605
Br49	Br	-0.903735	-1.044739	0.789813
H50	H	-0.706302	-0.827756	0.617582
Br51	Br	-0.912427	-1.276360	1.128238
Br52	Br	-1.409223	-1.347335	0.891882
Br53	Br	-1.377710	-1.512313	0.481654
Br54	Br	-1.350546	-1.279682	0.516296
H55	H	-1.405172	-1.545671	0.806666
Br56	Br	-1.210990	-1.547800	0.865492
Br57	Br	-1.157338	-1.513908	0.482045
H58	H	-1.392760	-1.595223	0.675049
Br59	Br	-1.193164	-1.642855	0.651351
