data_functionalizedCrystal
_audit_creation_method	'MofGen! by Chris Wilmer'
_symmetry_space_group_name_H-M	'P1'
_symmetry_Int_Tables_number	1
_symmetry_cell_setting	triclinic
loop_
_symmetry_equiv_pos_as_xyz
  x,y,z
_cell_length_a	14.853568
_cell_length_b	13.330367
_cell_length_c	14.853569
_cell_angle_alpha	89.994190
_cell_angle_beta	83.635503
_cell_angle_gamma	89.995730
loop_
_atom_site_label
_atom_site_type_symbol
_atom_site_fract_x
_atom_site_fract_y
_atom_site_fract_z
O1	O	-1.196369	0.083350	-0.117709
O2	O	-0.696369	0.583350	0.382291
O3	O	-0.933909	0.083369	-0.131729
O4	O	-0.433909	0.583369	0.368271
O5	O	-1.072149	0.083349	0.006511
O6	O	-0.572149	0.583349	0.506511
O7	O	-1.058129	0.083369	-0.255949
O8	O	-0.558129	0.583369	0.244051
O9	O	-1.072129	-0.083498	0.006514
O10	O	-0.572129	0.416502	0.506514
O11	O	-0.933889	-0.083478	-0.131726
O12	O	-0.433889	0.416522	0.368274
O13	O	-1.196349	-0.083497	-0.117706
O14	O	-0.696349	0.416503	0.382294
Cu15	Cu	-1.065117	-0.098722	-0.124716
Cu16	Cu	-0.565117	0.401278	0.375284
Cu17	Cu	-1.065141	0.098594	-0.124719
Cu18	Cu	-0.565141	0.598594	0.375281
O19	O	-1.058109	-0.083478	-0.255945
O20	O	-0.558109	0.416522	0.244055
C21	C	-0.900311	-0.000052	-0.131092
C22	C	-0.400311	0.499948	0.368908
C23	C	-0.800227	-0.000045	-0.129188
C24	C	-0.300227	0.499955	0.370812
C25	C	-0.377054	0.090888	-0.121135
C26	C	0.122946	0.590888	0.378865
C27	C	-0.377053	-0.091015	-0.121132
C28	C	0.122947	0.408985	0.378868
C29	C	-0.471087	-0.091012	-0.122920
C30	C	0.028913	0.408988	0.377080
C31	C	-0.518109	-0.000058	-0.123817
C32	C	-0.018109	0.499942	0.376183
C33	C	-0.471096	0.090894	-0.122926
C34	C	0.028904	0.590894	0.377074
C35	C	-0.518105	-0.181963	-0.123821
C36	C	-0.018105	0.318037	0.376179
C37	C	-0.612145	-0.181964	-0.125610
C38	C	-0.112145	0.318036	0.374390
C39	C	-0.659169	-0.091008	-0.126501
C40	C	-0.159169	0.408992	0.373499
C41	C	-0.612151	-0.000053	-0.125608
C42	C	-0.112151	0.499947	0.374392
C43	C	-0.659172	0.090901	-0.126505
C44	C	-0.159172	0.590901	0.373495
C45	C	-0.612157	0.181858	-0.125607
C46	C	-0.112157	0.681858	0.374393
C47	C	-0.518120	0.181849	-0.123817
C48	C	-0.018120	0.681849	0.376183
C49	C	-0.753206	-0.091000	-0.128291
C50	C	-0.253206	0.409000	0.371709
C51	C	-0.753215	0.090906	-0.128297
C52	C	-0.253215	0.590906	0.371703
N53	N	-1.065107	-0.237504	-0.124712
N54	N	-0.565107	0.262496	0.375288
C55	C	-1.003926	-0.710118	-0.185908
C56	C	-0.503926	-0.210118	0.314092
C57	C	-1.126380	-0.710103	-0.063524
C58	C	-0.626380	-0.210103	0.436476
C59	C	-1.126370	-0.605085	-0.063521
C60	C	-0.626370	-0.105085	0.436479
C61	C	-1.065138	-0.552578	-0.124713
C62	C	-0.565138	-0.052578	0.375287
C63	C	-1.003916	-0.605090	-0.185909
C64	C	-0.503916	-0.105090	0.314091
C65	C	-1.187597	-0.552566	-0.002333
C66	C	-0.687597	-0.052566	0.497667
C67	C	-1.187590	-0.447541	-0.002328
C68	C	-0.687590	0.052459	0.497672
C69	C	-1.126353	-0.395032	-0.063517
C70	C	-0.626353	0.104968	0.436483
C71	C	-1.065128	-0.447550	-0.124714
C72	C	-0.565128	0.052450	0.375286
C73	C	-1.003895	-0.395043	-0.185907
C74	C	-0.503895	0.104957	0.314093
C75	C	-0.942665	-0.447560	-0.247100
C76	C	-0.442665	0.052440	0.252900
C77	C	-0.942678	-0.552581	-0.247098
C78	C	-0.442678	-0.052581	0.252902
C79	C	-1.126340	-0.290011	-0.063520
C80	C	-0.626340	0.209989	0.436480
C81	C	-1.003885	-0.290015	-0.185908
C82	C	-0.503885	0.209985	0.314092
C83	C	-0.229948	-0.000072	-0.118341
C84	C	0.270052	0.499928	0.381659
C85	C	-0.330032	-0.000066	-0.120238
C86	C	0.169968	0.499934	0.379762
C87	C	-1.071504	-0.000075	0.040101
C88	C	-0.571504	0.499925	0.540101
C89	C	-1.069599	-0.000075	0.140185
C90	C	-0.569599	0.499925	0.640185
N91	N	-1.065158	0.237375	-0.124715
N92	N	-0.565158	0.737375	0.375285
C93	C	-1.058755	-0.000052	-0.289536
C94	C	-0.558755	0.499948	0.210464
C95	C	-1.060659	-0.000044	-0.389619
C96	C	-0.560659	0.499956	0.110381
C97	C	-0.986588	-0.000071	0.176561
C98	C	-0.486588	0.499929	0.676561
C99	C	-1.150821	-0.000072	0.197850
C100	C	-0.650821	0.499928	0.697850
C101	C	-1.149034	-0.000068	0.291884
C102	C	-0.649034	0.499932	0.791884
C103	C	-1.066024	-0.000064	0.328261
C104	C	-0.566024	0.499936	0.828261
C105	C	-0.984799	-0.000064	0.270604
C106	C	-0.484799	0.499936	0.770604
C107	C	-1.230257	-0.000057	0.349548
C108	C	-0.730257	0.499943	0.849548
C109	C	-1.228474	-0.000052	0.443589
C110	C	-0.728474	0.499948	0.943589
C111	C	-1.145462	-0.000055	0.479967
C112	C	-0.645462	0.499945	0.979967
C113	C	-1.064235	-0.000056	0.422304
C114	C	-0.564235	0.499944	0.922304
C115	C	-0.981224	-0.000052	0.458681
C116	C	-0.481224	0.499948	0.958681
C117	C	-0.899995	-0.000060	0.401019
C118	C	-0.399995	0.499940	0.901019
C119	C	-0.901787	-0.000067	0.306983
C120	C	-0.401787	0.499933	0.806983
C121	C	-1.143670	-0.000048	0.574004
C122	C	-0.643670	0.499952	1.074004
C123	C	-0.979435	-0.000044	0.552723
C124	C	-0.479435	0.499956	1.052723
H125	H	-0.650418	-0.256026	-0.126340
H126	H	-0.150418	0.243974	0.373660
N127	N	-0.467413	0.279944	-0.122845
N128	N	0.032587	0.779944	0.377155
H129	H	-0.400706	0.266137	-0.121577
H130	H	0.099294	0.766137	0.378423
H131	H	-0.476612	0.319670	-0.179000
H132	H	0.023388	0.819670	0.321000
N133	N	-1.253618	-0.609213	0.063668
N134	N	-0.753618	-0.109213	0.563668
H135	H	-1.243150	-0.590943	0.127671
H136	H	-0.743150	-0.090943	0.627671
H137	H	-1.317590	-0.590923	0.053101
H138	H	-0.817590	-0.090923	0.553101
N139	N	-1.316079	-0.000050	0.505777
N140	N	-0.816079	0.499950	1.005777
H141	H	-1.368936	-0.000054	0.468462
H142	H	-0.868936	0.499946	0.968462
H143	H	-1.318906	-0.061904	0.545261
H144	H	-0.818906	0.438096	1.045261
N145	N	-0.803919	0.189015	-0.129264
N146	N	-0.303919	0.689015	0.370736
H147	H	-0.835695	0.193080	-0.185851
H148	H	-0.335695	0.693080	0.314149
H149	H	-0.850129	0.193008	-0.074129
H150	H	-0.350129	0.693008	0.425871
H151	H	-1.297840	-0.000123	0.319923
H152	H	-0.797840	0.499877	0.819923
H153	H	-0.954018	-0.247271	-0.235735
H154	H	-0.454018	0.252729	0.264265
N155	N	-1.240348	-0.000090	0.158617
N156	N	-0.740348	0.499910	0.658617
H157	H	-1.244762	0.061753	0.120063
H158	H	-0.744762	0.561753	0.620063
H159	H	-1.244676	-0.061988	0.120131
H160	H	-0.744676	0.438012	0.620131
H161	H	-1.237446	-0.404789	0.047499
H162	H	-0.737446	0.095211	0.547499
N163	N	-1.192378	-0.233367	0.002466
N164	N	-0.692378	0.266633	0.502466
H165	H	-1.231173	-0.282566	0.041227
H166	H	-0.731173	0.217434	0.541227
H167	H	-1.157817	-0.189805	0.042391
H168	H	-0.657817	0.310195	0.542391
H169	H	-0.835656	-0.000071	0.260026
H170	H	-0.335656	0.499929	0.760026
H171	H	-0.911836	-0.000050	0.582333
H172	H	-0.411836	0.499950	1.082333
H173	H	-0.338770	0.164943	-0.120399
H174	H	0.161230	0.664943	0.379601
H175	H	-0.832408	-0.000051	0.430649
H176	H	-0.332408	0.499949	0.930649
N177	N	-0.898980	-0.000106	0.114378
N178	N	-0.398980	0.499894	0.614378
H179	H	-0.912704	-0.000121	0.049285
H180	H	-0.412704	0.499879	0.549285
H181	H	-0.862800	0.061742	0.126149
H182	H	-0.362800	0.561742	0.626149
H183	H	-0.650453	0.255913	-0.126343
H184	H	-0.150453	0.755913	0.373657
H185	H	-1.209805	-0.000032	0.620948
H186	H	-0.709805	0.499968	1.120948
N187	N	-0.326343	-0.189112	-0.120175
N188	N	0.173657	0.310888	0.379825
H189	H	-0.259486	-0.175321	-0.120139
H190	H	0.240514	0.324679	0.379861
H191	H	-0.349171	-0.228239	-0.064019
H192	H	0.150829	0.271761	0.435981
H193	H	-0.479813	-0.256012	-0.123097
H194	H	0.020187	0.243988	0.376903
H195	H	-0.892813	-0.404797	-0.296928
H196	H	-0.392813	0.095203	0.203072
N197	N	-0.803910	-0.189092	-0.129269
N198	N	-0.303910	0.310908	0.370731
H199	H	-0.794782	-0.228867	-0.073118
H200	H	-0.294782	0.271133	0.426882
H201	H	-0.870597	-0.175207	-0.130572
H202	H	-0.370597	0.324793	0.369428
N203	N	-0.876641	-0.609221	-0.313094
N204	N	-0.376641	-0.109221	0.186906
H205	H	-0.885944	-0.683719	-0.303809
H206	H	-0.385944	-0.183719	0.196191
H207	H	-0.887129	-0.590854	-0.377070
H208	H	-0.387129	-0.090854	0.122930
H209	H	-0.954070	-0.752879	-0.235728
H210	H	-0.454070	-0.252879	0.264272
H211	H	-1.176238	-0.752858	-0.013707
H212	H	-0.676238	-0.252858	0.486293
