data_functionalizedCrystal
_audit_creation_method	'MofGen! by Chris Wilmer'
_symmetry_space_group_name_H-M	'P1'
_symmetry_Int_Tables_number	1
_symmetry_cell_setting	triclinic
loop_
_symmetry_equiv_pos_as_xyz
  x,y,z
_cell_length_a	10.654539
_cell_length_b	26.809956
_cell_length_c	10.654550
_cell_angle_alpha	89.994437
_cell_angle_beta	95.517260
_cell_angle_gamma	89.988683
loop_
_atom_site_label
_atom_site_type_symbol
_atom_site_fract_x
_atom_site_fract_y
_atom_site_fract_z
O1	O	-1.667859	0.041506	0.176318
O2	O	-1.302378	0.041501	0.193138
O3	O	-1.493522	0.041502	0.001988
O4	O	-1.476715	0.041505	0.367467
O5	O	-1.493486	-0.041457	0.002017
O6	O	-1.302342	-0.041458	0.193167
O7	O	-1.667823	-0.041453	0.176347
Zn8	Zn	-1.485077	-0.054627	0.184761
Zn9	Zn	-1.485124	0.054675	0.184723
O10	O	-1.476679	-0.041454	0.367496
C11	C	-1.255562	0.000021	0.191920
C12	C	-1.116118	0.000019	0.188234
C13	C	-1.050643	0.045241	0.186473
C14	C	-0.919622	0.045244	0.182999
C15	C	-0.919564	-0.045203	0.183041
C16	C	-1.050581	-0.045205	0.186524
C17	C	-1.050676	0.097460	0.186443
C18	C	-0.919655	0.097463	0.182969
N19	N	-1.485053	-0.129223	0.184787
C20	C	-1.569752	-0.473849	0.100103
C21	C	-1.569781	-0.682726	0.100084
O22	O	-1.641744	-0.709730	0.028090
N23	N	-1.485131	-0.708850	0.184696
C24	C	-1.400461	-0.682751	0.269312
O25	O	-1.328453	-0.709764	0.341270
C26	C	-1.400427	-0.473875	0.269324
C27	C	-1.485091	-0.447754	0.184716
C28	C	-1.654409	-0.447728	0.015501
C29	C	-1.654405	-0.395511	0.015511
C30	C	-1.569745	-0.369416	0.100124
C31	C	-1.485088	-0.395537	0.184726
C32	C	-1.315752	-0.447777	0.353933
C33	C	-1.315749	-0.395554	0.353926
C34	C	-1.400414	-0.369433	0.269318
C35	C	-1.400424	-0.317226	0.269348
N36	N	-1.485074	-0.291102	0.184737
C37	C	-1.569735	-0.317197	0.100125
C38	C	-1.400487	-0.792415	0.269302
C39	C	-1.400497	-0.844634	0.269300
C40	C	-1.569816	-0.844605	0.100071
C41	C	-1.569811	-0.792385	0.100079
C42	C	-1.485138	-0.766291	0.184690
C43	C	-1.569721	-0.207539	0.100153
C44	C	-1.569714	-0.155318	0.100174
C45	C	-1.400391	-0.155351	0.269399
C46	C	-1.400403	-0.207568	0.269383
C47	C	-1.485072	-0.233660	0.184750
O48	O	-1.328489	-0.290190	0.341295
O49	O	-1.641714	-0.290175	0.028159
C50	C	-1.569755	-0.526065	0.100093
C51	C	-1.485099	-0.552186	0.184695
C52	C	-1.400438	-0.526091	0.269308
C53	C	-1.485109	-0.604405	0.184694
C54	C	-1.569769	-0.630500	0.100082
C55	C	-1.654419	-0.604376	0.015470
C56	C	-1.654416	-0.552160	0.015480
C57	C	-1.315788	-0.552215	0.353919
C58	C	-1.315799	-0.604431	0.353903
C59	C	-1.400460	-0.630526	0.269290
C60	C	-0.714638	0.000026	0.177571
C61	C	-0.854080	0.000024	0.181277
C62	C	-1.492270	0.000023	-0.044795
C63	C	-1.488578	0.000025	-0.184238
N64	N	-1.485158	0.129271	0.184688
C65	C	-1.601120	0.000025	-0.263728
C66	C	-1.597643	0.000028	-0.394749
C67	C	-1.369073	0.000029	-0.366777
C68	C	-1.372551	0.000029	-0.235759
C69	C	-1.733083	0.000022	-0.279879
C70	C	-1.729607	0.000025	-0.410900
C71	C	-1.477931	0.000026	0.414280
C72	C	-1.481623	0.000028	0.553723
H73	H	-0.867950	0.113671	0.272405
H74	H	-1.102406	0.113659	0.096995
C75	C	-0.886137	0.124543	0.063153
N76	N	-0.860892	0.144938	-0.027090
C77	C	-1.662851	-0.126588	0.007090
N78	N	-1.732997	-0.104950	-0.063022
C79	C	-1.747541	-0.476424	-0.077598
N80	N	-1.817696	-0.498035	-0.147723
H81	H	-1.638666	-0.228778	0.031236
H82	H	-1.075504	0.117511	0.275114
C83	C	-0.847461	-0.094946	0.181153
N84	N	-0.793156	-0.132414	0.179728
C85	C	-1.747530	-0.366785	-0.077579
N86	N	-1.817672	-0.345152	-0.147705
C87	C	-1.222603	-0.476498	0.447001
N88	N	-1.152433	-0.498130	0.517101
C89	C	-1.662939	-0.763657	0.006996
N90	N	-1.733084	-0.742021	-0.063122
H91	H	-1.638752	-0.865860	0.031177
C92	C	-1.248746	0.000040	-0.148323
N93	N	-1.155491	0.000050	-0.082466
H94	H	-1.331534	-0.771172	0.338205
H95	H	-1.331569	-0.865898	0.338209
H96	H	-1.775090	-0.035798	-0.244241
H97	H	-1.331473	-0.228836	0.338291
C98	C	-1.796745	-0.046877	-0.467306
N99	N	-1.847309	-0.082203	-0.509790
C100	C	-1.241449	0.000029	-0.423462
N101	N	-1.145320	0.000026	-0.466156
C102	C	-1.783529	0.048411	-0.472590
N103	N	-1.824150	0.084853	-0.519057
H104	H	-1.246794	-0.374311	0.422826
C105	C	-1.307265	-0.126637	0.362464
N106	N	-1.237114	-0.105007	0.432554
H107	H	-1.103884	-0.082029	0.187971
H108	H	-1.723357	-0.530896	-0.053416
H109	H	-1.723358	-0.625632	-0.053421
C110	C	-1.222653	-0.633158	0.446984
N111	N	-1.152489	-0.654794	0.517082
H112	H	-1.246845	-0.530972	0.422819
H113	H	-1.784714	0.034739	-0.250535
