data_functionalizedCrystal
_audit_creation_method	'MofGen! by Chris Wilmer'
_symmetry_space_group_name_H-M	'P1'
_symmetry_Int_Tables_number	1
_symmetry_cell_setting	triclinic
loop_
_symmetry_equiv_pos_as_xyz
  x,y,z
_cell_length_a	16.992694
_cell_length_b	14.519709
_cell_length_c	15.455313
_cell_angle_alpha	92.669068
_cell_angle_beta	87.142206
_cell_angle_gamma	87.174184
loop_
_atom_site_label
_atom_site_type_symbol
_atom_site_fract_x
_atom_site_fract_y
_atom_site_fract_z
O1	O	1.044092	0.191795	-0.072025
O2	O	1.544092	0.691795	0.427975
O3	O	0.815805	0.189648	-0.072051
O4	O	1.315805	0.689648	0.427949
O5	O	0.936001	0.056918	-0.072029
O6	O	1.436001	0.556918	0.427971
O7	O	0.923896	0.324525	-0.072046
O8	O	1.423896	0.824525	0.427954
O9	O	0.929127	0.064474	0.072232
O10	O	1.429127	0.564474	0.572232
O11	O	0.808932	0.197205	0.072210
O12	O	1.308932	0.697205	0.572210
O13	O	1.037219	0.199352	0.072236
O14	O	1.537219	0.699352	0.572236
Cu15	Cu	0.922447	0.198968	0.085395
Cu16	Cu	1.422447	0.698968	0.585395
Cu17	Cu	0.930576	0.190031	-0.085210
Cu18	Cu	1.430576	0.690031	0.414790
O19	O	0.917023	0.332082	0.072215
O20	O	1.417023	0.832082	0.572215
C21	C	0.783152	0.190666	0.000077
C22	C	1.283152	0.690666	0.500077
C23	C	0.696097	0.182430	0.000067
C24	C	1.196097	0.682430	0.500067
C25	C	0.645968	0.261890	0.000063
C26	C	1.145968	0.761890	0.500063
C27	C	0.564170	0.254147	0.000075
C28	C	1.064170	0.754147	0.500075
C29	C	0.532502	0.166943	0.000086
C30	C	1.032502	0.666943	0.500086
C31	C	0.582638	0.087478	0.000093
C32	C	1.082638	0.587478	0.500093
C33	C	0.664434	0.095222	0.000087
C34	C	1.164434	0.595222	0.500087
C35	C	0.288859	0.134847	0.000111
C36	C	0.788859	0.634847	0.500111
C37	C	0.207056	0.127109	0.000115
C38	C	0.707056	0.627109	0.500115
C39	C	0.188594	0.293779	0.000099
C40	C	0.688594	0.793779	0.500099
C41	C	0.270393	0.301515	0.000087
C42	C	0.770393	0.801515	0.500087
C43	C	0.320520	0.222050	0.000099
C44	C	0.820520	0.722050	0.500099
N45	N	0.448892	0.159027	0.000096
N46	N	0.948892	0.659027	0.500096
N47	N	0.404129	0.229968	0.000095
N48	N	0.904129	0.729968	0.500095
C49	C	0.932000	0.026296	0.000101
C50	C	1.432000	0.526296	0.500101
C51	C	0.930309	-0.076207	0.000102
C52	C	1.430309	0.423793	0.500102
C53	C	0.924087	-0.451550	0.000078
C54	C	1.424087	0.048450	0.500078
C55	C	0.925815	-0.347118	0.000085
C56	C	1.425815	0.152882	0.500085
C57	C	0.927198	-0.263882	0.000091
C58	C	1.427198	0.236118	0.500091
C59	C	0.928926	-0.159443	0.000096
C60	C	1.428926	0.340557	0.500096
C61	C	1.069872	0.198333	0.000107
C62	C	1.569872	0.698333	0.500107
C63	C	1.156927	0.206569	0.000111
C64	C	1.656927	0.706569	0.500111
C65	C	0.921024	0.362704	0.000082
C66	C	1.421024	0.862704	0.500082
C67	C	0.922715	0.465206	0.000076
C68	C	1.422715	0.965206	0.500076
N69	N	0.916736	0.205254	0.205390
N70	N	1.416736	0.705254	0.705390
N71	N	0.936294	0.183739	-0.205204
N72	N	1.436294	0.683739	0.294796
C73	C	0.967817	0.148889	0.250793
C74	C	1.467817	0.648889	0.750793
C75	C	0.963505	0.153651	0.341600
C76	C	1.463505	0.653651	0.841600
C77	C	0.908115	0.214784	0.387002
C78	C	1.408115	0.714784	0.887002
C79	C	0.857028	0.271151	0.341593
C80	C	1.357028	0.771151	0.841593
C81	C	0.861337	0.266383	0.250787
C82	C	1.361337	0.766383	0.750787
C83	C	0.889516	0.235339	0.658581
C84	C	1.389516	0.735339	1.158581
C85	C	0.885212	0.240104	0.749392
C86	C	1.385212	0.740104	1.249392
C87	C	0.991689	0.122602	0.749393
C88	C	1.491689	0.622602	1.249393
C89	C	0.995996	0.117844	0.658586
C90	C	1.495996	0.617844	1.158586
C91	C	0.944907	0.174208	0.613185
C92	C	1.444907	0.674208	1.113185
N93	N	0.903708	0.219655	0.479822
N94	N	1.403708	0.719655	0.979822
N95	N	0.949311	0.169331	0.520367
N96	N	1.449311	0.669331	1.020367
H97	H	0.556847	0.016475	0.000114
H98	H	1.056847	0.516475	0.500114
H99	H	0.329663	0.070141	0.000121
H100	H	0.829663	0.570141	0.500121
H101	H	0.705249	0.030517	0.000090
H102	H	1.205249	0.530517	0.500090
C103	C	1.069204	0.037055	0.332480
C104	C	1.569204	0.537055	0.832480
C105	C	1.019668	0.091708	0.391507
C106	C	1.519668	0.591708	0.891507
H107	H	1.103883	-0.001180	0.363292
H108	H	1.603883	0.498820	0.863292
H109	H	1.038206	-0.000419	0.297079
H110	H	1.538206	0.499581	0.797079
H111	H	1.099130	0.075704	0.297046
H112	H	1.599130	0.575704	0.797046
H113	H	0.989738	0.053058	0.426937
H114	H	1.489738	0.553058	0.926937
H115	H	1.050670	0.129186	0.426923
H116	H	1.550670	0.629186	0.926923
H117	H	1.012925	0.099112	0.213832
H118	H	1.512925	0.599112	0.713832
H119	H	0.840105	0.289889	0.786355
H120	H	1.340105	0.789889	1.286355
C121	C	1.036183	-0.032174	0.777364
C122	C	1.536183	0.467826	1.277364
C123	C	1.047834	0.060638	0.799301
C124	C	1.547834	0.560638	1.299301
H125	H	1.070847	-0.070431	0.808173
H126	H	1.570847	0.429569	1.308173
H127	H	0.983134	-0.045289	0.792257
H128	H	1.483134	0.454711	1.292257
H129	H	1.046679	-0.043749	0.716785
H130	H	1.546679	0.456251	1.216785
H131	H	1.037332	0.072215	0.859880
H132	H	1.537332	0.572215	1.359880
H133	H	1.100895	0.073758	0.784415
H134	H	1.600895	0.573758	1.284415
H135	H	0.671744	0.332900	0.000054
H136	H	1.171744	0.832900	0.500054
C137	C	1.017180	-0.012181	0.556995
C138	C	1.517180	0.487819	1.056995
C139	C	1.056675	0.050200	0.608915
C140	C	1.556675	0.550200	1.108915
H141	H	1.054583	-0.054066	0.526397
H142	H	1.554583	0.445934	1.026397
H143	H	0.982602	-0.045475	0.592591
H144	H	1.482602	0.454525	1.092591
H145	H	0.987581	0.020695	0.516774
H146	H	1.487581	0.520695	1.016774
H147	H	1.086270	0.017325	0.649141
H148	H	1.586270	0.517325	1.149141
H149	H	1.091267	0.083498	0.573316
H150	H	1.591267	0.583498	1.073316
H151	H	0.147771	0.358475	0.000091
H152	H	0.647771	0.858475	0.500091
H153	H	0.523358	0.318852	0.000071
H154	H	1.023358	0.818852	0.500071
C155	C	0.783845	0.351969	0.667714
C156	C	1.283845	0.851969	1.167714
C157	C	0.833365	0.297301	0.608683
C158	C	1.333365	0.797301	1.108683
H159	H	0.749182	0.390228	0.636904
H160	H	1.249182	0.890228	1.136904
H161	H	0.753908	0.313338	0.703140
H162	H	1.253908	0.813338	1.203140
H163	H	0.814862	0.389429	0.703121
H164	H	1.314862	0.889429	1.203121
H165	H	0.802348	0.259836	0.573280
H166	H	1.302348	0.759836	1.073280
H167	H	0.863304	0.335937	0.573241
H168	H	1.363304	0.835937	1.073241
H169	H	0.181276	0.056094	0.000123
H170	H	0.681276	0.556094	0.500123
H171	H	0.811924	0.320923	0.378565
H172	H	1.311924	0.820923	0.878565
C173	C	0.816838	0.421161	0.222801
C174	C	1.316838	0.921161	0.722801
C175	C	0.805191	0.328344	0.200875
C176	C	1.305191	0.828344	0.700875
H177	H	0.782176	0.459411	0.191982
H178	H	1.282176	0.959411	0.691982
H179	H	0.806342	0.432745	0.283370
H180	H	1.306342	0.932745	0.783370
H181	H	0.869894	0.434277	0.207905
H182	H	1.369894	0.934277	0.707905
H183	H	0.752137	0.315227	0.215776
H184	H	1.252137	0.815227	0.715776
H185	H	0.815682	0.316756	0.140291
H186	H	1.315682	0.816756	0.640291
C187	C	0.243923	0.465485	0.000087
C188	C	0.743923	0.965485	0.500087
C189	C	0.305198	0.397373	0.000084
C190	C	0.805198	0.897373	0.500084
H191	H	0.265412	0.524663	0.000089
H192	H	0.765412	1.024663	0.500089
H193	H	0.214795	0.456366	-0.050215
H194	H	0.714795	0.956366	0.449785
H195	H	0.210013	0.461627	0.050400
H196	H	0.710013	0.961627	0.550400
H197	H	0.339106	0.401227	-0.050232
H198	H	0.839106	0.901227	0.449768
H199	H	0.334339	0.406496	0.050391
H200	H	0.834339	0.906496	0.550391
