data_functionalizedCrystal
_audit_creation_method	'MofGen! by Chris Wilmer'
_symmetry_space_group_name_H-M	'P1'
_symmetry_Int_Tables_number	1
_symmetry_cell_setting	triclinic
loop_
_symmetry_equiv_pos_as_xyz
  x,y,z
_cell_length_a	16.992694
_cell_length_b	17.666332
_cell_length_c	16.992696
_cell_angle_alpha	89.987022
_cell_angle_beta	89.331661
_cell_angle_gamma	90.003562
loop_
_atom_site_label
_atom_site_type_symbol
_atom_site_fract_x
_atom_site_fract_y
_atom_site_fract_z
O1	O	1.050856	0.062876	-0.166917
O2	O	0.822456	0.062898	-0.165086
O3	O	0.935740	0.062866	-0.051801
O4	O	0.937572	0.062908	-0.280201
O5	O	0.935719	-0.063031	-0.051796
O6	O	0.822435	-0.062999	-0.165081
O7	O	1.050835	-0.063021	-0.166912
Cu8	Cu	0.936633	-0.074505	-0.165996
Cu9	Cu	0.936658	0.074382	-0.166002
O10	O	0.937551	-0.062989	-0.280196
C11	C	0.793085	-0.000048	-0.162727
C12	C	0.705601	-0.000040	-0.155699
C13	C	0.659610	-0.000028	-0.223517
C14	C	0.577409	-0.000040	-0.216908
C15	C	0.541201	-0.000058	-0.142480
C16	C	0.587198	-0.000072	-0.074657
C17	C	0.669397	-0.000066	-0.081267
C18	C	0.295886	-0.000083	-0.115086
C19	C	0.213681	-0.000087	-0.108481
C20	C	0.203898	-0.000057	-0.250732
C21	C	0.286100	-0.000046	-0.257335
C22	C	0.332089	-0.000064	-0.189512
N23	N	0.457179	-0.000068	-0.135723
N24	N	0.416110	-0.000060	-0.196270
N25	N	0.936621	-0.179224	-0.165992
C26	C	0.987349	-0.218824	-0.216758
C27	C	0.987361	-0.298071	-0.216757
C28	C	0.936631	-0.337717	-0.165997
C29	C	0.885900	-0.298108	-0.115221
C30	C	0.885894	-0.218862	-0.115218
N31	N	0.867548	-0.462150	-0.159527
N32	N	0.867556	-0.537431	-0.159534
C33	C	0.936646	-0.576481	-0.166001
N34	N	1.005730	-0.537406	-0.172476
N35	N	1.005722	-0.462119	-0.172472
C36	C	0.936632	-0.423646	-0.165994
C37	C	0.987392	-0.702009	-0.216768
C38	C	0.987406	-0.781258	-0.216761
C39	C	0.885937	-0.781293	-0.115229
C40	C	0.885930	-0.702046	-0.115232
C41	C	0.936657	-0.662408	-0.166006
C42	C	1.080206	-0.000073	-0.169270
C43	C	1.167690	-0.000076	-0.176299
C44	C	0.933374	-0.000086	-0.022439
C45	C	0.926345	-0.000096	0.065046
N46	N	0.936676	0.179102	-0.166000
C47	C	0.994163	-0.000110	0.111037
C48	C	0.987554	-0.000113	0.193238
C49	C	0.913126	-0.000108	0.229446
C50	C	0.845303	-0.000092	0.183449
C51	C	0.851913	-0.000084	0.101250
C52	C	0.885731	-0.000127	0.474760
C53	C	0.879126	-0.000137	0.556966
C54	C	1.021378	-0.000157	0.566749
C55	C	1.027981	-0.000153	0.484547
C56	C	0.960158	-0.000133	0.438558
N57	N	0.906369	-0.000113	0.313468
N58	N	0.966916	-0.000122	0.354537
C59	C	0.939917	-0.000068	0.690441
C60	C	0.946944	-0.000151	0.602956
H61	H	0.539967	-0.000030	-0.272133
H62	H	0.844619	-0.669804	-0.073895
O63	O	0.798842	-0.000131	0.596013
H64	H	0.792416	-0.051455	0.633224
H65	H	1.028671	-0.330319	-0.258099
O66	O	1.042104	-0.659246	-0.271522
H67	H	1.103950	-0.674441	-0.258366
H68	H	0.830504	-0.000111	0.437325
H69	H	1.054770	-0.000119	0.081563
H70	H	0.844596	-0.330392	-0.073891
H71	H	0.557710	-0.000098	-0.014056
O72	O	0.831196	-0.176150	-0.060438
H73	H	0.839725	-0.114386	-0.068954
O74	O	1.042129	-0.823973	-0.271514
H75	H	1.007043	-0.860081	-0.311427
O76	O	0.831217	-0.824041	-0.060480
H77	H	0.839739	-0.885799	-0.069012
O78	O	1.060699	-0.000140	0.242845
H79	H	1.113563	-0.000156	0.203858
H80	H	1.088588	-0.000157	0.455073
O81	O	1.094528	-0.000173	0.616349
H82	H	1.077432	-0.000173	0.679591
H83	H	0.689084	-0.000013	-0.284124
O84	O	1.042066	-0.176073	-0.271514
H85	H	1.006972	-0.139968	-0.311436
H86	H	0.706842	-0.000075	-0.026042
O87	O	0.345482	-0.000104	-0.041935
H88	H	0.332057	0.051203	-0.006564
O89	O	0.765027	-0.000095	0.222502
H90	H	0.758621	0.051208	0.259721
O91	O	0.325154	-0.000046	-0.337611
H92	H	0.279363	-0.000051	-0.383660
O93	O	0.154290	-0.000049	-0.323877
H94	H	0.167712	0.051273	-0.359252
O95	O	0.174623	-0.000114	-0.028202
H96	H	0.220411	-0.000134	0.017850
O97	O	0.778768	-0.000077	0.051639
H98	H	0.725903	-0.000084	0.090625
