data_functionalizedCrystal
_audit_creation_method	'MofGen! by Chris Wilmer'
_symmetry_space_group_name_H-M	'P1'
_symmetry_Int_Tables_number	1
_symmetry_cell_setting	triclinic
loop_
_symmetry_equiv_pos_as_xyz
  x,y,z
_cell_length_a	16.992694
_cell_length_b	15.538191
_cell_length_c	15.455313
_cell_angle_alpha	91.603349
_cell_angle_beta	87.142206
_cell_angle_gamma	68.970158
loop_
_atom_site_label
_atom_site_type_symbol
_atom_site_fract_x
_atom_site_fract_y
_atom_site_fract_z
O1	O	0.989241	0.191780	-0.072014
O2	O	0.761568	0.189633	-0.072040
O3	O	0.919723	0.056913	-0.072026
O4	O	0.831085	0.324499	-0.072028
O5	O	0.910688	0.064469	0.072235
O6	O	0.752533	0.197189	0.072222
O7	O	0.980206	0.199336	0.072247
Cu8	Cu	0.865545	0.198952	0.085407
Cu9	Cu	0.876229	0.190016	-0.085199
O10	O	0.822051	0.332055	0.072233
C11	C	0.728624	0.190651	0.000088
C12	C	0.643924	0.182416	0.000078
C13	C	0.924480	0.026294	0.000103
C14	C	0.952104	-0.076201	0.000097
C15	C	0.571070	0.261869	0.000078
C16	C	0.491487	0.254127	0.000090
C17	C	0.484758	0.166930	0.000095
C18	C	0.557620	0.087471	0.000098
C19	C	0.637201	0.095214	0.000092
C20	C	0.250294	0.134837	0.000119
C21	C	0.170704	0.127099	0.000122
C22	C	0.104576	0.293756	0.000116
C23	C	0.184162	0.301491	0.000105
C24	C	0.257016	0.222033	0.000112
N25	N	0.403412	0.159014	0.000105
N26	N	0.338360	0.229950	0.000108
C27	C	0.677671	-0.384652	0.000085
C28	C	0.703646	-0.480962	0.000090
C29	C	0.849754	-0.492404	0.000106
C30	C	0.823791	-0.396094	0.000097
C31	C	0.737748	-0.342224	0.000087
C32	C	0.883868	-0.353667	0.000099
C33	C	0.857907	-0.257364	0.000095
C34	C	0.771868	-0.203488	0.000088
C35	C	0.711786	-0.245922	0.000083
C36	C	0.969911	-0.407537	0.000115
C37	C	1.029988	-0.365110	0.000117
C38	C	1.004027	-0.268806	0.000106
C39	C	0.917988	-0.214930	0.000099
C40	C	1.064108	-0.226373	0.000111
C41	C	1.038146	-0.130070	0.000107
C42	C	0.892026	-0.118628	0.000095
C43	C	1.013150	0.198318	0.000118
C44	C	1.097851	0.206553	0.000122
C45	C	0.817294	0.362675	0.000103
C46	C	0.789671	0.465169	0.000103
N47	N	0.858036	0.205237	0.205401
N48	N	0.883746	0.183724	-0.205194
C49	C	0.925237	0.148877	0.250801
C50	C	0.919563	0.153639	0.341609
C51	C	0.846689	0.214767	0.387015
C52	C	0.779482	0.271130	0.341608
C53	C	0.785154	0.266362	0.250803
C54	C	0.822212	0.235320	0.658594
C55	C	0.816545	0.240085	0.749406
C56	C	0.956626	0.122592	0.749400
C57	C	0.962294	0.117834	0.658593
C58	C	0.895085	0.174194	0.613194
N59	N	0.840889	0.219638	0.479834
N60	N	0.900884	0.169317	0.520376
H61	H	0.432169	0.318826	0.000089
H62	H	0.984580	0.099104	0.213838
N63	N	0.799217	-0.060532	0.000098
H64	H	0.781847	-0.017525	0.053580
H65	H	0.788587	-0.023175	-0.053411
N66	N	1.040899	0.051907	0.609627
H67	H	1.067196	0.087764	0.571951
H68	H	1.082547	0.016946	0.652228
H69	H	0.919810	-0.536277	0.000117
N70	N	0.992045	0.092869	0.390587
H71	H	1.013620	0.132692	0.428251
H72	H	0.971936	0.051792	0.428224
H73	H	1.134164	-0.270247	0.000128
N74	N	1.122787	-0.423213	0.000136
H75	H	1.130119	-0.490659	0.000141
H76	H	1.153503	-0.411685	-0.053342
N77	N	1.029106	0.061801	0.798368
H78	H	1.076131	0.022355	0.755824
H79	H	1.050631	0.101666	0.836034
N80	N	0.700882	0.337054	0.390584
H81	H	0.716232	0.382097	0.428248
H82	H	0.659203	0.371970	0.347990
H83	H	0.576539	0.332874	0.000072
H84	H	0.552135	0.016474	0.000115
H85	H	0.654716	-0.515501	0.000100
H86	H	0.730432	0.312256	0.213839
N87	N	0.737948	0.306028	0.798383
H88	H	0.696232	0.341010	0.755845
H89	H	0.711717	0.270125	0.836076
H90	H	0.641722	-0.202058	0.000069
N91	N	0.191404	0.395545	0.000088
H92	H	0.159756	0.433435	0.053564
H93	H	0.252890	0.388325	0.000046
N94	N	1.102939	-0.084300	0.000114
H95	H	1.161386	-0.133039	0.000118
H96	H	1.098697	-0.047395	-0.053366
H97	H	0.045251	0.358447	0.000112
N98	N	0.584871	-0.326525	0.000072
H99	H	0.560791	-0.343576	-0.053408
H100	H	0.554160	-0.337995	0.053582
N101	N	0.163446	0.033047	0.000123
H102	H	0.221674	-0.016116	0.000127
H103	H	0.128520	0.029010	0.053601
N104	N	0.328864	0.049139	0.000132
H105	H	0.312523	-0.007272	0.000135
H106	H	0.366672	0.045912	-0.053346
N107	N	0.749719	0.296109	0.609646
H108	H	0.738938	0.363065	0.625442
H109	H	0.764405	0.283742	0.545245
N110	N	0.715779	0.009515	0.000097
H111	H	0.719730	-0.031066	-0.053378
H112	H	0.767169	0.027725	0.000129
H113	H	0.750731	-0.125072	0.000089
H114	H	0.991046	-0.485953	0.000111
