data_functionalizedCrystal
_audit_creation_method	'MofGen! by Chris Wilmer'
_symmetry_space_group_name_H-M	'P1'
_symmetry_Int_Tables_number	1
_symmetry_cell_setting	triclinic
loop_
_symmetry_equiv_pos_as_xyz
  x,y,z
_cell_length_a	12.759401
_cell_length_b	21.295417
_cell_length_c	12.759393
_cell_angle_alpha	89.960830
_cell_angle_beta	89.978811
_cell_angle_gamma	90.030454
loop_
_atom_site_label
_atom_site_type_symbol
_atom_site_fract_x
_atom_site_fract_y
_atom_site_fract_z
Zn1	Zn	1.606140	-0.250573	-0.594001
Zn2	Zn	2.106140	0.249427	-0.094001
Zn3	Zn	1.605986	-0.355857	-0.418298
Zn4	Zn	2.105986	0.144143	0.081702
Zn5	Zn	1.430442	-0.250606	-0.418332
Zn6	Zn	1.930442	0.249394	0.081668
Zn7	Zn	1.430382	-0.355808	-0.593931
Zn8	Zn	1.930382	0.144192	-0.093931
O9	O	1.518238	-0.303211	-0.506141
O10	O	2.018238	0.196789	-0.006141
O11	O	1.753141	-0.264546	-0.570709
O12	O	2.253141	0.235454	-0.070709
O13	O	1.582660	-0.341929	-0.271281
O14	O	2.082660	0.158071	0.228719
O15	O	1.453838	-0.162512	-0.441679
O16	O	1.953838	0.337488	0.058321
O17	O	1.753027	-0.341898	-0.441620
O18	O	2.253027	0.158102	0.058380
O19	O	1.582923	-0.162488	-0.570742
O20	O	2.082923	0.337512	-0.070742
O21	O	1.453689	-0.264601	-0.271307
O22	O	1.953689	0.235399	0.228693
O23	O	1.283413	-0.264554	-0.441611
O24	O	1.783413	0.235446	0.058389
O25	O	1.453736	-0.341814	-0.740962
O26	O	1.953736	0.158186	-0.240962
O27	O	1.283369	-0.341846	-0.570623
O28	O	1.783369	0.158154	-0.070623
O29	O	1.582865	-0.264499	-0.741013
O30	O	2.082865	0.235501	-0.241013
O31	O	1.582602	-0.443940	-0.441553
O32	O	2.082602	0.056060	0.058447
O33	O	1.453587	-0.443904	-0.570589
O34	O	1.953587	0.056096	-0.070589
C35	C	1.245270	-0.303199	-0.506114
C36	C	1.745270	0.196801	-0.006114
C37	C	1.128494	-0.303209	-0.506127
C38	C	1.628494	0.196791	-0.006127
C39	C	1.518100	-0.466763	-0.506083
C40	C	2.018100	0.033237	-0.006083
C41	C	1.518137	-0.536731	-0.506093
C42	C	2.018137	-0.036731	-0.006093
C43	C	0.963839	-0.343435	-0.438857
C44	C	1.463839	0.156565	0.061143
C45	C	1.073563	-0.343424	-0.438827
C46	C	1.573563	0.156576	0.061173
C47	C	1.073695	-0.262998	-0.573454
C48	C	1.573695	0.237002	-0.073454
C49	C	0.963973	-0.263007	-0.573477
C50	C	1.463973	0.236993	-0.073477
C51	C	0.963763	-0.389870	-0.361134
C52	C	1.463763	0.110130	0.138866
C53	C	1.073487	-0.389859	-0.361104
C54	C	1.573487	0.110141	0.138896
C55	C	1.585375	-0.569595	-0.438972
C56	C	2.085375	-0.069595	0.061028
C57	C	1.585424	-0.635338	-0.438996
C58	C	2.085424	-0.135338	0.061004
C59	C	1.518217	-0.668213	-0.506129
C60	C	2.018217	-0.168213	-0.006129
C61	C	1.450974	-0.635341	-0.573263
C62	C	1.950974	-0.135341	-0.073263
C63	C	1.450934	-0.569600	-0.573245
C64	C	1.950934	-0.069600	-0.073245
N65	N	1.426310	-0.771478	-0.514129
N66	N	1.926310	-0.271478	-0.014129
N67	N	1.426350	-0.833930	-0.514140
N68	N	1.926350	-0.333930	-0.014140
C69	C	1.518334	-0.866288	-0.506189
C70	C	2.018334	-0.366288	-0.006189
N71	N	1.610278	-0.833835	-0.498206
N72	N	2.110278	-0.333835	0.001794
N73	N	1.610236	-0.771378	-0.498190
N74	N	2.110236	-0.271378	0.001810
C75	C	1.518253	-0.739498	-0.506157
C76	C	2.018253	-0.239498	-0.006157
C77	C	1.585631	-0.970438	-0.439091
C78	C	2.085631	-0.470438	0.060909
C79	C	1.585682	-1.036181	-0.439122
C80	C	2.085682	-0.536181	0.060878
C81	C	1.451223	-1.036183	-0.573383
C82	C	1.951223	-0.536183	-0.073383
C83	C	1.451181	-0.970441	-0.573358
C84	C	1.951181	-0.470441	-0.073358
C85	C	1.518384	-0.937572	-0.506206
C86	C	2.018384	-0.437572	-0.006206
C87	C	1.792271	-0.303224	-0.506169
C88	C	2.292271	0.196776	-0.006169
C89	C	1.909047	-0.303229	-0.506180
C90	C	2.409047	0.196771	-0.006180
C91	C	1.518311	-0.303147	-0.780174
C92	C	2.018311	0.196853	-0.280174
C93	C	1.518342	-0.303120	-0.896951
C94	C	2.018342	0.196880	-0.396951
C95	C	1.518404	-0.139021	-0.506222
C96	C	2.018404	0.360979	-0.006222
C97	C	1.518476	-0.069052	-0.506257
C98	C	2.018476	0.430948	-0.006257
C99	C	1.585589	-0.262858	-0.951842
C100	C	2.085589	0.237142	-0.451842
C101	C	1.585614	-0.262835	-1.061566
C102	C	2.085614	0.237165	-0.561566
C103	C	1.451143	-0.343342	-1.061499
C104	C	1.951143	0.156658	-0.561499
C105	C	1.451114	-0.343362	-0.951777
C106	C	1.951114	0.156638	-0.451777
C107	C	1.663228	-0.216380	-0.951881
C108	C	2.163228	0.283620	-0.451881
C109	C	1.663253	-0.216357	-1.061605
C110	C	2.163253	0.283643	-0.561605
C111	C	1.518225	-0.303229	-0.233173
C112	C	2.018225	0.196771	0.266827
C113	C	1.518397	-0.303078	-0.116397
C114	C	2.018397	0.196922	0.383603
H115	H	0.919366	-0.230262	-0.628291
H116	H	1.419366	0.269738	-0.128291
F117	F	1.656990	-0.670321	-0.367553
F118	F	2.156990	-0.170321	0.132447
F119	F	1.379701	-1.071168	-0.644838
F120	F	1.879701	-0.571168	-0.144838
H121	H	1.107483	-0.372341	-0.283851
H122	H	1.607483	0.127659	0.216149
H123	H	1.744618	-0.229414	-1.091384
H124	H	2.244618	0.270586	-0.591384
H125	H	1.396180	-0.542841	-0.627904
H126	H	1.896180	-0.042841	-0.127904
H127	H	1.118428	-0.230250	-0.628244
H128	H	1.618428	0.269750	-0.128244
H129	H	1.396351	-0.376145	-0.907089
H130	H	1.896351	0.123855	-0.407089
F131	F	0.924788	-0.372735	-0.254840
F132	F	1.424788	0.127265	0.245160
H133	H	1.396425	-0.943681	-0.628009
H134	H	1.896425	-0.443681	-0.128009
F135	F	1.634804	-0.152661	-0.912995
F136	F	2.134804	0.347339	-0.412995
H137	H	0.929717	-0.436204	-0.390146
H138	H	1.429717	0.063796	0.109854
F139	F	1.657153	-0.935454	-0.367622
F140	F	2.157153	-0.435454	0.132378
H141	H	1.103247	-0.438625	-0.382746
H142	H	1.603247	0.061375	0.117254
F143	F	1.656910	-0.534617	-0.367514
F144	F	2.156910	-0.034617	0.132486
F145	F	1.379451	-0.670330	-0.644715
F146	F	1.879451	-0.170330	-0.144715
F147	F	1.657257	-1.071158	-0.367685
F148	F	2.157257	-0.571158	0.132315
H149	H	1.396405	-0.376104	-1.106152
H150	H	1.896405	0.123896	-0.606152
F151	F	1.764217	-0.239220	-0.907388
F152	F	2.264217	0.260780	-0.407388
H153	H	1.634161	-0.170036	-1.095662
H154	H	2.134161	0.329964	-0.595662
