data_functionalizedCrystal
_audit_creation_method	'MofGen! by Chris Wilmer'
_symmetry_space_group_name_H-M	'P1'
_symmetry_Int_Tables_number	1
_symmetry_cell_setting	triclinic
loop_
_symmetry_equiv_pos_as_xyz
  x,y,z
_cell_length_a	16.109302
_cell_length_b	16.053789
_cell_length_c	16.109301
_cell_angle_alpha	87.109773
_cell_angle_beta	96.538369
_cell_angle_gamma	92.890911
loop_
_atom_site_label
_atom_site_type_symbol
_atom_site_fract_x
_atom_site_fract_y
_atom_site_fract_z
O1	O	1.106259	0.069470	-0.109997
O2	O	1.606259	0.569470	0.390003
O3	O	0.864197	0.069464	-0.123296
O4	O	1.364197	0.569464	0.376704
O5	O	0.991877	0.069459	0.004385
O6	O	1.491877	0.569459	0.504385
O7	O	0.978579	0.069475	-0.237678
O8	O	1.478579	0.569475	0.262322
O9	O	0.985615	-0.069401	0.010640
O10	O	1.485615	0.430599	0.510640
O11	O	0.857934	-0.069396	-0.117041
O12	O	1.357934	0.430604	0.382959
O13	O	1.099996	-0.069390	-0.103743
O14	O	1.599996	0.430610	0.396257
Zn15	Zn	0.977971	-0.091440	-0.109399
Zn16	Zn	1.477971	0.408560	0.390601
Zn17	Zn	0.986223	0.091514	-0.117640
Zn18	Zn	1.486223	0.591514	0.382360
O19	O	0.972316	-0.069385	-0.231423
O20	O	1.472316	0.430615	0.268577
C21	C	0.830091	0.000033	-0.119629
C22	C	1.330091	0.500033	0.380371
C23	C	0.737795	0.000030	-0.118014
C24	C	1.237795	0.500030	0.381986
C25	C	0.522041	-0.075654	-0.110870
C26	C	1.022041	0.424346	0.389130
C27	C	0.435321	-0.075651	-0.109343
C28	C	0.935321	0.424349	0.390657
C29	C	0.442160	0.075741	-0.116167
C30	C	0.942160	0.575741	0.383833
C31	C	0.528879	0.075738	-0.117687
C32	C	1.028879	0.575738	0.382313
C33	C	0.568816	0.000037	-0.115043
C34	C	1.068816	0.500037	0.384957
C35	C	0.395377	0.000044	-0.111996
C36	C	0.895377	0.500044	0.388004
C37	C	0.301352	0.000047	-0.110340
C38	C	0.801352	0.500047	0.389660
C39	C	0.662848	0.000033	-0.116697
C40	C	1.162848	0.500033	0.383303
N41	N	0.972345	-0.216301	-0.103774
N42	N	1.472345	0.283699	0.396226
C43	C	1.020786	-0.259987	-0.152250
C44	C	1.520786	0.240013	0.347750
C45	C	1.016862	-0.347394	-0.148310
C46	C	1.516862	0.152606	0.351690
C47	C	0.964493	-0.391115	-0.095898
C48	C	1.464493	0.108885	0.404102
C49	C	0.916050	-0.347423	-0.047417
C50	C	1.416050	0.152577	0.452583
C51	C	0.919979	-0.260017	-0.051353
C52	C	1.419979	0.239983	0.448647
C53	C	0.947341	-0.652527	-0.078713
C54	C	1.447341	-0.152527	0.421287
C55	C	0.943414	-0.739939	-0.074782
C56	C	1.443414	-0.239939	0.425218
C57	C	1.044227	-0.739905	-0.175674
C58	C	1.544227	-0.239905	0.324326
C59	C	1.048148	-0.652497	-0.179609
C60	C	1.548148	-0.152497	0.320391
C61	C	0.999709	-0.608813	-0.131125
C62	C	1.499709	-0.108813	0.368875
N63	N	0.960478	-0.480459	-0.091871
N64	N	1.460478	0.019541	0.408129
N65	N	1.003728	-0.519470	-0.135148
N66	N	1.503728	-0.019470	0.364852
C67	C	1.134103	0.000043	-0.107409
C68	C	1.634103	0.500043	0.392591
C69	C	1.226398	0.000051	-0.109025
C70	C	1.726398	0.500051	0.390975
C71	C	0.988207	0.000028	0.038487
C72	C	1.488207	0.500028	0.538487
C73	C	0.986592	0.000027	0.130783
C74	C	1.486592	0.500027	0.630783
N75	N	0.991855	0.216375	-0.123258
N76	N	1.491855	0.716375	0.376742
C77	C	0.975986	0.000048	-0.265525
C78	C	1.475986	0.500048	0.234475
C79	C	0.977602	0.000054	-0.357821
C80	C	1.477602	0.500054	0.142179
C81	C	1.058600	0.000042	0.353054
C82	C	1.558600	0.500042	0.853054
C83	C	1.057077	0.000049	0.439774
C84	C	1.557077	0.500049	0.939774
C85	C	0.905588	0.000042	0.419901
C86	C	1.405588	0.500042	0.919901
C87	C	0.907113	0.000041	0.333182
C88	C	1.407113	0.500041	0.833182
C89	C	0.983621	0.000037	0.299761
C90	C	1.483621	0.500037	0.799761
C91	C	0.980573	0.000044	0.473200
C92	C	1.480573	0.500044	0.973200
C93	C	0.978920	0.000052	0.567226
C94	C	1.478920	0.500052	1.067226
C95	C	0.985274	0.000031	0.205730
C96	C	1.485274	0.500031	0.705730
H97	H	0.566965	0.137379	-0.121083
H98	H	1.066965	0.637379	0.378917
C99	C	1.120046	-0.268741	-0.251574
C100	C	1.620046	0.231259	0.248426
C101	C	1.078354	-0.211934	-0.209862
C102	C	1.578354	0.288066	0.290138
H103	H	1.155591	-0.239075	-0.287137
H104	H	1.655591	0.260925	0.212863
H105	H	1.080243	-0.302834	-0.284095
H106	H	1.580243	0.197166	0.215905
H107	H	1.152590	-0.302832	-0.211777
H108	H	1.652590	0.197168	0.288223
H109	H	1.045805	-0.177847	-0.249659
H110	H	1.545805	0.322153	0.250341
H111	H	1.118162	-0.177827	-0.177340
H112	H	1.618162	0.322173	0.322660
C113	C	0.919241	-0.161738	0.056048
C114	C	1.419241	0.338262	0.556048
C115	C	0.866730	-0.211995	0.001932
C116	C	1.366730	0.288005	0.501932
H117	H	0.886367	-0.132096	0.088949
H118	H	1.386367	0.367904	0.588949
H119	H	0.950985	-0.123196	0.024270
H120	H	1.450985	0.376804	0.524270
H121	H	0.955976	-0.195842	0.091637
H122	H	1.455976	0.304158	0.591637
H123	H	0.830000	-0.177889	-0.033662
H124	H	1.330000	0.322111	0.466338
H125	H	0.834972	-0.250541	0.033712
H126	H	1.334972	0.249459	0.533712
H127	H	1.056309	-0.382959	-0.187782
H128	H	1.556309	0.117041	0.312218
H129	H	1.118133	0.000055	0.483162
H130	H	1.618133	0.500055	0.983162
C131	C	0.651938	-0.142885	-0.110175
C132	C	1.151938	0.357115	0.389825
C133	C	0.565944	-0.158862	-0.107955
C134	C	1.065944	0.341138	0.392045
H135	H	0.679037	-0.194256	-0.108379
H136	H	1.179037	0.305744	0.391621
H137	H	0.673904	-0.111790	-0.063376
H138	H	1.173904	0.388210	0.436624
H139	H	0.661191	-0.111784	-0.160285
H140	H	1.161191	0.388216	0.339715
H141	H	0.556690	-0.189958	-0.057842
H142	H	1.056690	0.310042	0.442158
H143	H	0.543970	-0.189970	-0.154758
H144	H	1.043970	0.310030	0.345242
H145	H	0.843297	0.000043	0.447122
H146	H	1.343297	0.500043	0.947122
C147	C	0.757212	0.000025	0.322241
C148	C	1.257212	0.500025	0.822241
C149	C	0.824689	0.000032	0.274595
C150	C	1.324689	0.500032	0.774595
H151	H	0.706331	0.000017	0.286070
H152	H	1.206331	0.500017	0.786070
H153	H	0.761948	0.048446	0.354291
H154	H	1.261948	0.548446	0.854291
H155	H	0.757590	-0.048402	0.358665
H156	H	1.257590	0.451598	0.858665
H157	H	0.824315	0.048462	0.238175
H158	H	1.324315	0.548462	0.738175
H159	H	0.819951	-0.048394	0.242531
H160	H	1.319951	0.451606	0.742531
H161	H	0.409631	0.137374	-0.118320
H162	H	0.909631	0.637374	0.381680
H163	H	0.397240	-0.137287	-0.105945
H164	H	0.897240	0.362713	0.394055
H165	H	1.120899	0.000041	0.325846
H166	H	1.620899	0.500041	0.825846
H167	H	0.900764	-0.775534	-0.032102
H168	H	1.400764	-0.275534	0.467898
H169	H	1.090795	-0.616906	-0.222286
H170	H	1.590795	-0.116906	0.277714
H171	H	1.083664	-0.775482	-0.215147
H172	H	1.583664	-0.275482	0.284853
C173	C	0.847290	-0.661353	0.021399
C174	C	1.347290	-0.161353	0.521399
C175	C	0.894089	-0.604517	-0.025427
C176	C	1.394089	-0.104517	0.474573
H177	H	0.814409	-0.631709	0.054291
H178	H	1.314409	-0.131709	0.554291
H179	H	0.884028	-0.695439	0.056989
H180	H	1.384028	-0.195439	0.556989
H181	H	0.811682	-0.695448	-0.015330
H182	H	1.311682	-0.195448	0.484670
H183	H	0.929701	-0.570426	0.011302
H184	H	1.429701	-0.070426	0.511302
H185	H	0.857347	-0.570417	-0.061020
H186	H	1.357347	-0.070417	0.438980
H187	H	0.873414	-0.383027	-0.004738
H188	H	1.373414	0.116973	0.495262
