data_functionalizedCrystal
_audit_creation_method	'MofGen! by Chris Wilmer'
_symmetry_space_group_name_H-M	'P1'
_symmetry_Int_Tables_number	1
_symmetry_cell_setting	triclinic
loop_
_symmetry_equiv_pos_as_xyz
  x,y,z
_cell_length_a	10.654550
_cell_length_b	19.288865
_cell_length_c	18.366186
_cell_angle_alpha	90.011479
_cell_angle_beta	89.991266
_cell_angle_gamma	96.189425
loop_
_atom_site_label
_atom_site_type_symbol
_atom_site_fract_x
_atom_site_fract_y
_atom_site_fract_z
O1	O	1.665761	-0.097556	-0.060554
O2	O	2.165761	0.402444	0.439446
O3	O	1.300084	-0.106850	-0.060558
O4	O	1.800084	0.393150	0.439442
O5	O	1.493489	-0.001142	-0.060542
O6	O	1.993489	0.498858	0.439458
O7	O	1.472356	-0.203264	-0.060571
O8	O	1.972356	0.296736	0.439429
O9	O	1.493456	-0.001136	0.060558
O10	O	1.993456	0.498864	0.560558
O11	O	1.300051	-0.106845	0.060542
O12	O	1.800051	0.393155	0.560542
O13	O	1.665728	-0.097550	0.060545
O14	O	2.165728	0.402450	0.560545
Zn15	Zn	1.482884	-0.102196	0.079770
Zn16	Zn	1.982884	0.397804	0.579770
Zn17	Zn	1.482928	-0.102204	-0.079783
Zn18	Zn	1.982928	0.397796	0.420217
O19	O	1.472323	-0.203258	0.060529
O20	O	1.972323	0.296742	0.560529
C21	C	1.253284	-0.106165	-0.000008
C22	C	1.753284	0.393835	0.499992
C23	C	1.113884	-0.104123	-0.000009
C24	C	1.613884	0.395877	0.499991
C25	C	1.492792	0.024742	0.000010
C26	C	1.992792	0.524742	0.500010
C27	C	1.490751	0.101859	0.000017
C28	C	1.990751	0.601859	0.500017
C29	C	1.712528	-0.098235	-0.000006
C30	C	2.212528	0.401765	0.499994
C31	C	1.851928	-0.100277	-0.000010
C32	C	2.351928	0.399723	0.499990
C33	C	1.932746	-0.038038	-0.000004
C34	C	2.432746	0.461962	0.499996
C35	C	2.063725	-0.039960	-0.000001
C36	C	2.563725	0.460040	0.499999
C37	C	2.033056	-0.166367	-0.000013
C38	C	2.533056	0.333633	0.499987
C39	C	1.902079	-0.164444	-0.000011
C40	C	2.402079	0.335556	0.499989
C41	C	1.882594	0.026129	-0.000003
C42	C	2.382594	0.526129	0.499997
C43	C	1.963414	0.088374	0.000002
C44	C	2.463414	0.588374	0.500002
C45	C	2.094393	0.086451	0.000005
C46	C	2.594393	0.586451	0.500005
C47	C	2.144554	0.022284	0.000003
C48	C	2.644554	0.522284	0.500003
C49	C	1.473020	-0.229142	-0.000025
C50	C	1.973020	0.270858	0.499975
C51	C	1.475061	-0.306259	-0.000036
C52	C	1.975061	0.193741	0.499964
N53	N	1.482864	-0.102191	0.188662
N54	N	1.982864	0.397809	0.688662
C55	C	1.604232	0.145812	0.000021
C56	C	2.104232	0.645812	0.500021
C57	C	1.602315	0.218272	0.000010
C58	C	2.102315	0.718272	0.500010
C59	C	1.486909	0.246775	0.000008
C60	C	1.986909	0.746775	0.500008
C61	C	1.373413	0.202812	-0.000000
C62	C	1.873413	0.702812	0.500000
C63	C	1.375334	0.130354	0.000004
C64	C	1.875334	0.630354	0.500004
C65	C	1.396176	0.355658	0.042426
C66	C	1.896176	0.855658	0.542426
C67	C	1.394260	0.428115	0.042426
C68	C	1.894260	0.928115	0.542426
C69	C	1.480980	0.470259	-0.000008
C70	C	1.980980	0.970259	0.499992
C71	C	1.569638	0.439939	-0.042433
C72	C	2.069638	0.939939	0.457567
C73	C	1.571559	0.367481	-0.042429
C74	C	2.071559	0.867481	0.457571
C75	C	1.484814	0.325343	0.000003
C76	C	1.984814	0.825343	0.500003
C77	C	1.592390	0.592782	-0.000017
C78	C	2.092390	1.092782	0.499983
C79	C	1.590467	0.665243	-0.000033
C80	C	2.090467	1.165243	0.499967
C81	C	1.361562	0.649781	-0.000036
C82	C	1.861562	1.149781	0.499964
C83	C	1.363488	0.577322	-0.000027
C84	C	1.863488	1.077322	0.499973
C85	C	1.478905	0.548827	-0.000014
C86	C	1.978905	1.048827	0.499986
N87	N	1.482958	-0.102203	-0.188674
N88	N	1.982958	0.397797	0.311326
C89	C	1.568532	-0.055407	0.226769
C90	C	2.068532	0.444593	0.726769
C91	C	1.568540	-0.055404	0.302997
C92	C	2.068540	0.444596	0.802997
C93	C	1.482892	-0.102197	0.341114
C94	C	1.982892	0.397803	0.841114
C95	C	1.397208	-0.148985	0.302998
C96	C	1.897208	0.351015	0.802998
C97	C	1.397194	-0.148982	0.226771
C98	C	1.897194	0.351018	0.726771
C99	C	1.466081	-0.165375	0.461865
C100	C	1.966081	0.334625	0.961865
C101	C	1.466104	-0.165379	0.538090
C102	C	1.966104	0.334621	1.038090
C103	C	1.482928	-0.102206	0.576222
C104	C	1.982928	0.397794	1.076222
C105	C	1.499755	-0.039027	0.538119
C106	C	1.999755	0.460973	1.038119
C107	C	1.499741	-0.039024	0.461893
C108	C	1.999741	0.460976	0.961893
C109	C	1.482897	-0.102205	0.423769
C110	C	1.982897	0.397795	0.923769
C111	C	1.568609	-0.055415	0.696984
C112	C	2.068609	0.444585	1.196984
C113	C	1.568608	-0.055411	0.773214
C114	C	2.068608	0.444589	1.273214
C115	C	1.397282	-0.148998	0.773213
C116	C	1.897282	0.351002	1.273213
C117	C	1.397277	-0.148996	0.696985
C118	C	1.897277	0.351004	1.196985
C119	C	1.482947	-0.102205	0.658875
C120	C	1.982947	0.397795	1.158875
H121	H	1.775946	0.027702	-0.000008
H122	H	2.275946	0.527702	0.499992
H123	H	1.638303	-0.017305	0.334030
H124	H	2.138303	0.482695	0.834030
H125	H	2.073908	-0.218609	-0.000015
H126	H	2.573908	0.281391	0.499985
F127	F	1.242704	0.530542	-0.000029
F128	F	1.742704	1.030542	0.499971
H129	H	1.922564	0.140616	-0.000002
H130	H	2.422564	0.640616	0.499998
H131	H	2.160194	0.137133	0.000016
H132	H	2.660194	0.637133	0.500016
F133	F	1.659781	-0.005613	0.656424
F134	F	2.159781	0.494387	1.156424
H135	H	2.251207	0.020723	0.000013
H136	H	2.751207	0.520723	0.500013
F137	F	1.816062	-0.230686	-0.000013
F138	F	2.316062	0.269314	0.499987
F139	F	1.306103	-0.198793	0.656425
F140	F	1.806103	0.301207	1.156425
H141	H	1.267597	0.672988	-0.000041
H142	H	1.767597	1.172988	0.499959
H143	H	1.327542	-0.187095	0.804247
H144	H	1.827542	0.312905	1.304247
H145	H	1.698214	0.122617	0.000029
H146	H	2.198214	0.622617	0.500029
F147	F	1.448203	-0.232619	0.578635
F148	F	1.948203	0.267381	1.078635
F149	F	1.723102	0.265059	0.000014
F150	F	2.223102	0.765059	0.500014
F151	F	1.659703	-0.005606	0.186212
F152	F	2.159703	0.494394	0.686212
F153	F	1.448266	-0.232619	0.421291
F154	F	1.948266	0.267381	0.921291
H155	H	1.682881	0.701030	-0.000033
H156	H	2.182881	1.201030	0.499967
F157	F	1.303871	0.310812	0.087595
F158	F	1.803871	0.810812	0.587595
F159	F	1.517670	0.028212	0.578695
F160	F	2.017670	0.528212	1.078695
H161	H	1.643744	0.342797	-0.076974
H162	H	2.143744	0.842797	0.423026
F163	F	1.661939	0.484786	-0.087599
F164	F	2.161939	0.984786	0.412401
F165	F	1.306051	-0.198783	0.343565
F166	F	1.806051	0.301217	0.843565
F167	F	1.715225	0.562453	0.000000
F168	F	2.215225	1.062453	0.500000
H169	H	1.282921	0.094566	0.000000
H170	H	1.782921	0.594566	0.500000
F171	F	1.517640	0.028214	0.421343
F172	F	2.017640	0.528214	0.921343
H173	H	1.322064	0.452796	0.076967
H174	H	1.822064	0.952796	0.576967
H175	H	1.279449	0.226024	-0.000003
H176	H	1.779449	0.726024	0.499997
H177	H	1.638365	-0.017309	0.804241
H178	H	2.138365	0.482691	1.304241
F179	F	1.306012	-0.198778	0.186213
F180	F	1.806012	0.301222	0.686213
