data_functionalizedCrystal
_audit_creation_method	'MofGen! by Chris Wilmer'
_symmetry_space_group_name_H-M	'P1'
_symmetry_Int_Tables_number	1
_symmetry_cell_setting	triclinic
loop_
_symmetry_equiv_pos_as_xyz
  x,y,z
_cell_length_a	16.959455
_cell_length_b	16.959454
_cell_length_c	16.959447
_cell_angle_alpha	89.973264
_cell_angle_beta	89.985678
_cell_angle_gamma	90.017022
loop_
_atom_site_label
_atom_site_type_symbol
_atom_site_fract_x
_atom_site_fract_y
_atom_site_fract_z
Zn1	Zn	1.208384	-0.314730	-0.446928
Zn2	Zn	1.541717	0.018603	-0.113595
Zn3	Zn	1.875050	0.351936	0.219738
Zn4	Zn	1.208306	-0.446923	-0.314758
Zn5	Zn	1.541640	-0.113589	0.018575
Zn6	Zn	1.874973	0.219744	0.351909
Zn7	Zn	1.076212	-0.314755	-0.314766
Zn8	Zn	1.409546	0.018578	0.018567
Zn9	Zn	1.742879	0.351912	0.351901
Zn10	Zn	1.076177	-0.446864	-0.446897
Zn11	Zn	1.409510	-0.113530	-0.113563
Zn12	Zn	1.742844	0.219803	0.219770
O13	O	1.142270	-0.380818	-0.380837
O14	O	1.475603	-0.047485	-0.047504
O15	O	1.808936	0.285849	0.285829
O16	O	1.318984	-0.332280	-0.429406
O17	O	1.652318	0.001053	-0.096072
O18	O	1.985651	0.334386	0.237261
O19	O	1.190766	-0.429426	-0.204148
O20	O	1.524099	-0.096092	0.129185
O21	O	1.857433	0.237241	0.462518
O22	O	1.093792	-0.204141	-0.332314
O23	O	1.427126	0.129192	0.001019
O24	O	1.760459	0.462526	0.334353
O25	O	1.318927	-0.429402	-0.332301
O26	O	1.652261	-0.096068	0.001033
O27	O	1.985594	0.237265	0.334366
O28	O	1.190898	-0.204123	-0.429413
O29	O	1.524231	0.129211	-0.096080
O30	O	1.857565	0.462544	0.237253
O31	O	1.093717	-0.332323	-0.204154
O32	O	1.427050	0.001011	0.129179
O33	O	1.760384	0.334344	0.462513
O34	O	0.965597	-0.332265	-0.332283
O35	O	1.298930	0.001068	0.001050
O36	O	1.632263	0.334401	0.334383
O37	O	1.093732	-0.429301	-0.557512
O38	O	1.427065	-0.095967	-0.224178
O39	O	1.760399	0.237366	0.109155
O40	O	0.965571	-0.429325	-0.429359
O41	O	1.298904	-0.095992	-0.096026
O42	O	1.632237	0.237342	0.237307
O43	O	1.190864	-0.332223	-0.557535
O44	O	1.524197	0.001110	-0.224202
O45	O	1.857531	0.334444	0.109132
O46	O	1.190732	-0.557526	-0.332270
O47	O	1.524065	-0.224192	0.001063
O48	O	1.857398	0.109141	0.334397
O49	O	1.093657	-0.557482	-0.429352
O50	O	1.426990	-0.224149	-0.096018
O51	O	1.760324	0.109184	0.237315
C52	C	0.936904	-0.380792	-0.380819
C53	C	1.270237	-0.047459	-0.047486
C54	C	1.603570	0.285875	0.285848
C55	C	0.849047	-0.380800	-0.380830
C56	C	1.182380	-0.047466	-0.047497
C57	C	1.515714	0.285867	0.285837
C58	C	0.477560	-0.330238	-0.330395
C59	C	0.810894	0.003096	0.002938
C60	C	1.144227	0.336429	0.336271
C61	C	0.477582	-0.431463	-0.431324
C62	C	0.810916	-0.098130	-0.097991
C63	C	1.144249	0.235203	0.235342
C64	C	0.560128	-0.431452	-0.431320
C65	C	0.893461	-0.098119	-0.097986
C66	C	1.226795	0.235215	0.235347
C67	C	0.601394	-0.380834	-0.380851
C68	C	0.934727	-0.047500	-0.047518
C69	C	1.268061	0.285833	0.285816
C70	C	0.560114	-0.330226	-0.330387
C71	C	0.893447	0.003107	0.002946
C72	C	1.226781	0.336440	0.336279
C73	C	0.601414	-0.482064	-0.481777
C74	C	0.934748	-0.148731	-0.148443
C75	C	1.268081	0.184603	0.184890
C76	C	0.683965	-0.482055	-0.481773
C77	C	1.017299	-0.148722	-0.148440
C78	C	1.350632	0.184611	0.184893
C79	C	0.725233	-0.431432	-0.431308
C80	C	1.058566	-0.098099	-0.097975
C81	C	1.391899	0.235235	0.235359
C82	C	0.683948	-0.380822	-0.380843
C83	C	1.017281	-0.047489	-0.047510
C84	C	1.350614	0.285844	0.285824
C85	C	0.725213	-0.330204	-0.330374
C86	C	1.058547	0.003129	0.002959
C87	C	1.391880	0.336463	0.336292
C88	C	0.683930	-0.279589	-0.279913
C89	C	1.017263	0.053744	0.053421
C90	C	1.350596	0.387077	0.386754
C91	C	0.601381	-0.279603	-0.279922
C92	C	0.934715	0.053730	0.053411
C93	C	1.268048	0.387063	0.386745
C94	C	0.807781	-0.431418	-0.431299
C95	C	1.141114	-0.098085	-0.097965
C96	C	1.474448	0.235248	0.235368
C97	C	0.807767	-0.330193	-0.330366
C98	C	1.141100	0.003141	0.002967
C99	C	1.474434	0.336474	0.336300
C100	C	1.142204	-0.586184	-0.380824
C101	C	1.475537	-0.252851	-0.047490
C102	C	1.808870	0.080482	0.285843
C103	C	1.142248	-0.674041	-0.380844
C104	C	1.475581	-0.340708	-0.047511
C105	C	1.808914	-0.007374	0.285822
C106	C	1.091796	-1.045524	-0.431382
C107	C	1.425130	-0.712190	-0.098049
C108	C	1.758463	-0.378857	0.235284
C109	C	1.192963	-1.045509	-0.330373
C110	C	1.526297	-0.712176	0.002961
C111	C	1.859630	-0.378842	0.336294
C112	C	1.192936	-0.962963	-0.330365
C113	C	1.526269	-0.629630	0.002968
C114	C	1.859603	-0.296296	0.336301
C115	C	1.142337	-0.921694	-0.380867
C116	C	1.475670	-0.588360	-0.047533
C117	C	1.809004	-0.255027	0.285800
C118	C	1.091765	-0.962970	-0.431375
C119	C	1.425099	-0.629637	-0.098042
C120	C	1.758432	-0.296304	0.235292
C121	C	1.243501	-0.921680	-0.279852
C122	C	1.576834	-0.588347	0.053481
C123	C	1.910167	-0.255014	0.386814
C124	C	1.243475	-0.839130	-0.279842
C125	C	1.576808	-0.505796	0.053491
C126	C	1.910141	-0.172463	0.386824
C127	C	1.192879	-0.797859	-0.330348
C128	C	1.526212	-0.464525	0.002985
C129	C	1.859546	-0.131192	0.336318
C130	C	1.142306	-0.839140	-0.380859
C131	C	1.475639	-0.505807	-0.047526
C132	C	1.808973	-0.172474	0.285808
C133	C	1.091707	-0.797871	-0.431360
C134	C	1.425040	-0.464537	-0.098027
C135	C	1.758374	-0.131204	0.235306
C136	C	1.041137	-0.839151	-0.481876
C137	C	1.374471	-0.505818	-0.148542
C138	C	1.707804	-0.172484	0.184791
C139	C	1.041170	-0.921699	-0.481881
C140	C	1.374503	-0.588366	-0.148547
C141	C	1.707836	-0.255033	0.184786
C142	C	1.192847	-0.715310	-0.330343
C143	C	1.526180	-0.381977	0.002990
C144	C	1.859513	-0.048644	0.336323
C145	C	1.091676	-0.715317	-0.431353
C146	C	1.425009	-0.381984	-0.098019
C147	C	1.758343	-0.048651	0.235314
C148	C	1.348438	-0.380845	-0.380856
C149	C	1.681771	-0.047511	-0.047523
C150	C	2.015105	0.285822	0.285811
C151	C	1.436295	-0.380856	-0.380864
C152	C	1.769628	-0.047523	-0.047531
C153	C	2.102961	0.285811	0.285803
C154	C	1.142303	-0.380753	-0.587006
C155	C	1.475636	-0.047419	-0.253672
C156	C	1.808969	0.285914	0.079661
C157	C	1.142317	-0.380725	-0.674862
C158	C	1.475650	-0.047391	-0.341529
C159	C	1.808983	0.285942	-0.008196
C160	C	1.142358	-0.174650	-0.380868
C161	C	1.475691	0.158684	-0.047535
C162	C	1.809024	0.492017	0.285799
C163	C	1.142395	-0.086793	-0.380881
C164	C	1.475729	0.246540	-0.047548
C165	C	1.809062	0.579874	0.285785
C166	C	1.091839	-0.431185	-1.046328
C167	C	1.425172	-0.097852	-0.712995
C168	C	1.758506	0.235481	-0.379662
C169	C	1.192983	-0.330097	-1.046348
C170	C	1.526317	0.003236	-0.713014
C171	C	1.859650	0.336569	-0.379681
C172	C	1.192962	-0.330114	-0.963802
C173	C	1.526296	0.003219	-0.630468
C174	C	1.859629	0.336553	-0.297135
C175	C	1.142380	-0.380668	-0.922515
C176	C	1.475713	-0.047335	-0.589182
C177	C	1.809046	0.285999	-0.255849
C178	C	1.091818	-0.431205	-0.963775
C179	C	1.425151	-0.097872	-0.630441
C180	C	1.758485	0.235461	-0.297108
C181	C	1.243529	-0.279584	-0.922536
C182	C	1.576862	0.053750	-0.589203
C183	C	1.910195	0.387083	-0.255869
C184	C	1.243510	-0.279599	-0.839985
C185	C	1.576843	0.053734	-0.506652
C186	C	1.910177	0.387068	-0.173318
C187	C	1.192923	-0.330149	-0.798697
C188	C	1.526256	0.003184	-0.465364
C189	C	1.859590	0.336517	-0.132031
C190	C	1.142359	-0.380688	-0.839962
C191	C	1.475692	-0.047355	-0.506628
C192	C	1.809025	0.285979	-0.173295
C193	C	1.091776	-0.431242	-0.798675
C194	C	1.425109	-0.097909	-0.465342
C195	C	1.758443	0.235425	-0.132009
C196	C	1.041207	-0.481777	-0.839938
C197	C	1.374541	-0.148444	-0.506605
C198	C	1.707874	0.184890	-0.173272
C199	C	1.041231	-0.481756	-0.922487
C200	C	1.374564	-0.148422	-0.589154
C201	C	1.707898	0.184911	-0.255820
C202	C	1.192899	-0.330171	-0.716149
C203	C	1.526233	0.003163	-0.382815
C204	C	1.859566	0.336496	-0.049482
C205	C	1.091755	-0.431262	-0.716122
C206	C	1.425088	-0.097929	-0.382788
C207	C	1.758422	0.235405	-0.049455
C208	C	1.142283	-0.380826	-0.175471
C209	C	1.475616	-0.047493	0.157862
C210	C	1.808949	0.285841	0.491196
C211	C	1.142422	-0.380631	-0.087615
C212	C	1.475755	-0.047298	0.245719
C213	C	1.809088	0.286035	0.579052
H214	H	0.717571	-0.523268	-0.522863
H215	H	1.050905	-0.189935	-0.189529
H216	H	1.384238	0.143399	0.143804
F217	F	1.246719	-0.276396	-0.672237
F218	F	1.580052	0.056937	-0.338904
F219	F	1.913386	0.390270	-0.005571
F220	F	0.851714	-0.485286	-0.484995
F221	F	1.185048	-0.151953	-0.151662
F222	F	1.518381	0.181381	0.181672
H223	H	1.234170	-0.288943	-1.079968
H224	H	1.567503	0.044390	-0.746635
H225	H	1.900836	0.377724	-0.413301
F226	F	1.038020	-0.484963	-1.090243
F227	F	1.371354	-0.151630	-0.756909
F228	F	1.704687	0.181703	-0.423576
H229	H	1.234154	-1.079115	-0.289252
H230	H	1.567488	-0.745782	0.044081
H231	H	1.900821	-0.412449	0.377414
H232	H	1.050475	-0.681721	-0.472480
H233	H	1.383808	-0.348387	-0.139147
H234	H	1.717142	-0.015054	0.194187
H235	H	0.999936	-0.805540	-0.522991
H236	H	1.333269	-0.472207	-0.189657
H237	H	1.666602	-0.138873	0.143676
F238	F	0.727857	-0.225724	-0.226198
F239	F	1.061191	0.107609	0.107135
F240	F	1.394524	0.440943	0.440469
F241	F	1.297351	-0.965606	-0.226113
F242	F	1.630684	-0.632273	0.107221
F243	F	1.964017	-0.298939	0.440554
H244	H	0.999998	-0.955317	-0.523007
H245	H	1.333331	-0.621984	-0.189673
H246	H	1.666665	-0.288650	0.143660
H247	H	0.443944	-0.289026	-0.289313
H248	H	0.777277	0.044307	0.044020
H249	H	1.110610	0.377640	0.377354
F250	F	0.557439	-0.225741	-0.226222
F251	F	0.890773	0.107592	0.107111
F252	F	1.224106	0.440926	0.440445
F253	F	0.851679	-0.276312	-0.276654
F254	F	1.185012	0.057021	0.056680
F255	F	1.518345	0.390354	0.390013
F256	F	1.037983	-1.089456	-0.485145
F257	F	1.371316	-0.756123	-0.151812
F258	F	1.704649	-0.422790	0.181521
F259	F	1.297299	-0.795204	-0.226085
F260	F	1.630632	-0.461870	0.107248
F261	F	1.963966	-0.128537	0.440582
H262	H	1.234016	-0.681704	-0.289211
H263	H	1.567349	-0.348370	0.044123
H264	H	1.900682	-0.015037	0.377456
F265	F	1.297363	-0.225790	-0.966480
F266	F	1.630697	0.107543	-0.633146
F267	F	1.964030	0.440877	-0.299813
H268	H	0.443979	-0.472679	-0.472409
H269	H	0.777312	-0.139346	-0.139075
H270	H	1.110645	0.193987	0.194258
H271	H	0.567810	-0.523280	-0.522860
H272	H	0.901143	-0.189947	-0.189526
H273	H	1.234476	0.143386	0.143807
H274	H	1.050557	-0.472422	-0.682512
H275	H	1.383890	-0.139089	-0.349179
H276	H	1.717224	0.194244	-0.015845
F277	F	0.987379	-0.535582	-0.795989
F278	F	1.320713	-0.202249	-0.462656
F279	F	1.654046	0.131084	-0.129322
H280	H	1.000063	-0.522901	-0.956091
H281	H	1.333396	-0.189568	-0.622757
H282	H	1.666730	0.143765	-0.289424
F283	F	1.297327	-0.225814	-0.796077
F284	F	1.630661	0.107519	-0.462744
F285	F	1.963994	0.440853	-0.129411
