data_functionalizedCrystal
_audit_creation_method	'MofGen! by Chris Wilmer'
_symmetry_space_group_name_H-M	'P1'
_symmetry_Int_Tables_number	1
_symmetry_cell_setting	triclinic
loop_
_symmetry_equiv_pos_as_xyz
  x,y,z
_cell_length_a	11.169416
_cell_length_b	25.639242
_cell_length_c	11.169409
_cell_angle_alpha	90.025800
_cell_angle_beta	89.968635
_cell_angle_gamma	89.998921
loop_
_atom_site_label
_atom_site_type_symbol
_atom_site_fract_x
_atom_site_fract_y
_atom_site_fract_z
Zn1	Zn	-0.478000	-0.799379	-0.678742
Zn2	Zn	-0.678741	-0.799331	-0.478062
Zn3	Zn	-0.478039	-0.711941	-0.478056
Zn4	Zn	-0.678608	-0.711944	-0.678686
O5	O	-0.578347	-0.755649	-0.578387
O6	O	-0.504668	-0.872538	-0.652148
O7	O	-0.652189	-0.787717	-0.310112
O8	O	-0.310084	-0.723558	-0.504697
O9	O	-0.652152	-0.872503	-0.504709
O10	O	-0.310056	-0.787799	-0.652141
O11	O	-0.504734	-0.723512	-0.310107
O12	O	-0.504605	-0.638776	-0.504643
O13	O	-0.651926	-0.723564	-0.846644
O14	O	-0.651963	-0.638778	-0.652046
O15	O	-0.504540	-0.787802	-0.846684
O16	O	-0.846673	-0.787721	-0.504655
O17	O	-0.846576	-0.723518	-0.652053
C18	C	-0.578275	-0.619806	-0.578339
C19	C	-0.578273	-0.561692	-0.578347
C20	C	-0.501664	-0.310525	-0.655268
C21	C	-0.501656	-0.365129	-0.655265
O22	O	-0.436481	-0.393389	-0.720674
N23	N	-0.578313	-0.392418	-0.578376
C24	C	-0.654993	-0.365100	-0.501494
O25	O	-0.720196	-0.393325	-0.436094
C26	C	-0.655007	-0.310497	-0.501504
C27	C	-0.578336	-0.283211	-0.578389
C28	C	-0.425000	-0.283239	-0.732148
C29	C	-0.425008	-0.228639	-0.732149
C30	C	-0.501680	-0.201324	-0.655271
C31	C	-0.578344	-0.228610	-0.578391
C32	C	-0.731692	-0.283179	-0.424629
C33	C	-0.731700	-0.228572	-0.424646
C34	C	-0.655029	-0.201286	-0.501531
C35	C	-0.655023	-0.146695	-0.501513
N36	N	-0.578365	-0.119406	-0.578402
C37	C	-0.501693	-0.146721	-0.655281
C38	C	-0.654959	-0.479771	-0.501480
C39	C	-0.654940	-0.534373	-0.501463
C40	C	-0.501604	-0.534399	-0.655236
C41	C	-0.501618	-0.479795	-0.655246
C42	C	-0.578302	-0.452482	-0.578369
C43	C	-0.501714	-0.032056	-0.655277
C44	C	-0.501725	0.022550	-0.655268
C45	C	-0.655065	0.022571	-0.501500
C46	C	-0.655051	-0.032030	-0.501504
C47	C	-0.578371	-0.059342	-0.578402
O48	O	-0.720167	-0.118401	-0.436141
O49	O	-0.436512	-0.118489	-0.720680
C50	C	-0.890172	-0.755629	-0.578375
C51	C	-1.023572	-0.755668	-0.578410
C52	C	-0.265305	-0.755683	-0.578425
C53	C	-0.131905	-0.755698	-0.578441
C54	C	-0.578214	-0.755689	-0.891429
C55	C	-0.578157	-0.755706	-1.024829
C56	C	-0.578407	0.107978	-0.578419
C57	C	-0.578397	0.049864	-0.578389
C58	C	-0.578393	-0.755639	-0.266562
C59	C	-0.578112	-0.755723	-0.133162
H60	H	-0.717472	-0.054247	-0.438887
C61	C	-0.815019	-0.312860	-0.341353
C62	C	-0.891998	-0.344231	-0.409178
C63	C	-0.968773	-0.371584	-0.332503
H64	H	-0.860795	-0.288824	-0.295555
H65	H	-0.769098	-0.334180	-0.289138
H66	H	-0.937915	-0.322913	-0.461372
H67	H	-0.846256	-0.368277	-0.454973
H68	H	-0.922852	-0.392903	-0.280288
H69	H	-1.014541	-0.347544	-0.286710
H70	H	-1.021005	-0.392876	-0.378511
C71	C	-0.341971	-0.198953	-0.815712
C72	C	-0.410021	-0.167618	-0.892512
C73	C	-0.333569	-0.140264	-0.969506
H74	H	-0.296291	-0.222988	-0.861608
H75	H	-0.289638	-0.177609	-0.769942
H76	H	-0.462334	-0.188960	-0.938279
H77	H	-0.455699	-0.143573	-0.846650
H78	H	-0.281236	-0.118919	-0.923735
H79	H	-0.287893	-0.164303	-1.015394
H80	H	-0.379729	-0.118996	-1.021616
H81	H	-0.717485	0.044820	-0.438902
H82	H	-0.439285	0.044764	-0.717877
H83	H	-0.362564	-0.305473	-0.794758
C84	C	-0.738016	-0.450051	-0.417925
C85	C	-0.669985	-0.418674	-0.341135
C86	C	-0.746456	-0.391287	-0.264163
H87	H	-0.783690	-0.474067	-0.372021
H88	H	-0.790354	-0.428732	-0.463712
H89	H	-0.617669	-0.439991	-0.295353
H90	H	-0.624314	-0.394649	-0.387006
H91	H	-0.798794	-0.369968	-0.309950
H92	H	-0.792127	-0.415306	-0.218267
H93	H	-0.700310	-0.369991	-0.212059
H94	H	-0.439184	-0.457583	-0.717852
H95	H	-0.794151	-0.206337	-0.362045
C96	C	-0.418566	-0.564088	-0.738866
C97	C	-0.486619	-0.595443	-0.815684
C98	C	-0.410173	-0.622796	-0.892745
H99	H	-0.366195	-0.585422	-0.693182
H100	H	-0.372929	-0.540036	-0.784734
H101	H	-0.532236	-0.619492	-0.769820
H102	H	-0.538988	-0.574122	-0.861393
H103	H	-0.364536	-0.598744	-0.938613
H104	H	-0.357805	-0.644126	-0.847051
H105	H	-0.456336	-0.644069	-0.944882
C106	C	-0.418329	-0.061609	-0.738809
C107	C	-0.351178	-0.026017	-0.806106
C108	C	-0.274337	-0.053222	-0.883050
H109	H	-0.464153	-0.082923	-0.791138
H110	H	-0.365911	-0.082887	-0.693014
H111	H	-0.403590	-0.004748	-0.851897
H112	H	-0.305330	-0.004701	-0.753809
H113	H	-0.221919	-0.074500	-0.837256
H114	H	-0.320171	-0.074535	-0.935372
H115	H	-0.228758	-0.029077	-0.928713
H116	H	-0.717361	-0.556585	-0.438842
