data_functionalizedCrystal
_audit_creation_method	'MofGen! by Chris Wilmer'
_symmetry_space_group_name_H-M	'P1'
_symmetry_Int_Tables_number	1
_symmetry_cell_setting	triclinic
loop_
_symmetry_equiv_pos_as_xyz
  x,y,z
_cell_length_a	10.686220
_cell_length_b	14.908520
_cell_length_c	10.685880
_cell_angle_alpha	97.870404
_cell_angle_beta	89.641569
_cell_angle_gamma	97.432447
loop_
_atom_site_label
_atom_site_type_symbol
_atom_site_fract_x
_atom_site_fract_y
_atom_site_fract_z
Zn1	Zn	1.951154	-0.284114	-0.586888
Zn2	Zn	1.924425	-0.425645	-0.389348
Zn3	Zn	1.725146	-0.285969	-0.393371
Zn4	Zn	1.729124	-0.448780	-0.617116
O5	O	1.832462	-0.361127	-0.496681
O6	O	2.123928	-0.292431	-0.546350
O7	O	1.885139	-0.398211	-0.213572
O8	O	1.764648	-0.158355	-0.408074
O9	O	2.104290	-0.396413	-0.401218
O10	O	1.930695	-0.156993	-0.550251
O11	O	1.738730	-0.295592	-0.216527
O12	O	1.549354	-0.318025	-0.437385
O13	O	1.771428	-0.435842	-0.789416
O14	O	1.552277	-0.437641	-0.601770
O15	O	1.934553	-0.314863	-0.767207
O16	O	1.888997	-0.556082	-0.430528
O17	O	1.745510	-0.573079	-0.597869
C18	C	1.505098	-0.380545	-0.523295
C19	C	1.365051	-0.388875	-0.534712
C20	C	1.814821	-0.597605	-0.517067
C21	C	1.807392	-0.698766	-0.525821
C22	C	1.943021	-0.871096	-0.368136
C23	C	1.936045	-0.966146	-0.376357
C24	C	1.786472	-0.983917	-0.550488
C25	C	1.793448	-0.888867	-0.542268
C26	C	1.871724	-0.832460	-0.451087
C27	C	1.878692	-0.737408	-0.442861
C28	C	1.729127	-0.755181	-0.616998
C29	C	1.722151	-0.850231	-0.625219
C30	C	2.161105	-0.341634	-0.469963
C31	C	2.301153	-0.333328	-0.458578
C32	C	1.856416	-0.377726	-0.825305
C33	C	1.866623	-0.384800	-0.965345
C34	C	1.850209	-0.123726	-0.476239
C35	C	1.857772	-0.022559	-0.467529
C36	C	1.808680	-0.344523	-0.169323
C37	C	1.798735	-0.337178	-0.029242
H38	H	1.353587	-0.279398	-0.384661
C39	C	1.955709	-0.447196	-1.036169
C40	C	2.098205	-0.430375	-1.005901
C41	C	2.187289	-0.492770	-1.076725
C42	C	2.133877	-0.571985	-1.177817
C43	C	1.991374	-0.588810	-1.208089
C44	C	1.902290	-0.526415	-1.137265
H45	H	2.137750	-0.371732	-0.931063
H46	H	2.292779	-0.480315	-1.054315
H47	H	2.199822	-0.618174	-1.230245
H48	H	1.951829	-0.647453	-1.282928
H49	H	1.796800	-0.538870	-1.159676
C50	C	1.636053	-0.912285	-0.725512
C51	C	1.528395	-0.980817	-0.684527
C52	C	1.442294	-1.042869	-0.784820
C53	C	1.463851	-1.036390	-0.926099
C54	C	1.571513	-0.967856	-0.967091
C55	C	1.657614	-0.905803	-0.866798
H56	H	1.512433	-0.985615	-0.579937
H57	H	1.362595	-1.093603	-0.754474
H58	H	1.400114	-1.082326	-1.000343
H59	H	1.587475	-0.963057	-1.071681
H60	H	1.737313	-0.855069	-0.897144
H61	H	1.671067	-0.723713	-0.684539
H62	H	1.722753	-1.029859	-0.624731
C63	C	1.294219	-0.461742	-0.634574
C64	C	1.149475	-0.470260	-0.646241
C65	C	1.078643	-0.543125	-0.746101
C66	C	1.152555	-0.607471	-0.834295
C67	C	1.297306	-0.598955	-0.822631
C68	C	1.368138	-0.526090	-0.722771
H69	H	1.094754	-0.422625	-0.580953
H70	H	0.971488	-0.549429	-0.754735
H71	H	1.100121	-0.661410	-0.908217
H72	H	1.352027	-0.646590	-0.887919
H73	H	1.475293	-0.519786	-0.714137
C74	C	2.029113	-0.809040	-0.267839
C75	C	2.007545	-0.815518	-0.126561
C76	C	2.093637	-0.753462	-0.026263
C77	C	2.201297	-0.684930	-0.067242
C78	C	2.222870	-0.678450	-0.208527
C79	C	2.136778	-0.740505	-0.308826
H80	H	1.927844	-0.866252	-0.096220
H81	H	2.077667	-0.758259	0.078326
H82	H	2.265028	-0.638992	0.007004
H83	H	2.302571	-0.627715	-0.238869
H84	H	2.152748	-0.735708	-0.413414
C85	C	1.709654	-0.274785	-0.958423
C86	C	1.728966	-0.171602	-0.966651
C87	C	1.639884	-0.109208	-0.895823
C88	C	1.531489	-0.149998	-0.816767
C89	C	1.512172	-0.253186	-0.808536
C90	C	1.601255	-0.315580	-0.879364
H91	H	1.809211	-0.141403	-1.025176
H92	H	1.654184	-0.032821	-0.901917
H93	H	1.465545	-0.103810	-0.764336
H94	H	1.431928	-0.283385	-0.750011
H95	H	1.586955	-0.391967	-0.873270
C96	C	2.014469	-1.008647	-0.285106
C97	C	2.100565	-0.946597	-0.184816
C98	C	2.178994	-0.989098	-0.093562
C99	C	2.171328	-1.093648	-0.102599
C100	C	2.085228	-1.155704	-0.202894
C101	C	2.006799	-1.113203	-0.294147
H102	H	2.106244	-0.869197	-0.178122
H103	H	2.242731	-0.943160	-0.019318
H104	H	2.229386	-1.125110	-0.035048
H105	H	2.079549	-1.233104	-0.209588
H106	H	1.943062	-1.159142	-0.368392
H107	H	1.942424	-0.691482	-0.368615
