data_functionalizedCrystal
_audit_creation_method	'MofGen! by Chris Wilmer'
_symmetry_space_group_name_H-M	'P1'
_symmetry_Int_Tables_number	1
_symmetry_cell_setting	triclinic
loop_
_symmetry_equiv_pos_as_xyz
  x,y,z
_cell_length_a	12.759401
_cell_length_b	12.759400
_cell_length_c	12.759393
_cell_angle_alpha	89.968436
_cell_angle_beta	90.018496
_cell_angle_gamma	89.985155
loop_
_atom_site_label
_atom_site_type_symbol
_atom_site_fract_x
_atom_site_fract_y
_atom_site_fract_z
Zn1	Zn	1.606255	0.418200	0.593981
Zn2	Zn	1.606150	0.593919	0.418301
Zn3	Zn	1.430557	0.418255	0.418321
Zn4	Zn	1.430546	0.593838	0.593943
O5	O	1.518377	0.506053	0.506137
O6	O	1.753262	0.441520	0.570685
O7	O	1.582818	0.570673	0.271283
O8	O	1.453913	0.271226	0.441647
O9	O	1.753185	0.570620	0.441614
O10	O	1.582998	0.271186	0.570704
O11	O	1.453811	0.441614	0.271297
O12	O	1.283535	0.441535	0.441609
O13	O	1.453894	0.570482	0.740969
O14	O	1.283527	0.570536	0.570638
O15	O	1.582987	0.441442	0.740997
O16	O	1.582807	0.740929	0.441577
O17	O	1.453791	0.740870	0.570620
C18	C	1.245410	0.506033	0.506122
C19	C	1.128633	0.506050	0.506141
C20	C	1.518315	0.779020	0.506115
C21	C	1.518384	0.895797	0.506140
C22	C	1.518451	0.505947	0.780170
C23	C	1.518482	0.505902	0.896947
C24	C	1.073794	0.573328	0.573215
C25	C	0.964070	0.573342	0.573227
C26	C	0.964034	0.438796	0.439081
C27	C	1.073756	0.438778	0.439075
C28	C	1.128672	0.640600	0.640281
C29	C	1.073833	0.707885	0.707360
C30	C	0.964109	0.707898	0.707371
C31	C	0.909224	0.640627	0.640304
C32	C	1.792410	0.506073	0.506152
C33	C	1.909187	0.506082	0.506158
C34	C	1.518468	0.232019	0.506182
C35	C	1.518507	0.115243	0.506201
C36	C	1.585637	0.950655	0.439022
C37	C	1.585702	1.060379	0.439054
C38	C	1.451252	1.060377	0.573327
C39	C	1.451193	0.950655	0.573299
C40	C	1.663258	0.950657	0.361498
C41	C	1.663322	1.060381	0.361530
C42	C	1.518364	0.506083	0.233169
C43	C	1.518537	0.505832	0.116393
C44	C	1.585710	0.438704	0.951825
C45	C	1.585735	0.438666	1.061549
C46	C	1.451301	0.573033	1.061507
C47	C	1.451272	0.573064	0.951785
C48	C	1.663328	0.361131	0.951851
C49	C	1.663353	0.361093	1.061575
H50	H	1.218015	0.640599	0.640277
C51	C	1.133354	0.365607	0.366421
C52	C	1.196353	0.298309	0.426022
C53	C	1.251257	0.230876	0.359131
H54	H	1.176221	0.405613	0.320552
H55	H	1.084987	0.325492	0.326495
H56	H	1.244715	0.338420	0.465930
H57	H	1.153512	0.258279	0.471889
H58	H	1.202890	0.190760	0.319205
H59	H	1.294119	0.270891	0.313265
H60	H	1.294001	0.185200	0.399560
H61	H	1.634239	0.283784	1.095623
H62	H	1.118528	0.762647	0.761970
C63	C	1.378222	0.646119	0.892391
C64	C	1.319387	0.704942	0.963903
C65	C	1.252085	0.772257	0.909228
H66	H	1.332363	0.606039	0.849598
H67	H	1.418345	0.691977	0.849595
H68	H	1.279268	0.659089	1.006681
H69	H	1.365219	0.745043	1.006698
H70	H	1.292208	0.818115	0.866432
H71	H	1.206233	0.732168	0.866438
H72	H	1.212164	0.812183	0.957741
C73	C	1.378514	0.646086	1.121102
C74	C	1.437994	0.713429	1.184062
C75	C	1.370980	0.780753	1.238962
H76	H	1.332740	0.606002	1.163997
H77	H	1.338491	0.686174	1.072733
H78	H	1.477999	0.673346	1.232426
H79	H	1.483766	0.753536	1.141194
H80	H	1.330957	0.820841	1.190593
H81	H	1.325209	0.740660	1.281851
H82	H	1.411327	0.826460	1.281679
H83	H	1.744723	0.382886	1.091353
C84	C	1.634261	1.100004	0.252969
C85	C	1.616422	1.014548	0.186532
C86	C	1.589634	1.051008	0.086527
H87	H	1.689932	1.141316	0.225851
H88	H	1.572503	1.141382	0.257317
H89	H	1.678173	0.973187	0.182181
H90	H	1.560747	0.973227	0.213616
H91	H	1.527875	1.092385	0.090875
H92	H	1.645309	1.092320	0.059420
H93	H	1.577517	0.993032	0.041440
C94	C	1.378239	0.891231	0.646347
C95	C	1.401066	0.917841	0.750319
C96	C	1.333870	0.863133	0.817642
H97	H	1.387756	0.818011	0.636860
H98	H	1.307648	0.909307	0.630983
H99	H	1.471640	0.899758	0.765679
H100	H	1.391543	0.991052	0.759840
H101	H	1.263279	0.881209	0.802278
H102	H	1.343392	0.789915	0.808146
H103	H	1.349342	0.881187	0.888194
C104	C	0.904757	0.781056	0.780239
C105	C	0.976306	0.839980	0.838949
C106	C	0.921672	0.907400	0.906074
H107	H	0.861974	0.741047	0.826185
H108	H	0.861955	0.826847	0.739995
H109	H	1.019089	0.794195	0.879191
H110	H	1.019091	0.880010	0.793031
H111	H	0.878870	0.953190	0.865830
H112	H	0.878891	0.867382	0.952013
H113	H	0.970209	0.947394	0.945910
C114	C	1.634079	0.252684	0.912223
C115	C	1.534137	0.226149	0.948913
C116	C	1.507153	0.126266	0.912418
H117	H	1.683633	0.202937	0.937030
H118	H	1.633997	0.252683	0.837764
H119	H	1.534227	0.226142	1.023356
H120	H	1.484562	0.275869	0.924109
H121	H	1.507070	0.126264	0.837958
H122	H	1.556712	0.076527	0.937226
H123	H	1.439336	0.108253	0.937298
H124	H	1.396548	1.105056	0.628005
H125	H	1.740626	1.094325	0.390742
C126	C	1.766458	0.399990	0.906658
C127	C	1.834806	0.425712	0.988564
C128	C	1.929823	0.461500	0.946972
H129	H	1.754086	0.460294	0.864752
H130	H	1.796932	0.346501	0.864802
H131	H	1.804338	0.479197	1.030403
H132	H	1.847208	0.365424	1.030478
H133	H	1.960297	0.408010	0.905116
H134	H	1.917440	0.521801	0.905066
H135	H	1.976212	0.478947	1.002538
H136	H	1.634133	0.916710	0.284172
C137	C	0.790093	0.640794	0.640471
C138	C	0.753811	0.714110	0.713569
C139	C	0.644077	0.714291	0.713755
H140	H	0.765195	0.573072	0.658806
H141	H	0.765166	0.658927	0.572672
H142	H	0.778728	0.695971	0.781353
H143	H	0.778680	0.781843	0.695250
H144	H	0.619149	0.732424	0.645956
H145	H	0.619189	0.646565	0.732088
H146	H	0.619445	0.764041	0.763343
H147	H	0.919337	0.384028	0.384477
H148	H	1.744601	0.920799	0.383349
