data_functionalizedCrystal
_audit_creation_method	'MofGen! by Chris Wilmer'
_symmetry_space_group_name_H-M	'P1'
_symmetry_Int_Tables_number	1
_symmetry_cell_setting	triclinic
loop_
_symmetry_equiv_pos_as_xyz
  x,y,z
_cell_length_a	21.395362
_cell_length_b	19.805405
_cell_length_c	21.395355
_cell_angle_alpha	89.982777
_cell_angle_beta	89.956060
_cell_angle_gamma	90.042604
loop_
_atom_site_label
_atom_site_type_symbol
_atom_site_fract_x
_atom_site_fract_y
_atom_site_fract_z
Zn1	Zn	0.957877	-0.269255	-0.354591
Zn2	Zn	1.457877	0.230745	0.145409
Zn3	Zn	0.957787	-0.382425	-0.249816
Zn4	Zn	1.457787	0.117575	0.250184
Zn5	Zn	0.853092	-0.269286	-0.249793
Zn6	Zn	1.353092	0.230714	0.250207
Zn7	Zn	0.853068	-0.382438	-0.354521
Zn8	Zn	1.353068	0.117562	0.145479
O9	O	0.905456	-0.325851	-0.302180
O10	O	1.405456	0.174149	0.197820
O11	O	1.045543	-0.284248	-0.340732
O12	O	1.545543	0.215752	0.159268
O13	O	0.943871	-0.367424	-0.162135
O14	O	1.443871	0.132576	0.337865
O15	O	0.867039	-0.174565	-0.263714
O16	O	1.367039	0.325435	0.236286
O17	O	1.045476	-0.367393	-0.263754
O18	O	1.545476	0.132607	0.236246
O19	O	0.944024	-0.174542	-0.340709
O20	O	1.444024	0.325458	0.159291
O21	O	0.866952	-0.284302	-0.162118
O22	O	1.366952	0.215698	0.337882
O23	O	0.765411	-0.284315	-0.263646
O24	O	1.265411	0.215685	0.236354
O25	O	0.866999	-0.367417	-0.442208
O26	O	1.366999	0.132583	0.057792
O27	O	0.765393	-0.367448	-0.340589
O28	O	1.265393	0.132552	0.159411
O29	O	0.944002	-0.284261	-0.442260
O30	O	1.444002	0.215739	0.057740
O31	O	0.943848	-0.477143	-0.263686
O32	O	1.443848	0.022857	0.236314
O33	O	0.866912	-0.477153	-0.340612
O34	O	1.366912	0.022847	0.159388
C35	C	0.742668	-0.325887	-0.302107
C36	C	1.242668	0.174113	0.197893
C37	C	0.673027	-0.325918	-0.302091
C38	C	1.173027	0.174082	0.197909
C39	C	0.640321	-0.369263	-0.342096
C40	C	1.140321	0.130737	0.157904
C41	C	0.574886	-0.369246	-0.342124
C42	C	1.074886	0.130754	0.157876
C43	C	0.542159	-0.325892	-0.302136
C44	C	1.042159	0.174108	0.197864
C45	C	0.574872	-0.282539	-0.262129
C46	C	1.074872	0.217461	0.237871
C47	C	0.640306	-0.282553	-0.262106
C48	C	1.140306	0.217447	0.237894
C49	C	0.438434	-0.320440	-0.245731
C50	C	0.938434	0.179560	0.254269
C51	C	0.373001	-0.320431	-0.245752
C52	C	0.873001	0.179569	0.254248
C53	C	0.340338	-0.325848	-0.302205
C54	C	0.840338	0.174152	0.197795
C55	C	0.373116	-0.331287	-0.358639
C56	C	0.873116	0.168713	0.141361
C57	C	0.438550	-0.331301	-0.358616
C58	C	0.938550	0.168699	0.141384
C59	C	0.471206	-0.325873	-0.302156
C60	C	0.971206	0.174127	0.197844
C61	C	0.236680	-0.369177	-0.342243
C62	C	0.736680	0.130823	0.157757
C63	C	0.171243	-0.369156	-0.342272
C64	C	0.671243	0.130844	0.157728
C65	C	0.171231	-0.282452	-0.262272
C66	C	0.671231	0.217548	0.237728
C67	C	0.236666	-0.282470	-0.262248
C68	C	0.736666	0.217530	0.237752
C69	C	0.269387	-0.325836	-0.302233
C70	C	0.769387	0.174164	0.197767
C71	C	0.905384	-0.501707	-0.302157
C72	C	1.405384	-0.001707	0.197843
C73	C	0.905411	-0.576939	-0.302169
C74	C	1.405411	-0.076939	0.197831
C75	C	0.945474	-0.612213	-0.342292
C76	C	1.445474	-0.112213	0.157708
C77	C	0.945496	-0.682901	-0.342303
C78	C	1.445496	-0.182901	0.157697
C79	C	0.905459	-0.718315	-0.302188
C80	C	1.405459	-0.218315	0.197812
C81	C	0.865392	-0.683036	-0.262064
C82	C	1.365392	-0.183036	0.237936
C83	C	0.865367	-0.612349	-0.262056
C84	C	1.365367	-0.112349	0.237944
C85	C	0.865493	-0.968109	-0.262096
C86	C	1.365493	-0.468109	0.237904
C87	C	0.865523	-1.038801	-0.262106
C88	C	1.365523	-0.538801	0.237894
C89	C	0.945622	-1.038662	-0.342343
C90	C	1.445622	-0.538662	0.157657
C91	C	0.945597	-0.967975	-0.342335
C92	C	1.445597	-0.467975	0.157665
C93	C	0.905528	-0.932702	-0.302213
C94	C	1.405528	-0.432702	0.197787
C95	C	0.905503	-0.856053	-0.302202
C96	C	1.405503	-0.356053	0.197798
C97	C	0.905487	-0.794962	-0.302196
C98	C	1.405487	-0.294962	0.197804
C99	C	1.068879	-0.325816	-0.302253
C100	C	1.568879	0.174184	0.197747
C101	C	1.138520	-0.325800	-0.302285
C102	C	1.638520	0.174200	0.197715
C103	C	0.905508	-0.325837	-0.465604
C104	C	1.405508	0.174163	0.034396
C105	C	0.905530	-0.325831	-0.535245
C106	C	1.405530	0.174169	-0.035245
C107	C	0.905545	-0.149308	-0.302217
C108	C	1.405545	0.350692	0.197783
C109	C	0.905582	-0.074076	-0.302232
C110	C	1.405582	0.425924	0.197768
C111	C	0.945623	-0.282530	-0.567986
C112	C	1.445623	0.217470	-0.067986
C113	C	0.945623	-0.282501	-0.633421
C114	C	1.445623	0.217499	-0.133421
C115	C	0.905535	-0.325785	-0.666113
C116	C	1.405535	0.174215	-0.166113
C117	C	0.865434	-0.369089	-0.633364
C118	C	1.365434	0.130911	-0.133364
C119	C	0.865431	-0.369112	-0.567930
C120	C	1.365431	0.130888	-0.067930
C121	C	0.900563	-0.386731	-0.769778
C122	C	1.400563	0.113269	-0.269778
C123	C	0.900570	-0.386709	-0.835211
C124	C	1.400570	0.113291	-0.335211
C125	C	0.905539	-0.325714	-0.867934
C126	C	1.405539	0.174286	-0.367934
C127	C	0.910514	-0.264738	-0.835216
C128	C	1.410514	0.235262	-0.335216
C129	C	0.910512	-0.264762	-0.769782
C130	C	1.410512	0.235238	-0.269782
C131	C	0.905533	-0.325765	-0.737066
C132	C	1.405533	0.174235	-0.237066
C133	C	0.945633	-0.282378	-0.971628
C134	C	1.445633	0.217622	-0.471628
C135	C	0.945628	-0.282347	-1.037064
C136	C	1.445628	0.217653	-0.537064
C137	C	0.865443	-0.368941	-1.037006
C138	C	1.365443	0.131059	-0.537006
C139	C	0.865445	-0.368966	-0.971571
C140	C	1.365445	0.131034	-0.471571
C141	C	0.905543	-0.325685	-0.938885
C142	C	1.405543	0.174315	-0.438885
C143	C	0.905440	-0.325816	-0.139393
C144	C	1.405440	0.174184	0.360607
C145	C	0.905539	-0.325631	-0.069752
C146	C	1.405539	0.174369	0.430248
H147	H	0.666958	-0.404574	-0.374656
H148	H	1.166958	0.095426	0.125344
Br149	Br	1.000002	-1.086535	-0.396797
Br150	Br	1.500002	-0.586535	0.103203
Br151	Br	0.811013	-0.427882	-0.523492
Br152	Br	1.311013	0.072118	-0.023492
H153	H	0.832791	-0.711875	-0.229404
H154	H	1.332791	-0.211875	0.270596
H155	H	0.832917	-1.067633	-0.229439
H156	H	1.332917	-0.567633	0.270561
H157	H	0.465022	-0.316026	-0.199756
H158	H	0.965022	0.183974	0.300244
H159	H	0.832743	-0.583629	-0.229385
H160	H	1.332743	-0.083629	0.270615
Br161	Br	0.530489	-0.428074	-0.396420
Br162	Br	1.030489	0.071926	0.103580
H163	H	0.346318	-0.316007	-0.199800
H164	H	0.846318	0.183993	0.300200
H165	H	0.465236	-0.335727	-0.404567
H166	H	0.965236	0.164273	0.095433
H167	H	0.914561	-0.215070	-0.861857
H168	H	1.414561	0.284930	-0.361857
H169	H	0.978201	-0.939143	-0.374998
H170	H	1.478201	-0.439143	0.125002
H171	H	0.548222	-0.247239	-0.229572
H172	H	1.048222	0.252761	0.270428
Br173	Br	0.328797	-0.338637	-0.435260
Br174	Br	0.828797	0.161363	0.064740
H175	H	0.978079	-0.583384	-0.374955
H176	H	1.478079	-0.083384	0.125045
Br177	Br	0.281056	-0.223642	-0.207953
Br178	Br	0.781056	0.276358	0.292047
H179	H	0.263322	-0.404485	-0.374805
H180	H	0.763322	0.095515	0.125195
H181	H	0.832869	-0.939395	-0.229426
H182	H	1.332869	-0.439395	0.270574
Br183	Br	1.000040	-0.223790	-0.523630
Br184	Br	1.500040	0.276210	-0.023630
H185	H	0.978270	-0.247237	-0.660084
H186	H	1.478270	0.252763	-0.160084
H187	H	0.144585	-0.247150	-0.229716
H188	H	0.644585	0.252850	0.270284
H189	H	0.666935	-0.247254	-0.229530
H190	H	1.166935	0.252746	0.270470
Br191	Br	0.999858	-0.730771	-0.396769
Br192	Br	1.499858	-0.230771	0.103231
H193	H	0.978281	-0.247132	-0.945014
H194	H	1.478281	0.252868	-0.445014
Br195	Br	0.917261	-0.182014	-0.725380
Br196	Br	1.417261	0.317986	-0.225380
Br197	Br	0.126855	-0.427980	-0.396574
Br198	Br	0.626855	0.072020	0.103426
H199	H	0.978276	-0.247083	-1.063721
H200	H	1.478276	0.252917	-0.563721
H201	H	0.832796	-0.404177	-1.063623
H202	H	1.332796	0.095823	-0.563623
H203	H	0.832800	-0.404230	-0.944913
H204	H	1.332800	0.095770	-0.444913
H205	H	0.896522	-0.436359	-0.861846
H206	H	1.396522	0.063641	-0.361846
H207	H	0.896349	-0.436388	-0.743141
H208	H	1.396349	0.063612	-0.243141
Br209	Br	0.811024	-0.427828	-0.677730
Br210	Br	1.311024	0.072172	-0.177730
