data_functionalizedCrystal
_audit_creation_method	'MofGen! by Chris Wilmer'
_symmetry_space_group_name_H-M	'P1'
_symmetry_Int_Tables_number	1
_symmetry_cell_setting	triclinic
loop_
_symmetry_equiv_pos_as_xyz
  x,y,z
_cell_length_a	14.044220
_cell_length_b	14.044220
_cell_length_c	12.996460
_cell_angle_alpha	89.993022
_cell_angle_beta	89.999501
_cell_angle_gamma	93.188878
loop_
_atom_site_label
_atom_site_type_symbol
_atom_site_fract_x
_atom_site_fract_y
_atom_site_fract_z
O1	O	1.277169	0.230169	-0.085462
O2	O	1.777169	0.730169	0.414538
O3	O	1.000498	0.221864	-0.085487
O4	O	1.500498	0.721864	0.414513
O5	O	1.134681	0.087681	-0.085465
O6	O	1.634681	0.587681	0.414535
O7	O	1.142987	0.364352	-0.085484
O8	O	1.642987	0.864352	0.414516
O9	O	1.134665	0.087671	0.085669
O10	O	1.634665	0.587671	0.585669
O11	O	1.000482	0.221854	0.085646
O12	O	1.500482	0.721854	0.585646
O13	O	1.277153	0.230160	0.085672
O14	O	1.777153	0.730160	0.585672
Cu15	Cu	1.138816	0.226006	0.101285
Cu16	Cu	1.638816	0.726006	0.601285
Cu17	Cu	1.138835	0.226017	-0.101100
Cu18	Cu	1.638835	0.726017	0.398900
O19	O	1.142971	0.364343	0.085650
O20	O	1.642971	0.864343	0.585650
C21	C	0.964868	0.218223	0.000076
C22	C	1.464868	0.718223	0.500076
C23	C	0.858725	0.207379	0.000067
C24	C	1.358725	0.707379	0.500067
C25	C	1.131037	0.052054	0.000102
C26	C	1.631037	0.552054	0.500102
C27	C	1.120193	-0.054088	0.000103
C28	C	1.620193	0.445912	0.500103
C29	C	0.664388	0.187553	0.000088
C30	C	1.164388	0.687553	0.500088
C31	C	0.613258	0.264467	0.000087
C32	C	1.113258	0.764467	0.500087
C33	C	0.505122	0.253435	0.000100
C34	C	1.005122	0.753435	0.500100
C35	C	0.772534	0.198583	0.000076
C36	C	1.272534	0.698583	0.500076
C37	C	1.100366	-0.248426	0.000086
C38	C	1.600366	0.251574	0.500086
C39	C	1.177281	-0.299556	0.000090
C40	C	1.677281	0.200444	0.500090
C41	C	1.166249	-0.407692	0.000081
C42	C	1.666249	0.092308	0.500081
C43	C	1.111397	-0.140280	0.000095
C44	C	1.611397	0.359720	0.500095
C45	C	1.312783	0.233800	0.000106
C46	C	1.812783	0.733800	0.500106
C47	C	1.418926	0.244645	0.000109
C48	C	1.918926	0.744645	0.500109
C49	C	1.146614	0.399969	0.000080
C50	C	1.646614	0.899969	0.500080
C51	C	1.157459	0.506112	0.000073
C52	C	1.657459	1.006112	0.500073
N53	N	1.138810	0.225998	0.243632
N54	N	1.638810	0.725998	0.743632
N55	N	1.138848	0.226018	-0.243447
N56	N	1.638848	0.726018	0.256553
C57	C	1.138834	0.226018	0.663447
C58	C	1.638834	0.726018	1.163447
C59	C	1.138825	0.226016	0.546642
C60	C	1.638825	0.726016	1.046642
C61	C	1.138822	0.226009	0.453543
C62	C	1.638822	0.726009	0.953543
C63	C	1.138812	0.226005	0.336731
C64	C	1.638812	0.726005	0.836731
H65	H	0.650697	0.338600	0.000077
H66	H	1.150697	0.838600	0.500077
C67	C	1.277433	-0.248986	0.000116
C68	C	1.777433	0.251014	0.500116
C69	C	1.288475	-0.139279	0.000134
C70	C	1.788475	0.360721	0.500134
C71	C	1.388623	-0.088705	0.000166
C72	C	1.888623	0.411295	0.500166
C73	C	1.477730	-0.147838	0.000180
C74	C	1.977730	0.352162	0.500180
C75	C	1.466691	-0.257551	0.000162
C76	C	1.966691	0.242449	0.500162
C77	C	1.366542	-0.308126	0.000130
C78	C	1.866542	0.191874	0.500130
H79	H	1.222511	-0.095500	0.000124
H80	H	1.722511	0.404500	0.500124
H81	H	1.396795	-0.007487	0.000180
H82	H	1.896795	0.492513	0.500180
H83	H	1.551865	-0.110399	0.000204
H84	H	2.051865	0.389601	0.500204
H85	H	1.532655	-0.301331	0.000172
H86	H	2.032655	0.198669	0.500172
H87	H	1.358371	-0.389343	0.000116
H88	H	1.858371	0.110657	0.500116
H89	H	0.626951	0.113425	0.000099
H90	H	1.126951	0.613425	0.500099
H91	H	1.026239	-0.285863	0.000076
H92	H	1.526239	0.214137	0.500076
