data_functionalizedCrystal
_audit_creation_method	'MofGen! by Chris Wilmer'
_symmetry_space_group_name_H-M	'P1'
_symmetry_Int_Tables_number	1
_symmetry_cell_setting	triclinic
loop_
_symmetry_equiv_pos_as_xyz
  x,y,z
_cell_length_a	18.050591
_cell_length_b	18.050589
_cell_length_c	17.640968
_cell_angle_alpha	101.226882
_cell_angle_beta	101.220701
_cell_angle_gamma	90.027061
loop_
_atom_site_label
_atom_site_type_symbol
_atom_site_fract_x
_atom_site_fract_y
_atom_site_fract_z
Zn1	Zn	1.220238	-0.210794	0.446869
Zn2	Zn	1.195024	-0.360099	0.314696
Zn3	Zn	1.070935	-0.235922	0.314711
Zn4	Zn	1.096000	-0.334949	0.446845
O5	O	1.145549	-0.285441	0.380780
O6	O	1.320818	-0.230609	0.429339
O7	O	1.157521	-0.364669	0.204085
O8	O	1.090803	-0.128661	0.332258
O9	O	1.302294	-0.340303	0.332233
O10	O	1.200495	-0.110200	0.429354
O11	O	1.066354	-0.273436	0.204096
O12	O	0.970335	-0.249049	0.332235
O13	O	1.133523	-0.297438	0.557461
O14	O	0.988750	-0.321804	0.429313
O15	O	1.224799	-0.206222	0.557478
O16	O	1.181826	-0.460691	0.332209
O17	O	1.109074	-0.442213	0.429298
C18	C	0.952596	-0.285424	0.380774
C19	C	0.870053	-0.285432	0.380790
C20	C	0.631250	-0.325112	0.433509
C21	C	0.666905	-0.356895	0.361361
C22	C	0.572932	-0.285455	0.380788
C23	C	0.684358	-0.253696	0.452932
C24	C	0.718918	-0.285445	0.380793
C25	C	0.607493	-0.317281	0.308603
C26	C	0.624951	-0.214041	0.400222
C27	C	0.660575	-0.245808	0.328025
C28	C	0.488834	-0.285463	0.380787
C29	C	0.803014	-0.285438	0.380786
C30	C	1.145457	-0.478396	0.380767
C31	C	1.145491	-0.560938	0.380788
C32	C	1.105973	-0.750371	0.433566
C33	C	1.074165	-0.813513	0.361439
C34	C	1.145565	-0.712066	0.380798
C35	C	1.177412	-0.796004	0.452933
C36	C	1.145638	-0.858048	0.380814
C37	C	1.113714	-0.774129	0.308633
C38	C	1.217002	-0.756606	0.400176
C39	C	1.185210	-0.819735	0.327999
C40	C	1.145522	-0.627969	0.380790
C41	C	1.145679	-0.942145	0.380815
C42	C	1.339256	-0.285459	0.380787
C43	C	1.421802	-0.285466	0.380790
C44	C	1.184769	-0.246222	0.586952
C45	C	1.201483	-0.229509	0.674810
C46	C	1.145665	-0.091730	0.380811
C47	C	1.145715	-0.009182	0.380824
C48	C	1.106524	-0.324455	0.175410
C49	C	1.089955	-0.340958	0.087552
C50	C	1.018865	-0.412004	0.963719
C51	C	1.034585	-0.396291	1.046275
C52	C	1.129623	-0.301315	1.046283
C53	C	1.113908	-0.317019	0.963725
C54	C	1.058529	-0.372365	0.922450
C55	C	1.153573	-0.277379	0.922456
C56	C	1.137861	-0.293084	0.839905
C57	C	1.082486	-0.348429	0.798624
C58	C	1.042818	-0.388070	0.839899
C59	C	1.208956	-0.222037	0.963733
C60	C	1.248620	-0.182397	0.922464
C61	C	1.232905	-0.198099	0.839912
C62	C	1.177530	-0.253443	0.798630
C63	C	1.272574	-0.158458	0.798636
C64	C	1.256862	-0.174163	0.716086
C65	C	1.161819	-0.269148	0.716080
H66	H	1.013788	-0.838405	0.345064
H67	H	1.072418	-0.720253	0.478127
N68	N	0.563490	-0.352953	0.227769
H69	H	0.579064	-0.406746	0.212975
H70	H	0.574309	-0.323201	0.187954
N71	N	0.613727	-0.369595	0.492482
H72	H	0.590764	-0.335514	0.533608
H73	H	0.661888	-0.390173	0.518829
H74	H	1.289160	-0.141883	0.682484
N75	N	1.077985	-0.760933	0.227809
H76	H	1.078158	-0.704886	0.228307
H77	H	1.024217	-0.782241	0.213107
N78	N	1.229594	-0.859476	0.268838
H79	H	1.205481	-0.851791	0.214404
H80	H	1.229739	-0.915287	0.269557
H81	H	1.277373	-0.731710	0.416585
N82	N	1.225884	-0.205079	1.052770
H83	H	1.266982	-0.164002	1.072656
H84	H	1.243249	-0.252273	1.072604
N85	N	0.691469	-0.436890	0.339573
H86	H	0.681086	-0.466811	0.379423
H87	H	0.747347	-0.436207	0.339217
H88	H	0.717667	-0.226839	0.513940
H89	H	0.673634	-0.212277	0.283391
N90	N	1.065517	-0.365349	0.709587
H91	H	1.024411	-0.406419	0.689703
H92	H	1.112695	-0.382752	0.689736
N93	N	0.991776	-0.439026	1.090786
H94	H	1.010125	-0.420674	1.149345
H95	H	1.000542	-0.494817	1.076359
H96	H	1.174716	-0.256255	1.079901
N97	N	0.983083	-0.447760	0.795371
H98	H	0.960335	-0.470490	0.834040
H99	H	1.006777	-0.488647	0.761115
N100	N	0.600381	-0.134054	0.422008
H101	H	0.628702	-0.110099	0.476537
H102	H	0.544299	-0.134670	0.421290
N103	N	1.213053	-0.809342	0.533726
H104	H	1.183073	-0.783843	0.573533
H105	H	1.266698	-0.787695	0.548699
H106	H	1.116705	-0.314199	0.682471
H107	H	0.973751	-0.457055	0.930110
H108	H	1.293712	-0.137337	0.956081
N109	N	1.332309	-0.098773	0.843159
H110	H	1.336246	-0.094843	0.901716
H111	H	1.318037	-0.048474	0.828743
