data_functionalizedCrystal
_audit_creation_method	'MofGen! by Chris Wilmer'
_symmetry_space_group_name_H-M	'P1'
_symmetry_Int_Tables_number	1
_symmetry_cell_setting	triclinic
loop_
_symmetry_equiv_pos_as_xyz
  x,y,z
_cell_length_a	11.169417
_cell_length_b	12.645330
_cell_length_c	11.169409
_cell_angle_alpha	89.967722
_cell_angle_beta	89.980176
_cell_angle_gamma	90.018570
loop_
_atom_site_label
_atom_site_type_symbol
_atom_site_fract_x
_atom_site_fract_y
_atom_site_fract_z
Zn1	Zn	1.834901	-0.421929	-0.678543
Zn2	Zn	2.334901	0.078071	-0.178543
Zn3	Zn	1.834765	-0.599240	-0.477860
Zn4	Zn	2.334765	-0.099240	0.022140
Zn5	Zn	1.634187	-0.421993	-0.477878
Zn6	Zn	2.134187	0.078007	0.022122
Zn7	Zn	1.634169	-0.599153	-0.678505
Zn8	Zn	2.134169	-0.099153	-0.178505
O9	O	1.734505	-0.510579	-0.578197
O10	O	2.234505	-0.010579	-0.078197
O11	O	2.002833	-0.445458	-0.651931
O12	O	2.502833	0.054542	-0.151931
O13	O	1.808108	-0.575791	-0.309913
O14	O	2.308108	-0.075791	0.190087
O15	O	1.660877	-0.273637	-0.504519
O16	O	2.160877	0.226363	-0.004519
O17	O	2.002732	-0.575728	-0.504490
O18	O	2.502732	-0.075728	-0.004490
O19	O	1.808341	-0.273590	-0.651948
O20	O	2.308341	0.226410	-0.151948
O21	O	1.660745	-0.445569	-0.309925
O22	O	2.160745	0.054431	0.190075
O23	O	1.466235	-0.445485	-0.504483
O24	O	1.966235	0.054515	-0.004483
O25	O	1.660846	-0.575581	-0.846460
O26	O	2.160846	-0.075581	-0.346460
O27	O	1.466221	-0.575644	-0.651883
O28	O	1.966221	-0.075644	-0.151883
O29	O	1.808323	-0.445375	-0.846488
O30	O	2.308323	0.054625	-0.346488
O31	O	1.808090	-0.747575	-0.504453
O32	O	2.308090	-0.247575	-0.004453
O33	O	1.660713	-0.747512	-0.651866
O34	O	2.160713	-0.247512	-0.151866
C35	C	1.422681	-0.510563	-0.578181
C36	C	1.922681	-0.010563	-0.078181
C37	C	1.289281	-0.510581	-0.578203
C38	C	1.789281	-0.010581	-0.078203
C39	C	1.734418	-0.786008	-0.578180
C40	C	2.234418	-0.286008	-0.078180
C41	C	1.734490	-0.903838	-0.578213
C42	C	2.234490	-0.403838	-0.078213
C43	C	1.642158	-1.071407	-0.671236
C44	C	2.142158	-0.571407	-0.171236
C45	C	1.641685	-0.948847	-0.670937
C46	C	2.141685	-0.448847	-0.170937
C47	C	1.700247	-0.948447	-0.451730
C48	C	2.200247	-0.448447	0.048270
C49	C	1.699683	-1.071046	-0.452295
C50	C	2.199683	-0.571046	0.047705
C51	C	1.861631	-1.070922	-0.610646
C52	C	2.361631	-0.570922	-0.110646
C53	C	1.860852	-0.948315	-0.613412
C54	C	2.360852	-0.448315	-0.113412
C55	C	2.047548	-0.510596	-0.578213
C56	C	2.547548	-0.010596	-0.078213
C57	C	2.180948	-0.510603	-0.578220
C58	C	2.680948	-0.010603	-0.078220
C59	C	1.734597	-0.510461	-0.891239
C60	C	2.234597	-0.010461	-0.391239
C61	C	1.734637	-0.510411	-1.024639
C62	C	2.234637	-0.010411	-0.524639
C63	C	1.734626	-0.234073	-0.578240
C64	C	2.234626	0.265927	-0.078240
C65	C	1.734677	-0.116243	-0.578258
C66	C	2.234677	0.383757	-0.078258
C67	C	1.734483	-0.510619	-0.266372
C68	C	2.234483	-0.010619	0.233628
C69	C	1.734676	-0.510371	-0.132972
C70	C	2.234676	-0.010371	0.367028
H71	H	1.663110	-0.918682	-0.764723
H72	H	2.163110	-0.418682	-0.264723
H73	H	1.663386	-1.100807	-0.765330
H74	H	2.163386	-0.600807	-0.265330
H75	H	1.548628	-1.102311	-0.650053
H76	H	2.048628	-0.602311	-0.150053
H77	H	1.886676	-0.919154	-0.706497
H78	H	2.386676	-0.419154	-0.206497
O79	O	1.590586	-0.912070	-0.418546
O80	O	2.090586	-0.412070	0.081454
C81	C	1.504365	-0.944968	-0.502847
C82	C	2.004365	-0.444968	-0.002847
H83	H	1.538467	-1.017910	-0.552134
H84	H	2.038467	-0.517910	-0.052134
H85	H	1.417256	-0.965012	-0.454683
H86	H	1.917256	-0.465012	0.045317
H87	H	1.487650	-0.878588	-0.569890
H88	H	1.987650	-0.378588	-0.069890
H89	H	1.933414	-0.917671	-0.550623
H90	H	2.433414	-0.417671	-0.050623
H91	H	1.606879	-1.099742	-0.424857
H92	H	2.106879	-0.599742	0.075143
O93	O	1.776432	-1.106412	-0.366682
O94	O	2.276432	-0.606412	0.133318
C95	C	1.739345	-1.068946	-0.253738
C96	C	2.239345	-0.568946	0.246262
H97	H	1.639724	-1.049549	-0.256671
H98	H	2.139724	-0.549549	0.243329
H99	H	1.756256	-1.132357	-0.183158
H100	H	2.256256	-0.632357	0.316842
H101	H	1.792066	-0.994638	-0.230054
H102	H	2.292066	-0.494638	0.269946
O103	O	1.529325	-0.914095	-0.645472
O104	O	2.029325	-0.414095	-0.145472
C105	C	1.448982	-0.951661	-0.733016
C106	C	1.948982	-0.451661	-0.233016
H107	H	1.487884	-1.025255	-0.777249
H108	H	1.987884	-0.525255	-0.277249
H109	H	1.359882	-0.972266	-0.688977
H110	H	1.859882	-0.472266	-0.188977
H111	H	1.434212	-0.887841	-0.803611
H112	H	1.934212	-0.387841	-0.303611
O113	O	1.777922	-0.913668	-0.366675
O114	O	2.277922	-0.413668	0.133325
C115	C	1.714846	-0.855719	-0.279231
C116	C	2.214846	-0.355719	0.220769
H117	H	1.616717	-0.880529	-0.279805
H118	H	2.116717	-0.380529	0.220195
H119	H	1.754961	-0.872130	-0.187244
H120	H	2.254961	-0.372130	0.312756
H121	H	1.721856	-0.767643	-0.299934
H122	H	2.221856	-0.267643	0.200066
H123	H	1.892868	-1.101755	-0.701309
H124	H	2.392868	-0.601755	-0.201309
H125	H	1.930560	-1.099917	-0.542926
H126	H	2.430560	-0.599917	-0.042926
