data_functionalizedCrystal
_audit_creation_method	'MofGen! by Chris Wilmer'
_symmetry_space_group_name_H-M	'P1'
_symmetry_Int_Tables_number	1
_symmetry_cell_setting	triclinic
loop_
_symmetry_equiv_pos_as_xyz
  x,y,z
_cell_length_a	19.288864
_cell_length_b	10.540539
_cell_length_c	17.766277
_cell_angle_alpha	89.995823
_cell_angle_beta	89.976791
_cell_angle_gamma	83.830869
loop_
_atom_site_label
_atom_site_type_symbol
_atom_site_fract_x
_atom_site_fract_y
_atom_site_fract_z
O1	O	0.922410	0.158345	-0.062832
O2	O	0.720292	0.179706	-0.062781
O3	O	0.825962	-0.015784	-0.062807
O4	O	0.816739	0.353835	-0.062806
O5	O	0.825943	-0.015794	0.062382
O6	O	0.720273	0.179696	0.062408
O7	O	0.922391	0.158335	0.062356
Cu8	Cu	0.821330	0.169015	0.073813
Cu9	Cu	0.821352	0.169026	-0.074237
O10	O	0.816721	0.353825	0.062382
C11	C	0.694401	0.179013	-0.000180
C12	C	0.617284	0.176950	-0.000160
C13	C	0.573353	0.291654	-0.000172
C14	C	0.500893	0.289716	-0.000180
C15	C	0.472367	0.173067	-0.000192
C16	C	0.516308	0.058347	-0.000176
C17	C	0.588766	0.060289	-0.000160
C18	C	0.363500	0.081371	-0.044076
C19	C	0.291042	0.079434	-0.044097
C20	C	0.248881	0.167074	-0.000237
C21	C	0.279185	0.256671	0.043633
C22	C	0.351644	0.258613	0.043649
C23	C	0.393799	0.170949	-0.000208
C24	C	0.126381	0.279684	-0.000257
C25	C	0.053919	0.277741	-0.000261
C26	C	0.069336	0.046369	-0.000264
C27	C	0.141795	0.048315	-0.000253
C28	C	0.170313	0.164976	-0.000253
C29	C	0.825261	-0.063076	-0.000214
C30	C	0.823192	-0.203978	-0.000217
C31	C	0.743903	-0.385638	-0.000478
C32	C	0.746000	-0.239067	-0.000197
C33	C	0.860329	-0.266470	0.071262
C34	C	0.857694	-0.412955	0.071323
C35	C	0.859286	-0.413497	-0.071040
C36	C	0.859997	-0.266531	-0.071986
C37	C	0.948281	0.159027	-0.000246
C38	C	1.025399	0.161091	-0.000271
C39	C	0.817422	0.401117	-0.000212
C40	C	0.819491	0.542019	-0.000214
N41	N	0.821320	0.169006	0.177943
N42	N	0.821368	0.169025	-0.178368
C43	C	0.868126	0.082485	0.217318
C44	C	0.868130	0.082479	0.296120
C45	C	0.821334	0.169016	0.335544
C46	C	0.774519	0.255543	0.296159
C47	C	0.774512	0.255538	0.217359
C48	C	0.812807	0.284670	0.460383
C49	C	0.812819	0.284676	0.539182
C50	C	0.821353	0.169031	0.578590
C51	C	0.829889	0.053373	0.539189
C52	C	0.829882	0.053368	0.460389
C53	C	0.821337	0.169030	0.420989
C54	C	0.868166	0.082497	0.703411
C55	C	0.868165	0.082489	0.782214
C56	C	0.774558	0.255564	0.782252
C57	C	0.774555	0.255560	0.703450
C58	C	0.821363	0.169028	0.664034
H59	H	0.177565	-0.045090	-0.000247
N60	N	0.155528	0.398833	-0.000240
N61	N	0.220223	0.400552	-0.000228
H62	H	0.240808	0.484701	-0.000214
N63	N	0.827950	-0.212352	0.138020
N64	N	0.850071	-0.249649	0.201240
H65	H	0.827201	-0.211432	0.248388
H66	H	0.736453	0.326019	0.814350
N67	N	0.838584	-0.064751	0.420131
N68	N	0.838571	-0.064732	0.349774
H69	H	0.844713	-0.148155	0.321340
H70	H	0.832824	-0.225063	-0.124864
H71	H	0.916276	-0.243564	-0.076317
H72	H	0.736444	0.326019	0.671388
N73	N	0.726719	0.343921	0.336437
N74	N	0.726731	0.343915	0.406793
H75	H	0.692968	0.406331	0.435240
H76	H	0.906278	0.012027	0.814274
N77	N	0.260101	-0.012079	-0.088919
N78	N	0.297750	-0.090330	-0.128070
H79	H	0.275901	-0.154962	-0.159729
N80	N	0.705664	-0.420682	-0.064779
N81	N	0.695148	-0.534490	-0.074513
H82	H	0.668144	-0.559250	-0.119929
H83	H	0.906238	0.012023	0.185229
N84	N	0.804108	0.402815	0.420139
N85	N	0.846847	0.482710	0.428914
H86	H	0.840708	0.566146	0.400491
H87	H	0.836837	-0.040796	0.571274
H88	H	0.397822	0.010002	-0.079796
N89	N	0.009052	0.394927	-0.000263
N90	N	0.034528	0.499072	-0.000261
H91	H	0.002840	0.581839	-0.000263
H92	H	0.596567	0.386649	-0.000173
N93	N	0.726691	0.343926	0.177145
N94	N	0.684907	0.421179	0.212349
H95	H	0.651133	0.483606	0.183948
H96	H	0.913209	-0.462161	0.074552
H97	H	0.917016	-0.245379	0.073906
H98	H	0.465117	0.383125	-0.000187
H99	H	0.716558	-0.196659	0.051142
N100	N	0.929234	-0.474274	-0.071680
N101	N	0.979373	-0.408420	-0.069903
H102	H	1.028773	-0.451345	-0.070352
H103	H	0.244859	0.328035	0.079348
H104	H	0.376314	0.331562	0.079372
N105	N	0.633654	-0.056873	-0.000161
N106	N	0.698347	-0.055121	-0.000153
H107	H	0.730053	-0.137868	-0.000155
N108	N	0.487173	-0.060808	-0.000173
N109	N	0.448432	-0.087703	0.052590
H110	H	0.427856	-0.171861	0.052597
N111	N	0.040195	-0.072776	-0.000262
N112	N	-0.024500	-0.074497	-0.000269
H113	H	-0.045085	-0.158646	-0.000263
N114	N	0.915893	-0.006055	0.663155
N115	N	0.957620	-0.083416	0.698326
H116	H	0.991295	-0.146018	0.669898
N117	N	0.709338	-0.184809	-0.064475
N118	N	0.682017	-0.255182	-0.109857
H119	H	0.656119	-0.216868	-0.155255
N120	N	0.915946	-0.005916	0.336341
N121	N	0.957731	-0.083171	0.301139
H122	H	0.991501	-0.145601	0.329542
H123	H	0.713527	-0.415173	0.050509
H124	H	0.830232	-0.440547	0.124769
N125	N	0.827955	-0.452395	-0.139001
N126	N	0.775910	-0.513383	-0.136058
H127	H	0.753777	-0.540858	-0.184051
H128	H	0.805873	0.378851	0.571256
