data_functionalizedCrystal
_audit_creation_method	'MofGen! by Chris Wilmer'
_symmetry_space_group_name_H-M	'P1'
_symmetry_Int_Tables_number	1
_symmetry_cell_setting	triclinic
loop_
_symmetry_equiv_pos_as_xyz
  x,y,z
_cell_length_a	10.685972
_cell_length_b	10.686285
_cell_length_c	10.686551
_cell_angle_alpha	99.084519
_cell_angle_beta	81.590232
_cell_angle_gamma	90.336301
loop_
_atom_site_label
_atom_site_type_symbol
_atom_site_fract_x
_atom_site_fract_y
_atom_site_fract_z
Zn1	Zn	-2.015989	-0.282884	0.846645
Zn2	Zn	-2.015887	-0.511473	0.618134
Zn3	Zn	-1.789922	-0.317996	0.615609
Zn4	Zn	-1.820001	-0.511344	0.814049
O5	O	-1.910450	-0.405924	0.723609
O6	O	-2.192564	-0.298566	0.831031
O7	O	-1.973282	-0.500556	0.439119
O8	O	-1.807365	-0.136757	0.658841
O9	O	-2.192489	-0.466509	0.663145
O10	O	-1.973455	-0.110960	0.828582
O11	O	-1.807266	-0.358410	0.437263
O12	O	-1.617324	-0.358285	0.627234
O13	O	-1.858630	-0.466290	0.997054
O14	O	-1.639423	-0.500336	0.773027
O15	O	-2.002621	-0.298441	1.021002
O16	O	-2.002448	-0.688037	0.631538
O17	O	-1.858531	-0.687942	0.775476
C18	C	-1.582586	-0.433107	0.696320
C19	C	-1.442329	-0.444764	0.684673
C20	C	-1.933778	-0.733770	0.700275
C21	C	-1.943877	-0.874011	0.690345
C22	C	-1.933992	-0.378434	1.056653
C23	C	-1.944025	-0.366720	1.198577
C24	C	-1.239593	-0.378628	0.751001
C25	C	-1.379852	-0.366975	0.762659
C26	C	-1.887067	-0.076793	0.747066
C27	C	-1.877102	0.063464	0.757061
C28	C	-1.887065	-0.433210	0.391874
C29	C	-1.877252	-0.444548	0.249997
H30	H	-1.388510	-0.520286	0.608985
H31	H	-1.812413	-0.520146	1.185444
H32	H	-1.433663	-0.291451	0.838335
H33	H	-1.812209	-0.882780	0.821780
H34	H	-2.008877	-0.291126	1.263136
H35	H	-2.008765	-0.927777	0.625613
