data_functionalizedCrystal
_audit_creation_method	'MofGen! by Chris Wilmer'
_symmetry_space_group_name_H-M	'P1'
_symmetry_Int_Tables_number	1
_symmetry_cell_setting	triclinic
loop_
_symmetry_equiv_pos_as_xyz
  x,y,z
_cell_length_a	6.817900
_cell_length_b	11.084654
_cell_length_c	9.582860
_cell_angle_alpha	88.469128
_cell_angle_beta	111.206767
_cell_angle_gamma	72.826966
loop_
_atom_site_label
_atom_site_type_symbol
_atom_site_fract_x
_atom_site_fract_y
_atom_site_fract_z
V1	V	-4.108459	0.393467	-0.207072
O2	O	-4.053343	0.386215	0.009933
O3	O	-4.098920	0.390547	-0.410573
O4	O	-4.077666	0.565176	-0.203895
O5	O	-4.074744	0.210377	-0.198176
V6	V	-4.584769	0.371596	-0.181115
O7	O	-4.385538	0.441443	-0.264012
O8	O	-4.757888	0.323620	-0.124176
O9	O	-4.371101	0.374516	0.022386
O10	O	-4.757282	0.378848	-0.398121
O11	O	-4.735881	0.554686	-0.190012
O12	O	-4.392355	0.199887	-0.184293
C13	C	-3.952805	0.384281	-0.460182
C14	C	-4.026411	0.383038	-0.626547
C15	C	-4.207672	0.158020	-0.191651
C16	C	-4.130544	0.017648	-0.192895
C17	C	-3.934144	-0.038837	-0.200543
C18	C	-3.854425	-0.183919	-0.201828
C19	C	-3.925692	0.607036	-0.196541
C20	C	-3.982057	0.747407	-0.195290
C21	C	-4.180559	0.380779	0.071987
C22	C	-4.086193	0.382030	0.238350
H23	H	-3.686153	-0.232517	-0.208386
O24	O	-4.182903	-0.194463	-0.187684
C25	C	-4.318495	-0.101580	-0.316801
H26	H	-4.209090	-0.070715	-0.366521
H27	H	-4.433370	-0.143617	-0.404741
C28	C	-4.593592	-0.022938	-0.210816
C29	C	-4.459217	0.014979	-0.271876
H30	H	-4.680405	0.048960	-0.183109
H31	H	-4.502246	-0.085517	-0.123830
H32	H	-4.689301	-0.057970	-0.284110
H33	H	-4.363492	0.049995	-0.198577
H34	H	-4.550551	0.077568	-0.358850
H35	H	-3.825012	0.020213	-0.206130
O36	O	-4.260657	-0.052768	-0.185951
C37	C	-4.298554	-0.041495	-0.050931
H38	H	-4.160416	-0.013269	0.036041
H39	H	-4.465920	0.034804	-0.075036
C40	C	-4.470130	-0.205041	-0.095186
C41	C	-4.300456	-0.170385	0.011639
H42	H	-4.471314	-0.284545	-0.056592
H43	H	-4.444606	-0.212634	-0.186155
H44	H	-4.609584	-0.141449	-0.115264
H45	H	-4.161004	-0.233969	0.031700
H46	H	-4.325956	-0.162807	0.102612
