data_functionalizedCrystal
_audit_creation_method	'MofGen! by Chris Wilmer'
_symmetry_space_group_name_H-M	'P1'
_symmetry_Int_Tables_number	1
_symmetry_cell_setting	triclinic
loop_
_symmetry_equiv_pos_as_xyz
  x,y,z
_cell_length_a	11.169417
_cell_length_b	12.594516
_cell_length_c	11.169409
_cell_angle_alpha	90.031354
_cell_angle_beta	90.019824
_cell_angle_gamma	90.016931
loop_
_atom_site_label
_atom_site_type_symbol
_atom_site_fract_x
_atom_site_fract_y
_atom_site_fract_z
Zn1	Zn	1.834915	-0.423631	0.678551
Zn2	Zn	2.334915	0.076369	1.178551
Zn3	Zn	1.834784	-0.601657	0.477871
Zn4	Zn	2.334784	-0.101657	0.977871
Zn5	Zn	1.634201	-0.423696	0.477885
Zn6	Zn	2.134201	0.076304	0.977885
Zn7	Zn	1.634188	-0.601571	0.678516
Zn8	Zn	2.134188	-0.101571	1.178516
O9	O	1.734522	-0.512639	0.578206
O10	O	2.234522	-0.012639	1.078206
O11	O	2.002847	-0.447256	0.651939
O12	O	2.502847	0.052744	1.151939
O13	O	1.808127	-0.578114	0.309923
O14	O	2.308127	-0.078114	0.809923
O15	O	1.660886	-0.274741	0.504524
O16	O	2.160886	0.225259	1.004524
O17	O	2.002751	-0.578051	0.504501
O18	O	2.502751	-0.078051	1.004501
O19	O	1.808349	-0.274694	0.651953
O20	O	2.308349	0.225306	1.151953
O21	O	1.660759	-0.447366	0.309934
O22	O	2.160759	0.052634	0.809934
O23	O	1.466249	-0.447282	0.504491
O24	O	1.966249	0.052718	1.004491
O25	O	1.660864	-0.577903	0.846471
O26	O	2.160864	-0.077903	1.346471
O27	O	1.466240	-0.577966	0.651893
O28	O	1.966240	-0.077966	1.151893
O29	O	1.808337	-0.447172	0.846496
O30	O	2.308337	0.052828	1.346496
O31	O	1.808115	-0.750592	0.504467
O32	O	2.308115	-0.250592	1.004467
O33	O	1.660738	-0.750528	0.651880
O34	O	2.160738	-0.250528	1.151880
C35	C	1.422697	-0.512623	0.578190
C36	C	1.922697	-0.012623	1.078190
C37	C	1.289297	-0.512641	0.578212
C38	C	1.789297	-0.012641	1.078212
C39	C	1.734443	-0.789180	0.578194
C40	C	2.234443	-0.289180	1.078194
C41	C	1.734519	-0.907485	0.578229
C42	C	2.234519	-0.407485	1.078229
C43	C	1.654353	-0.976742	0.658351
C44	C	2.154353	-0.476742	1.158351
C45	C	1.625107	-1.047617	0.548838
C46	C	2.125107	-0.547617	1.048838
C47	C	1.763875	-1.047410	0.687761
C48	C	2.263875	-0.547410	1.187761
C49	C	1.705215	-0.976801	0.468658
C50	C	2.205215	-0.476801	0.968658
C51	C	1.844034	-0.976588	0.607656
C52	C	2.344034	-0.476588	1.107656
C53	C	1.814829	-1.047430	0.498067
C54	C	2.314829	-0.547430	0.998067
C55	C	2.047564	-0.512656	0.578222
C56	C	2.547564	-0.012656	1.078222
C57	C	2.180964	-0.512663	0.578229
C58	C	2.680964	-0.012663	1.078229
C59	C	1.734614	-0.512520	0.891249
C60	C	2.234614	-0.012520	1.391249
C61	C	1.734653	-0.512470	1.024649
C62	C	2.234653	-0.012470	1.524649
C63	C	1.734634	-0.235018	0.578244
C64	C	2.234634	0.264982	1.078244
C65	C	1.734681	-0.116712	0.578260
C66	C	2.234681	0.383288	1.078260
C67	C	1.734499	-0.512680	0.266381
C68	C	2.234499	-0.012680	0.766381
C69	C	1.734692	-0.512430	0.132982
C70	C	2.234692	-0.012430	0.632982
H71	H	1.586438	-0.945703	0.726008
H72	H	2.086438	-0.445703	1.226008
H73	H	1.788639	-1.078426	0.780379
H74	H	2.288639	-0.578426	1.280379
Cl75	Cl	1.919608	-1.095052	0.393362
Cl76	Cl	2.419608	-0.595052	0.893362
Cl77	Cl	1.666818	-0.929120	0.325622
Cl78	Cl	2.166818	-0.429120	0.825622
H79	H	1.532568	-1.078839	0.523974
H80	H	2.032568	-0.578839	1.023974
Cl81	Cl	1.986876	-0.928382	0.646124
Cl82	Cl	2.486876	-0.428382	1.146124
