data_functionalizedCrystal
_audit_creation_method	'MofGen! by Chris Wilmer'
_symmetry_space_group_name_H-M	'P1'
_symmetry_Int_Tables_number	1
_symmetry_cell_setting	triclinic
loop_
_symmetry_equiv_pos_as_xyz
  x,y,z
_cell_length_a	25.639242
_cell_length_b	18.101395
_cell_length_c	18.101389
_cell_angle_alpha	89.983159
_cell_angle_beta	90.027770
_cell_angle_gamma	89.973368
loop_
_atom_site_label
_atom_site_type_symbol
_atom_site_fract_x
_atom_site_fract_y
_atom_site_fract_z
Zn1	Zn	0.799282	0.294996	0.418915
Zn2	Zn	1.299282	0.794996	0.918915
Zn3	Zn	0.799208	0.418821	0.295077
Zn4	Zn	1.299208	0.918821	0.795077
Zn5	Zn	0.711849	0.294988	0.295069
Zn6	Zn	1.211849	0.794988	0.795069
Zn7	Zn	0.711815	0.418790	0.418858
Zn8	Zn	1.211815	0.918790	0.918858
O9	O	0.755538	0.356899	0.356980
O10	O	1.255538	0.856899	0.856980
O11	O	0.872437	0.311437	0.402515
O12	O	1.372437	0.811437	0.902515
O13	O	0.787604	0.402405	0.191443
O14	O	1.287604	0.902405	0.691443
O15	O	0.723493	0.191357	0.311517
O16	O	1.223493	0.691357	0.811517
O17	O	0.872383	0.402412	0.311531
O18	O	1.372383	0.902412	0.811531
O19	O	0.787729	0.191362	0.402507
O20	O	1.287729	0.691362	0.902507
O21	O	0.723421	0.311425	0.191437
O22	O	1.223421	0.811425	0.691437
O23	O	0.638679	0.311395	0.311462
O24	O	1.138679	0.811395	0.811462
O25	O	0.723433	0.402358	0.522498
O26	O	1.223433	0.902358	1.022498
O27	O	0.638654	0.402352	0.402410
O28	O	1.138654	0.902352	0.902410
O29	O	0.787695	0.311407	0.522540
O30	O	1.287695	0.811407	1.022540
O31	O	0.787570	0.522450	0.311476
O32	O	1.287570	1.022450	0.811476
O33	O	0.723362	0.522427	0.402418
O34	O	1.223362	1.022427	0.902418
C35	C	0.619696	0.356870	0.356929
C36	C	1.119696	0.856870	0.856929
C37	C	0.561582	0.356875	0.356925
C38	C	1.061582	0.856875	0.856925
C39	C	0.755468	0.549309	0.356958
C40	C	1.255468	1.049309	0.856958
C41	C	0.755486	0.631624	0.356973
C42	C	1.255486	1.131624	0.856973
C43	C	0.755569	0.356880	0.550142
C44	C	1.255569	0.856880	1.050142
C45	C	0.755581	0.356872	0.632456
C46	C	1.255581	0.856872	1.132456
C47	C	0.201214	0.404339	0.404291
C48	C	0.701214	0.904339	0.904291
C49	C	0.146610	0.404344	0.404303
C50	C	0.646610	0.904344	0.904303
O51	O	0.118369	0.444663	0.444532
O52	O	0.618369	0.944663	0.944532
N53	N	0.119299	0.356919	0.357028
N54	N	0.619299	0.856919	0.857028
C55	C	0.146596	0.309482	0.309744
C56	C	0.646596	0.809482	0.809744
O57	O	0.118352	0.269144	0.269534
O58	O	0.618352	0.769144	0.769534
C59	C	0.201199	0.309474	0.309736
C60	C	0.701199	0.809474	0.809736
C61	C	0.228507	0.356907	0.357009
C62	C	0.728507	0.856907	0.857009
C63	C	0.228522	0.451767	0.451560
C64	C	0.728522	0.951767	0.951560
C65	C	0.283123	0.451764	0.451547
C66	C	0.783123	0.951764	0.951547
C67	C	0.310415	0.404332	0.404265
C68	C	0.810415	0.904332	0.904265
C69	C	0.283107	0.356903	0.356996
C70	C	0.783107	0.856903	0.856996
C71	C	0.228495	0.262034	0.262456
C72	C	0.728495	0.762034	0.762456
C73	C	0.283102	0.262030	0.262453
C74	C	0.783102	0.762030	0.762453
C75	C	0.310409	0.309463	0.309726
C76	C	0.810409	0.809463	0.809726
C77	C	0.365001	0.309467	0.309701
C78	C	0.865001	0.809467	0.809701
N79	N	0.392311	0.356892	0.356976
N80	N	0.892311	0.856892	0.856976
C81	C	0.365019	0.404324	0.404258
C82	C	0.865019	0.904324	0.904258
C83	C	0.031925	0.309501	0.309764
C84	C	0.531925	0.809501	0.809764
C85	C	-0.022677	0.309512	0.309767
C86	C	0.477323	0.809512	0.809767
C87	C	-0.022659	0.404373	0.404327
C88	C	0.477341	0.904373	0.904327
C89	C	0.031944	0.404365	0.404320
C90	C	0.531944	0.904365	0.904320
C91	C	0.059236	0.356925	0.357038
C92	C	0.559236	0.856925	0.857038
C93	C	0.479684	0.404313	0.404227
C94	C	0.979684	0.904313	0.904227
C95	C	0.534289	0.404307	0.404208
C96	C	1.034289	0.904307	0.904208
C97	C	0.534266	0.309444	0.309650
C98	C	1.034266	0.809444	0.809650
C99	C	0.479666	0.309452	0.309667
C100	C	0.979666	0.809452	0.809667
C101	C	0.452376	0.356889	0.356961
C102	C	0.952376	0.856889	0.856961
O103	O	0.393276	0.269167	0.269494
O104	O	0.893276	0.769167	0.769494
O105	O	0.393269	0.444648	0.444467
O106	O	0.893269	0.944648	0.944467
C107	C	0.891911	0.356929	0.357030
C108	C	1.391911	0.856929	0.857030
C109	C	0.950025	0.356941	0.357052
C110	C	1.450025	0.856941	0.857052
C111	C	0.755623	0.163737	0.357018
C112	C	1.255623	0.663737	0.857018
C113	C	0.755659	0.081423	0.357034
C114	C	1.255659	0.581423	0.857034
C115	C	0.755601	0.930714	0.357013
C116	C	1.255601	1.430714	0.857013
C117	C	0.715297	0.899406	0.414373
C118	C	1.215297	1.399406	0.914373
C119	C	0.715105	0.813788	0.414194
C120	C	1.215105	1.313788	0.914194
C121	C	0.755544	0.782332	0.356994
C122	C	1.255544	1.282332	0.856994
C123	C	0.740627	0.813467	0.278941
C124	C	1.240627	1.313467	0.778941
C125	C	0.740367	0.899113	0.279284
C126	C	1.240367	1.399113	0.779284
C127	C	0.810911	0.899068	0.377019
C128	C	1.310911	1.399068	0.877019
C129	C	0.810585	0.813417	0.378730
C130	C	1.310585	1.313417	0.878730
C131	C	0.755513	0.698472	0.356978
C132	C	1.255513	1.198472	0.856978
C133	C	0.755631	1.014574	0.357023
C134	C	1.255631	1.514574	0.857023
C135	C	0.755538	0.356864	0.164569
C136	C	1.255538	0.856864	0.664569
C137	C	0.755627	0.356663	0.082255
C138	C	1.255627	0.856663	0.582255
C139	C	0.755612	0.356733	0.931547
C140	C	1.255612	0.856733	1.431547
C141	C	0.715041	0.413775	0.900195
C142	C	1.215041	0.913775	1.400195
C143	C	0.715151	0.414040	0.814577
C144	C	1.215151	0.914040	1.314577
C145	C	0.755596	0.356802	0.783164
C146	C	1.255596	0.856802	1.283164
C147	C	0.810683	0.377992	0.814275
C148	C	1.310683	0.877992	1.314275
C149	C	0.810456	0.378367	0.899920
C150	C	1.310456	0.878367	1.399920
C151	C	0.741576	0.278374	0.899968
C152	C	1.241576	0.778374	1.399968
C153	C	0.740350	0.278827	0.814317
C154	C	1.240350	0.778827	1.314317
C155	C	0.755591	0.356840	0.699305
C156	C	1.255591	0.856840	1.199305
C157	C	0.755621	0.356698	1.015406
C158	C	1.255621	0.856698	1.515406
H159	H	0.556521	0.442935	0.442703
H160	H	1.056521	0.942935	0.942703
H161	H	0.768449	0.919825	0.235089
H162	H	1.268449	1.419825	0.735089
H163	H	-0.044907	0.270895	0.271265
H164	H	0.455093	0.770895	0.771265
Br165	Br	0.672778	0.252195	0.780436
Br166	Br	1.172778	0.752195	1.280436
H167	H	0.724537	0.919965	0.472435
H168	H	1.224537	1.419965	0.972435
Br169	Br	0.788014	0.779513	0.205762
Br170	Br	1.288014	1.279513	0.705762
H171	H	0.700624	0.792075	0.261692
H172	H	1.200624	1.292075	0.761692
H173	H	0.822788	0.434665	0.792836
H174	H	1.322788	0.934665	1.292836
H175	H	0.724438	0.792735	0.472069
H176	H	1.224438	1.292735	0.972069
H177	H	0.054175	0.442988	0.442814
H178	H	0.554175	0.942988	0.942814
H179	H	0.457431	0.270830	0.271172
H180	H	0.957431	0.770830	0.771172
H181	H	0.724216	0.471503	0.921723
H182	H	1.224216	0.971503	1.421723
Br183	Br	0.647068	0.391932	0.779510
Br184	Br	1.147068	0.891932	1.279510
Br185	Br	0.863287	0.777716	0.314181
Br186	Br	1.363287	1.277716	0.814181
H187	H	0.824511	0.920628	0.432966
H188	H	1.324511	1.420628	0.932966
H189	H	0.702105	0.259070	0.921550
H190	H	1.202105	0.759070	1.421550
H191	H	0.767744	0.234071	0.792934
H192	H	1.267744	0.734071	1.292934
H193	H	0.771126	0.235875	0.920245
H194	H	1.271126	0.735875	1.420245
Br195	Br	0.068958	0.245116	0.245586
Br196	Br	0.568958	0.745116	0.745586
H197	H	0.821834	0.793066	0.436173
H198	H	1.321834	1.293066	0.936173
Br199	Br	0.320175	0.516137	0.515710
Br200	Br	0.820175	1.016137	1.015710
H201	H	0.674109	0.793358	0.400941
H202	H	1.174109	1.293358	0.900941
Br203	Br	0.830289	0.473839	0.933236
Br204	Br	1.330289	0.973839	1.433236
H205	H	0.457471	0.442939	0.442740
H206	H	0.957471	0.942939	0.942740
H207	H	0.840938	0.919313	0.335242
H208	H	1.340938	1.419313	0.835242
H209	H	0.305320	0.223393	0.223955
H210	H	0.805320	0.723393	0.723955
H211	H	-0.044891	0.442992	0.442829
H212	H	0.455109	0.942992	0.942829
H213	H	0.556498	0.270828	0.271152
H214	H	1.056498	0.770828	0.771152
H215	H	0.206270	0.223411	0.223960
H216	H	0.706270	0.723411	0.723960
H217	H	0.674549	0.920985	0.401287
H218	H	1.174549	1.420985	0.901287
H219	H	0.206306	0.490393	0.490067
H220	H	0.706306	0.990393	0.990067
Br221	Br	0.672980	0.932511	0.251040
Br222	Br	1.172980	1.432511	0.751040
Br223	Br	0.646748	0.391897	0.934490
Br224	Br	1.146748	0.891897	1.434490
Br225	Br	0.862514	0.312079	0.934496
Br226	Br	1.362514	0.812079	1.434496
Br227	Br	0.730627	0.510838	0.780435
Br228	Br	1.230627	1.010838	1.280435
H229	H	0.841723	0.337751	0.793931
H230	H	1.341723	0.837751	1.293931
