data_functionalizedCrystal
_audit_creation_method	'MofGen! by Chris Wilmer'
_symmetry_space_group_name_H-M	'P1'
_symmetry_Int_Tables_number	1
_symmetry_cell_setting	triclinic
loop_
_symmetry_equiv_pos_as_xyz
  x,y,z
_cell_length_a	14.971486
_cell_length_b	9.482900
_cell_length_c	14.971486
_cell_angle_alpha	80.654500
_cell_angle_beta	83.614129
_cell_angle_gamma	99.295927
loop_
_atom_site_label
_atom_site_type_symbol
_atom_site_fract_x
_atom_site_fract_y
_atom_site_fract_z
O1	O	1.200851	0.120726	0.102592
O2	O	0.940456	0.120766	0.116546
O3	O	1.077632	0.120735	-0.020630
O4	O	1.063675	0.120758	0.239768
O5	O	1.049768	-0.121051	0.007346
O6	O	0.912592	-0.121020	0.144522
O7	O	1.172988	-0.121060	0.130568
Cu8	Cu	1.040246	-0.143117	0.140099
Cu9	Cu	1.073198	0.142823	0.107015
O10	O	1.035812	-0.121028	0.267743
C11	C	0.893200	-0.000122	0.129909
C12	C	0.793904	-0.000107	0.128037
N13	N	1.017076	-0.344232	0.163368
C14	C	0.736680	-0.000102	0.208625
C15	C	0.643378	-0.000124	0.206865
C16	C	0.607304	-0.000140	0.124513
C17	C	0.664535	-0.000150	0.043919
C18	C	0.757834	-0.000138	0.045682
C19	C	0.470070	-0.000170	0.040250
C20	C	0.376765	-0.000179	0.038487
C21	C	0.355614	-0.000156	0.201433
C22	C	0.448913	-0.000144	0.203196
C23	C	0.506138	-0.000151	0.122601
C24	C	1.066357	-0.416442	0.113873
C25	C	1.047086	-0.583855	0.133241
C26	C	1.220244	-0.000168	0.117204
C27	C	1.319541	-0.000174	0.119076
C28	C	1.063076	-0.000158	-0.039967
C29	C	1.061205	-0.000156	-0.139264
N30	N	1.096375	0.343938	0.083739
C31	C	1.141793	-0.000169	-0.196488
C32	C	1.140031	-0.000154	-0.289789
C33	C	1.057680	-0.000137	-0.325863
C34	C	0.977087	-0.000119	-0.268633
C35	C	0.978850	-0.000123	-0.175334
C36	C	0.973417	-0.000113	-0.463096
C37	C	0.971652	-0.000111	-0.556400
C38	C	1.134598	-0.000144	-0.577550
C39	C	1.136361	-0.000149	-0.484252
C40	C	1.055767	-0.000134	-0.427027
C41	C	1.050368	-0.000133	0.287080
C42	C	1.052240	-0.000125	0.386376
H43	H	0.766044	-0.000088	0.275685
H44	H	0.596789	-0.000118	0.272488
H45	H	1.203417	-0.000174	-0.454882
H46	H	0.635154	-0.000184	-0.023130
H47	H	0.913227	-0.000112	-0.128743
Br48	Br	0.497873	-0.000100	0.314957
H49	H	0.309015	-0.000157	0.267058
H50	H	0.516661	-0.000178	-0.025379
H51	H	1.205654	-0.000168	-0.336377
H52	H	0.347397	-0.000194	-0.028570
H53	H	1.200221	-0.000152	-0.624148
H54	H	0.960614	-0.406349	0.220077
Br55	Br	0.864038	-0.000088	-0.385435
H56	H	0.804426	-0.000141	-0.019942
H57	H	1.152834	-0.593950	0.027019
Br58	Br	1.160235	-0.312923	0.019121
Br59	Br	0.952970	-0.687369	0.227765
Br60	Br	1.253559	-0.000215	-0.147537
H61	H	0.904592	-0.000120	-0.585766
Br62	Br	0.865326	-0.000070	-0.317592
