data_functionalizedCrystal
_audit_creation_method	'MofGen! by Chris Wilmer'
_symmetry_space_group_name_H-M	'P1'
_symmetry_Int_Tables_number	1
_symmetry_cell_setting	triclinic
loop_
_symmetry_equiv_pos_as_xyz
  x,y,z
_cell_length_a	12.784890
_cell_length_b	12.811415
_cell_length_c	9.130313
_cell_angle_alpha	84.564622
_cell_angle_beta	89.997415
_cell_angle_gamma	78.600226
loop_
_atom_site_label
_atom_site_type_symbol
_atom_site_fract_x
_atom_site_fract_y
_atom_site_fract_z
O1	O	1.410346	0.006564	-0.122626
O2	O	1.101089	0.051498	-0.128606
O3	O	1.263498	-0.124472	-0.105221
O4	O	1.247937	0.182533	-0.146012
O5	O	1.263486	-0.124476	0.138379
O6	O	1.101078	0.051494	0.114993
O7	O	1.410335	0.006560	0.120973
Cu8	Cu	1.255705	0.029027	0.140226
Cu9	Cu	1.255719	0.029031	-0.147859
O10	O	1.247926	0.182530	0.097588
C11	C	1.061497	0.054418	-0.007196
C12	C	0.943541	0.063114	-0.008356
C13	C	0.765047	0.172093	-0.022838
C14	C	0.875876	0.163930	-0.021753
C15	C	0.900371	-0.029545	0.003953
C16	C	0.789542	-0.021382	0.002869
C17	C	0.721884	0.079441	-0.010525
C18	C	0.611053	0.087603	-0.011599
C19	C	0.635550	-0.105871	0.014097
C20	C	0.746379	-0.114034	0.015181
C21	C	1.262620	-0.163499	0.021761
C22	C	1.260009	-0.279778	0.037201
C23	C	1.255095	-0.498264	-0.199387
C24	C	1.252641	-0.607519	-0.184887
C25	C	1.252640	-0.607545	0.080701
C26	C	1.255094	-0.498289	0.066201
C27	C	1.256323	-0.443653	-0.073848
C28	C	1.258784	-0.334397	-0.088347
C29	C	1.258775	-0.334424	0.177240
C30	C	1.256322	-0.443679	0.191740
C31	C	1.449927	0.003639	-0.000440
C32	C	1.567883	-0.005056	0.000710
C33	C	1.248804	0.221556	-0.029397
C34	C	1.251415	0.337836	-0.044847
N35	N	1.255704	0.029022	0.342849
N36	N	1.255728	0.029026	-0.350481
C37	C	1.327643	-0.048869	0.429852
C38	C	1.327653	-0.048870	0.583189
C39	C	1.183782	0.106922	0.562505
C40	C	1.183768	0.106917	0.409171
H41	H	0.600395	-0.181316	0.024006
O42	O	1.255020	-0.502614	0.342789
H43	H	1.253121	-0.587764	0.331785
O44	O	1.251298	-0.666413	-0.320295
H45	H	1.324095	-0.661403	-0.384649
O46	O	1.251337	-0.666486	0.231746
H47	H	1.249437	-0.751634	0.220731
O48	O	1.260095	-0.275525	0.312659
H49	H	1.262003	-0.190371	0.279052
H50	H	1.386216	-0.112298	0.375857
H51	H	1.386230	-0.112298	0.654024
O52	O	1.106164	0.190923	0.315313
H53	H	1.151095	0.237853	0.239181
H54	H	1.125214	0.170344	0.616520
H55	H	0.555966	0.169698	-0.022497
H56	H	0.709958	0.254187	-0.033726
O57	O	0.922437	0.263860	-0.035011
H58	H	0.856766	0.335335	-0.044490
H59	H	0.801481	-0.196121	0.026081
H60	H	1.259787	-0.289915	-0.202382
O61	O	1.256416	-0.439326	-0.350431
H62	H	1.328271	-0.476248	-0.409211
O63	O	0.973351	-0.138284	0.018407
H64	H	1.057668	-0.128389	0.017101
