data_functionalizedCrystal
_audit_creation_method	'MofGen! by Chris Wilmer'
_symmetry_space_group_name_H-M	'P1'
_symmetry_Int_Tables_number	1
_symmetry_cell_setting	triclinic
loop_
_symmetry_equiv_pos_as_xyz
  x,y,z
_cell_length_a	16.109301
_cell_length_b	16.109301
_cell_length_c	15.186229
_cell_angle_alpha	89.994299
_cell_angle_beta	89.998755
_cell_angle_gamma	83.461481
loop_
_atom_site_label
_atom_site_type_symbol
_atom_site_fract_x
_atom_site_fract_y
_atom_site_fract_z
O1	O	-1.103131	-0.106867	0.073176
O2	O	-0.603131	0.393133	0.573176
O3	O	-0.861069	-0.120166	0.073190
O4	O	-0.361069	0.379834	0.573190
O5	O	-0.988750	0.007515	0.073174
O6	O	-0.488750	0.507515	0.573174
O7	O	-0.975451	-0.234547	0.073192
O8	O	-0.475451	0.265453	0.573192
O9	O	-0.988740	0.007518	-0.073284
O10	O	-0.488740	0.507518	0.426716
O11	O	-0.861059	-0.120163	-0.073267
O12	O	-0.361059	0.379837	0.426733
O13	O	-1.103121	-0.106864	-0.073282
O14	O	-0.603121	0.393136	0.426718
Zn15	Zn	-0.982089	-0.113513	-0.096528
Zn16	Zn	-0.482089	0.386487	0.403472
Zn17	Zn	-0.982102	-0.113517	0.096436
Zn18	Zn	-0.482102	0.386483	0.596436
O19	O	-0.975441	-0.234544	-0.073265
O20	O	-0.475441	0.265456	0.426735
C21	C	-0.830090	-0.119626	-0.000037
C22	C	-0.330090	0.380374	0.499963
C23	C	-0.737794	-0.118011	-0.000032
C24	C	-0.237794	0.381989	0.499968
C25	C	-0.988206	0.038491	-0.000056
C26	C	-0.488206	0.538491	0.499944
C27	C	-0.986591	0.130786	-0.000057
C28	C	-0.486591	0.630786	0.499943
C29	C	-1.134101	-0.107404	-0.000053
C30	C	-0.634101	0.392596	0.499947
C31	C	-1.226397	-0.109019	-0.000052
C32	C	-0.726397	0.390981	0.499948
C33	C	-0.515522	-0.190018	-0.000036
C34	C	-0.015522	0.309982	0.499964
C35	C	-0.428801	-0.188494	-0.000042
C36	C	0.071199	0.311506	0.499958
C37	C	-0.448676	-0.037006	-0.000050
C38	C	0.051324	0.462994	0.499950
C39	C	-0.535394	-0.038530	-0.000051
C40	C	-0.035394	0.461470	0.499949
C41	C	-0.568815	-0.115039	-0.000039
C42	C	-0.068815	0.384961	0.499961
C43	C	-0.395376	-0.111990	-0.000045
C44	C	0.104624	0.388010	0.499955
C45	C	-0.301350	-0.110337	-0.000051
C46	C	0.198650	0.389663	0.499949
C47	C	-0.662847	-0.116693	-0.000035
C48	C	-0.162847	0.383307	0.499965
C49	C	-0.975984	-0.265521	-0.000034
C50	C	-0.475984	0.234479	0.499966
C51	C	-0.977600	-0.357816	-0.000027
C52	C	-0.477600	0.142184	0.499973
N53	N	-0.982086	-0.113510	-0.228220
N54	N	-0.482086	0.386490	0.271780
C55	C	-1.058599	0.353059	-0.000047
C56	C	-0.558599	0.853059	0.499953
C57	C	-1.057075	0.439779	-0.000040
C58	C	-0.557075	0.939779	0.499960
C59	C	-0.905586	0.419905	-0.000034
C60	C	-0.405586	0.919905	0.499966
C61	C	-0.907111	0.333186	-0.000035
C62	C	-0.407111	0.833186	0.499965
C63	C	-0.983620	0.299766	-0.000046
C64	C	-0.483620	0.799766	0.499954
C65	C	-0.980571	0.473205	-0.000038
C66	C	-0.480571	0.973205	0.499962
C67	C	-0.978918	0.567231	-0.000030
C68	C	-0.478918	1.067231	0.499970
C69	C	-0.985273	0.205734	-0.000052
C70	C	-0.485273	0.705734	0.499948
C71	C	-1.038646	-0.056992	-0.546146
C72	C	-0.538646	0.443008	-0.046146
C73	C	-1.038644	-0.056992	-0.453956
C74	C	-0.538644	0.443008	0.046044
C75	C	-0.925549	-0.170038	-0.453952
C76	C	-0.425549	0.329962	0.046048
C77	C	-0.925556	-0.170041	-0.546140
C78	C	-0.425556	0.329959	-0.046140
C79	C	-0.982103	-0.113513	-0.592235
C80	C	-0.482103	0.386487	-0.092235
C81	C	-0.982094	-0.113510	-0.407857
C82	C	-0.482094	0.386490	0.092143
C83	C	-0.982091	-0.113511	-0.307901
C84	C	-0.482091	0.386489	0.192099
C85	C	-0.982107	-0.113513	-0.692197
C86	C	-0.482107	0.386487	-0.192197
N87	N	-0.982111	-0.113513	0.228129
N88	N	-0.482111	0.386487	0.728129
H89	H	-0.542730	-0.252317	-0.000034
H90	H	-0.042730	0.247683	0.499966
H91	H	-0.385413	-0.249550	-0.000041
H92	H	0.114587	0.250450	0.499959
F93	F	-0.413100	0.044416	-0.000058
F94	F	0.086900	0.544416	0.499942
H95	H	-0.843295	0.447127	-0.000027
H96	H	-0.343295	0.947127	0.499973
H97	H	-1.120897	0.325851	-0.000054
H98	H	-0.620897	0.825851	0.499946
H99	H	-0.578788	0.022530	-0.000056
H100	H	-0.078788	0.522530	0.499944
H101	H	-0.846050	0.289792	-0.000032
H102	H	-0.346050	0.789792	0.499968
F103	F	-1.098831	0.003168	-0.595200
F104	F	-0.598831	0.503168	-0.095200
F105	F	-1.098826	0.003164	-0.404909
F106	F	-0.598826	0.503164	0.095091
F107	F	-0.865367	-0.230194	-0.404889
F108	F	-0.365367	0.269806	0.095111
H109	H	-0.879511	-0.216071	-0.583668
H110	H	-0.379511	0.283929	-0.083668
H111	H	-1.118130	0.483168	-0.000039
H112	H	-0.618130	0.983168	0.499961
