data_functionalizedCrystal
_audit_creation_method	'MofGen! by Chris Wilmer'
_symmetry_space_group_name_H-M	'P1'
_symmetry_Int_Tables_number	1
_symmetry_cell_setting	triclinic
loop_
_symmetry_equiv_pos_as_xyz
  x,y,z
_cell_length_a	6.817900
_cell_length_b	13.167930
_cell_length_c	10.943881
_cell_angle_alpha	97.840138
_cell_angle_beta	108.843448
_cell_angle_gamma	105.754568
loop_
_atom_site_label
_atom_site_type_symbol
_atom_site_fract_x
_atom_site_fract_y
_atom_site_fract_z
V1	V	-4.110308	-0.148862	-0.420387
O2	O	-4.073510	0.007185	-0.394029
O3	O	-4.083106	-0.295199	-0.435165
O4	O	-4.088375	-0.146559	-0.595678
O5	O	-4.068204	-0.142485	-0.232405
V6	V	-4.587759	-0.130199	-0.395758
O7	O	-4.384884	-0.189802	-0.474412
O8	O	-4.763380	-0.089259	-0.341733
O9	O	-4.391755	0.016138	-0.380979
O10	O	-4.741954	-0.286246	-0.422116
O11	O	-4.747260	-0.136577	-0.583740
O12	O	-4.386486	-0.132502	-0.220467
C13	C	-3.932407	-0.330873	-0.433088
C14	C	-3.991629	-0.450505	-0.446340
C15	C	-3.981782	-0.644589	-0.231066
C16	C	-4.037424	-0.756994	-0.243511
C17	C	-4.158569	-0.787720	-0.483673
C18	C	-4.102927	-0.675316	-0.471229
C19	C	-4.014530	-0.603754	-0.344921
C20	C	-3.958874	-0.491347	-0.332477
C21	C	-4.080034	-0.522076	-0.572639
C22	C	-4.135675	-0.634481	-0.585083
C23	C	-3.939127	-0.141266	-0.637836
C24	C	-4.002618	-0.140351	-0.781254
C25	C	-4.231883	-0.145419	-0.872744
C26	C	-4.121685	-0.052915	-0.927398
C27	C	-4.225887	-0.231159	-0.982122
C28	C	-3.891540	-0.047786	-0.833996
C29	C	-3.995814	-0.226111	-0.888739
C30	C	-3.885445	-0.133581	-0.943342
C31	C	-4.205796	0.051807	-0.383053
C32	C	-4.125814	0.171438	-0.369810
C33	C	-4.199075	-0.137798	-0.178302
C34	C	-4.114822	-0.138708	-0.034883
H35	H	-3.909778	-0.586321	-0.128220
H36	H	-4.367876	-0.308642	-1.046152
H37	H	-4.175492	0.020321	-0.945157
H38	H	-4.010754	-0.790236	-0.150799
C39	C	-3.699888	0.057009	-0.747682
N40	N	-3.555545	0.135940	-0.682668
H41	H	-3.739389	-0.128540	-0.974337
H42	H	-4.230577	-0.846006	-0.586508
H43	H	-4.207662	-0.692762	-0.687920
H44	H	-4.106689	-0.488817	-0.665347
C45	C	-4.428752	-0.152037	-0.830471
N46	N	-4.577024	-0.157016	-0.798626
C47	C	-3.923209	-0.325060	-0.864710
N48	N	-3.868543	-0.399598	-0.846611
H49	H	-3.886886	-0.433082	-0.229630
