data_functionalizedCrystal
_audit_creation_method	'MofGen! by Chris Wilmer'
_symmetry_space_group_name_H-M	'P1'
_symmetry_Int_Tables_number	1
_symmetry_cell_setting	triclinic
loop_
_symmetry_equiv_pos_as_xyz
  x,y,z
_cell_length_a	19.188930
_cell_length_b	19.188930
_cell_length_c	18.266242
_cell_angle_alpha	90.011475
_cell_angle_beta	89.977082
_cell_angle_gamma	96.855221
loop_
_atom_site_label
_atom_site_type_symbol
_atom_site_fract_x
_atom_site_fract_y
_atom_site_fract_z
O1	O	0.926149	-0.087169	-0.061124
O2	O	1.426149	0.412831	0.438876
O3	O	0.722838	-0.098903	-0.061075
O4	O	1.222838	0.401097	0.438925
O5	O	0.830361	0.008620	-0.061087
O6	O	1.330361	0.508620	0.438913
O7	O	0.818627	-0.194691	-0.061113
O8	O	1.318627	0.305309	0.438887
O9	O	0.830343	0.008625	0.060675
O10	O	1.330343	0.508625	0.560675
O11	O	0.722820	-0.098897	0.060687
O12	O	1.222820	0.401103	0.560687
O13	O	0.926131	-0.087163	0.060638
O14	O	1.426131	0.412837	0.560638
Zn15	Zn	0.824473	-0.093029	0.079994
Zn16	Zn	1.324473	0.406971	0.579994
Zn17	Zn	0.824497	-0.093037	-0.080432
Zn18	Zn	1.324497	0.406963	0.419568
O19	O	0.818608	-0.194686	0.060649
O20	O	1.318608	0.305314	0.560649
C21	C	0.696818	-0.098520	-0.000188
C22	C	1.196818	0.401480	0.499812
C23	C	0.619313	-0.097380	-0.000169
C24	C	1.119313	0.402620	0.499831
C25	C	0.574389	-0.160470	-0.000188
C26	C	1.074389	0.339530	0.499812
C27	C	0.501566	-0.159399	-0.000196
C28	C	1.001566	0.340601	0.499804
C29	C	0.473669	-0.095233	-0.000199
C30	C	0.973669	0.404767	0.499801
C31	C	0.518603	-0.032133	-0.000175
C32	C	1.018603	0.467867	0.499825
C33	C	0.591425	-0.033207	-0.000160
C34	C	1.091425	0.466793	0.499840
N35	N	0.365695	-0.046188	-0.041663
N36	N	0.865695	0.453812	0.458337
N37	N	0.296516	-0.045172	-0.041679
N38	N	0.796516	0.454828	0.458321
C39	C	0.254260	-0.091994	-0.000243
C40	C	0.754260	0.408006	0.499757
N41	N	0.283795	-0.139881	0.041200
N42	N	0.783795	0.360119	0.541200
N43	N	0.352980	-0.140899	0.041213
N44	N	0.852980	0.359101	0.541213
C45	C	0.394707	-0.094062	-0.000215
C46	C	0.894707	0.405938	0.499785
C47	C	0.130372	-0.153928	-0.000270
C48	C	0.630372	0.346072	0.499730
C49	C	0.057547	-0.152853	-0.000274
C50	C	0.557547	0.347147	0.499726
C51	C	0.074586	-0.025586	-0.000261
C52	C	0.574586	0.474414	0.499739
C53	C	0.147409	-0.026662	-0.000250
C54	C	0.647409	0.473338	0.499750
C55	C	0.175298	-0.090835	-0.000258
C56	C	0.675298	0.409165	0.499742
C57	C	0.829972	0.034634	-0.000204
C58	C	1.329972	0.534634	0.499796
C59	C	0.828831	0.112138	-0.000197
C60	C	1.328831	0.612138	0.499803
C61	C	0.952151	-0.087546	-0.000252
C62	C	1.452151	0.412454	0.499748
C63	C	1.029656	-0.088687	-0.000276
C64	C	1.529656	0.411313	0.499724
C65	C	0.818997	-0.220700	-0.000236
C66	C	1.318997	0.279300	0.499764
C67	C	0.820138	-0.298204	-0.000247
C68	C	1.320138	0.201796	0.499753
N69	N	0.824461	-0.093024	0.189481
N70	N	1.324461	0.406976	0.689481
C71	C	0.891922	0.157062	-0.000209
C72	C	1.391922	0.657062	0.499791
C73	C	0.890850	0.229886	-0.000220
C74	C	1.390850	0.729886	0.499780
C75	C	0.826684	0.257782	-0.000206
C76	C	1.326684	0.757782	0.499794
C77	C	0.763585	0.212849	-0.000198
C78	C	1.263585	0.712849	0.499802
C79	C	0.764658	0.140026	-0.000194
C80	C	1.264658	0.640026	0.499806
N81	N	0.777631	0.365789	0.041244
N82	N	1.277631	0.865789	0.541244
N83	N	0.776615	0.434968	0.041242
N84	N	1.276615	0.934968	0.541242
C85	C	0.823446	0.477191	-0.000220
C86	C	1.323446	0.977191	0.499780
N87	N	0.871341	0.447624	-0.041669
N88	N	1.371341	0.947624	0.458331
N89	N	0.872359	0.378439	-0.041664
N90	N	1.372359	0.878439	0.458336
C91	C	0.825513	0.336745	-0.000210
C92	C	1.325513	0.836745	0.499790
C93	C	0.885379	0.601079	-0.000245
C94	C	1.385379	1.101079	0.499755
C95	C	0.884305	0.673904	-0.000261
C96	C	1.384305	1.173904	0.499739
C97	C	0.757038	0.656865	-0.000231
C98	C	1.257038	1.156865	0.499769
C99	C	0.758114	0.584042	-0.000222
C100	C	1.258114	1.084042	0.499778
C101	C	0.822287	0.556154	-0.000226
C102	C	1.322287	1.056154	0.499774
N103	N	0.824513	-0.093037	-0.189919
N104	N	1.324513	0.406963	0.310081
C105	C	0.872088	-0.045436	0.227785
C106	C	1.372088	0.454564	0.727785
C107	C	0.872092	-0.045433	0.304430
C108	C	1.372092	0.454567	0.804430
C109	C	0.824477	-0.093030	0.342768
C110	C	1.324477	0.406970	0.842768
C111	C	0.776841	-0.140621	0.304455
C112	C	1.276841	0.359379	0.804455
C113	C	0.776834	-0.140618	0.227812
C114	C	1.276834	0.359382	0.727812
N115	N	0.815401	-0.154837	0.463094
N116	N	1.315401	0.345163	0.963094
N117	N	0.815413	-0.154838	0.535902
N118	N	1.315413	0.345162	1.035902
C119	C	0.824496	-0.093040	0.573691
C120	C	1.324496	0.406960	1.073691
N121	N	0.833582	-0.031239	0.535920
N122	N	1.333582	0.468761	1.035920
N123	N	0.833574	-0.031240	0.463106
N124	N	1.333574	0.468760	0.963106
C125	C	0.824480	-0.093038	0.425875
C126	C	1.324480	0.406962	0.925875
C127	C	0.872131	-0.045444	0.695101
C128	C	1.372131	0.454556	1.195101
C129	C	0.872130	-0.045440	0.771748
C130	C	1.372130	0.454560	1.271748
C131	C	0.776882	-0.140634	0.771772
C132	C	1.276882	0.359366	1.271772
C133	C	0.776879	-0.140632	0.695127
C134	C	1.276879	0.359368	1.195127
C135	C	0.824507	-0.093038	0.656796
C136	C	1.324507	0.406962	1.156796
H137	H	0.153080	-0.206181	-0.000267
H138	H	0.653080	0.293819	0.499733
C139	C	0.628402	0.074931	-0.062740
C140	C	1.128402	0.574931	0.437260
C141	C	0.640812	0.036147	-0.000147
C142	C	1.140812	0.536147	0.499853
H143	H	0.658896	0.117745	-0.062734
H144	H	1.158896	0.617745	0.437266
H145	H	0.581046	0.084754	-0.062740
H146	H	1.081046	0.584754	0.437260
H147	H	0.636859	0.048599	-0.105197
H148	H	1.136859	0.548599	0.394803
H149	H	0.632349	0.062477	0.042310
H150	H	1.132349	0.562477	0.542310
H151	H	0.688179	0.026326	-0.000141
H152	H	1.188179	0.526326	0.499859
C153	C	0.735463	-0.261596	0.328037
C154	C	1.235463	0.238404	0.828037
C155	C	0.724499	-0.192941	0.346590
C156	C	1.224499	0.307059	0.846590
H157	H	0.703141	-0.293894	0.354046
H158	H	1.203141	0.206106	0.854046
H159	H	0.782029	-0.269064	0.340575
H160	H	1.282029	0.230936	0.840575
H161	H	0.728641	-0.268395	0.276907
H162	H	1.228641	0.231605	0.776907
H163	H	0.731325	-0.186141	0.397720
H164	H	1.231325	0.313859	0.897720
H165	H	0.677922	-0.185471	0.334057
H166	H	1.177922	0.314529	0.834057
C167	C	0.632213	0.574518	-0.000182
C168	C	1.132213	1.074518	0.499818
C169	C	0.688761	0.534657	-0.000196
C170	C	1.188761	1.034657	0.499804
H171	H	0.589396	0.544027	-0.000163
H172	H	1.089396	1.044027	0.499837
H173	H	0.634445	0.603262	-0.042644
H174	H	1.134445	1.103262	0.457356
H175	H	0.634441	0.603289	0.042278
H176	H	1.134441	1.103289	0.542278
H177	H	0.686535	0.505889	-0.042660
H178	H	1.186535	1.005889	0.457340
H179	H	0.686528	0.505900	0.042270
H180	H	1.186528	1.005900	0.542270
H181	H	0.910868	-0.006681	0.196579
H182	H	1.410868	0.493319	0.696579
H183	H	0.711340	0.235567	-0.000187
H184	H	1.211340	0.735567	0.499813
H185	H	0.910910	-0.006688	0.663892
H186	H	1.410910	0.493312	1.163892
C187	C	0.048025	-0.278757	-0.000304
C188	C	0.548025	0.221243	0.499696
C189	C	0.008163	-0.222209	-0.000296
C190	C	0.508163	0.277791	0.499704
H191	H	0.017535	-0.321574	-0.000322
H192	H	0.517535	0.178426	0.499678
H193	H	0.076758	-0.276532	0.042160
H194	H	0.576758	0.223468	0.542160
H195	H	0.076807	-0.276521	-0.042763
H196	H	0.576807	0.223479	0.457237
H197	H	-0.020616	-0.224442	0.042166
H198	H	0.479384	0.275558	0.542166
H199	H	-0.020582	-0.224435	-0.042764
H200	H	0.479418	0.275565	0.457236
H201	H	0.910911	-0.006685	0.802935
H202	H	1.410911	0.493315	1.302935
H203	H	0.910877	-0.006680	0.335623
H204	H	1.410877	0.493320	0.835623
C205	C	0.939168	0.793098	-0.000293
C206	C	1.439168	1.293098	0.499707
C207	C	0.953660	0.723289	-0.000281
C208	C	1.453660	1.223289	0.499719
H209	H	0.981987	0.823586	-0.000311
H210	H	1.481987	1.323586	0.499689
H211	H	0.912846	0.801543	0.042169
H212	H	1.412846	1.301543	0.542169
H213	H	0.912854	0.801511	-0.042753
H214	H	1.412854	1.301511	0.457247
H215	H	0.979970	0.714875	0.042183
H216	H	1.479970	1.214875	0.542183
H217	H	0.979994	0.714841	-0.042747
H218	H	1.479994	1.214841	0.457253
H219	H	0.704792	0.679578	-0.000222
H220	H	1.204792	1.179578	0.499778
C221	C	0.960419	0.529043	-0.062847
C222	C	1.460419	1.029043	0.437153
C223	C	0.955913	0.570414	-0.000259
C224	C	1.455913	1.070414	0.499741
H225	H	1.003961	0.510109	-0.062853
H226	H	1.503961	1.010109	0.437147
H227	H	0.957365	0.557087	-0.105303
H228	H	1.457365	1.057087	0.394697
H229	H	0.922991	0.491867	-0.062825
H230	H	1.422991	0.991867	0.437175
H231	H	0.993338	0.607593	-0.000284
H232	H	1.493338	1.107593	0.499716
H233	H	0.958974	0.542368	0.042207
H234	H	1.458974	1.042368	0.542207
C235	C	0.761383	-0.235676	0.141607
C236	C	1.261383	0.264324	0.641607
C237	C	0.724484	-0.192936	0.185703
C238	C	1.224484	0.307064	0.685703
H239	H	0.729065	-0.267972	0.115607
H240	H	1.229065	0.232028	0.615607
H241	H	0.790361	-0.260718	0.171488
H242	H	1.290361	0.239282	0.671488
H243	H	0.789741	-0.207322	0.107811
H244	H	1.289741	0.292678	0.607811
H245	H	0.696131	-0.221289	0.219503
H246	H	1.196131	0.278711	0.719503
H247	H	0.695494	-0.167892	0.155819
H248	H	1.195494	0.332108	0.655819
H249	H	0.713281	0.103448	-0.000184
H250	H	1.213281	0.603448	0.499816
H251	H	0.738100	-0.179386	0.663938
H252	H	1.238100	0.320614	1.163938
C253	C	-0.029475	0.032568	-0.000286
C254	C	0.470525	0.532568	0.499714
C255	C	0.043931	0.044948	-0.000268
C256	C	0.543931	0.544948	0.499732
H257	H	-0.048401	0.076115	-0.000294
H258	H	0.451599	0.576115	0.499706
H259	H	-0.044929	0.006609	0.042168
H260	H	0.455071	0.506609	0.542168
H261	H	-0.044879	0.006594	-0.042754
H262	H	0.455121	0.506594	0.457246
H263	H	0.059335	0.070917	0.042203
H264	H	0.559335	0.570917	0.542203
H265	H	0.059391	0.070918	-0.042727
H266	H	0.559391	0.570918	0.457273
C267	C	0.681830	-0.156023	0.858005
C268	C	1.181830	0.343977	1.358005
C269	C	0.724540	-0.192953	0.813905
C270	C	1.224540	0.307047	1.313905
H271	H	0.649517	-0.188323	0.884021
H272	H	1.149517	0.311677	1.384021
H273	H	0.656807	-0.127027	0.828124
H274	H	1.156807	0.372973	1.328124
H275	H	0.710202	-0.127681	0.891787
H276	H	1.210202	0.372319	1.391787
H277	H	0.696168	-0.221291	0.780119
H278	H	1.196168	0.278709	1.280119
H279	H	0.749565	-0.221961	0.843788
H280	H	1.249565	0.278039	1.343788
H281	H	0.597091	-0.212725	-0.000196
H282	H	1.097091	0.287275	0.499804
H283	H	0.464982	-0.210776	-0.000210
H284	H	0.964982	0.289224	0.499790
H285	H	0.495885	0.020111	-0.000188
H286	H	0.995885	0.520111	0.499812
C287	C	0.156934	0.099239	-0.000247
C288	C	0.656934	0.599239	0.499753
C289	C	0.196795	0.042690	-0.000240
C290	C	0.696795	0.542690	0.499760
H291	H	0.187424	0.142055	-0.000244
H292	H	0.687424	0.642055	0.499756
H293	H	0.128155	0.097015	0.042206
H294	H	0.628155	0.597015	0.542206
H295	H	0.128197	0.097002	-0.042717
H296	H	0.628197	0.597002	0.457283
H297	H	0.225528	0.044924	0.042233
H298	H	0.725528	0.544924	0.542233
H299	H	0.225586	0.044916	-0.042697
H300	H	0.725586	0.544916	0.457303
H301	H	0.944176	0.134360	-0.000214
H302	H	1.444176	0.634360	0.499786
H303	H	0.942228	0.266470	-0.000233
H304	H	1.442228	0.766470	0.499767
