data_functionalizedCrystal
_audit_creation_method	'MofGen! by Chris Wilmer'
_symmetry_space_group_name_H-M	'P1'
_symmetry_Int_Tables_number	1
_symmetry_cell_setting	triclinic
loop_
_symmetry_equiv_pos_as_xyz
  x,y,z
_cell_length_a	18.050590
_cell_length_b	25.639233
_cell_length_c	18.050589
_cell_angle_alpha	90.012113
_cell_angle_beta	89.976137
_cell_angle_gamma	90.002280
loop_
_atom_site_label
_atom_site_type_symbol
_atom_site_fract_x
_atom_site_fract_y
_atom_site_fract_z
Zn1	Zn	1.135248	-0.295425	0.295965
Zn2	Zn	1.135148	-0.208000	0.420135
Zn3	Zn	1.011070	-0.208027	0.295940
Zn4	Zn	1.011001	-0.295427	0.420094
O5	O	1.073117	-0.251720	0.358033
O6	O	1.239159	-0.283816	0.312464
O7	O	1.118676	-0.134838	0.403667
O8	O	1.027614	-0.219631	0.192019
O9	O	1.239086	-0.219585	0.403691
O10	O	1.118846	-0.283842	0.192037
O11	O	1.027517	-0.134858	0.312422
O12	O	0.907137	-0.219633	0.312382
O13	O	1.027496	-0.368592	0.403621
O14	O	0.907086	-0.283845	0.403597
O15	O	1.118779	-0.368591	0.312424
O16	O	1.118609	-0.219587	0.524054
O17	O	1.027399	-0.283819	0.524024
C18	C	0.880165	-0.251742	0.357983
C19	C	0.797619	-0.251764	0.357979
C20	C	0.598162	-0.286600	0.407724
C21	C	0.548776	-0.299462	0.340011
C22	C	0.646489	-0.251739	0.358020
C23	C	0.548793	-0.238876	0.425772
C24	C	0.500503	-0.251715	0.358066
C25	C	0.598190	-0.264626	0.290271
C26	C	0.598211	-0.204017	0.376078
C27	C	0.548847	-0.216861	0.308319
C28	C	0.730587	-0.251754	0.357995
C29	C	0.416407	-0.251700	0.358084
C30	C	1.073141	-0.388093	0.358020
C31	C	1.073151	-0.446207	0.358015
C32	C	1.120743	-0.806575	0.310387
C33	C	1.120752	-0.861179	0.310367
O34	O	1.161156	-0.889420	0.269960
N35	N	1.073233	-0.888489	0.357841
C36	C	1.025696	-0.861192	0.405333
O37	O	0.985278	-0.889436	0.445711
C38	C	1.025684	-0.806589	0.405349
C39	C	1.073211	-0.779282	0.357877
C40	C	1.168265	-0.779268	0.262919
C41	C	1.168257	-0.724667	0.262941
C42	C	1.120726	-0.697374	0.310431
C43	C	1.073203	-0.724681	0.357899
C44	C	0.978144	-0.779293	0.452837
C45	C	0.978136	-0.724686	0.452849
C46	C	1.025663	-0.697379	0.405377
C47	C	1.025663	-0.642787	0.405411
N48	N	1.073182	-0.615477	0.357937
C49	C	1.120713	-0.642771	0.310447
C50	C	1.025725	-0.975863	0.405294
C51	C	1.025740	-1.030465	0.405282
C52	C	1.120795	-1.030449	0.310315
C53	C	1.120783	-0.975845	0.310331
C54	C	1.073244	-0.948553	0.357820
C55	C	1.120693	-0.528105	0.310497
C56	C	1.120682	-0.473500	0.310525
C57	C	1.025625	-0.473522	0.405489
C58	C	1.025638	-0.528122	0.405464
C59	C	1.073174	-0.555413	0.357962
O60	O	0.985278	-0.614512	0.445795
O61	O	1.161118	-0.614521	0.270069
C62	C	1.266822	-0.251697	0.358085
C63	C	1.349368	-0.251688	0.358107
C64	C	1.073005	-0.251712	0.550986
C65	C	1.073026	-0.251725	0.633531
C66	C	1.073136	-0.115877	0.357993
C67	C	1.073269	-0.057763	0.357789
C68	C	1.023452	-0.286643	0.832992
C69	C	1.005350	-0.238937	0.882416
C70	C	1.073081	-0.251733	0.784662
C71	C	1.091203	-0.299445	0.882320
C72	C	1.073134	-0.251744	0.930647
C73	C	1.054944	-0.204001	0.832998
C74	C	1.140829	-0.264541	0.832897
C75	C	1.122753	-0.216802	0.882299
C76	C	1.073049	-0.251727	0.700563
C77	C	1.073166	-0.251744	1.014743
C78	C	1.073221	-0.251740	1.164328
C79	C	1.073192	-0.251750	1.081782
H80	H	1.159387	-0.451269	0.271867
H81	H	1.206957	-0.702438	0.224283
H82	H	0.939415	-0.702467	0.491513
H83	H	1.206971	-0.801484	0.224243
H84	H	0.986944	-0.550357	0.444126
H85	H	0.619941	-0.163682	0.391358
Br86	Br	1.116713	-0.366687	0.918435
H87	H	0.948084	-0.228114	0.904184
Br88	Br	0.634256	-0.335788	0.477663
H89	H	1.039571	-0.163645	0.811423
H90	H	1.164746	-0.187250	0.903812
H91	H	0.939442	-0.801517	0.491494
H92	H	0.986929	-0.451290	0.444156
Br93	Br	0.953413	-0.335782	0.796905
H94	H	0.527062	-0.339810	0.324752
Br95	Br	0.634197	-0.282819	0.194775
H96	H	1.198082	-0.275387	0.811132
Br97	Br	0.512624	-0.220759	0.521237
Br98	Br	0.512980	-0.167706	0.238218
H99	H	0.987012	-0.953645	0.443970
Br100	Br	1.185201	-0.565134	0.246024
H101	H	1.159483	-0.953615	0.271674
H102	H	1.159496	-1.052681	0.271644
H103	H	0.987047	-1.052694	0.443947
