data_functionalizedCrystal
_audit_creation_method	'MofGen! by Chris Wilmer'
_symmetry_space_group_name_H-M	'P1'
_symmetry_Int_Tables_number	1
_symmetry_cell_setting	triclinic
loop_
_symmetry_equiv_pos_as_xyz
  x,y,z
_cell_length_a	9.065218
_cell_length_b	15.944493
_cell_length_c	8.140239
_cell_angle_alpha	90.002357
_cell_angle_beta	89.997198
_cell_angle_gamma	84.245465
loop_
_atom_site_label
_atom_site_type_symbol
_atom_site_fract_x
_atom_site_fract_y
_atom_site_fract_z
O1	O	1.957474	0.123164	-0.136593
O2	O	2.457474	0.623164	0.363407
O3	O	1.527949	0.133266	-0.136593
O4	O	2.027949	0.633266	0.363407
O5	O	1.754486	0.006026	-0.136607
O6	O	2.254486	0.506026	0.363393
O7	O	1.730938	0.250404	-0.136580
O8	O	2.230938	0.750404	0.363420
O9	O	1.754473	0.006024	0.136620
O10	O	2.254473	0.506024	0.636620
O11	O	1.527937	0.133265	0.136634
O12	O	2.027937	0.633265	0.636634
O13	O	1.957462	0.123162	0.136634
O14	O	2.457462	0.623162	0.636634
Zn15	Zn	1.742697	0.128213	0.180014
Zn16	Zn	2.242697	0.628213	0.680014
Zn17	Zn	1.742714	0.128215	-0.179974
Zn18	Zn	2.242714	0.628215	0.320026
O19	O	1.730925	0.250402	0.136647
O20	O	2.230925	0.750402	0.636647
C21	C	1.472980	0.132294	0.000020
C22	C	1.972980	0.632294	0.500020
C23	C	1.309206	0.129391	0.000018
C24	C	1.809206	0.629391	0.500018
C25	C	1.753517	-0.025277	-0.000000
C26	C	2.253517	0.474723	0.500000
C27	C	1.750632	-0.118547	-0.000021
C28	C	2.250632	0.381453	0.499979
C29	C	1.883976	-0.353297	0.000010
C30	C	2.383976	0.146703	0.500010
C31	C	1.812074	-0.404409	-0.134704
C32	C	2.312074	0.095591	0.365296
C33	C	1.745285	-0.289309	-0.000001
C34	C	2.245285	0.210691	0.499999
C35	C	1.812030	-0.404387	0.134676
C36	C	2.312030	0.095613	0.634676
C37	C	1.740131	-0.454258	0.000025
C38	C	2.240131	0.045742	0.500025
C39	C	1.673421	-0.339192	-0.134827
C40	C	2.173421	0.160808	0.365173
C41	C	1.673397	-0.339167	0.134675
C42	C	2.173397	0.160833	0.634675
C43	C	1.601393	-0.390247	-0.000073
C44	C	2.101393	0.109753	0.499927
C45	C	1.748258	-0.194287	-0.000018
C46	C	2.248258	0.305713	0.499982
C47	C	1.737147	-0.549277	0.000030
C48	C	2.237147	-0.049277	0.500030
C49	C	2.012431	0.124134	0.000017
C50	C	2.512431	0.624134	0.500017
C51	C	2.176205	0.127037	0.000008
C52	C	2.676205	0.627037	0.500008
C53	C	1.731894	0.281705	0.000037
C54	C	2.231894	0.781705	0.500037
C55	C	1.734780	0.374976	0.000047
C56	C	2.234780	0.874976	0.500047
N57	N	1.742697	0.128211	0.425697
N58	N	2.242697	0.628211	0.925697
N59	N	1.742726	0.128210	-0.425657
N60	N	2.242726	0.628210	0.074343
H61	H	2.003441	-0.336764	-0.000126
H62	H	2.503441	0.163236	0.499874
H63	H	1.614889	-0.310816	-0.248839
H64	H	2.114889	0.189184	0.251161
H65	H	1.870651	-0.432910	-0.248597
H66	H	2.370651	0.067090	0.251403
H67	H	1.481836	-0.406618	-0.000146
H68	H	1.981836	0.093382	0.499854
Br69	Br	1.575880	-0.291612	0.324513
Br70	Br	2.075880	0.208388	0.824513
Br71	Br	1.909687	-0.451869	0.324489
Br72	Br	2.409687	0.048131	0.824489
