data_functionalizedCrystal
_audit_creation_method	'MofGen! by Chris Wilmer'
_symmetry_space_group_name_H-M	'P1'
_symmetry_Int_Tables_number	1
_symmetry_cell_setting	triclinic
loop_
_symmetry_equiv_pos_as_xyz
  x,y,z
_cell_length_a	12.759401
_cell_length_b	13.897441
_cell_length_c	12.759400
_cell_angle_alpha	90.028817
_cell_angle_beta	89.986272
_cell_angle_gamma	89.981230
loop_
_atom_site_label
_atom_site_type_symbol
_atom_site_fract_x
_atom_site_fract_y
_atom_site_fract_z
Zn1	Zn	1.606258	-0.545343	0.418260
Zn2	Zn	1.606151	-0.384049	0.593970
Zn3	Zn	1.430559	-0.384066	0.418303
Zn4	Zn	1.430548	-0.545307	0.593894
O5	O	1.518379	-0.464691	0.506107
O6	O	1.753265	-0.523954	0.441582
O7	O	1.582819	-0.249070	0.570717
O8	O	1.453915	-0.405482	0.271276
O9	O	1.753186	-0.405452	0.570675
O10	O	1.583000	-0.523971	0.271244
O11	O	1.453812	-0.249082	0.441655
O12	O	1.283537	-0.405448	0.441582
O13	O	1.453896	-0.680294	0.570546
O14	O	1.283529	-0.523911	0.570588
O15	O	1.582989	-0.680320	0.441508
O16	O	1.582808	-0.405418	0.740981
O17	O	1.453793	-0.523894	0.740925
C18	C	1.245412	-0.464678	0.506082
C19	C	1.128635	-0.464695	0.506097
C20	C	1.073807	-0.526494	0.439004
C21	C	0.964083	-0.526501	0.439025
C22	C	0.964025	-0.402905	0.573238
C23	C	1.073747	-0.402895	0.573212
C24	C	1.073839	-0.597854	0.361520
C25	C	0.964115	-0.597860	0.361541
C26	C	1.518454	-0.716284	0.506014
C27	C	1.518485	-0.823498	0.505974
C28	C	1.518514	-1.019794	0.505903
C29	C	1.518495	-0.910561	0.505946
C30	C	1.792412	-0.464705	0.506132
C31	C	1.909189	-0.464711	0.506143
C32	C	1.518317	-0.464671	0.779074
C33	C	1.518386	-0.464695	0.895851
C34	C	1.518365	-0.214077	0.506123
C35	C	1.518537	-0.106864	0.505867
C36	C	1.518470	-0.464733	0.232073
C37	C	1.518509	-0.464750	0.115297
C38	C	1.585639	-0.403073	0.950707
C39	C	1.585703	-0.403102	1.060431
C40	C	1.451254	-0.526379	1.060433
C41	C	1.451195	-0.526353	0.950711
C42	C	1.663259	-0.331897	0.950707
C43	C	1.663324	-0.331927	1.060431
H44	H	0.919322	-0.352590	0.627881
C45	C	1.535081	-0.252891	0.843158
C46	C	1.623944	-0.236059	0.904866
H47	H	1.510806	-0.193723	0.814865
H48	H	1.552566	-0.295571	0.787676
H49	H	1.481598	-0.280780	0.885092
H50	H	1.677430	-0.208176	0.862930
H51	H	1.606463	-0.193364	0.960356
H52	H	1.118384	-0.352563	0.627835
C53	C	1.749243	-0.449690	1.167969
C54	C	1.767675	-0.368138	1.106265
H55	H	1.813665	-0.472050	1.196259
H56	H	1.702797	-0.433569	1.223454
H57	H	1.718783	-0.498765	1.126034
H58	H	1.798128	-0.319061	1.148202
H59	H	1.814139	-0.384256	1.050772
C60	C	0.862921	-0.735250	0.308957
C61	C	0.923861	-0.698647	0.391051
H62	H	0.838050	-0.797466	0.327158
H63	H	0.805065	-0.693709	0.296805
H64	H	0.904329	-0.739413	0.247237
H65	H	0.882451	-0.694478	0.452770
H66	H	0.981726	-0.740199	0.403216
H67	H	1.641586	-0.257210	1.090289
H68	H	1.103606	-0.577974	0.280116
H69	H	1.107905	-0.668767	0.390757
H70	H	1.396442	-0.576540	0.906048
H71	H	0.930073	-0.571236	0.284211
H72	H	1.396550	-0.576580	1.105113
H73	H	1.744602	-0.351959	0.920851
