data_functionalizedCrystal
_audit_creation_method	'MofGen! by Chris Wilmer'
_symmetry_space_group_name_H-M	'P1'
_symmetry_Int_Tables_number	1
_symmetry_cell_setting	triclinic
loop_
_symmetry_equiv_pos_as_xyz
  x,y,z
_cell_length_a	21.395362
_cell_length_b	25.639239
_cell_length_c	21.395355
_cell_angle_alpha	89.980666
_cell_angle_beta	89.956060
_cell_angle_gamma	90.054564
loop_
_atom_site_label
_atom_site_type_symbol
_atom_site_fract_x
_atom_site_fract_y
_atom_site_fract_z
Zn1	Zn	0.957825	-0.207990	-0.354582
Zn2	Zn	0.957713	-0.295409	-0.249803
Zn3	Zn	0.853040	-0.208014	-0.249783
Zn4	Zn	0.852994	-0.295420	-0.354508
O5	O	0.905393	-0.251708	-0.302169
O6	O	1.045488	-0.219571	-0.340722
O7	O	0.943800	-0.283822	-0.162122
O8	O	0.867006	-0.134846	-0.263708
O9	O	1.045405	-0.283798	-0.263742
O10	O	0.943991	-0.134828	-0.340703
O11	O	0.866897	-0.219613	-0.162108
O12	O	0.765356	-0.219623	-0.263636
O13	O	0.866928	-0.283817	-0.442196
O14	O	0.765322	-0.283840	-0.340576
O15	O	0.943947	-0.219582	-0.442250
O16	O	0.943756	-0.368576	-0.263669
O17	O	0.866820	-0.368584	-0.340596
C18	C	0.742605	-0.251736	-0.302096
C19	C	0.672964	-0.251760	-0.302080
C20	C	0.905288	-0.387551	-0.302140
C21	C	0.905300	-0.445665	-0.302149
C22	C	0.640250	-0.285243	-0.342083
C23	C	0.574814	-0.285230	-0.342111
C24	C	0.542096	-0.251740	-0.302125
C25	C	0.574818	-0.218252	-0.262119
C26	C	0.640252	-0.218262	-0.262097
C27	C	0.438372	-0.247528	-0.245720
C28	C	0.372939	-0.247522	-0.245741
C29	C	0.340275	-0.251706	-0.302194
C30	C	0.373052	-0.255908	-0.358627
C31	C	0.438486	-0.255918	-0.358605
C32	C	0.471143	-0.251725	-0.302145
C33	C	0.236608	-0.285176	-0.342231
C34	C	0.171172	-0.285160	-0.342260
C35	C	0.171176	-0.218185	-0.262262
C36	C	0.236612	-0.218198	-0.262239
C37	C	0.269324	-0.251697	-0.302222
C38	C	0.945558	-0.806011	-0.262182
C39	C	0.945582	-0.860616	-0.262190
O40	O	0.979702	-0.888838	-0.228177
N41	N	0.905503	-0.887947	-0.302211
C42	C	0.865401	-0.860672	-0.342230
O43	O	0.831313	-0.888934	-0.376271
C44	C	0.865381	-0.806069	-0.342224
C45	C	0.905458	-0.778740	-0.302196
C46	C	0.985633	-0.778682	-0.222158
C47	C	0.985608	-0.724082	-0.222149
C48	C	0.945508	-0.696810	-0.262164
C49	C	0.905433	-0.724139	-0.302187
C50	C	0.825282	-0.778794	-0.382246
C51	C	0.825266	-0.724187	-0.382237
C52	C	0.865343	-0.696858	-0.342209
C53	C	0.865308	-0.642267	-0.342193
N54	N	0.905387	-0.614935	-0.302173
C55	C	0.945487	-0.642207	-0.262158
C56	C	0.865448	-0.975343	-0.342239
C57	C	0.865465	-1.029945	-0.342242
C58	C	0.945648	-1.029885	-0.262204
C59	C	0.945627	-0.975281	-0.262198
C60	C	0.905528	-0.948011	-0.302219
C61	C	0.945430	-0.527542	-0.262142
C62	C	0.945400	-0.472937	-0.262134
C63	C	0.865220	-0.473002	-0.342175
C64	C	0.865248	-0.527602	-0.342180
C65	C	0.905358	-0.554871	-0.302162
O66	O	0.831207	-0.614010	-0.376190
O67	O	0.979575	-0.613939	-0.228128
C68	C	1.068816	-0.251681	-0.302242
C69	C	1.138458	-0.251669	-0.302274
C70	C	0.905445	-0.251698	-0.465592
C71	C	0.905467	-0.251693	-0.535234
C72	C	0.905516	-0.115335	-0.302212
C73	C	0.905568	-0.057221	-0.302230
C74	C	0.945569	-0.218245	-0.567976
C75	C	0.945568	-0.218222	-0.633412
C76	C	0.905472	-0.251658	-0.666102
C77	C	0.865362	-0.285108	-0.633352
C78	C	0.865360	-0.285126	-0.567917
C79	C	0.900488	-0.298736	-0.769765
C80	C	0.900495	-0.298719	-0.835198
C81	C	0.905476	-0.251602	-0.867923
C82	C	0.910463	-0.204501	-0.835207
C83	C	0.910461	-0.204519	-0.769773
C84	C	0.905470	-0.251642	-0.737054
C85	C	0.945579	-0.218127	-0.971618
C86	C	0.945574	-0.218103	-1.037055
C87	C	0.865371	-0.284994	-1.036993
C88	C	0.865373	-0.285013	-0.971558
C89	C	0.905480	-0.251580	-0.938874
C90	C	0.905377	-0.251681	-0.139381
C91	C	0.905476	-0.251538	-0.069741
H92	H	0.666880	-0.312519	-0.374642
Cl93	Cl	0.815028	-0.941065	-0.392551
H94	H	0.978262	-0.953033	-0.229605
H95	H	0.548173	-0.312495	-0.374689
Cl96	Cl	0.995995	-0.176095	-0.930527
Cl97	Cl	0.814852	-0.561959	-0.392488
H98	H	0.978228	-0.190863	-1.063713
Cl99	Cl	0.995973	-0.176159	-0.674582
Cl100	Cl	0.814958	-0.327023	-1.078084
H101	H	0.832569	-0.450789	-0.374753
Cl102	Cl	0.995854	-0.561814	-0.211831
H103	H	0.978227	-0.191020	-0.541369
Cl104	Cl	0.130045	-0.327253	-0.392557
Cl105	Cl	0.996059	-1.064179	-0.211898
Cl106	Cl	0.995787	-0.438584	-0.211811
Cl107	Cl	0.814959	-0.327067	-0.930394
H108	H	0.914520	-0.166167	-0.743138
H109	H	0.914520	-0.166134	-0.861850
Cl110	Cl	1.036051	-0.812957	-0.171847
Cl111	Cl	0.331740	-0.242239	-0.174797
H112	H	0.896438	-0.337072	-0.861831
H113	H	0.465171	-0.259338	-0.404555
H114	H	0.896265	-0.337094	-0.743126
Cl115	Cl	0.814953	-0.327140	-0.674447
Cl116	Cl	0.277740	-0.176105	-0.211944
Cl117	Cl	0.814942	-0.327180	-0.526753
Cl118	Cl	0.815073	-1.064295	-0.392557
H119	H	0.346459	-0.259314	-0.404597
H120	H	0.263244	-0.312450	-0.374791
Cl121	Cl	0.774853	-0.689908	-0.432553
Cl122	Cl	0.130050	-0.176080	-0.211997
H123	H	0.548174	-0.190984	-0.229563
Cl124	Cl	0.681380	-0.176167	-0.211803
Cl125	Cl	0.479428	-0.242270	-0.174743
Cl126	Cl	1.036003	-0.689734	-0.171836
H127	H	0.792644	-0.801036	-0.414837
