data_functionalizedCrystal
_audit_creation_method	'MofGen! by Chris Wilmer'
_symmetry_space_group_name_H-M	'P1'
_symmetry_Int_Tables_number	1
_symmetry_cell_setting	triclinic
loop_
_symmetry_equiv_pos_as_xyz
  x,y,z
_cell_length_a	10.654545
_cell_length_b	15.995292
_cell_length_c	9.730223
_cell_angle_alpha	89.998793
_cell_angle_beta	89.997167
_cell_angle_gamma	83.975848
loop_
_atom_site_label
_atom_site_type_symbol
_atom_site_fract_x
_atom_site_fract_y
_atom_site_fract_z
O1	O	1.666269	0.117587	-0.114265
O2	O	1.300640	0.128796	-0.114270
O3	O	1.493488	0.001359	-0.114270
O4	O	1.473422	0.245024	-0.114266
O5	O	1.493475	0.001355	0.114310
O6	O	1.300628	0.128792	0.114310
O7	O	1.666257	0.117584	0.114314
Zn8	Zn	1.483441	0.123188	0.150604
Zn9	Zn	1.483457	0.123192	-0.150560
O10	O	1.473410	0.245021	0.114314
C11	C	1.253847	0.127972	0.000019
C12	C	1.114436	0.125512	0.000017
C13	C	1.492665	-0.029843	0.000017
C14	C	1.490216	-0.122810	0.000006
C15	C	1.048941	0.124352	0.124616
C16	C	0.917952	0.122027	0.124616
C17	C	0.917966	0.122025	-0.124594
C18	C	1.048954	0.124344	-0.124593
C19	C	1.481216	-0.460601	0.000019
C20	C	1.620408	-0.436482	0.000531
C21	C	1.623053	-0.339791	0.000011
C22	C	1.485682	-0.293019	0.000013
C23	C	1.416100	-0.322522	-0.130514
C24	C	1.414424	-0.419322	-0.130618
C25	C	1.411567	-0.419199	0.129320
C26	C	1.416725	-0.322677	0.131040
C27	C	1.488199	-0.198308	0.000006
C28	C	1.478695	-0.555311	0.000017
C29	C	1.713050	0.118408	0.000022
C30	C	1.852461	0.120868	0.000015
C31	C	1.474233	0.276223	0.000025
C32	C	1.476681	0.369190	0.000026
N33	N	1.483439	0.123184	0.356140
N34	N	1.483469	0.123189	-0.356096
C35	C	1.568860	0.066779	0.428067
C36	C	1.568873	0.066779	0.571950
C37	C	1.398038	0.179597	0.571968
C38	C	1.398020	0.179592	0.428087
H39	H	0.864631	0.121083	0.226078
H40	H	1.638411	0.020847	0.369491
C41	C	1.304090	0.241651	0.651110
C42	C	1.304175	0.241712	0.809372
C43	C	1.210227	0.303770	0.888510
C44	C	1.116195	0.365766	0.809384
C45	C	1.116107	0.365707	0.651113
C46	C	1.210054	0.303650	0.571975
H47	H	1.373786	0.195816	0.867954
H48	H	1.210292	0.303813	1.005673
H49	H	1.046649	0.411705	0.867966
H50	H	1.046495	0.411603	0.592531
H51	H	1.209989	0.303606	0.454812
C52	C	1.273159	-0.438905	0.130529
C53	C	1.242383	-0.530790	0.135762
C54	C	1.103981	-0.550501	0.136960
C55	C	0.996355	-0.478327	0.132925
C56	C	1.027127	-0.386435	0.127691
C57	C	1.165529	-0.366724	0.126494
H58	H	1.322057	-0.584224	0.138749
H59	H	1.081202	-0.618526	0.140834
H60	H	0.893901	-0.492918	0.133812
H61	H	0.947453	-0.333001	0.124704
H62	H	1.188309	-0.298699	0.122619
H63	H	0.864634	0.121075	-0.226046
H64	H	1.102253	0.125303	0.226081
C65	C	1.662841	0.004735	0.651070
C66	C	1.756814	-0.057296	0.571928
C67	C	1.850785	-0.119344	0.651049
C68	C	1.850784	-0.119360	0.809312
C69	C	1.756808	-0.057326	0.888462
C70	C	1.662837	0.004721	0.809342
H71	H	1.756817	-0.057286	0.454765
H72	H	1.920352	-0.165265	0.592455
H73	H	1.920347	-0.165291	0.867881
H74	H	1.756804	-0.057336	1.005626
H75	H	1.593270	0.050643	0.867935
H76	H	1.315012	-0.291240	-0.135365
C77	C	1.121007	0.125621	-0.261663
C78	C	1.117294	0.052722	-0.364457
C79	C	1.189348	0.053994	-0.501521
C80	C	1.265115	0.128166	-0.535789
C81	C	1.268832	0.201071	-0.432992
C82	C	1.196778	0.199798	-0.295929
H83	H	1.061203	-0.002190	-0.339092
H84	H	1.186596	0.000025	-0.577617
H85	H	1.318454	0.129108	-0.637252
H86	H	1.324922	0.255982	-0.458358
H87	H	1.199529	0.253767	-0.219832
H88	H	1.677549	-0.320451	0.093576
H89	H	1.674054	-0.464170	0.094138
C90	C	1.692496	-0.475250	-0.125220
C91	C	1.625533	-0.528657	-0.228227
C92	C	1.697617	-0.567424	-0.353982
C93	C	1.836664	-0.552784	-0.376730
C94	C	1.903635	-0.499375	-0.273720
C95	C	1.831551	-0.460608	-0.147965
H96	H	1.522596	-0.539496	-0.211391
H97	H	1.648040	-0.606962	-0.430237
H98	H	1.890025	-0.581482	-0.469821
H99	H	2.006572	-0.488535	-0.290556
H100	H	1.881128	-0.421070	-0.071710
H101	H	1.677880	-0.321067	-0.093718
H102	H	1.328454	0.225524	0.369521
C103	C	1.479548	-0.455177	-0.262423
C104	C	1.618209	-0.441845	-0.290981
C105	C	1.683339	-0.477696	-0.422788
C106	C	1.609807	-0.526877	-0.526036
C107	C	1.471138	-0.540211	-0.497481
C108	C	1.406009	-0.504361	-0.365674
H109	H	1.672649	-0.405436	-0.214548
H110	H	1.785991	-0.467825	-0.443926
H111	H	1.658020	-0.553415	-0.623607
H112	H	1.416699	-0.576620	-0.573914
H113	H	1.303356	-0.514231	-0.344536
H114	H	1.312367	-0.434463	-0.136530
H115	H	1.464429	-0.302179	-0.227652
C116	C	1.485158	-0.297197	0.261499
C117	C	1.603097	-0.249685	0.249173
C118	C	1.671531	-0.224199	0.379628
C119	C	1.622026	-0.246226	0.522410
C120	C	1.504081	-0.293741	0.534741
C121	C	1.435646	-0.319226	0.404286
H122	H	1.639749	-0.233377	0.143472
H123	H	1.758843	-0.189025	0.370499
H124	H	1.672685	-0.227359	0.618981
H125	H	1.467429	-0.310048	0.640442
H126	H	1.348335	-0.354400	0.413416
H127	H	1.455397	-0.447035	0.228259
H128	H	1.316458	-0.290289	0.138925
