data_functionalizedCrystal
_audit_creation_method	'MofGen! by Chris Wilmer'
_symmetry_space_group_name_H-M	'P1'
_symmetry_Int_Tables_number	1
_symmetry_cell_setting	triclinic
loop_
_symmetry_equiv_pos_as_xyz
  x,y,z
_cell_length_a	25.639242
_cell_length_b	25.639240
_cell_length_c	11.169409
_cell_angle_alpha	90.041291
_cell_angle_beta	89.975137
_cell_angle_gamma	89.964534
loop_
_atom_site_label
_atom_site_type_symbol
_atom_site_fract_x
_atom_site_fract_y
_atom_site_fract_z
Zn1	Zn	0.799263	0.208216	-0.678605
Zn2	Zn	0.799164	0.295666	-0.477890
Zn3	Zn	0.711823	0.208235	-0.477924
Zn4	Zn	0.711778	0.295611	-0.678520
O5	O	0.755507	0.251932	-0.578235
O6	O	0.872415	0.219832	-0.652001
O7	O	0.787555	0.284099	-0.309945
O8	O	0.723483	0.135067	-0.504595
O9	O	0.872342	0.284081	-0.504537
O10	O	0.787725	0.135053	-0.652034
O11	O	0.723387	0.219864	-0.309970
O12	O	0.638652	0.219810	-0.504513
O13	O	0.723405	0.283986	-0.846481
O14	O	0.638618	0.284005	-0.651889
O15	O	0.787680	0.219778	-0.846544
O16	O	0.787511	0.368824	-0.504455
O17	O	0.723309	0.368783	-0.651856
C18	C	0.619664	0.251904	-0.578196
C19	C	0.561550	0.251904	-0.578208
C20	C	0.310403	0.218537	-0.655160
C21	C	0.365007	0.218532	-0.655153
O22	O	0.393283	0.190139	-0.720571
N23	N	0.392276	0.251926	-0.578249
C24	C	0.364938	0.285331	-0.501355
O25	O	0.393147	0.313735	-0.435942
C26	C	0.310335	0.285339	-0.501369
C27	C	0.283069	0.251938	-0.578269
C28	C	0.283137	0.185140	-0.732055
C29	C	0.228536	0.185144	-0.732060
C30	C	0.201202	0.218546	-0.655170
C31	C	0.228468	0.251943	-0.578274
C32	C	0.282998	0.318746	-0.424482
C33	C	0.228391	0.318751	-0.424503
C34	C	0.201125	0.285351	-0.501404
C35	C	0.146534	0.285349	-0.501389
N36	N	0.119264	0.251955	-0.578293
C37	C	0.146599	0.218553	-0.655183
C38	C	0.479609	0.285314	-0.501333
C39	C	0.534211	0.285304	-0.501313
C40	C	0.534276	0.218505	-0.655112
C41	C	0.479673	0.218512	-0.655126
C42	C	0.452340	0.251920	-0.578238
C43	C	0.031933	0.218565	-0.655187
C44	C	-0.022672	0.218571	-0.655182
C45	C	-0.022732	0.285372	-0.501387
C46	C	0.031868	0.285364	-0.501387
C47	C	0.059200	0.251959	-0.578297
O48	O	0.118223	0.313729	-0.436007
O49	O	0.118383	0.190159	-0.720596
C50	C	0.755408	0.387775	-0.578169
C51	C	0.755414	0.445889	-0.578181
C52	C	0.788981	0.806260	-0.501568
C53	C	0.788997	0.860865	-0.501579
O54	O	0.817467	0.889109	-0.436403
N55	N	0.755549	0.888171	-0.578262
C56	C	0.722087	0.860870	-0.654946
O57	O	0.693639	0.889110	-0.720173
C58	C	0.722074	0.806267	-0.654940
C59	C	0.755520	0.778963	-0.578244
C60	C	0.822425	0.778957	-0.424879
C61	C	0.822408	0.724356	-0.424866
C62	C	0.788947	0.697059	-0.501542
C63	C	0.755503	0.724363	-0.578231
C64	C	0.688615	0.778967	-0.731630
C65	C	0.688605	0.724360	-0.731618
C66	C	0.722051	0.697057	-0.654921
C67	C	0.722026	0.642465	-0.654894
N68	N	0.755474	0.615159	-0.578212
C69	C	0.788934	0.642456	-0.501536
C70	C	0.722117	0.975541	-0.654955
C71	C	0.722127	1.030143	-0.654957
C72	C	0.789038	1.030134	-0.501591
C73	C	0.789025	0.975530	-0.501584
C74	C	0.755565	0.948234	-0.578273
C75	C	0.788896	0.527791	-0.501514
C76	C	0.788875	0.473185	-0.501504
C77	C	0.721966	0.473200	-0.654874
C78	C	0.721985	0.527800	-0.654880
C79	C	0.755454	0.555094	-0.578196
O80	O	0.693571	0.614187	-0.720041
O81	O	0.817382	0.614209	-0.436331
C82	C	0.891880	0.251961	-0.578275
C83	C	0.949994	0.251973	-0.578291
C84	C	0.755549	0.251874	-0.891278
C85	C	0.755567	0.251849	-1.024678
C86	C	0.755600	1.115559	-0.578307
C87	C	0.755590	1.057445	-0.578284
C88	C	0.755495	0.251952	-0.266410
C89	C	0.755579	0.251829	-0.133011
H90	H	0.054070	0.312557	-0.438758
N91	N	0.451830	0.184404	-0.733707
N92	N	0.457960	0.187932	-0.844433
H93	H	0.438297	0.163843	-0.899941
H94	H	-0.044998	0.312565	-0.438780
N95	N	0.823230	1.058024	-0.423292
N96	N	0.871471	1.051884	-0.431369
H97	H	0.895619	1.071582	-0.376076
H98	H	0.816111	0.450957	-0.439045
H99	H	0.694866	0.953319	-0.717401
H100	H	0.694721	0.450966	-0.717300
H101	H	0.661358	0.702138	-0.794070
N102	N	0.059838	0.184440	-0.733756
N103	N	0.035478	0.154626	-0.802399
H104	H	0.055186	0.130523	-0.857884
H105	H	0.694887	1.052369	-0.717399
H106	H	0.661377	0.801188	-0.794079
H107	H	0.816151	0.550007	-0.439073
N108	N	0.687810	0.555685	-0.733208
N109	N	0.657932	0.531304	-0.801653
H110	H	0.633797	0.550994	-0.856980
H111	H	0.849644	0.702129	-0.362417
H112	H	-0.044870	0.191370	-0.717803
H113	H	0.305386	0.157940	-0.794674
N114	N	0.200696	0.151017	-0.810606
N115	N	0.225117	0.121195	-0.879237
H116	H	0.205459	0.097089	-0.934711
H117	H	0.556542	0.191308	-0.717721
H118	H	0.556407	0.312496	-0.438679
N119	N	0.856605	0.806825	-0.346528
N120	N	0.853155	0.800756	-0.235778
H121	H	0.877295	0.820434	-0.180431
N122	N	0.451699	0.319442	-0.422776
N123	N	0.476058	0.349254	-0.354123
H124	H	0.456350	0.373358	-0.298642
H125	H	0.816260	0.953303	-0.439132
N126	N	0.310840	0.352860	-0.345917
N127	N	0.304713	0.349343	-0.235188
H128	H	0.324375	0.373439	-0.179697
N129	N	0.200480	0.352882	-0.345958
N130	N	0.224836	0.382699	-0.277311
H131	H	0.205125	0.406804	-0.221836
