data_functionalizedCrystal
_audit_creation_method	'MofGen! by Chris Wilmer'
_symmetry_space_group_name_H-M	'P1'
_symmetry_Int_Tables_number	1
_symmetry_cell_setting	triclinic
loop_
_symmetry_equiv_pos_as_xyz
  x,y,z
_cell_length_a	13.101039
_cell_length_b	14.044220
_cell_length_c	14.044220
_cell_angle_alpha	93.188878
_cell_angle_beta	93.673600
_cell_angle_gamma	86.328313
loop_
_atom_site_label
_atom_site_type_symbol
_atom_site_fract_x
_atom_site_fract_y
_atom_site_fract_z
O1	O	-0.085111	-1.272352	-0.234979
O2	O	-0.085137	-0.995679	-0.226675
O3	O	-0.085114	-1.129863	-0.092490
O4	O	-0.085133	-1.138168	-0.369163
O5	O	0.085318	-1.139494	-0.082850
O6	O	0.085295	-1.005310	-0.217035
O7	O	0.085321	-1.281983	-0.225339
Zn8	Zn	0.112367	-1.145176	-0.219656
Zn9	Zn	-0.112183	-1.132486	-0.232357
O10	O	0.085298	-1.147799	-0.359523
C11	C	0.000076	-0.964872	-0.218219
C12	C	0.000066	-0.858729	-0.207375
N13	N	-0.265433	-1.123826	-0.241019
C14	C	0.000106	-1.312789	-0.233794
C15	C	0.000109	-1.418932	-0.244639
C16	C	-0.474478	-1.112035	-0.252802
C17	C	-0.525345	-1.165631	-0.199207
C18	C	-0.641664	-1.159070	-0.205764
C19	C	-0.358148	-1.118595	-0.246247
N20	N	0.265617	-1.153843	-0.210988
C21	C	0.000102	-1.131043	-0.052049
C22	C	0.000102	-1.120198	0.054094
C23	C	0.000088	-0.664393	-0.187548
C24	C	0.000087	-0.613263	-0.264462
C25	C	0.000099	-0.505127	-0.253430
C26	C	0.000076	-0.772538	-0.198578
C27	C	0.000080	-1.146619	-0.399965
C28	C	0.000073	-1.157463	-0.506108
C29	C	0.000086	-1.100371	0.248431
C30	C	0.000090	-1.177286	0.299561
C31	C	0.000080	-1.166254	0.407697
C32	C	0.000095	-1.111402	0.140285
H33	H	-0.481534	-1.216442	-0.148399
N34	N	-0.532498	-1.044728	-0.320097
H35	H	-0.608572	-1.049523	-0.315295
H36	H	-0.513815	-0.977104	-0.302278
N37	N	0.000121	-1.275491	0.249985
H38	H	-0.063051	-1.307793	0.265460
H39	H	0.000169	-1.269483	0.178660
H40	H	0.000099	-0.626956	-0.113419
N41	N	0.000075	-1.002176	0.298012
H42	H	0.000073	-1.008117	0.369352
H43	H	0.063258	-0.969940	0.282462
H44	H	0.000077	-0.650701	-0.338596
