data_functionalizedCrystal
_audit_creation_method	'MofGen! by Chris Wilmer'
_symmetry_space_group_name_H-M	'P1'
_symmetry_Int_Tables_number	1
_symmetry_cell_setting	triclinic
loop_
_symmetry_equiv_pos_as_xyz
  x,y,z
_cell_length_a	14.519709
_cell_length_b	10.654550
_cell_length_c	9.130313
_cell_angle_alpha	90.003780
_cell_angle_beta	89.997798
_cell_angle_gamma	95.917476
loop_
_atom_site_label
_atom_site_type_symbol
_atom_site_fract_x
_atom_site_fract_y
_atom_site_fract_z
O1	O	0.129528	-1.666589	-0.121923
O2	O	0.141869	-1.300991	-0.121900
O3	O	0.001510	-1.493483	-0.121899
O4	O	0.269887	-1.474097	-0.121924
O5	O	0.001514	-1.493481	0.121700
O6	O	0.141873	-1.300989	0.121699
O7	O	0.129532	-1.666586	0.121676
Cu8	Cu	0.135703	-1.483787	0.143930
Cu9	Cu	0.135698	-1.483790	-0.144154
O10	O	0.269891	-1.474094	0.121675
C11	C	0.140965	-1.254201	-0.000098
C12	C	0.138254	-1.114784	-0.000088
C13	C	-0.032852	-1.492579	-0.000099
C14	C	-0.135247	-1.489871	-0.000098
C15	C	0.130436	-1.713377	-0.000130
C16	C	0.133147	-1.852794	-0.000149
C17	C	-0.510195	-1.479904	-0.000136
C18	C	-0.405873	-1.482672	-0.000125
C19	C	-0.322725	-1.484887	-0.000116
C20	C	-0.218396	-1.487656	-0.000108
C21	C	0.304253	-1.474999	-0.000128
C22	C	0.406648	-1.477707	-0.000139
N23	N	0.135705	-1.483795	0.346552
C24	C	0.220895	-1.034504	-0.000117
C25	C	0.218342	-0.903507	-0.000143
C26	C	0.050500	-0.933085	-0.000116
C27	C	0.053054	-1.064078	-0.000080
C28	C	0.306095	-1.085209	-0.000126
C29	C	0.388743	-1.004928	-0.000157
C30	C	0.386190	-0.873931	-0.000182
C31	C	0.300989	-0.823217	-0.000176
N32	N	0.135688	-1.483793	-0.346777
C33	C	0.073576	-1.569052	0.423205
C34	C	0.073565	-1.569048	0.576542
C35	C	0.197821	-1.398527	0.576560
C36	C	0.197827	-1.398525	0.423226
C37	C	0.011454	-1.654321	0.346531
C38	C	-0.050679	-1.739586	0.423184
C39	C	-0.050691	-1.739583	0.576520
C40	C	0.011432	-1.654315	0.653205
H41	H	0.308183	-1.191871	-0.000112
H42	H	-0.101288	-1.809000	0.638929
H43	H	0.458110	-1.046228	-0.000149
H44	H	0.453485	-0.808569	-0.000192
C45	C	-0.043216	-0.877302	-0.000123
C46	C	-0.112101	-0.907549	-0.126604
C47	C	-0.205818	-0.851769	-0.126617
C48	C	-0.230652	-0.765744	-0.000150
C49	C	-0.161765	-0.735493	0.126341
C50	C	-0.068048	-0.791272	0.126354
H51	H	-0.093719	-0.971234	-0.220232
H52	H	-0.256812	-0.874164	-0.220255
H53	H	-0.300027	-0.724452	-0.000160
H54	H	-0.180147	-0.671807	0.219968
H55	H	-0.017054	-0.768878	0.219991
H56	H	0.298917	-0.716549	-0.000174
C57	C	-0.037849	-1.152399	-0.000051
C58	C	-0.107430	-1.146561	0.126448
C59	C	-0.198334	-1.234884	0.126485
C60	C	-0.219657	-1.329046	0.000023
C61	C	-0.150075	-1.334889	-0.126485
C62	C	-0.059171	-1.246565	-0.126523
H63	H	-0.091647	-1.076853	0.220071
H64	H	-0.249844	-1.230559	0.220135
H65	H	-0.286950	-1.394429	0.000050
H66	H	-0.165858	-1.404597	-0.220109
H67	H	-0.007661	-1.250891	-0.220173
H68	H	-0.101263	-1.809002	0.360739
H69	H	0.011460	-1.654334	0.221677
H70	H	0.011412	-1.654311	0.778062
H71	H	0.248400	-1.329106	0.639006
H72	H	0.248417	-1.329100	0.360815
