data_functionalizedCrystal
_audit_creation_method	'MofGen! by Chris Wilmer'
_symmetry_space_group_name_H-M	'P1'
_symmetry_Int_Tables_number	1
_symmetry_cell_setting	triclinic
loop_
_symmetry_equiv_pos_as_xyz
  x,y,z
_cell_length_a	19.188930
_cell_length_b	15.944551
_cell_length_c	15.021413
_cell_angle_alpha	90.009956
_cell_angle_beta	89.991425
_cell_angle_gamma	96.678241
loop_
_atom_site_label
_atom_site_type_symbol
_atom_site_fract_x
_atom_site_fract_y
_atom_site_fract_z
O1	O	0.926405	-0.104873	-0.074320
O2	O	0.723131	-0.118989	-0.074259
O3	O	0.830319	0.010365	-0.074283
O4	O	0.819217	-0.234227	-0.074296
O5	O	0.830331	0.010382	0.073781
O6	O	0.723142	-0.118972	0.073805
O7	O	0.926417	-0.104855	0.073744
Zn8	Zn	0.824782	-0.111911	0.097283
Zn9	Zn	0.824766	-0.111934	-0.097798
O10	O	0.819229	-0.234209	0.073768
C11	C	0.697124	-0.118524	-0.000219
C12	C	0.619616	-0.117151	-0.000196
C13	C	0.574888	-0.193052	-0.000214
C14	C	0.502061	-0.191763	-0.000224
C15	C	0.473965	-0.114568	-0.000233
C16	C	0.518703	-0.038658	-0.000210
C17	C	0.591528	-0.039949	-0.000192
N18	N	0.365828	-0.055569	-0.050659
N19	N	0.296647	-0.054347	-0.050678
C20	C	0.254546	-0.110673	-0.000288
N21	N	0.284240	-0.168279	0.050112
N22	N	0.353428	-0.169503	0.050128
C23	C	0.394999	-0.113160	-0.000253
C24	C	0.130851	-0.185181	-0.000315
C25	C	0.058023	-0.183888	-0.000319
C26	C	0.074666	-0.030781	-0.000315
C27	C	0.147492	-0.032076	-0.000302
C28	C	0.175580	-0.109278	-0.000306
C29	C	0.829864	0.041665	-0.000251
C30	C	0.828482	0.134906	-0.000250
C31	C	0.952423	-0.105321	-0.000298
C32	C	1.029932	-0.106693	-0.000327
N33	N	0.824756	-0.111943	-0.230936
C34	C	0.819684	-0.265510	-0.000266
C35	C	0.821065	-0.358751	-0.000273
C36	C	0.758739	0.349502	-0.000242
C37	C	0.791131	0.410649	0.072753
C38	C	0.825983	0.305623	-0.000256
C39	C	0.791136	0.410616	-0.073226
C40	C	0.823563	0.470526	-0.000266
C41	C	0.858393	0.365542	0.072799
C42	C	0.858388	0.365502	-0.073246
C43	C	0.890829	0.426631	-0.000234
C44	C	0.827374	0.210626	-0.000250
C45	C	0.822176	0.565522	-0.000266
C46	C	0.775099	-0.171636	-0.470602
C47	C	0.761707	-0.095724	-0.529930
C48	C	0.824770	-0.111925	-0.412543
C49	C	0.838142	-0.187820	-0.529957
C50	C	0.824781	-0.111914	-0.587967
C51	C	0.811347	-0.035975	-0.470564
C52	C	0.887809	-0.128121	-0.470585
C53	C	0.874444	-0.052154	-0.529886
C54	C	0.824761	-0.111932	-0.311485
C55	C	0.824790	-0.111898	-0.689022
N56	N	0.824797	-0.111895	0.230420
H57	H	0.153721	-0.248043	-0.000305
H58	H	0.708402	-0.082018	-0.556004
H59	H	0.762681	0.430579	-0.134942
H60	H	0.021605	-0.245699	-0.000328
H61	H	0.051791	0.032072	-0.000378
H62	H	0.941097	-0.141855	-0.444496
C63	C	0.896153	0.338810	-0.155662
C64	C	0.860702	0.361358	-0.231887
C65	C	0.895459	0.336770	-0.307832
H66	H	0.942817	0.366261	-0.156326
H67	H	0.897104	0.279374	-0.154816
H68	H	0.859759	0.420783	-0.232734
H69	H	0.814041	0.333910	-0.231253
H70	H	0.896410	0.277334	-0.306985
H71	H	0.942121	0.364223	-0.308486
H72	H	0.871407	0.352059	-0.359559
C73	C	0.195943	0.050423	-0.000338
C74	C	0.155753	0.118305	-0.000372
C75	C	0.200361	0.194319	-0.000414
H76	H	0.224701	0.053228	0.051288
H77	H	0.224701	0.053141	-0.051986
H78	H	0.127007	0.115589	0.051270
H79	H	0.126997	0.115528	-0.051994
H80	H	0.229119	0.197037	-0.052061
H81	H	0.229117	0.197116	0.051213
H82	H	0.173100	0.240386	-0.000445
H83	H	0.702924	0.315986	-0.000152
H84	H	0.849457	-0.252010	-0.556029
C85	C	0.753087	0.437268	0.154984
C86	C	0.683964	0.397859	0.154661
C87	C	0.648890	0.422365	0.230388
H88	H	0.776443	0.421085	0.206883
H89	H	0.752817	0.496814	0.154664
H90	H	0.684237	0.338326	0.154989
H91	H	0.660589	0.414037	0.102779
H92	H	0.648620	0.481910	0.230067
H93	H	0.672252	0.406180	0.282281
H94	H	0.601985	0.395636	0.230174
H95	H	0.886815	0.345665	0.134578
C96	C	0.965329	0.471089	-0.000021
C97	C	1.000207	0.448242	0.076540
C98	C	1.068832	0.489190	0.076776
H99	H	0.989474	0.454981	-0.051336
H100	H	0.964074	0.530478	-0.000464
H101	H	1.001465	0.388866	0.076975
H102	H	0.976083	0.464351	0.127868
H103	H	1.067578	0.548579	0.076333
H104	H	1.092970	0.473079	0.025458
H105	H	1.092503	0.473700	0.128726
H106	H	0.733061	-0.222078	-0.444571
C107	C	0.796159	0.049561	-0.435758
C108	C	0.796283	0.048539	-0.342557
C109	C	0.782283	0.127313	-0.310461
H110	H	0.831215	0.092068	-0.456436
H111	H	0.751510	0.061177	-0.456522
H112	H	0.840925	0.036934	-0.321802
H113	H	0.761227	0.006050	-0.321855
H114	H	0.737635	0.138928	-0.331225
H115	H	0.817341	0.169813	-0.331145
H116	H	0.782359	0.126627	-0.247222
H117	H	0.597753	-0.255916	-0.000219
C118	C	0.930378	0.015379	-0.564337
C119	C	0.916050	0.094657	-0.534097
C120	C	0.967551	0.156890	-0.565827
H121	H	0.975074	0.004443	-0.543138
H122	H	0.930327	0.014762	-0.627581
H123	H	0.916108	0.095272	-0.470866
H124	H	0.871363	0.105620	-0.555293
H125	H	0.967500	0.156273	-0.629070
H126	H	1.012244	0.145946	-0.544625
H127	H	0.957834	0.210688	-0.545320
C128	C	0.453372	-0.274083	-0.000204
C129	C	0.383583	-0.256426	-0.000200
C130	C	0.338714	-0.332237	-0.000171
H131	H	0.461811	-0.305811	-0.051825
H132	H	0.461830	-0.305755	0.051449
H133	H	0.375129	-0.224767	-0.051847
H134	H	0.375122	-0.224710	0.051417
H135	H	0.347171	-0.363909	0.051481
H136	H	0.347159	-0.363959	-0.051793
H137	H	0.291357	-0.320267	-0.000160
H138	H	0.495822	0.024194	-0.000230
H139	H	0.627946	0.021860	-0.000178
