data_functionalizedCrystal
_audit_creation_method	'MofGen! by Chris Wilmer'
_symmetry_space_group_name_H-M	'P1'
_symmetry_Int_Tables_number	1
_symmetry_cell_setting	triclinic
loop_
_symmetry_equiv_pos_as_xyz
  x,y,z
_cell_length_a	12.759401
_cell_length_b	12.827892
_cell_length_c	12.759393
_cell_angle_alpha	89.970218
_cell_angle_beta	89.979062
_cell_angle_gamma	90.016917
loop_
_atom_site_label
_atom_site_type_symbol
_atom_site_fract_x
_atom_site_fract_y
_atom_site_fract_z
Zn1	Zn	1.606261	-0.415940	-0.594025
Zn2	Zn	1.606150	-0.590717	-0.418348
Zn3	Zn	1.430560	-0.415996	-0.418361
Zn4	Zn	1.430550	-0.590644	-0.593985
O5	O	1.518380	-0.503324	-0.506180
O6	O	1.753268	-0.439132	-0.570733
O7	O	1.582816	-0.567594	-0.271328
O8	O	1.453918	-0.269752	-0.441685
O9	O	1.753186	-0.567540	-0.441663
O10	O	1.583005	-0.269711	-0.570745
O11	O	1.453810	-0.439227	-0.271338
O12	O	1.283538	-0.439156	-0.441646
O13	O	1.453900	-0.567416	-0.741011
O14	O	1.283530	-0.567469	-0.570676
O15	O	1.582995	-0.439061	-0.741041
O16	O	1.582806	-0.736944	-0.441624
O17	O	1.453793	-0.736890	-0.570664
C18	C	1.245413	-0.503312	-0.506159
C19	C	1.128636	-0.503331	-0.506175
C20	C	1.073798	-0.570246	-0.573255
C21	C	0.964074	-0.570250	-0.573276
C22	C	0.964036	-0.436422	-0.439127
C23	C	1.073758	-0.436413	-0.439112
C24	C	1.518315	-0.774834	-0.506161
C25	C	1.518383	-0.890987	-0.506188
C26	C	1.582298	-0.942764	-0.442406
C27	C	1.582370	-1.062814	-0.442433
C28	C	1.792414	-0.503338	-0.506201
C29	C	1.909190	-0.503344	-0.506210
C30	C	1.518459	-0.503224	-0.780213
C31	C	1.518492	-0.503181	-0.896990
C32	C	1.518475	-0.230754	-0.506221
C33	C	1.518515	-0.114601	-0.506239
C34	C	1.585717	-0.436336	-0.951869
C35	C	1.585735	-0.436291	-1.061593
C36	C	1.451301	-0.569945	-1.061549
C37	C	1.451278	-0.569984	-0.951827
C38	C	1.518363	-0.503349	-0.233212
C39	C	1.518533	-0.503097	-0.116436
H40	H	1.118476	-0.624732	-0.627864
Cl41	Cl	1.433982	-0.959758	-0.590537
H42	H	1.640474	-0.381858	-1.106271
Cl43	Cl	0.895039	-0.352303	-0.354822
H44	H	1.396580	-0.624336	-1.106211
H45	H	1.636970	-0.898218	-0.387783
H46	H	1.396529	-0.624416	-0.907143
H47	H	0.919429	-0.624737	-0.627901
H48	H	1.637087	-1.107341	-0.387824
H49	H	1.118409	-0.381917	-0.384487
H50	H	1.463788	-1.070082	-0.560844
H51	H	1.640444	-0.381938	-0.907224
