data_functionalizedCrystal
_audit_creation_method	'MofGen! by Chris Wilmer'
_symmetry_space_group_name_H-M	'P1'
_symmetry_Int_Tables_number	1
_symmetry_cell_setting	triclinic
loop_
_symmetry_equiv_pos_as_xyz
  x,y,z
_cell_length_a	21.295417
_cell_length_b	18.215407
_cell_length_c	18.215399
_cell_angle_alpha	89.983140
_cell_angle_beta	90.032152
_cell_angle_gamma	89.973360
loop_
_atom_site_label
_atom_site_type_symbol
_atom_site_fract_x
_atom_site_fract_y
_atom_site_fract_z
Zn1	Zn	-0.250681	-1.125043	0.416036
Zn2	Zn	-0.355952	-1.124939	0.292961
Zn3	Zn	-0.250693	-1.001976	0.292990
Zn4	Zn	-0.355909	-1.001930	0.415992
O5	O	-0.303309	-1.063472	0.354495
O6	O	-0.264658	-1.228014	0.399716
O7	O	-0.342012	-1.108604	0.189980
O8	O	-0.162602	-1.018364	0.309343
O9	O	-0.342000	-1.227937	0.309293
O10	O	-0.162593	-1.108781	0.399744
O11	O	-0.264679	-1.018263	0.190002
O12	O	-0.264638	-0.898985	0.309300
O13	O	-0.341927	-1.018285	0.518982
O14	O	-0.341939	-0.898951	0.399669
O15	O	-0.264616	-1.108736	0.519014
O16	O	-0.444035	-1.108559	0.309250
O17	O	-0.444004	-1.018184	0.399641
C18	C	-0.303286	-0.872266	0.354483
C19	C	-0.303291	-0.790467	0.354496
C20	C	-0.343615	-0.525411	0.401486
C21	C	-0.343611	-0.602270	0.401482
C22	C	-0.262997	-0.602274	0.307517
C23	C	-0.263004	-0.525417	0.307518
C24	C	-0.303312	-0.486987	0.354506
C25	C	-0.303301	-0.640703	0.354502
C26	C	-0.303297	-0.724037	0.354498
C27	C	-0.303318	-0.403648	0.354509
C28	C	-0.466860	-1.063375	0.354454
C29	C	-0.536828	-1.063402	0.354461
C30	C	-0.569691	-1.110502	0.307443
C31	C	-0.635433	-1.110536	0.307459
C32	C	-0.668311	-1.063457	0.354486
C33	C	-0.635441	-1.016354	0.401514
C34	C	-0.569699	-1.016326	0.401501
N35	N	-0.771573	-0.999079	0.360093
N36	N	-0.834024	-0.999107	0.360101
C37	C	-0.866386	-1.063540	0.354529
N38	N	-0.833936	-1.127944	0.348934
N39	N	-0.771479	-1.127915	0.348922
C40	C	-0.739596	-1.063483	0.354506
C41	C	-0.970533	-1.110681	0.307526
C42	C	-1.036277	-1.110717	0.307548
C43	C	-1.036283	-1.016528	0.401598
C44	C	-0.970541	-1.016499	0.401580
C45	C	-0.937670	-1.063575	0.354540
C46	C	-0.139118	-1.063589	0.354552
C47	C	-0.069150	-1.063639	0.354576
C48	C	-0.303265	-1.063517	0.546448
C49	C	-0.303247	-1.063536	0.628246
C50	C	-0.303327	-0.255425	0.354506
C51	C	-0.303323	-0.337224	0.354512
C52	C	-0.303306	-1.063470	0.163288
C53	C	-0.303148	-1.063593	0.081490
C54	C	-0.262953	-1.110651	0.816459
C55	C	-0.262935	-1.110659	0.893317
C56	C	-0.343443	-1.016473	0.893272
C57	C	-0.343457	-1.016461	0.816415
C58	C	-0.303214	-1.063554	0.778010
C59	C	-0.303181	-1.063575	0.931726
C60	C	-0.303161	-1.063584	1.015060
C61	C	-0.303232	-1.063544	0.694671
H62	H	-0.230178	-0.633573	0.269262
H63	H	-1.063032	-1.149076	0.269261
H64	H	-0.230184	-0.494132	0.269258
O65	O	-0.382692	-0.639560	0.447226
C66	C	-0.369020	-0.620794	0.520601
H67	H	-0.318735	-0.599691	0.524418
H68	H	-0.402790	-0.576171	0.539769
C69	C	-0.438151	-0.714998	0.565013
C70	C	-0.376389	-0.689085	0.569702
H71	H	-0.442699	-0.757122	0.595302
H72	H	-0.447365	-0.727640	0.515579
H73	H	-0.466286	-0.677806	0.580985
H74	H	-0.348256	-0.726274	0.553722
H75	H	-0.367171	-0.676451	0.619135
O76	O	-0.382558	-0.970666	0.930467
C77	C	-0.418108	-0.929107	0.880047
H78	H	-0.392333	-0.926565	0.825271
H79	H	-0.465919	-0.956026	0.871855
C80	C	-0.458829	-0.853905	0.977307
C81	C	-0.427169	-0.850777	0.910032
H82	H	-0.464421	-0.805588	0.995803
H83	H	-0.434881	-0.881905	1.011276
H84	H	-0.498668	-0.876340	0.970471
H85	H	-0.387327	-0.828350	0.916870
H86	H	-0.451111	-0.822771	0.876064
H87	H	-0.376242	-0.978104	0.785109
H88	H	-0.542929	-1.148835	0.269142
O89	O	-0.667267	-1.156312	0.261711
C90	C	-0.624157	-1.197869	0.220206
H91	H	-0.577315	-1.167711	0.217625
H92	H	-0.617112	-1.253747	0.247196
C93	C	-0.707389	-1.245560	0.145063
C94	C	-0.649859	-1.208517	0.141889
H95	H	-0.723244	-1.252131	0.096754
H96	H	-0.736434	-1.217564	0.173028
H97	H	-0.701511	-1.292121	0.167558
H98	H	-0.655739	-1.161953	0.119403
H99	H	-0.620815	-1.236505	0.113918
H100	H	-0.376437	-0.494124	0.439746
O101	O	-0.667445	-0.970723	0.447231
C102	C	-0.705403	-1.012612	0.494817
H103	H	-0.715228	-1.068402	0.468910
H104	H	-0.680029	-1.020658	0.549357
C105	C	-0.755803	-0.903617	0.539936
C106	C	-0.767875	-0.972137	0.508114
H107	H	-0.794338	-0.878649	0.548142
H108	H	-0.730228	-0.875395	0.507879
H109	H	-0.734656	-0.910331	0.585383
H110	H	-0.789014	-0.965422	0.462664
H111	H	-0.793455	-1.000357	0.540165
O112	O	-0.537871	-0.970499	0.447198
C113	C	-0.580984	-0.928968	0.488727
H114	H	-0.627868	-0.926457	0.458594
H115	H	-0.587918	-0.955891	0.544644
C116	C	-0.497791	-0.853710	0.536272
C117	C	-0.555374	-0.850621	0.499259
H118	H	-0.481994	-0.805383	0.542772
H119	H	-0.468745	-0.881692	0.508295
H120	H	-0.503578	-0.876149	0.582866
H121	H	-0.549585	-0.828191	0.452663
H122	H	-0.584419	-0.822633	0.527228
O123	O	-0.938695	-1.156480	0.261813
C124	C	-0.981801	-1.198052	0.220307
H125	H	-1.028642	-1.200608	0.250465
H126	H	-0.988852	-1.171135	0.164393
C127	C	-0.898561	-1.273230	0.172716
C128	C	-0.956089	-1.276374	0.209760
H129	H	-0.882700	-1.321542	0.166207
H130	H	-0.869518	-1.245221	0.200678
H131	H	-0.904444	-1.250796	0.126126
H132	H	-0.950204	-1.298799	0.256353
H133	H	-0.985130	-1.304389	0.181806
O134	O	-1.068310	-0.970822	0.447214
C135	C	-1.133383	-0.980962	0.437161
H136	H	-1.142382	-1.005098	0.380389
H137	H	-1.151980	-1.020139	0.480850
C138	C	-1.156133	-0.876868	0.513582
C139	C	-1.167187	-0.906507	0.443851
H140	H	-1.176986	-0.830942	0.517712
H141	H	-1.112293	-0.870038	0.520358
H142	H	-1.171632	-0.909523	0.549982
H143	H	-1.151681	-0.873857	0.407454
H144	H	-1.211025	-0.913330	0.437069
H145	H	-0.230150	-1.149009	0.924619
H146	H	-0.943783	-0.978143	0.439864
H147	H	-0.230183	-1.148995	0.785192
