data_functionalizedCrystal
_audit_creation_method	'MofGen! by Chris Wilmer'
_symmetry_space_group_name_H-M	'P1'
_symmetry_Int_Tables_number	1
_symmetry_cell_setting	triclinic
loop_
_symmetry_equiv_pos_as_xyz
  x,y,z
_cell_length_a	15.944551
_cell_length_b	14.853567
_cell_length_c	13.330367
_cell_angle_alpha	90.004582
_cell_angle_beta	89.994404
_cell_angle_gamma	96.433166
loop_
_atom_site_label
_atom_site_type_symbol
_atom_site_fract_x
_atom_site_fract_y
_atom_site_fract_z
O1	O	0.109665	-1.196228	-0.083357
O2	O	0.609665	-0.696228	0.416643
O3	O	0.122728	-0.933752	-0.083374
O4	O	0.622728	-0.433752	0.416626
O5	O	-0.006070	-1.072158	-0.083356
O6	O	0.493930	-0.572158	0.416644
O7	O	0.238463	-1.057822	-0.083375
O8	O	0.738463	-0.557822	0.416625
O9	O	-0.006073	-1.072137	0.083491
O10	O	0.493927	-0.572137	0.583491
O11	O	0.122725	-0.933732	0.083473
O12	O	0.622725	-0.433732	0.583473
O13	O	0.109662	-1.196208	0.083491
O14	O	0.609662	-0.696208	0.583491
Cu15	Cu	0.116193	-1.064968	0.098716
Cu16	Cu	0.616193	-0.564968	0.598716
Cu17	Cu	0.116197	-1.064992	-0.098600
Cu18	Cu	0.616197	-0.564992	0.401400
O19	O	0.238460	-1.057802	0.083472
O20	O	0.738460	-0.557802	0.583472
C21	C	0.122135	-0.900154	0.000047
C22	C	0.622135	-0.400154	0.500047
C23	C	0.120361	-0.800072	0.000041
C24	C	0.620361	-0.300072	0.500041
C25	C	-0.037367	-1.071552	0.000068
C26	C	0.462633	-0.571552	0.500068
C27	C	-0.130615	-1.069768	0.000068
C28	C	0.369385	-0.569768	0.500068
C29	C	0.110255	-1.229806	0.000067
C30	C	0.610255	-0.729806	0.500067
C31	C	0.112029	-1.329887	0.000067
C32	C	0.612029	-0.829887	0.500067
C33	C	-0.345572	-0.979713	0.000049
C34	C	0.154428	-0.479713	0.500049
C35	C	-0.406544	-1.021522	0.082317
C36	C	0.093456	-0.521522	0.582317
C37	C	-0.301344	-1.066541	0.000060
C38	C	0.198656	-0.566541	0.500060
C39	C	-0.406524	-1.021562	-0.082181
C40	C	0.093476	-0.521562	0.417819
C41	C	-0.466260	-1.063416	0.000048
C42	C	0.033740	-0.563416	0.500048
C43	C	-0.361088	-1.108373	0.082397
C44	C	0.138912	-0.608373	0.582397
C45	C	-0.361062	-1.108401	-0.082175
C46	C	0.138938	-0.608401	0.417825
C47	C	-0.422017	-1.150273	0.000113
C48	C	0.077983	-0.650273	0.500113
C49	C	-0.206340	-1.068338	0.000068
C50	C	0.293660	-0.568338	0.500068
C51	C	-0.561263	-1.061626	0.000048
C52	C	-0.061263	-0.561626	0.500048
C53	C	0.269756	-1.058407	0.000046
C54	C	0.769756	-0.558407	0.500046
C55	C	0.363004	-1.060191	0.000039
C56	C	0.863004	-0.560191	0.500039
N57	N	0.116190	-1.064958	0.237498
N58	N	0.616190	-0.564958	0.737498
C59	C	0.036354	-0.387646	0.000070
C60	C	0.536354	0.112354	0.500070
C61	C	0.189369	-0.366169	0.000057
C62	C	0.689369	0.133831	0.500057
C63	C	0.191037	-0.460201	0.000054
C64	C	0.691037	0.039799	0.500054
C65	C	0.115362	-0.517960	0.000057
C66	C	0.615362	-0.017960	0.500057
C67	C	0.038019	-0.481687	0.000064
C68	C	0.538019	0.018313	0.500064
C69	C	0.268379	-0.496480	0.000037
C70	C	0.768379	0.003520	0.500037
C71	C	0.270050	-0.590517	0.000033
C72	C	0.770050	-0.090517	0.500033
C73	C	0.194374	-0.648278	0.000043
C74	C	0.694374	-0.148278	0.500043
C75	C	0.117028	-0.612000	0.000051
C76	C	0.617028	-0.112000	0.500051
C77	C	0.041353	-0.669759	0.000054
C78	C	0.541353	-0.169759	0.500054
C79	C	-0.035994	-0.633483	0.000069
C80	C	0.464006	-0.133483	0.500069
C81	C	-0.037657	-0.539448	0.000074
C82	C	0.462343	-0.039448	0.500074
C83	C	0.196036	-0.742313	0.000038
C84	C	0.696036	-0.242313	0.500038
C85	C	0.043018	-0.763800	0.000048
C86	C	0.543018	-0.263800	0.500048
N87	N	0.116193	-1.065009	-0.237381
N88	N	0.616193	-0.565009	0.262619
C89	C	0.173206	-1.003703	0.710113
C90	C	0.673206	-0.503703	1.210113
C91	C	0.059180	-1.126305	0.710097
C92	C	0.559180	-0.626305	1.210097
C93	C	0.059178	-1.126295	0.605078
C94	C	0.559178	-0.626295	1.105078
C95	C	0.116191	-1.064989	0.552572
C96	C	0.616191	-0.564989	1.052572
C97	C	0.173207	-1.003693	0.605085
C98	C	0.673207	-0.503693	1.105085
C99	C	0.002169	-1.187595	0.552558
C100	C	0.502169	-0.687595	1.052558
C101	C	0.002164	-1.187588	0.447534
C102	C	0.502164	-0.687588	0.947534
C103	C	0.059174	-1.126277	0.395026
C104	C	0.559174	-0.626277	0.895026
C105	C	0.116192	-1.064978	0.447544
C106	C	0.616192	-0.564978	0.947544
C107	C	0.173205	-1.003672	0.395038
C108	C	0.673205	-0.503672	0.895038
C109	C	0.230220	-0.942368	0.447555
C110	C	0.730220	-0.442368	0.947555
C111	C	0.230217	-0.942382	0.552577
C112	C	0.730217	-0.442382	1.052577
C113	C	0.059177	-1.126264	0.290004
C114	C	0.559177	-0.626264	0.790004
C115	C	0.173206	-1.003662	0.290010
C116	C	0.673206	-0.503662	0.790010
H117	H	-0.312344	-0.907643	0.000126
H118	H	0.187656	-0.407643	0.500126
O119	O	-0.002307	-1.192424	0.766729
O120	O	0.497693	-0.692424	1.266729
H121	H	0.008521	-1.262698	0.746560
H122	H	0.508521	-0.762698	1.246560
H123	H	-0.426694	-0.984789	0.151864
H124	H	0.073306	-0.484789	0.651864
H125	H	-0.426641	-0.984835	-0.151738
H126	H	0.073359	-0.484835	0.348262
O127	O	-0.121073	-0.500318	0.000081
O128	O	0.378927	-0.000318	0.500081
H129	H	-0.157439	-0.523505	0.068093
H130	H	0.342561	-0.023505	0.568093
O131	O	0.270989	-0.303879	0.000048
O132	O	0.770989	0.196121	0.500048
H133	H	0.307995	-0.316780	0.068046
H134	H	0.807995	0.183220	0.568046
O135	O	-0.334568	-1.156963	0.174634
O136	O	0.165432	-0.656963	0.674634
H137	H	-0.265057	-1.157870	0.173936
H138	H	0.234943	-0.657870	0.673936
O139	O	0.353474	-0.629631	0.000032
O140	O	0.853474	-0.129631	0.500032
H141	H	0.357906	-0.671959	-0.067975
H142	H	0.857906	-0.171959	0.432025
O143	O	-0.465847	-1.245816	0.000175
O144	O	0.034153	-0.745816	0.500175
H145	H	-0.447655	-1.281621	0.068530
H146	H	0.052345	-0.781621	0.568530
H147	H	-0.340890	-1.145102	-0.151725
H148	H	0.159110	-0.645102	0.348275
H149	H	-0.018607	-0.810822	0.000054
H150	H	0.481393	-0.310822	0.500054
H151	H	-0.026620	-0.358106	0.000086
H152	H	0.473380	0.141894	0.500086
O153	O	0.349997	-0.434189	0.000046
O154	O	0.849997	0.065811	0.500046
H155	H	0.335843	-0.362707	0.000071
H156	H	0.835843	0.137293	0.500071
O157	O	0.279450	-0.781442	0.000018
O158	O	0.779450	-0.281442	0.500018
H159	H	0.283867	-0.823772	0.068017
H160	H	0.783867	-0.323772	0.568017
O161	O	-0.117614	-0.695784	0.000069
O162	O	0.382386	-0.195784	0.500069
H163	H	-0.154624	-0.682888	0.068077
H164	H	0.345376	-0.182888	0.568077
O165	O	0.234708	-0.937591	0.766743
O166	O	0.734708	-0.437591	1.266743
H167	H	0.199281	-0.893779	0.814610
H168	H	0.699281	-0.393779	1.314610
H169	H	0.219631	-0.953736	0.247266
H170	H	0.719631	-0.453736	0.747266
H171	H	0.276644	-0.892456	0.404792
H172	H	0.776644	-0.392456	0.904792
O173	O	0.291717	-0.876274	0.609216
O174	O	0.791717	-0.376274	1.109216
H175	H	0.282145	-0.886592	0.691064
H176	H	0.782145	-0.386592	1.191064
H177	H	-0.044246	-1.237513	0.595312
H178	H	0.455754	-0.737513	1.095312
O179	O	-0.059334	-1.253694	0.390891
O180	O	0.440666	-0.753694	0.890891
H181	H	-0.098983	-1.296319	0.445047
H182	H	0.401017	-0.796319	0.945047
H183	H	0.012761	-1.176181	0.247250
H184	H	0.512761	-0.676181	0.747250
