data_functionalizedCrystal
_audit_creation_method	'MofGen! by Chris Wilmer'
_symmetry_space_group_name_H-M	'P1'
_symmetry_Int_Tables_number	1
_symmetry_cell_setting	triclinic
loop_
_symmetry_equiv_pos_as_xyz
  x,y,z
_cell_length_a	25.639239
_cell_length_b	18.101398
_cell_length_c	25.639234
_cell_angle_alpha	89.974090
_cell_angle_beta	89.975095
_cell_angle_gamma	90.033952
loop_
_atom_site_label
_atom_site_type_symbol
_atom_site_fract_x
_atom_site_fract_y
_atom_site_fract_z
Zn1	Zn	-0.208249	1.132094	-0.295694
Zn2	Zn	0.291751	1.632094	0.204306
Zn3	Zn	-0.295677	1.131970	-0.208259
Zn4	Zn	0.204323	1.631970	0.291741
Zn5	Zn	-0.208250	1.008249	-0.208264
Zn6	Zn	0.291750	1.508249	0.291736
Zn7	Zn	-0.295648	1.008187	-0.295654
Zn8	Zn	0.204352	1.508187	0.204346
O9	O	-0.251956	1.070125	-0.251968
O10	O	0.248044	1.570125	0.248032
O11	O	-0.219858	1.235710	-0.284111
O12	O	0.280142	1.735710	0.215889
O13	O	-0.284092	1.115532	-0.135094
O14	O	0.215908	1.615532	0.364906
O15	O	-0.135085	1.024755	-0.219880
O16	O	0.364915	1.524755	0.280120
O17	O	-0.284091	1.235619	-0.219872
O18	O	0.215909	1.735619	0.280128
O19	O	-0.135084	1.115743	-0.284115
O20	O	0.364916	1.615743	0.215885
O21	O	-0.219860	1.024635	-0.135098
O22	O	0.280140	1.524635	0.364902
O23	O	-0.219832	0.904608	-0.219841
O24	O	0.280168	1.404608	0.280159
O25	O	-0.284041	1.024649	-0.368824
O26	O	0.215959	1.524649	0.131176
O27	O	-0.284043	0.904562	-0.284046
O28	O	0.215957	1.404562	0.215954
O29	O	-0.219830	1.115683	-0.368854
O30	O	0.280170	1.615683	0.131146
O31	O	-0.368838	1.115472	-0.219833
O32	O	0.131162	1.615472	0.280167
O33	O	-0.368817	1.024529	-0.284042
O34	O	0.131183	1.524529	0.215958
C35	C	-0.251935	0.877714	-0.251940
C36	C	0.248065	1.377714	0.248060
C37	C	-0.251938	0.795400	-0.251941
C38	C	0.248062	1.295400	0.248059
C39	C	-0.251971	0.496309	-0.251985
C40	C	0.248029	0.996309	0.248015
C41	C	-0.211369	0.527638	-0.211786
C42	C	0.288631	1.027638	0.288214
C43	C	-0.211478	0.613257	-0.211614
C44	C	0.288522	1.113257	0.288386
C45	C	-0.251954	0.644692	-0.251963
C46	C	0.248046	1.144692	0.248037
C47	C	-0.307029	0.613563	-0.236906
C48	C	0.192971	1.113563	0.263094
C49	C	-0.306803	0.527918	-0.236626
C50	C	0.193197	1.027918	0.263374
C51	C	-0.237976	0.527929	-0.307336
C52	C	0.262024	1.027929	0.192664
C53	C	-0.236749	0.613580	-0.307034
C54	C	0.263251	1.113580	0.192966
C55	C	-0.251948	0.728551	-0.251952
C56	C	0.248052	1.228551	0.248048
C57	C	-0.251980	0.412450	-0.251995
C58	C	0.248020	0.912450	0.248005
C59	C	-0.387798	1.070000	-0.251944
C60	C	0.112202	1.570000	0.248056
C61	C	-0.445912	1.070015	-0.251951
C62	C	0.054088	1.570015	0.248049
C63	C	-0.806274	1.117602	-0.218591
C64	C	-0.306274	1.617602	0.281409
C65	C	-0.860878	1.117631	-0.218598
C66	C	-0.360878	1.617631	0.281402
O67	O	-0.889114	1.157962	-0.190208
O68	O	-0.389114	1.657962	0.309792
N69	N	-0.888195	1.070255	-0.252002
N70	N	-0.388195	1.570255	0.247998
C71	C	-0.860904	1.022852	-0.285405
C72	C	-0.360904	1.522852	0.214595
O73	O	-0.889153	0.982559	-0.313819
O74	O	-0.389153	1.482559	0.186181
C75	C	-0.806301	1.022828	-0.285401
C76	C	-0.306301	1.522828	0.214599
C77	C	-0.778987	1.070202	-0.251990
C78	C	-0.278987	1.570202	0.248010
C79	C	-0.778960	1.164973	-0.185184
C80	C	-0.278960	1.664973	0.314816
C81	C	-0.724360	1.164943	-0.185176
C82	C	-0.224360	1.664943	0.314824
C83	C	-0.697073	1.117542	-0.218576
C84	C	-0.197073	1.617542	0.281424
C85	C	-0.724387	1.070172	-0.251983
C86	C	-0.224387	1.570172	0.248017
C87	C	-0.779011	0.975430	-0.318806
C88	C	-0.279011	1.475430	0.181194
C89	C	-0.724404	0.975410	-0.318799
C90	C	-0.224404	1.475410	0.181201
C91	C	-0.697091	1.022784	-0.285388
C92	C	-0.197091	1.522784	0.214612
C93	C	-0.642499	1.022742	-0.285375
C94	C	-0.142499	1.522742	0.214625
N95	N	-0.615183	1.070118	-0.251971
N96	N	-0.115183	1.570118	0.248029
C97	C	-0.642470	1.117518	-0.218571
C98	C	-0.142470	1.617518	0.281429
C99	C	-0.975575	1.022908	-0.285413
C100	C	-0.475575	1.522908	0.214587
C101	C	-1.030177	1.022928	-0.285416
C102	C	-0.530177	1.522928	0.214584
C103	C	-1.030147	1.117708	-0.218609
C104	C	-0.530147	1.617708	0.281391
C105	C	-0.975544	1.117684	-0.218604
C106	C	-0.475544	1.617684	0.281396
C107	C	-0.948258	1.070284	-0.252009
C108	C	-0.448258	1.570284	0.247991
C109	C	-0.527805	1.117451	-0.218557
C110	C	-0.027805	1.617451	0.281443
C111	C	-0.473199	1.117415	-0.218551
C112	C	0.026801	1.617415	0.281449
C113	C	-0.473234	1.022639	-0.285360
C114	C	0.026766	1.522639	0.214640
C115	C	-0.527834	1.022672	-0.285364
C116	C	-0.027834	1.522672	0.214636
C117	C	-0.555118	1.070084	-0.251961
C118	C	-0.055118	1.570084	0.248039
O119	O	-0.614229	0.982433	-0.313752
O120	O	-0.114229	1.482433	0.186248
O121	O	-0.614214	1.157812	-0.190167
O122	O	-0.114214	1.657812	0.309833
C123	C	-0.115583	1.070270	-0.252003
C124	C	0.384417	1.570270	0.247997
C125	C	-0.057469	1.070332	-0.252018
C126	C	0.442531	1.570332	0.247982
C127	C	-0.251932	1.070173	-0.388341
C128	C	0.248068	1.570173	0.111659
C129	C	-0.251922	1.070193	-0.446455
C130	C	0.248078	1.570193	0.053545
C131	C	-0.251977	1.263287	-0.251995
C132	C	0.248023	1.763287	0.248005
C133	C	-0.251987	1.345601	-0.252007
C134	C	0.248013	1.845601	0.247993
C135	C	-0.218414	1.022884	-0.806825
C136	C	0.281586	1.522884	-0.306825
C137	C	-0.218404	1.022888	-0.861430
C138	C	0.281596	1.522888	-0.361430
O139	O	-0.189972	0.982627	-0.889673
O140	O	0.310028	1.482627	-0.389673
N141	N	-0.251840	1.070218	-0.888737
N142	N	0.248160	1.570218	-0.388737
C143	C	-0.285291	1.117542	-0.861438
C144	C	0.214709	1.617542	-0.361438
O145	O	-0.313729	1.157799	-0.889679
O146	O	0.186271	1.657799	-0.389679
C147	C	-0.285302	1.117533	-0.806835
C148	C	0.214698	1.617533	-0.306835
C149	C	-0.251861	1.070206	-0.779530
C150	C	0.248139	1.570206	-0.279530
C151	C	-0.184976	0.975560	-0.779520
C152	C	0.315024	1.475560	-0.279520
C153	C	-0.184985	0.975557	-0.724920
C154	C	0.315015	1.475557	-0.224920
C155	C	-0.218432	1.022879	-0.697624
C156	C	0.281568	1.522879	-0.197624
C157	C	-0.251870	1.070203	-0.724929
C158	C	0.248130	1.570203	-0.224929
C159	C	-0.318755	1.164853	-0.779536
C160	C	0.181245	1.664853	-0.279536
C161	C	-0.318764	1.164840	-0.724929
C162	C	0.181236	1.664840	-0.224929
C163	C	-0.285323	1.117512	-0.697624
C164	C	0.214677	1.617512	-0.197624
C165	C	-0.285326	1.117522	-0.643033
C166	C	0.214674	1.617522	-0.143033
N167	N	-0.251890	1.070192	-0.615725
N168	N	0.248110	1.570192	-0.115725
C169	C	-0.218443	1.022870	-0.643021
C170	C	0.281557	1.522870	-0.143021
C171	C	-0.285264	1.117555	-0.976109
C172	C	0.214736	1.617555	-0.476109
C173	C	-0.285250	1.117567	-1.030711
C174	C	0.214750	1.617567	-0.530711
C175	C	-0.218364	1.022912	-1.030699
C176	C	0.281636	1.522912	-0.530699
C177	C	-0.218376	1.022904	-0.976096
C178	C	0.281624	1.522904	-0.476096
C179	C	-0.251829	1.070225	-0.948801
C180	C	0.248171	1.570225	-0.448801
C181	C	-0.218464	1.022868	-0.528356
C182	C	0.281536	1.522868	-0.028356
C183	C	-0.218475	1.022872	-0.473750
C184	C	0.281525	1.522872	0.026250
C185	C	-0.285362	1.117523	-0.473767
C186	C	0.214638	1.617523	0.026233
C187	C	-0.285350	1.117523	-0.528368
C188	C	0.214650	1.617523	-0.028368
C189	C	-0.251899	1.070189	-0.555661
C190	C	0.248101	1.570189	-0.055661
O191	O	-0.313745	1.157760	-0.614755
O192	O	0.186255	1.657760	-0.114755
O193	O	-0.190014	0.982612	-0.614773
O194	O	0.309986	1.482612	-0.114773
C195	C	-0.251942	1.070119	-0.116125
C196	C	0.248058	1.570119	0.383875
C197	C	-0.251805	1.070242	-0.058011
C198	C	0.248195	1.570242	0.441989
H199	H	-0.338091	0.633922	-0.265269
H200	H	0.161909	1.133922	0.234731
N201	N	-0.150796	0.927232	-0.807395
N202	N	0.349204	1.427232	-0.307395
N203	N	-0.117469	0.953332	-0.837870
N204	N	0.382531	1.453332	-0.337870
H205	H	-0.093323	0.919203	-0.857554
H206	H	0.406677	1.419203	-0.357554
H207	H	-0.267549	0.507668	-0.337288
H208	H	0.232451	1.007668	0.162712
N209	N	-1.058074	0.974541	-0.319546
N210	N	-0.558074	1.474541	0.180454
N211	N	-1.088504	1.000584	-0.352890
N212	N	-0.588504	1.500584	0.147110
H213	H	-1.108205	0.966412	-0.376998
H214	H	-0.608205	1.466412	0.123002
N215	N	-0.319422	1.165919	-0.948232
N216	N	0.180578	1.665919	-0.448232
N217	N	-0.301035	1.213131	-0.917785
N218	N	0.198965	1.713131	-0.417785
H219	H	-0.325158	1.247290	-0.898100
H220	H	0.174842	1.747290	-0.398100
N221	N	-0.445365	0.974214	-0.319477
N222	N	0.054635	1.474214	0.180523
N223	N	-0.451508	0.905883	-0.315967
N224	N	0.048492	1.405883	0.184033
H225	H	-0.431825	0.871684	-0.340065
H226	H	0.068175	1.371684	0.159935
H227	H	-0.345987	1.203391	-0.801758
H228	H	0.154013	1.703391	-0.301758
N229	N	-0.352935	1.213191	-0.697058
N230	N	0.147065	1.713191	-0.197058
N231	N	-0.349475	1.281530	-0.703182
N232	N	0.150525	1.781530	-0.203182
H233	H	-0.373607	1.315680	-0.683499
H234	H	0.126393	1.815680	-0.183499
H235	H	-0.312592	1.156054	-0.451533
H236	H	0.187408	1.656054	0.048467
H237	H	-0.702191	0.936812	-0.346003
H238	H	-0.202191	1.436812	0.153997
H239	H	-0.550013	1.156061	-0.191359
H240	H	-0.050013	1.656061	0.308641
H241	H	-0.550074	0.984098	-0.312571
H242	H	-0.050074	1.484098	0.187429
N243	N	-0.184307	0.974535	-0.445859
N244	N	0.315693	1.474535	0.054141
N245	N	-0.136062	0.979502	-0.451974
N246	N	0.363938	1.479502	0.048026
H247	H	-0.111931	0.945366	-0.432277
H248	H	0.388069	1.445366	0.067723
N249	N	-0.806827	1.213382	-0.151054
N250	N	-0.306827	1.713382	0.348946
N251	N	-0.837324	1.187364	-0.117716
N252	N	-0.337324	1.687364	0.382284
H253	H	-0.857001	1.221552	-0.093606
H254	H	-0.357001	1.721552	0.406394
N255	N	-0.947713	0.974480	-0.319540
N256	N	-0.447713	1.474480	0.180460
N257	N	-0.972114	0.932188	-0.349360
N258	N	-0.472114	1.432188	0.150640
H259	H	-0.952440	0.897986	-0.373463
H260	H	-0.452440	1.397986	0.126537
H261	H	-0.198515	0.506365	-0.321025
H262	H	0.301485	1.006365	0.178975
N263	N	-0.445292	1.165803	-0.184425
N264	N	0.054708	1.665803	0.315575
N265	N	-0.396539	1.165771	-0.184417
N266	N	0.103461	1.665771	0.315583
H267	H	-0.376830	1.199942	-0.160315
H268	H	0.123170	1.699942	0.339685
H269	H	-0.312575	1.156069	-0.550600
H270	H	0.187425	1.656069	-0.050600
N271	N	-0.319413	1.165907	-1.058598
N272	N	0.180587	1.665907	-0.558598
N273	N	-0.352726	1.139820	-1.089048
N274	N	0.147274	1.639820	-0.589048
H275	H	-0.376858	1.173958	-1.108741
H276	H	0.123142	1.673958	-0.608741
N277	N	-0.159978	0.501830	-0.223480
N278	N	0.340022	1.001830	0.276520
N279	N	-0.135394	0.464597	-0.190605
N280	N	0.364606	0.964597	0.309395
H281	H	-0.099096	0.446365	-0.198863
H282	H	0.400904	0.946365	0.301137
N283	N	-0.184286	0.974523	-0.556221
N284	N	0.315714	1.474523	-0.056221
N285	N	-0.136044	0.979494	-0.550128
N286	N	0.363956	1.479494	-0.050128
H287	H	-0.111903	0.945354	-0.569807
H288	H	0.388097	1.445354	-0.069807
N289	N	-0.160239	0.639656	-0.223439
N290	N	0.339761	1.139656	0.276561
N291	N	-0.124147	0.594827	-0.231875
N292	N	0.375853	1.094827	0.268125
H293	H	-0.087955	0.613467	-0.240220
H294	H	0.412045	1.113467	0.259780
N295	N	-0.947639	1.166067	-0.184478
N296	N	-0.447639	1.666067	0.315522
N297	N	-0.917205	1.140024	-0.151138
N298	N	-0.417205	1.640024	0.348862
H299	H	-0.897499	1.174196	-0.127034
H300	H	-0.397499	1.674196	0.372966
N301	N	-0.150823	0.927213	-0.697034
N302	N	0.349177	1.427213	-0.197034
N303	N	-0.102577	0.932172	-0.703149
N304	N	0.397423	1.432172	-0.203149
H305	H	-0.078450	0.898024	-0.683458
H306	H	0.421550	1.398024	-0.183458
H307	H	-0.191130	0.984380	-1.052933
H308	H	0.308870	1.484380	-0.552933
N309	N	-0.222832	0.500584	-0.160635
N310	N	0.277168	1.000584	0.339365
N311	N	-0.222702	0.432640	-0.151908
N312	N	0.277298	0.932640	0.348092
H313	H	-0.230799	0.413529	-0.115784
H314	H	0.269201	0.913529	0.384216
N315	N	-0.223084	0.638906	-0.160161
N316	N	0.276916	1.138906	0.339839
N317	N	-0.231133	0.593554	-0.124266
N318	N	0.268867	1.093554	0.375734
H319	H	-0.239332	0.611667	-0.087925
H320	H	0.260668	1.111667	0.412075
N321	N	-0.185902	0.639097	-0.321273
N322	N	0.314098	1.139097	0.178727
N323	N	-0.147465	0.623484	-0.293403
N324	N	0.352535	1.123484	0.206597
H325	H	-0.111552	0.641509	-0.303456
H326	H	0.388448	1.141509	0.196544
N327	N	-0.696471	1.213330	-0.151039
N328	N	-0.196471	1.713330	0.348961
N329	N	-0.702612	1.208453	-0.102793
N330	N	-0.202612	1.708453	0.397207
H331	H	-0.682921	1.242629	-0.078680
H332	H	-0.182921	1.742629	0.421320
N333	N	-0.321695	0.502814	-0.185864
N334	N	0.178305	1.002814	0.314136
N335	N	-0.332181	0.548547	-0.150889
N336	N	0.167819	1.048547	0.349111
H337	H	-0.342698	0.530822	-0.115036
H338	H	0.157302	1.030822	0.384964
N339	N	-1.058034	1.166122	-0.184493
N340	N	-0.558034	1.666122	0.315507
N341	N	-1.106787	1.166133	-0.184507
N342	N	-0.606787	1.666133	0.315493
H343	H	-1.126484	1.200321	-0.160414
H344	H	-0.626484	1.700321	0.339586
H345	H	-0.264167	0.634981	-0.338590
H346	H	0.235833	1.134981	0.161410
H347	H	-0.338079	0.507191	-0.264629
H348	H	0.161921	1.007191	0.235371
N349	N	-0.184211	0.974560	-0.948215
N350	N	0.315789	1.474560	-0.448215
N351	N	-0.154348	0.932320	-0.972599
N352	N	0.345652	1.432320	-0.472599
H353	H	-0.130216	0.898175	-0.952911
H354	H	0.369784	1.398175	-0.452911
N355	N	-0.806894	0.927033	-0.352937
N356	N	-0.306894	1.427033	0.147063
N357	N	-0.782514	0.884724	-0.382756
N358	N	-0.282514	1.384724	0.117244
H359	H	-0.802205	0.850541	-0.406864
H360	H	-0.302205	1.350541	0.093136
H361	H	-0.319104	0.634974	-0.196879
H362	H	0.180896	1.134974	0.303121
