data_functionalizedCrystal
_audit_creation_method	'MofGen! by Chris Wilmer'
_symmetry_space_group_name_H-M	'P1'
_symmetry_Int_Tables_number	1
_symmetry_cell_setting	triclinic
loop_
_symmetry_equiv_pos_as_xyz
  x,y,z
_cell_length_a	14.044220
_cell_length_b	13.101018
_cell_length_c	14.853567
_cell_angle_alpha	93.367354
_cell_angle_beta	91.588096
_cell_angle_gamma	93.664297
loop_
_atom_site_label
_atom_site_type_symbol
_atom_site_fract_x
_atom_site_fract_y
_atom_site_fract_z
O1	O	1.263200	0.085090	-0.212827
O2	O	0.987222	0.085116	-0.204981
O3	O	1.132583	0.085105	-0.078258
O4	O	1.117839	0.085100	-0.339550
O5	O	1.122141	-0.085324	-0.087358
O6	O	0.976780	-0.085313	-0.214081
O7	O	1.252758	-0.085340	-0.221927
Zn8	Zn	1.113111	-0.112386	-0.219449
Zn9	Zn	1.126869	0.112162	-0.207459
O10	O	1.107397	-0.085329	-0.348650
C11	C	0.946682	-0.000095	-0.206097
C12	C	0.841444	-0.000085	-0.195855
N13	N	1.103729	-0.265634	-0.227631
C14	C	1.126694	-0.000106	-0.049166
C15	C	1.124693	-0.000097	0.051076
C16	C	0.648756	-0.000105	-0.177132
C17	C	0.591218	-0.000110	-0.249771
C18	C	0.484001	-0.000121	-0.239353
C19	C	0.755984	-0.000093	-0.187549
C20	C	1.293298	-0.000126	-0.220810
C21	C	1.398537	-0.000130	-0.231052
C22	C	1.149018	-0.525547	-0.188133
C23	C	1.090973	-0.474670	-0.238765
C24	C	1.098073	-0.358352	-0.232569
C25	C	1.141919	-0.641876	-0.194329
N26	N	1.136258	0.265411	-0.199270
C27	C	1.113286	-0.000115	-0.377741
C28	C	1.115288	-0.000117	-0.477984
C29	C	1.029882	-0.000108	0.471121
C30	C	1.202574	-0.000124	0.478719
C31	C	1.204456	-0.000118	0.384537
C32	C	1.119050	-0.000109	0.333642
C33	C	1.031762	-0.000105	0.376930
C34	C	1.291743	-0.000133	0.341241
C35	C	1.293629	-0.000128	0.247053
C36	C	1.208222	-0.000111	0.196157
C37	C	1.120930	-0.000106	0.239451
C38	C	1.035524	-0.000096	0.188556
C39	C	0.948231	-0.000084	0.231848
C40	C	0.946355	-0.000088	0.326034
C41	C	1.210099	-0.000107	0.101971
C42	C	1.037404	-0.000094	0.094364
H43	H	0.622482	-0.000107	-0.319783
H44	H	0.617495	-0.000109	-0.107126
C45	C	1.017700	-0.533250	-0.302755
C46	C	1.025158	-0.638647	-0.296286
C47	C	0.957689	-0.692646	-0.355227
H48	H	0.955412	-0.515857	-0.287029
H49	H	1.029176	-0.515788	-0.362860
H50	H	1.013675	-0.656101	-0.236194
H51	H	1.087431	-0.656070	-0.312019
H52	H	0.969165	-0.675185	-0.415332
H53	H	0.895406	-0.675245	-0.339496
H54	H	0.962746	-0.764163	-0.350852
H55	H	1.272107	-0.000140	0.520163
C56	C	1.222379	-0.466968	-0.124246
C57	C	1.214959	-0.361573	-0.130766
C58	C	1.282542	-0.307565	-0.071948
H59	H	1.211016	-0.484344	-0.064110
H60	H	1.284629	-0.484439	-0.140073
H61	H	1.152724	-0.344109	-0.114933
H62	H	1.226332	-0.344166	-0.190888
H63	H	1.344792	-0.325036	-0.087775
H64	H	1.271173	-0.324950	-0.011816
H65	H	1.277523	-0.236050	-0.076370
H66	H	0.967855	-0.000081	0.052932
C67	C	0.855612	-0.000023	0.176430
C68	C	0.875952	-0.000005	0.084683
C69	C	0.790660	0.000065	0.033603
H70	H	0.816114	-0.059434	0.187017
H71	H	0.823462	0.059439	0.193420
H72	H	0.908087	-0.059461	0.067698
H73	H	0.915437	0.059401	0.074069
H74	H	0.758510	0.059527	0.050593
H75	H	0.751167	-0.059347	0.044197
H76	H	0.804449	0.000087	-0.028652
C77	C	0.851680	-0.000139	0.373201
C78	C	0.868314	-0.000177	0.466576
C79	C	0.781123	-0.000243	0.510057
H80	H	0.820072	0.059280	0.359490
H81	H	0.812861	-0.059593	0.353075
H82	H	0.907117	0.059270	0.486694
H83	H	0.899908	-0.059592	0.480312
H84	H	0.742304	-0.059697	0.489932
H85	H	0.749521	0.059177	0.496340
H86	H	0.792396	-0.000279	0.573415
H87	H	0.958810	-0.000094	0.506374
H88	H	1.361275	-0.000150	0.382686
C89	C	1.388499	-0.000081	0.200225
C90	C	1.462891	-0.000066	0.264958
C91	C	1.550299	-0.000005	0.221853
H92	H	1.389320	-0.059493	0.160464
H93	H	1.396515	0.059380	0.166844
H94	H	1.454877	-0.059520	0.298324
H95	H	1.462101	0.059342	0.304721
H96	H	1.558315	0.059455	0.188472
H97	H	1.551110	-0.059418	0.182094
H98	H	1.600785	0.000015	0.265768
C99	C	1.304803	0.000039	0.054856
C100	C	1.316291	0.087712	0.005676
C101	C	1.403519	0.087876	-0.037747
H102	H	1.355484	0.000081	0.098557
H103	H	1.305490	-0.059360	0.015043
H104	H	1.315612	0.147096	0.045485
H105	H	1.265631	0.087689	-0.038040
H106	H	1.404207	0.028477	-0.077560
H107	H	1.454194	0.087915	0.005960
H108	H	1.411321	0.147356	-0.071127
