data_functionalizedCrystal
_audit_creation_method	'MofGen! by Chris Wilmer'
_symmetry_space_group_name_H-M	'P1'
_symmetry_Int_Tables_number	1
_symmetry_cell_setting	triclinic
loop_
_symmetry_equiv_pos_as_xyz
  x,y,z
_cell_length_a	14.446369
_cell_length_b	17.052862
_cell_length_c	17.052862
_cell_angle_alpha	61.493325
_cell_angle_beta	89.997576
_cell_angle_gamma	70.264992
loop_
_atom_site_label
_atom_site_type_symbol
_atom_site_fract_x
_atom_site_fract_y
_atom_site_fract_z
Zr1	Zr	1.072809	0.816721	-0.200512
O2	O	0.970585	0.944612	-0.328635
O3	O	1.081640	0.666000	-0.146321
O4	O	1.131241	0.783805	-0.307136
O5	O	0.907459	0.860734	-0.057932
O6	O	1.283572	0.783810	-0.307143
O7	O	0.920983	0.826807	-0.167820
O8	O	1.194844	0.573079	-0.019474
O9	O	0.996187	1.071465	-0.345600
O10	O	1.226281	0.736453	-0.141234
O11	O	1.102505	0.761768	-0.059220
O12	O	1.160904	0.900468	-0.248559
O13	O	1.037128	0.925783	-0.166545
Zr14	Zr	1.294190	0.870838	-0.025264
Zr15	Zr	1.315759	0.816729	-0.200523
Zr16	Zr	1.051239	0.870830	-0.025253
Zr17	Zr	1.113642	1.019037	-0.227570
Zr18	Zr	1.253357	0.668522	0.001794
O19	O	1.285359	1.021559	-0.079454
O20	O	1.316029	0.944624	-0.328650
O21	O	0.939915	1.021548	-0.079439
O22	O	1.396414	0.742947	0.102859
O23	O	1.427084	0.666011	-0.146337
O24	O	1.050970	0.742935	0.102875
O25	O	1.459540	0.826825	-0.167844
O26	O	1.235758	0.903754	0.081361
O27	O	1.083427	0.903749	0.081368
O28	O	1.446016	0.860752	-0.057956
O29	O	1.189300	1.071471	-0.345609
O30	O	1.177699	0.616088	0.119833
O31	O	1.370812	0.616094	0.119825
O32	O	1.387957	0.573085	-0.019483
O33	O	0.979042	1.114474	-0.206292
O34	O	1.172155	1.114480	-0.206301
O35	O	1.206095	0.787091	0.022783
O36	O	1.329870	0.761776	-0.059230
O37	O	1.264494	0.925791	-0.166556
O38	O	1.140718	0.951106	-0.084542
C39	C	1.132424	0.590714	-0.079043
C40	C	1.115090	0.504825	-0.067556
C41	C	1.324664	0.209868	-0.206430
C42	C	1.340949	0.290567	-0.217229
C43	C	1.284486	0.344135	-0.179811
C44	C	1.211735	0.316997	-0.131594
C45	C	1.195443	0.236295	-0.120801
C46	C	1.155264	0.370562	-0.094182
C47	C	1.082513	0.343424	-0.045964
C48	C	1.066224	0.262728	-0.035172
C49	C	1.122687	0.209160	-0.072590
C50	C	1.171556	0.451264	-0.104975
C51	C	1.042334	0.477691	-0.019345
C52	C	1.026050	0.396992	-0.008547
C53	C	0.879606	0.843769	-0.112874
C54	C	0.776467	0.843766	-0.112870
C55	C	0.671054	0.740251	-0.045449
C56	C	0.778330	0.740262	-0.045144
C57	C	0.709235	0.914726	-0.083074
C58	C	0.602177	0.914083	-0.082601
C59	C	0.616775	0.877221	-0.210292
C60	C	0.724974	0.875016	-0.209845
C61	C	1.487393	0.843790	-0.112901
C62	C	1.590532	0.843793	-0.112906
C63	C	1.210480	0.776098	-0.332110
C64	C	1.219637	0.753127	-0.406513
C65	C	1.234575	1.096845	-0.146733
C66	C	1.251909	1.182734	-0.158219
C67	C	1.108930	1.030842	-0.840337
C68	C	1.100321	1.052427	-0.770434
C69	C	1.130150	0.977604	-0.679451
C70	C	1.168588	0.881192	-0.658376
C71	C	1.177191	0.859605	-0.728285
C72	C	1.198410	0.806367	-0.567400
C73	C	1.236849	0.709955	-0.546325
C74	C	1.245451	0.688372	-0.616228
C75	C	1.215623	0.763195	-0.707211
C76	C	1.189808	0.827954	-0.497490
C77	C	1.258068	0.656717	-0.385439
C78	C	1.266678	0.635132	-0.455341
C79	C	1.156519	0.911461	0.106335
C80	C	1.147362	0.934432	0.180737
C81	C	1.436318	0.590724	-0.079056
C82	C	1.522122	0.504839	-0.067574
C83	C	1.105443	0.658395	0.140180
C84	C	1.078952	0.595478	0.226069
C85	C	1.409337	0.658406	0.140166
C86	C	1.485984	0.595491	0.226051
C87	C	0.957662	1.029153	-0.365942
C88	C	0.881015	1.092068	-0.451826
C89	C	0.930681	1.096835	-0.146719
C90	C	0.844877	1.182720	-0.158201
C91	C	1.261555	1.029164	-0.365955
C92	C	1.288047	1.092081	-0.451844
C93	C	1.508345	0.451286	-0.104994
C94	C	1.588962	0.370594	-0.094224
C95	C	1.683354	0.343453	-0.046027
C96	C	1.697130	0.397014	-0.008606
C97	C	1.616516	0.477708	-0.019383
C98	C	1.120583	0.579151	0.309215
C99	C	1.095689	0.520047	0.389922
C100	C	1.029168	0.477264	0.387481
C101	C	0.987533	0.493596	0.304326
C102	C	1.012422	0.552705	0.223620
C103	C	1.586599	0.552732	0.223573
C104	C	1.658629	0.493626	0.304262
C105	C	1.630042	0.477276	0.387429
C106	C	1.529418	0.520043	0.389904
C107	C	1.457391	0.579153	0.309215
C108	C	0.780402	1.134837	-0.449349
C109	C	0.708377	1.193967	-0.530042
C110	C	0.736964	1.210322	-0.613210
C111	C	0.837587	1.167550	-0.615684
C112	C	0.909612	1.108426	-0.534993
C113	C	0.858657	1.236279	-0.120790
C114	C	0.778047	1.316987	-0.131583
C115	C	0.683656	1.344130	-0.179782
C116	C	0.669878	1.290566	-0.217199
C117	C	0.750489	1.209864	-0.206411
C118	C	1.354570	1.134847	-0.449374
C119	C	1.379481	1.193956	-0.530067
C120	C	1.337862	1.210304	-0.613231
C121	C	1.271335	1.167531	-0.615699
C122	C	1.246431	1.108418	-0.535006
H123	H	1.109437	0.143443	-0.063795
H124	H	1.400182	0.312661	-0.256488
H125	H	1.375466	0.613961	0.311246
H126	H	1.431496	0.473379	-0.144251
H127	H	1.748987	0.277744	-0.037258
H128	H	1.006978	0.240641	0.004081
H129	H	0.966814	0.374884	0.030711
H130	H	0.593014	1.312679	-0.256443
H131	H	0.978520	0.565987	0.155922
H132	H	0.789283	1.360588	-0.101108
H133	H	1.222632	0.745626	-0.764137
H134	H	1.577725	0.326993	-0.124697
H135	H	0.933369	0.458754	0.302352
H136	H	0.935507	1.214188	-0.081536
H137	H	0.996355	0.521308	0.011120
H138	H	1.123137	0.995184	-0.622536
H139	H	1.609893	0.566033	0.155862
H140	H	1.740556	0.458809	0.302230
H141	H	0.991534	1.073601	-0.537020
H142	H	0.860853	1.180874	-0.683409
H143	H	1.069025	1.130926	-0.787600
H144	H	0.757105	1.121525	-0.381637
H145	H	1.773995	0.374904	0.030635
H146	H	1.506156	0.506722	0.457630
H147	H	1.688702	0.429143	0.453124
H148	H	0.826321	0.685926	-0.064240
H149	H	1.084642	1.091752	-0.914416
H150	H	0.626450	1.228784	-0.528009
H151	H	1.174748	0.613981	0.311220
H152	H	1.276741	0.609867	-0.599062
H153	H	0.704127	0.991558	-0.130513
H154	H	0.618025	1.409846	-0.188560
H155	H	0.739254	1.166258	-0.236875
H156	H	0.678307	1.258466	-0.678906
H157	H	1.627746	0.521304	0.011096
H158	H	1.388467	1.121548	-0.381666
H159	H	1.129602	0.506758	0.457623
H160	H	1.433649	1.228778	-0.528041
H161	H	1.358148	1.258441	-0.678930
H162	H	0.722164	0.949346	-0.263086
H163	H	1.237454	1.180852	-0.683422
H164	H	1.297974	0.556633	-0.438194
H165	H	0.771138	0.823068	-0.232246
H166	H	1.192259	1.073604	-0.537030
H167	H	1.008910	0.429136	0.453204
H168	H	0.744518	0.893610	-0.012523
H169	H	1.230791	0.473353	-0.144234
H170	H	1.370625	0.166253	-0.236897
H171	H	1.297750	0.409844	-0.188606
H172	H	1.282353	0.595790	-0.311357
H173	H	0.667026	0.685600	-0.064355
H174	H	0.814611	0.713620	0.026970
H175	H	0.585858	0.892204	-0.011302
H176	H	0.654620	0.713806	0.026216
H177	H	0.545600	0.990883	-0.129396
H178	H	0.608821	0.829272	-0.236699
H179	H	1.158508	0.906454	-0.514659
H180	H	0.561061	0.953309	-0.260597
