data_functionalizedCrystal
_audit_creation_method	'MofGen! by Chris Wilmer'
_symmetry_space_group_name_H-M	'P1'
_symmetry_Int_Tables_number	1
_symmetry_cell_setting	triclinic
loop_
_symmetry_equiv_pos_as_xyz
  x,y,z
_cell_length_a	17.699083
_cell_length_b	16.776229
_cell_length_c	16.109301
_cell_angle_alpha	90.007949
_cell_angle_beta	83.372081
_cell_angle_gamma	90.006843
loop_
_atom_site_label
_atom_site_type_symbol
_atom_site_fract_x
_atom_site_fract_y
_atom_site_fract_z
O1	O	-1.004229	-0.066277	-0.105136
O2	O	-0.783870	-0.066282	-0.118816
O3	O	-0.900103	-0.066271	0.009066
O4	O	-0.887996	-0.066288	-0.233017
O5	O	-0.900087	0.066305	0.009073
O6	O	-0.783854	0.066294	-0.118808
O7	O	-1.004213	0.066299	-0.105129
Zn8	Zn	-0.894031	0.087346	-0.111967
Zn9	Zn	-0.894053	-0.087329	-0.111977
O10	O	-0.887980	0.066289	-0.233010
C11	C	-0.755665	0.000006	-0.118322
C12	C	-0.671644	0.000004	-0.116852
C13	C	-0.632167	0.072272	-0.116155
C14	C	-0.553223	0.072273	-0.114760
C15	C	-0.513756	0.000005	-0.114068
C16	C	-0.553239	-0.072269	-0.114763
C17	C	-0.632183	-0.072269	-0.116151
C18	C	-0.234869	-0.072271	-0.109161
C19	C	-0.155920	-0.072266	-0.107775
C20	C	-0.155909	0.072271	-0.107770
C21	C	-0.234852	0.072271	-0.109159
C22	C	-0.274329	-0.000002	-0.109849
C23	C	-0.359930	-0.000002	-0.111359
C24	C	-0.428157	0.000004	-0.112564
N25	N	-0.894022	0.206557	-0.111960
C26	C	-0.945505	0.248279	-0.055358
C27	C	-0.945509	0.331731	-0.055357
C28	C	-0.894032	0.373460	-0.111964
C29	C	-0.842543	0.331733	-0.168569
C30	C	-0.842537	0.248282	-0.168565
C31	C	-0.842568	0.668280	-0.168586
C32	C	-0.842580	0.751736	-0.168588
C33	C	-0.945540	0.751729	-0.055379
C34	C	-0.945534	0.668279	-0.055375
C35	C	-0.894043	0.626558	-0.111976
C36	C	-0.894038	0.536070	-0.111975
C37	C	-0.894039	0.463947	-0.111970
C38	C	-0.032420	0.000009	-0.105617
C39	C	-0.116442	0.000003	-0.107072
C40	C	-0.899605	0.000017	0.040043
C41	C	-0.898135	0.000018	0.132336
N42	N	-0.894061	0.793460	-0.111981
C43	C	-0.888479	-0.000002	-0.263988
C44	C	-0.889949	-0.000008	-0.356280
C45	C	-0.963686	0.000007	0.354722
C46	C	-0.962299	0.000001	0.441440
C47	C	-0.824392	0.000001	0.421327
C48	C	-0.825780	0.000002	0.334611
C49	C	-0.895430	0.000009	0.301311
C50	C	-0.892654	0.000001	0.474745
C51	C	-0.891149	-0.000006	0.568768
C52	C	-0.896935	0.000014	0.207281
H53	H	-0.664294	0.131122	-0.116725
O54	O	-0.670483	-0.142490	-0.116981
C55	C	-0.642591	-0.186470	-0.188611
H56	H	-0.614877	-0.144188	-0.238535
H57	H	-0.598717	-0.231533	-0.171535
C58	C	-0.742868	-0.282685	-0.161167
C59	C	-0.708834	-0.230753	-0.222487
H60	H	-0.783728	-0.310004	-0.182062
H61	H	-0.761658	-0.253057	-0.112906
H62	H	-0.706299	-0.320230	-0.146942
H63	H	-0.745401	-0.193203	-0.236703
H64	H	-0.690052	-0.260375	-0.270751
O65	O	-0.995553	0.372352	-0.000493
C66	C	-1.042239	0.420591	-0.044965
H67	H	-1.012071	0.433084	-0.110064
H68	H	-1.098170	0.388420	-0.050540
C69	C	-1.095486	0.484525	0.081881
C70	C	-1.058431	0.499874	0.001928
H71	H	-1.105478	0.533429	0.110808
H72	H	-1.064035	0.452023	0.111844
H73	H	-1.142091	0.457714	0.077224
H74	H	-1.011823	0.526676	0.006586
H75	H	-1.089874	0.532382	-0.028033
H76	H	-1.017880	-0.000003	0.484924
O77	O	-0.792631	0.627800	-0.223690
C78	C	-0.804905	0.648196	-0.305973
H79	H	-0.865504	0.671115	-0.306291
H80	H	-0.762960	0.696648	-0.330449
C81	C	-0.718687	0.545914	-0.361973
C82	C	-0.793117	0.574058	-0.362364
H83	H	-0.711412	0.500184	-0.396760
H84	H	-0.710415	0.532175	-0.306538
H85	H	-0.683741	0.586298	-0.382368
H86	H	-0.828061	0.533678	-0.341960
H87	H	-0.801395	0.587789	-0.417798
O88	O	-0.995482	0.792381	-0.000419
C89	C	-0.984465	0.874985	-0.012567
H90	H	-0.924285	0.886393	-0.043721
H91	H	-1.027289	0.898652	-0.054211
C92	C	-1.069787	0.903827	0.110763
C93	C	-0.995871	0.917839	0.072506
H94	H	-1.076826	0.930262	0.163240
H95	H	-1.077212	0.848175	0.118947
H96	H	-1.105466	0.923549	0.076052
H97	H	-0.960194	0.898108	0.107212
H98	H	-0.988440	0.973488	0.064330
H99	H	-0.267002	-0.131121	-0.109720
H100	H	-0.800626	0.365713	-0.214657
H101	H	-0.800613	0.214313	-0.214655
H102	H	-1.020399	0.000011	0.327612
O103	O	-0.995452	0.207624	-0.000416
C104	C	-0.984380	0.125021	-0.012515
H105	H	-0.956118	0.113603	-0.078670
H106	H	-0.946387	0.101386	0.034463
C107	C	-1.096498	0.096162	0.081429
C108	C	-1.061791	0.082138	0.000173
H109	H	-1.144248	0.069708	0.089258
H110	H	-1.103956	0.151813	0.089583
H111	H	-1.064830	0.076466	0.120567
H112	H	-1.093455	0.101842	-0.038964
H113	H	-1.054340	0.026489	-0.007988
H114	H	-0.123788	-0.131119	-0.107211
H115	H	-0.767686	-0.000004	0.448451
H116	H	-0.770194	0.000000	0.291121
H117	H	-0.521086	0.131121	-0.114179
H118	H	-0.987453	0.634306	-0.009283
H119	H	-0.123758	0.131119	-0.107205
O120	O	-0.273077	0.142544	-0.109791
C121	C	-0.221301	0.206332	-0.108897
H122	H	-0.168170	0.185148	-0.081598
H123	H	-0.204944	0.228551	-0.175421
C124	C	-0.323870	0.300631	-0.088459
C125	C	-0.258616	0.274614	-0.054924
H126	H	-0.346887	0.342752	-0.055169
H127	H	-0.358752	0.257656	-0.089064
H128	H	-0.310229	0.319141	-0.143895
H129	H	-0.272258	0.256095	0.000507
H130	H	-0.223736	0.317587	-0.054308
O131	O	-0.514783	-0.142400	-0.114125
C132	C	-0.436642	-0.126906	-0.112731
H133	H	-0.422711	-0.064798	-0.138850
H134	H	-0.422199	-0.130326	-0.045664
C135	C	-0.406721	-0.265539	-0.134444
C136	C	-0.389611	-0.189260	-0.166530
H137	H	-0.377709	-0.304003	-0.167626
H138	H	-0.459367	-0.275979	-0.135379
H139	H	-0.394686	-0.268378	-0.078555
H140	H	-0.401655	-0.186419	-0.222414
H141	H	-0.336966	-0.178821	-0.165605
H142	H	-0.800659	0.785711	-0.214685
