data_functionalizedCrystal
_audit_creation_method	'MofGen! by Chris Wilmer'
_symmetry_space_group_name_H-M	'P1'
_symmetry_Int_Tables_number	1
_symmetry_cell_setting	triclinic
loop_
_symmetry_equiv_pos_as_xyz
  x,y,z
_cell_length_a	19.077105
_cell_length_b	16.959454
_cell_length_c	19.076919
_cell_angle_alpha	92.275489
_cell_angle_beta	90.076224
_cell_angle_gamma	87.716588
loop_
_atom_site_label
_atom_site_type_symbol
_atom_site_fract_x
_atom_site_fract_y
_atom_site_fract_z
Zn1	Zn	1.058295	-0.382399	-0.440440
Zn2	Zn	1.558295	0.117601	0.059560
Zn3	Zn	1.062944	-0.509490	-0.322940
Zn4	Zn	1.562944	-0.009490	0.177060
Zn5	Zn	0.945513	-0.371810	-0.318233
Zn6	Zn	1.445513	0.128190	0.181767
Zn7	Zn	0.940765	-0.509013	-0.435693
Zn8	Zn	1.440765	-0.009013	0.064307
O9	O	1.001879	-0.443178	-0.379326
O10	O	1.501879	0.056822	0.120674
O11	O	1.157244	-0.403889	-0.428810
O12	O	1.657244	0.096111	0.071190
O13	O	1.051298	-0.486995	-0.223984
O14	O	1.551298	0.013005	0.276016
O15	O	0.960515	-0.262606	-0.334460
O16	O	1.460515	0.237394	0.165540
O17	O	1.160659	-0.497262	-0.342484
O18	O	1.660659	0.002738	0.157516
O19	O	1.043376	-0.270386	-0.424245
O20	O	1.543376	0.229614	0.075755
O21	O	0.965022	-0.385842	-0.220526
O22	O	1.465022	0.114158	0.279474
O23	O	0.846551	-0.385379	-0.329857
O24	O	1.346551	0.114621	0.170143
O25	O	0.952424	-0.496450	-0.534654
O26	O	1.452424	0.003550	-0.034654
O27	O	0.843063	-0.486182	-0.416155
O28	O	1.343063	0.013818	0.083845
O29	O	1.038773	-0.403426	-0.538142
O30	O	1.538773	0.096574	-0.038142
O31	O	1.046695	-0.620035	-0.337881
O32	O	1.546695	-0.120035	0.162119
O33	O	0.956931	-0.619685	-0.420720
O34	O	1.456931	-0.119685	0.079280
C35	C	0.819311	-0.434581	-0.371980
C36	C	1.319311	0.065419	0.128020
C37	C	0.741206	-0.430922	-0.368854
C38	C	1.241206	0.069078	0.131146
C39	C	0.702718	-0.481759	-0.412246
C40	C	1.202718	0.018241	0.087754
C41	C	0.629330	-0.478312	-0.409312
C42	C	1.129330	0.021688	0.090688
C43	C	0.594433	-0.424030	-0.362983
C44	C	1.094433	0.075970	0.137017
C45	C	0.632926	-0.373188	-0.319590
C46	C	1.132926	0.126812	0.180410
C47	C	0.706312	-0.376632	-0.322528
C48	C	1.206312	0.123368	0.177472
C49	C	0.375144	-0.408090	-0.349389
C50	C	0.875144	0.091910	0.150611
C51	C	0.301753	-0.404651	-0.346453
C52	C	0.801753	0.095349	0.153547
C53	C	0.298162	-0.509774	-0.436177
C54	C	0.798162	-0.009774	0.063823
C55	C	0.371550	-0.513217	-0.439107
C56	C	0.871550	-0.013217	0.060893
C57	C	0.410037	-0.462372	-0.395717
C58	C	0.910037	0.037628	0.104283
N59	N	0.519419	-0.420507	-0.359981
N60	N	1.019419	0.079493	0.140019
N61	N	0.485049	-0.465892	-0.398723
N62	N	0.985049	0.034108	0.101277
C63	C	1.001821	-0.648541	-0.379312
C64	C	1.501821	-0.148541	0.120688
C65	C	1.001859	-0.736400	-0.379332
C66	C	1.501859	-0.236400	0.120668
C67	C	0.955205	-1.107727	-0.422458
C68	C	1.455205	-0.607727	0.077542
C69	C	1.048747	-1.108038	-0.336274
C70	C	1.548747	-0.608038	0.163726
C71	C	1.048723	-1.025491	-0.336266
C72	C	1.548723	-0.525491	0.163734
C73	C	1.001938	-0.984058	-0.379355
C74	C	1.501938	-0.484058	0.120645
C75	C	0.955178	-1.025172	-0.422451
C76	C	1.455178	-0.525172	0.077549
C77	C	1.095477	-0.984370	-0.293166
C78	C	1.595477	-0.484370	0.206834
C79	C	1.095454	-0.901818	-0.293156
C80	C	1.595454	-0.401818	0.206844
C81	C	1.048672	-0.860383	-0.336249
C82	C	1.548672	-0.360383	0.163751
C83	C	1.001911	-0.901503	-0.379347
C84	C	1.501911	-0.401503	0.120653
C85	C	0.955126	-0.860069	-0.422436
C86	C	1.455126	-0.360069	0.077564
C87	C	0.908367	-0.901187	-0.465538
C88	C	1.408367	-0.401187	0.034462
C89	C	0.908396	-0.983737	-0.465543
C90	C	1.408396	-0.483737	0.034457
C91	C	1.048644	-0.777834	-0.336244
C92	C	1.548644	-0.277834	0.163756
C93	C	0.955099	-0.777514	-0.422428
C94	C	1.455099	-0.277514	0.077572
C95	C	1.185161	-0.451810	-0.386702
C96	C	1.685161	0.048190	0.113298
C97	C	1.263265	-0.455488	-0.389844
C98	C	1.763265	0.044512	0.110156
C99	C	0.994550	-0.451066	-0.562607
C100	C	1.494550	0.048934	-0.062607
C101	C	0.991427	-0.454427	-0.640710
C102	C	1.491427	0.045573	-0.140710
C103	C	1.001956	-0.237015	-0.379357
C104	C	1.501956	0.262985	0.120643
C105	C	1.001989	-0.149160	-0.379370
C106	C	1.501989	0.350840	0.120630
C107	C	1.034915	-0.407577	-0.679220
C108	C	1.534915	0.092423	-0.179220
C109	C	1.031972	-0.410731	-0.752606
C110	C	1.531972	0.089269	-0.252606
C111	C	0.985544	-0.460742	-0.787481
C112	C	1.485544	0.039258	-0.287481
C113	C	0.942052	-0.507595	-0.748966
C114	C	1.442052	-0.007595	-0.248966
C115	C	0.944992	-0.504435	-0.675581
C116	C	1.444992	-0.004435	-0.175581
C117	C	0.971927	-0.475381	-1.006763
C118	C	1.471927	0.024619	-0.506763
C119	C	0.968992	-0.478539	-1.080153
C120	C	1.468992	0.021461	-0.580153
C121	C	1.058911	-0.381674	-1.083788
C122	C	1.558911	0.118326	-0.583788
C123	C	1.061850	-0.378523	-1.010402
C124	C	1.561850	0.121477	-0.510402
C125	C	1.018355	-0.425372	-0.971893
C126	C	1.518355	0.074628	-0.471893
N127	N	0.982536	-0.463970	-0.862493
N128	N	1.482536	0.036030	-0.362493
N129	N	1.021360	-0.422140	-0.896882
N130	N	1.521360	0.077860	-0.396882
C131	C	1.009220	-0.435266	-0.196760
C132	C	1.509220	0.064734	0.303240
C133	C	1.012479	-0.431688	-0.118663
C134	C	1.512479	0.068312	0.381337
H135	H	0.399959	-0.557420	-0.476832
H136	H	0.899959	-0.057420	0.023168
O137	O	0.267924	-0.351954	-0.301361
O138	O	0.767924	0.148046	0.198639
C139	C	0.288613	-0.366924	-0.232009
C140	C	0.788613	0.133076	0.267991
H141	H	0.341954	-0.399728	-0.232622
H142	H	0.841954	0.100272	0.267378
H143	H	0.292370	-0.308581	-0.200697
H144	H	0.792370	0.191419	0.299303
H145	H	0.248246	-0.404565	-0.206630
H146	H	0.748246	0.095435	0.293370
H147	H	1.094322	-0.343531	-1.115150
H148	H	1.594322	0.156469	-0.615150
H149	H	1.086833	-1.141778	-0.301189
H150	H	1.586833	-0.641778	0.198811
O151	O	1.140933	-1.024692	-0.251381
O152	O	1.640933	-0.524692	0.248619
C153	C	1.184695	-1.076311	-0.293201
C154	C	1.684695	-0.576311	0.206799
H155	H	1.186864	-1.053998	-0.348713
H156	H	1.686864	-0.553998	0.151287
H157	H	1.239777	-1.078729	-0.269938
H158	H	1.739777	-0.578729	0.230062
H159	H	1.162832	-1.137945	-0.294770
H160	H	1.662832	-0.637945	0.205230
H161	H	1.099658	-0.337801	-0.982012
H162	H	1.599658	0.162199	-0.482012
O163	O	1.140848	-0.861962	-0.251194
O164	O	1.640848	-0.361962	0.248806
C165	C	1.128346	-0.878412	-0.180531
C166	C	1.628346	-0.378412	0.319469
H167	H	1.101409	-0.937035	-0.177968
H168	H	1.601409	-0.437035	0.322032
H169	H	1.180346	-0.882239	-0.151109
H170	H	1.680346	-0.382239	0.348891
H171	H	1.093176	-0.829266	-0.155377
H172	H	1.593176	-0.329266	0.344623
H173	H	0.597996	-0.519710	-0.444645
H174	H	1.097996	-0.019710	0.055355
O175	O	0.923826	-0.527138	-1.113920
O176	O	1.423826	-0.027138	-0.613920
C177	C	0.886078	-0.567826	-1.064197
C178	C	1.386078	-0.067826	-0.564197
H179	H	0.885748	-0.533085	-1.011792
H180	H	1.385748	-0.033085	-0.511792
H181	H	0.829863	-0.574560	-1.083173
H182	H	1.329863	-0.074560	-0.583173
H183	H	0.912098	-0.628734	-1.057417
H184	H	1.412098	-0.128734	-0.557417
H185	H	0.904247	-0.548311	-0.777367
H186	H	1.404247	-0.048311	-0.277367
O187	O	0.736650	-0.534570	-0.457152
O188	O	1.236650	-0.034570	0.042848
C189	C	0.780694	-0.585809	-0.418772
C190	C	1.280694	-0.085809	0.081228
H191	H	0.760781	-0.587177	-0.362535
H192	H	1.260781	-0.087177	0.137465
H193	H	0.780502	-0.647811	-0.444129
H194	H	1.280502	-0.147811	0.055871
H195	H	0.836413	-0.563875	-0.418616
H196	H	1.336413	-0.063875	0.081384
H197	H	1.086711	-0.744359	-0.301147
H198	H	1.586711	-0.244359	0.198853
H199	H	1.072724	-0.366855	-0.650831
H200	H	1.572724	0.133145	-0.150831
H201	H	0.936521	-0.513541	-0.975418
H202	H	1.436521	-0.013541	-0.475418
O203	O	1.074241	-0.365333	-0.790098
O204	O	1.574241	0.134667	-0.290098
C205	C	1.117917	-0.414294	-0.834365
C206	C	1.617917	0.085706	-0.334365
H207	H	1.092674	-0.473502	-0.844347
H208	H	1.592674	0.026498	-0.344347
H209	H	1.125267	-0.384761	-0.886355
H210	H	1.625267	0.115239	-0.386355
H211	H	1.171126	-0.424209	-0.808190
H212	H	1.671126	0.075791	-0.308190
H213	H	0.266818	-0.551169	-0.471504
H214	H	0.766818	-0.051169	0.028496
O215	O	0.863020	-0.860906	-0.507472
O216	O	1.363020	-0.360906	-0.007472
C217	C	0.901162	-0.816923	-0.554472
C218	C	1.401162	-0.316923	-0.054472
H219	H	0.956334	-0.844548	-0.561088
H220	H	1.456334	-0.344548	-0.061088
H221	H	0.873544	-0.817110	-0.607505
H222	H	1.373544	-0.317110	-0.107505
H223	H	0.904452	-0.753547	-0.532830
H224	H	1.404452	-0.253547	-0.032830
O225	O	0.902730	-0.550035	-0.638278
O226	O	1.402730	-0.050035	-0.138278
C227	C	0.861113	-0.594844	-0.684794
C228	C	1.361113	-0.094844	-0.184794
H229	H	0.887795	-0.601180	-0.738267
H230	H	1.387795	-0.101180	-0.238267
H231	H	0.854454	-0.655858	-0.663281
H232	H	1.354454	-0.155858	-0.163281
H233	H	0.807439	-0.563731	-0.690446
H234	H	1.307439	-0.063731	-0.190446
O235	O	0.412555	-0.358629	-0.307340
O236	O	0.912555	0.141371	0.192660
C237	C	0.453435	-0.311377	-0.349122
C238	C	0.953435	0.188623	0.150878
H239	H	0.429118	-0.307933	-0.403587
H240	H	0.929118	0.192067	0.096413
H241	H	0.455291	-0.249453	-0.323832
H242	H	0.955291	0.250547	0.176168
H243	H	0.508952	-0.338532	-0.353734
H244	H	1.008952	0.161468	0.146266
H245	H	0.870326	-1.017223	-0.500634
H246	H	1.370326	-0.517223	-0.000634
H247	H	0.604506	-0.328988	-0.281870
H248	H	1.104506	0.171012	0.218130
H249	H	0.737648	-0.335231	-0.287197
H250	H	1.237648	0.164769	0.212803
O251	O	0.909749	-0.737241	-0.464365
O252	O	1.409749	-0.237241	0.035635
C253	C	0.947887	-0.693260	-0.511371
C254	C	1.447887	-0.193260	-0.011371
H255	H	1.003061	-0.720879	-0.517984
H256	H	1.503061	-0.220879	-0.017984
H257	H	0.920269	-0.693457	-0.564404
H258	H	1.420269	-0.193457	-0.064404
H259	H	0.951171	-0.629880	-0.489736
H260	H	1.451171	-0.129880	0.010264
H261	H	0.917137	-1.141209	-0.457553
H262	H	1.417137	-0.641209	0.042447
