data_functionalizedCrystal
_audit_creation_method	'MofGen! by Chris Wilmer'
_symmetry_space_group_name_H-M	'P1'
_symmetry_Int_Tables_number	1
_symmetry_cell_setting	triclinic
loop_
_symmetry_equiv_pos_as_xyz
  x,y,z
_cell_length_a	11.792254
_cell_length_b	9.482900
_cell_length_c	11.026607
_cell_angle_alpha	101.386141
_cell_angle_beta	83.607693
_cell_angle_gamma	99.375122
loop_
_atom_site_label
_atom_site_type_symbol
_atom_site_fract_x
_atom_site_fract_y
_atom_site_fract_z
O1	O	-1.526100	0.120934	0.185500
O2	O	-1.192766	0.454267	0.518834
O3	O	-0.859433	0.787601	0.852167
O4	O	-1.199166	0.120928	0.202648
O5	O	-0.865833	0.454261	0.535981
O6	O	-0.532500	0.787594	0.869315
O7	O	-1.335538	0.120925	0.017241
O8	O	-1.002204	0.454258	0.350574
O9	O	-0.668871	0.787592	0.683907
O10	O	-1.389728	0.120937	0.370908
O11	O	-1.056395	0.454270	0.704241
O12	O	-0.723062	0.787603	1.037574
O13	O	-1.363285	-0.120868	-0.020503
O14	O	-1.029952	0.212465	0.312831
O15	O	-0.696619	0.545799	0.646164
O16	O	-1.226914	-0.120865	0.164905
O17	O	-0.893581	0.212468	0.498238
O18	O	-0.560247	0.545801	0.831572
O19	O	-1.553847	-0.120859	0.147757
O20	O	-1.220514	0.212474	0.481090
O21	O	-0.887181	0.545808	0.814424
Cu22	Cu	-1.392914	-0.142940	0.152885
Cu23	Cu	-1.059581	0.190394	0.486218
Cu24	Cu	-0.726248	0.523727	0.819551
Cu25	Cu	-1.360099	0.143008	0.197520
Cu26	Cu	-1.026766	0.476342	0.530854
Cu27	Cu	-0.693433	0.809675	0.864187
O28	O	-1.417476	-0.120856	0.333164
O29	O	-1.084143	0.212477	0.666498
O30	O	-0.750809	0.545810	0.999831
C31	C	-1.170535	0.000030	0.182696
C32	C	-0.837202	0.333364	0.516029
C33	C	-0.503868	0.666697	0.849363
C34	C	-1.043880	0.000028	0.179462
C35	C	-0.710547	0.333361	0.512796
C36	C	-0.377214	0.666695	0.846129
N37	N	-1.337018	0.344129	0.228906
N38	N	-1.003685	0.677462	0.562239
N39	N	-0.670351	1.010796	0.895573
C40	C	-1.339414	0.000030	-0.046908
C41	C	-1.006081	0.333363	0.286425
C42	C	-0.672747	0.666697	0.619759
C43	C	-1.309610	0.000035	-0.181819
C44	C	-0.976277	0.333368	0.151515
C45	C	-0.642944	0.666701	0.484848
C46	C	-0.941022	0.000031	0.176836
C47	C	-0.607688	0.333364	0.510169
C48	C	-0.274355	0.666698	0.843502
C49	C	-0.811983	0.000028	0.173550
C50	C	-0.478650	0.333362	0.506883
C51	C	-0.145316	0.666695	0.840217
C52	C	-0.582479	0.000035	0.167708
C53	C	-0.249146	0.333368	0.501042
C54	C	0.084188	0.666701	0.834375
C55	C	-0.709135	0.000026	0.170940
C56	C	-0.375802	0.333359	0.504274
C57	C	-0.042468	0.666692	0.837607
N58	N	-1.416003	-0.344060	0.121490
N59	N	-1.082669	-0.010727	0.454823
N60	N	-0.749336	0.322606	0.788156
C61	C	-1.386114	0.416327	0.162150
C62	C	-1.052781	0.749661	0.495484
C63	C	-0.719447	1.082994	0.828817
C64	C	-1.366899	0.583745	0.188255
C65	C	-1.033566	0.917078	0.521588
C66	C	-0.700233	1.250412	0.854922
C67	C	-1.391901	0.000038	-0.255078
C68	C	-1.058567	0.333372	0.078255
C69	C	-0.725234	0.666705	0.411588
C70	C	-1.361099	0.000043	-0.394516
C71	C	-1.027766	0.333376	-0.061183
C72	C	-0.694433	0.666710	0.272151
C73	C	-1.413599	0.000042	0.397313
C74	C	-1.080266	0.333375	0.730647
C75	C	-0.746933	0.666708	1.063980
C76	C	-1.443402	0.000047	0.532226
C77	C	-1.110068	0.333380	0.865559
C78	C	-0.776735	0.666713	1.198892
H79	H	-1.442378	0.354198	0.085677
H80	H	-1.109044	0.687531	0.419010
H81	H	-0.775711	1.020865	0.752343
H82	H	-1.485156	0.000031	-0.214570
H83	H	-1.151822	0.333365	0.118763
H84	H	-0.818489	0.666698	0.452097
H85	H	-1.267838	0.000051	-0.435019
H86	H	-0.934505	0.333384	-0.101686
H87	H	-0.601171	0.666717	0.231648
Cl88	Cl	-1.165627	0.000047	-0.244349
Cl89	Cl	-0.832293	0.333380	0.088984
Cl90	Cl	-0.498960	0.666713	0.422318
Cl91	Cl	-1.280042	0.679655	0.306345
Cl92	Cl	-0.946709	1.012988	0.639679
Cl93	Cl	-0.613375	1.346322	0.973012
Cl94	Cl	-1.250164	0.440045	0.346991
Cl95	Cl	-0.916831	0.773378	0.680325
Cl96	Cl	-0.583498	1.106711	1.013658
Cl97	Cl	-1.502874	0.560030	0.003412
Cl98	Cl	-1.169541	0.893363	0.336745
Cl99	Cl	-0.836208	1.226696	0.670079
H100	H	-1.536650	0.000158	-0.427255
H101	H	-1.203316	0.333491	-0.093921
H102	H	-0.869983	0.666824	0.239412
