data_functionalizedCrystal
_audit_creation_method	'MofGen! by Chris Wilmer'
_symmetry_space_group_name_H-M	'P1'
_symmetry_Int_Tables_number	1
_symmetry_cell_setting	triclinic
loop_
_symmetry_equiv_pos_as_xyz
  x,y,z
_cell_length_a	14.971486
_cell_length_b	6.394989
_cell_length_c	14.048226
_cell_angle_alpha	90.003392
_cell_angle_beta	89.998499
_cell_angle_gamma	94.944080
loop_
_atom_site_label
_atom_site_type_symbol
_atom_site_fract_x
_atom_site_fract_y
_atom_site_fract_z
O1	O	1.189891	-0.272212	-0.079045
O2	O	0.929843	-0.304810	-0.079070
O3	O	1.063558	0.015544	-0.079058
O4	O	1.056176	-0.592566	-0.079057
O5	O	1.063542	0.015563	0.079264
O6	O	0.929827	-0.304791	0.079252
O7	O	1.189874	-0.272193	0.079277
Zn8	Zn	1.059848	-0.288489	0.104401
Zn9	Zn	1.059870	-0.288514	-0.104194
O10	O	1.056159	-0.592547	0.079264
C11	C	0.896494	-0.303343	0.000088
C12	C	0.797150	-0.298974	0.000078
C13	C	0.741960	-0.487173	0.000079
C14	C	0.648616	-0.483056	0.000093
C15	C	0.610464	-0.290737	0.000099
C16	C	0.665661	-0.102524	0.000101
C17	C	0.759003	-0.106643	0.000093
C18	C	0.471106	-0.093951	0.000114
C19	C	0.377757	-0.089830	0.000119
C20	C	0.360719	-0.470364	0.000114
C21	C	0.454061	-0.474483	0.000107
C22	C	0.509252	-0.286268	0.000106
C23	C	1.223223	-0.273661	0.000117
C24	C	1.322567	-0.278029	0.000121
C25	C	1.062090	0.093378	0.000099
C26	C	1.057629	0.329624	0.000098
N27	N	1.059839	-0.288471	0.246762
N28	N	1.059885	-0.288516	-0.246555
C29	C	1.119068	-0.146677	0.296585
C30	C	1.119074	-0.146676	0.396243
C31	C	1.059855	-0.288480	0.446075
C32	C	1.000620	-0.430281	0.396245
C33	C	1.000610	-0.430271	0.296589
C34	C	1.000646	-0.430296	0.603959
C35	C	1.000656	-0.430310	0.703622
C36	C	1.119110	-0.146701	0.703613
C37	C	1.119100	-0.146691	0.603957
C38	C	1.059866	-0.288495	0.554134
H39	H	0.634590	0.054066	0.000119
O40	O	1.176657	-0.008746	0.555696
C41	C	1.294183	0.272473	0.566198
C42	C	1.229035	0.116392	0.620972
H43	H	1.336561	0.373659	0.618949
H44	H	1.254430	0.377119	0.519578
H45	H	1.339833	0.182071	0.519503
H46	H	1.183371	0.206623	0.667718
H47	H	1.268843	0.011748	0.667531
O48	O	0.340594	0.096860	0.000262
C49	C	0.245145	0.322385	0.082338
C50	C	0.287154	0.110863	0.082281
H51	H	0.201944	0.333794	0.148653
H52	H	0.201809	0.333876	0.016129
H53	H	0.300642	0.456156	0.082299
H54	H	0.231716	-0.023029	0.082353
H55	H	0.330510	0.099555	0.148483
O56	O	0.307021	-0.653065	-0.000010
C57	C	0.191784	-0.869325	-0.082062
C58	C	0.252531	-0.662327	-0.082020
H59	H	0.147726	-0.876902	-0.148369
H60	H	0.147599	-0.876955	-0.015846
H61	H	0.235107	-1.007446	-0.082029
H62	H	0.209277	-0.524090	-0.082087
H63	H	0.296721	-0.654881	-0.148230
H64	H	0.773016	-0.643782	0.000074
O65	O	0.524684	0.088933	-0.000060
C66	C	0.567771	0.412942	-0.082068
C67	C	0.507056	0.205894	-0.081992
H68	H	0.553527	0.507583	-0.148293
H69	H	0.641053	0.377082	-0.082136
H70	H	0.553635	0.507509	-0.015781
H71	H	0.521113	0.111225	-0.148267
H72	H	0.433793	0.241901	-0.081874
H73	H	0.952398	-0.545734	0.436824
H74	H	0.803939	0.046608	0.000091
H75	H	1.167302	-0.031215	0.436809
O76	O	0.595046	-0.665934	-0.000078
C77	C	0.551963	-0.989972	-0.082079
C78	C	0.612666	-0.782908	-0.082016
H79	H	0.566200	-1.084623	-0.148308
H80	H	0.478677	-0.954137	-0.082129
H81	H	0.566116	-1.084518	-0.015797
H82	H	0.598592	-0.688260	-0.148286
H83	H	0.685932	-0.818890	-0.081916
H84	H	0.485121	-0.631086	0.000093
H85	H	0.952433	-0.545780	0.744190
O86	O	1.176626	-0.008724	0.248330
C87	C	1.294149	0.272500	0.258851
C88	C	1.228998	0.116406	0.313614
H89	H	1.336521	0.373679	0.311610
H90	H	1.254398	0.377151	0.212232
H91	H	1.339803	0.182110	0.212158
H92	H	1.183328	0.206625	0.360359
H93	H	1.268804	0.011756	0.360174
H94	H	1.167340	-0.031240	0.744185
O95	O	0.943077	-0.568250	0.555707
C96	C	0.825561	-0.849489	0.566226
C97	C	0.890717	-0.693399	0.620991
H98	H	0.783199	-0.950683	0.618984
H99	H	0.865307	-0.954125	0.519587
H100	H	0.779897	-0.759094	0.519553
H101	H	0.936396	-0.783623	0.667715
H102	H	0.850916	-0.588764	0.667570
O103	O	0.943046	-0.568217	0.248335
C104	C	0.825522	-0.849435	0.258854
C105	C	0.890685	-0.693362	0.313619
H106	H	0.783158	-0.950625	0.311613
H107	H	0.865262	-0.954076	0.212212
H108	H	0.779860	-0.759027	0.212185
H109	H	0.936361	-0.783598	0.360340
H110	H	0.850889	-0.588721	0.360201
