data_functionalizedCrystal
_audit_creation_method	'MofGen! by Chris Wilmer'
_symmetry_space_group_name_H-M	'P1'
_symmetry_Int_Tables_number	1
_symmetry_cell_setting	triclinic
loop_
_symmetry_equiv_pos_as_xyz
  x,y,z
_cell_length_a	19.188930
_cell_length_b	18.266242
_cell_length_c	19.188940
_cell_angle_alpha	89.993204
_cell_angle_beta	96.853253
_cell_angle_gamma	90.022918
loop_
_atom_site_label
_atom_site_type_symbol
_atom_site_fract_x
_atom_site_fract_y
_atom_site_fract_z
O1	O	0.926152	0.061117	-0.087168
O2	O	1.259486	0.394450	0.246165
O3	O	1.592819	0.727784	0.579498
O4	O	0.722841	0.061067	-0.098903
O5	O	1.056175	0.394400	0.234431
O6	O	1.389508	0.727734	0.567764
O7	O	0.830360	0.061088	0.008620
O8	O	1.163694	0.394421	0.341953
O9	O	1.497027	0.727754	0.675286
O10	O	0.818633	0.061096	-0.194691
O11	O	1.151967	0.394429	0.138643
O12	O	1.485300	0.727763	0.471976
O13	O	0.830342	-0.060674	0.008625
O14	O	1.163676	0.272659	0.341959
O15	O	1.497009	0.605992	0.675292
O16	O	0.722823	-0.060695	-0.098897
O17	O	1.056157	0.272638	0.234436
O18	O	1.389490	0.605972	0.567770
O19	O	0.926134	-0.060645	-0.087163
O20	O	1.259467	0.272688	0.246171
O21	O	1.592801	0.606022	0.579504
Zn22	Zn	0.824476	-0.080002	-0.093029
Zn23	Zn	1.157809	0.253331	0.240304
Zn24	Zn	1.491142	0.586664	0.573638
Zn25	Zn	0.824500	0.080424	-0.093036
Zn26	Zn	1.157833	0.413758	0.240297
Zn27	Zn	1.491166	0.747091	0.573630
O28	O	0.818615	-0.060666	-0.194685
O29	O	1.151948	0.272667	0.138648
O30	O	1.485282	0.606001	0.471982
C31	C	0.696821	0.000179	-0.098520
C32	C	1.030155	0.333513	0.234814
C33	C	1.363488	0.666846	0.568147
C34	C	0.619317	0.000160	-0.097379
C35	C	0.952650	0.333494	0.235954
C36	C	1.285983	0.666827	0.569288
N37	N	0.824465	-0.189489	-0.093024
N38	N	1.157798	0.143844	0.240310
N39	N	1.491131	0.477177	0.573643
C40	C	0.574395	0.000174	-0.160470
C41	C	0.907728	0.333508	0.172864
C42	C	1.241062	0.666841	0.506197
C43	C	0.501571	0.000182	-0.159398
C44	C	0.834905	0.333516	0.173935
C45	C	1.168238	0.666849	0.507269
C46	C	0.473672	0.000191	-0.095232
C47	C	0.807006	0.333524	0.238101
C48	C	1.140339	0.666858	0.571435
C49	C	0.518604	0.000173	-0.032133
C50	C	0.851937	0.333506	0.301200
C51	C	1.185271	0.666839	0.634533
C52	C	0.591426	0.000157	-0.033207
C53	C	0.924760	0.333491	0.300127
C54	C	1.258093	0.666824	0.633460
N55	N	0.365697	0.041659	-0.046187
N56	N	0.699030	0.374993	0.287146
N57	N	1.032363	0.708326	0.620479
N58	N	0.296518	0.041675	-0.045172
N59	N	0.629851	0.375009	0.288161
N60	N	0.963185	0.708342	0.621495
C61	C	0.254264	0.000236	-0.091994
C62	C	0.587597	0.333569	0.241339
C63	C	0.920930	0.666902	0.574673
N64	N	0.283800	-0.041212	-0.139881
N65	N	0.617133	0.292121	0.193453
N66	N	0.950466	0.625455	0.526786
N67	N	0.352985	-0.041225	-0.140898
N68	N	0.686318	0.292109	0.192435
N69	N	1.019651	0.625442	0.525768
C70	C	0.394710	0.000207	-0.094061
C71	C	0.728043	0.333540	0.239272
C72	C	1.061376	0.666874	0.572606
C73	C	0.130377	0.000257	-0.153927
C74	C	0.463711	0.333591	0.179406
C75	C	0.797044	0.666924	0.512740
C76	C	0.057553	0.000261	-0.152853
C77	C	0.390886	0.333594	0.180481
C78	C	0.724219	0.666927	0.513814
C79	C	0.074587	0.000259	-0.025586
C80	C	0.407920	0.333592	0.307747
C81	C	0.741254	0.666925	0.641080
C82	C	0.147410	0.000248	-0.026662
C83	C	0.480744	0.333581	0.306671
C84	C	0.814077	0.666914	0.640004
C85	C	0.175301	0.000251	-0.090835
C86	C	0.508634	0.333584	0.242499
C87	C	0.841967	0.666917	0.575832
C88	C	0.872090	-0.227789	-0.045436
C89	C	1.205423	0.105544	0.287897
C90	C	1.538756	0.438878	0.621231
C91	C	0.872094	-0.304434	-0.045433
C92	C	1.205427	0.028899	0.287901
C93	C	1.538761	0.362233	0.621234
C94	C	0.824480	-0.342776	-0.093029
C95	C	1.157813	-0.009443	0.240304
C96	C	1.491147	0.323890	0.573637
C97	C	0.776846	-0.304467	-0.140620
C98	C	1.110180	0.028866	0.192713
C99	C	1.443513	0.362199	0.526046
C100	C	0.776838	-0.227824	-0.140618
C101	C	1.110172	0.105509	0.192716
C102	C	1.443505	0.438843	0.526049
N103	N	0.815407	-0.463107	-0.154836
N104	N	1.148740	-0.129774	0.178497
N105	N	1.482073	0.203559	0.511830
N106	N	0.815418	-0.535916	-0.154837
N107	N	1.148752	-0.202582	0.178497
N108	N	1.482085	0.130751	0.511830
C109	C	0.824500	-0.573699	-0.093039
C110	C	1.157833	-0.240365	0.240294
C111	C	1.491166	0.092968	0.573627
N112	N	0.833583	-0.535923	-0.031239
N113	N	1.166916	-0.202590	0.302094
N114	N	1.500250	0.130744	0.635427
N115	N	0.833575	-0.463108	-0.031240
N116	N	1.166908	-0.129775	0.302094
N117	N	1.500242	0.203558	0.635427
C118	C	0.824483	-0.425883	-0.093037
C119	C	1.157816	-0.092550	0.240296
C120	C	1.491150	0.240783	0.573630
C121	C	0.872132	-0.695105	-0.045444
C122	C	1.205465	-0.361772	0.287889
C123	C	1.538799	-0.028439	0.621222
C124	C	0.872132	-0.771752	-0.045440
C125	C	1.205465	-0.438418	0.287893
C126	C	1.538798	-0.105085	0.621227
C127	C	0.776887	-0.771784	-0.140634
C128	C	1.110221	-0.438450	0.192700
C129	C	1.443554	-0.105117	0.526033
C130	C	0.776884	-0.695139	-0.140632
C131	C	1.110218	-0.361806	0.192701
C132	C	1.443551	-0.028472	0.526035
C133	C	0.824510	-0.656804	-0.093038
C134	C	1.157844	-0.323471	0.240295
C135	C	1.491177	0.009862	0.573629
C136	C	0.952154	0.000244	-0.087546
C137	C	1.285488	0.333577	0.245788
C138	C	1.618821	0.666911	0.579121
C139	C	1.029659	0.000268	-0.088686
C140	C	1.362992	0.333601	0.244647
C141	C	1.696325	0.666935	0.577980
C142	C	0.829970	0.000207	0.034633
C143	C	1.163304	0.333540	0.367967
C144	C	1.496637	0.666873	0.701300
C145	C	0.828827	0.000207	0.112138
C146	C	1.162160	0.333540	0.445471
C147	C	1.495494	0.666874	0.778804
N148	N	0.824517	0.189911	-0.093036
N149	N	1.157850	0.523245	0.240297
N150	N	1.491183	0.856578	0.573631
C151	C	0.819005	0.000217	-0.220699
C152	C	1.152338	0.333550	0.112635
C153	C	1.485672	0.666883	0.445968
C154	C	0.820148	0.000221	-0.298203
C155	C	1.153482	0.333555	0.035130
C156	C	1.486815	0.666888	0.368464
C157	C	0.820683	-0.066150	0.665400
C158	C	1.154016	0.267183	0.998733
C159	C	1.487349	0.600516	1.332067
C160	C	0.821749	-0.066154	0.592575
C161	C	1.155083	0.267179	0.925909
C162	C	1.488416	0.600513	1.259242
C163	C	0.822296	0.000218	0.556153
C164	C	1.155629	0.333551	0.889486
C165	C	1.488963	0.666884	1.222820
C166	C	0.821758	0.066598	0.592558
C167	C	1.155091	0.399931	0.925892
C168	C	1.488424	0.733265	1.259225
C169	C	0.820684	0.066600	0.665380
C170	C	1.154017	0.399933	0.998714
C171	C	1.487351	0.733267	1.332047
N172	N	0.863719	0.049630	0.447127
N173	N	1.197053	0.382963	0.780460
N174	N	1.530386	0.716296	1.113793
N175	N	0.864741	0.049623	0.377949
N176	N	1.198074	0.382957	0.711282
N177	N	1.531408	0.716290	1.044616
C178	C	0.825530	0.000216	0.336744
C179	C	1.158863	0.333549	0.670077
C180	C	1.492196	0.666883	1.003410
N181	N	0.785267	-0.049196	0.367331
N182	N	1.118600	0.284137	0.700664
N183	N	1.451933	0.617471	1.033997
N184	N	0.784248	-0.049192	0.436515
N185	N	1.117582	0.284141	0.769849
N186	N	1.450915	0.617475	1.103182
C187	C	0.823460	0.000223	0.477189
C188	C	1.156793	0.333556	0.810523
C189	C	1.490126	0.666890	1.143856
C190	C	0.827219	-0.066164	0.221382
C191	C	1.160553	0.267169	0.554715
C192	C	1.493886	0.600502	0.888048
C193	C	0.828282	-0.066166	0.148555
C194	C	1.161615	0.267168	0.481889
C195	C	1.494948	0.600501	0.815222
C196	C	0.828297	0.066589	0.148541
C197	C	1.161631	0.399922	0.481874
C198	C	1.494964	0.733255	0.815207
C199	C	0.827228	0.066588	0.221365
C200	C	1.160561	0.399921	0.554698
C201	C	1.493894	0.733254	0.888031
C202	C	0.826692	0.000209	0.257781
C203	C	1.160026	0.333542	0.591115
C204	C	1.493359	0.666876	0.924448
H205	H	0.597098	0.000178	-0.212724
H206	H	0.930432	0.333511	0.120610
H207	H	1.263765	0.666845	0.453943
F208	F	0.726148	-0.187061	-0.191269
F209	F	1.059481	0.146272	0.142064
F210	F	1.392814	0.479606	0.475397
F211	F	0.044900	0.000261	0.042704
F212	F	0.378233	0.333594	0.376038
F213	F	0.711567	0.666927	0.709371
F214	F	0.639237	0.000142	0.033946
F215	F	0.972571	0.333476	0.367279
F216	F	1.305904	0.666809	0.700613
F217	F	0.822323	-0.136799	0.553831
F218	F	1.155656	0.196535	0.887165
F219	F	1.488990	0.529868	1.220498
H220	H	0.738106	-0.663953	-0.179385
H221	H	1.071440	-0.330620	0.153948
H222	H	1.404773	0.002713	0.487282
H223	H	0.020977	0.000268	-0.204231
H224	H	0.354311	0.333601	0.129103
H225	H	0.687644	0.666935	0.462436
H226	H	0.910868	-0.196579	-0.006681
H227	H	1.244201	0.136754	0.326653
H228	H	1.577535	0.470088	0.659986
H229	H	0.910910	-0.663892	-0.006688
H230	H	1.244244	-0.330559	0.326645
H231	H	1.577577	0.002775	0.659979
F232	F	0.488911	0.000178	0.036156
F233	F	0.822245	0.333512	0.369490
F234	F	1.155578	0.666845	0.702823
F235	F	0.922819	-0.812515	0.005215
F236	F	1.256152	-0.479181	0.338549
F237	F	1.589486	-0.145848	0.671882
H238	H	0.910877	-0.335623	-0.006680
H239	H	1.244211	-0.002290	0.326654
H240	H	1.577544	0.331044	0.659987
H241	H	0.183987	0.000240	0.024713
H242	H	0.517320	0.333574	0.358046
H243	H	0.850653	0.666907	0.691380
F244	F	0.826665	0.137231	0.260104
F245	F	1.159998	0.470564	0.593437
F246	F	1.493331	0.803897	0.926770
H247	H	0.828734	0.120630	0.118885
H248	H	1.162067	0.453963	0.452218
H249	H	1.495401	0.787296	0.785552
H250	H	0.820246	-0.120201	0.695046
H251	H	1.153579	0.213132	1.028379
H252	H	1.486912	0.546466	1.361712
F253	F	0.453753	0.000195	-0.226550
F254	F	0.787087	0.333529	0.106783
F255	F	1.120420	0.666862	0.440116
F256	F	0.726209	-0.812587	-0.191285
F257	F	1.059542	-0.479254	0.142048
F258	F	1.392875	-0.145920	0.475382
F259	F	0.160063	0.000255	-0.222224
F260	F	0.493396	0.333588	0.111110
F261	F	0.826730	0.666921	0.444443
F262	F	0.726170	-0.345274	-0.191274
F263	F	1.059503	-0.011941	0.142060
F264	F	1.392836	0.321392	0.475393
H265	H	0.822200	0.120638	0.562898
H266	H	1.155533	0.453972	0.896231
H267	H	1.488867	0.787305	1.229565
F268	F	0.820116	0.137245	0.704118
F269	F	1.153449	0.470578	1.037452
F270	F	1.486783	0.803912	1.370785
F271	F	0.826646	-0.136809	0.260141
F272	F	1.159980	0.196524	0.593474
F273	F	1.493313	0.529857	0.926808
H274	H	0.828715	-0.120216	0.118922
H275	H	1.162048	0.213118	0.452255
H276	H	1.495382	0.546451	0.785588
