data_functionalizedCrystal
_audit_creation_method	'MofGen! by Chris Wilmer'
_symmetry_space_group_name_H-M	'P1'
_symmetry_Int_Tables_number	1
_symmetry_cell_setting	triclinic
loop_
_symmetry_equiv_pos_as_xyz
  x,y,z
_cell_length_a	19.376997
_cell_length_b	27.440280
_cell_length_c	27.440280
_cell_angle_alpha	89.992545
_cell_angle_beta	111.037564
_cell_angle_gamma	68.963118
loop_
_atom_site_label
_atom_site_type_symbol
_atom_site_fract_x
_atom_site_fract_y
_atom_site_fract_z
Zr1	Zr	0.619875	0.579081	-0.045679
Zr2	Zr	1.119875	1.079081	0.454321
O3	O	0.738050	0.522146	0.011259
O4	O	1.238050	1.022146	0.511259
O5	O	0.501713	0.582050	-0.048649
O6	O	1.001713	1.082050	0.451351
O7	O	0.619880	0.602929	0.032136
O8	O	1.119880	1.102929	0.532136
O9	O	0.619875	0.501274	-0.149726
O10	O	1.119875	1.001274	0.350274
O11	O	0.619869	0.683130	0.032127
O12	O	1.119869	1.183130	0.532127
O13	O	0.619883	0.501266	-0.069526
O14	O	1.119883	1.001266	0.430474
O15	O	0.408490	0.645781	-0.112382
O16	O	0.908490	1.145781	0.387618
O17	O	0.831254	0.538623	-0.005216
O18	O	1.331254	1.038623	0.494784
O19	O	0.550302	0.660670	-0.067421
O20	O	1.050302	1.160670	0.432579
O21	O	0.550304	0.600822	-0.127268
O22	O	1.050304	1.100822	0.372732
O23	O	0.689430	0.625405	-0.032154
O24	O	1.189430	1.125405	0.467846
O25	O	0.689432	0.565557	-0.092000
O26	O	1.189432	1.065557	0.408000
Zr27	Zr	0.619844	0.707004	-0.173602
Zr28	Zr	1.119844	1.207004	0.326398
Zr29	Zr	0.619858	0.706992	-0.045691
Zr30	Zr	1.119858	1.206992	0.454309
Zr31	Zr	0.619862	0.579093	-0.173589
Zr32	Zr	1.119862	1.079093	0.326411
Zr33	Zr	0.768524	0.605361	-0.071955
Zr34	Zr	1.268524	1.105361	0.428045
Zr35	Zr	0.471195	0.680724	-0.147325
Zr36	Zr	0.971195	1.180724	0.352675
O37	O	0.738006	0.704035	-0.170631
O38	O	1.238006	1.204035	0.329369
O39	O	0.738026	0.704019	0.011241
O40	O	1.238026	1.204019	0.511241
O41	O	0.738031	0.522162	-0.170612
O42	O	1.238031	1.022162	0.329388
O43	O	0.501669	0.763939	-0.230539
O44	O	1.001669	1.263939	0.269461
O45	O	0.501689	0.763923	-0.048668
O46	O	1.001689	1.263923	0.451332
O47	O	0.501694	0.582066	-0.230521
O48	O	1.001694	1.082066	0.269479
O49	O	0.619845	0.784812	-0.069554
O50	O	1.119845	1.284812	0.430446
O51	O	0.619839	0.683156	-0.251416
O52	O	1.119839	1.183156	0.248584
O53	O	0.619850	0.602955	-0.251408
O54	O	1.119850	1.102955	0.248592
O55	O	0.619836	0.784819	-0.149755
O56	O	1.119836	1.284819	0.350245
O57	O	0.831240	0.640295	-0.005227
O58	O	1.331240	1.140295	0.494773
O59	O	0.408479	0.645790	-0.214053
O60	O	0.908479	1.145790	0.285947
O61	O	0.408465	0.747462	-0.214064
O62	O	0.908465	1.247462	0.285936
O63	O	0.408476	0.747453	-0.112392
O64	O	0.908476	1.247453	0.387608
O65	O	0.831243	0.538632	-0.106888
O66	O	1.331243	1.038632	0.393112
O67	O	0.831229	0.640305	-0.106898
O68	O	1.331229	1.140305	0.393102
O69	O	0.550289	0.660680	-0.187126
O70	O	1.050289	1.160680	0.312874
O71	O	0.550288	0.720528	-0.127280
O72	O	1.050288	1.220528	0.372720
O73	O	0.689416	0.685263	-0.092012
O74	O	1.189416	1.185263	0.407988
O75	O	0.689418	0.625416	-0.151859
O76	O	1.189418	1.125416	0.348141
C77	C	0.433922	0.610171	-0.076772
C78	C	0.933922	1.110171	0.423228
C79	C	0.370817	0.599015	-0.065617
C80	C	0.870817	1.099015	0.434383
C81	C	0.333226	0.548183	-0.014785
C82	C	0.833226	1.048183	0.485215
C83	C	0.392517	0.558670	-0.025271
C84	C	0.892517	1.058670	0.474729
C85	C	0.289810	0.628890	-0.095490
C86	C	0.789810	1.128890	0.404510
C87	C	0.230509	0.618411	-0.085008
C88	C	0.730509	1.118411	0.414992
C89	C	0.252224	0.578056	-0.044655
C90	C	0.752224	1.078056	0.455345
C91	C	0.149507	0.648284	-0.114879
C92	C	0.649507	1.148284	0.385121
C93	C	0.090211	0.637804	-0.104399
C94	C	0.590211	1.137804	0.395601
C95	C	0.111918	0.597450	-0.064049
C96	C	0.611918	1.097450	0.435951
C97	C	0.192928	0.567576	-0.034175
C98	C	0.692928	1.067576	0.465825
C99	C	0.127794	0.688636	-0.155234
C100	C	0.627794	1.188636	0.344766
C101	C	0.046792	0.718509	-0.185105
C102	C	0.546792	1.218509	0.314895
C103	C	-0.012506	0.708032	-0.174623
C104	C	0.487494	1.208032	0.325377
C105	C	0.009201	0.667678	-0.134273
C106	C	0.509201	1.167678	0.365727
C107	C	-0.093516	0.737906	-0.204496
C108	C	0.406484	1.237906	0.295504
C109	C	-0.152812	0.727425	-0.194017
C110	C	0.347188	1.227425	0.305983
C111	C	-0.050095	0.657197	-0.123793
C112	C	0.449905	1.157197	0.376207
C113	C	0.619882	0.483045	-0.109624
C114	C	1.119882	0.983045	0.390376
C115	C	0.619889	0.428744	-0.109618
C116	C	1.119889	0.928744	0.390382
C117	C	0.547223	0.110446	-0.128063
C118	C	1.047223	0.610446	0.371937
C119	C	0.547219	0.059427	-0.128068
C120	C	1.047219	0.559427	0.371932
O121	O	0.485455	0.048694	-0.143742
O122	O	0.985455	0.548694	0.356258
N123	N	0.619841	0.015502	-0.109658
N124	N	1.119841	0.515502	0.390342
C125	C	0.692473	0.022598	-0.091247
C126	C	1.192473	0.522598	0.408753
O127	O	0.754244	-0.019448	-0.075589
O128	O	1.254244	0.480552	0.424411
C129	C	0.692477	0.073617	-0.091246
C130	C	1.192477	0.573617	0.408754
C131	C	0.619849	0.117540	-0.109653
C132	C	1.119849	0.617540	0.390347
C133	C	0.474602	0.154368	-0.146469
C134	C	0.974602	0.654368	0.353531
C135	C	0.474606	0.205384	-0.146463
C136	C	0.974606	0.705384	0.353537
C137	C	0.547233	0.212478	-0.128052
C138	C	1.047233	0.712478	0.371948
C139	C	0.619854	0.168556	-0.109647
C140	C	1.119854	0.668556	0.390353
C141	C	0.765108	0.080712	-0.072840
C142	C	1.265108	0.580712	0.427160
C143	C	0.765105	0.131736	-0.072841
C144	C	1.265105	0.631736	0.427159
C145	C	0.692478	0.175659	-0.091247
C146	C	1.192478	0.675659	0.408753
C147	C	0.692485	0.226665	-0.091231
C148	C	1.192485	0.726665	0.408769
N149	N	0.619862	0.270590	-0.109641
N150	N	1.119862	0.770590	0.390359
C151	C	0.547236	0.263496	-0.128052
C152	C	1.047236	0.763496	0.371948
C153	C	0.692460	-0.084542	-0.091251
C154	C	1.192460	0.415458	0.408749
C155	C	0.692457	-0.135560	-0.091248
C156	C	1.192457	0.364440	0.408752
C157	C	0.547203	-0.098728	-0.128070
C158	C	1.047203	0.401272	0.371930
C159	C	0.547206	-0.047710	-0.128069
C160	C	1.047206	0.452290	0.371931
C161	C	0.619837	-0.040618	-0.109661
C162	C	1.119837	0.459382	0.390339
C163	C	0.547252	0.370631	-0.128038
C164	C	1.047252	0.870631	0.371962
C165	C	0.547263	0.421650	-0.128029
C166	C	1.047263	0.921650	0.371971
C167	C	0.692517	0.384813	-0.091210
C168	C	1.192517	0.884813	0.408790
C169	C	0.692506	0.333799	-0.091217
C170	C	1.192506	0.833799	0.408783
C171	C	0.619867	0.326711	-0.109634
C172	C	1.119867	0.826711	0.390366
O173	O	0.754217	0.237439	-0.075566
O174	O	1.254217	0.737439	0.424434
O175	O	0.485476	0.305546	-0.143714
O176	O	0.985476	0.805546	0.356286
C177	C	0.805797	0.675914	-0.142508
C178	C	1.305797	1.175914	0.357492
C179	C	0.868903	0.687070	-0.153664
C180	C	1.368903	1.187070	0.346336
C181	C	0.619877	0.643028	0.050356
C182	C	1.119877	1.143028	0.550356
C183	C	0.619883	0.643023	0.104657
C184	C	1.119883	1.143023	0.604657
C185	C	0.619838	0.803040	-0.109656
C186	C	1.119838	1.303040	0.390344
C187	C	0.619831	0.857341	-0.109662
C188	C	1.119831	1.357341	0.390338
C189	C	0.619866	0.598852	0.339356
C190	C	1.119866	1.098852	0.839356
C191	C	0.619866	0.598850	0.288335
C192	C	1.119866	1.098850	0.788335
O193	O	0.619844	0.561281	0.261943
O194	O	1.119844	1.061281	0.761943
N195	N	0.619866	0.643032	0.262817
N196	N	1.119866	1.143032	0.762817
C197	C	0.619856	0.687222	0.288319
C198	C	1.119856	1.187222	0.788319
O199	O	0.619855	0.724802	0.261928
O200	O	1.119855	1.224802	0.761928
C201	C	0.619850	0.687225	0.339336
C202	C	1.119850	1.187225	0.839336
C203	C	0.619859	0.643038	0.364855
C204	C	1.119859	1.143038	0.864855
C205	C	0.619874	0.554669	0.364874
C206	C	1.119874	1.054669	0.864874
C207	C	0.619875	0.554671	0.415891
C208	C	1.119875	1.054671	0.915891
C209	C	0.619868	0.598856	0.441390
C210	C	1.119868	1.098856	0.941390
C211	C	0.619860	0.643040	0.415872
C212	C	1.119860	1.143040	0.915872
C213	C	0.619835	0.731415	0.364836
C214	C	1.119835	1.231415	0.864836
C215	C	0.619828	0.731415	0.415857
C216	C	1.119828	1.231415	0.915857
C217	C	0.619837	0.687228	0.441375
C218	C	1.119837	1.187228	0.941375
C219	C	0.619854	0.687227	0.492388
C220	C	1.119854	1.187227	0.992388
N221	N	0.619855	0.643045	0.517907
N222	N	1.119855	1.143045	1.017907
C223	C	0.619862	0.598860	0.492408
C224	C	1.119862	1.098860	0.992408
C225	C	0.619868	0.687212	0.181177
C226	C	1.119868	1.187212	0.681177
C227	C	0.619880	0.687208	0.130162
C228	C	1.119880	1.187208	0.630162
C229	C	0.619888	0.598836	0.130182
C230	C	1.119888	1.098836	0.630182
C231	C	0.619882	0.598840	0.181200
C232	C	1.119882	1.098840	0.681200
C233	C	0.619869	0.643030	0.206696
C234	C	1.119869	1.143030	0.706696
C235	C	0.619865	0.598867	0.599547
C236	C	1.119865	1.098867	1.099547
C237	C	0.619869	0.598872	0.650570
C238	C	1.119869	1.098872	1.150570
C239	C	0.619856	0.687244	0.650544
C240	C	1.119856	1.187244	1.150544
C241	C	0.619856	0.687239	0.599528
C242	C	1.119856	1.187239	1.099528
C243	C	0.619858	0.643047	0.574030
C244	C	1.119858	1.143047	1.074030
O245	O	0.619873	0.724778	0.518812
O246	O	1.119873	1.224778	1.018812
O247	O	0.619853	0.561288	0.518802
O248	O	1.119853	1.061288	1.018802
C249	C	0.619849	0.643056	0.730365
C250	C	1.119849	1.143056	1.230365
C251	C	0.619862	0.643058	0.676069
C252	C	1.119862	1.143058	1.176069
C253	C	0.433901	0.770168	-0.076788
C254	C	0.933901	1.270168	0.423212
C255	C	0.370788	0.813314	-0.065638
C256	C	0.870788	1.313314	0.434362
C257	C	0.433905	0.610185	-0.236768
C258	C	0.933905	1.110185	0.263232
C259	C	0.370794	0.599034	-0.279914
C260	C	0.870794	1.099034	0.220086
C261	C	0.433884	0.770183	-0.236784
C262	C	0.933884	1.270183	0.263216
C263	C	0.370765	0.813333	-0.279935
C264	C	0.870765	1.313333	0.220065
C265	C	0.805836	0.515902	0.017504
C266	C	1.305836	1.015902	0.517504
C267	C	0.868955	0.472752	0.060655
C268	C	1.368955	0.972752	0.560655
C269	C	0.805819	0.515917	-0.142492
C270	C	1.305819	1.015917	0.357508
C271	C	0.868932	0.472772	-0.153642
C272	C	1.368932	0.972772	0.346358
C273	C	0.805814	0.675900	0.017488
C274	C	1.305814	1.175900	0.517488
C275	C	0.868926	0.687051	0.060634
C276	C	1.368926	1.187051	0.560634
C277	C	0.341157	0.802330	-0.029151
C278	C	0.841157	1.302330	0.470849
C279	C	0.281864	0.842866	-0.018664
C280	C	0.781864	1.342866	0.481336
C281	C	0.252199	0.894385	-0.044668
C282	C	0.752199	1.394385	0.455332
C283	C	0.281835	0.905369	-0.081157
C284	C	0.781835	1.405369	0.418843
C285	C	0.341131	0.864834	-0.091640
C286	C	0.841131	1.364834	0.408360
C287	C	0.341149	0.625043	-0.331427
C288	C	0.841149	1.125043	0.168573
C289	C	0.281857	0.614564	-0.371973
C290	C	0.781857	1.114564	0.128027
C291	C	0.252208	0.578079	-0.361005
C292	C	0.752208	1.078079	0.138995
C293	C	0.281859	0.552068	-0.309487
C294	C	0.781859	1.052068	0.190513
C295	C	0.341154	0.562544	-0.268943
C296	C	0.841154	1.062544	0.231057
C297	C	0.341123	0.864842	-0.268961
C298	C	0.841123	1.364842	0.231039
C299	C	0.281824	0.905392	-0.309503
C300	C	0.781824	1.405392	0.190497
C301	C	0.252165	0.894432	-0.361018
C302	C	0.752165	1.394432	0.138982
C303	C	0.281813	0.842918	-0.371993
C304	C	0.781813	1.342918	0.128007
C305	C	0.341114	0.802370	-0.331452
C306	C	0.841114	1.302370	0.168548
C307	C	0.898604	0.421244	0.049679
C308	C	1.398604	0.921244	0.549679
C309	C	0.957921	0.380697	0.090218
C310	C	1.457921	0.880697	0.590218
C311	C	0.987583	0.391658	0.141733
C312	C	1.487583	0.891658	0.641733
C313	C	0.957931	0.443171	0.152709
C314	C	1.457931	0.943171	0.652709
C315	C	0.898620	0.483718	0.112169
C316	C	1.398620	0.983718	0.612169
C317	C	0.898569	0.483757	-0.190125
C318	C	1.398569	0.983757	0.309875
C319	C	0.957878	0.443223	-0.200600
C320	C	1.457878	0.943223	0.299400
C321	C	0.987546	0.391705	-0.174595
C322	C	1.487546	0.891705	0.325405
C323	C	0.957906	0.380720	-0.138108
C324	C	1.457906	0.880720	0.361892
C325	C	0.898602	0.421254	-0.127631
C326	C	1.398602	0.921254	0.372369
C327	C	0.898556	0.723539	0.049650
C328	C	1.398556	1.223539	0.549650
C329	C	0.957848	0.734027	0.090187
C330	C	1.457848	1.234027	0.590187
C331	C	0.987512	0.708024	0.141706
C332	C	1.487512	1.208024	0.641706
C333	C	0.957876	0.671535	0.152690
C334	C	1.457876	1.171535	0.652690
C335	C	0.898581	0.661050	0.112154
C336	C	1.398581	1.161050	0.612154
H337	H	0.350910	0.515327	0.018079
H338	H	0.850910	1.015327	0.518079
H339	H	0.982053	0.338756	0.081272
H340	H	1.482053	0.838756	0.581272
H341	H	0.874418	0.525702	-0.211306
H342	H	1.374418	1.025702	0.288694
O343	O	0.249901	0.831014	0.020690
O344	O	0.749901	1.331014	0.520690
H345	H	0.222881	0.801471	0.007403
H346	H	0.722881	1.301471	0.507403
H347	H	1.035794	0.716566	0.174708
H348	H	1.535794	1.216566	0.674708
H349	H	0.982001	0.452177	-0.230312
H350	H	1.482001	0.952177	0.269688
O351	O	0.619889	0.507006	0.337376
O352	O	1.119889	1.007006	0.837376
H353	H	0.619900	0.476287	0.363702
H354	H	1.119900	0.976287	0.863702
H355	H	0.365241	0.760429	-0.340395
H356	H	0.865241	1.260429	0.159605
O357	O	1.051564	0.347925	0.185455
O358	O	1.551564	0.847925	0.685455
H359	H	1.067192	0.310268	0.169163
H360	H	1.567192	0.810268	0.669163
H361	H	0.982070	0.338769	-0.116938
H362	H	1.482070	0.838769	0.383062
H363	H	0.257722	0.635750	-0.413917
H364	H	0.757722	1.135750	0.086083
H365	H	0.488118	0.457413	-0.143019
H366	H	0.988118	0.957413	0.356981
O367	O	0.866630	0.409402	-0.088285
O368	O	1.366630	0.909402	0.411715
H369	H	0.897221	0.366766	-0.071970
H370	H	1.397221	0.866766	0.428030
O371	O	0.619904	0.551176	0.208721
O372	O	1.119904	1.051176	0.708721
H373	H	0.565609	0.543747	0.185166
H374	H	1.065609	1.043747	0.685166
O375	O	1.051487	0.347983	-0.185914
O376	O	1.551487	0.847983	0.314086
H377	H	1.067094	0.364280	-0.215662
H378	H	1.567094	0.864280	0.284338
H379	H	0.982038	0.650366	0.194642
H380	H	1.482038	1.150366	0.694642
O381	O	0.249830	0.960935	-0.109207
O382	O	0.749830	1.460935	0.390793
H383	H	0.203613	0.987270	-0.095788
H384	H	0.703613	1.487270	0.404212
O385	O	0.866631	0.539272	0.124012
O386	O	1.366631	1.039272	0.624012
H387	H	0.897219	0.540075	0.166647
H388	H	1.397219	1.040075	0.666647
O389	O	0.373156	0.746767	-0.001094
O390	O	0.873156	1.246767	0.498906
H391	H	0.323385	0.732777	-0.010338
H392	H	0.823385	1.232777	0.489662
H393	H	0.203878	0.927454	-0.394024
H394	H	0.703878	1.427454	0.105976
O395	O	0.866622	0.409417	-0.005883
O396	O	1.366622	0.909417	0.494117
H397	H	0.897219	0.366788	-0.006697
H398	H	1.397219	0.866788	0.493303
H399	H	0.257656	0.834002	-0.413942
H400	H	0.757656	1.334002	0.086058
O401	O	0.373113	0.876675	-0.213402
O402	O	0.873113	1.376675	0.286598
H403	H	0.323339	0.892660	-0.199416
H404	H	0.823339	1.392660	0.300584
H405	H	0.982090	0.452090	0.194657
H406	H	1.482090	0.952090	0.694657
O407	O	0.866558	0.751593	-0.005914
O408	O	1.366558	1.251593	0.494086
H409	H	0.897122	0.778732	-0.006732
H410	H	1.397122	1.278732	0.493268
H411	H	0.210612	0.534719	-0.001311
H412	H	0.710612	1.034719	0.498689
H413	H	0.257691	0.947334	-0.300557
H414	H	0.757691	1.447334	0.199443
H415	H	0.981971	0.763738	0.081233
H416	H	1.481971	1.263738	0.581233
H417	H	0.824249	0.044957	-0.057852
H418	H	1.324249	0.544957	0.442148
O419	O	0.866634	0.621687	0.124002
O420	O	1.366634	1.121687	0.624002
H421	H	0.897235	0.605366	0.166636
H422	H	1.397235	1.105366	0.666636
H423	H	0.824252	0.137505	-0.057858
H424	H	1.324252	0.637505	0.442142
H425	H	0.619864	0.562882	0.578792
H426	H	1.119864	1.062882	1.078792
H427	H	0.619863	0.723197	0.201936
H428	H	1.119863	1.223197	0.701936
H429	H	-0.032411	0.624341	-0.090929
H430	H	0.467589	1.124341	0.409071
O431	O	0.770837	0.286421	-0.071364
O432	O	1.270837	0.786421	0.428636
H433	H	0.821339	0.299927	-0.058563
H434	H	1.321339	0.799927	0.441437
O435	O	0.249877	0.512720	-0.297655
O436	O	0.749877	1.012720	0.202345
H437	H	0.222864	0.526001	-0.268108
H438	H	0.722864	1.026001	0.231892
H439	H	0.063633	0.588916	-0.055519
H440	H	0.563633	1.088916	0.444481
H441	H	0.272141	0.661746	-0.128347
H442	H	0.772141	1.161746	0.371653
O443	O	0.479890	0.526451	0.006952
O444	O	0.979890	1.026451	0.506952
H445	H	0.485023	0.496633	0.036774
H446	H	0.985023	0.996633	0.536774
H447	H	0.029122	0.751365	-0.217961
H448	H	0.529122	1.251365	0.282039
O449	O	0.191748	0.699944	-0.166535
O450	O	0.691748	1.199944	0.333465
H451	H	0.229562	0.664191	-0.177492
H452	H	0.729562	1.164191	0.322508
O453	O	0.373077	0.876681	-0.131004
O454	O	0.873077	1.376681	0.368996
H455	H	0.342475	0.919315	-0.147326
H456	H	0.842475	1.419315	0.352674
H457	H	0.751598	-0.171320	-0.076252
H458	H	1.251598	0.328680	0.423748
O459	O	-0.116933	0.781434	-0.248015
O460	O	0.383067	1.281434	0.251985
H461	H	-0.062092	0.783705	-0.250281
H462	H	0.437908	1.283705	0.249719
H463	H	0.488102	0.364868	-0.143036
H464	H	0.988102	0.864868	0.356964
O465	O	-0.240183	0.759647	-0.226228
O466	O	0.259817	1.259647	0.273772
H467	H	-0.245321	0.789473	-0.256044
H468	H	0.254679	1.289473	0.243956
H469	H	0.415457	0.148601	-0.161463
H470	H	0.915457	0.648601	0.338537
O471	O	0.396271	0.252755	-0.166318
O472	O	0.896271	0.752755	0.333682
H473	H	0.361449	0.251796	-0.208184
H474	H	0.861449	0.751796	0.291816
O475	O	0.468874	-0.000336	-0.147925
O476	O	0.968874	0.499664	0.352075
H477	H	0.418376	-0.013847	-0.160729
H478	H	0.918376	0.486153	0.339271
H479	H	0.488066	-0.104512	-0.143059
H480	H	0.988066	0.395488	0.356941
H481	H	0.751609	-0.078775	-0.076259
H482	H	1.251609	0.421225	0.423741
H483	H	0.365283	0.541364	-0.226999
H484	H	0.865283	1.041364	0.273001
O485	O	0.770849	0.392469	-0.071281
O486	O	1.270849	0.892469	0.428719
H487	H	0.758643	0.435325	-0.074351
H488	H	1.258643	0.935325	0.425649
H489	H	0.203927	0.569554	-0.394024
H490	H	0.703927	1.069554	0.105976
O491	O	0.619901	0.551202	0.678094
O492	O	1.119901	1.051202	1.178094
H493	H	0.565606	0.543771	0.654544
H494	H	1.065606	1.043771	1.154544
O495	O	0.619921	0.507003	0.443421
O496	O	1.119921	1.007003	0.943421
H497	H	0.619935	0.476280	0.417114
H498	H	1.119935	0.976280	0.917114
H499	H	0.619893	0.562859	0.109411
H500	H	1.119893	1.062859	0.609411
O501	O	0.619812	0.779080	0.337319
O502	O	1.119812	1.279080	0.837319
H503	H	0.674102	0.786512	0.360879
H504	H	1.174102	1.286512	0.860879
O505	O	0.619875	0.734865	0.102641
O506	O	1.119875	1.234865	0.602641
H507	H	0.619863	0.765589	0.128947
H508	H	1.119863	1.265589	0.628947
H509	H	0.619815	0.767401	0.436613
H510	H	1.119815	1.267401	0.936613
H511	H	0.619860	0.723217	0.578753
H512	H	1.119860	1.223217	1.078753
H513	H	0.619854	0.723219	0.671315
H514	H	1.119854	1.223219	1.171315
H515	H	0.203915	0.927386	-0.036127
H516	H	0.703915	1.427386	0.463873
H517	H	0.365283	0.654751	-0.340367
H518	H	0.865283	1.154751	0.159633
