data_functionalizedCrystal
_audit_creation_method	'MofGen! by Chris Wilmer'
_symmetry_space_group_name_H-M	'P1'
_symmetry_Int_Tables_number	1
_symmetry_cell_setting	triclinic
loop_
_symmetry_equiv_pos_as_xyz
  x,y,z
_cell_length_a	12.759401
_cell_length_b	10.686285
_cell_length_c	12.759393
_cell_angle_alpha	85.603657
_cell_angle_beta	89.979541
_cell_angle_gamma	85.633237
loop_
_atom_site_label
_atom_site_type_symbol
_atom_site_fract_x
_atom_site_fract_y
_atom_site_fract_z
Zn1	Zn	1.638396	-0.502244	-0.562005
Zn2	Zn	1.651791	-0.713281	-0.372873
Zn3	Zn	1.462701	-0.502309	-0.386336
Zn4	Zn	1.476184	-0.713195	-0.548516
O5	O	1.557268	-0.607757	-0.467432
O6	O	1.787195	-0.530247	-0.536927
O7	O	1.626671	-0.685358	-0.227634
O8	O	1.474758	-0.325724	-0.420919
O9	O	1.797036	-0.685295	-0.397973
O10	O	1.603841	-0.325677	-0.549982
O11	O	1.487747	-0.530358	-0.237525
O12	O	1.317468	-0.530274	-0.407839
O13	O	1.497739	-0.685149	-0.697330
O14	O	1.327374	-0.685211	-0.526991
O15	O	1.616915	-0.530164	-0.707241
O16	O	1.639746	-0.889845	-0.384893
O17	O	1.510728	-0.889782	-0.513936
C18	C	1.284300	-0.607742	-0.467413
C19	C	1.167525	-0.607765	-0.467427
C20	C	1.117856	-0.688564	-0.529356
C21	C	1.008132	-0.688569	-0.529377
C22	C	0.997755	-0.526973	-0.405530
C23	C	1.107476	-0.526963	-0.405516
C24	C	1.578182	-0.935598	-0.446513
C25	C	1.587225	-1.075850	-0.437598
C26	C	1.831302	-0.607773	-0.467453
C27	C	1.948079	-0.607780	-0.467462
C28	C	1.557337	-0.607640	-0.741473
C29	C	1.557366	-0.607589	-0.858253
C30	C	1.536301	-0.278636	-0.488457
C31	C	1.527367	-0.138384	-0.497416
C32	C	1.629726	-0.688204	-1.017706
C33	C	1.629704	-0.688264	-0.907978
C34	C	1.485038	-0.526859	-0.918262
C35	C	1.485056	-0.526807	-1.027987
C36	C	1.557254	-0.607783	-0.194463
C37	C	1.557406	-0.607478	-0.077707
H38	H	0.967698	-0.754361	-0.579807
C39	C	1.503243	-0.989933	-0.648061
C40	C	1.448851	-1.065822	-0.575772
H41	H	1.454770	-0.945137	-0.696438
H42	H	1.539574	-0.931918	-0.611726
H43	H	1.552264	-1.041283	-0.685057
H44	H	1.399835	-1.014471	-0.538771
H45	H	1.412503	-1.123844	-0.612111
C46	C	0.824951	-0.455236	-0.350561
C47	C	0.931746	-0.438163	-0.337475
H48	H	0.784204	-0.400411	-0.308540
H49	H	0.805839	-0.436875	-0.422343
H50	H	0.812381	-0.539999	-0.329656
H51	H	0.944318	-0.353402	-0.358388
H52	H	0.950865	-0.456515	-0.265677
C53	C	1.738036	-1.224023	-0.413855
C54	C	1.665785	-1.148390	-0.359264
H55	H	1.786547	-1.268792	-0.365501
H56	H	1.701696	-1.282062	-0.450153
H57	H	1.774876	-1.172502	-0.462922
H58	H	1.628938	-1.199913	-0.310202
H59	H	1.702128	-1.090345	-0.322948
C60	C	1.811552	-0.749677	-1.047582
C61	C	1.709245	-0.776887	-1.072356
H62	H	1.860642	-0.804436	-1.081314
H63	H	1.821527	-0.664901	-1.070987
H64	H	1.821874	-0.761261	-0.973644
H65	H	1.698920	-0.765293	-1.146294
H66	H	1.699266	-0.861683	-1.048957
C67	C	1.694498	-0.901946	-0.860577
C68	C	1.709205	-0.776999	-0.842028
H69	H	1.743585	-0.956727	-0.819866
H70	H	1.625090	-0.920412	-0.841400
H71	H	1.704862	-0.913437	-0.933045
H72	H	1.698832	-0.765505	-0.769561
H73	H	1.778629	-0.758526	-0.861199
H74	H	1.426159	-0.461068	-1.076841
C75	C	1.117088	-0.848280	-0.651787
C76	C	1.183861	-0.777366	-0.597420
H77	H	1.157836	-0.903095	-0.693814
H78	H	1.077350	-0.896485	-0.602877
H79	H	1.070804	-0.793347	-0.695554
H80	H	1.230141	-0.832298	-0.553647
H81	H	1.223617	-0.729157	-0.646336
H82	H	1.147916	-0.461159	-0.355086
C83	C	1.420785	-0.455260	-0.754626
C84	C	1.405525	-0.438176	-0.863606
H85	H	1.371700	-0.400501	-0.720889
H86	H	1.410800	-0.540037	-0.731232
H87	H	1.490201	-0.436808	-0.737848
H88	H	1.336110	-0.456638	-0.880385
H89	H	1.415501	-0.353380	-0.887009
