data_functionalizedCrystal
_audit_creation_method	'MofGen! by Chris Wilmer'
_symmetry_space_group_name_H-M	'P1'
_symmetry_Int_Tables_number	1
_symmetry_cell_setting	triclinic
loop_
_symmetry_equiv_pos_as_xyz
  x,y,z
_cell_length_a	14.908932
_cell_length_b	14.908571
_cell_length_c	14.908308
_cell_angle_alpha	90.175053
_cell_angle_beta	90.209830
_cell_angle_gamma	90.192796
loop_
_atom_site_label
_atom_site_type_symbol
_atom_site_fract_x
_atom_site_fract_y
_atom_site_fract_z
Zn1	Zn	-0.467705	-1.320081	0.559203
Zn2	Zn	0.032295	-0.820081	1.059203
Zn3	Zn	-0.609462	-1.321019	0.400242
Zn4	Zn	-0.109462	-0.821019	0.900242
Zn5	Zn	-0.450491	-1.179324	0.401245
Zn6	Zn	0.049509	-0.679324	0.901245
Zn7	Zn	-0.608398	-1.162104	0.541958
Zn8	Zn	-0.108398	-0.662104	1.041958
O9	O	-0.534014	-1.245632	0.475662
O10	O	-0.034014	-0.745632	0.975662
O11	O	-0.494159	-1.445619	0.544913
O12	O	0.005841	-0.945619	1.044913
O13	O	-0.581616	-1.309822	0.274960
O14	O	-0.081616	-0.809822	0.774960
O15	O	-0.327363	-1.204810	0.429836
O16	O	0.172637	-0.704810	0.929836
O17	O	-0.598308	-1.446308	0.428125
O18	O	-0.098308	-0.946308	0.928125
O19	O	-0.340011	-1.308223	0.545886
O20	O	0.159989	-0.808223	1.045886
O21	O	-0.464820	-1.205719	0.275697
O22	O	0.035180	-0.705719	0.775697
O23	O	-0.463787	-1.051626	0.413114
O24	O	0.036213	-0.551626	0.913114
O25	O	-0.596493	-1.175460	0.669660
O26	O	-0.096493	-0.675460	1.169660
O27	O	-0.579801	-1.038974	0.516495
O28	O	-0.079801	-0.538974	1.016495
O29	O	-0.493127	-1.291525	0.682330
O30	O	0.006873	-0.791525	1.182330
O31	O	-0.734732	-1.293124	0.411404
O32	O	-0.234732	-0.793124	0.911404
O33	O	-0.733950	-1.176370	0.515522
O34	O	-0.233950	-0.676370	1.015522
C35	C	-0.519811	-1.012782	0.463043
C36	C	-0.019811	-0.512782	0.963043
C37	C	-0.513758	-0.913165	0.457664
C38	C	-0.013758	-0.413165	0.957664
C39	C	-0.300260	-1.258333	0.489897
C40	C	0.199740	-0.758333	0.989897
C41	C	-0.200648	-1.263745	0.495963
C42	C	0.299352	-0.763745	0.995963
C43	C	-0.766861	-1.233003	0.461503
C44	C	-0.266861	-0.733003	0.961503
C45	C	-0.866480	-1.227681	0.455481
C46	C	-0.366480	-0.727681	0.955481
C47	C	-0.000295	-1.166211	0.386519
C48	C	0.499705	-0.666211	0.886519
C49	C	0.093300	-1.171293	0.392215
C50	C	0.593300	-0.671293	0.892215
C51	C	0.080137	-1.278988	0.513056
C52	C	0.580137	-0.778988	1.013056
C53	C	-0.013457	-1.273905	0.507359
C54	C	0.486543	-0.773905	1.007359
C55	C	-0.053670	-1.217516	0.444088
C56	C	0.446330	-0.717516	0.944088
C57	C	-0.147266	-1.212438	0.438388
C58	C	0.352734	-0.712438	0.938388
C59	C	-0.160427	-1.320128	0.559232
C60	C	0.339573	-0.820128	1.059232
C61	C	-0.066832	-1.325210	0.564928
C62	C	0.433168	-0.825210	1.064928
C63	C	-0.546611	-1.231467	0.709423
C64	C	-0.046611	-0.731467	1.209423
C65	C	-0.551979	-1.225431	0.809038
C66	C	-0.051979	-0.725431	1.309038
C67	C	-0.548272	-1.479391	0.488331
C68	C	-0.048272	-0.979391	0.988331
C69	C	-0.554348	-1.579005	0.493730
C70	C	-0.054348	-1.079005	0.993730
C71	C	-0.623358	-0.712849	0.555043
C72	C	-0.123358	-0.212849	1.055043
C73	C	-0.617674	-0.619250	0.549992
C74	C	-0.117674	-0.119250	1.049992
C75	C	-0.496701	-0.632366	0.442517
C76	C	0.003299	-0.132366	0.942517
C77	C	-0.502386	-0.725965	0.447568
C78	C	-0.002386	-0.225965	0.947568
C79	C	-0.565717	-0.766203	0.503831
C80	C	-0.065717	-0.266203	1.003831
C81	C	-0.571406	-0.859804	0.508877
C82	C	-0.071406	-0.359804	1.008877
C83	C	-0.450429	-0.872918	0.401407
C84	C	0.049571	-0.372918	0.901407
C85	C	-0.444745	-0.779319	0.396356
C86	C	0.055255	-0.279319	0.896356
C87	C	-0.521404	-1.259796	0.242817
C88	C	-0.021404	-0.759796	0.742817
C89	C	-0.515794	-1.266019	0.143227
C90	C	-0.015794	-0.766019	0.643227
C91	C	-0.454410	-1.334946	1.009421
C92	C	0.045590	-0.834946	1.509421
C93	C	-0.459451	-1.329278	1.103018
C94	C	0.040549	-0.829278	1.603018
C95	C	-0.567097	-1.208423	1.089832
C96	C	-0.067097	-0.708423	1.589832
C97	C	-0.562056	-1.214091	0.996235
C98	C	-0.062056	-0.714091	1.496235
C99	C	-0.505712	-1.277356	0.956032
C100	C	-0.005712	-0.777356	1.456032
C101	C	-0.500676	-1.283028	0.862433
C102	C	-0.000676	-0.783028	1.362433
C103	C	-0.608317	-1.162169	0.849249
C104	C	-0.108317	-0.662169	1.349249
C105	C	-0.613358	-1.156501	0.942846
C106	C	-0.113358	-0.656501	1.442846
H107	H	-0.180005	-1.166525	0.386867
H108	H	0.319995	-0.666525	0.886867
H109	H	-0.622975	-0.892564	0.554688
H110	H	-0.122975	-0.392564	1.054688
Cl111	Cl	-0.702981	-0.763437	0.625762
Cl112	Cl	-0.202981	-0.263437	1.125762
Cl113	Cl	-0.016270	-1.396089	0.644471
Cl114	Cl	0.483730	-0.896089	1.144471
Cl115	Cl	-0.690139	-0.552178	0.614377
Cl116	Cl	-0.190139	-0.052178	1.114377
H117	H	-0.650093	-1.115277	0.805769
H118	H	-0.150093	-0.615277	1.305769
Cl119	Cl	0.160398	-1.106790	0.319842
Cl120	Cl	0.660398	-0.606790	0.819842
Cl121	Cl	-0.050851	-1.095334	0.306971
Cl122	Cl	0.449149	-0.595334	0.806971
Cl123	Cl	-0.227533	-1.384636	0.631602
Cl124	Cl	0.272467	-0.884636	1.131602
Cl125	Cl	-0.684185	-1.076972	0.993395
Cl126	Cl	-0.184185	-0.576972	1.493395
Cl127	Cl	0.130706	-1.349848	0.592610
Cl128	Cl	0.630706	-0.849848	1.092610
Cl129	Cl	-0.417079	-0.581765	0.371806
Cl130	Cl	0.082921	-0.081765	0.871806
Cl131	Cl	-0.365129	-0.728726	0.325633
Cl132	Cl	0.134871	-0.228726	0.825633
H133	H	-0.454799	-1.334542	0.829702
H134	H	0.045201	-0.834542	1.329702
Cl135	Cl	-0.377969	-0.939998	0.337015
Cl136	Cl	0.122031	-0.439998	0.837015
Cl137	Cl	-0.383590	-1.414486	0.958877
Cl138	Cl	0.116410	-0.914486	1.458877
H139	H	-0.417674	-1.376172	1.146484
H140	H	0.082326	-0.876172	1.646484
H141	H	-0.612969	-1.156915	1.122581
H142	H	-0.112969	-0.656915	1.622581
