data_functionalizedCrystal
_audit_creation_method	'MofGen! by Chris Wilmer'
_symmetry_space_group_name_H-M	'P1'
_symmetry_Int_Tables_number	1
_symmetry_cell_setting	triclinic
loop_
_symmetry_equiv_pos_as_xyz
  x,y,z
_cell_length_a	14.853567
_cell_length_b	15.500227
_cell_length_c	14.853569
_cell_angle_alpha	87.169028
_cell_angle_beta	83.635248
_cell_angle_gamma	92.845498
loop_
_atom_site_label
_atom_site_type_symbol
_atom_site_fract_x
_atom_site_fract_y
_atom_site_fract_z
O1	O	1.200550	0.071886	0.113527
O2	O	1.700550	0.571886	0.613527
O3	O	0.938092	0.071902	0.127548
O4	O	1.438092	0.571902	0.627548
O5	O	1.076331	0.071885	-0.010692
O6	O	1.576331	0.571885	0.489308
O7	O	1.062312	0.071903	0.251767
O8	O	1.562312	0.571903	0.751767
O9	O	1.067942	-0.072002	-0.002336
O10	O	1.567942	0.427998	0.497664
O11	O	0.929703	-0.071986	0.135904
O12	O	1.429703	0.428014	0.635904
O13	O	1.192162	-0.072001	0.121883
O14	O	1.692162	0.427999	0.621883
Cu15	Cu	1.060167	-0.085132	0.129656
Cu16	Cu	1.560167	0.414868	0.629656
Cu17	Cu	1.070087	0.085032	0.119775
Cu18	Cu	1.570087	0.585032	0.619775
O19	O	1.053923	-0.071985	0.260123
O20	O	1.553923	0.428015	0.760123
C21	C	0.900309	-0.000040	0.131090
C22	C	1.400309	0.499960	0.631090
C23	C	0.800226	-0.000035	0.129186
C24	C	1.300226	0.499965	0.629186
N25	N	1.053195	-0.204816	0.136606
N26	N	1.553195	0.295184	0.636606
C27	C	0.387690	-0.000060	0.039022
C28	C	0.887690	0.499940	0.539022
C29	C	0.366410	-0.000049	0.203254
C30	C	0.866410	0.499951	0.703254
C31	C	0.460444	-0.000046	0.205044
C32	C	0.960444	0.499954	0.705044
C33	C	0.518105	-0.000049	0.123822
C34	C	1.018105	0.499951	0.623822
C35	C	0.481733	-0.000055	0.040809
C36	C	0.981733	0.499945	0.540809
C37	C	0.496825	-0.000031	0.288054
C38	C	0.996825	0.499969	0.788054
C39	C	0.590864	-0.000027	0.289848
C40	C	1.090864	0.499973	0.789848
C41	C	0.648527	-0.000036	0.208625
C42	C	1.148527	0.499964	0.708625
C43	C	0.612149	-0.000043	0.125609
C44	C	1.112149	0.499957	0.625609
C45	C	0.669810	-0.000046	0.044387
C46	C	1.169810	0.499954	0.544387
C47	C	0.633433	-0.000060	-0.038630
C48	C	1.133433	0.499940	0.461370
C49	C	0.539396	-0.000064	-0.040414
C50	C	1.039396	0.499936	0.459586
C51	C	0.742564	-0.000032	0.210409
C52	C	1.242564	0.499968	0.710409
C53	C	0.763853	-0.000041	0.046174
C54	C	1.263853	0.499959	0.546174
C55	C	1.111792	-0.250099	0.078051
C56	C	1.611792	0.249901	0.578051
C57	C	1.106529	-0.340672	0.083315
C58	C	1.606529	0.159328	0.583315
C59	C	1.042672	-0.385959	0.147140
C60	C	1.542672	0.114041	0.647140
C61	C	0.984068	-0.340669	0.205697
C62	C	1.484068	0.159331	0.705697
C63	C	0.989328	-0.250098	0.200428
C64	C	1.489328	0.249902	0.700428
C65	C	1.023722	-0.659423	0.166106
C66	C	1.523722	-0.159423	0.666106
C67	C	1.018468	-0.750000	0.171373
C68	C	1.518468	-0.250000	0.671373
C69	C	1.140928	-0.749997	0.048989
C70	C	1.640928	-0.249997	0.548989
C71	C	1.146186	-0.659424	0.043729
C72	C	1.646186	-0.159424	0.543729
C73	C	1.087580	-0.614143	0.102284
C74	C	1.587580	-0.114143	0.602284
C75	C	1.037291	-0.478538	0.152524
C76	C	1.537291	0.021462	0.652524
C77	C	1.092956	-0.521565	0.096894
C78	C	1.592956	-0.021565	0.596894
C79	C	1.229945	-0.000057	0.118341
C80	C	1.729945	0.499943	0.618341
C81	C	1.330029	-0.000057	0.120244
C82	C	1.830029	0.499943	0.620244
C83	C	1.071501	-0.000059	-0.040102
C84	C	1.571501	0.499941	0.459898
C85	C	1.069596	-0.000059	-0.140186
C86	C	1.569596	0.499941	0.359814
N87	N	1.077065	0.204716	0.112818
N88	N	1.577065	0.704716	0.612818
C89	C	0.986586	-0.000056	-0.176563
C90	C	1.486586	0.499944	0.323437
C91	C	1.150818	-0.000056	-0.197852
C92	C	1.650818	0.499944	0.302148
C93	C	1.149032	-0.000052	-0.291886
C94	C	1.649032	0.499948	0.208114
C95	C	1.066021	-0.000049	-0.328263
C96	C	1.566021	0.499951	0.171737
C97	C	0.984797	-0.000050	-0.270606
C98	C	1.484797	0.499950	0.229394
C99	C	1.230255	-0.000043	-0.349551
C100	C	1.730255	0.499957	0.150449
C101	C	1.228472	-0.000038	-0.443592
C102	C	1.728472	0.499962	0.056408
C103	C	1.145460	-0.000041	-0.479970
C104	C	1.645460	0.499959	0.020030
C105	C	1.064233	-0.000043	-0.422306
C106	C	1.564233	0.499957	0.077694
C107	C	0.981222	-0.000040	-0.458683
C108	C	1.481222	0.499960	0.041317
C109	C	0.899993	-0.000047	-0.401020
C110	C	1.399993	0.499953	0.098980
C111	C	0.901785	-0.000053	-0.306984
C112	C	1.401785	0.499947	0.193016
C113	C	1.143668	-0.000036	-0.574007
C114	C	1.643668	0.499964	-0.074007
C115	C	0.979433	-0.000033	-0.552726
C116	C	1.479433	0.499967	-0.052726
C117	C	1.058753	-0.000039	0.289533
C118	C	1.558753	0.499961	0.789533
C119	C	1.060658	-0.000033	0.389616
C120	C	1.560658	0.499967	0.889616
H121	H	0.810795	-0.000047	-0.019968
H122	H	1.310795	0.499953	0.480032
H123	H	0.985299	-0.515418	0.204493
H124	H	1.485299	-0.015418	0.704493
H125	H	0.911835	-0.000038	-0.582335
H126	H	1.411835	0.499962	-0.082335
H127	H	0.832406	-0.000039	-0.430651
H128	H	1.332406	0.499961	0.069349
Br129	Br	0.288157	-0.000029	0.313478
Br130	Br	0.788157	0.499971	0.813478
Br131	Br	0.897396	-0.402126	0.292312
Br132	Br	1.397396	0.097874	0.792312
Br133	Br	0.909794	-0.188642	0.279894
Br134	Br	1.409794	0.311358	0.779894
Br135	Br	0.711699	-0.000054	-0.148856
Br136	Br	1.211699	0.499946	0.351144
Br137	Br	1.179612	-0.460104	0.010273
Br138	Br	1.679612	0.039896	0.510273
H139	H	0.772178	-0.000023	0.277999
H140	H	1.272178	0.499977	0.777999
H141	H	1.198184	-0.622554	-0.008242
H142	H	1.698184	-0.122554	0.491758
Br143	Br	1.198467	-0.188648	-0.008566
Br144	Br	1.698467	0.311352	0.491434
Br145	Br	0.418569	-0.000008	0.398277
Br146	Br	0.918569	0.499992	0.898277
Br147	Br	1.220460	-0.811454	-0.030476
Br148	Br	1.720460	-0.311454	0.469524
H149	H	0.835653	-0.000057	-0.260027
H150	H	1.335653	0.499943	0.239973
Br151	Br	0.931801	-0.811456	0.258004
Br152	Br	1.431801	-0.311456	0.758004
H153	H	1.218401	-0.000076	-0.168227
H154	H	1.718401	0.499924	0.331773
H155	H	0.920451	-0.000066	-0.129610
H156	H	1.420451	0.499934	0.370390
Br157	Br	0.490022	-0.000079	-0.153068
Br158	Br	0.990022	0.499921	0.346932
Br159	Br	0.640225	-0.000009	0.402509
Br160	Br	1.140225	0.499991	0.902509
H161	H	1.154242	-0.377541	0.035634
H162	H	1.654242	0.122459	0.535634
Br163	Br	1.342907	-0.000034	-0.300180
Br164	Br	1.842907	0.499966	0.199820
Br165	Br	0.944189	-0.597974	0.245573
Br166	Br	1.444189	-0.097974	0.745573
H167	H	0.358067	-0.000074	-0.028568
H168	H	0.858067	0.499926	0.471432
H169	H	1.294614	-0.000034	-0.490534
H170	H	1.794614	0.499966	0.009466
H171	H	1.209804	-0.000021	-0.620952
H172	H	1.709804	0.499979	-0.120952
