data_functionalizedCrystal
_audit_creation_method	'MofGen! by Chris Wilmer'
_symmetry_space_group_name_H-M	'P1'
_symmetry_Int_Tables_number	1
_symmetry_cell_setting	triclinic
loop_
_symmetry_equiv_pos_as_xyz
  x,y,z
_cell_length_a	23.096457
_cell_length_b	23.096457
_cell_length_c	23.096457
_cell_angle_alpha	60.004020
_cell_angle_beta	59.998640
_cell_angle_gamma	89.999420
loop_
_atom_site_label
_atom_site_type_symbol
_atom_site_fract_x
_atom_site_fract_y
_atom_site_fract_z
Zr1	Zr	-0.075982	0.557748	0.633798
O2	O	-0.168426	0.586098	0.633793
O3	O	-0.047645	0.465298	0.633795
O4	O	-0.168435	0.465310	0.754578
O5	O	0.047647	0.681355	0.417739
O6	O	-0.168438	0.465308	0.849862
O7	O	-0.047637	0.586086	0.513009
O8	O	0.047632	0.465287	0.633803
O9	O	-0.168423	0.681377	0.633799
O10	O	-0.035559	0.527063	0.704909
O11	O	0.035553	0.598162	0.562701
O12	O	-0.106661	0.598176	0.704908
O13	O	-0.035549	0.669276	0.562700
Zr14	Zr	0.075980	0.709687	0.633821
Zr15	Zr	-0.075987	0.557745	0.785765
Zr16	Zr	0.075986	0.709690	0.481854
Zr17	Zr	-0.075976	0.709705	0.633808
Zr18	Zr	0.075975	0.557730	0.633811
O19	O	0.047644	0.802137	0.633825
O20	O	-0.168434	0.586094	0.849870
O21	O	0.047652	0.802141	0.417747
O22	O	0.168424	0.681336	0.633827
O23	O	-0.047653	0.465294	0.849872
O24	O	0.168432	0.681341	0.417749
O25	O	-0.047649	0.586080	0.849880
O26	O	0.168433	0.802125	0.513041
O27	O	0.168437	0.802127	0.417757
O28	O	0.047635	0.681348	0.754610
O29	O	-0.168427	0.681374	0.754592
O30	O	0.168426	0.586061	0.513027
O31	O	0.168421	0.586058	0.633820
O32	O	0.047627	0.465284	0.754596
O33	O	-0.047629	0.802151	0.513023
O34	O	-0.047633	0.802148	0.633817
O35	O	0.106660	0.669259	0.562711
O36	O	0.035548	0.598159	0.704920
O37	O	-0.035554	0.669273	0.704918
O38	O	0.035558	0.740372	0.562710
C39	C	-0.000008	0.443642	0.633797
C40	C	-0.000010	0.379132	0.633793
C41	C	-0.190075	0.633740	0.633794
C42	C	-0.254584	0.633748	0.633789
C43	C	0.052476	0.348825	0.633806
C44	C	0.052483	0.288210	0.633804
C45	C	-0.000007	0.257896	0.633806
C46	C	-0.052498	0.288212	0.633788
C47	C	-0.052499	0.348830	0.633782
N48	N	-0.062255	0.139548	0.680165
N49	N	-0.062251	0.081963	0.680173
C50	C	-0.000006	0.075258	0.633823
N51	N	0.062238	0.128309	0.587475
N52	N	0.062234	0.185898	0.587471
C53	C	-0.000012	0.192166	0.633812
C54	C	0.052491	-0.020774	0.633833
C55	C	0.052499	-0.081388	0.633826
C56	C	-0.052488	-0.081388	0.633818
C57	C	-0.052490	-0.020772	0.633817
C58	C	-0.000000	0.009530	0.633828
C59	C	-0.284886	0.581252	0.633795
C60	C	-0.345501	0.581246	0.633794
C61	C	-0.375821	0.633730	0.633804
C62	C	-0.345510	0.686236	0.633793
C63	C	-0.284892	0.686244	0.633786
N64	N	-0.494177	0.649612	0.680170
N65	N	-0.551763	0.649600	0.680179
C66	C	-0.558461	0.633708	0.633824
N67	N	-0.505402	0.617816	0.587470
N68	N	-0.447813	0.617825	0.587465
C69	C	-0.441552	0.633727	0.633811
C70	C	-0.654488	0.581203	0.633828
C71	C	-0.715102	0.581201	0.633822
C72	C	-0.715114	0.686189	0.633830
C73	C	-0.654497	0.686193	0.633827
C74	C	-0.624189	0.633696	0.633830
C75	C	0.190073	0.633695	0.633825
C76	C	0.254583	0.633687	0.633830
C77	C	0.000006	0.633721	0.443722
C78	C	0.000009	0.633722	0.379209
C79	C	0.000006	0.823793	0.633822
C80	C	0.000008	0.888303	0.633826
C81	C	0.037116	0.596597	0.348910
C82	C	0.037119	0.596599	0.288292
C83	C	0.000001	0.633717	0.257986
C84	C	-0.037108	0.670850	0.288288
C85	C	-0.037105	0.670853	0.348899
N86	N	-0.060410	0.628569	0.195597
N87	N	-0.060412	0.628563	0.138020
C88	C	-0.000012	0.633711	0.075365
N89	N	0.060390	0.638854	0.072470
N90	N	0.060391	0.638856	0.130055
C91	C	-0.000007	0.633718	0.192262
C92	C	0.037103	0.596587	-0.020663
C93	C	0.037108	0.596594	-0.081286
C94	C	-0.037127	0.670839	-0.081283
C95	C	-0.037125	0.670837	-0.020667
C96	C	-0.000012	0.633707	0.009642
C97	C	-0.000008	0.633714	0.823897
C98	C	-0.000010	0.633712	0.888411
C99	C	-0.190089	0.443661	0.823869
C100	C	-0.254603	0.379157	0.888373
C101	C	-0.000014	0.443638	0.823885
C102	C	-0.000019	0.379127	0.888394
C103	C	0.190080	0.633699	0.443738
C104	C	0.254592	0.633692	0.379229
C105	C	0.000013	0.823797	0.443735
C106	C	0.000018	0.888308	0.379225
C107	C	0.190087	0.823774	0.443750
C108	C	0.254601	0.888278	0.379246
C109	C	-0.190082	0.633736	0.823881
C110	C	-0.254594	0.633743	0.888390
C111	C	-0.322020	0.385986	0.918671
C112	C	-0.382644	0.325384	0.979289
C113	C	-0.375848	0.257953	1.009603
C114	C	-0.308424	0.251126	0.979303
C115	C	-0.247802	0.311727	0.918690
C116	C	-0.037145	0.311714	0.918690
C117	C	-0.037163	0.251093	0.979312
C118	C	-0.000052	0.257886	1.009633
C119	C	0.037075	0.325307	0.979335
C120	C	0.037089	0.385926	0.918718
C121	C	0.322011	0.670807	0.348934
C122	C	0.382632	0.670816	0.288313
C123	C	0.375833	0.633704	0.257992
C124	C	0.308408	0.596588	0.288290
C125	C	0.247788	0.596584	0.348906
C126	C	0.037137	0.955721	0.348936
C127	C	0.037139	1.016342	0.288331
C128	C	0.000025	1.009549	0.258011
C129	C	-0.037099	0.942128	0.288306
C130	C	-0.037105	0.881509	0.348915
C131	C	0.247783	0.955696	0.348947
C132	C	0.308395	1.016310	0.288330
C133	C	0.375824	1.009504	0.258017
C134	C	0.382641	0.942078	0.288318
C135	C	0.322030	0.881466	0.348930
C136	C	-0.247772	0.670858	0.918696
C137	C	-0.308382	0.670861	0.979316
C138	C	-0.375813	0.633754	1.009626
C139	C	-0.382633	0.596635	0.979318
C140	C	-0.322024	0.596627	0.918703
H141	H	0.095218	0.373494	0.633814
H142	H	-0.629828	0.728938	0.633828
F143	F	-0.076678	0.179346	1.011543
H144	H	0.067372	1.071233	0.263671
H145	H	0.095226	0.263530	0.633814
F146	F	-0.454395	0.332665	1.011523
H147	H	0.302831	1.071205	0.263668
H148	H	0.327560	0.701030	0.373613
H149	H	0.425172	1.058864	0.208662
H150	H	0.000035	1.058915	0.208660
F151	F	-0.329268	0.457745	0.886425
H152	H	-0.425217	0.208614	1.058958
H153	H	0.067330	0.566365	-0.105958
F154	F	-0.377758	0.525369	0.633802
F155	F	0.076610	0.457671	0.886478
F156	F	-0.108360	0.255951	0.633785
F157	F	0.108369	-0.113638	0.633831
F158	F	-0.440313	0.633770	1.074138
H159	H	-0.000068	0.208520	1.058991
H160	H	0.067290	0.330828	1.004033
F161	F	-0.377777	0.742096	0.633799
F162	F	-0.747376	0.742050	0.633834
H163	H	-0.067316	0.936607	0.263611
H164	H	-0.437543	0.566423	1.004005
F165	F	-0.108350	-0.113644	0.633814
F166	F	-0.329295	0.557128	0.886449
F167	F	-0.076610	0.809764	0.381140
F168	F	0.454410	0.934846	0.256049
H169	H	0.437527	0.701040	0.263655
H170	H	0.192884	0.961252	0.373620
H171	H	-0.192910	0.306157	0.894023
F172	F	0.440358	0.633714	0.193479
F173	F	0.076619	0.557083	0.381160
H174	H	-0.260220	0.728994	0.633780
F175	F	-0.108365	0.381086	0.633768
F176	F	0.108356	0.011479	0.633843
F177	F	0.329297	0.809716	0.381174
H178	H	-0.302902	0.196216	1.003995
F179	F	-0.176013	0.710355	0.886448
F180	F	-0.108355	0.011483	0.633806
F181	F	0.301183	0.557093	0.256012
H182	H	-0.260217	0.538502	0.633804
H183	H	0.067364	0.961267	0.373611
F184	F	-0.076649	0.304467	0.886432
H185	H	0.192894	0.566357	0.373570
H186	H	-0.302815	0.701092	1.003982
F187	F	0.076613	0.557082	0.256042
H188	H	-0.739770	0.538454	0.633821
F189	F	-0.622229	0.525334	0.633829
H190	H	-0.067321	0.701088	0.373566
F191	F	-0.076609	0.710356	0.256030
H192	H	0.067337	0.566368	0.004001
H193	H	-0.067350	0.701061	-0.105957
H194	H	-0.067347	0.701064	0.004007
