data_functionalizedCrystal
_audit_creation_method	'MofGen! by Chris Wilmer'
_symmetry_space_group_name_H-M	'P1'
_symmetry_Int_Tables_number	1
_symmetry_cell_setting	triclinic
loop_
_symmetry_equiv_pos_as_xyz
  x,y,z
_cell_length_a	18.050591
_cell_length_b	14.908520
_cell_length_c	14.908694
_cell_angle_alpha	83.255478
_cell_angle_beta	86.677417
_cell_angle_gamma	86.682923
loop_
_atom_site_label
_atom_site_type_symbol
_atom_site_fract_x
_atom_site_fract_y
_atom_site_fract_z
Zn1	Zn	1.142129	0.389979	-0.532732
Zn2	Zn	1.128493	0.532623	-0.390099
Zn3	Zn	1.011164	0.381270	-0.381370
Zn4	Zn	1.011132	0.541285	-0.541393
O5	O	1.073229	0.461289	-0.461398
O6	O	1.244245	0.408921	-0.513840
O7	O	1.107235	0.505277	-0.262278
O8	O	1.034257	0.255761	-0.394171
O9	O	1.234227	0.513721	-0.409048
O10	O	1.130476	0.262159	-0.505376
O11	O	1.021034	0.394078	-0.255865
O12	O	0.907235	0.402476	-0.402569
O13	O	1.034203	0.528483	-0.666907
O14	O	0.907212	0.520038	-0.520138
O15	O	1.130445	0.417319	-0.660544
O16	O	1.107205	0.660437	-0.417446
O17	O	1.020980	0.666800	-0.528602
C18	C	1.062630	0.696462	-0.474931
C19	C	1.058165	0.797072	-0.480750
C20	C	0.880277	0.461253	-0.461346
C21	C	0.797730	0.461260	-0.461347
C22	C	1.083842	0.474839	-0.697486
C23	C	1.088364	0.480613	-0.798093
C24	C	0.598280	0.397267	-0.397548
C25	C	0.544173	0.478543	-0.380035
C26	C	0.646601	0.461290	-0.461389
C27	C	0.553625	0.380042	-0.478902
C28	C	0.500616	0.461311	-0.461428
C29	C	0.593577	0.542607	-0.443836
C30	C	0.603037	0.444052	-0.542737
C31	C	0.548951	0.525387	-0.525259
C32	C	0.730698	0.461276	-0.461365
C33	C	0.416520	0.461334	-0.461454
C34	C	1.266936	0.461327	-0.461451
C35	C	1.349482	0.461343	-0.461474
C36	C	1.083891	0.225199	-0.447833
C37	C	1.088434	0.124592	-0.442053
C38	C	1.139662	0.979446	-0.376033
C39	C	1.135469	1.073978	-0.381497
C40	C	1.045591	1.080668	-0.497149
C41	C	1.049784	0.986137	-0.491684
C42	C	1.096820	0.935529	-0.431123
C43	C	1.101009	0.840995	-0.425654
C44	C	1.011135	0.847688	-0.541309
C45	C	1.006942	0.942219	-0.546774
C46	C	1.007083	0.375674	-0.980466
C47	C	1.011330	0.381096	-1.074995
C48	C	1.101099	0.496884	-1.081680
C49	C	1.096853	0.491461	-0.987152
C50	C	1.049844	0.430853	-0.936548
C51	C	1.045602	0.425427	-0.842017
C52	C	1.135367	0.541219	-0.848704
C53	C	1.139613	0.546641	-0.943233
C54	C	1.062704	0.447727	-0.226226
C55	C	1.058337	0.441698	-0.125605
H56	H	0.619934	0.343178	-0.343508
H57	H	0.628755	0.429430	-0.611492
H58	H	0.976248	0.811920	-0.586165
Br59	Br	1.193618	1.133578	-0.306734
H60	H	1.139361	0.546240	-1.122898
H61	H	0.611189	0.611342	-0.428963
H62	H	0.976510	0.336163	-1.110750
Br63	Br	0.513073	0.615734	-0.615280
Br64	Br	0.943299	0.293411	-0.911785
Br65	Br	0.981809	0.343171	-0.773341
H66	H	1.177884	0.595989	-0.984447
H67	H	1.139306	0.799791	-0.376340
H68	H	0.968649	0.983437	-0.596083
Br69	Br	0.501337	0.502874	-0.265404
Br70	Br	0.524103	0.265510	-0.503560
Br71	Br	1.203480	0.910758	-0.293828
H72	H	1.007302	1.121890	-0.546460
Br73	Br	1.193407	0.616106	-0.789096
