data_functionalizedCrystal
_audit_creation_method	'MofGen! by Chris Wilmer'
_symmetry_space_group_name_H-M	'P1'
_symmetry_Int_Tables_number	1
_symmetry_cell_setting	triclinic
loop_
_symmetry_equiv_pos_as_xyz
  x,y,z
_cell_length_a	12.759400
_cell_length_b	17.077404
_cell_length_c	17.077396
_cell_angle_alpha	90.017442
_cell_angle_beta	89.973580
_cell_angle_gamma	89.988247
loop_
_atom_site_label
_atom_site_type_symbol
_atom_site_fract_x
_atom_site_fract_y
_atom_site_fract_z
Zn1	Zn	-0.418340	-1.200082	-0.443863
Zn2	Zn	-0.594043	-1.200013	-0.312603
Zn3	Zn	-0.418370	-1.068819	-0.312610
Zn4	Zn	-0.593968	-1.068800	-0.443826
O5	O	-0.506180	-1.134429	-0.378226
O6	O	-0.441666	-1.309920	-0.426463
O7	O	-0.570783	-1.182589	-0.202757
O8	O	-0.271345	-1.086268	-0.330039
O9	O	-0.570754	-1.309869	-0.330027
O10	O	-0.271323	-1.182706	-0.426470
O11	O	-0.441717	-1.086201	-0.202762
O12	O	-0.441644	-0.958970	-0.330004
O13	O	-0.570627	-1.086236	-0.553678
O14	O	-0.570656	-0.958956	-0.426408
O15	O	-0.441594	-1.182688	-0.553705
O16	O	-0.741054	-1.182571	-0.329992
O17	O	-0.740999	-1.086170	-0.426401
C18	C	-0.506146	-0.930481	-0.378203
C19	C	-0.506157	-0.843231	-0.378212
C20	C	-0.439059	-0.802268	-0.428502
C21	C	-0.439064	-0.720287	-0.428504
C22	C	-0.506173	-0.679271	-0.378219
C23	C	-0.573274	-0.720240	-0.327924
C24	C	-0.573262	-0.802219	-0.327919
C25	C	-0.573294	-0.549370	-0.327939
C26	C	-0.573307	-0.467386	-0.327945
C27	C	-0.439096	-0.467438	-0.428524
C28	C	-0.439084	-0.549417	-0.428519
C29	C	-0.506187	-0.590380	-0.378225
C30	C	-0.779148	-1.134382	-0.378209
C31	C	-0.895924	-1.134434	-0.378228
C32	C	-0.950780	-1.184686	-0.328084
C33	C	-1.060504	-1.184734	-0.328108
C34	C	-1.060507	-1.084272	-0.428424
C35	C	-0.950785	-1.084228	-0.428403
C36	C	-0.895919	-1.234891	-0.277909
C37	C	-0.950775	-1.285147	-0.227760
C38	C	-1.060499	-1.285195	-0.227784
C39	C	-1.115367	-1.234988	-0.277958
C40	C	-0.232147	-1.134497	-0.378259
C41	C	-0.115370	-1.134526	-0.378274
C42	C	-0.506099	-1.134468	-0.582970
C43	C	-0.506064	-1.134485	-0.670220
C44	C	-0.506210	-0.339173	-0.378243
C45	C	-0.506209	-0.426423	-0.378235
C46	C	-0.438851	-1.084311	-0.711212
C47	C	-0.438827	-1.084324	-0.793193
C48	C	-0.506012	-1.134515	-0.834179
C49	C	-0.573232	-1.184691	-0.793181
C50	C	-0.573261	-1.184674	-0.711202
C51	C	-0.573167	-1.184725	-0.964052
C52	C	-0.573137	-1.184743	-1.046036
C53	C	-0.438733	-1.084375	-1.046042
C54	C	-0.438762	-1.084358	-0.964063
C55	C	-0.505981	-1.134535	-0.923070
C56	C	-0.506185	-1.134434	-0.174278
C57	C	-0.505924	-1.134570	-0.087028
H58	H	-0.384414	-0.835657	-0.469452
H59	H	-0.384136	-1.043444	-0.677846
H60	H	-0.384456	-0.434082	-0.469474
Br61	Br	-0.664490	-1.252763	-0.655569
H62	H	-0.384000	-1.043520	-1.079421
H63	H	-0.906121	-1.043309	-0.469236
Br64	Br	-1.134970	-1.016137	-0.496511
Br65	Br	-0.347572	-1.016248	-0.908438
Br66	Br	-0.347663	-1.016185	-0.848822
Br67	Br	-0.664307	-1.252868	-1.101661
H68	H	-0.627894	-1.225591	-0.930678
Br69	Br	-0.876315	-1.353291	-0.159681
Br70	Br	-0.348000	-0.664697	-0.496758
Br71	Br	-0.664422	-1.252801	-0.848805
H72	H	-0.384445	-0.582810	-0.469470
Br73	Br	-0.664414	-0.411721	-0.259724
H74	H	-0.627933	-0.582720	-0.286982
Br75	Br	-0.664343	-0.664577	-0.259673
H76	H	-0.806576	-1.234856	-0.277882
Br77	Br	-0.664325	-0.857813	-0.259664
Br78	Br	-1.264278	-1.234696	-0.277630
Br79	Br	-1.134944	-1.353406	-0.159735
