data_functionalizedCrystal
_audit_creation_method	'MofGen! by Chris Wilmer'
_symmetry_space_group_name_H-M	'P1'
_symmetry_Int_Tables_number	1
_symmetry_cell_setting	triclinic
loop_
_symmetry_equiv_pos_as_xyz
  x,y,z
_cell_length_a	19.288864
_cell_length_b	15.455301
_cell_length_c	19.288865
_cell_angle_alpha	93.013473
_cell_angle_beta	83.136245
_cell_angle_gamma	93.022369
loop_
_atom_site_label
_atom_site_type_symbol
_atom_site_fract_x
_atom_site_fract_y
_atom_site_fract_z
O1	O	0.924065	0.072421	0.089363
O2	O	1.257398	0.405754	0.422697
O3	O	1.590731	0.739087	0.756030
O4	O	0.721802	0.072363	0.101050
O5	O	1.055135	0.405696	0.434383
O6	O	1.388469	0.739029	0.767717
O7	O	0.828777	0.072376	-0.005924
O8	O	1.162110	0.405709	0.327409
O9	O	1.495444	0.739043	0.660743
O10	O	0.817090	0.072407	0.196338
O11	O	1.150423	0.405740	0.529671
O12	O	1.483756	0.739074	0.863004
O13	O	0.823357	-0.071889	-0.011337
O14	O	1.156690	0.261444	0.321996
O15	O	1.490023	0.594778	0.655329
O16	O	0.716381	-0.071903	0.095637
O17	O	1.049715	0.261431	0.428970
O18	O	1.383048	0.594764	0.762303
O19	O	0.918644	-0.071845	0.083950
O20	O	1.251978	0.261489	0.417284
O21	O	1.585311	0.594822	0.750617
Cu22	Cu	0.817018	-0.085046	0.089299
Cu23	Cu	1.150351	0.248287	0.422633
Cu24	Cu	1.483685	0.581621	0.755966
Cu25	Cu	0.823428	0.085564	0.095701
Cu26	Cu	1.156762	0.418897	0.429034
Cu27	Cu	1.490095	0.752231	0.762368
O28	O	0.811669	-0.071858	0.190924
O29	O	1.145002	0.261475	0.524258
O30	O	1.478336	0.594809	0.857591
C31	C	0.693215	0.000222	0.097967
C32	C	1.026548	0.333556	0.431300
C33	C	1.359882	0.666889	0.764634
C34	C	0.616110	0.000199	0.096837
C35	C	0.949444	0.333533	0.430170
C36	C	1.282777	0.666866	0.763504
C37	C	0.571415	0.000223	0.159606
C38	C	0.904748	0.333556	0.492939
C39	C	1.238082	0.666889	0.826273
C40	C	0.498968	0.000232	0.158546
C41	C	0.832302	0.333565	0.491879
C42	C	1.165635	0.666899	0.825212
C43	C	0.471221	0.000236	0.094714
C44	C	0.804554	0.333569	0.428047
C45	C	1.137888	0.666902	0.761380
C46	C	0.515926	0.000208	0.031936
C47	C	0.849259	0.333541	0.365270
C48	C	1.182593	0.666874	0.698603
C49	C	0.588371	0.000189	0.032998
C50	C	0.921704	0.333523	0.366331
C51	C	1.255037	0.666856	0.699665
C52	C	0.364859	0.050800	0.046432
C53	C	0.698192	0.384133	0.379765
C54	C	1.031525	0.717466	0.713098
C55	C	0.292415	0.050823	0.045373
C56	C	0.625749	0.384156	0.378706
C57	C	0.959082	0.717490	0.712039
C58	C	0.247777	0.000288	0.091436
C59	C	0.581111	0.333621	0.424769
C60	C	0.914444	0.666954	0.758103
C61	C	0.275591	-0.050260	0.138570
C62	C	0.608924	0.283073	0.471904
C63	C	0.942257	0.616407	0.805237
C64	C	0.348036	-0.050278	0.139632
C65	C	0.681369	0.283055	0.472965
C66	C	1.014702	0.616389	0.806299
C67	C	0.392668	0.000255	0.093555
C68	C	0.726001	0.333588	0.426888
C69	C	1.059334	0.666921	0.760222
C70	C	0.124526	0.000320	0.153059
C71	C	0.457860	0.333653	0.486393
C72	C	0.791193	0.666987	0.819726
C73	C	0.052078	0.000324	0.151996
C74	C	0.385412	0.333657	0.485329
C75	C	0.718745	0.666991	0.818663
C76	C	0.069038	0.000308	0.025385
C77	C	0.402371	0.333641	0.358719
C78	C	0.735705	0.666975	0.692052
C79	C	0.141484	0.000295	0.026450
C80	C	0.474817	0.333629	0.359783
C81	C	0.808151	0.666962	0.693117
C82	C	0.169224	0.000305	0.090289
C83	C	0.502557	0.333639	0.423622
C84	C	0.835890	0.666972	0.756956
N85	N	0.812514	-0.205044	0.084796
N86	N	1.145848	0.128289	0.418129
N87	N	1.479181	0.461622	0.751463
C88	C	0.852804	-0.250416	0.125116
C89	C	1.186138	0.082917	0.458449
C90	C	1.519471	0.416251	0.791782
C91	C	0.849408	-0.341226	0.121706
C92	C	1.182741	-0.007892	0.455039
C93	C	1.516074	0.325441	0.788372
C94	C	0.805717	-0.386662	0.077979
C95	C	1.139050	-0.053329	0.411313
C96	C	1.472384	0.280005	0.744646
C97	C	0.765425	-0.341284	0.037655
C98	C	1.098759	-0.007951	0.370988
C99	C	1.432092	0.325383	0.704322
C100	C	0.768826	-0.250476	0.041062
C101	C	1.102159	0.082857	0.374395
C102	C	1.435493	0.416191	0.707728
C103	C	0.791047	-0.658252	0.063281
C104	C	1.124380	-0.324918	0.396615
C105	C	1.457713	0.008415	0.729948
C106	C	0.787647	-0.749066	0.059879
C107	C	1.120981	-0.415733	0.393212
C108	C	1.454314	-0.082400	0.726546
C109	C	0.871631	-0.749002	0.143929
C110	C	1.204965	-0.415668	0.477262
C111	C	1.538298	-0.082335	0.810596
C112	C	0.875025	-0.658192	0.147335
C113	C	1.208358	-0.324858	0.480668
C114	C	1.541692	0.008475	0.814002
C115	C	0.834736	-0.612822	0.107008
C116	C	1.168070	-0.279488	0.440341
C117	C	1.501403	0.053845	0.773675
N118	N	0.802242	-0.479484	0.074494
N119	N	1.135576	-0.146151	0.407828
N120	N	1.468909	0.187182	0.741161
N121	N	0.838215	-0.520001	0.110490
N122	N	1.171548	-0.186668	0.443823
N123	N	1.504882	0.146666	0.777156
C124	C	0.947231	0.000298	0.087033
C125	C	1.280565	0.333631	0.420367
C126	C	1.613898	0.666964	0.753700
C127	C	1.024336	0.000326	0.088163
C128	C	1.357669	0.333659	0.421497
C129	C	1.691003	0.666993	0.754830
C130	C	0.825691	0.000241	-0.034507
C131	C	1.159024	0.333574	0.298826
C132	C	1.492357	0.666907	0.632159
C133	C	0.824561	0.000233	-0.111611
C134	C	1.157895	0.333566	0.221722
C135	C	1.491228	0.666899	0.555055
N136	N	0.827937	0.205562	0.100199
N137	N	1.161271	0.538895	0.433532
N138	N	1.494604	0.872229	0.766865
C139	C	0.887330	0.000247	-0.156307
C140	C	1.220663	0.333580	0.177026
C141	C	1.553996	0.666913	0.510360
C142	C	0.886270	0.000260	-0.228754
C143	C	1.219603	0.333593	0.104580
C144	C	1.552936	0.666927	0.437913
C145	C	0.822437	0.000242	-0.256502
C146	C	1.155770	0.333576	0.076832
C147	C	1.489103	0.666909	0.410165
C148	C	0.759660	0.000233	-0.211796
C149	C	1.092994	0.333567	0.121537
C150	C	1.426327	0.666900	0.454871
C151	C	0.760723	0.000229	-0.139351
C152	C	1.094056	0.333562	0.193983
C153	C	1.427389	0.666895	0.527316
C154	C	0.770358	-0.050305	-0.366686
C155	C	1.103691	0.283028	-0.033353
C156	C	1.437025	0.616362	0.299981
C157	C	0.769298	-0.050306	-0.439130
C158	C	1.102632	0.283028	-0.105797
C159	C	1.435965	0.616361	0.227536
C160	C	0.819158	0.000261	-0.479947
C161	C	1.152491	0.333594	-0.146613
C162	C	1.485824	0.666927	0.186720
C163	C	0.870089	0.050817	-0.448312
C164	C	1.203422	0.384150	-0.114978
C165	C	1.536755	0.717483	0.218355
C166	C	0.871151	0.050812	-0.375866
C167	C	1.204484	0.384145	-0.042533
C168	C	1.537818	0.717479	0.290800
C169	C	0.821278	0.000248	-0.335056
C170	C	1.154611	0.333581	-0.001722
C171	C	1.487945	0.666915	0.331611
C172	C	0.880781	0.000290	-0.603198
C173	C	1.214114	0.333624	-0.269864
C174	C	1.547448	0.666957	0.063469
C175	C	0.879718	0.000309	-0.675645
C176	C	1.213052	0.333642	-0.342312
C177	C	1.546385	0.666976	-0.008979
C178	C	0.753107	0.000274	-0.658686
C179	C	1.086440	0.333607	-0.325353
C180	C	1.419774	0.666940	0.007980
C181	C	0.754172	0.000264	-0.586240
C182	C	1.087505	0.333597	-0.252907
C183	C	1.420838	0.666930	0.080426
C184	C	0.818011	0.000268	-0.558501
C185	C	1.151344	0.333601	-0.225167
C186	C	1.484677	0.666934	0.108166
C187	C	0.814756	0.000279	0.219508
C188	C	1.148089	0.333612	0.552841
C189	C	1.481422	0.666946	0.886174
C190	C	0.815885	0.000293	0.296612
C191	C	1.149218	0.333626	0.629945
C192	C	1.482552	0.666959	0.963278
H193	H	0.493330	0.000222	-0.020036
H194	H	0.826663	0.333556	0.313298
H195	H	1.159997	0.666889	0.646631
C196	C	0.717354	-0.391258	-0.010433
C197	C	1.050688	-0.057924	0.322900
C198	C	1.384021	0.275409	0.656233
H199	H	0.693847	-0.351227	-0.033960
H200	H	1.027181	-0.017894	0.299374
H201	H	1.360514	0.315439	0.632707
H202	H	0.683974	-0.426684	0.016792
H203	H	1.017308	-0.093351	0.350125
H204	H	1.350641	0.239982	0.683459
H205	H	0.744586	-0.426681	-0.043807
H206	H	1.077920	-0.093348	0.289526
H207	H	1.411253	0.239986	0.622859
H208	H	0.910605	-0.621203	0.182940
H209	H	1.243938	-0.287870	0.516273
H210	H	1.577272	0.045463	0.849606
C211	C	0.893718	-0.391135	0.166064
C212	C	1.227051	-0.057802	0.499397
C213	C	1.560385	0.275532	0.832731
H214	H	0.885441	-0.451724	0.157770
H215	H	1.218774	-0.118391	0.491103
H216	H	1.552108	0.214942	0.824436
H217	H	0.881212	-0.376247	0.214179
H218	H	1.214545	-0.042914	0.547512
H219	H	1.547878	0.290419	0.880846
H220	H	0.941844	-0.376233	0.153600
H221	H	1.275177	-0.042899	0.486933
H222	H	1.608510	0.290434	0.820266
H223	H	0.593996	0.000233	0.211589
H224	H	0.927329	0.333566	0.544922
H225	H	1.260662	0.666899	0.878255
C226	C	0.715512	-0.105933	-0.321792
C227	C	1.048845	0.227401	0.011542
C228	C	1.382178	0.560734	0.344875
H229	H	0.723434	-0.098690	-0.274115
H230	H	1.056767	0.234643	0.059218
H231	H	1.390101	0.567977	0.392552
H232	H	0.719215	-0.165238	-0.336717
H233	H	1.052549	0.168095	-0.003384
H234	H	1.385882	0.501428	0.329949
H235	H	0.670047	-0.088171	-0.326839
H236	H	1.003380	0.245162	0.006495
H237	H	1.336713	0.578495	0.339828
C238	C	0.915951	-0.798910	0.188278
C239	C	1.249284	-0.465577	0.521611
C240	C	1.582618	-0.132243	0.854945
H241	H	0.907675	-0.859500	0.179984
H242	H	1.241008	-0.526166	0.513317
H243	H	1.574341	-0.192833	0.846651
H244	H	0.903456	-0.784025	0.236395
H245	H	1.236789	-0.450691	0.569728
H246	H	1.570122	-0.117358	0.903062
H247	H	0.964075	-0.784005	0.175803
H248	H	1.297408	-0.450672	0.509136
H249	H	1.630741	-0.117338	0.842469
C250	C	0.637538	0.000174	-0.036050
C251	C	0.970872	0.333507	0.297283
C252	C	1.304205	0.666841	0.630617
H253	H	0.610640	0.000182	-0.074220
H254	H	0.943973	0.333516	0.259114
H255	H	1.277307	0.666849	0.592447
H256	H	0.664248	-0.050138	-0.040157
H257	H	0.997582	0.283196	0.293177
H258	H	1.330915	0.616529	0.626510
H259	H	0.668054	0.050486	-0.036376
H260	H	1.001387	0.383819	0.296957
H261	H	1.334721	0.717152	0.630291
C262	C	0.691676	0.000212	-0.090180
C263	C	1.025010	0.333545	0.243153
C264	C	1.358343	0.666878	0.576486
H265	H	0.701452	0.000215	-0.043061
H266	H	1.034785	0.333549	0.290272
H267	H	1.368119	0.666882	0.623605
H268	H	0.663597	-0.050100	-0.100465
H269	H	0.996931	0.283234	0.232869
H270	H	1.330264	0.616567	0.566202
H271	H	0.667387	0.050523	-0.096672
H272	H	1.000720	0.383857	0.236661
H273	H	1.334054	0.717190	0.569994
C274	C	0.378633	-0.105880	0.191469
C275	C	0.711966	0.227453	0.524802
C276	C	1.045299	0.560787	0.858135
H277	H	0.428170	-0.098646	0.185505
H278	H	0.761504	0.234687	0.518838
H279	H	1.094837	0.568020	0.852171
H280	H	0.365330	-0.165187	0.182965
H281	H	0.698663	0.168146	0.516299
H282	H	1.031997	0.501479	0.849632
H283	H	0.361282	-0.088097	0.237920
H284	H	0.694615	0.245237	0.571254
H285	H	1.027948	0.578570	0.904587
C286	C	0.449795	0.000271	0.227594
C287	C	0.783128	0.333604	0.560927
C288	C	1.116462	0.666938	0.894261
H289	H	0.476692	0.000282	0.265766
H290	H	0.810026	0.333615	0.599099
H291	H	1.143359	0.666948	0.932432
H292	H	0.419268	-0.050025	0.227932
H293	H	0.752601	0.283308	0.561265
H294	H	1.085935	0.616642	0.894598
H295	H	0.423097	0.050598	0.231688
H296	H	0.756430	0.383932	0.565021
H297	H	1.089764	0.717265	0.898355
C298	C	0.739569	-0.799045	0.011794
C299	C	1.072902	-0.465712	0.345128
C300	C	1.406236	-0.132378	0.678461
H301	H	0.716060	-0.759019	-0.011734
H302	H	1.049393	-0.425686	0.321599
H303	H	1.382727	-0.092353	0.654932
H304	H	0.706191	-0.834466	0.039027
H305	H	1.039524	-0.501133	0.372360
H306	H	1.372857	-0.167799	0.705694
H307	H	0.766797	-0.834475	-0.021578
H308	H	1.100130	-0.501142	0.311755
H309	H	1.433464	-0.167808	0.645089
C310	C	0.226499	-0.105847	0.189246
C311	C	0.559832	0.227487	0.522580
C312	C	0.893165	0.560820	0.855913
H313	H	0.179370	-0.098604	0.181861
H314	H	0.512703	0.234729	0.515195
H315	H	0.846037	0.568062	0.848528
H316	H	0.232891	-0.088068	0.236041
H317	H	0.566224	0.245266	0.569374
H318	H	0.899558	0.578599	0.902708
H319	H	0.236940	-0.165164	0.181091
H320	H	0.570274	0.168170	0.514424
H321	H	0.903607	0.501503	0.847757
C322	C	0.155043	0.000322	0.223277
C323	C	0.488376	0.333656	0.556611
C324	C	0.821710	0.666989	0.889944
H325	H	0.118045	0.000325	0.260509
H326	H	0.451378	0.333658	0.593842
H327	H	0.784711	0.666992	0.927176
H328	H	0.184857	0.050626	0.228212
H329	H	0.518190	0.383959	0.561545
H330	H	0.851524	0.717292	0.894878
H331	H	0.181045	-0.049997	0.224434
H332	H	0.514378	0.283336	0.557767
H333	H	0.847712	0.616669	0.891101
C334	C	0.713277	-0.105909	-0.473926
C335	C	1.046611	0.227424	-0.140592
C336	C	1.379944	0.560757	0.192741
H337	H	0.719789	-0.098673	-0.522918
H338	H	1.053123	0.234661	-0.189584
H339	H	1.386456	0.567994	0.143749
H340	H	0.668166	-0.088144	-0.455229
H341	H	1.001500	0.245189	-0.121896
H342	H	1.334833	0.578522	0.211438
H343	H	0.717324	-0.165222	-0.465105
H344	H	1.050657	0.168111	-0.131771
H345	H	1.383991	0.501444	0.201562
H346	H	0.015687	0.000338	0.203112
H347	H	0.349020	0.333671	0.536445
H348	H	0.682354	0.667005	0.869779
C349	C	0.689445	0.000217	-0.242312
C350	C	1.022778	0.333551	0.091021
C351	C	1.356111	0.666884	0.424354
H352	H	0.652213	0.000216	-0.205314
H353	H	0.985546	0.333549	0.128019
H354	H	1.318879	0.666883	0.461353
H355	H	0.684504	-0.050089	-0.272117
H356	H	1.017837	0.283244	0.061217
H357	H	1.351171	0.616578	0.394550
H358	H	0.688294	0.050534	-0.268324
H359	H	1.021627	0.383867	0.065009
H360	H	1.354960	0.717201	0.398342
H361	H	0.758241	-0.621322	0.030444
H362	H	1.091574	-0.287989	0.363777
H363	H	1.424907	0.045344	0.697110
C364	C	0.724504	-0.200567	-0.003287
C365	C	1.057837	0.132766	0.330047
C366	C	1.391171	0.466100	0.663380
H367	H	0.697991	-0.240631	-0.029812
H368	H	1.031324	0.092702	0.303521
H369	H	1.364658	0.426035	0.636855
H370	H	0.754394	-0.165135	-0.033997
H371	H	1.087728	0.168199	0.299336
H372	H	1.421061	0.501532	0.632670
H373	H	0.693772	-0.165154	0.026592
H374	H	1.027105	0.168179	0.359925
H375	H	1.360438	0.501513	0.693258
H376	H	0.937385	0.000275	-0.265152
H377	H	1.270718	0.333608	0.068182
H378	H	1.604052	0.666941	0.401515
C379	C	0.038525	0.000317	-0.044829
C380	C	0.371858	0.333651	0.288505
C381	C	0.705191	0.666984	0.621838
H382	H	-0.011022	0.000338	-0.036472
H383	H	0.322311	0.333671	0.296861
H384	H	0.655644	0.667004	0.630195
H385	H	0.051973	-0.049994	-0.072557
H386	H	0.385307	0.283339	0.260777
H387	H	0.718640	0.616672	0.594110
H388	H	0.055789	0.050629	-0.068771
H389	H	0.389123	0.383962	0.264562
H390	H	0.722456	0.717295	0.597895
H391	H	0.177876	0.000281	-0.024663
H392	H	0.511210	0.333614	0.308670
H393	H	0.844543	0.666948	0.642004
C394	C	0.957550	0.000267	-0.125796
C395	C	1.290883	0.333600	0.207537
C396	C	1.624217	0.666933	0.540870
H397	H	0.994781	0.000285	-0.162796
H398	H	1.328115	0.333619	0.170538
H399	H	1.661448	0.666952	0.503871
H400	H	0.958710	-0.050039	-0.099780
H401	H	1.292043	0.283294	0.233553
H402	H	1.625376	0.616627	0.566887
H403	H	0.962485	0.050584	-0.095996
H404	H	1.295818	0.383917	0.237337
H405	H	1.629151	0.717250	0.570670
H406	H	0.269775	0.091986	0.006996
H407	H	0.603109	0.425319	0.340329
H408	H	0.936442	0.758652	0.673663
C409	C	0.927163	0.106428	-0.341068
C410	C	1.260497	0.439761	-0.007735
C411	C	1.593830	0.773094	0.325598
H412	H	0.956705	0.136551	-0.375747
H413	H	1.290038	0.469884	-0.042414
H414	H	1.623372	0.803218	0.290920
H415	H	0.954255	0.069999	-0.317933
H416	H	1.287588	0.403332	0.015400
H417	H	1.620921	0.736666	0.348734
H418	H	0.905081	0.147062	-0.308062
H419	H	1.238415	0.480395	0.025272
H420	H	1.571748	0.813728	0.358605
C421	C	0.413954	0.106400	-0.004235
C422	C	0.747287	0.439733	0.329098
C423	C	1.080620	0.773067	0.662431
H424	H	0.387014	0.136518	-0.032449
H425	H	0.720348	0.469851	0.300885
H426	H	1.053681	0.803184	0.634218
H427	H	0.444594	0.069960	-0.033237
H428	H	0.777927	0.403293	0.300096
H429	H	1.111260	0.736627	0.633429
H430	H	0.440534	0.147039	0.021729
H431	H	0.773867	0.480372	0.355062
H432	H	1.107200	0.813705	0.688395
C433	C	0.924934	0.106448	-0.493199
C434	C	1.258267	0.439782	-0.159865
C435	C	1.591601	0.773115	0.173468
H436	H	0.917003	0.099222	-0.540874
H437	H	1.250337	0.432555	-0.207541
H438	H	1.583670	0.765889	0.125793
H439	H	0.970398	0.088694	-0.488154
H440	H	1.303731	0.422027	-0.154821
H441	H	1.637064	0.755360	0.178512
H442	H	0.921225	0.165757	-0.478268
H443	H	1.254558	0.499090	-0.144934
H444	H	1.587892	0.832423	0.188399
H445	H	0.932763	0.000298	-0.580611
H446	H	1.266096	0.333631	-0.247278
H447	H	1.599429	0.666964	0.086056
H448	H	0.888378	-0.213428	0.160727
H449	H	1.221711	0.119905	0.494060
H450	H	1.555045	0.453239	0.827393
H451	H	0.930834	0.000325	-0.712036
H452	H	1.264168	0.333658	-0.378703
H453	H	1.597501	0.666992	-0.045370
C454	C	0.682892	0.000257	-0.689201
C455	C	1.016225	0.333590	-0.355867
C456	C	1.349559	0.666924	-0.022534
H457	H	0.691248	0.000258	-0.738748
H458	H	1.024581	0.333591	-0.405415
H459	H	1.357915	0.666925	-0.072082
H460	H	0.658946	0.050557	-0.671947
H461	H	0.992280	0.383890	-0.338614
H462	H	1.325613	0.717224	-0.005280
H463	H	0.655166	-0.050066	-0.675742
H464	H	0.988499	0.283267	-0.342408
H465	H	1.321833	0.616600	-0.009075
H466	H	0.703059	0.000248	-0.549848
H467	H	1.036392	0.333581	-0.216515
H468	H	1.369725	0.666914	0.116819
