data_functionalizedCrystal
_audit_creation_method	'MofGen! by Chris Wilmer'
_symmetry_space_group_name_H-M	'P1'
_symmetry_Int_Tables_number	1
_symmetry_cell_setting	triclinic
loop_
_symmetry_equiv_pos_as_xyz
  x,y,z
_cell_length_a	14.044220
_cell_length_b	14.044190
_cell_length_c	16.176319
_cell_angle_alpha	89.988653
_cell_angle_beta	89.997715
_cell_angle_gamma	93.190328
loop_
_atom_site_label
_atom_site_type_symbol
_atom_site_fract_x
_atom_site_fract_y
_atom_site_fract_z
O1	O	1.277178	0.230171	-0.068675
O2	O	1.777178	0.730171	0.431325
O3	O	1.000506	0.221865	-0.068696
O4	O	1.500506	0.721865	0.431304
O5	O	1.134686	0.087682	-0.068670
O6	O	1.634686	0.587682	0.431330
O7	O	1.142998	0.364354	-0.068702
O8	O	1.642998	0.864354	0.431298
O9	O	1.134665	0.087671	0.068824
O10	O	1.634665	0.587671	0.568824
O11	O	1.000485	0.221854	0.068797
O12	O	1.500485	0.721854	0.568797
O13	O	1.277157	0.230160	0.068818
O14	O	1.777157	0.730160	0.568818
Cu15	Cu	1.138819	0.226006	0.081362
Cu16	Cu	1.638819	0.726006	0.581362
Cu17	Cu	1.138844	0.226019	-0.081240
Cu18	Cu	1.638844	0.726019	0.418760
O19	O	1.142977	0.364343	0.068792
O20	O	1.642977	0.864343	0.568792
C21	C	0.964874	0.218224	0.000049
C22	C	1.464874	0.718224	0.500049
C23	C	0.858731	0.207380	0.000041
C24	C	1.358731	0.707380	0.500041
C25	C	0.664392	0.187553	0.000060
C26	C	1.164392	0.687553	0.500060
C27	C	0.613264	0.264468	0.000055
C28	C	1.113264	0.764468	0.500055
C29	C	0.505128	0.253436	0.000065
C30	C	1.005128	0.753436	0.500065
C31	C	0.772539	0.198583	0.000050
C32	C	1.272539	0.698583	0.500050
C33	C	1.131039	0.052054	0.000079
C34	C	1.631039	0.552054	0.500079
C35	C	1.120191	-0.054089	0.000086
C36	C	1.620191	0.445911	0.500086
C37	C	1.177292	-0.299547	0.000057
C38	C	1.677292	0.200453	0.500057
C39	C	1.100375	-0.248422	0.000057
C40	C	1.600375	0.251578	0.500057
C41	C	1.111404	-0.140285	0.000073
C42	C	1.611404	0.359715	0.500073
C43	C	1.166265	-0.407694	0.000042
C44	C	1.666265	0.092306	0.500042
C45	C	1.312789	0.233801	0.000072
C46	C	1.812789	0.733801	0.500072
C47	C	1.418932	0.244646	0.000073
C48	C	1.918932	0.744646	0.500073
C49	C	1.146624	0.399971	0.000041
C50	C	1.646624	0.899971	0.500041
C51	C	1.157472	0.506114	0.000029
C52	C	1.657472	1.006114	0.500029
N53	N	1.138809	0.225997	0.195727
N54	N	1.638809	0.725997	0.695727
N55	N	1.138861	0.226021	-0.195605
N56	N	1.638861	0.726021	0.304395
C57	C	1.198245	0.166609	0.239003
C58	C	1.698245	0.666609	0.739003
C59	C	1.198250	0.166608	0.325550
C60	C	1.698250	0.666608	0.825550
C61	C	1.138822	0.226001	0.368820
C62	C	1.638822	0.726001	0.868820
C63	C	1.079379	0.285392	0.325538
C64	C	1.579379	0.785392	0.825538
C65	C	1.079370	0.285387	0.238992
C66	C	1.579370	0.785387	0.738992
C67	C	1.079413	0.285413	0.674566
C68	C	1.579413	0.785413	1.174566
C69	C	1.079429	0.285415	0.761118
C70	C	1.579429	0.785415	1.261118
C71	C	1.198293	0.166634	0.761124
C72	C	1.698293	0.666634	1.261124
C73	C	1.198284	0.166629	0.674578
C74	C	1.698284	0.666629	1.174578
C75	C	1.138838	0.226015	0.631304
C76	C	1.638838	0.726015	1.131304
C77	C	1.138832	0.226014	0.537460
C78	C	1.638832	0.726014	1.037460
C79	C	1.138832	0.226008	0.462662
C80	C	1.638832	0.726008	0.962662
H81	H	0.626954	0.113425	0.000073
H82	H	1.126954	0.613425	0.500073
C83	C	0.663833	0.364619	0.000032
C84	C	1.163833	0.864619	0.500032
H85	H	0.617532	0.411426	0.000033
H86	H	1.117532	0.911426	0.500033
H87	H	0.702576	0.372108	-0.047920
H88	H	1.202576	0.872108	0.452080
H89	H	0.702581	0.372110	0.047980
H90	H	1.202581	0.872110	0.547980
H91	H	1.026243	-0.285865	0.000047
H92	H	1.526243	0.214135	0.500047
H93	H	1.030970	0.333746	0.203758
H94	H	1.530970	0.833746	0.703758
H95	H	1.251418	-0.262106	0.000071
H96	H	1.751418	0.237894	0.500071
C97	C	1.263673	0.101298	0.808727
C98	C	1.763673	0.601298	1.308727
H99	H	1.255163	0.109796	0.866468
H100	H	1.755163	0.609796	1.366468
H101	H	1.328265	0.117091	0.794535
H102	H	1.828265	0.617091	1.294535
H103	H	1.247912	0.036694	0.794555
H104	H	1.747912	0.536694	1.294555
H105	H	1.031033	0.333782	0.796347
H106	H	1.531033	0.833782	1.296347
C107	C	1.263615	0.101274	0.191414
C108	C	1.763615	0.601274	0.691414
H109	H	1.299006	0.065898	0.229586
H110	H	1.799006	0.565898	0.729586
H111	H	1.306257	0.138995	0.157638
H112	H	1.806257	0.638995	0.657638
H113	H	1.225901	0.058602	0.157668
H114	H	1.725901	0.558602	0.657668
C115	C	1.263640	0.101291	0.373150
C116	C	1.763640	0.601291	0.873150
H117	H	1.299042	0.065929	0.334985
H118	H	1.799042	0.565929	0.834985
H119	H	1.225951	0.058620	0.406926
H120	H	1.725951	0.558620	0.906926
H121	H	1.306287	0.139034	0.406896
H122	H	1.806287	0.639034	0.906896
H123	H	1.246679	0.118269	0.639351
H124	H	1.746679	0.618269	1.139351
H125	H	1.031012	0.333769	0.639339
H126	H	1.531012	0.833769	1.139339
H127	H	1.030987	0.333748	0.360773
H128	H	1.530987	0.833748	0.860773
