data_functionalizedCrystal
_audit_creation_method	'MofGen! by Chris Wilmer'
_symmetry_space_group_name_H-M	'P1'
_symmetry_Int_Tables_number	1
_symmetry_cell_setting	triclinic
loop_
_symmetry_equiv_pos_as_xyz
  x,y,z
_cell_length_a	6.817900
_cell_length_b	17.253917
_cell_length_c	17.078481
_cell_angle_alpha	99.951811
_cell_angle_beta	99.306161
_cell_angle_gamma	102.659311
loop_
_atom_site_label
_atom_site_type_symbol
_atom_site_fract_x
_atom_site_fract_y
_atom_site_fract_z
V1	V	-3.979160	-0.111101	-0.254878
O2	O	-3.968069	0.005532	-0.242279
O3	O	-3.930531	-0.220480	-0.260587
O4	O	-3.910213	-0.109307	-0.362640
O5	O	-3.988528	-0.106410	-0.139519
V6	V	-4.465480	-0.097160	-0.240175
O7	O	-4.234283	-0.141680	-0.287131
O8	O	-4.660554	-0.066580	-0.207923
O9	O	-4.290902	0.012219	-0.234467
O10	O	-4.593967	-0.213793	-0.252775
O11	O	-4.573508	-0.101850	-0.355535
O12	O	-4.311220	-0.098954	-0.132414
C13	C	-3.776141	-0.247147	-0.258489
C14	C	-3.817531	-0.336565	-0.263875
C15	C	-3.750223	-0.105334	-0.388667
C16	C	-3.775133	-0.104591	-0.476811
C17	C	-3.810620	-0.367142	-0.192979
C18	C	-3.849529	-0.451160	-0.198042
C19	C	-3.895337	-0.504600	-0.274002
C20	C	-3.902254	-0.474019	-0.344903
C21	C	-3.863359	-0.390002	-0.339839
C22	C	-4.014503	-0.757102	-0.297020
C23	C	-4.053393	-0.841124	-0.302078
C24	C	-4.000669	-0.818260	-0.155217
C25	C	-3.961764	-0.734242	-0.150159
C26	C	-3.968695	-0.703668	-0.221061
N27	N	-3.935103	-0.590481	-0.279179
N28	N	-3.928943	-0.617789	-0.215883
C29	C	-3.968160	-0.108257	-0.522535
C30	C	-3.991554	-0.107559	-0.605356
C31	C	-3.821922	-0.103200	-0.642453
C32	C	-3.628878	-0.099531	-0.596722
C33	C	-3.605484	-0.100223	-0.513902
C34	C	-3.872443	-0.100692	-0.889686
C35	C	-3.895854	-0.100002	-0.972514
C36	C	-4.258528	-0.108029	-0.981141
C37	C	-4.235119	-0.108726	-0.898320
C38	C	-4.042077	-0.105053	-0.852596
N39	N	-3.845831	-0.102488	-0.727109
N40	N	-4.018167	-0.105758	-0.767939
C41	C	-4.108634	0.038882	-0.236563
C42	C	-4.046481	0.128299	-0.231182
C43	C	-4.134553	-0.102930	-0.106383
C44	C	-4.088881	-0.103668	-0.018237
H45	H	-3.843904	-0.476052	-0.140311
O46	O	-3.870071	-0.360163	-0.408630
C47	C	-3.825875	-0.274548	-0.387872
H48	H	-3.860890	-0.254672	-0.325545
H49	H	-3.656488	-0.247645	-0.386190
C50	C	-3.916106	-0.268628	-0.528217
C51	C	-3.959129	-0.244217	-0.451668
H52	H	-3.998296	-0.249917	-0.567571
H53	H	-3.945875	-0.326308	-0.542203
H54	H	-3.774948	-0.246207	-0.526803
H55	H	-4.100279	-0.266646	-0.453080
H56	H	-3.929387	-0.186539	-0.437684
O57	O	-4.020909	-0.727301	-0.365825
C58	C	-3.827691	-0.675509	-0.363281
H59	H	-3.741527	-0.651703	-0.297428
H60	H	-3.735041	-0.710801	-0.398656
C61	C	-3.964008	-0.632656	-0.482552
C62	C	-3.858186	-0.603412	-0.401670
H63	H	-3.982815	-0.588185	-0.506235
H64	H	-4.094181	-0.667552	-0.484268
H65	H	-3.886784	-0.662067	-0.512021
H66	H	-3.935422	-0.574011	-0.372201
H67	H	-3.728026	-0.568509	-0.399950
O68	O	-4.446203	-0.111640	-1.025448
C69	C	-4.590894	-0.115618	-0.974941
H70	H	-4.534143	-0.140508	-0.920300
H71	H	-4.610979	-0.052105	-0.953111
C72	C	-4.868181	-0.141565	-1.090183
C73	C	-4.798486	-0.172142	-1.023074
H74	H	-4.996237	-0.176429	-1.119873
H75	H	-4.770700	-0.138882	-1.124210
H76	H	-4.884902	-0.088638	-1.071981
H77	H	-4.781742	-0.225064	-1.041277
H78	H	-4.895970	-0.174836	-0.989051
O79	O	-3.417951	-0.096527	-0.469416
C80	C	-3.357743	-0.026722	-0.405741
H81	H	-3.442629	0.020124	-0.422319
H82	H	-3.396846	-0.044147	-0.347638
C83	C	-3.020226	-0.047753	-0.371921
C84	C	-3.124472	0.009788	-0.392284
H85	H	-2.876333	-0.025233	-0.363616
H86	H	-3.060790	-0.094784	-0.414817
H87	H	-3.052834	-0.062268	-0.323503
H88	H	-3.091883	0.024294	-0.440706
H89	H	-3.083896	0.056822	-0.349395
H90	H	-4.090685	-0.884634	-0.363937
O91	O	-3.917519	-0.682264	-0.076421
C92	C	-4.065760	-0.636880	-0.073108
H93	H	-4.140259	-0.635506	-0.137442
H94	H	-4.188391	-0.666344	-0.041642
C95	C	-3.869899	-0.551049	0.053930
C96	C	-3.961387	-0.549355	-0.025087
H97	H	-3.805521	-0.497060	0.083554
H98	H	-3.770029	-0.581626	0.051700
H99	H	-3.972108	-0.575606	0.080140
H100	H	-3.859175	-0.524808	-0.051299
H101	H	-4.061238	-0.518771	-0.022860
O102	O	-4.179021	-0.111226	-0.649875
C103	C	-4.239286	-0.181051	-0.713527
H104	H	-4.097306	-0.200792	-0.727364
H105	H	-4.344840	-0.232302	-0.694587
C106	C	-4.528704	-0.137180	-0.772956
C107	C	-4.354320	-0.161422	-0.789955
H108	H	-4.599671	-0.125075	-0.820100
H109	H	-4.488108	-0.090139	-0.730070
H110	H	-4.616642	-0.179894	-0.757171
H111	H	-4.266374	-0.118706	-0.805729
H112	H	-4.394904	-0.208456	-0.832845
H113	H	-3.995034	-0.843163	-0.097493
O114	O	-3.463961	-0.095149	-0.632688
C115	C	-3.312069	-0.022908	-0.594317
H116	H	-3.386687	0.023464	-0.563244
H117	H	-3.193520	-0.036627	-0.547056
C118	C	-3.113844	-0.045058	-0.696384
C119	C	-3.205495	0.011899	-0.658225
H120	H	-3.048096	-0.023588	-0.735804
H121	H	-3.216171	-0.093730	-0.722234
H122	H	-3.015067	-0.056486	-0.656992
H123	H	-3.304286	0.023318	-0.697615
H124	H	-3.103180	0.060574	-0.632383
H125	H	-3.773305	-0.323635	-0.131124
H126	H	-3.715274	-0.097730	-0.852474
H127	H	-4.373255	-0.112275	-0.868121
H128	H	-3.939567	-0.517537	-0.406751
H129	H	-4.106300	-0.111812	-0.492339
H130	H	-3.757707	-0.096450	-1.002714
