data_functionalizedCrystal
_audit_creation_method	'MofGen! by Chris Wilmer'
_symmetry_space_group_name_H-M	'P1'
_symmetry_Int_Tables_number	1
_symmetry_cell_setting	triclinic
loop_
_symmetry_equiv_pos_as_xyz
  x,y,z
_cell_length_a	15.995350
_cell_length_b	17.666332
_cell_length_c	15.995292
_cell_angle_alpha	90.002020
_cell_angle_beta	83.480495
_cell_angle_gamma	90.005607
loop_
_atom_site_label
_atom_site_type_symbol
_atom_site_fract_x
_atom_site_fract_y
_atom_site_fract_z
O1	O	1.110969	0.062879	0.107929
O2	O	1.610969	0.562879	0.607929
O3	O	0.867191	0.062894	0.121257
O4	O	1.367191	0.562894	0.621257
O5	O	0.995769	0.062887	-0.007298
O6	O	1.495769	0.562887	0.492702
O7	O	0.982391	0.062885	0.236484
O8	O	1.482391	0.562885	0.736484
O9	O	0.995746	-0.063010	-0.007301
O10	O	1.495746	0.436990	0.492699
O11	O	0.867168	-0.063003	0.121254
O12	O	1.367168	0.436997	0.621254
O13	O	1.110946	-0.063018	0.107926
O14	O	1.610946	0.436982	0.607926
Cu15	Cu	0.989055	-0.074506	0.114589
Cu16	Cu	1.489055	0.425494	0.614589
Cu17	Cu	0.989082	0.074382	0.114594
Cu18	Cu	1.489082	0.574382	0.614594
O19	O	0.982368	-0.063011	0.236481
O20	O	1.482368	0.436989	0.736481
C21	C	0.835985	-0.000053	0.120704
C22	C	1.335985	0.499947	0.620704
C23	C	0.743035	-0.000047	0.119053
C24	C	1.243035	0.499953	0.619053
N25	N	0.989042	-0.179225	0.114586
N26	N	1.489042	0.320775	0.614586
C27	C	0.405288	-0.000063	0.113120
C28	C	0.905288	0.499937	0.613120
C29	C	0.452742	-0.000343	0.021566
C30	C	0.952742	0.499657	0.521566
C31	C	0.549431	-0.000054	0.023218
C32	C	1.049431	0.499946	0.523218
C33	C	0.572848	-0.000055	0.116063
C34	C	1.072848	0.499945	0.616063
C35	C	0.531765	0.071835	0.161223
C36	C	1.031765	0.571835	0.661223
C37	C	0.435130	0.071890	0.158923
C38	C	0.935130	0.571890	0.658923
C39	C	0.434764	-0.071278	0.160810
C40	C	0.934764	0.428722	0.660810
C41	C	0.531710	-0.072223	0.160788
C42	C	1.031710	0.427777	0.660788
C43	C	0.667546	-0.000048	0.117731
C44	C	1.167546	0.499952	0.617731
C45	C	0.310591	-0.000064	0.111455
C46	C	0.810591	0.499936	0.611455
C47	C	1.039805	-0.218832	0.165404
C48	C	1.539805	0.281168	0.665404
C49	C	1.039818	-0.298080	0.165401
C50	C	1.539818	0.201920	0.665401
C51	C	0.989054	-0.337718	0.114590
C52	C	1.489054	0.162282	0.614590
C53	C	0.938288	-0.298101	0.063762
C54	C	1.438288	0.201899	0.563762
C55	C	0.938282	-0.218855	0.063759
C56	C	1.438282	0.281145	0.563759
N57	N	0.915716	-0.462152	0.112304
N58	N	1.415716	0.037848	0.612304
N59	N	0.915724	-0.537433	0.112311
N60	N	1.415724	-0.037433	0.612311
C61	C	0.989069	-0.576482	0.114593
C62	C	1.489069	-0.076482	0.614593
N63	N	1.062407	-0.537406	0.116885
N64	N	1.562407	-0.037406	0.616885
N65	N	1.062398	-0.462118	0.116882
N66	N	1.562398	0.037882	0.616882
C67	C	0.989054	-0.423647	0.114587
C68	C	1.489054	0.076353	0.614587
C69	C	1.039850	-0.702018	0.165412
C70	C	1.539850	-0.202018	0.665412
C71	C	1.039865	-0.781267	0.165403
C72	C	1.539865	-0.281267	0.665403
C73	C	0.938327	-0.781286	0.063769
C74	C	1.438327	-0.281286	0.563769
C75	C	0.938320	-0.702039	0.063772
C76	C	1.438320	-0.202039	0.563772
C77	C	0.989080	-0.662409	0.114598
C78	C	1.489080	-0.162409	0.614598
C79	C	1.142152	-0.000070	0.108479
C80	C	1.642152	0.499930	0.608479
C81	C	1.235102	-0.000071	0.110130
C82	C	1.735102	0.499929	0.610130
C83	C	0.995213	-0.000059	-0.038495
C84	C	1.495213	0.499941	0.461505
C85	C	0.993581	-0.000054	-0.131448
C86	C	1.493581	0.499946	0.368552
N87	N	0.989101	0.179101	0.114591
N88	N	1.489101	0.679101	0.614591
C89	C	0.987580	-0.000060	-0.469186
C90	C	1.487580	0.499940	0.030814
C91	C	1.080384	-0.000347	-0.445874
C92	C	1.580384	0.499653	0.054126
C93	C	1.082148	-0.000061	-0.349199
C94	C	1.582148	0.499939	0.150801
C95	C	0.990557	-0.000057	-0.301631
C96	C	1.490557	0.499943	0.198369
C97	C	0.944173	0.071836	-0.330729
C98	C	1.444173	0.571836	0.169271
C99	C	0.943055	0.071894	-0.427520
C100	C	1.443055	0.571894	0.072480
C101	C	0.941134	-0.071274	-0.427381
C102	C	1.441134	0.428726	0.072619
C103	C	0.944573	-0.072222	-0.330889
C104	C	1.444573	0.427778	0.169111
C105	C	0.992235	-0.000053	-0.206934
C106	C	1.492235	0.499947	0.293066
C107	C	0.985899	-0.000059	-0.563882
C108	C	1.485899	0.499941	-0.063882
C109	C	0.982924	-0.000063	0.267678
C110	C	1.482924	0.499937	0.767678
C111	C	0.984556	-0.000064	0.360631
C112	C	1.484556	0.499936	0.860631
H113	H	0.577858	-0.051588	-0.012280
H114	H	1.077858	0.448412	0.487720
F115	F	0.985073	0.142132	-0.462572
F116	F	1.485073	0.642132	0.037428
F117	F	0.884247	-0.176701	0.009673
F118	F	1.384247	0.323299	0.509673
F119	F	0.884263	-0.340287	0.009683
F120	F	1.384263	0.159713	0.509683
H121	H	1.081141	-0.186571	0.206787
H122	H	1.581141	0.313429	0.706787
H123	H	0.434218	-0.051898	-0.015032
H124	H	0.934218	0.448102	0.484968
F125	F	1.093850	-0.340241	0.219490
F126	F	1.593850	0.159759	0.719490
H127	H	0.875011	0.075154	-0.442070
H128	H	1.375011	0.575154	0.057930
H129	H	0.402989	-0.071766	0.228312
H130	H	0.902989	0.428234	0.728312
H131	H	0.559024	-0.125407	0.127822
H132	H	1.059024	0.374593	0.627822
H133	H	0.433165	0.050928	-0.014861
H134	H	0.933165	0.550928	0.485139
F135	F	0.585844	0.067530	-0.023300
F136	F	1.085844	0.567530	0.476700
F137	F	1.093888	-0.659839	0.219490
F138	F	1.593888	-0.159839	0.719490
F139	F	1.127130	-0.067738	-0.482469
F140	F	1.627130	0.432262	0.017531
H141	H	1.115965	0.050917	-0.474890
H142	H	1.615965	0.550917	0.025110
F143	F	1.093901	-0.823419	0.219490
F144	F	1.593901	-0.323419	0.719490
H145	H	0.896994	-0.813558	0.022396
H146	H	1.396994	-0.313558	0.522396
F147	F	0.884277	-0.659884	0.009697
F148	F	1.384277	-0.159884	0.509697
H149	H	0.402868	0.075151	0.226141
H150	H	0.902868	0.575151	0.726141
H151	H	1.118476	-0.051596	-0.330175
H152	H	1.618476	0.448404	0.169825
H153	H	0.560155	0.125338	0.129860
H154	H	1.060155	0.625338	0.629860
F155	F	1.129933	0.067414	-0.325136
F156	F	1.629933	0.567414	0.174864
F157	F	0.856079	0.075338	-0.289074
F158	F	1.356079	0.575338	0.210926
F159	F	0.986299	0.141767	-0.304511
F160	F	1.486299	0.641767	0.195489
F161	F	0.407923	-0.142503	0.121684
F162	F	0.907923	0.357497	0.621684
H163	H	0.970351	-0.125769	-0.455472
H164	H	1.470351	0.374231	0.044528
F165	F	0.988714	-0.141742	-0.306619
F166	F	1.488714	0.358258	0.193381
F167	F	0.851848	-0.071906	-0.445669
F168	F	1.351848	0.428094	0.054331
F169	F	0.411218	0.142132	0.115881
F170	F	0.911218	0.642132	0.615881
F171	F	0.550228	0.075342	0.250373
F172	F	1.050228	0.575342	0.750373
H173	H	0.547060	-0.076567	0.228494
H174	H	1.047060	0.423433	0.728494
F175	F	0.857190	-0.077895	-0.287798
F176	F	1.357190	0.422105	0.212202
