data_functionalizedCrystal
_audit_creation_method	'MofGen! by Chris Wilmer'
_symmetry_space_group_name_H-M	'P1'
_symmetry_Int_Tables_number	1
_symmetry_cell_setting	triclinic
loop_
_symmetry_equiv_pos_as_xyz
  x,y,z
_cell_length_a	12.759401
_cell_length_b	25.639239
_cell_length_c	25.639234
_cell_angle_alpha	89.975416
_cell_angle_beta	89.983578
_cell_angle_gamma	90.040211
loop_
_atom_site_label
_atom_site_type_symbol
_atom_site_fract_x
_atom_site_fract_y
_atom_site_fract_z
Zn1	Zn	1.606044	-0.208163	-0.295595
Zn2	Zn	1.605876	-0.295591	-0.208159
Zn3	Zn	1.430357	-0.208173	-0.208175
Zn4	Zn	1.430261	-0.295572	-0.295565
O5	O	1.518135	-0.251875	-0.251874
O6	O	1.753043	-0.219764	-0.284002
O7	O	1.582562	-0.284007	-0.134996
O8	O	1.453773	-0.135007	-0.219790
O9	O	1.752919	-0.283997	-0.219763
O10	O	1.582850	-0.134999	-0.284017
O11	O	1.453609	-0.219782	-0.135008
O12	O	1.283323	-0.219763	-0.219762
O13	O	1.453610	-0.283964	-0.368734
O14	O	1.283253	-0.283974	-0.283967
O15	O	1.582757	-0.219746	-0.368756
O16	O	1.582470	-0.368753	-0.219735
O17	O	1.453447	-0.368739	-0.283952
C18	C	1.245167	-0.251868	-0.251863
C19	C	1.128391	-0.251878	-0.251871
C20	C	1.517958	-0.387717	-0.251850
C21	C	1.517978	-0.445831	-0.251857
C22	C	1.073520	-0.285364	-0.285250
C23	C	0.963796	-0.285366	-0.285260
C24	C	0.963823	-0.218395	-0.218508
C25	C	1.073545	-0.218391	-0.218501
C26	C	0.813874	-0.304139	-0.346898
C27	C	0.758999	-0.337632	-0.380272
C28	C	0.794553	-0.388659	-0.388204
C29	C	0.884979	-0.406201	-0.362754
C30	C	0.939848	-0.372711	-0.329375
C31	C	0.904297	-0.321677	-0.321454
C32	C	1.223469	-0.199623	-0.156863
C33	C	1.278340	-0.166135	-0.123481
C34	C	1.242788	-0.115108	-0.115545
C35	C	1.152358	-0.097567	-0.140986
C36	C	1.097487	-0.131055	-0.174367
C37	C	1.133046	-0.182082	-0.182305
C38	C	1.585492	-0.806189	-0.218493
C39	C	1.585533	-0.860793	-0.218500
O40	O	1.642752	-0.889026	-0.190106
N41	N	1.518319	-0.888114	-0.251908
C42	C	1.451068	-0.860827	-0.285315
O43	O	1.393902	-0.889079	-0.313733
C44	C	1.451033	-0.806224	-0.285311
C45	C	1.518244	-0.778906	-0.251896
C46	C	1.652698	-0.778872	-0.185082
C47	C	1.652656	-0.724271	-0.185074
C48	C	1.585408	-0.696988	-0.218478
C49	C	1.518202	-0.724306	-0.251889
C50	C	1.383788	-0.778938	-0.318720
C51	C	1.383760	-0.724331	-0.318713
C52	C	1.450971	-0.697013	-0.285299
C53	C	1.450911	-0.642422	-0.285285
N54	N	1.518125	-0.615102	-0.251877
C55	C	1.585373	-0.642385	-0.218473
C56	C	1.451147	-0.975498	-0.285324
C57	C	1.451176	-1.030100	-0.285326
C58	C	1.585642	-1.030063	-0.218511
C59	C	1.585608	-0.975459	-0.218506
C60	C	1.518361	-0.948177	-0.251915
C61	C	1.585278	-0.527720	-0.218459
C62	C	1.585227	-0.473114	-0.218453
C63	C	1.450765	-0.473156	-0.285270
C64	C	1.450812	-0.527757	-0.285274
C65	C	1.518077	-0.555037	-0.251867
O66	O	1.393724	-0.614155	-0.313666
O67	O	1.642539	-0.614126	-0.190065
C68	C	1.792168	-0.251881	-0.251884
C69	C	1.908945	-0.251884	-0.251889
C70	C	1.518192	-0.251852	-0.388247
C71	C	1.518216	-0.251842	-0.446361
C72	C	1.518341	-0.115502	-0.251909
C73	C	1.518428	-0.057388	-0.251924
C74	C	1.585389	-0.285241	-0.697541
C75	C	1.585378	-0.285252	-0.642936
O76	O	1.642443	-0.313707	-0.614688
N77	N	1.518239	-0.251816	-0.615635
C78	C	1.451098	-0.218372	-0.642940
O79	O	1.393989	-0.189934	-0.614704
C80	C	1.451105	-0.218364	-0.697543
C81	C	1.518256	-0.251798	-0.724842
C82	C	1.652535	-0.318672	-0.724839
C83	C	1.652547	-0.318661	-0.779440
C84	C	1.585414	-0.285217	-0.806742
C85	C	1.518269	-0.251786	-0.779443
C86	C	1.383960	-0.184922	-0.724848
C87	C	1.383972	-0.184917	-0.779455
C88	C	1.451123	-0.218351	-0.806754
C89	C	1.451148	-0.218331	-0.861345
N90	N	1.518287	-0.251766	-0.888647
C91	C	1.585420	-0.285209	-0.861345
C92	C	1.451088	-0.218392	-0.528269
C93	C	1.451086	-0.218396	-0.473667
C94	C	1.585365	-0.285277	-0.473667
C95	C	1.585372	-0.285269	-0.528270
C96	C	1.518228	-0.251827	-0.555571
C97	C	1.585441	-0.285182	-0.976010
C98	C	1.585451	-0.285166	-1.030616
C99	C	1.451168	-0.218287	-1.030611
C100	C	1.451163	-0.218301	-0.976010
C101	C	1.518303	-0.251753	-0.948711
O102	O	1.394110	-0.189892	-0.889628
O103	O	1.642510	-0.313648	-0.889588
C104	C	1.518138	-0.251860	-0.116031
C105	C	1.518318	-0.251722	-0.057917
H106	H	1.118172	-0.312630	-0.312424
C107	C	1.262575	-0.255755	-0.165595
H108	H	1.216952	-0.273185	-0.189123
H109	H	1.263576	-0.273835	-0.133252
H110	H	1.331324	-0.254872	-0.179805
H111	H	1.640054	-0.549925	-0.191257
C112	C	1.659547	-0.945415	-0.181755
H113	H	1.699603	-0.969489	-0.161866
H114	H	1.619379	-0.924144	-0.158953
H115	H	1.705294	-0.924084	-0.201777
C116	C	1.310090	-0.148146	-0.694831
H117	H	1.270107	-0.128235	-0.718919
H118	H	1.350298	-0.125365	-0.673539
H119	H	1.264271	-0.168151	-0.673523
C120	C	1.659233	-0.322048	-0.558294
H121	H	1.699208	-0.341966	-0.534209
H122	H	1.705044	-0.302048	-0.579607
H123	H	1.619009	-0.344830	-0.579582
H124	H	1.329001	-0.702120	-0.345920
C125	C	1.039310	-0.392001	-0.301383
H126	H	1.052630	-0.427188	-0.310887
H127	H	1.029468	-0.389836	-0.264722
H128	H	1.097206	-0.370883	-0.311283
C129	C	1.310116	-0.148128	-0.809483
H130	H	1.270133	-0.128216	-0.785401
H131	H	1.264313	-0.168121	-0.830776
H132	H	1.350349	-0.125339	-0.830791
H133	H	0.913913	-0.447754	-0.369210
H134	H	1.639958	-0.450874	-0.191241
H135	H	1.640027	-0.312509	-0.451428
H136	H	1.396496	-0.191070	-0.953782
H137	H	1.287470	-0.087843	-0.088358
C138	C	1.376881	-0.557807	-0.322028
H139	H	1.336829	-0.533736	-0.341923
H140	H	1.331145	-0.579149	-0.302016
H141	H	1.417073	-0.579068	-0.344833
H142	H	1.396415	-0.191154	-0.550494
C143	C	0.734197	-0.425499	-0.424918
H144	H	0.675257	-0.407743	-0.438940
H145	H	0.711174	-0.455216	-0.405959
H146	H	0.778924	-0.436256	-0.452513
C147	C	0.774774	-0.248007	-0.338179
H148	H	0.820409	-0.230569	-0.314662
H149	H	0.706029	-0.248884	-0.323970
H150	H	0.773777	-0.229933	-0.370528
H151	H	1.707387	-0.702032	-0.157867
H152	H	1.351972	-0.180421	-0.102765
C153	C	1.113243	-0.041437	-0.132259
H154	H	1.051524	-0.035789	-0.152189
H155	H	1.165898	-0.017467	-0.142877
H156	H	1.098157	-0.036432	-0.096323
C157	C	0.903490	-0.181568	-0.181799
H158	H	0.830284	-0.186370	-0.186579
H159	H	0.921519	-0.146448	-0.189510
H160	H	0.921437	-0.189176	-0.146653
H161	H	1.396008	-0.450934	-0.312465
H162	H	0.685374	-0.323344	-0.400995
H163	H	1.023859	-0.116768	-0.195086
H164	H	1.707466	-0.801080	-0.157880
C165	C	1.659612	-1.060081	-0.181766
H166	H	1.650006	-1.096512	-0.186559
H167	H	1.644272	-1.051160	-0.146628
H168	H	1.730195	-1.051096	-0.189448
C169	C	1.377238	-1.060143	-0.322078
H170	H	1.337190	-1.036069	-0.341972
H171	H	1.331498	-1.081481	-0.302064
H172	H	1.417421	-1.081408	-0.344884
H173	H	1.396378	-0.953287	-0.312528
C174	C	1.309863	-0.808975	-0.355480
H175	H	1.269824	-0.784899	-0.375375
H176	H	1.264114	-0.830313	-0.335471
H177	H	1.350050	-0.830239	-0.378285
H178	H	1.640138	-0.312392	-1.052840
C179	C	1.659297	-0.321976	-0.945989
H180	H	1.699289	-0.341879	-0.970074
H181	H	1.619078	-0.344763	-0.924678
H182	H	1.705108	-0.301979	-0.924699
H183	H	1.707225	-0.345888	-0.801662
C184	C	1.726393	-0.355460	-0.694816
H185	H	1.766382	-0.375364	-0.718902
H186	H	1.686182	-0.378248	-0.673502
H187	H	1.772206	-0.335460	-0.673529
H188	H	1.396417	-0.191165	-0.451445
H189	H	1.396513	-0.191057	-1.052850
