data_functionalizedCrystal
_audit_creation_method	'MofGen! by Chris Wilmer'
_symmetry_space_group_name_H-M	'P1'
_symmetry_Int_Tables_number	1
_symmetry_cell_setting	triclinic
loop_
_symmetry_equiv_pos_as_xyz
  x,y,z
_cell_length_a	19.188930
_cell_length_b	10.654541
_cell_length_c	17.666332
_cell_angle_alpha	90.004478
_cell_angle_beta	89.990320
_cell_angle_gamma	96.185645
loop_
_atom_site_label
_atom_site_type_symbol
_atom_site_fract_x
_atom_site_fract_y
_atom_site_fract_z
O1	O	0.098054	-1.665772	-0.062935
O2	O	0.107398	-1.300095	-0.062942
O3	O	0.001139	-1.493486	-0.062923
O4	O	0.204312	-1.472381	-0.062953
O5	O	0.001136	-1.493464	0.062973
O6	O	0.107395	-1.300073	0.062955
O7	O	0.098051	-1.665750	0.062962
Cu8	Cu	0.102723	-1.482910	0.074454
Cu9	Cu	0.102726	-1.482935	-0.074434
O10	O	0.204310	-1.472359	0.062943
C11	C	0.106711	-1.253300	0.000005
C12	C	0.104659	-1.113900	0.000003
C13	C	-0.024878	-1.492792	0.000027
C14	C	-0.102396	-1.490740	0.000034
N15	N	0.102720	-1.482901	0.179173
C16	C	-0.146578	-1.604215	0.000040
C17	C	-0.219414	-1.602288	0.000027
C18	C	-0.248065	-1.486878	0.000024
C19	C	-0.203873	-1.373388	0.000014
C20	C	-0.131038	-1.375319	0.000019
N21	N	-0.356648	-1.398654	0.042868
N22	N	-0.425838	-1.396828	0.042865
C23	C	-0.467512	-1.481054	0.000009
N24	N	-0.437383	-1.567195	-0.042835
N25	N	-0.368186	-1.569025	-0.042828
C26	C	-0.327041	-1.484772	0.000019
C27	C	-0.590672	-1.592448	0.000001
C28	C	-0.663510	-1.590515	-0.000016
C29	C	-0.647967	-1.361612	-0.000022
C30	C	-0.575131	-1.363548	-0.000012
C31	C	-0.546488	-1.478969	0.000002
C32	C	0.230327	-1.473053	-0.000009
C33	C	0.307845	-1.475105	-0.000020
C34	C	0.098738	-1.712544	0.000013
C35	C	0.100790	-1.851944	0.000010
C36	C	0.231721	-1.083241	-0.000025
C37	C	0.294284	-1.002423	-0.000042
C38	C	0.292352	-0.871446	-0.000042
C39	C	0.227849	-0.821285	-0.000024
C40	C	0.165286	-0.902103	-0.000007
C41	C	0.167225	-1.033082	-0.000008
C42	C	0.038226	-0.932762	0.000027
C43	C	0.040156	-1.063740	0.000022
C44	C	-0.026277	-0.882602	0.000046
C45	C	-0.088842	-0.963421	0.000058
C46	C	-0.086908	-1.094405	0.000057
C47	C	-0.022408	-1.144558	0.000039
N48	N	0.102723	-1.482954	-0.179153
C49	C	0.055685	-1.568590	0.781232
C50	C	0.055686	-1.568592	0.701984
C51	C	0.102720	-1.482936	0.662355
C52	C	0.149767	-1.397294	0.701979
C53	C	0.149769	-1.397303	0.781226
N54	N	0.111041	-1.371761	0.537939
N55	N	0.111036	-1.371757	0.462658
C56	C	0.102718	-1.482907	0.423591
N57	N	0.094393	-1.594065	0.462647
N58	N	0.094396	-1.594068	0.537934
C59	C	0.102723	-1.482918	0.576426
C60	C	0.055679	-1.568552	0.298046
C61	C	0.055686	-1.568555	0.218797
C62	C	0.149763	-1.397247	0.218794
C63	C	0.149760	-1.397254	0.298042
C64	C	0.102714	-1.482905	0.337663
H65	H	-0.255395	-1.694696	0.000029
O66	O	-0.083381	-1.252919	0.000027
H67	H	-0.093623	-1.197667	-0.051285
H68	H	0.017379	-1.638334	0.813489
H69	H	-0.027846	-0.775953	0.000050
O70	O	0.200485	-1.304883	0.659243
H71	H	0.192573	-1.319246	0.597482
O72	O	-0.527475	-1.241150	-0.000011
H73	H	-0.472016	-1.261880	-0.000012
O74	O	-0.020317	-1.285825	0.000044
H75	H	-0.047229	-1.326960	0.051366
O76	O	-0.154392	-1.181564	0.000077
H77	H	-0.156548	-1.241955	0.051395
H78	H	0.226282	-0.714635	-0.000015
H79	H	-0.567350	-1.686430	0.000009
H80	H	-0.227205	-1.279421	0.000010
H81	H	-0.141356	-0.922569	0.000072
H82	H	0.233300	-1.189888	-0.000041
O83	O	0.200510	-1.304919	0.340778
H84	H	0.233222	-1.245363	0.299910
O85	O	0.004945	-1.660948	0.659241
H86	H	-0.027772	-1.720500	0.700106
O87	O	0.363855	-1.056519	-0.000064
H88	H	0.354691	-1.161173	-0.000068
O89	O	0.200518	-1.304959	0.823961
H90	H	0.233230	-1.245403	0.783094
O91	O	0.200489	-1.304861	0.176055
H92	H	0.255000	-1.320568	0.191245
O93	O	0.004950	-1.660947	0.340786
H94	H	-0.049561	-1.645263	0.325583
O95	O	-0.115682	-1.728699	0.000034
H96	H	-0.158647	-1.807283	0.000025
O97	O	-0.711166	-1.712917	-0.000003
H98	H	-0.700897	-1.768195	-0.051304
H99	H	-0.671293	-1.267643	-0.000028
H100	H	0.017383	-1.638297	0.186542
O101	O	0.359829	-0.784265	-0.000062
H102	H	0.405006	-0.841142	-0.000079
