data_functionalizedCrystal
_audit_creation_method	'MofGen! by Chris Wilmer'
_symmetry_space_group_name_H-M	'P1'
_symmetry_Int_Tables_number	1
_symmetry_cell_setting	triclinic
loop_
_symmetry_equiv_pos_as_xyz
  x,y,z
_cell_length_a	6.817900
_cell_length_b	8.749629
_cell_length_c	14.858572
_cell_angle_alpha	93.945660
_cell_angle_beta	104.524003
_cell_angle_gamma	105.181975
loop_
_atom_site_label
_atom_site_type_symbol
_atom_site_fract_x
_atom_site_fract_y
_atom_site_fract_z
V1	V	-4.045983	-0.219796	-0.288748
V2	V	-3.545983	0.280204	0.211252
O3	O	-4.025280	0.009538	-0.284493
O4	O	-3.525280	0.509538	0.215507
O5	O	-4.004918	-0.434833	-0.285579
O6	O	-3.504918	0.065167	0.214421
O7	O	-4.002521	-0.216864	-0.415226
O8	O	-3.502521	0.283136	0.084774
O9	O	-4.027694	-0.209940	-0.153949
O10	O	-3.527694	0.290060	0.346051
V11	V	-4.528020	-0.192312	-0.272770
V12	V	-4.028020	0.307688	0.227230
O13	O	-4.310500	-0.280084	-0.323797
O14	O	-3.810500	0.219916	0.176203
O15	O	-4.713701	-0.132023	-0.237721
O16	O	-4.213701	0.367977	0.262279
O17	O	-4.345878	0.022726	-0.275939
O18	O	-3.845878	0.522726	0.224061
O19	O	-4.666120	-0.421646	-0.277024
O20	O	-4.166120	0.078354	0.222976
O21	O	-4.663706	-0.202168	-0.407569
O22	O	-4.163706	0.297832	0.092431
O23	O	-4.348276	-0.195243	-0.146292
O24	O	-3.848276	0.304757	0.353708
C25	C	-3.851544	-0.487241	-0.280715
C26	C	-3.351544	0.012759	0.219285
C27	C	-3.899289	-0.663039	-0.278967
C28	C	-3.399289	-0.163039	0.221033
C29	C	-3.848484	-0.209198	-0.446092
C30	C	-3.348484	0.290802	0.053908
C31	C	-3.894281	-0.208224	-0.549480
C32	C	-3.394281	0.291776	-0.049480
C33	C	-4.061899	-0.204664	-0.928068
C34	C	-3.561899	0.295336	-0.428068
C35	C	-4.015254	-0.205655	-0.822733
C36	C	-3.515254	0.294345	-0.322733
C37	C	-3.978092	-0.206445	-0.738778
C38	C	-3.478092	0.293555	-0.238778
C39	C	-3.931444	-0.207433	-0.633436
C40	C	-3.431444	0.292567	-0.133436
C41	C	-4.162595	0.075125	-0.280800
C42	C	-3.662595	0.575125	0.219200
C43	C	-4.094088	0.250922	-0.282554
C44	C	-3.594088	0.750922	0.217446
C45	C	-4.165654	-0.202915	-0.115421
C46	C	-3.665654	0.297085	0.384579
C47	C	-4.099096	-0.203881	-0.012032
C48	C	-3.599096	0.296119	0.487968
H49	H	-4.224350	-0.688243	-0.286971
H50	H	-3.724350	-0.188243	0.213029
H51	H	-3.769039	-0.723870	-0.274560
H52	H	-3.269039	-0.223870	0.225440
