data_functionalizedCrystal
_audit_creation_method	'MofGen! by Chris Wilmer'
_symmetry_space_group_name_H-M	'P1'
_symmetry_Int_Tables_number	1
_symmetry_cell_setting	triclinic
loop_
_symmetry_equiv_pos_as_xyz
  x,y,z
_cell_length_a	14.185569
_cell_length_b	17.699083
_cell_length_c	17.699083
_cell_angle_alpha	83.283015
_cell_angle_beta	76.871494
_cell_angle_gamma	103.133031
loop_
_atom_site_label
_atom_site_type_symbol
_atom_site_fract_x
_atom_site_fract_y
_atom_site_fract_z
O1	O	0.083282	-0.986904	-0.112875
O2	O	0.416616	-0.653570	0.220458
O3	O	0.749949	-0.320237	0.553792
O4	O	0.083316	-0.766518	-0.125334
O5	O	0.416649	-0.433185	0.207999
O6	O	0.749982	-0.099852	0.541333
O7	O	0.083289	-0.882939	-0.008913
O8	O	0.416623	-0.549606	0.324420
O9	O	0.749956	-0.216273	0.657753
O10	O	0.083309	-0.870483	-0.229296
O11	O	0.416642	-0.537149	0.104038
O12	O	0.749975	-0.203816	0.437371
O13	O	-0.083553	-0.917331	0.025475
O14	O	0.249780	-0.583998	0.358808
O15	O	0.583114	-0.250664	0.692141
O16	O	-0.083527	-0.800910	-0.090946
O17	O	0.249807	-0.467577	0.242387
O18	O	0.583140	-0.134243	0.575721
O19	O	-0.083560	-1.021295	-0.078487
O20	O	0.249773	-0.687962	0.254847
O21	O	0.583107	-0.354629	0.588180
Cu22	Cu	-0.098777	-0.914243	-0.081577
Cu23	Cu	0.234556	-0.580910	0.251757
Cu24	Cu	0.567889	-0.247576	0.585090
Cu25	Cu	0.098533	-0.873571	-0.122244
Cu26	Cu	0.431866	-0.540237	0.211089
Cu27	Cu	0.765200	-0.206904	0.544422
O28	O	-0.083534	-0.904874	-0.194908
O29	O	0.249800	-0.571541	0.138426
O30	O	0.583133	-0.238208	0.471759
C31	C	-0.000101	-0.755516	-0.107695
C32	C	0.333232	-0.422183	0.225639
C33	C	0.666565	-0.088850	0.558972
C34	C	-0.000089	-0.671496	-0.106359
C35	C	0.333244	-0.338162	0.226975
C36	C	0.666578	-0.004829	0.560308
N37	N	-0.237555	-0.942855	-0.052973
N38	N	0.095778	-0.609522	0.280361
N39	N	0.429112	-0.276188	0.613694
C40	C	-0.000132	-0.899689	0.036478
C41	C	0.333201	-0.566356	0.369811
C42	C	0.666535	-0.233022	0.703144
C43	C	-0.000132	-0.898350	0.120496
C44	C	0.333201	-0.565017	0.453829
C45	C	0.666534	-0.231684	0.787163
C46	C	-0.605164	-0.760902	-0.234848
C47	C	-0.271830	-0.427569	0.098485
C48	C	0.061503	-0.094235	0.431819
C49	C	-0.710190	-0.782581	-0.213186
C50	C	-0.376857	-0.449247	0.120147
C51	C	-0.043523	-0.115914	0.453481
C52	C	-0.710174	-0.885692	-0.110134
C53	C	-0.376841	-0.552359	0.223200
C54	C	-0.043508	-0.219025	0.556533
C55	C	-0.605146	-0.864020	-0.131785
C56	C	-0.271812	-0.530686	0.201549
C57	C	0.061521	-0.197353	0.534882
C58	C	-0.552649	-0.801625	-0.194143
C59	C	-0.219315	-0.468291	0.139190
C60	C	0.114018	-0.134958	0.472524
C61	C	-0.552631	-0.904742	-0.091079
C62	C	-0.219298	-0.571409	0.242254
C63	C	0.114036	-0.238076	0.575587
C64	C	-0.447611	-0.883074	-0.112732
C65	C	-0.114278	-0.549741	0.220602
C66	C	0.219055	-0.216407	0.553935
C67	C	-0.395107	-0.820683	-0.175089
C68	C	-0.061774	-0.487350	0.158244
C69	C	0.271560	-0.154016	0.491578
C70	C	-0.447629	-0.779956	-0.215795
C71	C	-0.114296	-0.446623	0.117538
C72	C	0.219037	-0.113290	0.450872
C73	C	-0.605130	-0.967141	-0.028725
C74	C	-0.271797	-0.633807	0.304608
C75	C	0.061537	-0.300474	0.637942
C76	C	-0.552615	-1.007863	0.011980
C77	C	-0.219282	-0.674530	0.345314
C78	C	0.114052	-0.341197	0.678647
C79	C	-0.447594	-0.986192	-0.009668
C80	C	-0.114260	-0.652858	0.323665
C81	C	0.219073	-0.319525	0.656999
C82	C	-0.395089	-0.923801	-0.072026
C83	C	-0.061756	-0.590467	0.261308
C84	C	0.271577	-0.257134	0.594641
C85	C	-0.395071	-1.026918	0.031038
C86	C	-0.061738	-0.693585	0.364371
C87	C	0.271595	-0.360251	0.697705
C88	C	-0.290052	-1.005250	0.009386
C89	C	0.043281	-0.671917	0.342719
C90	C	0.376615	-0.338583	0.676052
C91	C	-0.290070	-0.902132	-0.093678
C92	C	0.043264	-0.568799	0.239656
C93	C	0.376597	-0.235466	0.572989
N94	N	0.237311	-0.844965	-0.150842
N95	N	0.570644	-0.511631	0.182491
N96	N	0.903977	-0.178298	0.515824
C97	C	-0.000141	-1.032297	-0.096127
C98	C	0.333193	-0.698963	0.237207
C99	C	0.666526	-0.365630	0.570540
C100	C	-0.000146	-1.116316	-0.097464
C101	C	0.333187	-0.782983	0.235869
C102	C	0.666520	-0.449649	0.569203
C103	C	-0.000083	-0.622874	-0.174693
C104	C	0.333250	-0.289540	0.158640
C105	C	0.666583	0.043793	0.491973
C106	C	-0.000096	-0.543933	-0.173428
C107	C	0.333237	-0.210600	0.159905
C108	C	0.666570	0.122734	0.493238
C109	C	-0.000108	-0.513615	-0.103829
C110	C	0.333225	-0.180281	0.229504
C111	C	0.666559	0.153052	0.562837
C112	C	-0.000117	-0.562244	-0.035489
C113	C	0.333216	-0.228910	0.297844
C114	C	0.666550	0.104423	0.631178
C115	C	-0.000111	-0.641184	-0.036753
C116	C	0.333222	-0.307851	0.296580
C117	C	0.666556	0.025483	0.629913
C118	C	-0.000142	-0.243886	-0.030389
C119	C	0.333191	0.089448	0.302945
C120	C	0.666525	0.422781	0.636278
C121	C	-0.000145	-0.164938	-0.029130
C122	C	0.333188	0.168395	0.304203
C123	C	0.666522	0.501728	0.637537
C124	C	-0.000128	-0.146635	-0.167064
C125	C	0.333206	0.186699	0.166270
C126	C	0.666539	0.520032	0.499603
C127	C	-0.000122	-0.225575	-0.168328
C128	C	0.333212	0.107758	0.165005
C129	C	0.666545	0.441092	0.498339
C130	C	-0.000136	-0.274198	-0.099987
C131	C	0.333198	0.059135	0.233347
C132	C	0.666531	0.392468	0.566680
C133	C	-0.000123	-0.359795	-0.101359
C134	C	0.333210	-0.026462	0.231975
C135	C	0.666543	0.306872	0.565308
C136	C	-0.000113	-0.428018	-0.102458
C137	C	0.333220	-0.094685	0.230875
C138	C	0.666553	0.238649	0.564209
C139	C	-0.000110	-0.888124	-0.240299
C140	C	0.333223	-0.554791	0.093034
C141	C	0.666557	-0.221458	0.426368
C142	C	-0.000103	-0.889461	-0.324319
C143	C	0.333230	-0.556128	0.009015
C144	C	0.666563	-0.222795	0.342348
C145	C	-0.000144	-0.966686	0.169119
C146	C	0.333189	-0.633353	0.502453
C147	C	0.666523	-0.300019	0.835786
C148	C	-0.000135	-0.965422	0.248061
C149	C	0.333199	-0.632089	0.581394
C150	C	0.666532	-0.298755	0.914727
C151	C	-0.000121	-0.895823	0.278379
C152	C	0.333212	-0.562489	0.611712
C153	C	0.666545	-0.229156	0.945045
C154	C	-0.000107	-0.827481	0.229748
C155	C	0.333227	-0.494148	0.563082
C156	C	0.666560	-0.160814	0.896415
C157	C	-0.000108	-0.828744	0.150807
C158	C	0.333225	-0.495411	0.484140
C159	C	0.666558	-0.162078	0.817474
C160	C	-0.000098	-0.822384	0.548110
C161	C	0.333236	-0.489051	0.881443
C162	C	0.666569	-0.155717	1.214776
C163	C	-0.000099	-0.821126	0.627058
C164	C	0.333235	-0.487793	0.960391
C165	C	0.666568	-0.154460	1.293725
C166	C	-0.000124	-0.959061	0.645363
C167	C	0.333209	-0.625728	0.978697
C168	C	0.666543	-0.292395	1.312030
C169	C	-0.000126	-0.960325	0.566422
C170	C	0.333207	-0.626992	0.899755
C171	C	0.666541	-0.293658	1.233089
C172	C	-0.000106	-0.891983	0.517798
C173	C	0.333227	-0.558649	0.851131
C174	C	0.666561	-0.225316	1.184464
C175	C	-0.000114	-0.893354	0.432200
C176	C	0.333219	-0.560020	0.765533
C177	C	0.666553	-0.226687	1.098867
C178	C	-0.000121	-0.894452	0.363976
C179	C	0.333213	-0.561119	0.697310
C180	C	0.666546	-0.227786	1.030643
H181	H	-0.247325	-0.851319	-0.144451
H182	H	0.086009	-0.517986	0.188883
H183	H	0.419342	-0.184652	0.522216
H184	H	-0.562418	-0.710088	-0.285621
H185	H	-0.229085	-0.376755	0.047712
H186	H	0.104248	-0.043422	0.381045
F187	F	-0.000086	-0.492188	-0.246161
F188	F	0.333247	-0.158854	0.087173
F189	F	0.666581	0.174479	0.420506
F190	F	-0.000158	-0.132674	0.044950
F191	F	0.333176	0.200660	0.378284
F192	F	0.666509	0.533993	0.711617
F193	F	-0.000117	-0.094881	-0.239798
F194	F	0.333217	0.238453	0.093535
F195	F	0.666550	0.571786	0.426868
H196	H	-0.000147	-1.021068	0.287648
H197	H	0.333187	-0.687735	0.620981
H198	H	0.666520	-0.354402	0.954314
H199	H	-0.000142	-1.017001	0.541743
H200	H	0.333191	-0.683667	0.875076
H201	H	0.666525	-0.350334	1.208409
F202	F	-0.000157	-0.295624	0.042346
F203	F	0.333176	0.037709	0.375680
F204	F	0.666510	0.371043	0.709013
F205	F	-0.000103	-0.257836	-0.242405
F206	F	0.333230	0.075497	0.090928
F207	F	0.666563	0.408830	0.424261
H208	H	-0.000115	-0.680772	0.018892
H209	H	0.333218	-0.347439	0.352225
H210	H	0.666552	-0.014105	0.685558
H211	H	-0.000161	-1.023363	0.144442
H212	H	0.333172	-0.690030	0.477776
H213	H	0.666506	-0.356696	0.811109
F214	F	-0.766073	-0.739232	-0.256519
F215	F	-0.432740	-0.405899	0.076814
F216	F	-0.099407	-0.072566	0.410148
H217	H	-0.000135	-1.014708	0.684962
H218	H	0.333198	-0.681375	1.018295
H219	H	0.666531	-0.348041	1.351629
F220	F	-0.000083	-0.747045	0.659322
F221	F	0.333250	-0.413712	0.992655
F222	F	0.666584	-0.080379	1.325988
H223	H	-0.247294	-1.038412	0.042532
H224	H	0.086039	-0.705078	0.375865
H225	H	0.419373	-0.371745	0.709199
H226	H	-0.000082	-0.766735	0.508529
H227	H	0.333252	-0.433402	0.841862
H228	H	0.666585	-0.100069	1.175195
F229	F	-0.000136	-0.529976	0.038585
F230	F	0.333198	-0.196642	0.371918
F231	F	0.666531	0.136691	0.705252
H232	H	-0.000089	-0.770811	0.254438
H233	H	0.333244	-0.437477	0.587772
H234	H	0.666577	-0.104144	0.921105
H235	H	-0.309593	-0.803044	-0.192720
H236	H	0.023740	-0.469711	0.140614
H237	H	0.357073	-0.136377	0.473947
F238	F	-0.391755	-0.713541	-0.282158
F239	F	-0.058422	-0.380207	0.051175
F240	F	0.274911	-0.046874	0.384509
H241	H	-0.000099	-0.773098	0.111218
H242	H	0.333235	-0.439765	0.444551
H243	H	0.666568	-0.106432	0.777885
H244	H	-0.690644	-0.984783	-0.011101
H245	H	-0.357310	-0.651449	0.322233
H246	H	-0.023977	-0.318116	0.655566
F247	F	-0.608495	-1.074269	0.078343
F248	F	-0.275162	-0.740936	0.411676
F249	F	0.058172	-0.407602	0.745010
F250	F	-0.766054	-0.952098	-0.043771
F251	F	-0.432721	-0.618764	0.289563
F252	F	-0.099388	-0.285431	0.622896
H253	H	-0.437828	-1.077726	0.081806
H254	H	-0.104495	-0.744392	0.415139
H255	H	0.228838	-0.411059	0.748473
H256	H	-0.000073	-0.647552	-0.231369
H257	H	0.333260	-0.314219	0.101964
H258	H	0.666594	0.019115	0.435298
