data_functionalizedCrystal
_audit_creation_method	'MofGen! by Chris Wilmer'
_symmetry_space_group_name_H-M	'P1'
_symmetry_Int_Tables_number	1
_symmetry_cell_setting	triclinic
loop_
_symmetry_equiv_pos_as_xyz
  x,y,z
_cell_length_a	18.215407
_cell_length_b	16.959454
_cell_length_c	18.215399
_cell_angle_alpha	90.026105
_cell_angle_beta	90.016824
_cell_angle_gamma	90.020523
loop_
_atom_site_label
_atom_site_type_symbol
_atom_site_fract_x
_atom_site_fract_y
_atom_site_fract_z
Zn1	Zn	1.125075	-0.314661	0.416138
Zn2	Zn	1.625075	0.185339	0.916138
Zn3	Zn	1.125000	-0.446852	0.293080
Zn4	Zn	1.625000	0.053148	0.793080
Zn5	Zn	1.002014	-0.314693	0.293085
Zn6	Zn	1.502014	0.185307	0.793085
Zn7	Zn	1.001983	-0.446803	0.416105
Zn8	Zn	1.501983	0.053197	0.916105
O9	O	1.063518	-0.380752	0.354602
O10	O	1.563518	0.119248	0.854602
O11	O	1.228049	-0.332204	0.399825
O12	O	1.728049	0.167796	0.899825
O13	O	1.108667	-0.429355	0.190097
O14	O	1.608667	0.070645	0.690097
O15	O	1.018382	-0.204078	0.309424
O16	O	1.518382	0.295922	0.809424
O17	O	1.227994	-0.429325	0.309416
O18	O	1.727994	0.070675	0.809416
O19	O	1.108794	-0.204055	0.399830
O20	O	1.608794	0.295945	0.899830
O21	O	1.018309	-0.332258	0.190100
O22	O	1.518309	0.167742	0.690100
O23	O	0.899025	-0.332210	0.309392
O24	O	1.399025	0.167790	0.809392
O25	O	1.018330	-0.429240	0.519094
O26	O	1.518330	0.070760	1.019094
O27	O	0.899003	-0.429271	0.399775
O28	O	1.399003	0.070729	0.899775
O29	O	1.108765	-0.332156	0.519118
O30	O	1.608765	0.167844	1.019118
O31	O	1.108638	-0.557457	0.309385
O32	O	1.608638	-0.057457	0.809385
O33	O	1.018258	-0.557420	0.399770
O34	O	1.518258	-0.057420	0.899770
C35	C	0.872312	-0.380739	0.354581
C36	C	1.372312	0.119261	0.854581
C37	C	0.790513	-0.380752	0.354589
C38	C	1.290513	0.119248	0.854589
C39	C	0.602327	-0.431371	0.401593
C40	C	1.102327	0.068629	0.901593
C41	C	0.525468	-0.431374	0.401602
C42	C	1.025468	0.068626	0.901602
C43	C	0.525461	-0.330148	0.307628
C44	C	1.025461	0.169852	0.807628
C45	C	0.602319	-0.330142	0.307623
C46	C	1.102319	0.169858	0.807623
C47	C	0.640749	-0.380758	0.354604
C48	C	1.140749	0.119242	0.854604
C49	C	0.487033	-0.380766	0.354618
C50	C	0.987033	0.119234	0.854618
C51	C	0.403700	-0.380769	0.354628
C52	C	0.903700	0.119231	0.854628
C53	C	0.724088	-0.380755	0.354596
C54	C	1.224088	0.119245	0.854596
C55	C	1.063456	-0.586119	0.354590
C56	C	1.563456	-0.086119	0.854590
C57	C	1.063497	-0.673975	0.354609
C58	C	1.563497	-0.173975	0.854609
C59	C	1.016526	-1.045462	0.401661
C60	C	1.516526	-0.545462	0.901661
C61	C	1.110715	-1.045440	0.307618
C62	C	1.610715	-0.545440	0.807618
C63	C	1.110690	-0.962894	0.307611
C64	C	1.610690	-0.462894	0.807611
C65	C	1.063580	-0.921628	0.354629
C66	C	1.563580	-0.421628	0.854629
C67	C	1.016497	-0.962908	0.401654
C68	C	1.516497	-0.462908	0.901654
C69	C	1.157767	-0.921608	0.260582
C70	C	1.657767	-0.421608	0.760582
C71	C	1.157743	-0.839057	0.260573
C72	C	1.657743	-0.339057	0.760573
C73	C	1.110637	-0.797789	0.307595
C74	C	1.610637	-0.297789	0.807595
C75	C	1.063552	-0.839075	0.354622
C76	C	1.563552	-0.339075	0.854622
C77	C	1.016442	-0.797809	0.401640
C78	C	1.516442	-0.297809	0.901640
C79	C	0.969361	-0.839093	0.448672
C80	C	1.469361	-0.339093	0.948672
C81	C	0.969391	-0.921641	0.448676
C82	C	1.469391	-0.421641	0.948676
C83	C	1.110606	-0.715241	0.307591
C84	C	1.610606	-0.215241	0.807591
C85	C	1.016414	-0.715255	0.401634
C86	C	1.516414	-0.215255	0.901634
C87	C	1.255471	-0.380767	0.354624
C88	C	1.755471	0.119233	0.854624
C89	C	1.337270	-0.380773	0.354633
C90	C	1.837270	0.119227	0.854633
C91	C	1.063553	-0.380689	0.546555
C92	C	1.563553	0.119311	1.046555
C93	C	1.063568	-0.380662	0.628354
C94	C	1.563568	0.119338	1.128354
C95	C	1.063600	-0.174584	0.354631
C96	C	1.563600	0.325416	0.854631
C97	C	1.063635	-0.086728	0.354643
C98	C	1.563635	0.413272	0.854643
C99	C	1.063526	-0.380758	0.163396
C100	C	1.563526	0.119242	0.663396
C101	C	1.063653	-0.380562	0.081597
C102	C	1.563653	0.119438	0.581597
C103	C	1.016558	-0.330070	0.816551
C104	C	1.516558	0.169930	1.316551
C105	C	1.016571	-0.330054	0.893409
C106	C	1.516571	0.169946	1.393409
C107	C	1.110665	-0.431161	0.893395
C108	C	1.610665	0.068839	1.393395
C109	C	1.110648	-0.431180	0.816538
C110	C	1.610648	0.068820	1.316538
C111	C	1.063596	-0.380630	0.778118
C112	C	1.563596	0.119370	1.278118
C113	C	1.063625	-0.380595	0.931834
C114	C	1.563625	0.119405	1.431834
C115	C	1.063640	-0.380578	1.015168
C116	C	1.563640	0.119422	1.515168
C117	C	1.063580	-0.380648	0.694779
C118	C	1.563580	0.119352	1.194779
H119	H	0.633615	-0.472584	0.439850
H120	H	1.133615	0.027416	0.939850
C121	C	0.501819	-0.196257	0.271991
C122	C	1.001819	0.303743	0.771991
C123	C	0.483217	-0.274516	0.255983
C124	C	0.983217	0.225484	0.755983
H125	H	0.475737	-0.161913	0.240108
H126	H	0.975737	0.338087	0.740108
H127	H	0.553086	-0.189016	0.265263
H128	H	1.053086	0.310984	0.765263
H129	H	0.489238	-0.184764	0.321458
H130	H	0.989238	0.315236	0.821458
H131	H	0.495804	-0.286011	0.206518
H132	H	0.995804	0.213989	0.706518
H133	H	0.431939	-0.281761	0.262705
H134	H	0.931939	0.218239	0.762705
H135	H	1.148936	-0.681632	0.269295
H136	H	1.648936	-0.181632	0.769295
C137	C	1.250859	-0.913300	0.167616
C138	C	1.750859	-0.413300	0.667616
C139	C	1.209545	-0.966966	0.208900
C140	C	1.709545	-0.466966	0.708900
H141	H	1.282823	-0.941307	0.135706
H142	H	1.782823	-0.441307	0.635706
H143	H	1.278979	-0.881062	0.199700
H144	H	1.778979	-0.381062	0.699700
H145	H	1.218793	-0.881145	0.139434
H146	H	1.718793	-0.381145	0.639434
H147	H	1.241612	-0.999117	0.237086
H148	H	1.741612	-0.499117	0.737086
H149	H	1.181424	-0.999218	0.176812
H150	H	1.681424	-0.499218	0.676812
H151	H	0.931059	-0.955262	0.486966
H152	H	1.431059	-0.455262	0.986966
C153	C	1.209614	-0.442189	0.730101
C154	C	1.709614	0.057811	1.230101
C155	C	1.162354	-0.486760	0.774284
C156	C	1.662354	0.013240	1.274284
H157	H	1.241528	-0.476504	0.704012
H158	H	1.741528	0.023496	1.204012
H159	H	1.237786	-0.407754	0.760092
H160	H	1.737786	0.092246	1.260092
H161	H	1.181578	-0.412093	0.696225
H162	H	1.681578	0.087907	1.196225
H163	H	1.190391	-0.516852	0.808164
H164	H	1.690391	-0.016852	1.308164
H165	H	1.134180	-0.521208	0.744290
H166	H	1.634180	-0.021208	1.244290
H167	H	0.494187	-0.472586	0.439866
H168	H	0.994187	0.027414	0.939866
C169	C	0.625959	-0.291477	0.183060
C170	C	1.125959	0.208523	0.683060
C171	C	0.644561	-0.274507	0.255967
C172	C	1.144561	0.225493	0.755967
H173	H	0.652041	-0.257133	0.151174
H174	H	1.152041	0.242867	0.651174
H175	H	0.574692	-0.284232	0.176340
H176	H	1.074692	0.215768	0.676340
H177	H	0.638539	-0.344573	0.172217
H178	H	1.138539	0.155427	0.672217
H179	H	0.631975	-0.221412	0.266812
H180	H	1.131975	0.278588	0.766812
H181	H	0.695838	-0.281745	0.262690
H182	H	1.195838	0.218255	0.762690
C183	C	0.923315	-0.723569	0.494597
C184	C	1.423315	-0.223569	0.994597
C185	C	0.964629	-0.669899	0.453319
C186	C	1.464629	-0.169899	0.953319
H187	H	0.891343	-0.695567	0.526502
H188	H	1.391343	-0.195567	1.026502
H189	H	0.955375	-0.755721	0.522777
H190	H	1.455375	-0.255721	1.022777
H191	H	0.895197	-0.755811	0.462504
H192	H	1.395197	-0.255811	0.962504
H193	H	0.992752	-0.637661	0.485413
H194	H	1.492752	-0.137661	0.985413
H195	H	0.932565	-0.637734	0.425137
H196	H	1.432565	-0.137734	0.925137
C197	C	1.203669	-0.531104	0.885661
C198	C	1.703669	-0.031104	1.385661
C199	C	1.162388	-0.486718	0.935629
C200	C	1.662388	0.013282	1.435629
H201	H	1.235599	-0.565405	0.911735
H202	H	1.735599	-0.065405	1.411735
H203	H	1.231822	-0.496674	0.855694
H204	H	1.731822	0.003326	1.355694
H205	H	1.171579	-0.561345	0.855675
H206	H	1.671579	-0.061345	1.355675
H207	H	1.194478	-0.456473	0.965611
H208	H	1.694478	0.043527	1.465611
H209	H	1.134233	-0.521153	0.965609
H210	H	1.634233	-0.021153	1.465609
C211	C	0.974742	-1.172007	0.443436
C212	C	1.474742	-0.672007	0.943436
C213	C	0.964772	-1.090836	0.453354
C214	C	1.464772	-0.590836	0.953354
H215	H	0.942787	-1.200018	0.475346
H216	H	1.442787	-0.700018	0.975346
H217	H	1.024180	-1.185485	0.454257
H218	H	1.524180	-0.685485	0.954257
H219	H	0.964007	-1.185568	0.393979
H220	H	1.464007	-0.685568	0.893979
H221	H	0.975513	-1.077274	0.502810
H222	H	1.475513	-0.577274	1.002810
H223	H	0.915323	-1.077352	0.442538
H224	H	1.415323	-0.577352	0.942538
C225	C	1.152531	-1.171971	0.265827
C226	C	1.652531	-0.671971	0.765827
C227	C	1.162464	-1.090797	0.255906
C228	C	1.662464	-0.590797	0.755906
H229	H	1.184474	-1.199973	0.233894
H230	H	1.684474	-0.699973	0.733894
H231	H	1.103090	-1.185518	0.255039
H232	H	1.603090	-0.685518	0.755039
H233	H	1.163304	-1.185473	0.315277
H234	H	1.663304	-0.685473	0.815277
H235	H	1.151685	-1.077294	0.206457
H236	H	1.651685	-0.577294	0.706457
H237	H	1.211916	-1.077244	0.266689
H238	H	1.711916	-0.577244	0.766689
H239	H	0.931001	-0.805485	0.486951
H240	H	1.431001	-0.305485	0.986951
H241	H	1.196079	-0.805449	0.222279
H242	H	1.696079	-0.305449	0.722279
C243	C	0.891975	-0.291534	0.917055
C244	C	1.391975	0.208466	1.417055
C245	C	0.964865	-0.274473	0.935651
C246	C	1.464865	0.225527	1.435651
H247	H	0.860053	-0.257216	0.943129
H248	H	1.360053	0.242784	1.443129
H249	H	0.881191	-0.344632	0.929644
H250	H	1.381191	0.155368	1.429644
H251	H	0.885247	-0.284312	0.865781
H252	H	1.385247	0.215688	1.365781
H253	H	0.971595	-0.281701	0.986925
H254	H	1.471595	0.218299	1.486925
H255	H	0.975653	-0.221363	0.923067
H256	H	1.475653	0.278637	1.423067
C257	C	0.917555	-0.319110	0.730110
C258	C	1.417555	0.180890	1.230110
C259	C	0.964834	-0.274514	0.774315
C260	C	1.464834	0.225486	1.274315
H261	H	0.885624	-0.284811	0.704034
H262	H	1.385624	0.215189	1.204034
H263	H	0.889402	-0.353534	0.760084
H264	H	1.389402	0.146466	1.260084
H265	H	0.945576	-0.349220	0.696222
H266	H	1.445576	0.150780	1.196222
H267	H	0.936813	-0.244409	0.808206
H268	H	1.436813	0.255591	1.308206
H269	H	0.992990	-0.240077	0.744338
H270	H	1.492990	0.259923	1.244338
