data_functionalizedCrystal
_audit_creation_method	'MofGen! by Chris Wilmer'
_symmetry_space_group_name_H-M	'P1'
_symmetry_Int_Tables_number	1
_symmetry_cell_setting	triclinic
loop_
_symmetry_equiv_pos_as_xyz
  x,y,z
_cell_length_a	10.540539
_cell_length_b	17.699092
_cell_length_c	16.176319
_cell_angle_alpha	89.994879
_cell_angle_beta	89.994664
_cell_angle_gamma	83.905930
loop_
_atom_site_label
_atom_site_type_symbol
_atom_site_fract_x
_atom_site_fract_y
_atom_site_fract_z
O1	O	1.683947	0.106661	-0.068704
O2	O	1.314350	0.116711	-0.068714
O3	O	1.509585	0.001565	-0.068707
O4	O	1.488712	0.221807	-0.068711
O5	O	1.509558	0.001558	0.068786
O6	O	1.314324	0.116703	0.068779
O7	O	1.683920	0.106654	0.068789
Cu8	Cu	1.499119	0.111678	0.081338
Cu9	Cu	1.499151	0.111687	-0.081263
O10	O	1.488685	0.221799	0.068782
C11	C	1.267048	0.115953	0.000031
C12	C	1.126141	0.113699	0.000027
C13	C	1.508822	-0.026640	0.000038
C14	C	1.506573	-0.110673	0.000034
C15	C	1.505534	-0.150143	-0.074914
C16	C	1.503412	-0.229100	-0.074915
C17	C	1.502339	-0.268586	0.000033
C18	C	1.503375	-0.229110	0.074988
C19	C	1.505487	-0.150154	0.074988
C20	C	1.494854	-0.547530	0.074989
C21	C	1.492746	-0.626492	0.074983
C22	C	1.492780	-0.626476	-0.074914
C23	C	1.494892	-0.547520	-0.074914
C24	C	1.495921	-0.508051	0.000040
C25	C	1.498219	-0.422437	0.000040
C26	C	1.500051	-0.354199	0.000034
C27	C	0.944290	0.027300	0.000350
C28	C	1.090866	0.029585	0.000032
C29	C	1.063745	0.154182	-0.078486
C30	C	0.917253	0.151311	-0.078543
C31	C	0.916703	0.153014	0.077813
C32	C	1.063671	0.153788	0.078842
C33	C	1.731223	0.107411	0.000042
C34	C	1.872130	0.109666	0.000040
C35	C	1.489448	0.250005	0.000035
C36	C	1.491697	0.334037	0.000033
N37	N	1.499106	0.111671	0.195703
N38	N	1.499174	0.111687	-0.195629
C39	C	1.585582	0.060706	0.238971
C40	C	1.585589	0.060705	0.325518
C41	C	1.499124	0.111674	0.368796
C42	C	1.412639	0.162641	0.325523
C43	C	1.412628	0.162638	0.238977
C44	C	1.412683	0.162656	0.674551
C45	C	1.412703	0.162657	0.761103
C46	C	1.585644	0.060723	0.761092
C47	C	1.585632	0.060719	0.674546
C48	C	1.499143	0.111684	0.631280
C49	C	1.499136	0.111683	0.537436
C50	C	1.499137	0.111679	0.462639
H51	H	1.506415	-0.118000	-0.135946
H52	H	1.506315	-0.118017	0.136019
H53	H	1.342209	0.204138	0.203750
Br54	Br	1.491384	-0.680046	-0.176640
Br55	Br	1.502000	-0.282664	-0.176635
H56	H	1.342232	0.204139	0.360765
H57	H	1.491869	-0.658639	0.136018
Br58	Br	0.835456	0.252133	-0.084484
H59	H	1.342263	0.204154	0.639331
H60	H	1.656043	0.019219	0.639312
H61	H	1.655997	0.019204	0.203739
H62	H	1.495717	-0.515405	0.136020
H63	H	1.342289	0.204163	0.796338
Br64	Br	1.496359	-0.493937	-0.176633
H65	H	1.502493	-0.261265	0.136012
H66	H	1.134050	-0.002268	0.056313
Br67	Br	0.897633	-0.028092	0.094199
H68	H	0.914697	-0.005786	-0.055641
Br69	Br	1.161396	-0.023631	-0.094099
H70	H	0.889600	0.121397	-0.137231
H71	H	1.656003	0.019205	0.360746
H72	H	1.084972	0.215952	-0.081408
H73	H	1.106858	0.126066	-0.136916
Br74	Br	0.864940	0.107636	0.177005
Br75	Br	1.132646	0.104410	0.175653
H76	H	1.086777	0.215112	0.083581
H77	H	1.656064	0.019222	0.796328
Br78	Br	0.836147	0.254275	0.078695
