data_functionalizedCrystal
_audit_creation_method	'MofGen! by Chris Wilmer'
_symmetry_space_group_name_H-M	'P1'
_symmetry_Int_Tables_number	1
_symmetry_cell_setting	triclinic
loop_
_symmetry_equiv_pos_as_xyz
  x,y,z
_cell_length_a	6.817900
_cell_length_b	7.190334
_cell_length_c	12.200863
_cell_angle_alpha	91.281201
_cell_angle_beta	107.143441
_cell_angle_gamma	60.611776
loop_
_atom_site_label
_atom_site_type_symbol
_atom_site_fract_x
_atom_site_fract_y
_atom_site_fract_z
V1	V	-4.241321	0.665215	-0.156882
V2	V	-3.741321	1.165215	0.343118
O3	O	-4.205627	0.652329	0.009421
O4	O	-3.705627	1.152329	0.509421
O5	O	-4.209763	0.660880	-0.312882
O6	O	-3.709763	1.160880	0.187118
O7	O	-4.278106	0.955240	-0.153643
O8	O	-3.778106	1.455240	0.346357
O9	O	-4.136810	0.355931	-0.150920
O10	O	-3.636810	0.855931	0.349080
V11	V	-4.711729	0.628196	-0.137088
V12	V	-4.211729	1.128196	0.362912
O13	O	-4.531349	0.746419	-0.200303
O14	O	-4.031349	1.246419	0.299697
O15	O	-4.871898	0.546992	-0.093668
O16	O	-4.371898	1.046992	0.406332
O17	O	-4.520080	0.632531	0.018912
O18	O	-4.020080	1.132531	0.518912
O19	O	-4.864820	0.641082	-0.303392
O20	O	-4.364820	1.141082	0.196608
O21	O	-4.933636	0.937480	-0.143051
O22	O	-4.433636	1.437480	0.356949
O23	O	-4.451737	0.338171	-0.140327
O24	O	-3.951737	0.838171	0.359673
C25	C	-4.056104	0.650441	-0.350937
C26	C	-3.556104	1.150441	0.149063
C27	C	-4.112156	0.648830	-0.478463
C28	C	-3.612156	1.148830	0.021537
C29	C	-4.143293	1.025924	-0.147806
C30	C	-3.643293	1.525924	0.352194
C31	C	-4.256858	1.267479	-0.146158
C32	C	-3.756858	1.767479	0.353842
C33	C	-4.214748	0.645897	-0.711948
C34	C	-3.714748	1.145897	-0.211948
C35	C	-4.157650	0.647529	-0.582021
C36	C	-3.657650	1.147529	-0.082021
C37	C	-4.337080	0.642964	0.056961
C38	C	-3.837080	1.142964	0.556961
C39	C	-4.260270	0.644589	0.184486
C40	C	-3.760270	1.144589	0.684486
