data_functionalizedCrystal
_audit_creation_method	'MofGen! by Chris Wilmer'
_symmetry_space_group_name_H-M	'P1'
_symmetry_Int_Tables_number	1
_symmetry_cell_setting	triclinic
loop_
_symmetry_equiv_pos_as_xyz
  x,y,z
_cell_length_a	12.811457
_cell_length_b	13.262508
_cell_length_c	11.804610
_cell_angle_alpha	61.234162
_cell_angle_beta	71.466029
_cell_angle_gamma	82.749985
loop_
_atom_site_label
_atom_site_type_symbol
_atom_site_fract_x
_atom_site_fract_y
_atom_site_fract_z
O1	O	1.413602	0.161717	-0.106011
O2	O	1.102230	0.171226	-0.075464
O3	O	1.255435	0.003533	-0.037703
O4	O	1.260397	0.329410	-0.143772
O5	O	1.296831	0.044995	-0.253647
O6	O	1.143626	0.212687	-0.291408
O7	O	1.454997	0.203179	-0.321955
Cu8	Cu	1.303091	0.211719	-0.326399
Cu9	Cu	1.254136	0.162685	-0.071020
O10	O	1.301793	0.370871	-0.359716
C11	C	1.082879	0.190153	-0.178526
C12	C	0.963546	0.184764	-0.163894
C13	C	0.784439	0.219824	-0.371839
C14	C	0.672315	0.214762	-0.358096
C15	C	0.627174	0.169570	-0.122665
C16	C	0.739298	0.174632	-0.136407
C17	C	0.817927	0.199762	-0.260999
C18	C	0.930051	0.204832	-0.274743
C19	C	0.884909	0.159632	-0.039310
C20	C	0.772785	0.154570	-0.025567
C21	C	1.272604	-0.017515	-0.131762
C22	C	1.262076	-0.142002	-0.090303
C23	C	1.322657	-0.402517	-0.444296
C24	C	1.332540	-0.285554	-0.483249
C25	C	1.314925	-0.249660	-0.385016
C26	C	1.287425	-0.330741	-0.247823
C27	C	1.277532	-0.447714	-0.208865
C28	C	1.269801	-0.294857	-0.149585
C29	C	1.242301	-0.375938	-0.012391
C30	C	1.232410	-0.492899	0.026560
C31	C	1.250025	-0.528794	-0.071674
C32	C	1.279693	-0.177884	-0.188543
C33	C	1.234569	-0.223081	0.046888
C34	C	1.224686	-0.340044	0.085842
C35	C	1.474348	0.184251	-0.218890
C36	C	1.593680	0.189638	-0.233514
C37	C	1.284623	0.391918	-0.265654
C38	C	1.295149	0.516404	-0.307105
N39	N	1.337531	0.246206	-0.506020
C40	C	1.420275	0.329005	-0.604097
C41	C	1.446359	0.355077	-0.740013
C42	C	1.389698	0.298357	-0.777866
C43	C	1.306947	0.215562	-0.679789
C44	C	1.280866	0.189482	-0.543859
C45	C	1.250289	0.158834	-0.717628
C46	C	1.167538	0.076038	-0.619551
C47	C	1.141461	0.049963	-0.483635
C48	C	1.198122	0.106682	-0.445781
C49	C	1.276370	0.184914	-0.853558
C50	C	1.136961	0.045390	-0.793320
C51	C	1.110876	0.019319	-0.657404
N52	N	1.219704	0.128190	0.108603
H53	H	0.912184	0.143302	0.050942
F54	F	1.364436	0.273028	-0.957923
F55	F	1.480576	0.389352	-0.563798
F56	F	1.239508	-0.653279	-0.030222
H57	H	0.645056	0.231106	-0.448356
H58	H	1.220218	-0.193857	0.126879
H59	H	0.563138	0.149092	-0.021222
F60	F	1.170364	0.078939	-0.301124
F61	F	1.308961	-0.091605	-0.334549
F62	F	1.534423	0.443191	-0.844383
F63	F	1.053385	-0.038150	-0.379258
H64	H	1.322972	-0.154422	-0.416740
H65	H	0.708752	0.134105	0.075873
F66	F	1.417459	0.326109	-0.922522
F67	F	1.361791	-0.199269	-0.629253
F68	F	1.341383	-0.440725	-0.548825
F69	F	1.022809	-0.068797	-0.553010
H70	H	1.210008	-0.558913	0.138272
H71	H	0.848460	0.240301	-0.473291
H72	H	1.202294	-0.406076	0.197547
H73	H	0.994070	0.225300	-0.376193
F74	F	1.076657	-0.014985	-0.833597
