data_functionalizedCrystal
_audit_creation_method	'MofGen! by Chris Wilmer'
_symmetry_space_group_name_H-M	'P1'
_symmetry_Int_Tables_number	1
_symmetry_cell_setting	triclinic
loop_
_symmetry_equiv_pos_as_xyz
  x,y,z
_cell_length_a	19.077105
_cell_length_b	18.050590
_cell_length_c	19.076919
_cell_angle_alpha	92.270515
_cell_angle_beta	90.076224
_cell_angle_gamma	87.714864
loop_
_atom_site_label
_atom_site_type_symbol
_atom_site_fract_x
_atom_site_fract_y
_atom_site_fract_z
Zn1	Zn	1.058306	-0.359282	-0.440410
Zn2	Zn	1.558306	0.140718	0.059590
Zn3	Zn	1.062957	-0.478691	-0.322901
Zn4	Zn	1.562957	0.021309	0.177099
Zn5	Zn	0.945523	-0.349334	-0.318204
Zn6	Zn	1.445523	0.150666	0.181796
Zn7	Zn	0.940779	-0.478243	-0.435654
Zn8	Zn	1.440779	0.021757	0.064346
O9	O	1.001891	-0.416388	-0.379292
O10	O	1.501891	0.083612	0.120708
O11	O	1.157255	-0.379473	-0.428779
O12	O	1.657255	0.120527	0.071221
O13	O	1.051311	-0.457555	-0.223947
O14	O	1.551311	0.042445	0.276053
O15	O	0.960522	-0.246732	-0.334440
O16	O	1.460522	0.253268	0.165560
O17	O	1.160673	-0.467202	-0.342445
O18	O	1.660673	0.032798	0.157555
O19	O	1.043383	-0.254041	-0.424224
O20	O	1.543383	0.245959	0.075776
O21	O	0.965032	-0.362517	-0.220496
O22	O	1.465032	0.137483	0.279504
O23	O	0.846561	-0.362083	-0.329827
O24	O	1.346561	0.137917	0.170173
O25	O	0.952437	-0.466439	-0.534616
O26	O	1.452437	0.033561	-0.034616
O27	O	0.843076	-0.456792	-0.416117
O28	O	1.343076	0.043208	0.083883
O29	O	1.038784	-0.379039	-0.538111
O30	O	1.538784	0.120961	-0.038111
O31	O	1.046712	-0.582553	-0.337833
O32	O	1.546712	-0.082553	0.162167
O33	O	0.956948	-0.582224	-0.420672
O34	O	1.456948	-0.082224	0.079328
C35	C	0.819322	-0.408310	-0.371947
C36	C	1.319322	0.091690	0.128053
C37	C	0.741218	-0.404873	-0.368821
C38	C	1.241218	0.095127	0.131179
C39	C	0.702731	-0.452637	-0.412209
C40	C	1.202731	0.047363	0.087791
C41	C	0.629343	-0.449397	-0.409275
C42	C	1.129343	0.050603	0.090725
C43	C	0.594444	-0.398397	-0.362950
C44	C	1.094444	0.101603	0.137050
C45	C	0.632936	-0.350628	-0.319561
C46	C	1.132936	0.149372	0.180439
C47	C	0.706322	-0.353864	-0.322498
C48	C	1.206322	0.146136	0.177502
C49	C	0.375155	-0.383420	-0.349358
C50	C	0.875155	0.116580	0.150642
C51	C	0.301764	-0.380189	-0.346422
C52	C	0.801764	0.119811	0.153578
C53	C	0.298176	-0.478958	-0.436137
C54	C	0.798176	0.021042	0.063863
C55	C	0.371564	-0.482193	-0.439068
C56	C	0.871564	0.017807	0.060932
C57	C	0.410049	-0.434421	-0.395681
C58	C	0.910049	0.065579	0.104319
N59	N	0.519430	-0.395087	-0.359949
N60	N	1.019430	0.104913	0.140051
N61	N	0.485062	-0.437728	-0.398687
N62	N	0.985062	0.062272	0.101313
C63	C	1.001838	-0.609336	-0.379262
C64	C	1.501838	-0.109336	0.120738
C65	C	1.001879	-0.691884	-0.379275
C66	C	1.501879	-0.191884	0.120725
C67	C	1.050788	-0.891494	-0.334297
C68	C	1.550788	-0.391494	0.165703
C69	C	1.065373	-0.944195	-0.399117
C70	C	1.565373	-0.444195	0.100883
C71	C	1.001918	-0.843017	-0.379305
C72	C	1.501918	-0.343017	0.120695
C73	C	0.987403	-0.937403	-0.314516
C74	C	1.487403	-0.437403	0.185484
C75	C	1.001957	-0.989005	-0.379328
C76	C	1.501957	-0.489005	0.120672
C77	C	1.016535	-0.894634	-0.444160
C78	C	1.516535	-0.394634	0.055840
C79	C	0.938536	-0.887835	-0.359515
C80	C	1.438536	-0.387835	0.140485
C81	C	0.953096	-0.940514	-0.424378
C82	C	1.453096	-0.440514	0.075622
C83	C	1.001897	-0.758918	-0.379291
C84	C	1.501897	-0.258918	0.120709
C85	C	1.001977	-1.073103	-0.379349
C86	C	1.501977	-0.573103	0.120651
C87	C	1.185173	-0.424497	-0.386667
C88	C	1.685173	0.075503	0.113333
C89	C	1.263277	-0.427953	-0.389809
C90	C	1.763277	0.072047	0.110191
C91	C	0.994562	-0.423799	-0.562572
C92	C	1.494562	0.076201	-0.062572
C93	C	0.991439	-0.426957	-0.640675
C94	C	1.491439	0.073043	-0.140675
C95	C	1.001963	-0.222687	-0.379339
C96	C	1.501963	0.277313	0.120661
C97	C	1.001993	-0.140143	-0.379358
C98	C	1.501993	0.359857	0.120642
C99	C	1.034926	-0.382938	-0.679189
C100	C	1.534926	0.117062	-0.179189
C101	C	1.031983	-0.385902	-0.752575
C102	C	1.531983	0.114098	-0.252575
C103	C	0.985556	-0.432890	-0.787446
C104	C	1.485556	0.067110	-0.287446
C105	C	0.942065	-0.476910	-0.748927
C106	C	1.442065	0.023090	-0.248927
C107	C	0.945005	-0.473941	-0.675542
C108	C	1.445005	0.026059	-0.175542
C109	C	0.971940	-0.446644	-1.006726
C110	C	1.471940	0.053356	-0.506726
C111	C	0.969005	-0.449611	-1.080116
C112	C	1.469005	0.050389	-0.580116
C113	C	1.058922	-0.358602	-1.083759
C114	C	1.558922	0.141398	-0.583759
C115	C	1.061860	-0.355641	-1.010373
C116	C	1.561860	0.144359	-0.510373
C117	C	1.018367	-0.399658	-0.971860
C118	C	1.518367	0.100342	-0.471860
N119	N	0.982549	-0.435922	-0.862458
N120	N	1.482549	0.064078	-0.362458
N121	N	1.021371	-0.396621	-0.896850
N122	N	1.521371	0.103379	-0.396850
C123	C	1.009232	-0.408953	-0.196727
C124	C	1.509232	0.091047	0.303273
C125	C	1.012491	-0.405592	-0.118630
C126	C	1.512491	0.094408	0.381370
H127	H	0.598010	-0.488293	-0.444605
H128	H	1.098010	0.011707	0.055395
Br129	Br	0.879053	-0.540675	-0.796251
Br130	Br	1.379053	-0.040675	-0.296251
H131	H	0.911783	-0.961907	-0.462496
H132	H	1.411783	-0.461907	0.037504
H133	H	0.731140	-0.494169	-0.449929
H134	H	1.231140	0.005831	0.050071
Br135	Br	0.418922	-0.551414	-0.501936
Br136	Br	0.918922	-0.051414	-0.001936
H137	H	0.884936	-0.863176	-0.342744
H138	H	1.384936	-0.363176	0.157256
Br139	Br	0.758555	-0.289035	-0.263617
Br140	Br	1.258555	0.210965	0.236383
H141	H	0.604515	-0.309100	-0.281845
H142	H	1.104515	0.190900	0.218155
Br143	Br	1.119684	-0.855614	-0.270924
Br144	Br	1.619684	-0.355614	0.229076
Br145	Br	0.245942	-0.543790	-0.495013
Br146	Br	0.745942	-0.043790	0.004987
H147	H	0.273351	-0.338651	-0.308703
H148	H	0.773351	0.161349	0.191297
Br149	Br	0.885981	-0.533679	-0.623272
Br150	Br	1.385981	-0.033679	-0.123272
H151	H	1.094331	-0.322764	-1.115124
H152	H	1.594331	0.177236	-0.615124
Br153	Br	0.966913	-0.968905	-0.223181
Br154	Br	1.466913	-0.468905	0.276819
Br155	Br	0.427376	-0.318583	-0.290479
Br156	Br	0.927376	0.181417	0.209521
Br157	Br	1.124872	-0.291872	-0.963053
Br158	Br	1.624872	0.208128	-0.463053
H159	H	1.118990	-0.968837	-0.415870
H160	H	1.618990	-0.468837	0.084130
Br161	Br	0.905991	-0.513381	-1.127441
Br162	Br	1.405991	-0.013381	-0.627441
Br163	Br	1.037139	-0.863301	-0.535527
Br164	Br	1.537139	-0.363301	-0.035527
H165	H	1.072733	-0.344678	-0.650802
H166	H	1.572733	0.155322	-0.150802
Br167	Br	1.091036	-0.326196	-0.804842
Br168	Br	1.591036	0.173804	-0.304842
H169	H	0.936534	-0.482497	-0.975379
H170	H	1.436534	0.017503	-0.475379
