data_functionalizedCrystal
_audit_creation_method	'MofGen! by Chris Wilmer'
_symmetry_space_group_name_H-M	'P1'
_symmetry_Int_Tables_number	1
_symmetry_cell_setting	triclinic
loop_
_symmetry_equiv_pos_as_xyz
  x,y,z
_cell_length_a	33.510554
_cell_length_b	33.509711
_cell_length_c	33.506470
_cell_angle_alpha	60.004186
_cell_angle_beta	60.008358
_cell_angle_gamma	59.994760
loop_
_atom_site_label
_atom_site_type_symbol
_atom_site_fract_x
_atom_site_fract_y
_atom_site_fract_z
O1	O	0.055430	-0.583081	0.487524
O2	O	0.555430	-0.083081	0.987524
O3	O	0.020931	-0.453975	0.392819
O4	O	0.520931	0.046025	0.892819
O5	O	0.102693	-0.535652	0.392731
O6	O	0.602693	-0.035652	0.892731
O7	O	-0.026332	-0.501404	0.487613
O8	O	0.473668	-0.001404	0.987613
O9	O	0.129823	-0.508526	0.419767
O10	O	0.629823	-0.008526	0.919767
O11	O	0.048062	-0.426850	0.419856
O12	O	0.548062	0.073150	0.919856
O13	O	0.082561	-0.555956	0.514561
O14	O	0.582561	-0.055956	1.014561
Cu15	Cu	0.067789	-0.488926	0.469677
Cu16	Cu	0.567789	0.011074	0.969677
Cu17	Cu	0.035703	-0.521005	0.437703
Cu18	Cu	0.535703	-0.021005	0.937703
O19	O	0.000799	-0.474279	0.514649
O20	O	0.500799	0.025721	1.014649
N21	N	0.090357	-0.466366	0.492168
N22	N	0.590357	0.033634	0.992168
N23	N	0.013139	-0.543569	0.415212
N24	N	0.513139	-0.043569	0.915212
C25	C	0.143028	-0.279707	0.544737
C26	C	0.643028	0.220293	1.044737
C27	C	0.143165	-0.413746	0.678712
C28	C	0.643165	0.086254	1.178712
C29	C	0.143043	-0.413725	0.544739
C30	C	0.643043	0.086275	1.044739
C31	C	0.277090	-0.413694	0.544637
C32	C	0.777090	0.086306	1.044637
C33	C	0.157791	-0.323929	0.559462
C34	C	0.657791	0.176071	1.059462
C35	C	0.157869	-0.398994	0.634489
C36	C	0.657869	0.101006	1.134489
C37	C	0.232865	-0.398963	0.559407
C38	C	0.732865	0.101037	1.059407
C39	C	0.157801	-0.398982	0.559463
C40	C	0.657801	0.101018	1.059463
C41	C	0.124237	-0.223419	0.525994
C42	C	0.624237	0.276581	1.025994
C43	C	0.124262	-0.432490	0.525997
C44	C	0.624262	0.067510	1.025997
C45	C	0.176583	-0.380217	0.578205
C46	C	0.676583	0.119783	1.078205
C47	C	0.358938	-0.399566	0.501510
C48	C	0.858938	0.100434	1.001510
C49	C	0.410104	-0.416609	0.484423
C50	C	0.910104	0.083391	0.984423
C51	C	0.410135	-0.499402	0.515995
C52	C	0.910135	0.000598	1.015995
C53	C	0.358969	-0.482358	0.533084
C54	C	0.858969	0.017642	1.033084
C55	C	0.136554	-0.197822	0.475693
C56	C	0.636554	0.302178	0.975693
C57	C	0.119469	-0.146653	0.458657
C58	C	0.619469	0.353347	0.958657
C59	C	0.077755	-0.146680	0.542223
C60	C	0.577755	0.353320	1.042223
C61	C	0.094840	-0.197850	0.559260
C62	C	0.594840	0.302150	1.059260
C63	C	0.073954	-0.420144	0.538396
C64	C	0.573954	0.079856	1.038396
C65	C	0.056884	-0.437203	0.521352
C66	C	0.556884	0.062797	1.021352
C67	C	0.140427	-0.478952	0.479524
C68	C	0.640427	0.021048	0.979524
C69	C	0.157498	-0.461894	0.496561
C70	C	0.657498	0.038106	0.996561
C71	C	0.074158	-0.420182	0.760618
C72	C	0.574158	0.079818	1.260618
C73	C	0.057149	-0.437256	0.811786
C74	C	0.557149	0.062744	1.311786
C75	C	0.140732	-0.479014	0.811717
C76	C	0.640732	0.020986	1.311717
C77	C	0.157740	-0.461942	0.760547
C78	C	0.657740	0.038058	1.260547
C79	C	0.124452	-0.432525	0.734999
C80	C	0.624452	0.067475	1.234999
C81	C	0.333372	-0.432439	0.525839
C82	C	0.833372	0.067561	1.025839
C83	C	-0.020612	-0.577650	0.170305
C84	C	0.479388	-0.077650	0.670305
C85	C	-0.020943	-0.788098	0.380897
C86	C	0.479057	-0.288098	0.880897
C87	C	-0.020912	-0.577638	0.380991
C88	C	0.479088	-0.077638	0.880991
C89	C	-0.231336	-0.577418	0.380585
C90	C	0.268664	-0.077418	0.880585
C91	C	-0.129735	-0.611383	0.346870
C92	C	0.370265	-0.111383	0.846870
C93	C	-0.054722	-0.611464	0.347017
C94	C	0.445278	-0.111464	0.847017
C95	C	-0.073450	-0.630202	0.328195
C96	C	0.426550	-0.130202	0.828195
C97	C	-0.087616	-0.712029	0.371239
C98	C	0.412384	-0.212029	0.871239
C99	C	-0.070599	-0.763199	0.388315
C100	C	0.429401	-0.263199	0.888315
C101	C	0.012191	-0.763282	0.356872
C102	C	0.512191	-0.263282	0.856872
C103	C	-0.004828	-0.712113	0.339795
C104	C	0.495172	-0.212113	0.839795
C105	C	-0.155381	-0.623711	0.397158
C106	C	0.344619	-0.123711	0.897158
C107	C	-0.206547	-0.606601	0.414133
C108	C	0.293453	-0.106601	0.914133
C109	C	-0.206417	-0.564839	0.330529
C110	C	0.293583	-0.064839	0.830529
C111	C	-0.155251	-0.581949	0.313554
C112	C	0.344749	-0.081949	0.813554
C113	C	-0.067051	-0.561160	0.334643
C114	C	0.432949	-0.061160	0.834643
C115	C	-0.050026	-0.544131	0.351759
C116	C	0.449974	-0.044131	0.851759
C117	C	-0.008343	-0.627704	0.393612
C118	C	0.491657	-0.127704	0.893612
C119	C	-0.025368	-0.644736	0.376502
C120	C	0.474632	-0.144736	0.876502
C121	C	-0.066922	-0.561168	0.246303
C122	C	0.433078	-0.061168	0.746303
C123	C	-0.049794	-0.544141	0.195134
C124	C	0.450206	-0.044141	0.695134
C125	C	-0.008048	-0.627719	0.195183
C126	C	0.491952	-0.127719	0.695183
C127	C	-0.025175	-0.644745	0.246352
C128	C	0.474825	-0.144745	0.746352
C129	C	-0.054614	-0.611468	0.271911
C130	C	0.445386	-0.111468	0.771911
C131	C	-0.054732	-0.686488	0.346980
C132	C	0.445268	-0.186488	0.846980
C133	C	-0.002117	-0.558258	0.114025
C134	C	0.497883	-0.058258	0.614025
C135	C	-0.002879	-0.844379	0.399940
C136	C	0.497121	-0.344379	0.899940
C137	C	-0.002504	-0.558243	0.399473
C138	C	0.497496	-0.058243	0.899473
C139	C	-0.287615	-0.558285	0.398601
C140	C	0.212385	-0.058285	0.898601
N141	N	0.434975	-0.466279	0.491900
N142	N	0.934975	0.033721	0.991900
O143	O	0.591199	-0.470749	0.375150
O144	O	1.091199	0.029251	0.875150
O145	O	0.591395	-0.565767	0.504116
O146	O	1.091395	-0.065767	1.004116
O147	O	0.591311	-0.565550	0.422329
O148	O	1.091311	-0.065550	0.922329
O149	O	0.591283	-0.470966	0.456937
O150	O	1.091283	0.029034	0.956937
O151	O	0.510024	-0.538522	0.449509
O152	O	1.010024	-0.038522	0.949509
O153	O	0.510108	-0.538739	0.531297
O154	O	1.010108	-0.038739	1.031297
O155	O	0.509913	-0.443721	0.402330
O156	O	1.009913	0.056279	0.902330
Cu157	Cu	0.502588	-0.488762	0.469295
Cu158	Cu	1.002588	0.011238	0.969295
Cu159	Cu	0.598719	-0.520726	0.437151
Cu160	Cu	1.098719	-0.020726	0.937151
O161	O	0.509997	-0.443938	0.484117
O162	O	1.009997	0.056062	0.984117
N163	N	0.666332	-0.543209	0.414541
N164	N	1.166332	-0.043209	0.914541
N165	N	0.090323	-0.121809	0.492157
N166	N	0.590323	0.378191	0.992157
O167	O	-0.026342	0.034503	0.487582
O168	O	0.473658	0.534503	0.987582
O169	O	0.102626	0.034543	0.392540
O170	O	0.602626	0.534543	0.892540
O171	O	0.020797	0.034507	0.392812
O172	O	0.520797	0.534507	0.892812
O173	O	0.055487	0.034539	0.487310
O174	O	0.555487	0.534539	0.987310
O175	O	0.047933	-0.046785	0.419900
O176	O	0.547933	0.453215	0.919900
O177	O	0.129763	-0.046749	0.419628
O178	O	0.629763	0.453251	0.919628
O179	O	0.000794	-0.046789	0.514670
O180	O	0.500794	0.453211	1.014670
Cu181	Cu	0.067756	-0.054192	0.469623
Cu182	Cu	0.567756	0.445808	0.969623
Cu183	Cu	0.035664	0.041946	0.437588
Cu184	Cu	0.535664	0.541946	0.937588
O185	O	0.082623	-0.046753	0.514399
O186	O	0.582623	0.453247	1.014399
N187	N	0.013091	0.109564	0.415054
N188	N	0.513091	0.609564	0.915054
N189	N	0.090671	-0.466416	0.836606
N190	N	0.590671	0.033584	1.336606
O191	O	0.086120	-0.583065	0.992910
O192	O	0.586120	-0.083065	1.492910
O193	O	-0.008880	-0.454051	0.992954
O194	O	0.491120	0.045949	1.492954
O195	O	-0.008658	-0.535864	0.992931
O196	O	0.491342	-0.035864	1.492931
O197	O	0.085897	-0.501252	0.992933
O198	O	0.585897	-0.001252	1.492933
O199	O	0.018407	-0.508749	0.911642
O200	O	0.518407	-0.008749	1.411642
O201	O	0.018185	-0.426936	0.911665
O202	O	0.518185	0.073064	1.411665
O203	O	0.113185	-0.555949	0.911621
O204	O	0.613185	-0.055949	1.411621
Cu205	Cu	0.068156	-0.488967	0.904221
Cu206	Cu	0.568156	0.011033	1.404221
Cu207	Cu	0.036148	-0.521034	1.000355
Cu208	Cu	0.536148	-0.021034	1.500355
O209	O	0.112963	-0.474136	0.911644
O210	O	0.612963	0.025864	1.411644
N211	N	0.013633	-0.543590	1.067970
N212	N	0.513633	-0.043590	1.567970
C213	C	0.031262	-0.424144	0.393290
C214	C	0.531262	0.075856	0.893290
C215	C	0.132513	-0.525291	0.393180
C216	C	0.632513	-0.025291	0.893180
C217	C	0.072229	-0.585787	0.514090
C218	C	0.572229	-0.085787	1.014090
C219	C	-0.029022	-0.484640	0.514200
C220	C	0.470978	0.015360	1.014200
C221	C	0.550775	-0.565338	0.533954
C222	C	1.050775	-0.065338	1.033954
C223	C	0.550672	-0.565070	0.432670
C224	C	1.050672	-0.065070	0.932670
C225	C	0.550530	-0.444149	0.372492
C226	C	1.050530	0.055851	0.872492
C227	C	0.550635	-0.444418	0.473776
C228	C	1.050635	0.055582	0.973776
C229	C	0.132408	-0.005998	0.392963
C230	C	0.632408	0.494002	0.892963
C231	C	0.031106	-0.006142	0.393333
C232	C	0.531106	0.493858	0.893333
C233	C	-0.029021	-0.006147	0.514213
C234	C	0.470979	0.493853	1.014213
C235	C	0.072314	-0.006104	0.513878
C236	C	0.572314	0.493896	1.013878
C237	C	-0.008430	-0.424240	0.952316
C238	C	0.491570	0.075760	1.452316
C239	C	-0.008150	-0.525550	0.952271
C240	C	0.491850	-0.025550	1.452271
C241	C	0.112735	-0.585760	0.952260
C242	C	0.612735	-0.085760	1.452260
C243	C	0.112461	-0.484444	0.952286
C244	C	0.612461	0.015556	1.452286
H245	H	0.016194	-0.427197	0.832639
H246	H	0.516194	0.072803	1.332639
H247	H	0.550629	-0.414708	0.481180
H248	H	1.050629	0.085292	0.981180
H249	H	-0.090949	-0.534065	0.310634
H250	H	0.409051	-0.034065	0.810634
H251	H	0.079744	-0.006095	0.543566
H252	H	0.579744	0.493905	1.043566
H253	H	0.169370	-0.005761	0.363053
H254	H	0.669370	0.494239	0.863053
H255	H	0.023675	-0.006147	0.363643
H256	H	0.523675	0.493853	0.863643
O257	O	0.147890	-0.475663	0.952365
O258	O	0.647890	0.024337	1.452365
C259	C	0.161073	-0.509181	0.994448
C260	C	0.661073	-0.009181	1.494448
H261	H	0.129771	-0.523513	1.023879
H262	H	0.629771	-0.023513	1.523879
H263	H	0.169000	-0.490134	1.008581
H264	H	0.669000	0.009866	1.508581
H265	H	0.195109	-0.540997	0.984915
H266	H	0.695109	-0.040997	1.484915
O267	O	-0.073249	-0.475850	0.549700
O268	O	0.426751	0.024150	1.049700
C269	C	-0.103635	-0.427830	0.532037
C270	C	0.396365	0.072170	1.032037
H271	H	-0.080106	-0.404613	0.500640
H272	H	0.419894	0.095387	1.000640
H273	H	-0.127042	-0.411467	0.562711
H274	H	0.372958	0.088533	1.062711
H275	H	-0.128327	-0.428578	0.518477
H276	H	0.371673	0.071422	1.018477
O277	O	0.008011	-0.425275	0.533479
O278	O	0.508011	0.074725	1.033479
C279	C	-0.013193	-0.442788	0.584732
C280	C	0.486807	0.057212	1.084732
H281	H	0.015969	-0.474342	0.601195
H282	H	0.515969	0.025658	1.101195
H283	H	-0.043350	-0.456086	0.594546
H284	H	0.456650	0.043914	1.094546
H285	H	-0.029345	-0.412099	0.599901
H286	H	0.470655	0.087901	1.099901
H287	H	0.079602	-0.622875	0.543835
H288	H	0.579602	-0.122875	1.043835
H289	H	-0.038255	-0.387188	0.952329
H290	H	0.461745	0.112812	1.452329
H291	H	-0.037843	-0.532946	0.952238
H292	H	0.462157	-0.032946	1.452238
H293	H	0.169570	-0.532590	0.363385
H294	H	0.669570	-0.032590	0.863385
O295	O	0.172694	-0.507585	0.450995
O296	O	0.672694	-0.007585	0.950995
C297	C	0.165347	-0.553080	0.474240
C298	C	0.665347	-0.053080	0.974240
H299	H	0.146818	-0.560134	0.515265
H300	H	0.646818	-0.060134	1.015265
H301	H	0.202110	-0.583276	0.467075
H302	H	0.702110	-0.083276	0.967075
H303	H	0.141173	-0.552620	0.459176
H304	H	0.641173	-0.052620	0.959176
O305	O	0.550821	-0.600974	0.578120
O306	O	1.050821	-0.100974	1.078120
C307	C	0.550863	-0.643061	0.578100
C308	C	1.050863	-0.143061	1.078100
H309	H	0.535435	-0.632233	0.549180
H310	H	1.035435	-0.132233	1.049180
H311	H	0.527311	-0.661378	0.615579
H312	H	1.027311	-0.161378	1.115579
H313	H	0.589874	-0.669602	0.569524
H314	H	1.089874	-0.169602	1.069524
O315	O	0.435054	-0.547890	0.523057
O316	O	0.935054	-0.047890	1.023057
C317	C	0.464675	-0.565619	0.550867
C318	C	0.964675	-0.065619	1.050867
H319	H	0.472336	-0.534027	0.546852
H320	H	0.972336	-0.034027	1.046852
H321	H	0.500655	-0.593911	0.537268
H322	H	1.000655	-0.093911	1.037268
H323	H	0.444987	-0.583254	0.590970
H324	H	0.944987	-0.083254	1.090970
O325	O	0.550437	-0.408497	0.328342
O326	O	1.050437	0.091503	0.828342
C327	C	0.550422	-0.366420	0.328354
C328	C	1.050422	0.133580	0.828354
H329	H	0.535073	-0.367015	0.367565
H330	H	1.035073	0.132985	0.867565
H331	H	0.526773	-0.332409	0.306658
H332	H	1.026773	0.167591	0.806658
H333	H	0.589405	-0.365810	0.310848
H334	H	1.089405	0.134190	0.810848
H335	H	-0.066059	-0.006159	0.544050
H336	H	0.433941	0.493841	1.044050
O337	O	0.022507	-0.379942	0.357741
O338	O	0.522507	0.120058	0.857741
C339	C	0.027924	-0.386320	0.316563
C340	C	0.527924	0.113680	0.816563
H341	H	0.052411	-0.425284	0.317007
H342	H	0.552411	0.074716	0.817007
H343	H	0.045200	-0.359453	0.281849
H344	H	0.545200	0.140547	0.781849
H345	H	-0.009456	-0.379379	0.317535
H346	H	0.490544	0.120621	0.817535
O347	O	0.206384	-0.473941	0.484484
O348	O	0.706384	0.026059	0.984484
C349	C	0.232058	-0.503537	0.454835
C350	C	0.732058	-0.003537	0.954835
H351	H	0.207661	-0.522154	0.461387
H352	H	0.707661	-0.022154	0.961387
H353	H	0.266232	-0.532475	0.464385
H354	H	0.766232	-0.032475	0.964385
H355	H	0.243043	-0.479913	0.414759
H356	H	0.743043	0.020087	0.914759
H357	H	0.142562	-0.622811	0.952240
H358	H	0.642562	-0.122811	1.452240
H359	H	0.167840	-0.502959	0.832516
H360	H	0.667840	-0.002959	1.332516
O361	O	0.041800	-0.391677	0.735825
O362	O	0.541800	0.108323	1.235825
C363	C	0.012214	-0.417518	0.748360
C364	C	0.512214	0.082482	1.248360
H365	H	0.031993	-0.458455	0.762404
H366	H	0.531993	0.041545	1.262404
H367	H	0.004441	-0.408357	0.714728
H368	H	0.504441	0.091643	1.214728
H369	H	-0.023716	-0.406637	0.778084
H370	H	0.476284	0.093363	1.278084
O371	O	0.206615	-0.473960	0.735738
O372	O	0.706615	0.026040	1.235738
C373	C	0.232345	-0.503591	0.769262
C374	C	0.732345	-0.003591	1.269262
H375	H	0.207966	-0.497073	0.805746
H376	H	0.707966	0.002927	1.305746
H377	H	0.266484	-0.493988	0.754455
H378	H	0.766484	0.006012	1.254455
H379	H	0.243392	-0.543671	0.774693
H380	H	0.743392	-0.043671	1.274693
O381	O	0.550599	-0.600475	0.423845
O382	O	1.050599	-0.100475	0.923845
C383	C	0.508478	-0.583663	0.412375
C384	C	1.008478	-0.083663	0.912375
H385	H	0.479046	-0.553330	0.428176
H386	H	0.979046	-0.053330	0.928176
H387	H	0.494381	-0.615160	0.428690
H388	H	0.994381	-0.115160	0.928690
H389	H	0.517945	-0.568905	0.370987
H390	H	1.017945	-0.068905	0.870987
O391	O	0.041714	-0.391520	0.566932
O392	O	0.541714	0.108480	1.066932
C393	C	0.049050	-0.346017	0.543665
C394	C	0.549050	0.153983	1.043665
H395	H	0.087866	-0.350128	0.516606
H396	H	0.587866	0.149872	1.016606
H397	H	0.043379	-0.332914	0.572227
H398	H	0.543379	0.167086	1.072227
H399	H	0.021837	-0.318215	0.523349
H400	H	0.521837	0.181785	1.023349
O401	O	0.334213	-0.514357	0.556689
O402	O	0.834213	-0.014357	1.056689
C403	C	0.367782	-0.562071	0.559425
C404	C	0.867782	-0.062071	1.059425
H405	H	0.404237	-0.560112	0.529185
H406	H	0.904237	-0.060112	1.029185
H407	H	0.352993	-0.583079	0.554807
H408	H	0.852993	-0.083079	1.054807
H409	H	0.373259	-0.581605	0.596494
H410	H	0.873259	-0.081605	1.096494
H411	H	0.430920	-0.389838	0.464614
H412	H	0.930920	0.110162	0.964614
H413	H	0.015562	-0.654800	0.417614
H414	H	0.515562	-0.154800	0.917614
H415	H	0.160490	-0.218637	0.448603
H416	H	0.660490	0.281363	0.948603
O417	O	0.334125	-0.351054	0.494389
O418	O	0.834125	0.148946	0.994389
C419	C	0.346579	-0.324648	0.443870
C420	C	0.846579	0.175352	0.943870
H421	H	0.383723	-0.346998	0.423704
H422	H	0.883723	0.153002	0.923704
H423	H	0.348324	-0.288573	0.437106
H424	H	0.848324	0.211427	0.937106
H425	H	0.317763	-0.317019	0.429947
H426	H	0.817763	0.182981	0.929947
O427	O	0.131409	-0.121837	0.409782
O428	O	0.631409	0.378163	0.909782
C429	C	0.113878	-0.134334	0.388556
C430	C	0.613878	0.365666	0.888556
H431	H	0.108892	-0.171496	0.412815
H432	H	0.608892	0.328504	0.912815
H433	H	0.141272	-0.136067	0.350907
H434	H	0.641272	0.363933	0.850907
H435	H	0.077294	-0.105547	0.384781
H436	H	0.577294	0.394453	0.884781
O437	O	0.049191	-0.121915	0.574603
O438	O	0.549191	0.378085	1.074603
C439	C	0.042001	-0.155482	0.622654
C440	C	0.542001	0.344518	1.122654
H441	H	0.047723	-0.191958	0.622562
H442	H	0.547723	0.308042	1.122562
H443	H	0.003207	-0.140714	0.646973
H444	H	0.503207	0.359286	1.146973
H445	H	0.069258	-0.160916	0.637283
H446	H	0.569258	0.339084	1.137283
H447	H	0.084809	-0.218687	0.600218
H448	H	0.584809	0.281313	1.100218
H449	H	-0.059824	-0.503179	0.174290
H450	H	0.440176	-0.003179	0.674290
H451	H	-0.090896	-0.534066	0.267110
H452	H	0.409104	-0.034066	0.767110
H453	H	0.015913	-0.654818	0.174378
H454	H	0.515913	-0.154818	0.674378
H455	H	-0.015148	-0.685706	0.267200
H456	H	0.484852	-0.185706	0.767200
H457	H	-0.015331	-0.685697	0.386578
H458	H	0.484669	-0.185697	0.886578
O459	O	-0.061930	-0.495263	0.339652
O460	O	0.438070	0.004737	0.839652
C461	C	-0.044359	-0.474050	0.288404
C462	C	0.455641	0.025950	0.788404
H463	H	-0.012804	-0.503219	0.271954
H464	H	0.487196	-0.003219	0.771954
H465	H	-0.031048	-0.443920	0.278639
H466	H	0.468952	0.056080	0.778639
H467	H	-0.075014	-0.457858	0.273178
H468	H	0.424986	0.042142	0.773178
O469	O	0.027181	-0.687377	0.316259
O470	O	0.527181	-0.187377	0.816259
C471	C	0.074878	-0.720969	0.313572
C472	C	0.574878	-0.220969	0.813572
H473	H	0.072887	-0.757429	0.343796
H474	H	0.572887	-0.257429	0.843796
H475	H	0.095865	-0.706209	0.318253
H476	H	0.595865	-0.206209	0.818253
H477	H	0.094450	-0.726431	0.276496
H478	H	0.594450	-0.226431	0.776496
H479	H	-0.097376	-0.783993	0.408060
H480	H	0.402624	-0.283993	0.908060
O481	O	0.060650	-0.788253	0.349956
O482	O	0.560650	-0.288253	0.849956
C483	C	0.068621	-0.838893	0.370220
C484	C	0.568621	-0.338893	0.870220
H485	H	0.033383	-0.845842	0.399503
H486	H	0.533383	-0.345842	0.899503
H487	H	0.098478	-0.858365	0.387282
H488	H	0.598478	-0.358365	0.887282
H489	H	0.080446	-0.853422	0.340262
H490	H	0.580446	-0.353422	0.840262
O491	O	-0.136104	-0.687215	0.378225
O492	O	0.363896	-0.187215	0.878225
C493	C	-0.161477	-0.720734	0.403302
C494	C	0.338523	-0.220734	0.903302
H495	H	-0.135216	-0.757228	0.397438
H496	H	0.364784	-0.257228	0.897438
H497	H	-0.192285	-0.705933	0.388734
H498	H	0.307715	-0.205933	0.888734
H499	H	-0.177449	-0.726147	0.444010
H500	H	0.322551	-0.226147	0.944010
H501	H	-0.227429	-0.616637	0.455084
H502	H	0.272571	-0.116637	0.955084
O503	O	-0.130669	-0.652279	0.429585
O504	O	0.369331	-0.152279	0.929585
C505	C	-0.164279	-0.659497	0.477612
C506	C	0.335721	-0.159497	0.977612
H507	H	-0.200730	-0.628617	0.477463
H508	H	0.299270	-0.128617	0.977463
H509	H	-0.149536	-0.659779	0.501951
H510	H	0.350464	-0.159779	1.001951
H511	H	-0.169748	-0.695929	0.492259
H512	H	0.330252	-0.195929	0.992259
O513	O	-0.231156	-0.536308	0.298123
O514	O	0.268844	-0.036308	0.798123
C515	C	-0.218637	-0.562158	0.268544
C516	C	0.281363	-0.062158	0.768544
H517	H	-0.181507	-0.591974	0.268097
H518	H	0.318493	-0.091974	0.768097
H519	H	-0.216829	-0.535916	0.229725
H520	H	0.283171	-0.035916	0.729725
H521	H	-0.247450	-0.579487	0.283890
H522	H	0.252550	-0.079487	0.783890
O523	O	-0.130280	-0.570062	0.264713
O524	O	0.369720	-0.070062	0.764713
C525	C	-0.100695	-0.613073	0.252375
C526	C	0.399305	-0.113073	0.752375
H527	H	-0.093092	-0.645221	0.286122
H528	H	0.406908	-0.145221	0.786122
H529	H	-0.064684	-0.608540	0.222752
H530	H	0.435316	-0.108540	0.722752
H531	H	-0.120385	-0.620237	0.238275
H532	H	0.379615	-0.120237	0.738275
