data_functionalizedCrystal
_audit_creation_method	'MofGen! by Chris Wilmer'
_symmetry_space_group_name_H-M	'P1'
_symmetry_Int_Tables_number	1
_symmetry_cell_setting	triclinic
loop_
_symmetry_equiv_pos_as_xyz
  x,y,z
_cell_length_a	19.188933
_cell_length_b	17.666332
_cell_length_c	10.489741
_cell_angle_alpha	90.004880
_cell_angle_beta	83.842371
_cell_angle_gamma	90.007838
loop_
_atom_site_label
_atom_site_type_symbol
_atom_site_fract_x
_atom_site_fract_y
_atom_site_fract_z
O1	O	0.927216	0.062923	0.159247
O2	O	0.724048	0.062930	0.180680
O3	O	0.830255	0.062922	-0.015738
O4	O	0.821009	0.062931	0.355664
O5	O	0.830236	-0.062975	-0.015744
O6	O	0.724029	-0.062967	0.180674
O7	O	0.927197	-0.062974	0.159241
Cu8	Cu	0.825611	-0.074466	0.169957
Cu9	Cu	0.825634	0.074422	0.169964
O10	O	0.820990	-0.062966	0.355659
C11	C	0.698023	-0.000018	0.179982
C12	C	0.620505	-0.000015	0.177898
N13	N	0.825601	-0.179185	0.169951
C14	C	0.067160	0.068603	0.163021
C15	C	0.139997	0.068606	0.164972
C16	C	0.176410	-0.000021	0.165951
C17	C	0.139982	-0.068655	0.164945
C18	C	0.067147	-0.068656	0.162981
N19	N	0.285930	-0.051100	0.241611
N20	N	0.355120	-0.051094	0.243479
C21	C	0.395859	-0.000022	0.171866
N22	N	0.364793	0.051057	0.098329
N23	N	0.295596	0.051054	0.096467
C24	C	0.255388	-0.000027	0.168080
C25	C	0.511257	0.068611	0.174978
C26	C	0.584096	0.068612	0.176921
C27	C	0.584079	-0.068651	0.176907
C28	C	0.511242	-0.068649	0.174951
C29	C	0.474835	-0.000016	0.173993
C30	C	0.868327	-0.218788	0.247125
C31	C	0.868338	-0.298036	0.247121
C32	C	0.825610	-0.337678	0.169959
C33	C	0.782881	-0.298065	0.092770
C34	C	0.782877	-0.218819	0.092766
N35	N	0.764441	-0.462115	0.166816
N36	N	0.764447	-0.537396	0.166827
C37	C	0.825623	-0.576442	0.169963
N38	N	0.886793	-0.537363	0.173114
N39	N	0.886785	-0.462076	0.173110
C40	C	0.825611	-0.423607	0.169954
C41	C	0.868364	-0.701974	0.247136
C42	C	0.868377	-0.781223	0.247123
C43	C	0.782914	-0.781250	0.092780
C44	C	0.782908	-0.702003	0.092785
C45	C	0.825632	-0.662369	0.169971
C46	C	0.953222	-0.000025	0.159938
C47	C	1.030740	-0.000023	0.162023
C48	C	0.829547	-0.000026	-0.063257
C49	C	0.827458	-0.000025	-0.204840
N50	N	0.825650	0.179141	0.169959
C51	C	0.759882	-0.000017	-0.271470
C52	C	0.791795	-0.062092	-0.364308
C53	C	0.791829	0.062033	-0.364278
C54	C	0.859399	-0.062151	-0.295814
C55	C	0.859424	0.062029	-0.295773
C56	C	0.891386	-0.000061	-0.388586
C57	C	0.821698	-0.000016	0.403178
C58	C	0.823787	-0.000013	0.544760
H59	H	0.169655	0.124490	0.165792
H60	H	0.887959	-0.114689	-0.265622
H61	H	0.946997	-0.000097	-0.439252
H62	H	0.903174	-0.813466	0.309963
H63	H	0.903119	-0.186523	0.309970
H64	H	0.481613	0.124497	0.174194
N65	N	0.471955	-0.142666	0.173880
H66	H	0.506130	-0.186140	0.173910
H67	H	0.436803	-0.145883	0.252564
H68	H	0.763236	0.114517	-0.394600
H69	H	0.903131	-0.330287	0.309968
H70	H	0.748125	-0.813526	0.029952
H71	H	0.613727	-0.124527	0.177699
N72	N	0.736819	-0.659289	0.009550
H73	H	0.686150	-0.673090	0.034940
H74	H	0.743356	-0.603085	0.021285
N75	N	0.027893	0.142625	0.161971
H76	H	0.062022	0.186099	0.162894
H77	H	0.002942	0.145611	0.082101
N78	N	0.179252	-0.142674	0.165997
H79	H	0.230919	-0.132261	0.167398
H80	H	0.161251	-0.172643	0.244698
N81	N	0.027862	-0.142676	0.161903
H82	H	0.062037	-0.186150	0.161932
H83	H	-0.007290	-0.145893	0.240587
N84	N	0.623383	0.142632	0.177977
H85	H	0.589264	0.186107	0.177071
H86	H	0.648344	0.145622	0.257836
N87	N	0.736800	-0.340816	0.009537
H88	H	0.743284	-0.397028	0.021251
H89	H	0.686149	-0.326972	0.034959
H90	H	0.704321	-0.000078	-0.220577
H91	H	0.763194	-0.114570	-0.394683
N92	N	0.897277	0.131545	-0.255493
H93	H	0.864790	0.162102	-0.193166
H94	H	0.939746	0.115672	-0.212948
N95	N	0.736786	-0.176105	0.009529
H96	H	0.702890	-0.143231	0.065213
H97	H	0.766918	-0.143265	-0.053025
N98	N	0.914444	-0.659219	0.330377
H99	H	0.941517	-0.696336	0.379260
H100	H	0.948291	-0.626332	0.274613
