data_functionalizedCrystal
_audit_creation_method	'MofGen! by Chris Wilmer'
_symmetry_space_group_name_H-M	'P1'
_symmetry_Int_Tables_number	1
_symmetry_cell_setting	triclinic
loop_
_symmetry_equiv_pos_as_xyz
  x,y,z
_cell_length_a	23.096457
_cell_length_b	12.970454
_cell_length_c	12.970454
_cell_angle_alpha	59.999776
_cell_angle_beta	89.998137
_cell_angle_gamma	59.999719
loop_
_atom_site_label
_atom_site_type_symbol
_atom_site_fract_x
_atom_site_fract_y
_atom_site_fract_z
Zr1	Zr	0.557765	1.128537	-0.135341
O2	O	0.465317	1.343624	-0.299960
O3	O	0.586105	0.913447	-0.084876
O4	O	0.586106	1.128537	-0.299967
O5	O	0.465316	1.128535	0.084797
O6	O	0.681387	1.128540	-0.299973
O7	O	0.465317	1.128534	-0.084869
O8	O	0.681385	0.743784	0.084785
O9	O	0.465317	1.513292	-0.299961
O10	O	0.669299	1.001920	-0.063359
O11	O	0.598192	1.001918	0.063266
O12	O	0.598193	1.255159	-0.189976
O13	O	0.527086	1.255157	-0.063351
Zr14	Zr	0.709725	1.128543	0.135247
Zr15	Zr	0.709727	1.128541	-0.135351
Zr16	Zr	0.557764	1.128538	0.135257
Zr17	Zr	0.557765	1.399137	-0.135343
Zr18	Zr	0.709725	0.857943	0.135249
O19	O	0.681385	1.343633	0.084782
O20	O	0.681387	1.343631	-0.299974
O21	O	0.465316	1.343626	0.084796
O22	O	0.802173	0.913456	0.299866
O23	O	0.802175	0.913454	-0.084890
O24	O	0.586104	0.913449	0.299880
O25	O	0.802175	1.128545	-0.084891
O26	O	0.681384	1.128543	0.299873
O27	O	0.586104	1.128540	0.299879
O28	O	0.802174	1.128545	0.084775
O29	O	0.586106	1.513295	-0.299969
O30	O	0.681384	0.743785	0.299875
O31	O	0.802173	0.743788	0.299867
O32	O	0.802174	0.743787	0.084777
O33	O	0.465317	1.513293	-0.084871
O34	O	0.586106	1.513296	-0.084879
O35	O	0.669298	1.001921	0.189882
O36	O	0.740405	1.001923	0.063257
O37	O	0.669299	1.255162	-0.063360
O38	O	0.598192	1.255160	0.063265
C39	C	0.633745	0.790061	-0.000045
C40	C	0.633745	0.675184	-0.000045
C41	C	0.443665	1.128534	-0.000035
C42	C	0.379154	1.128532	-0.000030
C43	C	0.385964	0.996348	0.066050
C44	C	0.325349	0.996346	0.066056
C45	C	0.257923	1.128536	-0.000044
C46	C	0.251114	1.260737	-0.066128
C47	C	0.311730	1.260736	-0.066121
N48	N	0.135128	1.226931	-0.107618
N49	N	0.077548	1.226924	-0.107622
C50	C	0.075290	1.128549	-0.000067
N51	N	0.132793	1.030159	0.107491
N52	N	0.190379	1.030162	0.107493
C53	C	0.192192	1.128552	-0.000058
C54	C	0.016378	0.996353	0.066026
C55	C	-0.044241	0.996357	0.066035
C56	C	-0.118475	1.260752	-0.066161
C57	C	-0.057857	1.260744	-0.066157
C58	C	0.009567	1.128541	-0.000067
C59	C	0.823826	1.128546	-0.000059
C60	C	0.888337	1.128548	-0.000064
C61	C	0.633747	1.128538	-0.338525
C62	C	0.633747	1.128538	-0.453401
C63	C	0.633745	1.467019	-0.000049
C64	C	0.633745	1.581896	-0.000049
C65	C	0.633744	1.128542	0.338430
C66	C	0.633744	1.128542	0.453307
C67	C	0.823826	0.790066	-0.000058
C68	C	0.888337	0.675192	-0.000061
C69	C	0.633744	0.790062	0.338432
C70	C	0.633744	0.675186	0.453309
C71	C	0.823824	0.790068	0.338420
C72	C	0.888335	0.675194	0.453292
C73	C	0.443666	1.467012	-0.338514
C74	C	0.379155	1.581886	-0.453386
C75	C	0.443665	1.467013	-0.000036
C76	C	0.379154	1.581888	-0.000033
C77	C	0.633747	1.467017	-0.338526
C78	C	0.633747	1.581894	-0.453403
C79	C	0.881516	0.621244	-0.066166
C80	C	0.942125	0.513322	-0.066195
C81	C	1.009556	0.459342	-0.000111
C82	C	1.016376	0.513300	0.065996
C83	C	0.955767	0.621228	0.066017
C84	C	0.955754	0.621249	0.441141
C85	C	1.016375	0.513327	0.549065
C86	C	1.009575	0.459346	0.669140
C87	C	0.942150	0.513302	0.681289
C88	C	0.881530	0.621229	0.573366
C89	C	0.311737	1.635844	-0.441235
C90	C	0.251116	1.743799	-0.549160
C91	C	0.257915	1.797787	-0.669234
C92	C	0.325341	1.743824	-0.681384
C93	C	0.385960	1.635878	-0.573460
C94	C	0.385975	1.635847	0.066061
C95	C	0.325365	1.743799	0.066060
C96	C	0.257935	1.797783	-0.000028
C97	C	0.251115	1.743819	-0.066130
C98	C	0.311724	1.635877	-0.066136
H99	H	0.440860	0.888698	0.119858
H100	H	0.961331	0.665139	0.119855
H101	H	1.058902	0.371459	-0.000136
O102	O	0.185603	1.389107	-0.130504
C103	C	0.148321	1.396998	-0.223253
H104	H	0.187657	1.321984	-0.247816
H105	H	0.112355	1.361479	-0.185423
C106	C	0.054734	1.647064	-0.312318
C107	C	0.103047	1.554940	-0.342494
H108	H	0.026803	1.744491	-0.385870
H109	H	0.079850	1.641747	-0.249829
H110	H	0.024769	1.617447	-0.280791
H111	H	0.133016	1.584547	-0.374005
H112	H	0.077935	1.560266	-0.404992
H113	H	0.826637	0.665137	0.583278
O114	O	0.451397	1.583570	-0.585499
C115	C	0.444389	1.654400	-0.714626
H116	H	0.390291	1.698890	-0.772166
H117	H	0.449362	1.748139	-0.746427
C118	C	0.569540	1.490405	-0.664317
C119	C	0.503098	1.545038	-0.734989
H120	H	0.605756	1.422949	-0.676880
H121	H	0.574262	1.442688	-0.577322
H122	H	0.573674	1.568533	-0.690827
H123	H	0.498961	1.466913	-0.708468
H124	H	0.498376	1.592739	-0.821981
H125	H	0.330895	0.888702	0.119867
H126	H	0.306179	1.368379	-0.119929
O127	O	0.185558	1.796374	-0.130208
C128	C	0.133534	1.903234	-0.116038
H129	H	0.157172	1.885499	-0.026775
H130	H	0.114572	2.016131	-0.201437
C131	C	0.041356	1.913196	-0.215413
C132	C	0.070387	1.891407	-0.105773
H133	H	0.002402	1.905907	-0.209087
H134	H	0.076405	1.841207	-0.224964
H135	H	0.025560	2.007277	-0.286568
H136	H	0.086191	1.797322	-0.034623
H137	H	0.035340	1.963381	-0.096210
O138	O	0.304966	1.583568	-0.130350
C139	C	0.232452	1.654394	-0.188695
H140	H	0.200137	1.698881	-0.136848
H141	H	0.214592	1.748134	-0.291287
C142	C	0.260708	1.490399	-0.247560
C143	C	0.221019	1.545028	-0.183874
H144	H	0.253656	1.422941	-0.244592
H145	H	0.309563	1.442685	-0.208256
H146	H	0.245821	1.568528	-0.333047
H147	H	0.235913	1.466903	-0.098385
H148	H	0.172167	1.592727	-0.223163
H149	H	0.071278	0.888705	0.119867
O150	O	1.081933	0.460645	0.130175
C151	C	1.133957	0.353840	0.115950
H152	H	1.110318	0.306669	0.091593
H153	H	1.152920	0.405473	0.036818
C154	C	1.226134	0.289080	0.270123
C155	C	1.197103	0.231134	0.240218
H156	H	1.265088	0.213392	0.346774
H157	H	1.191086	0.361040	0.279703
H158	H	1.241931	0.332107	0.204170
H159	H	1.181298	0.188125	0.306163
H160	H	1.232150	0.159164	0.230651
H161	H	-0.038688	0.888712	0.119855
H162	H	-0.173373	1.368383	-0.119981
H163	H	-0.063406	1.368383	-0.119976
O164	O	0.305248	1.583215	-0.324508
C165	C	0.373203	1.476393	-0.231839
H166	H	0.413381	1.429173	-0.273898
H167	H	0.388651	1.528024	-0.198080
C168	C	0.322944	1.411743	-0.067742
C169	C	0.372291	1.353738	-0.119397
H170	H	0.322382	1.336086	0.001621
H171	H	0.277161	1.483715	-0.130174
H172	H	0.335824	1.454768	-0.039620
H173	H	0.359406	1.310731	-0.147532
H174	H	0.418072	1.281755	-0.056967
H175	H	0.330869	1.787794	-0.779161
O176	O	0.816072	0.673554	-0.130478
C177	C	0.823063	0.602755	-0.188799
H178	H	0.877153	0.558285	-0.201888
H179	H	0.818097	0.509006	-0.126863
C180	C	0.697905	0.766749	-0.302417
C181	C	0.764337	0.712140	-0.318502
H182	H	0.661679	0.834219	-0.382421
H183	H	0.693194	0.814444	-0.263122
H184	H	0.693777	0.688612	-0.250800
H185	H	0.768468	0.790274	-0.370105
H186	H	0.769048	0.664460	-0.357809
O187	O	0.962495	0.673456	0.324603
C188	C	1.035005	0.602602	0.337047
H189	H	1.067330	0.558257	0.433307
H190	H	1.052863	0.508759	0.328349
C191	C	1.006722	0.766345	0.114130
C192	C	1.046423	0.711889	0.232354
H193	H	1.013765	0.833754	0.049548
H194	H	0.957870	0.814077	0.105744
H195	H	1.021607	0.688129	0.106899
H196	H	1.031531	0.790101	0.239589
H197	H	1.095273	0.664172	0.240739
O198	O	0.185662	1.796219	-0.537181
C199	C	0.177898	1.858648	-0.470592
H200	H	0.232467	1.809887	-0.411036
H201	H	0.148922	1.981589	-0.540480
C202	C	0.067825	1.886527	-0.457046
C203	C	0.134847	1.826629	-0.383890
H204	H	0.041266	1.866783	-0.403568
H205	H	0.073054	1.844473	-0.501913
H206	H	0.043687	1.988974	-0.515282
H207	H	0.158987	1.724183	-0.325667
H208	H	0.129621	1.868666	-0.339012
O209	O	1.081907	0.460675	0.537419
C210	C	1.119199	0.309434	0.595878
H211	H	1.096062	0.263637	0.669450
H212	H	1.114160	0.288830	0.521671
C213	C	1.226412	0.290170	0.570232
C214	C	1.197998	0.233920	0.660602
H215	H	1.275019	0.243588	0.610152
H216	H	1.201287	0.392065	0.530842
H217	H	1.222206	0.272996	0.508399
H218	H	1.202196	0.251110	0.722423
H219	H	1.223125	0.132025	0.700004
H220	H	0.936558	0.469402	-0.120027
H221	H	1.058941	0.371464	0.757008
H222	H	0.936624	0.469334	0.779069
H223	H	0.208549	1.885682	-0.757102
H224	H	0.330932	1.787718	0.119893
H225	H	0.440875	1.591902	0.119886
H226	H	0.208589	1.885677	-0.000014
