data_functionalizedCrystal
_audit_creation_method	'MofGen! by Chris Wilmer'
_symmetry_space_group_name_H-M	'P1'
_symmetry_Int_Tables_number	1
_symmetry_cell_setting	triclinic
loop_
_symmetry_equiv_pos_as_xyz
  x,y,z
_cell_length_a	27.732048
_cell_length_b	15.944551
_cell_length_c	15.021413
_cell_angle_alpha	89.996935
_cell_angle_beta	90.001749
_cell_angle_gamma	83.070697
loop_
_atom_site_label
_atom_site_type_symbol
_atom_site_fract_x
_atom_site_fract_y
_atom_site_fract_z
O1	O	-0.641363	-0.099933	-0.073919
O2	O	-0.391363	0.150067	0.176081
O3	O	-0.141363	0.400067	0.426081
O4	O	0.108637	0.650067	0.676081
O5	O	-0.500635	-0.115130	-0.073947
O6	O	-0.250635	0.134870	0.176053
O7	O	-0.000635	0.384870	0.426053
O8	O	0.249365	0.634870	0.676053
O9	O	-0.574842	0.014793	-0.073924
O10	O	-0.324842	0.264793	0.176076
O11	O	-0.074842	0.514793	0.426076
O12	O	0.175158	0.764793	0.676076
O13	O	-0.567156	-0.229857	-0.073942
O14	O	-0.317156	0.020143	0.176058
O15	O	-0.067156	0.270143	0.426058
O16	O	0.182844	0.520143	0.676058
O17	O	-0.574830	0.014775	0.074140
O18	O	-0.324830	0.264775	0.324140
O19	O	-0.074830	0.514775	0.574140
O20	O	0.175170	0.764775	0.824140
O21	O	-0.500623	-0.115149	0.074118
O22	O	-0.250623	0.134851	0.324118
O23	O	-0.000623	0.384851	0.574118
O24	O	0.249377	0.634851	0.824118
O25	O	-0.641351	-0.099952	0.074145
O26	O	-0.391351	0.150048	0.324145
O27	O	-0.141351	0.400048	0.574145
O28	O	0.108649	0.650048	0.824145
Zn29	Zn	-0.570985	-0.107553	0.097640
Zn30	Zn	-0.320985	0.142447	0.347640
Zn31	Zn	-0.070985	0.392447	0.597640
Zn32	Zn	0.179015	0.642447	0.847640
Zn33	Zn	-0.571001	-0.107529	-0.097441
Zn34	Zn	-0.321001	0.142471	0.152559
Zn35	Zn	-0.071001	0.392471	0.402559
Zn36	Zn	0.178999	0.642471	0.652559
O37	O	-0.567144	-0.229875	0.074122
O38	O	-0.317144	0.020125	0.324122
O39	O	-0.067144	0.270125	0.574122
O40	O	0.182856	0.520125	0.824122
C41	C	-0.574517	0.046074	0.000108
C42	C	-0.324517	0.296074	0.250108
C43	C	-0.074517	0.546074	0.500108
C44	C	0.175483	0.796074	0.750108
C45	C	-0.573560	0.139307	0.000108
C46	C	-0.323560	0.389307	0.250108
C47	C	-0.073560	0.639307	0.500108
C48	C	0.176440	0.889307	0.750108
C49	C	-0.482621	-0.114820	0.000082
C50	C	-0.232621	0.135180	0.250082
C51	C	0.017379	0.385180	0.500082
C52	C	0.267379	0.635180	0.750082
C53	C	-0.428962	-0.113860	0.000072
C54	C	-0.178962	0.136140	0.250072
C55	C	0.071038	0.386140	0.500072
C56	C	0.321038	0.636140	0.750072
C57	C	-0.659365	-0.100262	0.000114
C58	C	-0.409365	0.149738	0.250114
C59	C	-0.159365	0.399738	0.500114
C60	C	0.090635	0.649738	0.750114
C61	C	-0.713024	-0.101222	0.000118
C62	C	-0.463024	0.148778	0.250118
C63	C	-0.213024	0.398778	0.500118
C64	C	0.036976	0.648778	0.750118
C65	C	-0.090453	-0.184589	0.000106
C66	C	0.159547	0.065411	0.250106
C67	C	0.409547	0.315411	0.500106
C68	C	0.659547	0.565411	0.750106
C69	C	0.111222	-0.181025	0.000114
C70	C	0.361222	0.068975	0.250114
C71	C	0.611222	0.318975	0.500114
C72	C	0.861222	0.568975	0.750114
O73	O	0.142198	-0.245701	0.000148
O74	O	0.392198	0.004299	0.250148
O75	O	0.642198	0.254299	0.500148
O76	O	0.892198	0.504299	0.750148
N77	N	0.130679	-0.103986	0.000118
N78	N	0.380679	0.146014	0.250118
N79	N	0.630679	0.396014	0.500118
N80	N	0.880679	0.646014	0.750118
C81	C	0.099715	-0.027832	0.000125
C82	C	0.349715	0.222168	0.250125
C83	C	0.599715	0.472168	0.500125
C84	C	0.849715	0.722168	0.750125
O85	O	0.120892	0.037776	0.000138
O86	O	0.370892	0.287776	0.250138
O87	O	0.620892	0.537776	0.500138
O88	O	0.870892	0.787776	0.750138
C89	C	-0.101959	-0.031397	0.000124
C90	C	0.148041	0.218603	0.250124
C91	C	0.398041	0.468603	0.500124
C92	C	0.648041	0.718603	0.750124
C93	C	-0.121414	-0.108441	0.000111
C94	C	0.128586	0.141559	0.250111
C95	C	0.378586	0.391559	0.500111
C96	C	0.628586	0.641559	0.750111
C97	C	-0.109908	-0.261627	0.000094
C98	C	0.140092	-0.011627	0.250094
C99	C	0.390092	0.238373	0.500094
C100	C	0.640092	0.488373	0.750094
C101	C	-0.160324	-0.262517	0.000087
C102	C	0.089676	-0.012517	0.250087
C103	C	0.339676	0.237483	0.500087
C104	C	0.589676	0.487483	0.750087
C105	C	-0.191285	-0.186369	0.000092
C106	C	0.058715	0.063631	0.250092
C107	C	0.308715	0.313631	0.500092
C108	C	0.558715	0.563631	0.750092
C109	C	-0.171830	-0.109331	0.000104
C110	C	0.078170	0.140669	0.250104
C111	C	0.328170	0.390669	0.500104
C112	C	0.578170	0.640669	0.750104
C113	C	-0.132923	0.044756	0.000138
C114	C	0.117077	0.294756	0.250138
C115	C	0.367077	0.544756	0.500138
C116	C	0.617077	0.794756	0.750138
C117	C	-0.183345	0.043858	0.000139
C118	C	0.066655	0.293858	0.250139
C119	C	0.316655	0.543858	0.500139
C120	C	0.566655	0.793858	0.750139
C121	C	-0.202799	-0.033186	0.000126
C122	C	0.047201	0.216814	0.250126
C123	C	0.297201	0.466814	0.500126
C124	C	0.547201	0.716814	0.750126
C125	C	-0.253206	-0.034073	0.000102
C126	C	-0.003206	0.215927	0.250102
C127	C	0.246794	0.465927	0.500102
C128	C	0.496794	0.715927	0.750102
N129	N	-0.272664	-0.111113	0.000098
N130	N	-0.022664	0.138887	0.250098
N131	N	0.227336	0.388887	0.500098
N132	N	0.477336	0.638887	0.750098
C133	C	-0.241703	-0.187260	0.000093
C134	C	0.008297	0.062740	0.250093
C135	C	0.258297	0.312740	0.500093
C136	C	0.508297	0.562740	0.750093
C137	C	0.205597	-0.025966	0.000125
C138	C	0.455597	0.224034	0.250125
C139	C	0.705597	0.474034	0.500125
C140	C	0.955597	0.724034	0.750125
C141	C	0.256015	-0.025074	0.000123
C142	C	0.506015	0.224926	0.250123
C143	C	0.756015	0.474926	0.500123
C144	C	1.006015	0.724926	0.750123
C145	C	0.267519	-0.178268	0.000113
C146	C	0.517519	0.071732	0.250113
C147	C	0.767519	0.321732	0.500113
C148	C	1.017519	0.571732	0.750113
C149	C	0.217100	-0.179158	0.000108
C150	C	0.467100	0.070842	0.250108
C151	C	0.717100	0.320842	0.500108
C152	C	0.967100	0.570842	0.750108
C153	C	0.186139	-0.103005	0.000121
C154	C	0.436139	0.146995	0.250121
C155	C	0.686139	0.396995	0.500121
C156	C	0.936139	0.646995	0.750121
C157	C	-0.347580	-0.189124	0.000078
C158	C	-0.097580	0.060876	0.250078
C159	C	0.152420	0.310876	0.500078
C160	C	0.402420	0.560876	0.750078
C161	C	-0.398001	-0.190007	0.000067
C162	C	-0.148001	0.059993	0.250067
C163	C	0.101999	0.309993	0.500067
C164	C	0.351999	0.559993	0.750067
C165	C	-0.409500	-0.036815	0.000082
C166	C	-0.159500	0.213185	0.250082
C167	C	0.090500	0.463185	0.500082
C168	C	0.340500	0.713185	0.750082
C169	C	-0.359084	-0.035931	0.000088
C170	C	-0.109084	0.214069	0.250088
C171	C	0.140916	0.464069	0.500088
C172	C	0.390916	0.714069	0.750088
C173	C	-0.328125	-0.112092	0.000089
C174	C	-0.078125	0.137908	0.250089
C175	C	0.171875	0.387908	0.500089
C176	C	0.421875	0.637908	0.750089
O177	O	-0.284210	0.030569	0.000078
O178	O	-0.034210	0.280569	0.250078
O179	O	0.215790	0.530569	0.500078
O180	O	0.465790	0.780569	0.750078
O181	O	-0.262890	-0.252859	0.000100
O182	O	-0.012890	-0.002859	0.250100
O183	O	0.237110	0.247141	0.500100
O184	O	0.487110	0.497141	0.750100
C185	C	-0.040037	-0.183699	0.000112
C186	C	0.209963	0.066301	0.250112
C187	C	0.459963	0.316301	0.500112
C188	C	0.709963	0.566301	0.750112
C189	C	-0.020582	-0.106661	0.000124
C190	C	0.229418	0.143339	0.250124
C191	C	0.479418	0.393339	0.500124
C192	C	0.729418	0.643339	0.750124
C193	C	-0.051543	-0.030513	0.000129
C194	C	0.198457	0.219487	0.250129
C195	C	0.448457	0.469487	0.500129
C196	C	0.698457	0.719487	0.750129
C197	C	0.029836	-0.105769	0.000123
C198	C	0.279836	0.144231	0.250123
C199	C	0.529836	0.394231	0.500123
C200	C	0.779836	0.644231	0.750123
C201	C	0.060797	-0.181917	0.000118
C202	C	0.310797	0.068083	0.250118
C203	C	0.560797	0.318083	0.500118
C204	C	0.810797	0.568083	0.750118
C205	C	0.041339	-0.258956	0.000114
C206	C	0.291339	-0.008956	0.250114
C207	C	0.541339	0.241044	0.500114
C208	C	0.791339	0.491044	0.750114
C209	C	-0.009076	-0.259846	0.000107
C210	C	0.240924	-0.009846	0.250107
C211	C	0.490924	0.240154	0.500107
C212	C	0.740924	0.490154	0.750107
C213	C	-0.032086	0.046526	0.000133
C214	C	0.217914	0.296526	0.250133
C215	C	0.467914	0.546526	0.500133
C216	C	0.717914	0.796526	0.750133
C217	C	0.018331	0.047410	0.000139
C218	C	0.268331	0.297410	0.250139
C219	C	0.518331	0.547410	0.500139
C220	C	0.768331	0.797410	0.750139
C221	C	0.049291	-0.028738	0.000134
C222	C	0.299291	0.221262	0.250134
C223	C	0.549291	0.471262	0.500134
C224	C	0.799291	0.721262	0.750134
C225	C	-0.567469	-0.261156	0.000088
C226	C	-0.317469	-0.011156	0.250088
C227	C	-0.067469	0.238844	0.500088
C228	C	0.182531	0.488844	0.750088
C229	C	-0.568426	-0.354389	0.000082
C230	C	-0.318426	-0.104389	0.250082
C231	C	-0.068426	0.145611	0.500082
C232	C	0.181574	0.395611	0.750082
N233	N	-0.570978	-0.107569	0.230777
N234	N	-0.320978	0.142431	0.480777
N235	N	-0.070978	0.392431	0.730777
N236	N	0.179022	0.642431	0.980777
C237	C	-0.525277	0.353533	0.000087
C238	C	-0.275277	0.603533	0.250087
C239	C	-0.025277	0.853533	0.500087
C240	C	0.224723	1.103533	0.750087
C241	C	-0.547692	0.414834	0.073096
C242	C	-0.297692	0.664834	0.323096
C243	C	-0.047692	0.914834	0.573096
C244	C	0.202308	1.164834	0.823096
C245	C	-0.571830	0.310011	0.000101
C246	C	-0.321830	0.560011	0.250101
C247	C	-0.071830	0.810011	0.500101
C248	C	0.178170	1.060011	0.750101
C249	C	-0.547715	0.414836	-0.072884
C250	C	-0.297715	0.664836	0.177116
C251	C	-0.047715	0.914836	0.427116
C252	C	0.202285	1.164836	0.677116
C253	C	-0.570155	0.474902	0.000090
C254	C	-0.320155	0.724902	0.250090
C255	C	-0.070155	0.974902	0.500090
C256	C	0.179845	1.224902	0.750090
C257	C	-0.594258	0.370084	0.073170
C258	C	-0.344258	0.620084	0.323170
C259	C	-0.094258	0.870084	0.573170
C260	C	0.155742	1.120084	0.823170
C261	C	-0.594274	0.370079	-0.072875
C262	C	-0.344274	0.620079	0.177125
C263	C	-0.094274	0.870079	0.427125
C264	C	0.155726	1.120079	0.677125
C265	C	-0.616723	0.431364	0.000152
C266	C	-0.366723	0.681364	0.250152
C267	C	-0.116723	0.931364	0.500152
C268	C	0.133277	1.181364	0.750152
C269	C	-0.572793	0.215021	0.000108
C270	C	-0.322793	0.465021	0.250108
C271	C	-0.072793	0.715021	0.500108
C272	C	0.177207	0.965021	0.750108
C273	C	-0.569195	0.569890	0.000090
C274	C	-0.319195	0.819890	0.250090
C275	C	-0.069195	1.069890	0.500090
C276	C	0.180805	1.319890	0.750090
N277	N	-0.571012	-0.107506	-0.230579
N278	N	-0.321012	0.142494	0.019421
N279	N	-0.071012	0.392494	0.269421
N280	N	0.178988	0.642494	0.519421
C281	C	-0.536660	-0.167618	0.470450
C282	C	-0.286660	0.082382	0.720450
C283	C	-0.036660	0.332382	0.970450
C284	C	0.213340	0.582382	1.220450
C285	C	-0.580337	-0.183354	0.529792
C286	C	-0.330337	0.066646	0.779792
C287	C	-0.080337	0.316646	1.029792
C288	C	0.169663	0.566646	1.279792
C289	C	-0.570990	-0.107548	0.412384
C290	C	-0.320990	0.142452	0.662384
C291	C	-0.070990	0.392452	0.912384
C292	C	0.179010	0.642452	1.162384
C293	C	-0.527325	-0.091831	0.529784
C294	C	-0.277325	0.158169	0.779784
C295	C	-0.027325	0.408169	1.029784
C296	C	0.222675	0.658169	1.279784
C297	C	-0.570998	-0.107530	0.587808
C298	C	-0.320998	0.142470	0.837808
C299	C	-0.070998	0.392470	1.087808
C300	C	0.179002	0.642470	1.337808
C301	C	-0.614690	-0.123321	0.470419
C302	C	-0.364690	0.126679	0.720419
C303	C	-0.114690	0.376679	0.970419
C304	C	0.135310	0.626679	1.220419
C305	C	-0.561649	-0.031766	0.470407
C306	C	-0.311649	0.218234	0.720407
C307	C	-0.061649	0.468234	0.970407
C308	C	0.188351	0.718234	1.220407
C309	C	-0.605358	-0.047469	0.529721
C310	C	-0.355358	0.202531	0.779721
C311	C	-0.105358	0.452531	1.029721
C312	C	0.144642	0.702531	1.279721
C313	C	-0.570985	-0.107561	0.311327
C314	C	-0.320985	0.142439	0.561327
C315	C	-0.070985	0.392439	0.811327
C316	C	0.179015	0.642439	1.061327
C317	C	-0.571009	-0.107516	0.688863
C318	C	-0.321009	0.142484	0.938863
C319	C	-0.071009	0.392484	1.188863
C320	C	0.178991	0.642484	1.438863
H321	H	-0.413838	-0.252749	0.000056
H322	H	-0.163838	-0.002749	0.250056
H323	H	0.086162	0.247251	0.500056
H324	H	0.336162	0.497251	0.750056
H325	H	-0.507656	-0.218457	0.444426
H326	H	-0.257656	0.031543	0.694426
H327	H	-0.007656	0.281543	0.944426
H328	H	0.242344	0.531543	1.194426
Cl329	Cl	-0.517310	0.445469	-0.168173
Cl330	Cl	-0.267310	0.695469	0.081827
Cl331	Cl	-0.017310	0.945469	0.331827
Cl332	Cl	0.232690	1.195469	0.581827
H333	H	-0.024911	-0.322584	0.000098
H334	H	0.225089	-0.072584	0.250098
H335	H	0.475089	0.177416	0.500098
H336	H	0.725089	0.427416	0.750098
H337	H	-0.588245	-0.247433	0.555876
H338	H	-0.338245	0.002567	0.805876
H339	H	-0.088245	0.252567	1.055876
H340	H	0.161755	0.502567	1.305876
H341	H	-0.486636	0.319720	0.000152
H342	H	-0.236636	0.569720	0.250152
H343	H	0.013364	0.819720	0.500152
H344	H	0.263364	1.069720	0.750152
Cl345	Cl	-0.517286	0.445472	0.168381
Cl346	Cl	-0.267286	0.695472	0.418381
Cl347	Cl	-0.017286	0.945472	0.668381
Cl348	Cl	0.232714	1.195472	0.918381
Cl349	Cl	-0.071001	0.142265	0.000140
Cl350	Cl	0.178999	0.392265	0.250140
Cl351	Cl	0.428999	0.642265	0.500140
Cl352	Cl	0.678999	0.892265	0.750140
Cl353	Cl	-0.671721	-0.143950	0.430334
Cl354	Cl	-0.421721	0.106050	0.680334
Cl355	Cl	-0.171721	0.356050	0.930334
Cl356	Cl	0.078279	0.606050	1.180334
H357	H	-0.553727	0.032292	0.444301
H358	H	-0.303727	0.282292	0.694301
H359	H	-0.053727	0.532292	0.944301
H360	H	0.196273	0.782292	1.194301
Cl361	Cl	-0.650234	0.030977	0.569657
Cl362	Cl	-0.400234	0.280977	0.819657
Cl363	Cl	-0.150234	0.530977	1.069657
Cl364	Cl	0.099766	0.780977	1.319657
H365	H	-0.208551	0.105873	0.000150
H366	H	0.041449	0.355873	0.250150
H367	H	0.291449	0.605873	0.500150
H368	H	0.541449	0.855873	0.750150
H369	H	-0.655398	0.465028	0.000201
H370	H	-0.405398	0.715028	0.250201
H371	H	-0.155398	0.965028	0.500201
H372	H	0.094602	1.215028	0.750201
H373	H	-0.490394	-0.078546	0.555863
H374	H	-0.240394	0.171454	0.805863
H375	H	0.009606	0.421454	1.055863
H376	H	0.259606	0.671454	1.305863
H377	H	-0.176158	-0.325254	0.000076
H378	H	0.073842	-0.075254	0.250076
H379	H	0.323842	0.174746	0.500076
H380	H	0.573842	0.424746	0.750076
Cl381	Cl	-0.308667	-0.284871	0.000078
Cl382	Cl	-0.058667	-0.034871	0.250078
Cl383	Cl	0.191333	0.215129	0.500078
Cl384	Cl	0.441333	0.465129	0.750078
H385	H	-0.434718	0.025183	0.000082
H386	H	-0.184718	0.275183	0.250082
H387	H	0.065282	0.525183	0.500082
H388	H	0.315282	0.775183	0.750082
Cl389	Cl	-0.070994	-0.357369	0.000085
Cl390	Cl	0.179006	-0.107369	0.250085
Cl391	Cl	0.429006	0.142631	0.500085
Cl392	Cl	0.679006	0.392631	0.750085
H393	H	0.201264	-0.241894	0.000103
H394	H	0.451264	0.008106	0.250103
H395	H	0.701264	0.258106	0.500103
H396	H	0.951264	0.508106	0.750103
Cl397	Cl	0.280465	0.071785	0.000118
Cl398	Cl	0.530465	0.321785	0.250118
Cl399	Cl	0.780465	0.571785	0.500118
Cl400	Cl	1.030465	0.821785	0.750118
Cl401	Cl	0.306450	-0.273996	0.000110
Cl402	Cl	0.556450	-0.023996	0.250110
Cl403	Cl	0.806450	0.226004	0.500110
Cl404	Cl	1.056450	0.476004	0.750110
Cl405	Cl	-0.624656	0.339405	-0.168165
Cl406	Cl	-0.374656	0.589405	0.081835
Cl407	Cl	-0.124656	0.839405	0.331835
Cl408	Cl	0.125344	1.089405	0.581835
H409	H	-0.343244	0.026805	0.000085
H410	H	-0.093244	0.276805	0.250085
H411	H	0.156756	0.526805	0.500085
H412	H	0.406756	0.776805	0.750085
H413	H	0.066557	-0.320958	0.000107
H414	H	0.316557	-0.070958	0.250107
H415	H	0.566557	0.179042	0.500107
H416	H	0.816557	0.429042	0.750107
Cl417	Cl	-0.108479	0.141618	0.000139
Cl418	Cl	0.141521	0.391618	0.250139
Cl419	Cl	0.391521	0.641618	0.500139
Cl420	Cl	0.641521	0.891618	0.750139
Cl421	Cl	0.042780	0.144276	0.000144
Cl422	Cl	0.292780	0.394276	0.250144
Cl423	Cl	0.542780	0.644276	0.500144
Cl424	Cl	0.792780	0.894276	0.750144
Cl425	Cl	0.166681	0.069780	0.000138
Cl426	Cl	0.416681	0.319780	0.250138
Cl427	Cl	0.666681	0.569780	0.500138
Cl428	Cl	0.916681	0.819780	0.750138
H429	H	-0.613926	0.350343	0.134961
H430	H	-0.363926	0.600343	0.384961
H431	H	-0.113926	0.850343	0.634961
H432	H	0.136074	1.100343	0.884961
