data_functionalizedCrystal
_audit_creation_method	'MofGen! by Chris Wilmer'
_symmetry_space_group_name_H-M	'P1'
_symmetry_Int_Tables_number	1
_symmetry_cell_setting	triclinic
loop_
_symmetry_equiv_pos_as_xyz
  x,y,z
_cell_length_a	16.974885
_cell_length_b	10.540510
_cell_length_c	16.053948
_cell_angle_alpha	87.141402
_cell_angle_beta	83.476057
_cell_angle_gamma	83.951798
loop_
_atom_site_label
_atom_site_type_symbol
_atom_site_fract_x
_atom_site_fract_y
_atom_site_fract_z
O1	O	1.050100	0.161840	-0.001462
O2	O	0.819340	0.181386	0.014116
O3	O	0.939997	-0.013157	0.005970
O4	O	0.929443	0.356383	0.006683
O5	O	0.945989	-0.003596	-0.133290
O6	O	0.825332	0.190948	-0.125144
O7	O	1.056092	0.171401	-0.140723
Zn8	Zn	0.941663	0.182693	-0.155044
Zn9	Zn	0.933769	0.170095	0.028437
O10	O	0.935435	0.365945	-0.132577
C11	C	0.792787	0.185248	-0.053519
C12	C	0.704743	0.182492	-0.047575
C13	C	0.208793	0.166377	-0.005911
C14	C	0.291521	0.168967	-0.011508
C15	C	0.336143	0.175483	-0.090217
C16	C	0.298034	0.179397	-0.163335
C17	C	0.215308	0.176798	-0.157738
C18	C	0.583907	0.183807	-0.115097
C19	C	0.666638	0.186410	-0.120688
C20	C	0.660121	0.175977	0.031140
C21	C	0.577393	0.173386	0.036730
C22	C	0.539291	0.177293	-0.036388
N23	N	0.420704	0.178135	-0.095939
N24	N	0.454732	0.174633	-0.030665
C25	C	0.942206	-0.055671	-0.063605
C26	C	0.939853	-0.196594	-0.063441
C27	C	1.023687	-0.415005	-0.069419
C28	C	1.026183	-0.268460	-0.069270
C29	C	0.892239	-0.246297	0.019065
C30	C	0.890338	-0.393041	0.019255
C31	C	0.895354	-0.381955	-0.138988
C32	C	0.899494	-0.235589	-0.140311
C33	C	1.082644	0.167540	-0.073086
C34	C	1.170689	0.170295	-0.079024
C35	C	0.933225	0.408459	-0.063000
C36	C	0.935578	0.549381	-0.063158
N37	N	0.947057	0.191290	-0.280266
C38	C	0.900437	0.117128	-0.320837
C39	C	0.904230	0.123156	-0.408498
C40	C	0.954648	0.203341	-0.455586
C41	C	1.001269	0.277512	-0.415009
C42	C	0.997472	0.271489	-0.327350
C43	C	0.971205	0.229636	-0.718105
C44	C	0.975001	0.235650	-0.805771
C45	C	0.877960	0.081296	-0.799253
C46	C	0.874171	0.075274	-0.711592
C47	C	0.920789	0.149450	-0.671022
N48	N	0.958528	0.209503	-0.545190
N49	N	0.916904	0.143294	-0.581420
N50	N	0.928381	0.161488	0.153659
H51	H	1.063214	-0.235606	-0.128608
H52	H	0.833118	0.009975	-0.673258
H53	H	0.322542	0.165769	0.048029
C54	C	0.792813	-0.115306	0.103421
C55	C	0.806273	-0.181589	0.028862
H56	H	0.739740	-0.075362	0.109469
H57	H	0.829079	-0.052241	0.101702
H58	H	0.800479	-0.173374	0.149659
H59	H	0.798613	-0.123520	-0.017376
H60	H	0.769997	-0.244661	0.030574
C61	C	0.985168	0.413174	-0.904750
C62	C	1.030420	0.323803	-0.857532
H63	H	1.019383	0.467585	-0.936708
H64	H	0.947490	0.462698	-0.868121
H65	H	0.957953	0.369845	-0.941455
H66	H	1.057631	0.367132	-0.820822
H67	H	1.068113	0.274272	-0.894165
C68	C	0.296162	0.189433	-0.312848
C69	C	0.347080	0.186552	-0.249856
H70	H	0.326442	0.193843	-0.366263
H71	H	0.258127	0.262158	-0.307127
H72	H	0.269394	0.114236	-0.307881
H73	H	0.373843	0.261753	-0.254819
H74	H	0.385129	0.113819	-0.255580
C75	C	0.579266	0.163296	0.186245
C76	C	0.528349	0.166199	0.123251
H77	H	0.548987	0.158850	0.239658
H78	H	0.606026	0.238486	0.181296
H79	H	0.617310	0.090567	0.180508
H80	H	0.490309	0.238934	0.128984
H81	H	0.501576	0.091001	0.128202
H82	H	1.035432	0.331884	-0.294318
C83	C	0.134368	0.070896	-0.240089
C84	C	0.173421	0.181104	-0.238107
H85	H	0.108515	0.073549	-0.289709
H86	H	0.095958	0.066654	-0.192417
H87	H	0.172150	-0.002255	-0.239497
H88	H	0.135638	0.254256	-0.238692
H89	H	0.211835	0.185359	-0.285791
C90	C	1.136859	-0.173999	-0.025943
C91	C	1.069803	-0.235933	0.004654
H92	H	1.163787	-0.153924	0.019700
H93	H	1.120580	-0.097629	-0.056019
H94	H	1.171694	-0.228454	-0.062252
H95	H	1.034965	-0.181474	0.040958
H96	H	1.086081	-0.312314	0.034744
C97	C	0.784040	0.175316	0.089979
C98	C	0.702005	0.171665	0.111508
H99	H	0.809896	0.172642	0.139598
H100	H	0.793296	0.251844	0.058264
H101	H	0.804563	0.103923	0.057485
H102	H	0.681481	0.243063	0.143998
H103	H	0.692744	0.095129	0.143237
H104	H	0.702967	0.191725	-0.184786
H105	H	1.009168	0.290029	-0.685084
C106	C	0.873096	-0.087761	-0.433338
C107	C	0.852991	0.041633	-0.453100
H108	H	0.841464	-0.138088	-0.460880
H109	H	0.863615	-0.102822	-0.374401
H110	H	0.927843	-0.110131	-0.451346
H111	H	0.798245	0.064005	-0.435087
H112	H	0.862466	0.056701	-0.512050
C113	C	0.598669	0.194405	-0.265732
C114	C	0.542031	0.188123	-0.195467
H115	H	0.572811	0.197080	-0.315350
H116	H	0.636433	0.121245	-0.265142
H117	H	0.625164	0.269166	-0.264360
H118	H	0.515540	0.113357	-0.196835
H119	H	0.504253	0.261290	-0.196058
C120	C	1.050185	0.355272	-0.552278
C121	C	1.056691	0.365652	-0.466768
H122	H	1.084406	0.409680	-0.584228
H123	H	0.996691	0.379643	-0.563005
H124	H	1.065059	0.269454	-0.567594
H125	H	1.041811	0.451468	-0.451450
H126	H	1.110196	0.341288	-0.456036
C127	C	0.772534	-0.349248	-0.201588
C128	C	0.807886	-0.410786	-0.133813
H129	H	0.718536	-0.367048	-0.198384
H130	H	0.800436	-0.379206	-0.252652
H131	H	0.774644	-0.259749	-0.199682
H132	H	0.805781	-0.500286	-0.135722
H133	H	0.779975	-0.380835	-0.082736
H134	H	1.059774	-0.453437	-0.128719
C135	C	0.954548	-0.321934	0.141633
C136	C	0.930228	-0.210627	0.096166
H137	H	0.977999	-0.299911	0.189232
H138	H	0.992460	-0.374271	0.106996
H139	H	0.909672	-0.367096	0.159517
H140	H	0.975105	-0.165469	0.078277
H141	H	0.892314	-0.158269	0.130810
H142	H	1.054686	-0.462794	-0.014969
C143	C	0.765085	-0.376612	0.106036
C144	C	0.802967	-0.423424	0.030032
H145	H	0.711150	-0.395377	0.112695
H146	H	0.766839	-0.286826	0.105836
H147	H	0.791571	-0.415904	0.151123
H148	H	0.776485	-0.384124	-0.015056
H149	H	0.801208	-0.513227	0.030225
H150	H	0.859385	0.051828	-0.282503
H151	H	0.925382	-0.420318	-0.201119
H152	H	0.836673	-0.185458	-0.140859
H153	H	0.917981	-0.437690	0.076661
C154	C	0.909900	-0.227208	-0.290856
C155	C	0.946318	-0.192027	-0.222666
H156	H	0.938814	-0.200318	-0.341696
H157	H	0.856735	-0.187829	-0.287773
H158	H	0.909467	-0.317342	-0.289351
H159	H	0.946746	-0.101891	-0.224167
H160	H	0.999497	-0.231402	-0.225751
C161	C	0.169469	0.265710	0.125788
C162	C	0.159749	0.159218	0.080610
H163	H	0.139196	0.261281	0.179206
H164	H	0.151611	0.341374	0.095899
H165	H	0.224195	0.266681	0.132911
H166	H	0.105024	0.158251	0.073482
H167	H	0.177604	0.083533	0.110506
H168	H	0.840005	0.020908	-0.832294
