data_functionalizedCrystal
_audit_creation_method	'MofGen! by Chris Wilmer'
_symmetry_space_group_name_H-M	'P1'
_symmetry_Int_Tables_number	1
_symmetry_cell_setting	triclinic
loop_
_symmetry_equiv_pos_as_xyz
  x,y,z
_cell_length_a	18.050591
_cell_length_b	18.050589
_cell_length_c	18.050583
_cell_angle_alpha	90.027890
_cell_angle_beta	90.026054
_cell_angle_gamma	90.028131
loop_
_atom_site_label
_atom_site_type_symbol
_atom_site_fract_x
_atom_site_fract_y
_atom_site_fract_z
Zn1	Zn	-1.135283	0.295764	-0.420091
Zn2	Zn	-0.635283	0.795764	0.079909
Zn3	Zn	-1.135173	0.419969	-0.295911
Zn4	Zn	-0.635173	0.919969	0.204089
Zn5	Zn	-1.011095	0.295783	-0.295898
Zn6	Zn	-0.511095	0.795783	0.204102
Zn7	Zn	-1.011037	0.419903	-0.420042
Zn8	Zn	-0.511037	0.919903	0.079958
O9	O	-1.073147	0.357855	-0.357986
O10	O	-0.573147	0.857855	0.142014
O11	O	-1.239193	0.312260	-0.403644
O12	O	-0.739193	0.812260	0.096356
O13	O	-1.118692	0.403531	-0.191985
O14	O	-0.618692	0.903531	0.308015
O15	O	-1.027640	0.191856	-0.312388
O16	O	-0.527640	0.691856	0.187612
O17	O	-1.239112	0.403513	-0.312409
O18	O	-0.739112	0.903513	0.187591
O19	O	-1.118880	0.191842	-0.403632
O20	O	-0.618880	0.691842	0.096368
O21	O	-1.027533	0.312292	-0.191975
O22	O	-0.527533	0.812292	0.308025
O23	O	-0.907163	0.312228	-0.312341
O24	O	-0.407163	0.812228	0.187659
O25	O	-1.027540	0.403400	-0.523974
O26	O	-0.527540	0.903400	-0.023974
O27	O	-0.907120	0.403418	-0.403549
O28	O	-0.407120	0.903418	0.096451
O29	O	-1.118823	0.312196	-0.524009
O30	O	-0.618823	0.812196	-0.024009
O31	O	-1.118635	0.523885	-0.312362
O32	O	-0.618635	1.023885	0.187638
O33	O	-1.027433	0.523836	-0.403561
O34	O	-0.527433	1.023836	0.096439
C35	C	-0.880195	0.357818	-0.357938
C36	C	-0.380195	0.857818	0.142062
C37	C	-0.797649	0.357821	-0.357936
C38	C	-0.297649	0.857821	0.142064
C39	C	-1.073036	0.550807	-0.357974
C40	C	-0.573036	1.050807	0.142026
C41	C	-1.073056	0.633353	-0.357994
C42	C	-0.573056	1.133353	0.142006
C43	C	-0.548826	0.308167	-0.308441
C44	C	-0.048826	0.808167	0.191559
C45	C	-0.598263	0.290077	-0.376218
C46	C	-0.098263	0.790077	0.123782
C47	C	-0.500529	0.357843	-0.357981
C48	C	-0.000529	0.857843	0.142019
C49	C	-0.598173	0.375887	-0.290186
C50	C	-0.098173	0.875887	0.209814
C51	C	-0.646514	0.357830	-0.357955
C52	C	-0.146514	0.857830	0.142045
C53	C	-0.548880	0.339718	-0.425794
C54	C	-0.048880	0.839718	0.074206
C55	C	-0.548784	0.425560	-0.339716
C56	C	-0.048784	0.925560	0.160284
C57	C	-0.598200	0.407495	-0.407540
C58	C	-0.098200	0.907495	0.092460
C59	C	-0.416430	0.357849	-0.357995
C60	C	0.083570	0.857849	0.142005
C61	C	-0.730610	0.357825	-0.357949
C62	C	-0.230610	0.857825	0.142051
C63	C	-0.266853	0.357879	-0.358020
C64	C	0.233147	0.857879	0.141980
C65	C	-0.349398	0.357855	-0.358002
C66	C	0.150602	0.857855	0.141998
C67	C	-1.023486	0.832804	-0.407571
C68	C	-0.523486	1.332804	0.092429
C69	C	-1.005379	0.882247	-0.339802
C70	C	-0.505379	1.382247	0.160198
C71	C	-1.073112	0.784483	-0.358004
C72	C	-0.573112	1.284483	0.141996
C73	C	-1.091239	0.882121	-0.425782
C74	C	-0.591239	1.382121	0.074218
C75	C	-1.073164	0.930468	-0.358020
C76	C	-0.573164	1.430468	0.141980
C77	C	-1.054969	0.832839	-0.290198
C78	C	-0.554969	1.332839	0.209802
C79	C	-1.140860	0.832709	-0.376225
C80	C	-0.640860	1.332709	0.123775
C81	C	-1.122779	0.882130	-0.308408
C82	C	-0.622779	1.382130	0.191592
C83	C	-1.073080	0.700385	-0.357996
C84	C	-0.573080	1.200385	0.142004
C85	C	-1.073197	1.014565	-0.358020
C86	C	-0.573197	1.514565	0.141980
C87	C	-1.073187	0.357788	-0.551691
C88	C	-0.573187	0.857788	-0.051691
C89	C	-1.073205	0.357760	-0.634237
C90	C	-0.573205	0.857760	-0.134237
C91	C	-1.073251	1.164149	-0.358014
C92	C	-0.573251	1.664149	0.141986
C93	C	-1.073222	1.081603	-0.358029
C94	C	-0.573222	1.581603	0.141971
C95	C	-1.122891	0.308113	-0.883082
C96	C	-0.622891	0.808113	-0.383082
C97	C	-1.141005	0.375879	-0.833676
C98	C	-0.641005	0.875879	-0.333676
C99	C	-1.073252	0.357713	-0.931358
C100	C	-0.573252	0.857713	-0.431358
C101	C	-1.055150	0.289975	-0.833682
C102	C	-0.555150	0.789975	-0.333682
C103	C	-1.073231	0.357732	-0.785373
C104	C	-0.573231	0.857732	-0.285373
C105	C	-1.091402	0.425514	-0.883039
C106	C	-0.591402	0.925514	-0.383039
C107	C	-1.005515	0.339564	-0.883049
C108	C	-0.505515	0.839564	-0.383049
C109	C	-1.023603	0.407377	-0.833665
C110	C	-0.523603	0.907377	-0.333665
C111	C	-1.073267	0.357701	-1.015456
C112	C	-0.573267	0.857701	-0.515456
C113	C	-1.073216	0.357752	-0.701276
C114	C	-0.573216	0.857752	-0.201276
C115	C	-1.073150	0.357867	-0.165034
C116	C	-0.573150	0.857867	0.334966
C117	C	-1.073276	0.357686	-0.082488
C118	C	-0.573276	0.857686	0.417512
H119	H	-0.527148	0.266132	-0.266609
H120	H	-0.027148	0.766132	0.233391
H121	H	-1.106550	0.903769	-0.483095
H122	H	-0.606550	1.403769	0.016905
H123	H	-0.619983	0.232802	-0.391670
H124	H	-0.119983	0.732802	0.108330
H125	H	-1.106787	0.482819	-0.904629
H126	H	-0.606787	0.982819	-0.404629
H127	H	-0.948257	0.324180	-0.904754
H128	H	-0.448257	0.824180	-0.404754
C129	C	-1.218205	0.803286	-0.397063
C130	C	-0.718205	1.303286	0.102937
H131	H	-1.237222	0.774344	-0.357446
H132	H	-0.737222	1.274344	0.142554
H133	H	-1.214626	0.773559	-0.440353
H134	H	-0.714626	1.273559	0.059647
H135	H	-1.250488	0.843808	-0.406240
H136	H	-0.750488	1.343808	0.093760
H137	H	-1.164910	0.266212	-0.904779
H138	H	-0.664910	0.766212	-0.404779
H139	H	-0.527316	0.324384	-0.483134
H140	H	-0.027316	0.824384	0.016866
H141	H	-0.619741	0.449500	-0.449472
H142	H	-0.119741	0.949500	0.050528
C143	C	-0.966724	0.803537	-0.464115
C144	C	-0.466724	1.303537	0.035885
H145	H	-0.918628	0.820501	-0.451050
H146	H	-0.418628	1.320501	0.048950
H147	H	-0.979109	0.821135	-0.512135
H148	H	-0.479109	1.321135	-0.012135
H149	H	-0.967406	0.750911	-0.464029
H150	H	-0.467406	1.250911	0.035971
H151	H	-0.981616	0.449378	-0.812105
H152	H	-0.481616	0.949378	-0.312105
C153	C	-1.034470	0.212579	-0.804398
C154	C	-0.534470	0.712579	-0.304398
H155	H	-1.069795	0.177395	-0.821330
H156	H	-0.569795	0.677395	-0.321330
H157	H	-1.034165	0.213245	-0.751777
H158	H	-0.534165	0.713245	-0.251777
H159	H	-0.986696	0.199341	-0.822039
H160	H	-0.486696	0.699341	-0.322039
H161	H	-1.039591	0.811281	-0.232870
H162	H	-0.539591	1.311281	0.267130
C163	C	-1.218374	0.396633	-0.804371
C164	C	-0.718374	0.896633	-0.304371
H165	H	-1.253595	0.361337	-0.821287
H166	H	-0.753595	0.861337	-0.321287
H167	H	-1.231569	0.444419	-0.821996
H168	H	-0.731569	0.944419	-0.321996
H169	H	-1.217692	0.396928	-0.751746
H170	H	-0.717692	0.896928	-0.251746
H171	H	-0.527035	0.482815	-0.324253
H172	H	-0.027035	0.982815	0.175747
H173	H	-0.619827	0.391154	-0.232863
H174	H	-0.119827	0.891154	0.267137
H175	H	-0.948111	0.904024	-0.324405
H176	H	-0.448111	1.404024	0.175595
C177	C	-1.179500	0.911213	-0.251730
C178	C	-0.679500	1.411213	0.248270
H179	H	-1.166520	0.894248	-0.203632
H180	H	-0.666520	1.394248	0.296368
H181	H	-1.227463	0.893501	-0.264256
H182	H	-0.727463	1.393501	0.235744
H183	H	-1.179495	0.963839	-0.252324
H184	H	-0.679495	1.463839	0.247676
