data_functionalizedCrystal
_audit_creation_method	'MofGen! by Chris Wilmer'
_symmetry_space_group_name_H-M	'P1'
_symmetry_Int_Tables_number	1
_symmetry_cell_setting	triclinic
loop_
_symmetry_equiv_pos_as_xyz
  x,y,z
_cell_length_a	17.077404
_cell_length_b	25.639239
_cell_length_c	17.077396
_cell_angle_alpha	89.968926
_cell_angle_beta	89.980499
_cell_angle_gamma	90.038911
loop_
_atom_site_label
_atom_site_type_symbol
_atom_site_fract_x
_atom_site_fract_y
_atom_site_fract_z
Zn1	Zn	1.199968	-0.208148	-0.443829
Zn2	Zn	1.699968	0.291852	0.056171
Zn3	Zn	1.199839	-0.295585	-0.312557
Zn4	Zn	1.699839	0.204415	0.187443
Zn5	Zn	1.068700	-0.208166	-0.312576
Zn6	Zn	1.568700	0.291834	0.187424
Zn7	Zn	1.068632	-0.295554	-0.443780
Zn8	Zn	1.568632	0.204446	0.056220
O9	O	1.134285	-0.251863	-0.378185
O10	O	1.634285	0.248137	0.121815
O11	O	1.309798	-0.219752	-0.426427
O12	O	1.809798	0.280248	0.073573
O13	O	1.182418	-0.284010	-0.202712
O14	O	1.682418	0.215990	0.297288
O15	O	1.086196	-0.134998	-0.330016
O16	O	1.586196	0.365002	0.169984
O17	O	1.309703	-0.283992	-0.329982
O18	O	1.809703	0.216008	0.170018
O19	O	1.182638	-0.134985	-0.426446
O20	O	1.682638	0.365015	0.073554
O21	O	1.086071	-0.219783	-0.202727
O22	O	1.586071	0.280217	0.297273
O23	O	0.958844	-0.219753	-0.329969
O24	O	1.458844	0.280247	0.170031
O25	O	1.086080	-0.283939	-0.553634
O26	O	1.586080	0.216061	-0.053634
O27	O	0.958794	-0.283957	-0.426364
O28	O	1.458794	0.216043	0.073636
O29	O	1.182572	-0.219722	-0.553669
O30	O	1.682572	0.280278	-0.053669
O31	O	1.182352	-0.368746	-0.329935
O32	O	1.682352	0.131254	0.170065
O33	O	1.085954	-0.368724	-0.426345
O34	O	1.585954	0.131276	0.073655
C35	C	0.930337	-0.251854	-0.378164
C36	C	1.430337	0.248146	0.121836
C37	C	0.843087	-0.251862	-0.378173
C38	C	1.343087	0.248138	0.121827
C39	C	1.134153	-0.387706	-0.378150
C40	C	1.634153	0.112294	0.121850
C41	C	1.134168	-0.445820	-0.378160
C42	C	1.634168	0.054180	0.121840
C43	C	0.802092	-0.285344	-0.428285
C44	C	1.302092	0.214656	0.071715
C45	C	0.720111	-0.285345	-0.428298
C46	C	1.220111	0.214655	0.071702
C47	C	0.679128	-0.251867	-0.378194
C48	C	1.179128	0.248133	0.121806
C49	C	0.720129	-0.218382	-0.328079
C50	C	1.220129	0.281618	0.171921
C51	C	0.802108	-0.218378	-0.328071
C52	C	1.302108	0.281622	0.171929
C53	C	0.549259	-0.218392	-0.328098
C54	C	1.049259	0.281608	0.171902
C55	C	0.467275	-0.218396	-0.328105
C56	C	0.967275	0.281604	0.171895
C57	C	0.467262	-0.285358	-0.428325
C58	C	0.967262	0.214642	0.071675
C59	C	0.549241	-0.285355	-0.428317
C60	C	1.049241	0.214645	0.071683
C61	C	0.590237	-0.251871	-0.378201
C62	C	1.090237	0.248129	0.121799
C63	C	1.184610	-0.806182	-0.328071
C64	C	1.684610	-0.306182	0.171929
C65	C	1.184641	-0.860787	-0.328081
C66	C	1.684641	-0.360787	0.171919
O67	O	1.227391	-0.889023	-0.285454
O68	O	1.727391	-0.389023	0.214546
N69	N	1.134423	-0.888102	-0.378237
N70	N	1.634423	-0.388102	0.121763
C71	C	1.084177	-0.860811	-0.428392
C72	C	1.584177	-0.360811	0.071608
O73	O	1.041467	-0.889059	-0.471056
O74	O	1.541467	-0.389059	0.028944
C75	C	1.084151	-0.806208	-0.428385
C76	C	1.584151	-0.306208	0.071615
C77	C	1.134367	-0.778895	-0.378220
C78	C	1.634367	-0.278895	0.121780
C79	C	1.234822	-0.778869	-0.277910
C80	C	1.734822	-0.278869	0.222090
C81	C	1.234790	-0.724269	-0.277899
C82	C	1.734790	-0.224269	0.222101
C83	C	1.184547	-0.696981	-0.328048
C84	C	1.684547	-0.196981	0.171952
C85	C	1.134335	-0.724294	-0.378209
C86	C	1.634335	-0.224294	0.121791
C87	C	1.033910	-0.778917	-0.478543
C88	C	1.533910	-0.278917	0.021457
C89	C	1.033889	-0.724310	-0.478532
C90	C	1.533889	-0.224310	0.021468
C91	C	1.084104	-0.696997	-0.428367
C92	C	1.584104	-0.196997	0.071633
C93	C	1.084060	-0.642406	-0.428346
C94	C	1.584060	-0.142406	0.071654
N95	N	1.134278	-0.615090	-0.378190
N96	N	1.634278	-0.115090	0.121810
C97	C	1.184521	-0.642378	-0.328041
C98	C	1.684521	-0.142378	0.171959
C99	C	1.084236	-0.975482	-0.428404
C100	C	1.584236	-0.475482	0.071596
C101	C	1.084258	-1.030084	-0.428408
C102	C	1.584258	-0.530084	0.071592
C103	C	1.184722	-1.030056	-0.328098
C104	C	1.684722	-0.530056	0.171902
C105	C	1.184696	-0.975452	-0.328091
C106	C	1.684696	-0.475452	0.171909
C107	C	1.134454	-0.948166	-0.378248
C108	C	1.634454	-0.448166	0.121752
C109	C	1.184450	-0.527713	-0.328020
C110	C	1.684450	-0.027713	0.171980
C111	C	1.184412	-0.473107	-0.328011
C112	C	1.684412	0.026893	0.171989
C113	C	1.083951	-0.473140	-0.428324
C114	C	1.583951	0.026860	0.071676
C115	C	1.083986	-0.527741	-0.428331
C116	C	1.583986	-0.027741	0.071669
C117	C	1.134242	-0.555026	-0.378176
C118	C	1.634242	-0.055026	0.121824
O119	O	1.041334	-0.614135	-0.470954
O120	O	1.541334	-0.114135	0.029046
O121	O	1.227232	-0.614123	-0.285392
O122	O	1.727232	-0.114123	0.214608
C123	C	1.339029	-0.251873	-0.378208
C124	C	1.839029	0.248127	0.121792
C125	C	1.426279	-0.251877	-0.378217
C126	C	1.926279	0.248123	0.121783
C127	C	1.134333	-0.251825	-0.582930
C128	C	1.634333	0.248175	-0.082930
C129	C	1.134353	-0.251808	-0.670180
C130	C	1.634353	0.248192	-0.170180
C131	C	1.134439	-0.115490	-0.378239
C132	C	1.634439	0.384510	0.121761
C133	C	1.134505	-0.057376	-0.378261
C134	C	1.634505	0.442624	0.121739
C135	C	1.184598	-0.218368	-0.711190
C136	C	1.684598	0.281632	-0.211190
C137	C	1.184608	-0.218350	-0.793170
C138	C	1.684608	0.281650	-0.293170
C139	C	1.134375	-0.251777	-0.834139
C140	C	1.634375	0.248223	-0.334139
C141	C	1.084124	-0.285219	-0.793123
C142	C	1.584124	0.214781	-0.293123
C143	C	1.084111	-0.285233	-0.711144
C144	C	1.584111	0.214767	-0.211144
C145	C	1.084156	-0.285187	-0.963994
C146	C	1.584156	0.214813	-0.463994
C147	C	1.084169	-0.285174	-1.045978
C148	C	1.584169	0.214826	-0.545978
C149	C	1.184652	-0.218304	-1.046019
C150	C	1.684652	0.281696	-0.546019
C151	C	1.184639	-0.218319	-0.964040
C152	C	1.684639	0.281681	-0.464040
C153	C	1.134389	-0.251762	-0.923030
C154	C	1.634389	0.248238	-0.423030
C155	C	1.134283	-0.251864	-0.174238
C156	C	1.634283	0.248136	0.325762
C157	C	1.134415	-0.251733	-0.086988
C158	C	1.634415	0.248267	0.413012
H159	H	0.835454	-0.312607	-0.469084
H160	H	1.335454	0.187393	0.030916
C161	C	1.239883	-0.181564	-0.838277
C162	C	1.739883	0.318436	-0.338277
N163	N	1.281519	-0.153854	-0.872252
N164	N	1.781519	0.346146	-0.372252
H165	H	1.275740	-0.801081	-0.237072
H166	H	1.775740	-0.301081	0.262928
H167	H	1.225303	-0.450871	-0.287158
H168	H	1.725303	0.049129	0.212842
C169	C	0.422165	-0.322189	-0.483457
C170	C	0.922165	0.177811	0.016543
N171	N	0.388195	-0.349930	-0.524979
N172	N	0.888195	0.150070	-0.024979
H173	H	1.225375	-0.549922	-0.287182
H174	H	1.725375	-0.049922	0.212818
H175	H	0.433908	-0.191129	-0.287315
H176	H	0.933908	0.308871	0.212685
C177	C	0.675020	-0.322187	-0.483410
C178	C	1.175020	0.177813	0.016590
N179	N	0.641057	-0.349942	-0.524919
N180	N	1.141057	0.150058	-0.024919
H181	H	0.582607	-0.312619	-0.469112
H182	H	1.082607	0.187381	0.030888
H183	H	0.582636	-0.191121	-0.287296
H184	H	1.082636	0.308879	0.212704
H185	H	0.686754	-0.191121	-0.287287
H186	H	1.186754	0.308879	0.212713
H187	H	1.225586	-0.953217	-0.287242
H188	H	1.725586	-0.453217	0.212758
C189	C	0.847203	-0.181548	-0.272942
C190	C	1.347203	0.318452	0.227058
N191	N	0.881168	-0.153804	-0.231418
N192	N	1.381168	0.346196	0.268582
H193	H	1.043317	-0.953267	-0.469246
H194	H	1.543317	-0.453267	0.030754
C195	C	1.239998	-1.060082	-0.272938
C196	C	1.739998	-0.560082	0.227062
N197	N	1.281629	-1.082700	-0.231396
N198	N	1.781629	-0.582700	0.268604
C199	C	1.028839	-0.322021	-0.666034
C200	C	1.528839	0.177979	-0.166034
N201	N	0.987204	-0.349731	-0.632058
N202	N	1.487204	0.150269	-0.132058
H203	H	1.275682	-0.702034	-0.237052
H204	H	1.775682	-0.202034	0.262948
H205	H	0.992977	-0.702096	-0.519379
H206	H	1.492977	-0.202096	-0.019379
H207	H	0.993016	-0.801146	-0.519390
H208	H	1.493016	-0.301146	-0.019390
C209	C	1.029010	-1.060122	-0.483586
C210	C	1.529010	-0.560122	0.016414
N211	N	0.987398	-1.082745	-0.525152
N212	N	1.487398	-0.582745	-0.025152
H213	H	1.225566	-0.191073	-1.079414
H214	H	1.725566	0.308927	-0.579414
H215	H	1.043221	-0.312433	-0.826487
H216	H	1.543221	0.187567	-0.326487
C217	C	1.028744	-0.557786	-0.483512
C218	C	1.528744	-0.057786	0.016488
N219	N	0.987141	-0.580413	-0.525081
N220	N	1.487141	-0.080413	-0.025081
H221	H	1.225547	-0.191103	-0.930685
H222	H	1.725547	0.308897	-0.430685
C223	C	1.028688	-0.443114	-0.483489
C224	C	1.528688	0.056886	0.016511
N225	N	0.987070	-0.420496	-0.525044
N226	N	1.487070	0.079504	-0.025044
C227	C	1.028906	-0.321941	-1.091043
C228	C	1.528906	0.178059	-0.591043
N229	N	0.987280	-0.349634	-1.124985
N230	N	1.487280	0.150366	-0.624985
C231	C	1.239858	-0.181595	-0.666131
C232	C	1.739858	0.318405	-0.166131
N233	N	1.281479	-0.153895	-0.632195
N234	N	1.781479	0.346105	-0.132195
H235	H	1.043225	-0.312412	-0.930606
H236	H	1.543225	0.187588	-0.430606
