data_functionalizedCrystal
_audit_creation_method	'MofGen! by Chris Wilmer'
_symmetry_space_group_name_H-M	'P1'
_symmetry_Int_Tables_number	1
_symmetry_cell_setting	triclinic
loop_
_symmetry_equiv_pos_as_xyz
  x,y,z
_cell_length_a	16.625546
_cell_length_b	12.759401
_cell_length_c	12.759393
_cell_angle_alpha	90.019559
_cell_angle_beta	89.963806
_cell_angle_gamma	89.979382
loop_
_atom_site_label
_atom_site_type_symbol
_atom_site_fract_x
_atom_site_fract_y
_atom_site_fract_z
Zn1	Zn	-0.320994	-1.606199	-0.593977
Zn2	Zn	0.179006	-1.106199	-0.093977
Zn3	Zn	-0.455851	-1.606069	-0.418283
Zn4	Zn	0.044149	-1.106069	0.081717
Zn5	Zn	-0.321031	-1.430501	-0.418313
Zn6	Zn	0.178969	-0.930501	0.081687
Zn7	Zn	-0.455784	-1.430465	-0.593921
Zn8	Zn	0.044216	-0.930465	-0.093921
O9	O	-0.388415	-1.518308	-0.506124
O10	O	0.111585	-1.018308	-0.006124
O11	O	-0.338895	-1.753202	-0.570682
O12	O	0.161105	-1.253202	-0.070682
O13	O	-0.438010	-1.582740	-0.271266
O14	O	0.061990	-1.082740	0.228734
O15	O	-0.208194	-1.453876	-0.441652
O16	O	0.291806	-0.953876	0.058348
O17	O	-0.437974	-1.753107	-0.441600
O18	O	0.062026	-1.253107	0.058400
O19	O	-0.208166	-1.582961	-0.570711
O20	O	0.291834	-1.082961	-0.070711
O21	O	-0.338959	-1.453751	-0.271288
O22	O	0.161041	-0.953751	0.228712
O23	O	-0.338894	-1.283475	-0.441597
O24	O	0.161106	-0.783475	0.058403
O25	O	-0.437860	-1.453816	-0.740950
O26	O	0.062140	-0.953816	-0.240950
O27	O	-0.437896	-1.283449	-0.570616
O28	O	0.062104	-0.783449	-0.070616
O29	O	-0.338830	-1.582927	-0.740991
O30	O	0.161170	-1.082927	-0.240991
O31	O	-0.568674	-1.582706	-0.441546
O32	O	-0.068674	-1.082706	0.058454
O33	O	-0.568625	-1.453691	-0.570587
O34	O	-0.068625	-0.953691	-0.070587
C35	C	-0.388393	-1.245341	-0.506105
C36	C	0.111607	-0.745341	-0.006105
C37	C	-0.388403	-1.128564	-0.506121
C38	C	0.111597	-0.628564	-0.006121
C39	C	-0.440034	-1.073716	-0.573189
C40	C	0.059966	-0.573716	-0.073189
C41	C	-0.440041	-0.963992	-0.573198
C42	C	0.059959	-0.463992	-0.073198
C43	C	-0.336783	-0.963974	-0.439063
C44	C	0.163217	-0.463974	0.060937
C45	C	-0.336773	-1.073696	-0.439060
C46	C	0.163227	-0.573696	0.060940
C47	C	-0.499652	-1.073726	-0.650628
C48	C	0.000348	-0.573726	-0.150628
C49	C	-0.499659	-0.964002	-0.650637
C50	C	0.000341	-0.464002	-0.150637
C51	C	-0.597906	-1.518209	-0.506080
C52	C	-0.097906	-1.018209	-0.006080
C53	C	-0.687527	-1.518263	-0.506096
C54	C	-0.187527	-1.018263	-0.006096
C55	C	-1.015702	-1.518446	-0.506206
C56	C	-0.515702	-1.018446	-0.006206
C57	C	-0.924394	-1.518392	-0.506178
C58	C	-0.424394	-1.018392	-0.006178
C59	C	-0.851618	-1.518353	-0.506150
C60	C	-0.351618	-1.018353	-0.006150
C61	C	-0.760303	-1.518301	-0.506124
C62	C	-0.260303	-1.018301	-0.006124
C63	C	-0.178106	-1.518437	-0.506191
C64	C	0.321894	-1.018437	-0.006191
C65	C	-0.088485	-1.518492	-0.506220
C66	C	0.411515	-1.018492	-0.006220
C67	C	-0.388334	-1.518382	-0.780157
C68	C	0.111666	-1.018382	-0.280157
C69	C	-0.388299	-1.518413	-0.896934
C70	C	0.111701	-1.018413	-0.396934
C71	C	-0.388431	-0.792342	-0.506139
C72	C	0.111569	-0.292342	-0.006139
C73	C	-0.388421	-0.909118	-0.506134
C74	C	0.111579	-0.409118	-0.006134
C75	C	-0.336729	-1.585650	-0.951819
C76	C	0.163271	-1.085650	-0.451819
C77	C	-0.336700	-1.585675	-1.061543
C78	C	0.163300	-1.085675	-0.561543
C79	C	-0.439817	-1.451223	-1.061488
C80	C	0.060183	-0.951223	-0.561488
C81	C	-0.439842	-1.451194	-0.951765
C82	C	0.060158	-0.951194	-0.451765
C83	C	-0.277198	-1.663279	-0.951852
C84	C	0.222802	-1.163279	-0.451852
C85	C	-0.277169	-1.663304	-1.061576
C86	C	0.222831	-1.163304	-0.561576
C87	C	-0.388438	-1.518296	-0.233156
C88	C	0.111562	-1.018296	0.266844
C89	C	-0.388245	-1.518468	-0.116380
C90	C	0.111755	-1.018468	0.383620
H91	H	-0.477368	-0.930008	-0.727991
H92	H	0.022632	-0.430008	-0.227991
H93	H	-0.562091	-0.934196	-0.628698
H94	H	-0.062091	-0.434196	-0.128698
H95	H	-0.217837	-1.634200	-1.095630
H96	H	0.282163	-1.134200	-0.595630
H97	H	-0.294748	-0.919287	-0.384465
H98	H	0.205252	-0.419287	0.115535
H99	H	-0.294724	-1.118349	-0.384454
H100	H	0.205276	-0.618349	0.115546
H101	H	-0.299585	-1.740546	-0.917815
H102	H	0.200415	-1.240546	-0.417815
N103	N	-0.478748	-1.111114	-0.752752
N104	N	0.021252	-0.611114	-0.252752
N105	N	-0.412337	-1.087475	-0.792153
N106	N	0.087663	-0.587475	-0.292153
H107	H	-0.397572	-1.113879	-0.864277
H108	H	0.102428	-0.613879	-0.364277
H109	H	-0.293896	-1.744671	-1.091354
H110	H	0.206104	-1.244671	-0.591354
H111	H	-0.481832	-1.396439	-0.907082
H112	H	0.018168	-0.896439	-0.407082
N113	N	-0.492456	-1.382566	-1.117515
N114	N	0.007544	-0.882566	-0.617515
N115	N	-0.492423	-1.382595	-1.215480
N116	N	0.007577	-0.882595	-0.715480
H117	H	-0.529600	-1.334104	-1.255049
H118	H	-0.029600	-0.834104	-0.755049
N119	N	-0.198866	-1.635963	-0.914539
N120	N	0.301134	-1.135963	-0.414539
N121	N	-0.143657	-1.616735	-0.978229
N122	N	0.356343	-1.116735	-0.478229
H123	H	-0.088338	-1.597435	-0.951877
H124	H	0.411662	-1.097435	-0.451877
H125	H	-0.558940	-1.107730	-0.621338
H126	H	-0.058940	-0.607730	-0.121338
