data_functionalizedCrystal
_audit_creation_method	'MofGen! by Chris Wilmer'
_symmetry_space_group_name_H-M	'P1'
_symmetry_Int_Tables_number	1
_symmetry_cell_setting	triclinic
loop_
_symmetry_equiv_pos_as_xyz
  x,y,z
_cell_length_a	19.077105
_cell_length_b	16.625546
_cell_length_c	19.077569
_cell_angle_alpha	87.674615
_cell_angle_beta	85.299277
_cell_angle_gamma	87.718759
loop_
_atom_site_label
_atom_site_type_symbol
_atom_site_fract_x
_atom_site_fract_y
_atom_site_fract_z
Zn1	Zn	1.093727	-0.351109	-0.441842
Zn2	Zn	1.088914	-0.491150	-0.323948
Zn3	Zn	0.971109	-0.351121	-0.319237
Zn4	Zn	0.975810	-0.480687	-0.437068
O5	O	1.032390	-0.418516	-0.380524
O6	O	1.191739	-0.374059	-0.430172
O7	O	1.069305	-0.476958	-0.224672
O8	O	0.987422	-0.238288	-0.335527
O9	O	1.188202	-0.476947	-0.343556
O10	O	1.077509	-0.238279	-0.425604
O11	O	0.982755	-0.374079	-0.221211
O12	O	0.873082	-0.363934	-0.330898
O13	O	0.995433	-0.459114	-0.536353
O14	O	0.876536	-0.459126	-0.417468
O15	O	1.082067	-0.363914	-0.539860
O16	O	1.073863	-0.602593	-0.338928
O17	O	0.990766	-0.594906	-0.422037
C18	C	0.849230	-0.410396	-0.373155
C19	C	0.770874	-0.406941	-0.370019
C20	C	0.735876	-0.454960	-0.413547
C21	C	0.662253	-0.451703	-0.410604
C22	C	0.623629	-0.400430	-0.364128
C23	C	0.658632	-0.352406	-0.320598
C24	C	0.732254	-0.355660	-0.323546
C25	C	0.403247	-0.385372	-0.350492
C26	C	0.329619	-0.382124	-0.347547
C27	C	0.333246	-0.481420	-0.437553
C28	C	0.406869	-0.484673	-0.440493
C29	C	0.441866	-0.436645	-0.396966
N30	N	0.548373	-0.397102	-0.361117
N31	N	0.517120	-0.439971	-0.399981
C32	C	1.032322	-0.628006	-0.380492
C33	C	1.032358	-0.717628	-0.380504
C34	C	1.032484	-1.045806	-0.380582
C35	C	1.032447	-0.954496	-0.380562
C36	C	1.032421	-0.881720	-0.380543
C37	C	1.032385	-0.790405	-0.380524
C38	C	1.216265	-0.426669	-0.387922
C39	C	1.294621	-0.430143	-0.391075
C40	C	1.039811	-0.410346	-0.564401
C41	C	1.042974	-0.406864	-0.642758
C42	C	1.032478	-0.208209	-0.380572
C43	C	1.032515	-0.118589	-0.380593
C44	C	0.999355	-0.454790	-0.677746
C45	C	1.002333	-0.451519	-0.751371
C46	C	1.048926	-0.400317	-0.790008
C47	C	1.092549	-0.352389	-0.755015
C48	C	1.089575	-0.355665	-0.681391
C49	C	1.062661	-0.385208	-1.010396
C50	C	1.065631	-0.381934	-1.084024
C51	C	0.975415	-0.481065	-1.080376
C52	C	0.972442	-0.484333	-1.006751
C53	C	1.016068	-0.436408	-0.971764
N54	N	1.051968	-0.396970	-0.865265
N55	N	1.013028	-0.439760	-0.896509
C56	C	1.025038	-0.426599	-0.197364
C57	C	1.022012	-0.429860	-0.119012
H58	H	0.438312	-0.526426	-0.478337
Br59	Br	0.606214	-0.282813	-0.257530
H60	H	0.961406	-0.496475	-0.646293
H61	H	0.304743	-0.520520	-0.472992
H62	H	0.431732	-0.346271	-0.315044
Br63	Br	0.277200	-0.312545	-0.284461
Br64	Br	0.779753	-0.290484	-0.264473
H65	H	0.934512	-0.526041	-0.975298
H66	H	0.939897	-0.520083	-1.108870
H67	H	1.098185	-0.346184	-0.981919
H68	H	0.966815	-0.490546	-0.779855
H69	H	1.103570	-0.340231	-1.115480
H70	H	1.130489	-0.310703	-0.786478
H71	H	0.767319	-0.496714	-0.451390
Br72	Br	0.614758	-0.516872	-0.469683
Br73	Br	1.148779	-0.290626	-0.633907
