data_functionalizedCrystal
_audit_creation_method	'MofGen! by Chris Wilmer'
_symmetry_space_group_name_H-M	'P1'
_symmetry_Int_Tables_number	1
_symmetry_cell_setting	triclinic
loop_
_symmetry_equiv_pos_as_xyz
  x,y,z
_cell_length_a	9.065218
_cell_length_b	15.500227
_cell_length_c	9.065218
_cell_angle_alpha	87.127904
_cell_angle_beta	85.015885
_cell_angle_gamma	92.886578
loop_
_atom_site_label
_atom_site_type_symbol
_atom_site_fract_x
_atom_site_fract_y
_atom_site_fract_z
O1	O	1.967174	0.071943	0.209599
O2	O	1.537889	0.071943	0.227345
O3	O	1.761404	0.071941	0.003830
O4	O	1.743658	0.071945	0.433114
O5	O	1.747840	-0.071947	0.017339
O6	O	1.524325	-0.071945	0.240855
O7	O	1.953609	-0.071946	0.223108
Cu8	Cu	1.737729	-0.085084	0.233215
Cu9	Cu	1.753770	0.085081	0.217238
O10	O	1.730094	-0.071944	0.446624
C11	C	1.476120	-0.000001	0.232394
C12	C	1.312277	-0.000000	0.227294
N13	N	1.726457	-0.204769	0.244451
C14	C	1.821202	-0.250046	0.149776
C15	C	1.812691	-0.340619	0.158287
C16	C	1.709441	-0.385912	0.261483
C17	C	1.614686	-0.340628	0.356162
C18	C	1.623191	-0.250057	0.347642
C19	C	1.678803	-0.659379	0.292150
C20	C	1.670308	-0.749956	0.300666
C21	C	1.868312	-0.749941	0.102788
C22	C	1.876814	-0.659368	0.094283
C23	C	1.782054	-0.614092	0.188958
C24	C	1.700742	-0.478492	0.270189
C25	C	1.790746	-0.521513	0.180244
C26	C	2.015378	0.000000	0.218059
C27	C	2.179222	0.000005	0.223158
C28	C	1.752917	-0.000002	-0.044402
C29	C	1.747818	0.000003	-0.208246
N30	N	1.765053	0.204766	0.205990
C31	C	1.738582	0.000001	0.494855
C32	C	1.743682	0.000003	0.658698
H33	H	1.905285	-0.213174	0.065749
C34	C	1.915328	-0.389818	0.055329
C35	C	1.830663	-0.441813	-0.031249
C36	C	1.925167	-0.487135	-0.126130
H37	H	1.974166	-0.425209	0.112423
H38	H	1.978014	-0.349894	-0.007422
H39	H	1.768002	-0.481732	0.031495
H40	H	1.771828	-0.406444	-0.088373
H41	H	1.987854	-0.447211	-0.188881
H42	H	1.984001	-0.522521	-0.069025
H43	H	1.867737	-0.522413	-0.184894
H44	H	1.960888	-0.622492	0.010254
H45	H	1.586225	-0.786830	0.384706
C46	C	1.971104	-0.798991	-0.000259
C47	C	1.947325	-0.776954	-0.147659
C48	C	2.042000	-0.822113	-0.242638
H49	H	1.951351	-0.859431	0.019387
H50	H	2.071221	-0.784118	0.015641
H51	H	1.847232	-0.791832	-0.163552
H52	H	1.967089	-0.716521	-0.167351
H53	H	2.142117	-0.807241	-0.226738
H54	H	2.022239	-0.882552	-0.222979
H55	H	2.025889	-0.807162	-0.342659
H56	H	1.601647	-0.622522	0.369241
C57	C	1.502734	-0.389958	0.468157
C58	C	1.515591	-0.478968	0.455387
C59	C	1.412500	-0.524434	0.558552
H60	H	1.405364	-0.375235	0.449471
H61	H	1.521472	-0.375152	0.565499
H62	H	1.496841	-0.493767	0.358068
H63	H	1.612938	-0.493716	0.474088
H64	H	1.431239	-0.509629	0.655893
H65	H	1.315137	-0.509705	0.539856
H66	H	1.421219	-0.584832	0.549911
H67	H	1.546037	-0.213193	0.424735
H68	H	1.874807	-0.484633	0.096216
H69	H	1.616676	-0.515378	0.354215
