data_functionalizedCrystal
_audit_creation_method	'MofGen! by Chris Wilmer'
_symmetry_space_group_name_H-M	'P1'
_symmetry_Int_Tables_number	1
_symmetry_cell_setting	triclinic
loop_
_symmetry_equiv_pos_as_xyz
  x,y,z
_cell_length_a	6.817900
_cell_length_b	16.255661
_cell_length_c	11.102244
_cell_angle_alpha	93.853574
_cell_angle_beta	108.604870
_cell_angle_gamma	103.488922
loop_
_atom_site_label
_atom_site_type_symbol
_atom_site_fract_x
_atom_site_fract_y
_atom_site_fract_z
V1	V	-4.052933	-0.263869	-0.176865
O2	O	-4.013087	-0.258848	0.007443
O3	O	-4.030105	-0.262062	-0.349678
O4	O	-4.004160	-0.378952	-0.174608
O5	O	-4.039211	-0.141149	-0.168839
V6	V	-4.533296	-0.249191	-0.154765
O7	O	-4.321124	-0.296066	-0.225343
O8	O	-4.715302	-0.216993	-0.106287
O9	O	-4.332917	-0.250998	0.018048
O10	O	-4.690538	-0.254212	-0.339073
O11	O	-4.664414	-0.371911	-0.162791
O12	O	-4.358862	-0.134107	-0.157022
C13	C	-3.881339	-0.257899	-0.391791
C14	C	-3.943959	-0.257189	-0.533071
C15	C	-3.930414	-0.179357	-0.581003
C16	C	-3.989265	-0.178699	-0.713752
C17	C	-4.075195	-0.333712	-0.750628
C18	C	-4.016359	-0.334369	-0.617881
C19	C	-3.880795	-0.089861	-0.559714
C20	C	-3.939646	-0.089204	-0.692463
C21	C	-3.848243	-0.407003	-0.168471
C22	C	-3.889818	-0.501084	-0.167769
C23	C	-3.799132	-0.723903	-0.159385
C24	C	-3.971590	-0.793378	-0.267594
C25	C	-3.966008	-0.673333	-0.166453
C26	C	-3.867656	-0.771495	-0.057005
C27	C	-4.039586	-0.839716	-0.165176
C28	C	-4.137962	-0.741577	-0.274759
C29	C	-4.033952	-0.719680	-0.064074
C30	C	-4.206551	-0.789135	-0.172314
C31	C	-3.923616	-0.577483	-0.167190
C32	C	-4.081997	-0.935565	-0.164449
C33	C	-4.145026	-0.255159	0.060154
C34	C	-4.061645	-0.255874	0.201433
C35	C	-4.178122	-0.106052	-0.163163
C36	C	-4.115784	-0.011970	-0.163859
H37	H	-4.087517	-0.064570	-0.732169
H38	H	-3.796013	-0.051428	-0.715335
C39	C	-3.936586	-0.836737	-0.383826
C40	C	-4.123383	-0.905124	-0.484508
C41	C	-4.088359	-0.948481	-0.600731
C42	C	-3.866539	-0.923450	-0.616272
C43	C	-3.679727	-0.855059	-0.515587
C44	C	-3.714751	-0.811702	-0.399364
H45	H	-4.287601	-0.923657	-0.473006
H46	H	-4.226651	-0.999108	-0.675265
H47	H	-3.840612	-0.955545	-0.702308
H48	H	-3.515509	-0.836526	-0.527089
H49	H	-3.576459	-0.761075	-0.324830
C50	C	-4.291803	-0.723394	-0.399223
C51	C	-4.448347	-0.670124	-0.392058
C52	C	-4.602177	-0.651939	-0.516521
C53	C	-4.599462	-0.687023	-0.648150
C54	C	-4.442912	-0.740296	-0.655321
C55	C	-4.289082	-0.758482	-0.530857
H56	H	-4.450362	-0.644149	-0.294613
H57	H	-4.718066	-0.612502	-0.511212
H58	H	-4.713336	-0.673562	-0.740285
H59	H	-4.440897	-0.766271	-0.752765
H60	H	-4.173193	-0.797918	-0.536166
H61	H	-3.626588	-0.695422	-0.154059
C62	C	-4.068849	-0.676293	0.052169
C63	C	-4.135081	-0.730406	0.148521
C64	C	-4.169949	-0.687015	0.264778
C65	C	-4.138585	-0.589512	0.284682
C66	C	-4.072349	-0.535393	0.188327
C67	C	-4.037481	-0.578784	0.072071
H68	H	-4.158303	-0.802589	0.133789
H69	H	-4.218982	-0.727078	0.336106
H70	H	-4.164396	-0.557391	0.370743
H71	H	-4.049128	-0.463210	0.203059
H72	H	-3.988448	-0.538722	0.000742
H73	H	-3.753781	-0.785106	0.034998
H74	H	-4.027409	-0.397748	-0.578862
H75	H	-3.986326	-0.058915	-0.520498
C76	C	-3.639446	-0.048104	-0.488210
C77	C	-3.471429	-0.085049	-0.521541
C78	C	-3.230078	-0.043294	-0.450039
C79	C	-3.156745	0.035406	-0.345207
C80	C	-3.324766	0.072356	-0.311871
C81	C	-3.566117	0.030601	-0.383373
H82	H	-3.525711	-0.143311	-0.599148
H83	H	-3.105698	-0.070646	-0.474716
H84	H	-2.978082	0.066316	-0.292277
H85	H	-3.270483	0.130618	-0.234264
H86	H	-3.690497	0.057953	-0.358696
H87	H	-4.379239	-0.817481	-0.177810
H88	H	-4.134148	-0.396550	-0.819696
