data_functionalizedCrystal
_audit_creation_method	'MofGen! by Chris Wilmer'
_symmetry_space_group_name_H-M	'P1'
_symmetry_Int_Tables_number	1
_symmetry_cell_setting	triclinic
loop_
_symmetry_equiv_pos_as_xyz
  x,y,z
_cell_length_a	18.215407
_cell_length_b	17.639999
_cell_length_c	18.215399
_cell_angle_alpha	101.225562
_cell_angle_beta	89.982632
_cell_angle_gamma	101.196378
loop_
_atom_site_label
_atom_site_type_symbol
_atom_site_fract_x
_atom_site_fract_y
_atom_site_fract_z
Zn1	Zn	1.184349	0.314728	-0.356895
Zn2	Zn	1.209153	0.446906	-0.208978
Zn3	Zn	1.061285	0.314746	-0.233844
Zn4	Zn	1.086133	0.446855	-0.332018
O5	O	1.135230	0.380809	-0.282934
O6	O	1.290626	0.332275	-0.337278
O7	O	1.189519	0.429404	-0.109287
O8	O	1.056831	0.204139	-0.270985
O9	O	1.308849	0.429386	-0.228604
O10	O	1.147245	0.204125	-0.361390
O11	O	1.080882	0.332307	-0.127556
O12	O	0.961595	0.332258	-0.246862
O13	O	1.099180	0.429299	-0.438307
O14	O	0.979850	0.429317	-0.318990
O15	O	1.171339	0.332225	-0.456585
O16	O	1.213613	0.557505	-0.204481
O17	O	1.123231	0.557467	-0.294878
C18	C	0.944019	0.380785	-0.282925
C19	C	0.862222	0.380793	-0.282936
C20	C	0.664558	0.330332	-0.339577
C21	C	0.587700	0.330338	-0.339578
C22	C	0.606658	0.431308	-0.226299
C23	C	0.683514	0.431297	-0.226295
C24	C	0.712462	0.380810	-0.282938
C25	C	0.558749	0.380828	-0.282943
C26	C	0.475417	0.380836	-0.282944
C27	C	0.795799	0.380801	-0.282937
C28	C	1.173830	0.586165	-0.244298
C29	C	1.190410	0.674017	-0.227794
C30	C	1.009456	0.962991	-0.408564
C31	C	1.025038	1.045542	-0.393033
C32	C	1.119211	1.045515	-0.298998
C33	C	1.103640	0.962963	-0.314524
C34	C	1.048761	0.921708	-0.369307
C35	C	1.142945	0.921680	-0.275267
C36	C	1.127372	0.839135	-0.290789
C37	C	1.072495	0.797874	-0.345569
C38	C	1.033189	0.839163	-0.384830
C39	C	1.197820	0.962937	-0.220480
C40	C	1.237125	0.921653	-0.181223
C41	C	1.221556	0.839107	-0.196749
C42	C	1.166678	0.797845	-0.251528
C43	C	1.260862	0.797817	-0.157488
C44	C	1.245289	0.715272	-0.173010
C45	C	1.151106	0.715300	-0.267051
C46	C	1.327188	0.380834	-0.282942
C47	C	1.408988	0.380845	-0.282946
C48	C	1.135265	0.380754	-0.474897
C49	C	1.135279	0.380731	-0.556700
C50	C	1.096476	1.174651	-0.321733
C51	C	1.079903	1.086799	-0.338259
C52	C	1.172860	0.330138	-0.754421
C53	C	1.172865	0.330115	-0.831284
C54	C	1.097727	0.431203	-0.812240
C55	C	1.097719	0.431221	-0.735379
C56	C	1.135290	0.380690	-0.706472
C57	C	1.135303	0.380648	-0.860196
C58	C	1.135307	0.380624	-0.943534
C59	C	1.135284	0.380713	-0.623128
C60	C	1.135227	0.380806	-0.091728
C61	C	1.135313	0.380607	-0.009967
H62	H	0.688124	0.289219	-0.385698
H63	H	1.067119	0.472386	-0.696336
H64	H	1.203457	0.288949	-0.870323
H65	H	0.583079	0.472414	-0.180183
F66	F	1.287116	0.671333	-0.131223
H67	H	0.722519	0.472403	-0.180169
F68	F	1.057747	0.484981	-0.843012
F69	F	0.951054	0.919080	-0.466878
F70	F	1.092703	0.671389	-0.325364
H71	H	1.305539	0.831420	-0.112878
H72	H	0.548699	0.289233	-0.385698
H73	H	1.203451	0.288990	-0.730888
F74	F	1.056053	0.710021	-0.362222
H75	H	0.988506	0.805571	-0.429445
F76	F	0.983193	1.089476	-0.434813
F77	F	1.177616	1.089431	-0.240696
F78	F	1.295529	0.965569	-0.122921
F79	F	1.214413	1.050789	-0.203981
