data_functionalizedCrystal
_audit_creation_method	'MofGen! by Chris Wilmer'
_symmetry_space_group_name_H-M	'P1'
_symmetry_Int_Tables_number	1
_symmetry_cell_setting	triclinic
loop_
_symmetry_equiv_pos_as_xyz
  x,y,z
_cell_length_a	12.837943
_cell_length_b	13.101039
_cell_length_c	12.837942
_cell_angle_alpha	93.718247
_cell_angle_beta	85.171060
_cell_angle_gamma	93.713065
loop_
_atom_site_label
_atom_site_type_symbol
_atom_site_fract_x
_atom_site_fract_y
_atom_site_fract_z
O1	O	1.407523	0.085195	-0.266933
O2	O	1.740856	0.418529	0.066401
O3	O	2.074189	0.751862	0.399734
O4	O	1.104390	0.085201	-0.253489
O5	O	1.437723	0.418535	0.079844
O6	O	1.771056	0.751868	0.413178
O7	O	1.249234	0.085192	-0.108644
O8	O	1.582567	0.418526	0.224689
O9	O	1.915901	0.751859	0.558022
O10	O	1.262678	0.085205	-0.411777
O11	O	1.596011	0.418538	-0.078444
O12	O	1.929345	0.751871	0.254889
O13	O	1.238844	-0.085237	-0.119056
O14	O	1.572177	0.248096	0.214277
O15	O	1.905510	0.581430	0.547611
O16	O	1.093999	-0.085228	-0.263900
O17	O	1.427332	0.248106	0.069433
O18	O	1.760666	0.581439	0.402766
O19	O	1.397132	-0.085234	-0.277344
O20	O	1.730465	0.248099	0.055989
O21	O	2.063799	0.581433	0.389323
Zn22	Zn	1.243916	-0.112290	-0.272275
Zn23	Zn	1.577249	0.221043	0.061058
Zn24	Zn	1.910583	0.554377	0.394391
Zn25	Zn	1.257606	0.112258	-0.258558
Zn26	Zn	1.590939	0.445591	0.074776
Zn27	Zn	1.924273	0.778924	0.408109
O28	O	1.252288	-0.085225	-0.422189
O29	O	1.585621	0.248109	-0.088855
O30	O	1.918954	0.581442	0.244478
C31	C	1.060125	-0.000012	-0.254153
C32	C	1.393458	0.333321	0.079180
C33	C	1.726792	0.666654	0.412513
C34	C	0.943710	-0.000010	-0.240609
C35	C	1.277044	0.333323	0.092725
C36	C	1.610377	0.666656	0.426058
N37	N	1.234580	-0.265538	-0.281637
N38	N	1.567914	0.067795	0.051696
N39	N	1.901247	0.401129	0.385029
C40	C	0.718836	-0.000018	-0.403439
C41	C	1.052169	0.333315	-0.070105
C42	C	1.385502	0.666648	0.263228
C43	C	0.609453	-0.000017	-0.390717
C44	C	0.942787	0.333316	-0.057384
C45	C	1.276120	0.666650	0.275950
C46	C	0.615561	-0.000014	-0.202446
C47	C	0.948894	0.333320	0.130888
C48	C	1.282227	0.666653	0.464221
C49	C	0.724943	-0.000015	-0.215167
C50	C	1.058276	0.333318	0.118166
C51	C	1.391610	0.666652	0.451499
C52	C	0.776577	-0.000016	-0.315667
C53	C	1.109910	0.333318	0.017667
C54	C	1.443243	0.666651	0.351000
C55	C	0.885962	-0.000010	-0.328387
C56	C	1.219295	0.333324	0.004947
C57	C	1.552628	0.666657	0.338280
C58	C	0.892066	-0.000014	-0.140117
C59	C	1.225400	0.333320	0.193217
C60	C	1.558733	0.666653	0.526550
C61	C	0.782684	-0.000013	-0.127395
C62	C	1.116017	0.333321	0.205938
C63	C	1.449351	0.666654	0.539271
C64	C	1.221880	-0.474580	-0.294384
C65	C	1.555213	-0.141247	0.038949
C66	C	1.888547	0.192087	0.372282
C67	C	1.279646	-0.525459	-0.236444
C68	C	1.612979	-0.192126	0.096889
C69	C	1.946313	0.141207	0.430222
C70	C	1.272579	-0.641777	-0.243537
C71	C	1.605913	-0.308444	0.089796
C72	C	1.939246	0.024889	0.423130
C73	C	1.228945	-0.358251	-0.287293
C74	C	1.562279	-0.024918	0.046040
C75	C	1.895612	0.308415	0.379374
C76	C	1.441397	-0.000018	-0.276680
C77	C	1.774730	0.333316	0.056654
C78	C	2.108063	0.666649	0.389987
C79	C	1.557812	-0.000013	-0.290224
C80	C	1.891145	0.333320	0.043109
C81	C	2.224479	0.666653	0.376443
C82	C	1.239498	-0.000022	-0.074781
C83	C	1.572831	0.333312	0.258552
C84	C	1.906164	0.666645	0.591886
C85	C	1.225953	-0.000020	0.041634
C86	C	1.559287	0.333314	0.374968
C87	C	1.892620	0.666647	0.708301
N88	N	1.266949	0.265506	-0.249188
N89	N	1.600282	0.598839	0.084145
N90	N	1.933615	0.932172	0.417478
C91	C	1.262024	-0.000008	-0.456052
C92	C	1.595358	0.333325	-0.122719
C93	C	1.928691	0.666658	0.210615
C94	C	1.275569	-0.000004	-0.572467
C95	C	1.608902	0.333330	-0.239133
C96	C	1.942236	0.666663	0.094200
C97	C	1.388784	-0.000002	0.266509
C98	C	1.722117	0.333332	0.599843
C99	C	2.055450	0.666665	0.933176
C100	C	1.376062	0.000000	0.375892
C101	C	1.709396	0.333334	0.709225
C102	C	2.042729	0.666667	1.042559
C103	C	1.187791	-0.000007	0.369784
C104	C	1.521124	0.333327	0.703118
C105	C	1.854457	0.666660	1.036451
C106	C	1.200512	-0.000009	0.260402
C107	C	1.533845	0.333325	0.593735
C108	C	1.867179	0.666658	0.927068
C109	C	1.301012	-0.000008	0.208768
C110	C	1.634345	0.333326	0.542101
C111	C	1.967678	0.666659	0.875435
C112	C	1.313731	-0.000017	0.099383
C113	C	1.647065	0.333316	0.432716
C114	C	1.980398	0.666650	0.766050
C115	C	1.125461	-0.000016	0.093278
C116	C	1.458795	0.333317	0.426611
C117	C	1.792128	0.666650	0.759945
C118	C	1.112740	-0.000014	0.202661
C119	C	1.446073	0.333319	0.535994
C120	C	1.779407	0.666652	0.869327
H121	H	0.928000	-0.000012	-0.410219
H122	H	1.261333	0.333321	-0.076885
H123	H	1.594666	0.666655	0.256448
Cl124	Cl	1.061461	0.000023	0.434715
Cl125	Cl	1.394794	0.333356	0.768048
Cl126	Cl	1.728128	0.666689	1.101382
Cl127	Cl	0.783751	-0.000005	-0.529776
Cl128	Cl	1.117085	0.333328	-0.196442
Cl129	Cl	1.450418	0.666662	0.136891
Cl130	Cl	0.964663	0.000005	-0.029768
Cl131	Cl	1.297996	0.333339	0.303566
Cl132	Cl	1.631329	0.666672	0.636899
H133	H	1.334409	-0.481660	-0.181515
H134	H	1.667742	-0.148327	0.151819
H135	H	2.001076	0.185006	0.485152
Cl136	Cl	1.137339	-0.542196	-0.379193
Cl137	Cl	1.470672	-0.208862	-0.045859
Cl138	Cl	1.804006	0.124471	0.287474
Cl139	Cl	0.536867	-0.000023	-0.501064
Cl140	Cl	0.870201	0.333310	-0.167731
Cl141	Cl	1.203534	0.666643	0.165602
Cl142	Cl	1.440071	-0.000022	0.034473
Cl143	Cl	1.773405	0.333311	0.367806
Cl144	Cl	2.106738	0.666644	0.701140
Cl145	Cl	1.515120	-0.000026	0.201593
Cl146	Cl	1.848453	0.333307	0.534927
Cl147	Cl	2.181787	0.666641	0.868260
H148	H	0.573496	-0.000098	-0.120629
H149	H	0.906830	0.333236	0.212705
H150	H	1.240163	0.666569	0.546038
Cl151	Cl	0.717763	-0.000014	-0.001060
Cl152	Cl	1.051096	0.333319	0.332273
Cl153	Cl	1.384430	0.666653	0.665606
Cl154	Cl	0.986405	-0.000007	0.267582
Cl155	Cl	1.319739	0.333326	0.600915
Cl156	Cl	1.653072	0.666660	0.934249
H157	H	1.447536	0.000008	0.422901
H158	H	1.780869	0.333342	0.756235
H159	H	2.114203	0.666675	1.089568
H160	H	1.053990	-0.000029	0.046253
H161	H	1.387324	0.333304	0.379586
H162	H	1.720657	0.666637	0.712919
