data_functionalizedCrystal
_audit_creation_method	'MofGen! by Chris Wilmer'
_symmetry_space_group_name_H-M	'P1'
_symmetry_Int_Tables_number	1
_symmetry_cell_setting	triclinic
loop_
_symmetry_equiv_pos_as_xyz
  x,y,z
_cell_length_a	15.944493
_cell_length_b	15.021413
_cell_length_c	12.837942
_cell_angle_alpha	89.994069
_cell_angle_beta	90.848008
_cell_angle_gamma	89.992483
loop_
_atom_site_label
_atom_site_type_symbol
_atom_site_fract_x
_atom_site_fract_y
_atom_site_fract_z
O1	O	1.125231	-0.074020	-0.133392
O2	O	1.625231	0.425980	0.366608
O3	O	0.881999	-0.074024	-0.149937
O4	O	1.381999	0.425976	0.350063
O5	O	0.998221	-0.074016	0.009237
O6	O	1.498221	0.425984	0.509237
O7	O	1.009008	-0.074027	-0.292566
O8	O	1.509008	0.425973	0.207434
O9	O	0.998201	0.074048	0.009212
O10	O	1.498201	0.574048	0.509212
O11	O	0.881978	0.074040	-0.149963
O12	O	1.381978	0.574040	0.350037
O13	O	1.125211	0.074044	-0.133417
O14	O	1.625211	0.574044	0.366583
Zn15	Zn	1.003591	0.097551	-0.141694
Zn16	Zn	1.503591	0.597551	0.358306
Zn17	Zn	1.003618	-0.097530	-0.141661
Zn18	Zn	1.503618	0.402470	0.358339
O19	O	1.008988	0.074037	-0.292592
O20	O	1.508988	0.574037	0.207408
C21	C	0.850639	0.000008	-0.149274
C22	C	1.350639	0.500008	0.350726
C23	C	0.757229	0.000006	-0.147247
C24	C	1.257229	0.500006	0.352753
C25	C	0.528964	0.000002	-0.240940
C26	C	1.028964	0.500002	0.259060
C27	C	0.474353	0.073011	-0.190428
C28	C	0.974353	0.573011	0.309572
C29	C	0.586207	0.000008	-0.143490
C30	C	1.086207	0.500008	0.356510
C31	C	0.474376	-0.072969	-0.190379
C32	C	0.974376	0.427031	0.309621
C33	C	0.421008	0.000006	-0.139868
C34	C	0.921008	0.500006	0.360132
C35	C	0.532827	0.073077	-0.093003
C36	C	1.032827	0.573077	0.406997
C37	C	0.532854	-0.072968	-0.092969
C38	C	1.032854	0.427032	0.407031
C39	C	0.478271	0.000059	-0.042385
C40	C	0.978271	0.500059	0.457615
C41	C	0.681374	0.000010	-0.145579
C42	C	1.181374	0.500010	0.354421
C43	C	0.325843	0.000010	-0.137772
C44	C	0.825843	0.500010	0.362228
N45	N	1.003579	0.230688	-0.141717
N46	N	1.503579	0.730688	0.358283
C47	C	0.949822	0.470368	-0.215289
C48	C	1.449822	0.970368	0.284711
C49	C	1.027332	0.529703	-0.235396
C50	C	1.527332	1.029703	0.264604
C51	C	1.003596	0.412295	-0.141694
C52	C	1.503596	0.912295	0.358306
C53	C	0.926106	0.529702	-0.121615
C54	C	1.426106	1.029702	0.378385
C55	C	1.003605	0.587719	-0.141675
C56	C	1.503605	1.087719	0.358325
C57	C	1.081148	0.470324	-0.161847
C58	C	1.581148	0.970324	0.338153
C59	C	0.979868	0.470317	-0.048026
C60	C	1.479868	0.970317	0.451974
C61	C	1.057430	0.529626	-0.068092
C62	C	1.557430	1.029626	0.431908
C63	C	1.003589	0.311238	-0.141708
C64	C	1.503589	0.811238	0.358292
C65	C	1.003621	0.688775	-0.141661
C66	C	1.503621	1.188775	0.358339
C67	C	1.156570	0.000011	-0.134081
C68	C	1.656570	0.500011	0.365919
C69	C	1.249981	0.000007	-0.136108
C70	C	1.749981	0.500007	0.363892
C71	C	0.994567	0.000015	0.047844
C72	C	1.494567	0.500015	0.547844
C73	C	0.983699	0.000013	0.162919
C74	C	1.483699	0.500013	0.662919
N75	N	1.003624	0.769332	-0.141650
N76	N	1.503624	1.269332	0.358350
C77	C	1.012642	0.000003	-0.331199
C78	C	1.512642	0.500003	0.168801
C79	C	1.023510	-0.000001	-0.446274
C80	C	1.523510	0.499999	0.053726
C81	C	1.114353	-0.000003	0.403902
C82	C	1.614353	0.499997	0.903902
C83	C	1.104145	-0.000005	0.512026
C84	C	1.604145	0.499995	1.012026
C85	C	0.953077	0.000002	0.487293
C86	C	1.453077	0.500002	0.987293
C87	C	0.963285	0.000004	0.379169
C88	C	1.463285	0.500004	0.879169
C89	C	1.043925	0.000003	0.337478
C90	C	1.543925	0.500003	0.837478
C91	C	1.054132	0.000011	0.229352
C92	C	1.554132	0.500011	0.729352
C93	C	0.903065	0.000011	0.204621
C94	C	1.403065	0.500011	0.704621
C95	C	0.892857	0.000009	0.312745
C96	C	1.392857	0.500009	0.812745
H97	H	0.551303	0.000067	-0.324884
H98	H	1.051303	0.500067	0.175116
H99	H	0.904403	0.444350	-0.277575
H100	H	1.404403	0.944350	0.222425
H101	H	0.456085	0.000104	0.041622
H102	H	0.956085	0.500104	0.541622
H103	H	1.102963	0.555481	-0.005844
H104	H	1.602963	1.055481	0.494156
H105	H	0.558519	-0.134691	-0.051835
H106	H	1.058519	0.365309	0.448165
H107	H	0.845718	0.000022	0.150526
H108	H	1.345718	0.500022	0.650526
H109	H	0.448700	0.134731	-0.231593
H110	H	0.948700	0.634731	0.268407
H111	H	0.558356	0.134862	-0.051884
H112	H	1.058356	0.634862	0.448116
H113	H	0.448740	-0.134683	-0.231543
H114	H	0.948740	0.365317	0.268457
H115	H	1.047411	0.555788	-0.314600
H116	H	1.547411	1.055788	0.185400
H117	H	1.119793	0.000013	0.195409
H118	H	1.619793	0.500013	0.695409
H119	H	0.887424	-0.000007	0.521258
H120	H	1.387424	0.499993	1.021258
H121	H	1.180013	0.000005	0.369957
H122	H	1.680013	0.500005	0.869957
H123	H	1.161495	-0.000012	0.566106
H124	H	1.661495	0.499988	1.066106
H125	H	0.959768	0.444212	0.031154
H126	H	1.459768	0.944212	0.531154
H127	H	1.146705	0.444351	-0.178917
H128	H	1.646705	0.944351	0.321083
H129	H	0.860570	0.555787	-0.104640
H130	H	1.360570	1.055787	0.395360
H131	H	0.827202	0.000007	0.346705
H132	H	1.327202	0.500007	0.846705
