data_functionalizedCrystal
_audit_creation_method	'MofGen! by Chris Wilmer'
_symmetry_space_group_name_H-M	'P1'
_symmetry_Int_Tables_number	1
_symmetry_cell_setting	triclinic
loop_
_symmetry_equiv_pos_as_xyz
  x,y,z
_cell_length_a	13.897449
_cell_length_b	11.169416
_cell_length_c	11.169409
_cell_angle_alpha	89.969126
_cell_angle_beta	90.024677
_cell_angle_gamma	89.988833
loop_
_atom_site_label
_atom_site_type_symbol
_atom_site_fract_x
_atom_site_fract_y
_atom_site_fract_z
Zn1	Zn	1.474764	0.477683	0.678710
Zn2	Zn	1.474675	0.678424	0.478032
Zn3	Zn	1.313450	0.477756	0.478028
Zn4	Zn	1.313456	0.678326	0.678660
O5	O	1.394086	0.578047	0.578358
O6	O	1.609734	0.504322	0.652113
O7	O	1.453249	0.651876	0.310082
O8	O	1.334883	0.309797	0.504668
O9	O	1.609669	0.651806	0.504676
O10	O	1.453400	0.309743	0.652108
O11	O	1.334797	0.504447	0.310079
O12	O	1.178469	0.504352	0.504619
O13	O	1.334893	0.651639	0.846617
O14	O	1.178473	0.651710	0.652023
O15	O	1.453406	0.504228	0.846654
O16	O	1.453254	0.846361	0.504627
O17	O	1.334807	0.846289	0.652028
C18	C	1.143472	0.578029	0.578316
C19	C	1.036258	0.578050	0.578326
C20	C	0.949188	0.578054	0.578346
C21	C	0.839956	0.578062	0.578383
C22	C	1.394048	0.889872	0.578349
C23	C	1.394120	1.023272	0.578385
C24	C	1.394160	0.577914	0.891400
C25	C	1.394192	0.577857	1.024800
C26	C	1.645679	0.578067	0.578400
C27	C	1.752893	0.578075	0.578419
C28	C	1.394151	0.265005	0.578393
C29	C	1.394178	0.131605	0.578408
C30	C	1.394068	0.578094	0.266533
C31	C	1.394223	0.577812	0.133134
