data_functionalizedCrystal
_audit_creation_method	'MofGen! by Chris Wilmer'
_symmetry_space_group_name_H-M	'P1'
_symmetry_Int_Tables_number	1
_symmetry_cell_setting	triclinic
loop_
_symmetry_equiv_pos_as_xyz
  x,y,z
_cell_length_a	17.641079
_cell_length_b	21.295418
_cell_length_c	17.639252
_cell_angle_alpha	78.767217
_cell_angle_beta	92.162086
_cell_angle_gamma	101.154805
loop_
_atom_site_label
_atom_site_type_symbol
_atom_site_fract_x
_atom_site_fract_y
_atom_site_fract_z
Zn1	Zn	-0.215058	-1.075966	0.491031
Zn2	Zn	-0.367649	-1.084156	0.389736
Zn3	Zn	-0.240772	-0.954401	0.364002
Zn4	Zn	-0.342023	-0.995228	0.516645
O5	O	-0.291375	-1.027438	0.440354
O6	O	-0.235263	-1.165143	0.477644
O7	O	-0.372304	-1.053285	0.280048
O8	O	-0.131127	-0.950013	0.359364
O9	O	-0.347370	-1.171161	0.403222
O10	O	-0.112236	-1.039326	0.452692
O11	O	-0.279088	-0.957955	0.261142
O12	O	-0.254240	-0.871726	0.384201
O13	O	-0.303695	-1.019597	0.619522
O14	O	-0.328629	-0.901721	0.496347
O15	O	-0.210415	-1.078914	0.600703
O16	O	-0.470483	-1.092873	0.428059
O17	O	-0.451656	-1.027538	0.521300
C18	C	-0.291444	-0.863882	0.440262
C19	C	-0.291488	-0.793918	0.440244
C20	C	-0.330304	-0.776690	0.498577
C21	C	-0.330283	-0.710948	0.498602
C22	C	-0.291457	-0.662437	0.440283
C23	C	-0.252632	-0.679671	0.381945
C24	C	-0.252648	-0.745412	0.381926
N25	N	-0.298946	-0.549490	0.372647
N26	N	-0.298935	-0.487040	0.372668
C27	C	-0.291405	-0.464363	0.440338
N28	N	-0.283902	-0.506498	0.507991
N29	N	-0.283917	-0.568954	0.507970
C30	C	-0.291435	-0.591151	0.440298
C31	C	-0.330200	-0.375851	0.498703
C32	C	-0.330173	-0.310107	0.498728
C33	C	-0.252528	-0.278831	0.382066
C34	C	-0.252550	-0.344574	0.382046
C35	C	-0.291390	-0.393080	0.440364
C36	C	-0.488611	-1.065544	0.480268
C37	C	-0.572985	-1.081907	0.497369
C38	C	-0.681999	-1.151425	0.570085
C39	C	-0.602719	-1.136044	0.554011
C40	C	-0.622525	-1.043126	0.456782
C41	C	-0.701808	-1.058497	0.472851
C42	C	-0.731539	-1.112648	0.529503
C43	C	-0.751347	-1.019720	0.432269
C44	C	-0.830624	-1.035092	0.448335
C45	C	-0.860361	-1.089241	0.504982
C46	C	-0.810815	-1.128020	0.545569
C47	C	-0.721616	-0.965572	0.375614
C48	C	-0.771155	-0.926795	0.335032
C49	C	-0.850433	-0.942164	0.351101
C50	C	-0.880170	-0.996313	0.407748
C51	C	-0.899979	-0.903385	0.310514
C52	C	-0.979255	-0.918757	0.326580
C53	C	-0.959447	-1.011685	0.423814
C54	C	-0.093366	-0.989202	0.400300
C55	C	-0.008986	-0.972908	0.383232
C56	C	-0.251328	-1.052896	0.638439
C57	C	-0.234263	-1.063745	0.722851
C58	C	-0.291324	-0.191631	0.440427
C59	C	-0.291346	-0.261600	0.440409
C60	C	-0.420973	-0.945034	1.049462
C61	C	-0.404928	-0.955239	1.128778
C62	C	-0.307803	-1.017001	1.109173
C63	C	-0.323838	-1.006798	1.029854
C64	C	-0.380424	-0.970815	1.000005
C65	C	-0.283289	-1.032579	0.980396
C66	C	-0.299325	-1.022379	0.901084
C67	C	-0.355911	-0.986399	0.871229
C68	C	-0.396461	-0.960615	0.920692
C69	C	-0.226706	-1.068566	1.010247
C70	C	-0.186157	-1.094347	0.960790
C71	C	-0.202190	-1.084144	0.881475
C72	C	-0.258775	-1.048164	0.851621
C73	C	-0.161640	-1.109928	0.832012
C74	C	-0.177676	-1.099728	0.752700
C75	C	-0.274812	-1.037964	0.772308
C76	C	-0.331285	-1.002074	1.243043
C77	C	-0.348355	-0.991217	1.158632
H78	H	-0.220911	-0.239334	0.334584
H79	H	-0.220946	-0.358600	0.334542
H80	H	-0.835020	-1.172104	0.591715
Cl81	Cl	-0.378969	-0.288449	0.572071
H82	H	-0.221038	-0.759437	0.334424
Cl83	Cl	-0.455908	-0.922822	1.190952
Cl84	Cl	-0.379020	-0.436833	0.572019
Cl85	Cl	-0.540443	-1.184802	0.605032
Cl86	Cl	-0.719381	-1.219500	0.641308
H87	H	-0.983652	-1.055770	0.469960
Cl88	Cl	-0.960058	-1.108684	0.525014
Cl89	Cl	-0.585141	-0.975055	0.385565
Cl90	Cl	-0.621950	-0.946241	0.355427
H91	H	-0.746940	-0.882707	0.288904
H92	H	-0.875762	-0.859300	0.264383
Cl93	Cl	-1.041538	-0.870011	0.275559
H94	H	-0.320872	-1.008644	0.748000
H95	H	-0.467033	-0.915714	1.025154
Cl96	Cl	-0.376076	-0.973580	0.771522
Cl97	Cl	-0.467593	-0.915371	0.883161
Cl98	Cl	-0.236670	-1.062238	1.146706
Cl99	Cl	-0.379083	-0.689282	0.571940
Cl100	Cl	-0.379127	-0.837666	0.571894
Cl101	Cl	-0.115025	-1.139584	0.998323
H102	H	-0.213653	-1.076871	1.074830
Cl103	Cl	-0.090514	-1.155171	0.869548
H104	H	-0.221018	-0.640169	0.334462
Cl105	Cl	-0.126702	-1.132142	0.690521
