data_functionalizedCrystal
_audit_creation_method	'MofGen! by Chris Wilmer'
_symmetry_space_group_name_H-M	'P1'
_symmetry_Int_Tables_number	1
_symmetry_cell_setting	triclinic
loop_
_symmetry_equiv_pos_as_xyz
  x,y,z
_cell_length_a	14.908783
_cell_length_b	19.120786
_cell_length_c	14.908308
_cell_angle_alpha	90.683525
_cell_angle_beta	89.788727
_cell_angle_gamma	95.607498
loop_
_atom_site_label
_atom_site_type_symbol
_atom_site_fract_x
_atom_site_fract_y
_atom_site_fract_z
Zn1	Zn	1.332649	-0.245599	-0.573621
Zn2	Zn	1.335542	-0.355895	-0.416880
Zn3	Zn	1.191002	-0.244839	-0.414636
Zn4	Zn	1.175874	-0.369341	-0.557724
O5	O	1.258767	-0.303918	-0.490715
O6	O	1.459135	-0.254921	-0.560421
O7	O	1.323910	-0.335218	-0.291103
O8	O	1.214912	-0.146676	-0.441440
O9	O	1.461260	-0.335954	-0.445264
O10	O	1.318980	-0.147234	-0.558245
O11	O	1.217717	-0.253625	-0.289455
O12	O	1.062894	-0.266663	-0.426025
O13	O	1.189129	-0.358871	-0.685312
O14	O	1.051779	-0.358134	-0.531151
O15	O	1.304311	-0.267959	-0.696991
O16	O	1.309241	-0.455942	-0.429849
O17	O	1.191934	-0.465820	-0.533326
C18	C	1.024640	-0.313776	-0.476620
C19	C	0.924477	-0.318011	-0.470610
C20	C	0.734028	-0.241720	-0.579398
C21	C	0.639917	-0.245697	-0.573755
C22	C	0.642140	-0.329938	-0.453676
C23	C	0.736252	-0.325961	-0.459319
C24	C	0.782193	-0.281851	-0.522184
C25	C	0.876306	-0.277879	-0.527831
C26	C	0.878528	-0.362115	-0.407748
C27	C	0.784416	-0.366092	-0.402105
C28	C	1.249283	-0.486360	-0.480127
C29	C	1.245307	-0.564407	-0.475633
C30	C	1.297576	-0.601308	-0.534379
C31	C	1.293836	-0.674642	-0.530158
C32	C	1.237831	-0.711073	-0.467184
C33	C	1.185557	-0.674167	-0.408435
C34	C	1.189292	-0.600835	-0.412662
C35	C	1.223839	-0.932477	-0.451381
C36	C	1.220109	-1.005814	-0.447157
C37	C	1.328387	-1.006284	-0.568882
C38	C	1.332122	-0.932950	-0.573099
C39	C	1.279844	-0.896051	-0.514353
C40	C	1.234009	-0.786031	-0.462865
C41	C	1.283662	-0.821094	-0.518677
C42	C	1.493808	-0.294022	-0.504866
C43	C	1.593969	-0.289805	-0.510896
C44	C	1.244710	-0.315000	-0.724597
C45	C	1.238720	-0.319722	-0.824263
C46	C	1.268311	-0.120764	-0.501366
C47	C	1.272378	-0.042715	-0.505904
C48	C	1.347401	-0.233912	-1.023711
C49	C	1.341776	-0.238346	-1.117357
C50	C	1.221840	-0.333021	-1.105202
C51	C	1.227465	-0.328587	-1.011556
C52	C	1.290249	-0.279031	-0.970814
C53	C	1.295878	-0.274600	-0.877167
C54	C	1.175939	-0.369272	-0.865014
C55	C	1.170313	-0.373706	-0.958659
C56	C	1.272823	-0.292827	-0.257750
C57	C	1.278998	-0.287900	-0.158106
H58	H	0.746998	-0.402003	-0.350920
H59	H	1.377725	-0.903289	-0.624377
H60	H	1.129403	-0.406013	-0.821935
H61	H	1.170725	-0.373366	-1.138391
H62	H	1.336406	-0.704683	-0.577989
F63	F	1.133660	-0.561562	-0.350136
H64	H	1.398526	-0.193565	-0.990539
H65	H	0.917752	-0.394799	-0.361166
F66	F	1.125944	-0.712942	-0.341421
H67	H	1.119195	-0.414051	-0.991844
F68	F	0.782923	-0.194783	-0.646309
F69	F	0.925198	-0.230936	-0.594738
F70	F	0.588660	-0.202983	-0.634649
F71	F	1.384019	-1.045560	-0.631401
H72	H	1.388313	-0.201604	-1.160422
H73	H	0.604719	-0.365841	-0.402485
H74	H	1.329257	-0.791430	-0.569953
H75	H	1.188413	-0.815702	-0.411590
F76	F	1.362699	-0.221862	-0.833808
H77	H	1.174499	-1.035474	-0.395876
F78	F	1.357189	-0.562541	-0.601401
F79	F	1.168192	-0.893216	-0.388864
