data_functionalizedCrystal
_audit_creation_method	'MofGen! by Chris Wilmer'
_symmetry_space_group_name_H-M	'P1'
_symmetry_Int_Tables_number	1
_symmetry_cell_setting	triclinic
loop_
_symmetry_equiv_pos_as_xyz
  x,y,z
_cell_length_a	26.809956
_cell_length_b	16.109301
_cell_length_c	16.109301
_cell_angle_alpha	83.461481
_cell_angle_beta	90.002919
_cell_angle_gamma	89.993893
loop_
_atom_site_label
_atom_site_type_symbol
_atom_site_fract_x
_atom_site_fract_y
_atom_site_fract_z
O1	O	0.041450	-1.103138	-0.106855
O2	O	0.041458	-0.861076	-0.120155
O3	O	0.041448	-0.988757	0.007526
O4	O	0.041459	-0.975458	-0.234536
O5	O	-0.041511	-0.988733	0.007506
O6	O	-0.041501	-0.861052	-0.120174
O7	O	-0.041510	-1.103114	-0.106875
Zn8	Zn	-0.054677	-0.982079	-0.113528
Zn9	Zn	0.054625	-0.982111	-0.113502
O10	O	-0.041500	-0.975434	-0.234556
C11	C	-0.000021	-0.830090	-0.119626
C12	C	-0.000018	-0.737794	-0.118011
N13	N	-0.129273	-0.982064	-0.113545
C14	C	-0.000031	-0.988206	0.038491
C15	C	-0.000032	-0.986591	0.130786
C16	C	-0.473903	-1.038641	-0.056979
C17	C	-0.682781	-1.038661	-0.056966
O18	O	-0.709788	-1.086731	-0.008877
N19	N	-0.708900	-0.982116	-0.113484
C20	C	-0.682797	-0.925558	-0.170005
O21	O	-0.709806	-0.877458	-0.218070
C22	C	-0.473920	-0.925535	-0.170013
C23	C	-0.447804	-0.982089	-0.113497
C24	C	-0.447787	-1.095190	-0.000468
C25	C	-0.395570	-1.095188	-0.000474
C26	C	-0.369471	-1.038636	-0.056993
C27	C	-0.395587	-0.982087	-0.113504
C28	C	-0.447818	-0.868974	-0.226529
C29	C	-0.395595	-0.868972	-0.226524
C30	C	-0.369479	-0.925526	-0.170009
C31	C	-0.317271	-0.925533	-0.170029
N32	N	-0.291152	-0.982078	-0.113512
C33	C	-0.317252	-1.038630	-0.056993
C34	C	-0.792460	-0.925575	-0.169997
C35	C	-0.844679	-0.925582	-0.169997
C36	C	-0.844660	-1.038684	-0.056957
C37	C	-0.792440	-1.038680	-0.056963
C38	C	-0.766341	-0.982120	-0.113480
C39	C	-0.207594	-1.038621	-0.057012
C40	C	-0.155373	-1.038615	-0.057026
C41	C	-0.155397	-0.925511	-0.170063
C42	C	-0.207613	-0.925519	-0.170052
C43	C	-0.233710	-0.982077	-0.113520
O44	O	-0.290232	-0.877482	-0.218087
O45	O	-0.290234	-1.086710	-0.008923
C46	C	-0.526120	-1.038643	-0.056972
C47	C	-0.552236	-0.982094	-0.113484
C48	C	-0.526136	-0.925543	-0.170002
C49	C	-0.604455	-0.982101	-0.113483
C50	C	-0.630555	-1.038652	-0.056965
C51	C	-0.604436	-1.095197	-0.000447
C52	C	-0.552219	-1.095195	-0.000454
C53	C	-0.552256	-0.868998	-0.226519
C54	C	-0.604472	-0.869006	-0.226508
C55	C	-0.630572	-0.925557	-0.169990
N56	N	0.129221	-0.982133	-0.113478
C57	C	-0.000030	-1.134101	-0.107404
C58	C	-0.000030	-1.226397	-0.109019
C59	C	-0.000021	-0.515522	-0.190018
C60	C	-0.000024	-0.428801	-0.188494
C61	C	-0.000028	-0.448676	-0.037006
C62	C	-0.000029	-0.535394	-0.038530
C63	C	-0.000022	-0.568815	-0.115039
C64	C	-0.000025	-0.395376	-0.111990
C65	C	-0.000029	-0.301350	-0.110337
C66	C	-0.000020	-0.662847	-0.116693
C67	C	-0.000019	-0.975984	-0.265521
C68	C	-0.000015	-0.977600	-0.357816
C69	C	-0.000027	-1.058599	0.353059
C70	C	-0.000022	-1.057075	0.439779
C71	C	-0.000019	-0.905586	0.419905
C72	C	-0.000020	-0.907111	0.333186
C73	C	-0.000026	-0.983620	0.299766
C74	C	-0.000021	-0.980571	0.473205
C75	C	-0.000017	-0.978918	0.567231
C76	C	-0.000030	-0.985273	0.205734
H77	H	-0.228836	-1.084674	-0.010978
O78	O	-0.629761	-0.813985	-0.281444
C79	C	-0.595521	-0.764088	-0.331338
H80	H	-0.558295	-0.763170	-0.297251
H81	H	-0.610609	-0.697687	-0.343993
H82	H	-0.589970	-0.791055	-0.393114
O83	O	0.000037	-0.416306	0.037362
C84	C	0.043008	-0.443536	0.083064
H85	H	0.057331	-0.503678	0.060423
H86	H	0.033345	-0.455589	0.152302
H87	H	0.073096	-0.393360	0.073424
O88	O	-0.629740	-1.150094	0.054572
C89	C	-0.616989	-1.136586	0.136878
H90	H	-0.579074	-1.104549	0.136786
H91	H	-0.615203	-1.199087	0.177811
H92	H	-0.646377	-1.095201	0.162594
H93	H	-0.000018	-0.846050	0.289792
O94	O	0.000038	-0.587253	0.034254
C95	C	0.043008	-0.638005	0.037919
H96	H	0.057334	-0.642369	-0.028070
H97	H	0.033344	-0.703190	0.068899
H98	H	0.073094	-0.609497	0.075892
H99	H	-0.771214	-0.879516	-0.216023
O100	O	-0.000083	-0.831217	0.452272
C101	C	-0.043054	-0.785509	0.425047
H102	H	-0.057378	-0.808152	0.364908
H103	H	-0.033389	-0.716273	0.412988
H104	H	-0.073140	-0.795142	0.475227
H105	H	-0.000023	-0.385413	-0.249550
O106	O	-0.000004	-1.132989	0.320731
C107	C	-0.000015	-1.198839	0.386369
H108	H	0.015690	-1.175547	0.445273
H109	H	0.024073	-1.252257	0.368268
H110	H	-0.039814	-1.221963	0.398644
O111	O	-0.370282	-1.150150	0.054512
C112	C	-0.404525	-1.200069	0.104379
H113	H	-0.441750	-1.165981	0.105318
H114	H	-0.389439	-1.212769	0.170776
H115	H	-0.410074	-1.261822	0.077368
O116	O	0.000065	-1.129888	0.491581
C117	C	0.043026	-1.133543	0.542352
H118	H	0.073056	-1.091027	0.510581
H119	H	0.057446	-1.200520	0.552121
H120	H	0.033315	-1.112039	0.605406
O121	O	-0.233043	-0.870555	-0.224838
C122	C	-0.263235	-0.819267	-0.180285
H123	H	-0.271048	-0.852402	-0.115235
H124	H	-0.299961	-0.806102	-0.214973
H125	H	-0.243112	-0.757827	-0.174621
H126	H	-0.469033	-1.141241	0.045560
O127	O	-0.473202	-0.814147	-0.281505
C128	C	-0.503418	-0.858636	-0.332810
H129	H	-0.487682	-0.924201	-0.334246
H130	H	-0.504012	-0.824684	-0.398879
H131	H	-0.542994	-0.862999	-0.306793
H132	H	-0.134110	-1.084672	-0.011005
O133	O	-0.526883	-0.813986	-0.281315
C134	C	-0.496665	-0.762714	-0.236793
H135	H	-0.512391	-0.761322	-0.171219
H136	H	-0.496083	-0.696627	-0.270704
H137	H	-0.457086	-0.788730	-0.232454
H138	H	-0.865919	-1.084731	-0.010939
O139	O	-0.767150	-1.093644	-0.001980
C140	C	-0.801390	-1.143571	0.047884
H141	H	-0.838616	-1.109487	0.048827
H142	H	-0.786304	-1.156276	0.114280
H143	H	-0.806938	-1.205321	0.020867
O144	O	0.000048	-0.547888	-0.264388
C145	C	0.043020	-0.520675	-0.310079
H146	H	0.057344	-0.460541	-0.287430
H147	H	0.033357	-0.508613	-0.379319
H148	H	0.073106	-0.570865	-0.300436
O149	O	-0.870023	-0.870536	-0.224819
C150	C	-0.857257	-0.788245	-0.211287
H151	H	-0.842903	-0.787864	-0.144719
H152	H	-0.891601	-0.746516	-0.220839
H153	H	-0.826948	-0.763812	-0.257359
O154	O	-0.370321	-0.813999	-0.281510
C155	C	-0.404574	-0.764076	-0.331371
H156	H	-0.441794	-0.798165	-0.332314
H157	H	-0.389495	-0.751366	-0.397768
H158	H	-0.410131	-0.702328	-0.304351
H159	H	-0.530959	-1.141247	0.045566
O160	O	-0.129961	-0.870608	-0.224879
C161	C	-0.078272	-0.882750	-0.212769
H162	H	-0.071140	-0.913854	-0.146680
H163	H	-0.058429	-0.819789	-0.221986
H164	H	-0.063450	-0.924425	-0.259847
