data_functionalizedCrystal
_audit_creation_method	'MofGen! by Chris Wilmer'
_symmetry_space_group_name_H-M	'P1'
_symmetry_Int_Tables_number	1
_symmetry_cell_setting	triclinic
loop_
_symmetry_equiv_pos_as_xyz
  x,y,z
_cell_length_a	14.519709
_cell_length_b	8.559649
_cell_length_c	13.596369
_cell_angle_alpha	89.995606
_cell_angle_beta	90.000816
_cell_angle_gamma	76.729405
loop_
_atom_site_label
_atom_site_type_symbol
_atom_site_fract_x
_atom_site_fract_y
_atom_site_fract_z
O1	O	-1.208837	-0.209416	0.081648
O2	O	-0.708837	0.290584	0.581648
O3	O	-0.938590	-0.234077	0.081681
O4	O	-0.438590	0.265923	0.581681
O5	O	-1.097523	0.010787	0.081661
O6	O	-0.597523	0.510787	0.581661
O7	O	-1.049905	-0.454280	0.081668
O8	O	-0.549905	0.045720	0.581668
O9	O	-1.097509	0.010800	-0.081922
O10	O	-0.597509	0.510800	0.418078
O11	O	-0.938577	-0.234064	-0.081902
O12	O	-0.438577	0.265936	0.418098
O13	O	-1.208824	-0.209403	-0.081935
O14	O	-0.708824	0.290597	0.418065
Zn15	Zn	-1.073698	-0.221731	-0.107891
Zn16	Zn	-0.573698	0.278269	0.392109
Zn17	Zn	-1.073716	-0.221749	0.107637
Zn18	Zn	-0.573716	0.278251	0.607637
O19	O	-1.049891	-0.454267	-0.081915
O20	O	-0.549891	0.045733	0.418085
C21	C	-0.904306	-0.232921	-0.000107
C22	C	-0.404306	0.267079	0.499893
C23	C	-0.802172	-0.229477	-0.000094
C24	C	-0.302172	0.270523	0.499906
C25	C	-0.428186	-0.216798	-0.000136
C26	C	0.071814	0.283202	0.499864
C27	C	-0.532242	-0.220319	-0.000124
C28	C	-0.032242	0.279681	0.499876
C29	C	-0.615176	-0.223137	-0.000114
C30	C	-0.115176	0.276863	0.499886
C31	C	-0.719238	-0.226659	-0.000104
C32	C	-0.219238	0.273341	0.499896
C33	C	-0.243108	-0.210559	-0.000143
C34	C	0.256892	0.289441	0.499857
C35	C	-0.345242	-0.214003	-0.000141
C36	C	0.154758	0.285997	0.499859
C37	C	-1.101125	0.070313	-0.000130
C38	C	-0.601125	0.570313	0.499870
C39	C	-1.111866	0.247663	-0.000125
C40	C	-0.611866	0.747663	0.499875
N41	N	-1.073693	-0.221719	-0.254983
N42	N	-0.573693	0.278281	0.245017
C43	C	-1.046289	-0.513793	-0.000122
C44	C	-0.546289	-0.013793	0.499878
C45	C	-1.035548	-0.691143	-0.000120
C46	C	-0.535548	-0.191143	0.499880
C47	C	-1.073714	-0.221750	-0.656274
C48	C	-0.573714	0.278250	-0.156274
C49	C	-1.073705	-0.221747	-0.544622
C50	C	-0.573705	0.278253	-0.044622
C51	C	-1.073704	-0.221736	-0.455632
C52	C	-0.573704	0.278264	0.044368
C53	C	-1.073694	-0.221730	-0.343973
C54	C	-0.573694	0.278270	0.156027
N55	N	-1.073729	-0.221749	0.254729
N56	N	-0.573729	0.278251	0.754729
H57	H	-0.961991	0.225570	-0.000115
H58	H	-0.461991	0.725570	0.499885
N59	N	-1.204159	0.352118	-0.000152
N60	N	-0.704159	0.852118	0.499848
N61	N	-1.260190	0.346206	-0.069112
N62	N	-0.760190	0.846206	0.430888
H63	H	-1.325373	0.419975	-0.069132
H64	H	-0.825373	0.919975	0.430868
