data_functionalizedCrystal
_audit_creation_method	'MofGen! by Chris Wilmer'
_symmetry_space_group_name_H-M	'P1'
_symmetry_Int_Tables_number	1
_symmetry_cell_setting	triclinic
loop_
_symmetry_equiv_pos_as_xyz
  x,y,z
_cell_length_a	25.639242
_cell_length_b	18.050589
_cell_length_c	18.050582
_cell_angle_alpha	90.018712
_cell_angle_beta	89.975426
_cell_angle_gamma	89.969774
loop_
_atom_site_label
_atom_site_type_symbol
_atom_site_fract_x
_atom_site_fract_y
_atom_site_fract_z
Zn1	Zn	0.799252	0.295790	-0.420110
Zn2	Zn	1.049252	0.545790	-0.170110
Zn3	Zn	1.299252	0.795790	0.079890
Zn4	Zn	1.549252	1.045790	0.329890
Zn5	Zn	0.799178	0.419975	-0.295929
Zn6	Zn	1.049178	0.669975	-0.045929
Zn7	Zn	1.299178	0.919975	0.204071
Zn8	Zn	1.549178	1.169975	0.454071
Zn9	Zn	0.711825	0.295793	-0.295915
Zn10	Zn	0.961825	0.545793	-0.045915
Zn11	Zn	1.211825	0.795793	0.204085
Zn12	Zn	1.461825	1.045793	0.454085
Zn13	Zn	0.711779	0.419933	-0.420059
Zn14	Zn	0.961779	0.669933	-0.170059
Zn15	Zn	1.211779	0.919933	0.079941
Zn16	Zn	1.461779	1.169933	0.329941
O17	O	0.755509	0.357873	-0.358003
O18	O	1.005509	0.607873	-0.108003
O19	O	1.255509	0.857873	0.141997
O20	O	1.505509	1.107873	0.391997
O21	O	0.872407	0.312279	-0.403664
O22	O	1.122407	0.562279	-0.153664
O23	O	1.372407	0.812279	0.096336
O24	O	1.622407	1.062279	0.346336
O25	O	0.787578	0.403521	-0.192003
O26	O	1.037578	0.653521	0.057997
O27	O	1.287578	0.903521	0.307997
O28	O	1.537578	1.153521	0.557997
O29	O	0.723472	0.191868	-0.312404
O30	O	0.973472	0.441868	-0.062404
O31	O	1.223472	0.691868	0.187596
O32	O	1.473472	0.941868	0.437596
O33	O	0.872353	0.403518	-0.312430
O34	O	1.122353	0.653518	-0.062430
O35	O	1.372353	0.903518	0.187570
O36	O	1.622353	1.153518	0.437570
O37	O	0.787704	0.191866	-0.403650
O38	O	1.037704	0.441866	-0.153650
O39	O	1.287704	0.691866	0.096350
O40	O	1.537704	0.941866	0.346350
O41	O	0.723400	0.312285	-0.191992
O42	O	0.973400	0.562285	0.058008
O43	O	1.223400	0.812285	0.308008
O44	O	1.473400	1.062285	0.558008
O45	O	0.638653	0.312245	-0.312355
O46	O	0.888653	0.562245	-0.062355
O47	O	1.138653	0.812245	0.187645
O48	O	1.388653	1.062245	0.437645
O49	O	0.723395	0.403446	-0.523990
O50	O	0.973395	0.653446	-0.273990
O51	O	1.223395	0.903446	-0.023990
O52	O	1.473395	1.153446	0.226010
O53	O	0.638620	0.403450	-0.403564
O54	O	0.888620	0.653450	-0.153564
O55	O	1.138620	0.903450	0.096436
O56	O	1.388620	1.153450	0.346436
O57	O	0.787661	0.312239	-0.524028
O58	O	1.037661	0.562239	-0.274028
O59	O	1.287661	0.812239	-0.024028
O60	O	1.537661	1.062239	0.225972
O61	O	0.787534	0.523894	-0.312380
O62	O	1.037534	0.773894	-0.062380
O63	O	1.287534	1.023894	0.187620
O64	O	1.537534	1.273894	0.437620
O65	O	0.723323	0.523863	-0.403578
O66	O	0.973323	0.773863	-0.153578
O67	O	1.223323	1.023863	0.096422
O68	O	1.473323	1.273863	0.346422
C69	C	0.619666	0.357844	-0.357953
C70	C	0.869666	0.607844	-0.107953
C71	C	1.119666	0.857844	0.142047
C72	C	1.369666	1.107844	0.392047
C73	C	0.561552	0.357849	-0.357949
C74	C	0.811552	0.607849	-0.107949
C75	C	1.061552	0.857849	0.142051
C76	C	1.311552	1.107849	0.392051
C77	C	0.201180	0.405443	-0.405450
C78	C	0.451180	0.655443	-0.155450
C79	C	0.701180	0.905443	0.094550
C80	C	0.951180	1.155443	0.344550
C81	C	0.146576	0.405447	-0.405462
C82	C	0.396576	0.655447	-0.155462
C83	C	0.646576	0.905447	0.094538
C84	C	0.896576	1.155447	0.344538
O85	O	0.118332	0.445877	-0.445807
O86	O	0.368332	0.695877	-0.195807
O87	O	0.618332	0.945877	0.054193
O88	O	0.868332	1.195877	0.304193
N89	N	0.119269	0.357893	-0.358052
N90	N	0.369269	0.607893	-0.108052
N91	N	0.619269	0.857893	0.141948
N92	N	0.869269	1.107893	0.391948
C93	C	0.146570	0.310327	-0.310632
C94	C	0.396570	0.560327	-0.060632
C95	C	0.646570	0.810327	0.189368
C96	C	0.896570	1.060327	0.439368
O97	O	0.118329	0.269878	-0.270307
O98	O	0.368329	0.519878	-0.020307
O99	O	0.618329	0.769878	0.229693
O100	O	0.868329	1.019878	0.479693
C101	C	0.201173	0.310319	-0.310624
C102	C	0.451173	0.560319	-0.060624
C103	C	0.701173	0.810319	0.189376
C104	C	0.951173	1.060319	0.439376
C105	C	0.228477	0.357881	-0.358033
C106	C	0.478477	0.607881	-0.108033
C107	C	0.728477	0.857881	0.141967
C108	C	0.978477	1.107881	0.391967
C109	C	0.228484	0.453000	-0.452855
C110	C	0.478484	0.703000	-0.202855
C111	C	0.728484	0.953000	0.047145
C112	C	0.978484	1.203000	0.297145
C113	C	0.283085	0.452997	-0.452842
C114	C	0.533085	0.702997	-0.202842
C115	C	0.783085	0.952997	0.047158
C116	C	1.033085	1.202997	0.297158
C117	C	0.310382	0.405435	-0.405425
C118	C	0.560382	0.655435	-0.155425
C119	C	0.810382	0.905435	0.094575
C120	C	1.060382	1.155435	0.344575
C121	C	0.283078	0.357877	-0.358020
C122	C	0.533078	0.607877	-0.108020
C123	C	0.783078	0.857877	0.141980
C124	C	1.033078	1.107877	0.391980
C125	C	0.228473	0.262749	-0.263209
C126	C	0.478473	0.512749	-0.013209
C127	C	0.728473	0.762749	0.236791
C128	C	0.978473	1.012749	0.486791
C129	C	0.283080	0.262745	-0.263206
C130	C	0.533080	0.512745	-0.013206
C131	C	0.783080	0.762745	0.236794
C132	C	1.033080	1.012745	0.486794
C133	C	0.310384	0.310307	-0.310614
C134	C	0.560384	0.560307	-0.060614
C135	C	0.810384	0.810307	0.189386
C136	C	1.060384	1.060307	0.439386
C137	C	0.364975	0.310312	-0.310589
C138	C	0.614975	0.560312	-0.060589
C139	C	0.864975	0.810312	0.189411
C140	C	1.114975	1.060312	0.439411
N141	N	0.392281	0.357866	-0.357999
N142	N	0.642281	0.607866	-0.107999
N143	N	0.892281	0.857866	0.142001
N144	N	1.142281	1.107866	0.392001
C145	C	0.364985	0.405427	-0.405417
C146	C	0.614985	0.655427	-0.155417
C147	C	0.864985	0.905427	0.094583
C148	C	1.114985	1.155427	0.344583
C149	C	0.031899	0.310345	-0.310652
C150	C	0.281899	0.560345	-0.060652
C151	C	0.531899	0.810345	0.189348
C152	C	0.781899	1.060345	0.439348
C153	C	-0.022703	0.310356	-0.310655
C154	C	0.227297	0.560356	-0.060655
C155	C	0.477297	0.810356	0.189345
C156	C	0.727297	1.060356	0.439345
C157	C	-0.022693	0.405476	-0.405486
C158	C	0.227307	0.655476	-0.155486
C159	C	0.477307	0.905476	0.094514
C160	C	0.727307	1.155476	0.344514
C161	C	0.031910	0.405468	-0.405479
C162	C	0.281910	0.655468	-0.155479
C163	C	0.531910	0.905468	0.094521
C164	C	0.781910	1.155468	0.344521
C165	C	0.059206	0.357899	-0.358062
C166	C	0.309206	0.607899	-0.108062
C167	C	0.559206	0.857899	0.141938
C168	C	0.809206	1.107899	0.391938
C169	C	0.479650	0.405416	-0.405386
C170	C	0.729650	0.655416	-0.155386
C171	C	0.979650	0.905416	0.094614
C172	C	1.229650	1.155416	0.344614
C173	C	0.534255	0.405410	-0.405367
C174	C	0.784255	0.655410	-0.155367
C175	C	1.034255	0.905410	0.094633
C176	C	1.284255	1.155410	0.344633
C177	C	0.534240	0.310288	-0.310538
C178	C	0.784240	0.560288	-0.060538
C179	C	1.034240	0.810288	0.189462
C180	C	1.284240	1.060288	0.439462
C181	C	0.479640	0.310297	-0.310555
C182	C	0.729640	0.560297	-0.060555
C183	C	0.979640	0.810297	0.189445
C184	C	1.229640	1.060297	0.439445
C185	C	0.452346	0.357863	-0.357984
C186	C	0.702346	0.607863	-0.107984
C187	C	0.952346	0.857863	0.142016
C188	C	1.202346	1.107863	0.392016
O189	O	0.393253	0.269901	-0.270267
O190	O	0.643253	0.519901	-0.020267
O191	O	0.893253	0.769901	0.229733
O192	O	1.143253	1.019901	0.479733
O193	O	0.393232	0.445862	-0.445742
O194	O	0.643232	0.695862	-0.195742
O195	O	0.893232	0.945862	0.054258
O196	O	1.143232	1.195862	0.304258
C197	C	0.755430	0.550825	-0.357992
C198	C	1.005430	0.800825	-0.107992
C199	C	1.255430	1.050825	0.142008
C200	C	1.505430	1.300825	0.392008
C201	C	0.755444	0.633371	-0.358011
C202	C	1.005444	0.883371	-0.108011
C203	C	1.255444	1.133371	0.141989
C204	C	1.505444	1.383371	0.391989
C205	C	0.720545	0.832832	-0.407588
C206	C	0.970545	1.082832	-0.157588
C207	C	1.220545	1.332832	0.092412
C208	C	1.470545	1.582832	0.342412
C209	C	0.707799	0.882265	-0.339818
C210	C	0.957799	1.132265	-0.089818
C211	C	1.207799	1.382265	0.160182
C212	C	1.457799	1.632265	0.410182
C213	C	0.755484	0.784501	-0.358022
C214	C	1.005484	1.034501	-0.108022
C215	C	1.255484	1.284501	0.141978
C216	C	1.505484	1.534501	0.391978
C217	C	0.768244	0.882149	-0.425800
C218	C	1.018244	1.132149	-0.175800
C219	C	1.268244	1.382149	0.074200
C220	C	1.518244	1.632149	0.324200
C221	C	0.755521	0.930486	-0.358037
C222	C	1.005521	1.180486	-0.108037
C223	C	1.255521	1.430486	0.141963
C224	C	1.505521	1.680486	0.391963
C225	C	0.742713	0.832847	-0.290216
C226	C	0.992713	1.082847	-0.040216
C227	C	1.242713	1.332847	0.209784
C228	C	1.492713	1.582847	0.459784
C229	C	0.803180	0.832727	-0.376243
C230	C	1.053180	1.082727	-0.126243
C231	C	1.303180	1.332727	0.123757
C232	C	1.553180	1.582727	0.373757
C233	C	0.790452	0.882138	-0.308427
C234	C	1.040452	1.132138	-0.058427
C235	C	1.290452	1.382138	0.191573
C236	C	1.540452	1.632138	0.441573
C237	C	0.755461	0.700403	-0.358013
C238	C	1.005461	0.950403	-0.108013
C239	C	1.255461	1.200403	0.141987
C240	C	1.505461	1.450403	0.391987
C241	C	0.755543	1.014583	-0.358038
C242	C	1.005543	1.264583	-0.108038
C243	C	1.255543	1.514583	0.141962
C244	C	1.505543	1.764583	0.391962
C245	C	0.891881	0.357903	-0.358054
C246	C	1.141881	0.607903	-0.108054
C247	C	1.391881	0.857903	0.141946
C248	C	1.641881	1.107903	0.391946
C249	C	0.949996	0.357916	-0.358076
C250	C	1.199996	0.607916	-0.108076
C251	C	1.449996	0.857916	0.141924
C252	C	1.699996	1.107916	0.391924
C253	C	0.755531	0.357838	-0.551709
C254	C	1.005531	0.607838	-0.301709
C255	C	1.255531	0.857838	-0.051709
C256	C	1.505531	1.107838	0.198291
C257	C	0.755541	0.357822	-0.634255
C258	C	1.005541	0.607822	-0.384255
C259	C	1.255541	0.857822	-0.134255
C260	C	1.505541	1.107822	0.115745
C261	C	0.755582	1.164167	-0.358032
C262	C	1.005582	1.414167	-0.108032
C263	C	1.255582	1.664167	0.141968
C264	C	1.505582	1.914167	0.391968
C265	C	0.755562	1.081621	-0.358047
C266	C	1.005562	1.331621	-0.108047
C267	C	1.255562	1.581621	0.141953
C268	C	1.505562	1.831621	0.391953
C269	C	0.720626	0.407340	-0.883060
C270	C	0.970626	0.657340	-0.633060
C271	C	1.220626	0.907340	-0.383060
C272	C	1.470626	1.157340	-0.133060
C273	C	0.707860	0.339601	-0.833664
C274	C	0.957860	0.589601	-0.583664
C275	C	1.207860	0.839601	-0.333664
C276	C	1.457860	1.089601	-0.083664
C277	C	0.755585	0.357713	-0.931375
C278	C	1.005585	0.607713	-0.681375
C279	C	1.255585	0.857713	-0.431375
C280	C	1.505585	1.107713	-0.181375
C281	C	0.768304	0.425502	-0.833689
C282	C	1.018304	0.675502	-0.583689
C283	C	1.268304	0.925502	-0.333689
C284	C	1.518304	1.175502	-0.083689
C285	C	0.755562	0.357771	-0.785390
C286	C	1.005562	0.607771	-0.535390
C287	C	1.255562	0.857771	-0.285390
C288	C	1.505562	1.107771	-0.035390
C289	C	0.742795	0.289938	-0.883067
C290	C	0.992795	0.539938	-0.633067
C291	C	1.242795	0.789938	-0.383067
C292	C	1.492795	1.039938	-0.133067
C293	C	0.803261	0.375885	-0.883096
C294	C	1.053261	0.625885	-0.633096
C295	C	1.303261	0.875885	-0.383096
C296	C	1.553261	1.125885	-0.133096
C297	C	0.790513	0.308099	-0.833722
C298	C	1.040513	0.558099	-0.583722
C299	C	1.290513	0.808099	-0.333722
C300	C	1.540513	1.058099	-0.083722
C301	C	0.755597	0.357681	-1.015474
C302	C	1.005597	0.607681	-0.765474
C303	C	1.255597	0.857681	-0.515474
C304	C	1.505597	1.107681	-0.265474
C305	C	0.755550	0.357795	-0.701293
C306	C	1.005550	0.607795	-0.451293
C307	C	1.255550	0.857795	-0.201293
C308	C	1.505550	1.107795	0.048707
C309	C	0.755516	0.357854	-0.165051
C310	C	1.005516	0.607854	0.084949
C311	C	1.255516	0.857854	0.334949
C312	C	1.505516	1.107854	0.584949
C313	C	0.755608	0.357660	-0.082506
C314	C	1.005608	0.607660	0.167494
C315	C	1.255608	0.857660	0.417494
C316	C	1.505608	1.107660	0.667494
H317	H	0.206265	0.491731	-0.491473
H318	H	0.456265	0.741731	-0.241473
H319	H	0.706265	0.991731	0.008527
H320	H	0.956265	1.241731	0.258527
N321	N	-0.052150	0.259064	-0.259516
N322	N	0.197850	0.509064	-0.009516
N323	N	0.447850	0.759064	0.240484
N324	N	0.697850	1.009064	0.490484
H325	H	-0.074827	0.289199	-0.225052
H326	H	0.175173	0.539199	0.024948
H327	H	0.425173	0.789199	0.274948
H328	H	0.675173	1.039199	0.524948
H329	H	-0.026534	0.228948	-0.229527
H330	H	0.223466	0.478948	0.020473
H331	H	0.473466	0.728948	0.270473
H332	H	0.723466	0.978948	0.520473
N333	N	0.563704	0.456715	-0.456498
N334	N	0.813704	0.706715	-0.206498
N335	N	1.063704	0.956715	0.043502
N336	N	1.313704	1.206715	0.293502
H337	H	0.538123	0.486843	-0.486539
H338	H	0.788123	0.736843	-0.236539
H339	H	1.038123	0.986843	0.013461
H340	H	1.288123	1.236843	0.263461
H341	H	0.586385	0.426533	-0.490914
H342	H	0.836385	0.676533	-0.240914
H343	H	1.086385	0.926533	0.009086
H344	H	1.336385	1.176533	0.259086
H345	H	0.305301	0.224003	-0.224597
H346	H	0.555301	0.474003	0.025403
H347	H	0.805301	0.724003	0.275403
H348	H	1.055301	0.974003	0.525403
H349	H	0.305311	0.491725	-0.491449
H350	H	0.555311	0.741725	-0.241449
H351	H	0.805311	0.991725	0.008551
H352	H	1.055311	1.241725	0.258551
H353	H	0.457434	0.444148	-0.444010
H354	H	0.707434	0.694148	-0.194010
H355	H	0.957434	0.944148	0.055990
H356	H	1.207434	1.194148	0.305990
N357	N	0.654391	0.911088	-0.319412
N358	N	0.904391	1.161088	-0.069412
N359	N	1.154391	1.411088	0.180588
N360	N	1.404391	1.661088	0.430588
H361	H	0.654886	0.967036	-0.319097
H362	H	0.904886	1.217036	-0.069097
H363	H	1.154886	1.467036	0.180903
H364	H	1.404886	1.717036	0.430903
H365	H	0.644523	0.892329	-0.268599
H366	H	0.894523	1.142329	-0.018599
H367	H	1.144523	1.392329	0.231401
H368	H	1.394523	1.642329	0.481401
H369	H	0.731888	0.811280	-0.232887
H370	H	0.981888	1.061280	0.017113
H371	H	1.231888	1.311280	0.267113
H372	H	1.481888	1.561280	0.517113
N373	N	0.450187	0.259008	-0.259414
N374	N	0.700187	0.509008	-0.009414
N375	N	0.950187	0.759008	0.240586
N376	N	1.200187	1.009008	0.490586
H377	H	0.475767	0.228881	-0.229371
H378	H	0.725767	0.478881	0.020629
H379	H	0.975767	0.728881	0.270629
H380	H	1.225767	0.978881	0.520629
H381	H	0.427558	0.224680	-0.289708
H382	H	0.677558	0.474680	-0.039708
H383	H	0.927558	0.724680	0.210292
H384	H	1.177558	0.974680	0.460292
N385	N	0.563687	0.258993	-0.259395
N386	N	0.813687	0.508993	-0.009395
N387	N	1.063687	0.758993	0.240605
N388	N	1.313687	1.008993	0.490605
H389	H	0.602420	0.266209	-0.266588
H390	H	0.852420	0.516209	-0.016588
H391	H	1.102420	0.766209	0.233412
H392	H	1.352420	1.016209	0.483412
H393	H	0.554166	0.205971	-0.271050
H394	H	0.804166	0.455971	-0.021050
H395	H	1.054166	0.705971	0.228950
H396	H	1.304166	0.955971	0.478950
N397	N	0.654444	0.319272	-0.804892
N398	N	0.904444	0.569272	-0.554892
N399	N	1.154444	0.819272	-0.304892
N400	N	1.404444	1.069272	-0.054892
H401	H	0.656960	0.272698	-0.774101
H402	H	0.906960	0.522698	-0.524101
H403	H	1.156960	0.772698	-0.274101
H404	H	1.406960	1.022698	-0.024101
H405	H	0.630137	0.310531	-0.848028
H406	H	0.880137	0.560531	-0.598028
H407	H	1.130137	0.810531	-0.348028
H408	H	1.380137	1.060531	-0.098028
H409	H	0.820014	0.903652	-0.266468
H410	H	1.070014	1.153652	-0.016468
H411	H	1.320014	1.403652	0.233532
H412	H	1.570014	1.653652	0.483532
H413	H	0.054138	0.444197	-0.444084
H414	H	0.304138	0.694197	-0.194084
H415	H	0.554138	0.944197	0.055916
H416	H	0.804138	1.194197	0.305916
H417	H	0.779072	0.482807	-0.812001
H418	H	1.029072	0.732807	-0.562001
H419	H	1.279072	0.982807	-0.312001
H420	H	1.529072	1.232807	-0.062001
N421	N	0.856573	0.803882	-0.396676
N422	N	1.106573	1.053882	-0.146676
N423	N	1.356573	1.303882	0.103324
N424	N	1.606573	1.553882	0.353324
H425	H	0.866167	0.821783	-0.447905
H426	H	1.116167	1.071783	-0.197905
H427	H	1.366167	1.321783	0.052095
H428	H	1.616167	1.571783	0.302095
H429	H	0.856206	0.747938	-0.395995
H430	H	1.106206	0.997938	-0.145995
H431	H	1.356206	1.247938	0.104005
H432	H	1.606206	1.497938	0.354005
H433	H	0.779021	0.903806	-0.483113
H434	H	1.029021	1.153806	-0.233113
H435	H	1.279021	1.403806	0.016887
H436	H	1.529021	1.653806	0.266887
N437	N	-0.052140	0.456777	-0.456632
N438	N	0.197860	0.706777	-0.206632
N439	N	0.447860	0.956777	0.043368
N440	N	0.697860	1.206777	0.293368
H441	H	-0.090873	0.449559	-0.449441
H442	H	0.159127	0.699559	-0.199441
H443	H	0.409127	0.949559	0.050559
H444	H	0.659127	1.199559	0.300559
H445	H	-0.042573	0.445289	-0.509690
H446	H	0.207427	0.695289	-0.259690
H447	H	0.457427	0.945289	-0.009690
H448	H	0.707427	1.195289	0.240310
H449	H	0.206251	0.224021	-0.224602
H450	H	0.456251	0.474021	0.025398
H451	H	0.706251	0.724021	0.275398
H452	H	0.956251	0.974021	0.525398
N453	N	0.061331	0.259041	-0.259493
N454	N	0.311331	0.509041	-0.009493
N455	N	0.561331	0.759041	0.240507
N456	N	0.811331	1.009041	0.490507
H457	H	0.083963	0.289169	-0.225020
H458	H	0.333963	0.539169	0.024980
H459	H	0.583963	0.789169	0.274980
H460	H	0.833963	1.039169	0.524980
H461	H	0.083978	0.224666	-0.289774
H462	H	0.333978	0.474666	-0.039774
H463	H	0.583978	0.724666	0.210226
H464	H	0.833978	0.974666	0.460226
N465	N	0.728469	0.214009	-0.911667
N466	N	0.978469	0.464009	-0.661667
N467	N	1.228469	0.714009	-0.411667
N468	N	1.478469	0.964009	-0.161667
H469	H	0.728550	0.214461	-0.967619
H470	H	0.978550	0.464461	-0.717619
H471	H	1.228550	0.714461	-0.467619
H472	H	1.478550	0.964461	-0.217619
H473	H	0.692573	0.200240	-0.893194
H474	H	0.942573	0.450240	-0.643194
H475	H	1.192573	0.700240	-0.393194
H476	H	1.442573	0.950240	-0.143194
H477	H	0.691049	0.449231	-0.904724
H478	H	0.941049	0.699231	-0.654724
H479	H	1.191049	0.949231	-0.404724
H480	H	1.441049	1.199231	-0.154724
N481	N	0.829666	0.252485	-0.805208
N482	N	1.079666	0.502485	-0.555208
N483	N	1.329666	0.752485	-0.305208
N484	N	1.579666	1.002485	-0.055208
H485	H	0.819984	0.201346	-0.823269
H486	H	1.069984	0.451346	-0.573269
H487	H	1.319984	0.701346	-0.323269
H488	H	1.569984	0.951346	-0.073269
H489	H	0.829646	0.253174	-0.749261
H490	H	1.079646	0.503174	-0.499261
H491	H	1.329646	0.753174	-0.249261
H492	H	1.579646	1.003174	0.000739
H493	H	0.843578	0.391255	-0.904825
H494	H	1.093578	0.641255	-0.654825
H495	H	1.343578	0.891255	-0.404825
H496	H	1.593578	1.141255	-0.154825
H497	H	0.690959	0.811181	-0.449445
H498	H	0.940959	1.061181	-0.199445
H499	H	1.190959	1.311181	0.050555
H500	H	1.440959	1.561181	0.300555
