data_functionalizedCrystal
_audit_creation_method	'MofGen! by Chris Wilmer'
_symmetry_space_group_name_H-M	'P1'
_symmetry_Int_Tables_number	1
_symmetry_cell_setting	triclinic
loop_
_symmetry_equiv_pos_as_xyz
  x,y,z
_cell_length_a	17.038278
_cell_length_b	15.500215
_cell_length_c	12.837942
_cell_angle_alpha	87.113735
_cell_angle_beta	87.030279
_cell_angle_gamma	92.987477
loop_
_atom_site_label
_atom_site_type_symbol
_atom_site_fract_x
_atom_site_fract_y
_atom_site_fract_z
O1	O	1.057879	0.071951	-0.231197
O2	O	0.829979	0.071951	-0.227602
O3	O	0.938875	0.071946	-0.078050
O4	O	0.948983	0.071956	-0.380748
O5	O	0.931693	-0.071944	-0.068816
O6	O	0.822797	-0.071938	-0.218367
O7	O	1.050696	-0.071939	-0.221962
Cu8	Cu	0.936090	-0.085077	-0.219322
Cu9	Cu	0.944585	0.085089	-0.230242
O10	O	0.941800	-0.071933	-0.371513
C11	C	0.797015	0.000006	-0.219712
C12	C	0.709493	0.000006	-0.209950
N13	N	0.930121	-0.204762	-0.211640
C14	C	0.214601	0.000008	-0.149975
C15	C	0.296837	0.000003	-0.159155
C16	C	0.335653	0.000010	-0.257977
C17	C	0.292228	0.000014	-0.347623
C18	C	0.209993	0.000012	-0.338441
C19	C	0.583833	0.000009	-0.290414
C20	C	0.666074	0.000012	-0.299590
C21	C	0.670678	-0.000000	-0.111120
C22	C	0.588442	0.000004	-0.101947
C23	C	0.545023	0.000003	-0.191594
C24	C	0.419712	0.000008	-0.267364
C25	C	0.460966	-0.000001	-0.182206
C26	C	0.980312	-0.250033	-0.276271
C27	C	0.975808	-0.340607	-0.270456
C28	C	0.921108	-0.385907	-0.200015
C29	C	0.870915	-0.340630	-0.135377
C30	C	0.875424	-0.250059	-0.141188
C31	C	0.904875	-0.659376	-0.179088
C32	C	0.900369	-0.749954	-0.173285
C33	C	1.005263	-0.749924	-0.308363
C34	C	1.009763	-0.659351	-0.314172
C35	C	0.959573	-0.614082	-0.249530
C36	C	0.916501	-0.478488	-0.194072
C37	C	0.964184	-0.521503	-0.255469
C38	C	1.083660	0.000008	-0.229852
C39	C	1.171183	0.000014	-0.239615
C40	C	0.931870	0.000001	-0.034512
C41	C	0.921687	0.000003	0.081463
N42	N	0.950560	0.204775	-0.237916
C43	C	0.948806	0.000013	-0.415052
C44	C	0.958989	0.000017	-0.531028
C45	C	1.044105	0.000021	0.311626
C46	C	1.034541	0.000022	0.420595
C47	C	0.892996	0.000013	0.408372
C48	C	0.902560	0.000012	0.299403
C49	C	0.978117	0.000014	0.251034
C50	C	0.987680	0.000007	0.142064
C51	C	0.846136	0.000004	0.129842
C52	C	0.836572	0.000006	0.238811
H53	H	0.183004	0.000007	-0.069504
H54	H	1.024850	-0.213156	-0.333638
C55	C	0.708770	0.000022	-0.408298
H56	H	0.671135	0.000015	-0.460374
H57	H	0.743256	0.050203	-0.419011
H58	H	0.738253	-0.050159	-0.412576
C59	C	1.127209	0.000016	0.258412
H60	H	1.123453	0.000008	0.184837
H61	H	1.157229	0.050191	0.275556
H62	H	1.152211	-0.050170	0.282006
H63	H	1.049202	0.000005	0.102684
H64	H	0.332186	-0.000006	-0.086160
H65	H	1.054307	-0.622473	-0.371530
C66	C	0.545749	-0.000015	0.006757
H67	H	0.583386	-0.000028	0.058831
H68	H	0.516267	0.050160	0.011044
H69	H	0.511264	-0.050202	0.017466
H70	H	0.831481	0.000021	0.447773
H71	H	1.088276	0.000030	0.469926
H72	H	0.174642	0.000014	-0.411436
H73	H	0.864007	-0.622529	-0.126452
H74	H	0.429359	0.000003	-0.101746
C75	C	0.718438	-0.000010	-0.012519
H76	H	0.772973	-0.000016	-0.032136
H77	H	0.708412	0.050161	0.024493
H78	H	0.703401	-0.050200	0.030915
H79	H	0.451325	0.000016	-0.347825
C80	C	0.334920	0.000024	-0.456328
H81	H	0.297280	0.000021	-0.508398
H82	H	0.369407	0.050204	-0.467043
H83	H	0.364400	-0.050157	-0.460611
C84	C	0.820211	-0.200261	-0.070098
H85	H	0.786983	-0.240210	-0.027320
H86	H	0.850645	-0.164925	-0.027210
H87	H	0.788930	-0.164934	-0.111910
C88	C	0.536084	0.000015	-0.389022
H89	H	0.570982	0.000029	-0.449189
H90	H	0.501405	-0.050163	-0.386146
H91	H	0.506414	0.050198	-0.392576
H92	H	0.775056	0.000007	0.278208
H93	H	1.008723	-0.484615	-0.312818
H94	H	0.792403	-0.000008	0.080497
H95	H	1.016680	-0.377462	-0.323084
C96	C	1.060473	-0.799722	-0.379453
H97	H	1.049961	-0.860151	-0.365901
H98	H	1.051909	-0.784877	-0.450502
H99	H	1.113620	-0.784868	-0.365796
H100	H	0.871964	-0.515382	-0.136719
C101	C	0.840180	-0.799784	-0.095819
H102	H	0.810933	-0.759852	-0.058154
H103	H	0.805391	-0.835107	-0.133117
H104	H	0.867086	-0.835126	-0.048390
C105	C	0.810746	-0.390459	-0.057895
H106	H	0.815242	-0.450884	-0.063698
H107	H	0.820789	-0.375620	0.011250
H108	H	0.759077	-0.375621	-0.073454
