data_functionalizedCrystal
_audit_creation_method	'MofGen! by Chris Wilmer'
_symmetry_space_group_name_H-M	'P1'
_symmetry_Int_Tables_number	1
_symmetry_cell_setting	triclinic
loop_
_symmetry_equiv_pos_as_xyz
  x,y,z
_cell_length_a	15.625950
_cell_length_b	17.038272
_cell_length_c	14.185292
_cell_angle_alpha	104.126249
_cell_angle_beta	59.450166
_cell_angle_gamma	87.507827
loop_
_atom_site_label
_atom_site_type_symbol
_atom_site_fract_x
_atom_site_fract_y
_atom_site_fract_z
O1	O	1.292390	0.020101	-0.386561
O2	O	1.792390	0.520101	0.113439
O3	O	1.007130	0.054267	-0.282822
O4	O	1.507130	0.554267	0.217178
O5	O	1.148067	-0.076504	-0.334084
O6	O	1.648067	0.423496	0.165916
O7	O	1.151454	0.150873	-0.335300
O8	O	1.651454	0.650873	0.164700
O9	O	1.189715	-0.115137	-0.516074
O10	O	1.689715	0.384863	-0.016074
O11	O	1.048779	0.015634	-0.464813
O12	O	1.548779	0.515634	0.035187
O13	O	1.334039	-0.018532	-0.568552
O14	O	1.834039	0.481468	-0.068552
Cu15	Cu	1.195212	-0.004976	-0.533300
Cu16	Cu	1.695212	0.495024	-0.033300
Cu17	Cu	1.145957	0.040712	-0.318074
Cu18	Cu	1.645957	0.540712	0.181926
O19	O	1.193102	0.112240	-0.517290
O20	O	1.693102	0.612240	-0.017290
C21	C	0.991275	0.037229	-0.360479
C22	C	1.491275	0.537229	0.139521
C23	C	0.881981	0.044009	-0.320733
C24	C	1.381981	0.544009	0.179267
C25	C	0.635918	-0.038916	-0.685896
C26	C	1.135918	0.461084	-0.185896
C27	C	0.533207	-0.032519	-0.648498
C28	C	1.033207	0.467481	-0.148498
C29	C	0.487854	0.009594	-0.450117
C30	C	0.987854	0.509594	0.049883
C31	C	0.590564	0.003204	-0.487499
C32	C	1.090564	0.503204	0.012501
C33	C	0.664589	-0.021052	-0.605389
C34	C	1.164589	0.478948	-0.105389
C35	C	0.619234	0.021068	-0.406992
C36	C	1.119234	0.521068	0.093008
C37	C	0.721934	0.014675	-0.444372
C38	C	1.221934	0.514675	0.055628
C39	C	0.795965	-0.009582	-0.562257
C40	C	1.295965	0.490418	-0.062257
C41	C	0.767289	-0.027445	-0.642769
C42	C	1.267289	0.472555	-0.142769
C43	C	0.545208	0.045319	-0.289102
C44	C	1.045208	0.545319	0.210898
C45	C	0.573878	0.063183	-0.208596
C46	C	1.073878	0.563183	0.291404
C47	C	0.676579	0.056795	-0.245974
C48	C	1.176579	0.556795	0.254026
C49	C	0.750610	0.032538	-0.363860
C50	C	1.250610	0.532538	0.136140
C51	C	0.705255	0.074658	-0.165463
C52	C	1.205255	0.574658	0.334537
C53	C	0.807956	0.068265	-0.202842
C54	C	1.307956	0.568265	0.297158
C55	C	0.853311	0.026145	-0.401239
C56	C	1.353311	0.526145	0.098761
C57	C	1.165807	-0.124715	-0.423958
C58	C	1.665807	0.375285	0.076042
C59	C	1.156606	-0.210809	-0.420611
C60	C	1.656606	0.289191	0.079389
C61	C	1.241083	-0.267338	-0.451333
C62	C	1.741083	0.232662	0.048667
C63	C	1.232429	-0.348230	-0.448177
C64	C	1.732429	0.151770	0.051823
C65	C	1.139300	-0.372592	-0.414306
C66	C	1.639300	0.127408	0.085694
C67	C	1.054816	-0.316055	-0.383578
C68	C	1.554816	0.183945	0.116422
C69	C	1.063469	-0.235163	-0.386727
C70	C	1.563469	0.264837	0.113273
C71	C	1.108730	-0.616025	-0.403175
C72	C	1.608730	-0.116025	0.096825
C73	C	1.100084	-0.696924	-0.400031
C74	C	1.600084	-0.196924	0.099969
C75	C	1.277698	-0.729093	-0.464628
C76	C	1.777698	-0.229093	0.035372
C77	C	1.286344	-0.648200	-0.467781
C78	C	1.786344	-0.148200	0.032219
C79	C	1.201859	-0.591669	-0.437047
C80	C	1.701859	-0.091669	0.062953
C81	C	1.130453	-0.455276	-0.411082
C82	C	1.630453	0.044724	0.088918
C83	C	1.210704	-0.508985	-0.440264
C84	C	1.710704	-0.008985	0.059736
C85	C	1.349893	-0.001493	-0.490893
C86	C	1.849893	0.498507	0.009107
C87	C	1.459186	-0.008271	-0.530632
C88	C	1.959186	0.491729	-0.030632
C89	C	1.175361	0.160451	-0.427414
C90	C	1.675361	0.660451	0.072586
C91	C	1.184561	0.246546	-0.430753
C92	C	1.684561	0.746546	0.069247
N93	N	1.229862	-0.037112	-0.684680
N94	N	1.729862	0.462888	-0.184680
C95	C	1.331631	-0.131475	-0.879221
C96	C	1.831631	0.368525	-0.379221
C97	C	1.305386	-0.107146	-0.764649
C98	C	1.805386	0.392854	-0.264649
C99	C	1.180548	0.008618	-0.719259
C100	C	1.680548	0.508618	-0.219259
C101	C	1.206779	-0.015703	-0.833828
C102	C	1.706779	0.484297	-0.333828
C103	C	1.282322	-0.085750	-0.913801
C104	C	1.782322	0.414250	-0.413801
C105	C	1.157469	0.030022	-0.868408
C106	C	1.657469	0.530022	-0.368408
C107	C	1.183702	0.005704	-0.982969
C108	C	1.683702	0.505704	-0.482969
C109	C	1.259244	-0.064339	-1.062949
C110	C	1.759244	0.435661	-0.562949
C111	C	1.308554	-0.110068	-1.028362
C112	C	1.808554	0.389932	-0.528362
C113	C	1.081932	0.100072	-0.788435
C114	C	1.581932	0.600072	-0.288435
C115	C	1.032622	0.145796	-0.823015
C116	C	1.532622	0.645796	-0.323015
C117	C	1.058849	0.121476	-0.937575
C118	C	1.558849	0.621476	-0.437575
C119	C	1.134392	0.051433	-1.017556
C120	C	1.634392	0.551433	-0.517556
C121	C	1.009539	0.167205	-0.972163
C122	C	1.509539	0.667205	-0.472163
C123	C	1.035772	0.142887	-1.086723
C124	C	1.535772	0.642887	-0.586723
C125	C	1.160624	0.027116	-1.132117
C126	C	1.660624	0.527116	-0.632117
N127	N	1.111315	0.072840	-0.166697
N128	N	1.611315	0.572840	0.333303
H129	H	0.879589	-0.014788	-0.592689
H130	H	1.379589	0.485212	-0.092689
H131	H	1.280605	-0.084135	-1.156232
H132	H	1.780605	0.415865	-0.656232
H133	H	0.978987	-0.335895	-0.355993
H134	H	1.478987	0.164105	0.144007
Cl135	Cl	1.403417	-0.617573	-0.510328
Cl136	Cl	1.903417	-0.117573	-0.010328
Cl137	Cl	0.480812	0.093649	-0.060396
Cl138	Cl	0.980812	0.593649	0.439604
H139	H	1.370061	-0.167112	-1.093479
H140	H	1.870061	0.332888	-0.593479
Cl141	Cl	1.085585	0.096676	-0.618715
Cl142	Cl	1.585585	0.596676	-0.118715
H143	H	1.345548	-0.144386	-0.736504
H144	H	1.845548	0.355614	-0.236504
Cl145	Cl	0.728986	-0.069400	-0.834104
Cl146	Cl	1.228986	0.430600	-0.334104
Cl147	Cl	0.914585	0.255268	-0.871619
Cl148	Cl	1.414585	0.755268	-0.371619
H149	H	0.971117	0.202831	-0.757889
H150	H	1.471117	0.702831	-0.257889
H151	H	1.060579	0.119870	-0.695155
H152	H	1.560579	0.619870	-0.195155
Cl153	Cl	1.383899	-0.800163	-0.503259
Cl154	Cl	1.883899	-0.300163	-0.003259
Cl155	Cl	0.612188	0.105118	-0.017265
Cl156	Cl	1.112188	0.605118	0.482735
H157	H	0.827565	-0.047185	-0.738767
H158	H	1.327565	0.452815	-0.238767
Cl159	Cl	0.844003	0.090721	-0.101634
Cl160	Cl	1.344003	0.590721	0.398366
H161	H	0.509870	-0.047050	-0.714064
H162	H	1.009870	0.452950	-0.214064
H163	H	1.039936	-0.570007	-0.378150
H164	H	1.539936	-0.070007	0.121850
Cl165	Cl	0.957264	-0.164096	-0.348099
Cl166	Cl	1.457264	0.335904	0.151901
H167	H	0.461583	0.050527	-0.258672
H168	H	0.961583	0.550527	0.241328
Cl169	Cl	1.358168	-0.236723	-0.493927
Cl170	Cl	1.858168	0.263277	0.006073
H171	H	1.393138	-0.188519	-0.944338
H172	H	1.893138	0.311481	-0.444338
Cl173	Cl	0.973783	0.200374	-1.130197
Cl174	Cl	1.473783	0.700374	-0.630197
Cl175	Cl	0.983000	-0.727550	-0.357454
Cl176	Cl	1.483000	-0.227550	0.142546
Cl177	Cl	0.394789	0.040060	-0.301918
Cl178	Cl	0.894789	0.540060	0.198082
Cl179	Cl	1.327776	-0.478355	-0.482837
Cl180	Cl	1.827776	0.021645	0.017163
Cl181	Cl	0.946378	-0.004339	-0.549448
Cl182	Cl	1.446378	0.495661	-0.049448
Cl183	Cl	1.338634	-0.419293	-0.486804
Cl184	Cl	1.838634	0.080707	0.013196
H185	H	1.054627	-0.475121	-0.383506
H186	H	1.554627	0.024879	0.116494
Cl187	Cl	1.255584	-0.060953	-1.232656
Cl188	Cl	1.755584	0.439047	-0.732656
