data_functionalizedCrystal
_audit_creation_method	'MofGen! by Chris Wilmer'
_symmetry_space_group_name_H-M	'P1'
_symmetry_Int_Tables_number	1
_symmetry_cell_setting	triclinic
loop_
_symmetry_equiv_pos_as_xyz
  x,y,z
_cell_length_a	17.699104
_cell_length_b	10.540539
_cell_length_c	16.776229
_cell_angle_alpha	89.995514
_cell_angle_beta	89.991971
_cell_angle_gamma	83.908504
loop_
_atom_site_label
_atom_site_type_symbol
_atom_site_fract_x
_atom_site_fract_y
_atom_site_fract_z
O1	O	1.005113	0.160646	-0.066301
O2	O	0.784872	0.181503	-0.066298
O3	O	0.900017	-0.013723	-0.066298
O4	O	0.889968	0.355872	-0.066300
O5	O	0.900002	-0.013735	0.066278
O6	O	0.784857	0.181491	0.066278
O7	O	1.005098	0.160634	0.066276
Zn8	Zn	0.894975	0.171061	0.087326
Zn9	Zn	0.894995	0.171076	-0.087349
O10	O	0.889953	0.355860	0.066276
C11	C	0.756663	0.180745	-0.000010
C12	C	0.672631	0.178489	-0.000009
C13	C	0.148423	0.280363	-0.000018
C14	C	0.227380	0.282475	-0.000020
C15	C	0.275252	0.167870	-0.000019
C16	C	0.244164	0.051145	-0.000024
C17	C	0.165208	0.049035	-0.000028
C18	C	0.562585	0.059653	-0.000012
C19	C	0.641546	0.061773	-0.000006
C20	C	0.624757	0.293093	-0.000004
C21	C	0.545801	0.290983	-0.000007
C22	C	0.514720	0.174259	-0.000017
C23	C	0.429105	0.171971	-0.000016
C24	C	0.360866	0.170157	-0.000015
C25	C	0.899256	-0.061019	-0.000012
C26	C	0.897001	-0.201926	-0.000016
C27	C	0.810603	-0.383783	-0.000313
C28	C	0.812889	-0.237207	-0.000014
C29	C	0.937471	-0.264325	0.075691
C30	C	0.934600	-0.410818	0.075755
C31	C	0.936329	-0.411354	-0.075009
C32	C	0.937104	-0.264386	-0.076010
C33	C	1.033307	0.161392	-0.000014
C34	C	1.117339	0.163648	-0.000020
C35	C	0.890714	0.403156	-0.000012
C36	C	0.892969	0.544063	-0.000013
N37	N	0.894966	0.171049	0.206538
N38	N	0.895010	0.171078	-0.206560
C39	C	0.945968	0.084638	0.248255
C40	C	0.945973	0.084637	0.331707
C41	C	0.894978	0.171054	0.373441
C42	C	0.843970	0.257469	0.331718
C43	C	0.843963	0.257463	0.248267
C44	C	0.843998	0.257494	0.668265
C45	C	0.844011	0.257496	0.751721
C46	C	0.946007	0.084668	0.751705
C47	C	0.946000	0.084662	0.668254
C48	C	0.894990	0.171072	0.626539
C49	C	0.894985	0.171070	0.536050
C50	C	0.894986	0.171063	0.463927
H51	H	0.109450	0.373688	-0.000012
H52	H	0.995093	-0.459885	0.079189
H53	H	0.987540	0.014305	0.785678
H54	H	0.802482	0.327869	0.785700
H55	H	0.909346	-0.221220	0.132031
N56	N	0.900285	-0.452486	-0.151020
H57	H	0.855479	-0.500446	-0.137608
H58	H	0.882479	-0.374727	-0.183873
N59	N	0.788957	0.350672	0.203271
H60	H	0.796689	0.337554	0.144073
H61	H	0.735193	0.336112	0.217874
N62	N	1.018337	-0.233788	-0.082073
H63	H	1.030349	-0.178762	-0.035434
H64	H	1.053595	-0.315664	-0.081423
N65	N	0.658289	0.418986	-0.000008
H66	H	0.640883	0.469190	-0.049153
H67	H	0.640865	0.469077	0.049172
N68	N	0.788978	0.350694	0.623288
H69	H	0.798179	0.440768	0.637803
H70	H	0.796726	0.337476	0.564102
N71	N	0.131680	-0.076853	-0.000017
H72	H	0.074398	-0.060801	-0.000019
H73	H	0.149154	-0.126992	-0.049162
H74	H	0.907492	-0.222984	-0.132016
H75	H	0.537288	-0.035390	-0.000017
N76	N	0.260907	0.408360	-0.000031
H77	H	0.218599	0.480641	-0.000030
H78	H	0.293299	0.414279	0.049113
H79	H	0.781044	-0.194020	-0.054284
N80	N	1.019290	-0.236192	0.079409
H81	H	1.028005	-0.188183	0.130112
H82	H	1.053707	-0.318986	0.078625
N83	N	1.000975	-0.008562	0.203245
H84	H	1.033284	-0.063303	0.242339
H85	H	0.971698	-0.064625	0.168631
H86	H	0.802445	0.327827	0.365702
N87	N	0.295793	-0.072468	-0.000027
H88	H	0.350529	-0.053423	-0.000021
H89	H	0.285646	-0.123348	0.049120
H90	H	0.506827	0.384306	-0.000004
N91	N	0.693183	-0.061842	-0.000002
H92	H	0.661513	-0.136107	-0.000010
H93	H	0.726319	-0.065992	-0.049146
H94	H	0.777383	-0.411775	-0.054603
N95	N	0.766755	-0.422993	0.071198
H96	H	0.800013	-0.487293	0.103787
H97	H	0.750667	-0.345465	0.104943
N98	N	0.770404	-0.181113	0.071995
H99	H	0.715905	-0.201192	0.069668
H100	H	0.795191	-0.219038	0.122042
N101	N	0.894967	-0.447472	0.150716
H102	H	0.879520	-0.368504	0.183408
H103	H	0.848287	-0.489709	0.135983
H104	H	0.997083	-0.459683	-0.075519
N105	N	1.001008	-0.008519	0.376703
H106	H	1.033324	-0.063243	0.337602
H107	H	1.034714	0.040067	0.411299
H108	H	0.987527	0.014298	0.634277
