data_functionalizedCrystal
_audit_creation_method	'MofGen! by Chris Wilmer'
_symmetry_space_group_name_H-M	'P1'
_symmetry_Int_Tables_number	1
_symmetry_cell_setting	triclinic
loop_
_symmetry_equiv_pos_as_xyz
  x,y,z
_cell_length_a	16.992694
_cell_length_b	16.992695
_cell_length_c	15.455313
_cell_angle_alpha	92.847427
_cell_angle_beta	87.142206
_cell_angle_gamma	90.668223
loop_
_atom_site_label
_atom_site_type_symbol
_atom_site_fract_x
_atom_site_fract_y
_atom_site_fract_z
O1	O	1.054080	0.163694	-0.072023
O2	O	0.825681	0.161862	-0.072048
O3	O	0.938965	0.048579	-0.072029
O4	O	0.940797	0.276978	-0.072042
O5	O	0.932485	0.055028	0.072232
O6	O	0.819202	0.168312	0.072213
O7	O	1.047601	0.170144	0.072238
Cu8	Cu	0.932809	0.169817	0.085398
Cu9	Cu	0.940473	0.162189	-0.085207
O10	O	0.934317	0.283428	0.072219
C11	C	0.793081	0.162731	0.000079
C12	C	0.705597	0.155702	0.000070
C13	C	0.659607	0.223520	0.000066
C14	C	0.577405	0.216911	0.000079
C15	C	0.541197	0.142484	0.000088
C16	C	0.587193	0.074661	0.000094
C17	C	0.669393	0.081271	0.000088
C18	C	0.295881	0.115091	0.000113
C19	C	0.213676	0.108486	0.000116
C20	C	0.203893	0.250737	0.000103
C21	C	0.286095	0.257340	0.000091
C22	C	0.332084	0.189517	0.000102
N23	N	0.457174	0.135727	0.000098
N24	N	0.416105	0.196275	0.000098
C25	C	0.933369	0.022443	0.000102
C26	C	0.926341	-0.065041	0.000101
C27	C	0.994158	-0.111032	0.000109
C28	C	0.987550	-0.193233	0.000100
C29	C	0.913123	-0.229442	0.000089
C30	C	0.845300	-0.183445	0.000078
C31	C	0.851910	-0.101246	0.000081
C32	C	0.885729	-0.474757	0.000074
C33	C	0.879124	-0.556962	0.000074
C34	C	1.021375	-0.566744	0.000094
C35	C	1.027977	-0.484543	0.000102
C36	C	0.960155	-0.438554	0.000087
N37	N	0.906366	-0.313464	0.000082
N38	N	0.966913	-0.354533	0.000087
C39	C	1.080201	0.169275	0.000109
C40	C	1.167685	0.176304	0.000113
C41	C	0.939913	0.309563	0.000087
C42	C	0.946942	0.397047	0.000082
N43	N	0.927425	0.175181	0.205392
N44	N	0.945863	0.156819	-0.205202
C45	C	0.975571	0.127074	0.250795
C46	C	0.971507	0.131139	0.341602
C47	C	0.919301	0.183315	0.387005
C48	C	0.871149	0.231424	0.341596
C49	C	0.875210	0.227355	0.250791
C50	C	0.901772	0.200858	0.658584
C51	C	0.897717	0.204926	0.749395
C52	C	0.998074	0.104639	0.749395
C53	C	1.002133	0.100578	0.658588
C54	C	0.953979	0.148684	0.613187
N55	N	0.915147	0.187473	0.479825
N56	N	0.958129	0.144522	0.520369
H57	H	0.315570	0.317946	0.000074
H58	H	1.037278	0.065473	0.786369
H59	H	0.539963	0.272136	0.000075
O60	O	0.828526	0.274203	0.206723
C61	C	0.845195	0.353933	0.228909
H62	H	0.907127	0.359424	0.253862
H63	H	0.841283	0.390189	0.169185
H64	H	0.800654	0.376656	0.281620
O65	O	0.159100	0.316537	0.000138
C66	C	0.078785	0.294748	0.000124
H67	H	0.070539	0.233941	0.027439
H68	H	0.042546	0.339533	0.042007
H69	H	0.058325	0.293151	-0.069084
H70	H	0.818513	-0.586440	0.000079
H71	H	0.855202	0.247417	0.786359
H72	H	1.054764	-0.081557	0.000124
H73	H	0.184198	0.047876	0.000123
H74	H	1.044644	0.058092	0.621622
O75	O	1.053506	-0.237789	0.000153
C76	C	1.120614	-0.188205	0.000149
H77	H	1.103244	-0.126957	0.027459
H78	H	1.166563	-0.213507	0.042043
H79	H	1.146302	-0.184055	-0.069054
H80	H	0.862564	0.240030	0.621625
O81	O	0.819766	-0.430205	0.000109
C82	C	0.752662	-0.479794	0.000083
H83	H	0.767581	-0.538604	0.027393
H84	H	0.702947	-0.450756	0.041966
H85	H	0.733194	-0.490122	-0.069127
O86	O	0.340433	0.049128	0.000081
C87	C	0.290844	-0.017976	0.000110
H88	H	0.232040	-0.003054	-0.027204
H89	H	0.319890	-0.067686	-0.041767
H90	H	0.280502	-0.037450	0.069322
O91	O	0.820392	0.282001	0.385796
C92	C	0.766830	0.239123	0.438322
H93	H	0.793718	0.180117	0.451931
H94	H	0.753581	0.274054	0.502173
H95	H	0.709880	0.228527	0.403339
O96	O	0.694648	0.295881	0.000094
C97	C	0.636425	0.354320	0.000074
H98	H	0.578043	0.329977	0.027391
H99	H	0.654876	0.407846	0.041951
H100	H	0.629276	0.372391	-0.069136
O101	O	1.100338	-0.449500	0.000078
C102	C	1.158780	-0.507719	0.000109
H103	H	1.134450	-0.566098	-0.027214
H104	H	1.212318	-0.489257	-0.041759
H105	H	1.176829	-0.514880	0.069323
O106	O	0.773060	-0.218741	0.000105
C107	C	0.781767	-0.301155	0.000086
H108	H	0.840762	-0.315368	0.027404
H109	H	0.731950	-0.327399	0.041963
H110	H	0.779629	-0.327341	-0.069124
O111	O	0.551898	0.002421	0.000066
C112	C	0.469483	0.011128	0.000090
H113	H	0.455274	0.070129	-0.027226
H114	H	0.443245	-0.038681	-0.041787
H115	H	0.443289	0.008977	0.069301
O116	O	0.713956	0.015311	0.000048
C117	C	0.664372	-0.051798	0.000077
H118	H	0.605565	-0.036880	-0.027232
H119	H	0.693421	-0.101505	-0.041804
H120	H	0.654036	-0.071275	0.069289
O121	O	0.786062	-0.056541	-0.000079
C122	C	0.788998	-0.012023	-0.074783
H123	H	0.829713	-0.041905	-0.126998
H124	H	0.727295	-0.007881	-0.099871
H125	H	0.812357	0.049713	-0.057888
H126	H	1.018087	0.084591	0.213834
O127	O	1.018366	0.084387	0.385571
C128	C	1.065308	0.037457	0.326026
H129	H	1.071102	0.066886	0.261289
H130	H	1.126252	0.030614	0.352252
H131	H	1.036533	-0.023078	0.316387
H132	H	1.076591	-0.604197	0.000106
