data_functionalizedCrystal
_audit_creation_method	'MofGen! by Chris Wilmer'
_symmetry_space_group_name_H-M	'P1'
_symmetry_Int_Tables_number	1
_symmetry_cell_setting	triclinic
loop_
_symmetry_equiv_pos_as_xyz
  x,y,z
_cell_length_a	19.077236
_cell_length_b	17.638516
_cell_length_c	19.076919
_cell_angle_alpha	77.040002
_cell_angle_beta	90.112677
_cell_angle_gamma	103.941351
loop_
_atom_site_label
_atom_site_type_symbol
_atom_site_fract_x
_atom_site_fract_y
_atom_site_fract_z
Zn1	Zn	1.003734	-0.291660	0.490803
Zn2	Zn	1.503734	0.208340	0.990803
Zn3	Zn	0.984288	-0.420421	0.395485
Zn4	Zn	1.484288	0.079579	0.895485
Zn5	Zn	0.891028	-0.291239	0.368510
Zn6	Zn	1.391028	0.208761	0.868510
Zn7	Zn	0.860102	-0.431140	0.510071
Zn8	Zn	1.360102	0.068860	1.010071
O9	O	0.934788	-0.358615	0.441217
O10	O	1.434788	0.141385	0.941217
O11	O	1.100294	-0.304431	0.481384
O12	O	1.600294	0.195569	0.981384
O13	O	0.976721	-0.398623	0.292773
O14	O	1.476721	0.101377	0.792773
O15	O	0.927060	-0.178859	0.365380
O16	O	1.427060	0.321141	0.865380
O17	O	1.086007	-0.399031	0.411355
O18	O	1.586007	0.100969	0.911355
O19	O	1.009864	-0.179168	0.455228
O20	O	1.509864	0.320832	0.955228
O21	O	0.908204	-0.303713	0.272954
O22	O	1.408204	0.196287	0.772954
O23	O	0.787786	-0.314107	0.384063
O24	O	1.287786	0.185893	0.884063
O25	O	0.874351	-0.417300	0.606649
O26	O	1.374351	0.082700	1.106649
O27	O	0.765065	-0.416892	0.488067
O28	O	1.265065	0.083108	0.988067
O29	O	0.979876	-0.314825	0.592493
O30	O	1.479876	0.185175	1.092493
O31	O	0.946733	-0.534279	0.430038
O32	O	1.446733	-0.034279	0.930038
O33	O	0.855495	-0.542155	0.514224
O34	O	1.355495	-0.042155	1.014224
C35	C	0.750719	-0.366617	0.435229
C36	C	1.250719	0.133383	0.935229
C37	C	0.671969	-0.370061	0.432688
C38	C	1.171969	0.129939	0.932688
C39	C	0.642393	-0.322510	0.468037
C40	C	1.142393	0.177490	0.968037
C41	C	0.568400	-0.325742	0.465642
C42	C	1.068400	0.174258	0.965642
C43	C	0.523984	-0.376528	0.427902
C44	C	1.023984	0.123472	0.927902
C45	C	0.553565	-0.424081	0.392548
C46	C	1.053565	0.075919	0.892548
C47	C	0.627558	-0.420845	0.394939
C48	C	1.127558	0.079155	0.894939
C49	C	0.301895	-0.391475	0.416828
C50	C	0.801895	0.108525	0.916828
C51	C	0.227897	-0.394710	0.414442
C52	C	0.727897	0.105290	0.914442
C53	C	0.242737	-0.296369	0.487536
C54	C	0.742737	0.203631	0.987536
C55	C	0.316730	-0.293141	0.489927
C56	C	0.816730	0.206859	0.989927
C57	C	0.346305	-0.340690	0.454570
C58	C	0.846305	0.159310	0.954570
N59	N	0.448351	-0.379834	0.425455
N60	N	0.948351	0.120166	0.925455
N61	N	0.421938	-0.337379	0.457013
N62	N	0.921938	0.162621	0.957013
C63	C	0.895666	-0.567370	0.477165
C64	C	1.395666	-0.067370	0.977165
C65	C	0.878994	-0.656675	0.492569
C66	C	1.378994	-0.156675	0.992569
C67	C	1.061871	-0.929747	0.324260
C68	C	1.561871	-0.429747	0.824260
C69	C	1.046192	-1.013663	0.338746
C70	C	1.546192	-0.513663	0.838746
C71	C	0.951112	-1.021908	0.426334
C72	C	1.451112	-0.521908	0.926334
C73	C	0.966781	-0.937991	0.411853
C74	C	1.466781	-0.437991	0.911853
C75	C	1.022162	-0.891917	0.360816
C76	C	1.522162	-0.391917	0.860816
C77	C	0.927072	-0.900161	0.448409
C78	C	1.427072	-0.400161	0.948409
C79	C	0.942743	-0.816251	0.433931
C80	C	1.442743	-0.316251	0.933931
C81	C	0.998122	-0.770171	0.382898
C82	C	1.498122	-0.270171	0.882898
C83	C	1.037833	-0.808007	0.346338
C84	C	1.537833	-0.308007	0.846338
C85	C	0.871695	-0.946237	0.499449
C86	C	1.371695	-0.446237	0.999449
C87	C	0.831986	-0.908406	0.536005
C88	C	1.331986	-0.408406	1.036005
C89	C	0.847653	-0.824495	0.521524
C90	C	1.347653	-0.324495	1.021524
C91	C	0.903032	-0.778415	0.470491
C92	C	1.403032	-0.278415	0.970491
C93	C	0.807943	-0.786659	0.558084
C94	C	1.307943	-0.286659	1.058084
C95	C	0.823613	-0.702749	0.543606
C96	C	1.323613	-0.202749	1.043606
C97	C	0.918703	-0.694505	0.456013
C98	C	1.418703	-0.194505	0.956013
C99	C	1.119575	-0.350582	0.447229
C100	C	1.619575	0.149418	0.947229
C101	C	1.198321	-0.347159	0.449791
C102	C	1.698321	0.152841	0.949791
C103	C	0.925833	-0.367305	0.625994
C104	C	1.425833	0.132695	1.125994
C105	C	0.922017	-0.371008	0.704735
C106	C	1.422017	0.128992	1.204735
C107	C	0.974081	-0.149045	0.405146
C108	C	1.474081	0.350955	0.905146
C109	C	0.990825	-0.059738	0.389774
C110	C	1.490825	0.440262	0.889774
C111	C	0.943760	-0.349899	0.257151
C112	C	1.443760	0.150101	0.757151
C113	C	0.947756	-0.345964	0.178376
C114	C	1.447756	0.154036	0.678376
C115	C	0.975163	-0.319397	0.734359
C116	C	1.475163	0.180603	1.234359
C117	C	0.971569	-0.322874	0.808344
C118	C	1.471569	0.177126	1.308344
C119	C	0.914831	-0.377967	0.852704
C120	C	1.414831	0.122033	1.352704
C121	C	0.861680	-0.429580	0.823075
C122	C	1.361680	0.070420	1.323075
C123	C	0.865272	-0.426099	0.749091
C124	C	1.365272	0.073901	1.249091
C125	C	0.898196	-0.394096	1.074763
C126	C	1.398196	0.105904	1.574763
C127	C	0.894610	-0.397575	1.148752
C128	C	1.394610	0.102425	1.648752
C129	C	1.004498	-0.290867	1.134015
C130	C	1.504498	0.209133	1.634015
C131	C	1.008087	-0.287394	1.060031
C132	C	1.508087	0.212606	1.560031
C133	C	0.954934	-0.339005	1.030408
C134	C	1.454934	0.160995	1.530408
N135	N	0.911158	-0.381524	0.928329
N136	N	1.411158	0.118476	1.428329
N137	N	0.958605	-0.335443	0.954784
N138	N	1.458605	0.164557	1.454784
H139	H	0.218648	-0.257656	0.516320
H140	H	0.718648	0.242344	1.016320
H141	H	0.786897	-0.945931	0.577561
H142	H	1.286897	-0.445931	1.077561
H143	H	0.854923	-0.436132	1.050655
H144	H	1.354923	0.063868	1.550655
H145	H	0.762856	-0.824185	0.599643
H146	H	1.262856	-0.324185	1.099643
H147	H	1.021366	-0.274537	0.698246
H148	H	1.521366	0.225463	1.198246
C149	C	1.030035	-0.266098	0.840926
C150	C	1.530035	0.233902	1.340926
N151	N	1.074074	-0.223332	0.865466
N152	N	1.574074	0.276668	1.365466
H153	H	1.054290	-0.242534	1.023917
H154	H	1.554290	0.257466	1.523917
C155	C	0.660091	-0.473156	0.356053
C156	C	1.160091	0.026844	0.856053
N157	N	0.684593	-0.512557	0.326761
N158	N	1.184593	-0.012557	0.826761
H159	H	0.191734	-0.436070	0.383709
H160	H	0.691734	0.063930	0.883709
C161	C	1.062956	-0.234090	1.166605
C162	C	1.562956	0.265910	1.666605
N163	N	1.106985	-0.191319	1.191150
N164	N	1.606985	0.308681	1.691150
H165	H	0.517397	-0.465428	0.361814
H166	H	1.017397	0.034572	0.861814
H167	H	0.325966	-0.430194	0.388039
H168	H	0.825966	0.069806	0.888039
C169	C	0.979627	-0.643818	0.399872
C170	C	1.479627	-0.143818	0.899872
N171	N	1.025516	-0.605641	0.357592
N172	N	1.525516	-0.105641	0.857592
H173	H	0.848405	-0.442440	1.184869
H174	H	1.348405	0.057560	1.684869
H175	H	1.010882	-0.701846	0.371113
H176	H	1.510882	-0.201846	0.871113
C177	C	0.799263	-0.490175	0.871873
C178	C	1.299263	0.009825	1.371873
N179	N	0.752248	-0.535816	0.908626
N180	N	1.252248	-0.035816	1.408626
H181	H	1.082924	-0.770491	0.304773
H182	H	1.582924	-0.270491	0.804773
H183	H	0.906023	-1.059433	0.467890
H184	H	1.406023	-0.559433	0.967890
H185	H	0.791278	-0.671948	0.573375
H186	H	1.291278	-0.171948	1.073375
C187	C	0.806808	-0.482877	0.716506
C188	C	1.306808	0.017123	1.216506
N189	N	0.762770	-0.525642	0.691964
N190	N	1.262770	-0.025642	1.191964
C191	C	0.854459	-1.038541	0.515373
C192	C	1.354459	-0.538541	1.015373
N193	N	0.841476	-1.108064	0.527366
N194	N	1.341476	-0.608064	1.027366
C195	C	1.122796	-0.879060	0.268119
C196	C	1.622796	-0.379060	0.768119
N197	N	1.168685	-0.840883	0.225838
N198	N	1.668685	-0.340883	0.725838
C199	C	1.089878	-1.055273	0.298525
C200	C	1.589878	-0.555273	0.798525
N201	N	1.122783	-1.086613	0.268233
N202	N	1.622783	-0.586613	0.768233
H203	H	0.678551	-0.281156	0.498772
H204	H	1.178551	0.218844	0.998772
H205	H	0.544322	-0.287022	0.494430
H206	H	1.044322	0.212978	0.994430
H207	H	0.352888	-0.251788	0.520663
H208	H	0.852888	0.248212	1.020663
