data_functionalizedCrystal
_audit_creation_method	'MofGen! by Chris Wilmer'
_symmetry_space_group_name_H-M	'P1'
_symmetry_Int_Tables_number	1
_symmetry_cell_setting	triclinic
loop_
_symmetry_equiv_pos_as_xyz
  x,y,z
_cell_length_a	19.288864
_cell_length_b	19.288865
_cell_length_c	18.366186
_cell_angle_alpha	89.988521
_cell_angle_beta	89.977106
_cell_angle_gamma	83.136245
loop_
_atom_site_label
_atom_site_type_symbol
_atom_site_fract_x
_atom_site_fract_y
_atom_site_fract_z
O1	O	-0.921353	-0.086649	0.060791
O2	O	-0.421353	0.413351	0.560791
O3	O	-0.719092	-0.098337	0.060743
O4	O	-0.219092	0.401663	0.560743
O5	O	-0.826067	0.008637	0.060754
O6	O	-0.326067	0.508637	0.560754
O7	O	-0.814378	-0.193623	0.060780
O8	O	-0.314378	0.306377	0.560780
O9	O	-0.826049	0.008643	-0.060345
O10	O	-0.326049	0.508643	0.439655
O11	O	-0.719074	-0.098332	-0.060357
O12	O	-0.219074	0.401668	0.439643
O13	O	-0.921335	-0.086643	-0.060308
O14	O	-0.421335	0.413357	0.439692
Zn15	Zn	-0.820201	-0.092487	-0.079559
Zn16	Zn	-0.320201	0.407513	0.420441
Zn17	Zn	-0.820225	-0.092494	0.079994
Zn18	Zn	-0.320225	0.407506	0.579994
O19	O	-0.814360	-0.193618	-0.060319
O20	O	-0.314360	0.306382	0.439681
C21	C	-0.693207	-0.097959	0.000187
C22	C	-0.193207	0.402041	0.500187
C23	C	-0.616103	-0.096830	0.000167
C24	C	-0.116103	0.403170	0.500167
C25	C	-0.825682	0.034516	0.000202
C26	C	-0.325682	0.534516	0.500202
C27	C	-0.824553	0.111620	0.000195
C28	C	-0.324553	0.611620	0.500195
C29	C	-0.947220	-0.087022	0.000250
C30	C	-0.447220	0.412978	0.500250
C31	C	-1.024324	-0.088151	0.000274
C32	C	-0.524324	0.411849	0.500274
C33	C	-0.571407	-0.159598	0.000187
C34	C	-0.071407	0.340402	0.500187
C35	C	-0.498960	-0.158537	0.000195
C36	C	0.001040	0.341463	0.500195
C37	C	-0.471212	-0.094705	0.000198
C38	C	0.028788	0.405295	0.500198
C39	C	-0.515918	-0.031929	0.000174
C40	C	-0.015918	0.468071	0.500174
C41	C	-0.588364	-0.032991	0.000159
C42	C	-0.088364	0.467009	0.500159
C43	C	-0.362956	-0.044527	0.042642
C44	C	0.137044	0.455473	0.542642
C45	C	-0.290512	-0.043468	0.042662
C46	C	0.209488	0.456532	0.542662
C47	C	-0.247767	-0.091425	0.000241
C48	C	0.252233	0.408575	0.500241
C49	C	-0.277473	-0.140454	-0.042189
C50	C	0.222527	0.359546	0.457811
C51	C	-0.349918	-0.141517	-0.042205
C52	C	0.150082	0.358483	0.457795
C53	C	-0.392658	-0.093546	0.000214
C54	C	0.107342	0.406454	0.500214
C55	C	-0.124514	-0.153047	0.000269
C56	C	0.375486	0.346953	0.500269
C57	C	-0.052066	-0.151984	0.000272
C58	C	0.447934	0.348016	0.500272
C59	C	-0.069026	-0.025374	0.000259
C60	C	0.430974	0.474626	0.500259
C61	C	-0.141473	-0.026439	0.000248
C62	C	0.358527	0.473561	0.500248
C63	C	-0.169212	-0.090278	0.000256
C64	C	0.330788	0.409722	0.500256
C65	C	-0.814745	-0.219497	0.000234
C66	C	-0.314745	0.280503	0.500234
C67	C	-0.815874	-0.296601	0.000246
C68	C	-0.315874	0.203399	0.500246
N69	N	-0.820190	-0.092482	-0.188451
N70	N	-0.320190	0.407518	0.311549
C71	C	-0.887321	0.156316	0.000207
C72	C	-0.387321	0.656316	0.500207
C73	C	-0.886260	0.228763	0.000218
C74	C	-0.386260	0.728763	0.500218
C75	C	-0.822428	0.256511	0.000203
C76	C	-0.322428	0.756511	0.500203
C77	C	-0.759652	0.211805	0.000196
C78	C	-0.259652	0.711805	0.500196
C79	C	-0.760714	0.139359	0.000192
C80	C	-0.260714	0.639359	0.500192
C81	C	-0.772242	0.364800	-0.042227
C82	C	-0.272242	0.864800	0.457773
C83	C	-0.771182	0.437245	-0.042228
C84	C	-0.271182	0.937245	0.457772
C85	C	-0.819148	0.479956	0.000219
C86	C	-0.319148	0.979956	0.500219
C87	C	-0.868186	0.450216	0.042657
C88	C	-0.368186	0.950216	0.542657
C89	C	-0.869248	0.377771	0.042653
C90	C	-0.369248	0.877771	0.542653
C91	C	-0.821269	0.335065	0.000208
C92	C	-0.321269	0.835065	0.500208
C93	C	-0.880770	0.603209	0.000244
C94	C	-0.380770	1.103209	0.500244
C95	C	-0.879707	0.675657	0.000259
C96	C	-0.379707	1.175657	0.500259
C97	C	-0.753097	0.658697	0.000230
C98	C	-0.253097	1.158697	0.500230
C99	C	-0.754162	0.586250	0.000221
C100	C	-0.254162	1.086250	0.500221
C101	C	-0.818001	0.558511	0.000225
C102	C	-0.318001	1.058511	0.500225
C103	C	-0.867574	-0.045137	-0.226546
C104	C	-0.367574	0.454863	0.273454
C105	C	-0.867578	-0.045134	-0.302774
C106	C	-0.367578	0.454866	0.197226
C107	C	-0.820206	-0.092488	-0.340903
C108	C	-0.320206	0.407512	0.159097
C109	C	-0.772813	-0.139836	-0.302799
C110	C	-0.272813	0.360164	0.197201
C111	C	-0.772805	-0.139834	-0.226572
C112	C	-0.272805	0.360166	0.273428
C113	C	-0.810907	-0.155775	-0.461657
C114	C	-0.310907	0.344225	0.038343
C115	C	-0.810920	-0.155779	-0.537882
C116	C	-0.310920	0.344221	-0.037882
C117	C	-0.820225	-0.092496	-0.576011
C118	C	-0.320225	0.407504	-0.076011
C119	C	-0.829533	-0.029207	-0.537905
C120	C	-0.329533	0.470793	-0.037905
C121	C	-0.829525	-0.029204	-0.461679
C122	C	-0.329525	0.470796	0.038321
C123	C	-0.820208	-0.092496	-0.423558
C124	C	-0.320208	0.407504	0.076442
C125	C	-0.867617	-0.045144	-0.696761
C126	C	-0.367617	0.454856	-0.196761
C127	C	-0.867616	-0.045140	-0.772990
C128	C	-0.367616	0.454860	-0.272990
C129	C	-0.772854	-0.139849	-0.773014
C130	C	-0.272854	0.360151	-0.273014
C131	C	-0.772851	-0.139847	-0.696786
C132	C	-0.272851	0.360153	-0.196786
C133	C	-0.820236	-0.092495	-0.658664
C134	C	-0.320236	0.407505	-0.158664
N135	N	-0.820242	-0.092493	0.188885
N136	N	-0.320242	0.407507	0.688885
H137	H	-0.593987	-0.211580	0.000195
H138	H	-0.093987	0.288420	0.500195
H139	H	-0.462561	-0.209652	0.000209
H140	H	0.037439	0.290348	0.500209
Br141	Br	-0.798347	-0.241669	-0.409918
Br142	Br	-0.298347	0.258331	0.090082
Br143	Br	-0.162165	-0.239683	0.000275
Br144	Br	0.337835	0.260317	0.500275
H145	H	-0.906156	-0.006579	-0.195509
H146	H	-0.406156	0.493421	0.304491
H147	H	-0.939303	0.133736	0.000212
H148	H	-0.439303	0.633736	0.500212
H149	H	-0.734269	-0.178402	-0.665767
H150	H	-0.234269	0.321598	-0.165767
Br151	Br	-0.673021	0.249460	0.000185
Br152	Br	-0.173021	0.749460	0.500185
Br153	Br	-0.931922	0.019125	-0.824696
Br154	Br	-0.431922	0.519125	-0.324696
H155	H	-0.906198	-0.006585	-0.665721
H156	H	-0.406198	0.493415	-0.165721
Br157	Br	-0.798296	-0.241670	-0.589589
Br158	Br	-0.298296	0.258330	-0.089589
Br159	Br	-0.708493	-0.204092	-0.174867
Br160	Br	-0.208493	0.295908	0.325133
H161	H	-0.734279	-0.178402	-0.804058
H162	H	-0.234279	0.321598	-0.304058
Br163	Br	-0.390233	-0.208051	-0.099788
Br164	Br	0.109767	0.291949	0.400212
Br165	Br	-0.478263	0.054702	0.000171
Br166	Br	0.021737	0.554702	0.500171
H167	H	-0.733180	0.330029	-0.076796
H168	H	-0.233180	0.830029	0.423204
H169	H	-0.734240	-0.178392	-0.333848
H170	H	-0.234240	0.321608	0.166152
Br171	Br	-0.250202	0.023062	0.100256
Br172	Br	0.249798	0.523062	0.600256
H173	H	-0.907244	0.484991	0.077221
H174	H	-0.407244	0.984991	0.577221
H175	H	-0.015674	-0.203099	0.000284
H176	H	0.484326	0.296901	0.500284
Br177	Br	-0.219470	-0.205547	-0.099762
Br178	Br	0.280530	0.294453	0.400238
H179	H	-0.046435	0.026600	0.000306
H180	H	0.453565	0.526600	0.500306
H181	H	-0.177866	0.024674	0.000236
H182	H	0.322134	0.524674	0.500236
Br183	Br	-0.935792	0.337410	0.100247
Br184	Br	-0.435792	0.837410	0.600247
Br185	Br	-0.649028	0.052201	0.000131
Br186	Br	-0.149028	0.552201	0.500131
Br187	Br	-0.420962	0.020566	0.100216
Br188	Br	0.079038	0.520566	0.600216
Br189	Br	-0.971451	0.289434	0.000237
Br190	Br	-0.471451	0.789434	0.500237
Br191	Br	-0.967406	0.565558	0.000241
Br192	Br	-0.467406	1.065558	0.500241
Br193	Br	-0.964900	0.736319	0.000283
Br194	Br	-0.464900	1.236319	0.500283
H195	H	-0.701123	0.681288	0.000221
H196	H	-0.201123	1.181288	0.500221
H197	H	-0.703049	0.549857	0.000208
H198	H	-0.203049	1.049857	0.500208
Br199	Br	-0.931890	0.019127	-0.354484
Br200	Br	-0.431890	0.519127	0.145516
Br201	Br	-0.704636	0.477599	-0.099826
Br202	Br	-0.204636	0.977599	0.400174
H203	H	-0.709599	0.102967	0.000182
H204	H	-0.209599	0.602967	0.500182
Br205	Br	-0.842150	0.056684	-0.409966
Br206	Br	-0.342150	0.556684	0.090034
H207	H	-0.837110	0.022324	-0.568948
H208	H	-0.337110	0.522324	-0.068948
