data_functionalizedCrystal
_audit_creation_method	'MofGen! by Chris Wilmer'
_symmetry_space_group_name_H-M	'P1'
_symmetry_Int_Tables_number	1
_symmetry_cell_setting	triclinic
loop_
_symmetry_equiv_pos_as_xyz
  x,y,z
_cell_length_a	21.395362
_cell_length_b	12.759400
_cell_length_c	21.395356
_cell_angle_alpha	89.976983
_cell_angle_beta	89.957023
_cell_angle_gamma	90.030564
loop_
_atom_site_label
_atom_site_type_symbol
_atom_site_fract_x
_atom_site_fract_y
_atom_site_fract_z
Zn1	Zn	0.957923	-0.417848	-0.354606
Zn2	Zn	1.291257	-0.084514	-0.021273
Zn3	Zn	1.624590	0.248819	0.312061
Zn4	Zn	0.957857	-0.593540	-0.249837
Zn5	Zn	1.291190	-0.260207	0.083496
Zn6	Zn	1.624523	0.073126	0.416830
Zn7	Zn	0.853140	-0.417925	-0.249807
Zn8	Zn	1.186473	-0.084591	0.083526
Zn9	Zn	1.519807	0.248742	0.416859
Zn10	Zn	0.853137	-0.593534	-0.354542
Zn11	Zn	1.186470	-0.260200	-0.021208
Zn12	Zn	1.519803	0.073133	0.312125
O13	O	0.905514	-0.505711	-0.302198
O14	O	1.238848	-0.172378	0.031135
O15	O	1.572181	0.160955	0.364469
O16	O	1.045592	-0.441124	-0.340747
O17	O	1.378926	-0.107791	-0.007414
O18	O	1.712259	0.225543	0.325919
O19	O	0.943939	-0.570279	-0.162155
O20	O	1.277273	-0.236946	0.171178
O21	O	1.610606	0.096387	0.504512
O22	O	0.867069	-0.270893	-0.263723
O23	O	1.200402	0.062440	0.069610
O24	O	1.533736	0.395773	0.402943
O25	O	1.045544	-0.570205	-0.263774
O26	O	1.378877	-0.236871	0.069559
O27	O	1.712210	0.096462	0.402892
O28	O	0.944053	-0.270837	-0.340719
O29	O	1.277386	0.062497	-0.007385
O30	O	1.610719	0.395830	0.325948
O31	O	0.867004	-0.441255	-0.162133
O32	O	1.200338	-0.107922	0.171200
O33	O	1.533671	0.225411	0.504533
O34	O	0.765462	-0.441249	-0.263661
O35	O	1.098795	-0.107916	0.069672
O36	O	1.432128	0.225418	0.403006
O37	O	0.867063	-0.570194	-0.442228
O38	O	1.200397	-0.236860	-0.108895
O39	O	1.533730	0.096473	0.224438
O40	O	0.765459	-0.570268	-0.340609
O41	O	1.098793	-0.236935	-0.007276
O42	O	1.432126	0.096398	0.326058
O43	O	0.944050	-0.441118	-0.442275
O44	O	1.277383	-0.107784	-0.108942
O45	O	1.610716	0.225549	0.224391
O46	O	0.943936	-0.740560	-0.263712
O47	O	1.277270	-0.407227	0.069621
O48	O	1.610603	-0.073894	0.402955
O49	O	0.866999	-0.740556	-0.340638
O50	O	1.200332	-0.407222	-0.007305
O51	O	1.533666	-0.073889	0.326029
C52	C	0.742727	-0.505767	-0.302125
C53	C	1.076060	-0.172434	0.031208
C54	C	1.409393	0.160900	0.364541
C55	C	0.673085	-0.505816	-0.302109
C56	C	1.006419	-0.172483	0.031224
C57	C	1.339752	0.160851	0.364558
C58	C	0.640387	-0.573086	-0.342116
C59	C	0.973721	-0.239752	-0.008783
C60	C	1.307054	0.093581	0.324551
C61	C	0.574952	-0.573060	-0.342144
C62	C	0.908285	-0.239726	-0.008810
C63	C	1.241619	0.093607	0.324523
C64	C	0.542217	-0.505776	-0.302154
C65	C	0.875550	-0.172442	0.031180
C66	C	1.208884	0.160891	0.364513
C67	C	0.574923	-0.438493	-0.262144
C68	C	0.908256	-0.105160	0.071189
C69	C	1.241590	0.228173	0.404523
C70	C	0.640357	-0.438513	-0.262122
C71	C	0.973690	-0.105180	0.071212
C72	C	1.307024	0.228153	0.404545
C73	C	0.438492	-0.497327	-0.245748
C74	C	0.771825	-0.163994	0.087585
C75	C	1.105158	0.169340	0.420919
C76	C	0.373059	-0.497314	-0.245769
C77	C	0.706392	-0.163981	0.087564
C78	C	1.039725	0.169352	0.420897
C79	C	0.340396	-0.505707	-0.302223
C80	C	0.673730	-0.172374	0.031110
C81	C	1.007063	0.160960	0.364444
C82	C	0.373175	-0.514135	-0.358657
C83	C	0.706508	-0.180802	-0.025324
C84	C	1.039841	0.152532	0.308010
C85	C	0.438609	-0.514155	-0.358635
C86	C	0.771942	-0.180822	-0.025301
C87	C	1.105276	0.152511	0.308032
C88	C	0.471265	-0.505746	-0.302174
C89	C	0.804598	-0.172412	0.031160
C90	C	1.137931	0.160921	0.364493
C91	C	0.236746	-0.572952	-0.342263
C92	C	0.570079	-0.239619	-0.008930
C93	C	0.903412	0.093714	0.324403
C94	C	0.171309	-0.572919	-0.342292
C95	C	0.504643	-0.239586	-0.008959
C96	C	0.837976	0.093748	0.324374
C97	C	0.171281	-0.438358	-0.262287
C98	C	0.504615	-0.105025	0.071046
C99	C	0.837948	0.228309	0.404380
C100	C	0.236717	-0.438386	-0.262264
C101	C	0.570050	-0.105052	0.071070
C102	C	0.903383	0.228281	0.404403
C103	C	0.269445	-0.505688	-0.302251
C104	C	0.602778	-0.172355	0.031082
C105	C	0.936112	0.160978	0.364416
C106	C	0.905477	-0.778679	-0.302185
C107	C	1.238810	-0.445346	0.031148
C108	C	1.572144	-0.112012	0.364482
C109	C	0.905518	-0.895455	-0.302200
C110	C	1.238852	-0.562122	0.031133
C111	C	1.572185	-0.228789	0.364466
C112	C	0.945624	-0.950285	-0.262189
C113	C	1.278958	-0.616952	0.071144
C114	C	1.612291	-0.283618	0.404477
C115	C	0.945663	-1.060009	-0.262209
C116	C	1.278996	-0.726676	0.071125
C117	C	1.612329	-0.393342	0.404458
C118	C	0.865484	-1.060064	-0.342252
C119	C	1.198818	-0.726731	-0.008918
C120	C	1.532151	-0.393398	0.324415
C121	C	0.865449	-0.950342	-0.342235
C122	C	1.198783	-0.617009	-0.008902
C123	C	1.532116	-0.283676	0.324432
C124	C	0.991913	-0.950254	-0.215975
C125	C	1.325246	-0.616921	0.117359
C126	C	1.658579	-0.283587	0.450692
C127	C	0.991951	-1.059978	-0.215994
C128	C	1.325285	-0.726645	0.117339
C129	C	1.658618	-0.393311	0.450673
C130	C	1.068938	-0.505656	-0.302271
C131	C	1.402271	-0.172323	0.031062
C132	C	1.735604	0.161010	0.364395
C133	C	1.138579	-0.505633	-0.302303
C134	C	1.471912	-0.172300	0.031031
C135	C	1.805245	0.161034	0.364364
C136	C	0.905563	-0.505646	-0.465621
C137	C	1.238897	-0.172313	-0.132288
C138	C	1.572230	0.161020	0.201045
C139	C	0.905584	-0.505619	-0.535263
C140	C	1.238918	-0.172285	-0.201929
C141	C	1.572251	0.161048	0.131404
C142	C	0.905569	-0.231678	-0.302225
C143	C	1.238902	0.101655	0.031108
C144	C	1.572235	0.434988	0.364442
C145	C	0.905592	-0.114902	-0.302236
C146	C	1.238925	0.218432	0.031097
C147	C	1.572258	0.551765	0.364430
C148	C	0.865535	-0.438428	-0.567955
C149	C	1.198868	-0.105095	-0.234621
C150	C	1.532202	0.228238	0.098712
C151	C	0.865533	-0.438409	-0.633390
C152	C	1.198866	-0.105075	-0.300057
C153	C	1.532200	0.228258	0.033277
C154	C	0.905591	-0.505569	-0.666131
C155	C	1.238925	-0.172235	-0.332798
C156	C	1.572258	0.161098	0.000536
C157	C	0.945644	-0.572772	-0.633431
C158	C	1.278977	-0.239439	-0.300098
C159	C	1.612310	0.093895	0.033235
C160	C	0.945640	-0.572797	-0.567997
C161	C	1.278973	-0.239464	-0.234664
C162	C	1.612307	0.093870	0.098670
C163	C	0.962045	-0.513802	-0.769837
C164	C	1.295378	-0.180469	-0.436504
C165	C	1.628711	0.152864	-0.103170
C166	C	0.962049	-0.513770	-0.835270
C167	C	1.295383	-0.180437	-0.501937
C168	C	1.628716	0.152897	-0.168603
C169	C	0.905602	-0.505498	-0.867952
C170	C	1.238935	-0.172164	-0.534619
C171	C	1.572268	0.161169	-0.201285
C172	C	0.849148	-0.497236	-0.835193
C173	C	1.182481	-0.163902	-0.501860
C174	C	1.515815	0.169431	-0.168526
C175	C	0.849144	-0.497261	-0.769759
C176	C	1.182478	-0.163927	-0.436425
C177	C	1.515811	0.169406	-0.103092
C178	C	0.905599	-0.505549	-0.737083
C179	C	1.238933	-0.172216	-0.403750
C180	C	1.572266	0.161117	-0.070417
C181	C	0.865547	-0.438283	-0.971596
C182	C	1.198880	-0.104949	-0.638263
C183	C	1.532213	0.228384	-0.304930
C184	C	0.865543	-0.438270	-1.037033
C185	C	1.198877	-0.104937	-0.703700
C186	C	1.532210	0.228396	-0.370366
C187	C	0.945660	-0.572628	-1.037073
C188	C	1.278993	-0.239295	-0.703740
C189	C	1.612326	0.094038	-0.370406
C190	C	0.945657	-0.572646	-0.971638
C191	C	1.278991	-0.239313	-0.638304
C192	C	1.612324	0.094021	-0.304971
C193	C	0.905602	-0.505467	-0.938903
C194	C	1.238935	-0.172134	-0.605570
C195	C	1.572268	0.161199	-0.272237
C196	C	0.905501	-0.505701	-0.139410
C197	C	1.238834	-0.172367	0.193923
C198	C	1.572168	0.160966	0.527256
C199	C	0.905602	-0.505432	-0.069770
C200	C	1.238935	-0.172099	0.263564
C201	C	1.572268	0.161234	0.596897
H202	H	0.548324	-0.627838	-0.374725
H203	H	0.881657	-0.294505	-0.041391
H204	H	1.214991	0.038829	0.291942
Cl205	Cl	0.815038	-0.881417	-0.392547
Cl206	Cl	1.148372	-0.548083	-0.059213
Cl207	Cl	1.481705	-0.214750	0.274120
H208	H	0.666979	-0.383731	-0.229543
H209	H	1.000313	-0.050398	0.103790
H210	H	1.333646	0.282935	0.437123
H211	H	0.832862	-1.104766	-0.374847
H212	H	1.166195	-0.771433	-0.041514
H213	H	1.499529	-0.438100	0.291819
Cl214	Cl	1.033014	-0.524210	-0.728758
Cl215	Cl	1.366348	-0.190877	-0.395424
Cl216	Cl	1.699681	0.142456	-0.062091
Cl217	Cl	0.533771	-0.353902	-0.211874
Cl218	Cl	0.867105	-0.020569	0.121459
Cl219	Cl	1.200438	0.312764	0.454793
H220	H	1.008017	-0.520492	-0.861937
H221	H	1.341351	-0.187159	-0.528604
H222	H	1.674684	0.146174	-0.195271
H223	H	0.978277	-0.627309	-1.063730
H224	H	1.311611	-0.293976	-0.730397
H225	H	1.644944	0.039358	-0.397063
Cl226	Cl	1.066806	-0.904118	-0.236124
Cl227	Cl	1.400140	-0.570785	0.097209
Cl228	Cl	1.733473	-0.237451	0.430543
Cl229	Cl	0.996012	-0.657112	-0.930537
Cl230	Cl	1.329346	-0.323778	-0.597204
Cl231	Cl	1.662679	0.009555	-0.263870
H232	H	0.346376	-0.490458	-0.199817
H233	H	0.679709	-0.157125	0.133516
H234	H	1.013042	0.176208	0.466849
H235	H	0.832931	-0.383583	-0.944943
H236	H	1.166264	-0.050249	-0.611609
H237	H	1.499597	0.283084	-0.278276
H238	H	0.978259	-0.627454	-0.660093
H239	H	1.311593	-0.294121	-0.326760
H240	H	1.644926	0.039212	0.006573
H241	H	0.974542	-0.916303	-0.169854
H242	H	1.307875	-0.582970	0.163480
H243	H	1.641209	-0.249637	0.496813
Cl244	Cl	1.063122	-1.112369	-0.242929
Cl245	Cl	1.396455	-0.779036	0.090404
Cl246	Cl	1.729788	-0.445703	0.423738
H247	H	0.978986	-1.089834	-0.167457
H248	H	1.312320	-0.756501	0.165877
H249	H	1.645653	-0.423168	0.499210
H250	H	0.832916	-0.383730	-0.541306
H251	H	1.166250	-0.050397	-0.207973
H252	H	1.499583	0.282937	0.125360
Cl253	Cl	0.130135	-0.353765	-0.212017
Cl254	Cl	0.463468	-0.020431	0.121316
Cl255	Cl	0.796802	0.312902	0.454650
H256	H	0.465080	-0.490488	-0.199774
H257	H	0.798414	-0.157155	0.133560
H258	H	1.131747	0.176179	0.466893
H259	H	0.832921	-0.383689	-0.660013
H260	H	1.166254	-0.050356	-0.326680
H261	H	1.499588	0.282978	0.006654
Cl262	Cl	0.778177	-0.486882	-0.728578
Cl263	Cl	1.111511	-0.153549	-0.395245
Cl264	Cl	1.444844	0.179785	-0.061911
H265	H	0.144688	-0.627696	-0.374875
H266	H	0.478021	-0.294363	-0.041541
H267	H	0.811354	0.038971	0.291792
H268	H	0.803183	-0.490492	-0.861801
H269	H	1.136517	-0.157159	-0.528468
H270	H	1.469850	0.176174	-0.195134
Cl271	Cl	0.995993	-0.657270	-0.526897
Cl272	Cl	1.329327	-0.323937	-0.193563
Cl273	Cl	1.662660	0.009396	0.139770
H274	H	0.465294	-0.521014	-0.404585
H275	H	0.798628	-0.187681	-0.071252
H276	H	1.131961	0.145652	0.262082
Cl277	Cl	0.681528	-0.657690	-0.392388
Cl278	Cl	1.014861	-0.324356	-0.059055
Cl279	Cl	1.348195	0.008977	0.274278
Cl280	Cl	0.277893	-0.657553	-0.392536
Cl281	Cl	0.611226	-0.324219	-0.059202
Cl282	Cl	0.944560	0.009114	0.274131
Cl283	Cl	0.332121	-0.524680	-0.429633
Cl284	Cl	0.665454	-0.191347	-0.096299
Cl285	Cl	0.998788	0.141986	0.237034
Cl286	Cl	0.815173	-0.353824	-1.078132
Cl287	Cl	1.148506	-0.020491	-0.744799
Cl288	Cl	1.481840	0.312842	-0.411465
H289	H	0.263340	-0.383613	-0.229683
H290	H	0.596673	-0.050279	0.103651
H291	H	0.930006	0.283054	0.436984
