data_functionalizedCrystal
_audit_creation_method	'MofGen! by Chris Wilmer'
_symmetry_space_group_name_H-M	'P1'
_symmetry_Int_Tables_number	1
_symmetry_cell_setting	triclinic
loop_
_symmetry_equiv_pos_as_xyz
  x,y,z
_cell_length_a	15.944545
_cell_length_b	15.944551
_cell_length_c	15.186229
_cell_angle_alpha	90.004697
_cell_angle_beta	90.000573
_cell_angle_gamma	83.497455
loop_
_atom_site_label
_atom_site_type_symbol
_atom_site_fract_x
_atom_site_fract_y
_atom_site_fract_z
O1	O	1.114526	0.108306	0.073173
O2	O	1.447860	0.441639	0.406507
O3	O	1.781193	0.774973	0.739840
O4	O	0.869976	0.121668	0.073188
O5	O	1.203309	0.455001	0.406521
O6	O	1.536642	0.788334	0.739855
O7	O	0.998929	-0.007288	0.073172
O8	O	1.332262	0.326045	0.406506
O9	O	1.665596	0.659378	0.739839
O10	O	0.985573	0.237262	0.073189
O11	O	1.318906	0.570595	0.406522
O12	O	1.652240	0.903928	0.739856
O13	O	0.998921	-0.007290	-0.073285
O14	O	1.332254	0.326043	0.260048
O15	O	1.665587	0.659377	0.593382
O16	O	0.869967	0.121666	-0.073269
O17	O	1.203301	0.454999	0.260064
O18	O	1.536634	0.788332	0.593397
O19	O	1.114518	0.108304	-0.073284
O20	O	1.447851	0.441637	0.260050
O21	O	1.781184	0.774971	0.593383
Zn22	Zn	0.992241	0.114985	-0.096530
Zn23	Zn	1.325574	0.448318	0.236804
Zn24	Zn	1.658908	0.781651	0.570137
Zn25	Zn	0.992252	0.114987	0.096434
Zn26	Zn	1.325586	0.448320	0.429767
Zn27	Zn	1.658919	0.781654	0.763101
O28	O	0.985564	0.237260	-0.073268
O29	O	1.318898	0.570593	0.260065
O30	O	1.652231	0.903927	0.593398
C31	C	0.838677	0.121113	-0.000039
C32	C	1.172011	0.454446	0.333294
C33	C	1.505344	0.787780	0.666628
C34	C	0.745431	0.119453	-0.000034
C35	C	1.078764	0.452786	0.333300
C36	C	1.412098	0.786119	0.666633
C37	C	0.998370	-0.038583	-0.000056
C38	C	1.331704	0.294750	0.333277
C39	C	1.665037	0.628084	0.666610
C40	C	0.996708	-0.131829	-0.000057
C41	C	1.330041	0.201504	0.333277
C42	C	1.663375	0.534838	0.666610
C43	C	0.474798	0.034559	-0.000049
C44	C	0.808132	0.367892	0.333285
C45	C	1.141465	0.701226	0.666618
C46	C	0.525376	0.075487	-0.072259
C47	C	0.858709	0.408820	0.261074
C48	C	1.192042	0.742154	0.594408
C49	C	0.409787	0.113532	-0.000049
C50	C	0.743121	0.446865	0.333284
C51	C	1.076454	0.780199	0.666618
C52	C	0.525365	0.075510	0.072136
C53	C	0.858698	0.408843	0.405470
C54	C	1.192032	0.742177	0.738803
C55	C	0.574701	0.116437	-0.000040
C56	C	0.908034	0.449770	0.333293
C57	C	1.241368	0.783103	0.666627
C58	C	0.459136	0.154439	-0.072319
C59	C	0.792470	0.487772	0.261014
C60	C	1.125803	0.821106	0.594348
C61	C	0.459122	0.154450	0.072141
C62	C	0.792455	0.487784	0.405474
C63	C	1.125789	0.821117	0.738808
C64	C	0.509667	0.195436	-0.000087
C65	C	0.843000	0.528770	0.333246
C66	C	1.176333	0.862103	0.666580
C67	C	0.314785	0.111856	-0.000055
C68	C	0.648119	0.445190	0.333278
C69	C	0.981452	0.778523	0.666612
C70	C	0.669700	0.118119	-0.000040
C71	C	1.003034	0.451452	0.333293
C72	C	1.336367	0.784785	0.666626
C73	C	0.912803	-0.346684	-0.000040
C74	C	1.246137	-0.013351	0.333294
C75	C	1.579470	0.319983	0.666627
C76	C	0.951762	-0.407703	-0.072254
C77	C	1.285095	-0.074370	0.261079
C78	C	1.618428	0.258964	0.594412
C79	C	0.993701	-0.302555	-0.000050
C80	C	1.327034	0.030778	0.333284
C81	C	1.660367	0.364112	0.666617
C82	C	0.951789	-0.407685	0.072141
C83	C	1.285123	-0.074351	0.405474
C84	C	1.618456	0.258982	0.738808
C85	C	0.990790	-0.467468	-0.000039
C86	C	1.324123	-0.134134	0.333294
C87	C	1.657457	0.199199	0.666627
C88	C	1.032681	-0.362346	-0.072324
C89	C	1.366015	-0.029012	0.261009
C90	C	1.699348	0.304321	0.594343
C91	C	1.032697	-0.362321	0.072136
C92	C	1.366031	-0.028988	0.405470
C93	C	1.699364	0.304346	0.738803
C94	C	1.071715	-0.423322	-0.000096
C95	C	1.405048	-0.089989	0.333237
C96	C	1.738381	0.243344	0.666571
C97	C	0.995375	-0.207553	-0.000057
C98	C	1.328709	0.125781	0.333277
C99	C	1.662042	0.459114	0.666610
C100	C	0.989122	-0.562469	-0.000039
C101	C	1.322455	-0.229135	0.333295
C102	C	1.655788	0.104198	0.666628
C103	C	1.145816	0.108859	-0.000055
C104	C	1.479149	0.442192	0.333278
C105	C	1.812483	0.775525	0.666612
C106	C	1.239062	0.110519	-0.000054
C107	C	1.572396	0.443852	0.333279
C108	C	1.905729	0.777186	0.666612
C109	C	0.986123	0.268555	-0.000037
C110	C	1.319456	0.601888	0.333296
C111	C	1.652790	0.935221	0.666629
C112	C	0.987785	0.361801	-0.000031
C113	C	1.321119	0.695134	0.333302
C114	C	1.654452	1.028467	0.666635
N115	N	0.992239	0.114982	-0.228222
N116	N	1.325573	0.448316	0.105111
N117	N	1.658906	0.781649	0.438444
C118	C	1.049359	0.057900	-0.453952
C119	C	1.382693	0.391233	-0.120619
C120	C	1.716026	0.724567	0.212714
C121	C	1.049362	0.057898	-0.546142
C122	C	1.382695	0.391231	-0.212809
C123	C	1.716029	0.724565	0.120525
C124	C	0.935135	0.172068	-0.546137
C125	C	1.268468	0.505401	-0.212804
C126	C	1.601801	0.838734	0.120530
C127	C	0.935129	0.172065	-0.453949
C128	C	1.268462	0.505398	-0.120616
C129	C	1.601795	0.838732	0.212718
C130	C	0.992246	0.114982	-0.407859
C131	C	1.325579	0.448315	-0.074526
C132	C	1.658912	0.781649	0.258808
C133	C	0.992254	0.114983	-0.592237
C134	C	1.325588	0.448316	-0.258903
C135	C	1.658921	0.781649	0.074430
C136	C	0.992257	0.114981	-0.692193
C137	C	1.325590	0.448314	-0.358859
C138	C	1.658923	0.781648	-0.025526
C139	C	0.992242	0.114983	-0.307897
C140	C	1.325576	0.448316	0.025437
C141	C	1.658909	0.781649	0.358770
N142	N	0.992261	0.114983	0.228127
N143	N	1.325594	0.448316	0.561460
N144	N	1.658927	0.781649	0.894793
H145	H	0.459145	-0.033453	-0.000124
H146	H	0.792478	0.299880	0.333210
H147	H	1.125812	0.633213	0.666543
H148	H	0.554303	0.042134	-0.133312
H149	H	0.887636	0.375467	0.200021
H150	H	1.220970	0.708801	0.533355
H151	H	0.917542	-0.427811	-0.133302
H152	H	1.250875	-0.094478	0.200031
H153	H	1.584208	0.238855	0.533365
H154	H	1.066888	-0.342191	0.133187
H155	H	1.400221	-0.008857	0.466520
H156	H	1.733555	0.324476	0.799854
O157	O	0.563687	0.031296	0.152980
O158	O	0.897021	0.364630	0.486313
O159	O	1.230354	0.697963	0.819647
H160	H	0.633023	0.033447	0.152543
H161	H	0.966356	0.366780	0.485876
H162	H	1.299689	0.700113	0.819209
O163	O	1.110973	-0.003658	-0.595860
O164	O	1.444306	0.329675	-0.262527
O165	O	1.777640	0.663009	0.070806
H166	H	1.150693	-0.043342	-0.548320
H167	H	1.484026	0.289991	-0.214987
H168	H	1.817359	0.623325	0.118347
O169	O	0.420768	0.198581	0.153015
O170	O	0.754101	0.531914	0.486348
O171	O	1.087434	0.865248	0.819682
H172	H	0.471485	0.221267	0.193660
H173	H	0.804818	0.554600	0.526994
H174	H	1.138151	0.887934	0.860327
O175	O	1.077968	-0.335874	-0.153280
O176	O	1.411301	-0.002540	0.180053
O177	O	1.744635	0.330793	0.513386
H178	H	1.099263	-0.392440	-0.193478
H179	H	1.432596	-0.059107	0.139855
H180	H	1.765930	0.274226	0.473188
H181	H	0.917566	-0.427760	0.133197
H182	H	1.250899	-0.094427	0.466531
H183	H	1.584233	0.238907	0.799864
H184	H	0.430323	0.187766	-0.133433
H185	H	0.763657	0.521099	0.199900
H186	H	1.096990	0.854432	0.533234
O187	O	0.823864	-0.302549	-0.000123
O188	O	1.157197	0.030784	0.333210
O189	O	1.490530	0.364117	0.666543
H190	H	0.790480	-0.320598	-0.060158
H191	H	1.123813	0.012735	0.273176
H192	H	1.457147	0.346069	0.606509
H193	H	0.525159	0.263501	-0.000125
H194	H	0.858492	0.596835	0.333209
H195	H	1.191825	0.930168	0.666542
H196	H	1.138922	-0.456483	-0.000141
H197	H	1.472255	-0.123149	0.333193
H198	H	1.805589	0.210184	0.666526
O199	O	1.110951	-0.003674	-0.404236
O200	O	1.444285	0.329660	-0.070903
O201	O	1.777618	0.662993	0.262430
H202	H	1.150659	-0.043373	-0.451780
H203	H	1.483993	0.289961	-0.118446
H204	H	1.817326	0.623294	0.214887
O205	O	0.873540	0.233644	-0.595847
O206	O	1.206874	0.566977	-0.262514
O207	O	1.540207	0.900311	0.070820
H208	H	0.883146	0.224065	-0.667695
H209	H	1.216479	0.557398	-0.334362
H210	H	1.549812	0.890731	-0.001029
O211	O	0.873528	0.233637	-0.404224
O212	O	1.206861	0.566971	-0.070890
O213	O	1.540194	0.900304	0.262443
H214	H	0.833821	0.273340	-0.451759
H215	H	1.167154	0.606674	-0.118426
H216	H	1.500487	0.940007	0.214908
