data_functionalizedCrystal
_audit_creation_method	'MofGen! by Chris Wilmer'
_symmetry_space_group_name_H-M	'P1'
_symmetry_Int_Tables_number	1
_symmetry_cell_setting	triclinic
loop_
_symmetry_equiv_pos_as_xyz
  x,y,z
_cell_length_a	21.395362
_cell_length_b	13.031981
_cell_length_c	21.395356
_cell_angle_alpha	82.789575
_cell_angle_beta	89.964122
_cell_angle_gamma	97.204883
loop_
_atom_site_label
_atom_site_type_symbol
_atom_site_fract_x
_atom_site_fract_y
_atom_site_fract_z
Zn1	Zn	0.926236	-0.415703	-0.322908
Zn2	Zn	0.912877	-0.590497	-0.204810
Zn3	Zn	0.821460	-0.415781	-0.218103
Zn4	Zn	0.808145	-0.590490	-0.309515
O5	O	0.867179	-0.503118	-0.263834
O6	O	1.012144	-0.438860	-0.307283
O7	O	0.900732	-0.567357	-0.118893
O8	O	0.846522	-0.269502	-0.243173
O9	O	1.002329	-0.567281	-0.220518
O10	O	0.923500	-0.269445	-0.320173
O11	O	0.833568	-0.438994	-0.128659
O12	O	0.732013	-0.438986	-0.230187
O13	O	0.823828	-0.567268	-0.398973
O14	O	0.722231	-0.567343	-0.297348
O15	O	0.910589	-0.438853	-0.408812
O16	O	0.887821	-0.736765	-0.207532
O17	O	0.810874	-0.736759	-0.284458
C18	C	0.704387	-0.503173	-0.263757
C19	C	0.634742	-0.503222	-0.263737
C20	C	0.596945	-0.570146	-0.298641
C21	C	0.531512	-0.570121	-0.298671
C22	C	0.503877	-0.503182	-0.263785
C23	C	0.541683	-0.436244	-0.228879
C24	C	0.607116	-0.436264	-0.228856
C25	C	0.400799	-0.494777	-0.208020
C26	C	0.335367	-0.494764	-0.208042
C27	C	0.302062	-0.503113	-0.263859
C28	C	0.334195	-0.511497	-0.319654
C29	C	0.399628	-0.511517	-0.319630
C30	C	0.432927	-0.503152	-0.263807
C31	C	0.193314	-0.570014	-0.298798
C32	C	0.127880	-0.569981	-0.298830
C33	C	0.138052	-0.436110	-0.229033
C34	C	0.203485	-0.436137	-0.229007
C35	C	0.231112	-0.503095	-0.263889
C36	C	0.846470	-0.774687	-0.243113
C37	C	0.837668	-0.890866	-0.234270
C38	C	0.871806	-0.942550	-0.268462
C39	C	0.862710	-1.062627	-0.259323
C40	C	1.030607	-0.503063	-0.263912
C41	C	1.100250	-0.503040	-0.263945
C42	C	0.867213	-0.503051	-0.427262
C43	C	0.867228	-0.503022	-0.496906
C44	C	0.887986	-0.230488	-0.284650
C45	C	0.896853	-0.114309	-0.293520
C46	C	0.912476	-0.435990	-1.003839
C47	C	0.912469	-0.436015	-0.938402
C48	C	0.867292	-0.502883	-0.900555
C49	C	0.822129	-0.569749	-0.928149
C50	C	0.822141	-0.569730	-0.993585
C51	C	0.810193	-0.511186	-0.796227
C52	C	0.810180	-0.511199	-0.730793
C53	C	0.867255	-0.502950	-0.698729
C54	C	0.924346	-0.494666	-0.732109
C55	C	0.924358	-0.494646	-0.797544
C56	C	0.867274	-0.502912	-0.829600
C57	C	0.912411	-0.436120	-0.600188
C58	C	0.912405	-0.436152	-0.534748
C59	C	0.822059	-0.569881	-0.524497
C60	C	0.822071	-0.569854	-0.589935
C61	C	0.867246	-0.502968	-0.627776
C62	C	0.867187	-0.503109	-0.101047
C63	C	0.867316	-0.502843	-0.031426
H64	H	0.425788	-0.518341	-0.365060
O65	O	0.748603	-0.520098	-0.694803
H66	H	0.719550	-0.594469	-0.701661
H67	H	0.970822	-0.487945	-0.706004
O68	O	0.108251	-0.363920	-0.191400
H69	H	0.082528	-0.310797	-0.223556
H70	H	0.949244	-0.381571	-0.915936
O71	O	0.944500	-1.055175	-0.341254
H72	H	0.992112	-1.075996	-0.328989
O73	O	0.436714	-0.485774	-0.147811
H74	H	0.471943	-0.414972	-0.154261
H75	H	0.785365	-0.624172	-1.016045
H76	H	0.500731	-0.624618	-0.327096
H77	H	0.826743	-1.107271	-0.223284
O78	O	0.961204	-0.363854	-1.044650
H79	H	0.953625	-0.375063	-1.094788
O80	O	0.223109	-0.642206	-0.336441
H81	H	0.256526	-0.595484	-0.371912
O82	O	0.961117	-0.364047	-0.504988
H83	H	0.992528	-0.317532	-0.542298
H84	H	0.637891	-0.381763	-0.200433
H85	H	0.785294	-0.624289	-0.612396
H86	H	0.519179	-0.381740	-0.200476
H87	H	0.907766	-0.897906	-0.304504
H88	H	0.801703	-0.935513	-0.198233
H89	H	0.970843	-0.487904	-0.824719
O90	O	0.961135	-0.363966	-0.640997
H91	H	0.937146	-0.310779	-0.674844
H92	H	0.785277	-0.624330	-0.493683
H93	H	0.785346	-0.624195	-0.897330
H94	H	0.763712	-0.517905	-0.822328
O95	O	0.298278	-0.520485	-0.379862
H96	H	0.315960	-0.454091	-0.415746
H97	H	0.097106	-0.624476	-0.327257
O98	O	0.626745	-0.642347	-0.336271
H99	H	0.589466	-0.688871	-0.360553
H100	H	0.234260	-0.381645	-0.200581
H101	H	0.309208	-0.487944	-0.162610
