data_functionalizedCrystal
_audit_creation_method	'MofGen! by Chris Wilmer'
_symmetry_space_group_name_H-M	'P1'
_symmetry_Int_Tables_number	1
_symmetry_cell_setting	triclinic
loop_
_symmetry_equiv_pos_as_xyz
  x,y,z
_cell_length_a	10.723024
_cell_length_b	10.723024
_cell_length_c	9.198806
_cell_angle_alpha	89.995977
_cell_angle_beta	90.002264
_cell_angle_gamma	95.532131
loop_
_atom_site_label
_atom_site_type_symbol
_atom_site_fract_x
_atom_site_fract_y
_atom_site_fract_z
O1	O	0.175025	-1.657187	0.120900
O2	O	0.508358	-1.323854	0.454233
O3	O	0.841692	-0.990521	0.787567
O4	O	0.191778	-1.294035	0.120900
O5	O	0.525112	-0.960702	0.454233
O6	O	0.858445	-0.627368	0.787567
O7	O	0.001825	-1.483988	0.120895
O8	O	0.335159	-1.150654	0.454228
O9	O	0.668492	-0.817321	0.787561
O10	O	0.364978	-1.467234	0.120906
O11	O	0.698311	-1.133901	0.454239
O12	O	1.031644	-0.800568	0.787572
O13	O	0.001824	-1.483974	-0.120890
O14	O	0.335157	-1.150640	0.212443
O15	O	0.668491	-0.817307	0.545776
O16	O	0.191777	-1.294021	-0.120885
O17	O	0.525110	-0.960687	0.212448
O18	O	0.858443	-0.627354	0.545782
O19	O	0.175023	-1.657173	-0.120885
O20	O	0.508357	-1.323840	0.212448
O21	O	0.841690	-0.990506	0.545782
Cu22	Cu	0.183400	-1.475596	-0.142962
Cu23	Cu	0.516733	-1.142262	0.190372
Cu24	Cu	0.850067	-0.808929	0.523705
Cu25	Cu	0.183402	-1.475612	0.142977
Cu26	Cu	0.516735	-1.142279	0.476310
Cu27	Cu	0.850068	-0.808946	0.809644
O28	O	0.364976	-1.467220	-0.120880
O29	O	0.698310	-1.133887	0.212454
O30	O	1.031643	-0.800554	0.545787
C31	C	0.190558	-1.247528	0.000008
C32	C	0.523892	-0.914195	0.333341
C33	C	0.857225	-0.580862	0.666674
C34	C	0.186911	-1.108974	0.000008
C35	C	0.520244	-0.775641	0.333341
C36	C	0.853577	-0.442307	0.666674
C37	C	0.293198	-1.033991	0.000011
C38	C	0.626532	-0.700658	0.333344
C39	C	0.959865	-0.367325	0.666677
C40	C	0.289431	-0.890788	0.000011
C41	C	0.622764	-0.557455	0.333344
C42	C	0.956097	-0.224121	0.666677
C43	C	-0.044675	-1.482762	0.000004
C44	C	0.288658	-1.149428	0.333337
C45	C	0.621992	-0.816095	0.666671
C46	C	-0.183229	-1.479114	0.000009
C47	C	0.150104	-1.145780	0.333342
C48	C	0.483437	-0.812447	0.666676
C49	C	-0.258212	-1.585401	0.000011
C50	C	0.075122	-1.252068	0.333344
C51	C	0.408455	-0.918735	0.666678
C52	C	-0.401415	-1.581634	0.000016
C53	C	-0.068082	-1.248301	0.333350
C54	C	0.265251	-0.914967	0.666683
C55	C	0.411477	-1.468447	0.000014
C56	C	0.744810	-1.135113	0.333348
C57	C	1.078143	-0.801780	0.666681
C58	C	0.550031	-1.472094	0.000019
C59	C	0.883364	-1.138761	0.333352
C60	C	1.216698	-0.805428	0.666686
N61	N	0.183398	-1.475593	-0.344076
N62	N	0.516731	-1.142260	-0.010742
N63	N	0.850065	-0.808926	0.322591
C64	C	0.176243	-0.703680	0.000008
C65	C	0.509577	-0.370346	0.333341
C66	C	0.842910	-0.037013	0.666674
C67	C	0.179891	-0.842234	0.000008
C68	C	0.513224	-0.508901	0.333341
C69	C	0.846558	-0.175567	0.666674
C70	C	0.103469	-1.555546	-0.583679
C71	C	0.436802	-1.222212	-0.250346
C72	C	0.770136	-0.888879	0.082988
C73	C	0.103471	-1.555529	-0.416267
C74	C	0.436804	-1.222196	-0.082933
C75	C	0.770137	-0.888863	0.250400
N76	N	0.183394	-1.475625	0.344091
N77	N	0.516727	-1.142292	0.677424
N78	N	0.850061	-0.808958	1.010758
H79	H	0.093125	-1.067152	0.000041
H80	H	0.426458	-0.733818	0.333375
H81	H	0.759791	-0.400485	0.666708
H82	H	0.035045	-1.623987	-0.645777
H83	H	0.368378	-1.290653	-0.312443
H84	H	0.701712	-0.957320	0.020890
H85	H	-0.385544	-1.381099	0.000007
H86	H	-0.052211	-1.047765	0.333341
H87	H	0.281123	-0.714432	0.666674
H88	H	-0.225051	-1.385328	0.000019
H89	H	0.108282	-1.051995	0.333352
H90	H	0.441615	-0.718661	0.666685
H91	H	-0.465848	-1.672624	0.000012
H92	H	-0.132514	-1.339291	0.333345
H93	H	0.200819	-1.005958	0.666678
H94	H	0.035039	-1.623948	-0.354152
H95	H	0.368372	-1.290615	-0.020819
H96	H	0.701706	-0.957282	0.312515
H97	H	0.251824	-1.407161	-0.406181
H98	H	0.585157	-1.073828	-0.072848
H99	H	0.918491	-0.740495	0.260486
Cl100	Cl	0.289053	-1.369967	-0.560042
Cl101	Cl	0.622387	-1.036634	-0.226709
Cl102	Cl	0.955720	-0.703300	0.106625
H103	H	0.386984	-1.075814	0.000006
H104	H	0.720318	-0.742480	0.333339
H105	H	1.053651	-0.409147	0.666673
H106	H	0.380421	-0.826355	0.000019
H107	H	0.713754	-0.493022	0.333353
H108	H	1.047088	-0.159689	0.666686
H109	H	-0.216390	-1.679187	0.000002
H110	H	0.116944	-1.345854	0.333336
H111	H	0.450277	-1.012521	0.666669
H112	H	0.088896	-0.906659	0.000014
H113	H	0.422229	-0.573326	0.333347
H114	H	0.755562	-0.239993	0.666681
