data_functionalizedCrystal
_audit_creation_method	'MofGen! by Chris Wilmer'
_symmetry_space_group_name_H-M	'P1'
_symmetry_Int_Tables_number	1
_symmetry_cell_setting	triclinic
loop_
_symmetry_equiv_pos_as_xyz
  x,y,z
_cell_length_a	12.759400
_cell_length_b	10.686154
_cell_length_c	10.685971
_cell_angle_alpha	98.372590
_cell_angle_beta	85.637332
_cell_angle_gamma	85.606436
loop_
_atom_site_label
_atom_site_type_symbol
_atom_site_fract_x
_atom_site_fract_y
_atom_site_fract_z
Zn1	Zn	-0.334239	-1.885298	0.569088
Zn2	Zn	-0.495300	-1.901514	0.356853
Zn3	Zn	-0.334237	-1.689375	0.373112
Zn4	Zn	-0.524483	-1.673023	0.585289
O5	O	-0.422065	-1.787302	0.471085
O6	O	-0.343392	-2.065068	0.527350
O7	O	-0.461720	-1.887003	0.181391
O8	O	-0.187214	-1.715421	0.399133
O9	O	-0.461722	-2.076982	0.371421
O10	O	-0.187216	-1.859365	0.543116
O11	O	-0.343388	-1.731145	0.193337
O12	O	-0.371686	-1.509587	0.414842
O13	O	-0.511461	-1.687551	0.760758
O14	O	-0.511459	-1.497573	0.570728
O15	O	-0.371690	-1.843509	0.748855
O16	O	-0.646194	-1.871147	0.387130
O17	O	-0.667635	-1.703276	0.554962
C18	C	-0.444740	-1.457525	0.496308
C19	C	-0.454468	-1.316443	0.507129
C20	C	-0.695036	-1.787229	0.471065
C21	C	-0.811809	-1.787310	0.471089
C22	C	-0.855471	-1.874804	0.383783
C23	C	-0.965193	-1.874879	0.383816
C24	C	-0.987580	-1.699955	0.558467
C25	C	-0.877860	-1.699887	0.558439
C26	C	-0.789420	-1.962227	0.296433
C27	C	-0.833082	-2.049727	0.209118
C28	C	-0.942803	-2.049802	0.209152
C29	C	-1.008862	-1.962377	0.296500
C30	C	-0.148028	-1.787408	0.471131
C31	C	-0.031249	-1.787453	0.471151
C32	C	-0.444831	-1.761897	0.802149
C33	C	-0.454533	-1.751071	0.943228
C34	C	-0.399291	-1.118368	0.445757
C35	C	-0.389559	-1.259450	0.434942
C36	C	-0.399409	-1.812596	1.141311
C37	C	-0.389703	-1.823416	1.000232
H38	H	-0.326546	-1.318588	0.364860
H39	H	-0.700078	-1.962173	0.296393
H40	H	-0.978349	-2.121057	0.138064
H41	H	-0.517491	-1.257298	0.577207
H42	H	-0.779291	-2.120913	0.138009
H43	H	-1.098204	-1.962455	0.296529
H44	H	-0.842311	-1.628643	0.629533
H45	H	-0.517461	-1.680846	1.002362
H46	H	-1.041373	-1.628777	0.629581
H47	H	-0.326768	-1.893623	0.941106
