data_functionalizedCrystal
_audit_creation_method	'MofGen! by Chris Wilmer'
_symmetry_space_group_name_H-M	'P1'
_symmetry_Int_Tables_number	1
_symmetry_cell_setting	triclinic
loop_
_symmetry_equiv_pos_as_xyz
  x,y,z
_cell_length_a	27.732048
_cell_length_b	16.992695
_cell_length_c	16.053802
_cell_angle_alpha	87.258926
_cell_angle_beta	87.437704
_cell_angle_gamma	93.344561
loop_
_atom_site_label
_atom_site_type_symbol
_atom_site_fract_x
_atom_site_fract_y
_atom_site_fract_z
O1	O	0.646871	-0.089927	-0.069478
O2	O	0.980204	0.243407	0.263855
O3	O	1.313538	0.576740	0.597189
O4	O	0.506690	-0.104106	-0.069469
O5	O	0.840024	0.229227	0.263864
O6	O	1.173357	0.562560	0.597197
O7	O	0.576219	0.017119	-0.069467
O8	O	0.909552	0.350452	0.263866
O9	O	1.242885	0.683786	0.597200
O10	O	0.577343	-0.211152	-0.069480
O11	O	0.910676	0.122181	0.263853
O12	O	1.244010	0.455514	0.597186
O13	O	0.572391	0.010474	0.069392
O14	O	0.905724	0.343807	0.402725
O15	O	1.239057	0.677140	0.736059
O16	O	0.502862	-0.110752	0.069389
O17	O	0.836196	0.222582	0.402723
O18	O	1.169529	0.555915	0.736056
O19	O	0.643043	-0.096572	0.069381
O20	O	0.976376	0.236761	0.402714
O21	O	1.309710	0.570095	0.736048
Zn22	Zn	0.572345	-0.104717	0.091432
Zn23	Zn	0.905678	0.228616	0.424765
Zn24	Zn	1.239012	0.561950	0.758099
Zn25	Zn	0.577389	-0.095962	-0.091520
Zn26	Zn	0.910722	0.237372	0.241813
Zn27	Zn	1.244055	0.570705	0.575146
O28	O	0.573515	-0.217797	0.069379
O29	O	0.906848	0.115536	0.402712
O30	O	1.240181	0.448869	0.736045
C31	C	0.486757	-0.107132	-0.000039
C32	C	0.820090	0.226202	0.333295
C33	C	1.153423	0.559535	0.666628
C34	C	0.433063	-0.106235	-0.000035
C35	C	0.766396	0.227098	0.333298
C36	C	1.099730	0.560431	0.666631
C37	C	0.572859	0.042991	-0.000038
C38	C	0.906192	0.376325	0.333296
C39	C	1.239525	0.709658	0.666629
C40	C	0.568545	0.129983	-0.000038
C41	C	0.901878	0.463316	0.333296
C42	C	1.235212	0.796650	0.666629
C43	C	0.662977	-0.093547	-0.000051
C44	C	0.996310	0.239786	0.333282
C45	C	1.329644	0.573120	0.666615
C46	C	0.716671	-0.094443	-0.000060
C47	C	1.050004	0.238891	0.333273
C48	C	1.383337	0.572224	0.666606
C49	C	1.052632	-0.028450	-0.000028
C50	C	1.385965	0.304883	0.333305
C51	C	1.719298	0.638216	0.666639
C52	C	1.254435	-0.031776	-0.000025
C53	C	1.587768	0.301557	0.333308
C54	C	1.921102	0.634891	0.666641
O55	O	1.283080	0.028569	0.000014
O56	O	1.616414	0.361902	0.333347
O57	O	1.949747	0.695236	0.666681
N58	N	1.276667	-0.103657	-0.000032
N59	N	1.610000	0.229676	0.333301
N60	N	1.943333	0.563009	0.666635
C61	C	1.248444	-0.174713	-0.000034
C62	C	1.581778	0.158621	0.333300
C63	C	1.915111	0.491954	0.666633
O64	O	1.271984	-0.235929	-0.000031
O65	O	1.605317	0.097405	0.333303
O66	O	1.938651	0.430738	0.666636
C67	C	1.046642	-0.171387	-0.000030
C68	C	1.379975	0.161947	0.333303
C69	C	1.713308	0.495280	0.666636
C70	C	1.024413	-0.099500	-0.000032
C71	C	1.357746	0.233833	0.333301
C72	C	1.691080	0.567167	0.666635
C73	C	1.030403	0.043430	-0.000029
C74	C	1.363736	0.376764	0.333305
C75	C	1.697069	0.710097	0.666638
C76	C	0.979955	0.044261	-0.000034
C77	C	1.313288	0.377594	0.333299
C78	C	1.646622	0.710928	0.666633
C79	C	0.951736	-0.026789	-0.000038
C80	C	1.285070	0.306545	0.333295
C81	C	1.618403	0.639878	0.666628
C82	C	0.973965	-0.098669	-0.000037
C83	C	1.307299	0.234664	0.333296
C84	C	1.640632	0.567997	0.666629
C85	C	1.018420	-0.242441	-0.000026
C86	C	1.351753	0.090892	0.333307
C87	C	1.685087	0.424225	0.666641
C88	C	0.967966	-0.241604	-0.000023
C89	C	1.301300	0.091730	0.333310
C90	C	1.634633	0.425063	0.666644
C91	C	0.945738	-0.169717	-0.000025
C92	C	1.279071	0.163616	0.333308
C93	C	1.612404	0.496950	0.666642
C94	C	0.895299	-0.168888	-0.000047
C95	C	1.228632	0.164445	0.333287
C96	C	1.561966	0.497778	0.666620
N97	N	0.873067	-0.097007	-0.000040
N98	N	1.206400	0.236326	0.333293
N99	N	1.539734	0.569660	0.666627
C100	C	0.901286	-0.025957	-0.000036
C101	C	1.234619	0.307376	0.333297
C102	C	1.567953	0.640710	0.666631
C103	C	1.354394	-0.176454	-0.000037
C104	C	1.687727	0.156880	0.333296
C105	C	2.021060	0.490213	0.666629
C106	C	1.404844	-0.177285	-0.000040
C107	C	1.738178	0.156048	0.333294
C108	C	2.071511	0.489381	0.666627
C109	C	1.410831	-0.034348	-0.000030
C110	C	1.744165	0.298985	0.333304
C111	C	2.077498	0.632318	0.666637
C112	C	1.360380	-0.033517	-0.000033
C113	C	1.693714	0.299816	0.333300
C114	C	2.027047	0.633150	0.666633
C115	C	1.332162	-0.104572	-0.000031
C116	C	1.665495	0.228761	0.333303
C117	C	1.998829	0.562094	0.666636
C118	C	0.795342	-0.024218	-0.000047
C119	C	1.128675	0.309116	0.333286
C120	C	1.462008	0.642449	0.666619
C121	C	0.744889	-0.023393	-0.000056
C122	C	1.078223	0.309940	0.333277
C123	C	1.411556	0.643274	0.666611
C124	C	0.738907	-0.166330	-0.000062
C125	C	1.072240	0.167004	0.333272
C126	C	1.405573	0.500337	0.666605
C127	C	0.789355	-0.167155	-0.000057
C128	C	1.122688	0.166179	0.333276
C129	C	1.456021	0.499512	0.666609
C130	C	0.817571	-0.096092	-0.000048
C131	C	1.150904	0.237241	0.333286
C132	C	1.484238	0.570574	0.666619
O133	O	0.866623	-0.229201	-0.000077
O134	O	1.199957	0.104132	0.333257
O135	O	1.533290	0.437465	0.666590
O136	O	0.877737	0.035249	-0.000020
O137	O	1.211070	0.368583	0.333313
O138	O	1.544403	0.701916	0.666646
C139	C	1.103079	-0.029281	-0.000023
C140	C	1.436413	0.304052	0.333311
C141	C	1.769746	0.637385	0.666644
C142	C	1.125308	-0.101162	-0.000022
C143	C	1.458642	0.232172	0.333312
C144	C	1.791975	0.565505	0.666645
C145	C	1.097090	-0.172211	-0.000026
C146	C	1.430423	0.161122	0.333307
C147	C	1.763756	0.494455	0.666641
C148	C	1.175759	-0.101993	-0.000024
C149	C	1.509092	0.231340	0.333309
C150	C	1.842426	0.564673	0.666643
C151	C	1.203978	-0.030944	-0.000020
C152	C	1.537311	0.302390	0.333313
C153	C	1.870644	0.635723	0.666647
C154	C	1.181746	0.040938	-0.000013
C155	C	1.515079	0.374271	0.333320
C156	C	1.848412	0.707604	0.666653
C157	C	1.131298	0.041769	-0.000018
C158	C	1.464631	0.375102	0.333315
C159	C	1.797965	0.708435	0.666648
C160	C	1.119322	-0.244093	-0.000033
C161	C	1.452655	0.089240	0.333301
C162	C	1.785988	0.422574	0.666634
C163	C	1.169770	-0.244918	-0.000028
C164	C	1.503103	0.088416	0.333305
C165	C	1.836436	0.421749	0.666638
C166	C	1.197988	-0.173868	-0.000024
C167	C	1.531322	0.159465	0.333309
C168	C	1.864655	0.492799	0.666642
C169	C	0.576875	-0.243670	-0.000053
C170	C	0.910208	0.089664	0.333281
C171	C	1.243541	0.422997	0.666614
C172	C	0.581189	-0.330661	-0.000058
C173	C	0.914522	0.002672	0.333275
C174	C	1.247855	0.336005	0.666608
N175	N	0.568906	-0.110692	0.216292
N176	N	0.902240	0.222641	0.549626
N177	N	1.235573	0.555975	0.882959
C178	C	0.610168	0.180728	-0.000039
C179	C	0.943501	0.514061	0.333294
C180	C	1.276835	0.847395	0.666627
C181	C	0.606112	0.262466	-0.000047
C182	C	0.939445	0.595799	0.333286
C183	C	1.272779	0.929133	0.666620
C184	C	0.560432	0.293457	-0.000047
C185	C	0.893766	0.626790	0.333286
C186	C	1.227099	0.960124	0.666620
C187	C	0.518806	0.242706	-0.000048
C188	C	0.852139	0.576039	0.333286
C189	C	1.185473	0.909372	0.666619
C190	C	0.522862	0.160970	-0.000046
C191	C	0.856196	0.494303	0.333287
C192	C	1.189529	0.827636	0.666621
C193	C	0.543619	0.536851	-0.000057
C194	C	0.876952	0.870185	0.333276
C195	C	1.210286	1.203518	0.666609
C196	C	0.539565	0.618594	-0.000057
C197	C	0.872899	0.951927	0.333277
C198	C	1.206232	1.285260	0.666610
C199	C	0.626872	0.638348	-0.000057
C200	C	0.960206	0.971682	0.333276
C201	C	1.293539	1.305015	0.666609
C202	C	0.630925	0.556610	-0.000051
C203	C	0.964258	0.889943	0.333283
C204	C	1.297591	1.223276	0.666616
C205	C	0.589299	0.505866	-0.000056
C206	C	0.922632	0.839199	0.333278
C207	C	1.255965	1.172533	0.666611
N208	N	0.556285	0.377006	-0.000052
N209	N	0.889618	0.710339	0.333281
N210	N	1.222952	1.043672	0.666615
N211	N	0.593446	0.422319	-0.000057
N212	N	0.926780	0.755652	0.333277
N213	N	1.260113	1.088986	0.666610
N214	N	0.580831	-0.089980	-0.216381
N215	N	0.914164	0.243353	0.116953
N216	N	1.247497	0.576686	0.450286
C217	C	0.598503	-0.059128	0.259987
C218	C	0.931836	0.274205	0.593320
C219	C	1.265169	0.607538	0.926654
C220	C	0.596102	-0.063315	0.347394
C221	C	0.929436	0.270018	0.680727
C222	C	1.262769	0.603351	1.014060
C223	C	0.564107	-0.119070	0.391104
C224	C	0.897441	0.214263	0.724437
C225	C	1.230774	0.547597	1.057771
C226	C	0.534507	-0.170636	0.347403
C227	C	0.867841	0.162698	0.680736
C228	C	1.201174	0.496031	1.014070
C229	C	0.536906	-0.166445	0.259998
C230	C	0.870239	0.166889	0.593331
C231	C	1.203572	0.500222	0.926664
C232	C	0.553629	-0.137355	0.652513
C233	C	0.886963	0.195978	0.985847
C234	C	1.220296	0.529312	1.319180
C235	C	0.551234	-0.141544	0.739924
C236	C	0.884568	0.191789	1.073258
C237	C	1.217901	0.525123	1.406591
C238	C	0.612829	-0.034222	0.739909
C239	C	0.946162	0.299111	1.073243
C240	C	1.279495	0.632445	1.406576
C241	C	0.615226	-0.030039	0.652503
C242	C	0.948560	0.303294	0.985836
C243	C	1.281893	0.636628	1.319169
C244	C	0.585625	-0.081602	0.608809
C245	C	0.918958	0.251731	0.942142
C246	C	1.252291	0.585065	1.275476
N247	N	0.561654	-0.123353	0.480448
N248	N	0.894987	0.209981	0.813781
N249	N	1.228320	0.543314	1.147114
N250	N	0.588076	-0.077315	0.519467
N251	N	0.921409	0.256018	0.852800
N252	N	1.254743	0.589352	1.186134
H253	H	0.726794	0.035148	-0.000060
H254	H	1.060127	0.368481	0.333274
H255	H	1.393460	0.701815	0.666607
O256	O	1.428814	-0.254822	-0.000037
O257	O	1.762148	0.078511	0.333297
O258	O	2.095481	0.411844	0.666630
H259	H	1.419251	-0.286231	-0.056628
H260	H	1.752584	0.047103	0.276705
H261	H	2.085918	0.380436	0.610039
O262	O	0.680197	0.523194	-0.000069
O263	O	1.013530	0.856527	0.333264
O264	O	1.346864	1.189860	0.666598
H265	H	0.698795	0.540920	0.056519
H266	H	1.032129	0.874254	0.389852
H267	H	1.365462	1.207587	0.723186
H268	H	0.509724	0.495545	-0.000061
H269	H	0.843057	0.828878	0.333272
H270	H	1.176391	1.162212	0.666605
H271	H	1.331423	-0.234319	-0.000036
H272	H	1.664756	0.099015	0.333297
H273	H	1.998089	0.432348	0.666630
O274	O	0.490291	0.652013	-0.000058
O275	O	0.823625	0.985347	0.333276
O276	O	1.156958	1.318680	0.666609
H277	H	0.484792	0.686064	0.056546
H278	H	0.818126	1.019397	0.389879
H279	H	1.151459	1.352730	0.723213
O280	O	0.825768	0.052430	-0.000041
O281	O	1.159101	0.385763	0.333292
O282	O	1.492435	0.719096	0.666625
H283	H	0.847330	0.052775	0.056561
H284	H	1.180664	0.386108	0.389894
H285	H	1.513997	0.719441	0.723228
O286	O	1.193737	-0.322463	-0.000022
O287	O	1.527070	0.010871	0.333311
O288	O	1.860404	0.344204	0.666645
H289	H	1.218141	-0.323571	-0.056616
H290	H	1.551474	0.009763	0.276717
H291	H	1.884807	0.343096	0.610050
O292	O	0.649741	0.030098	0.605372
O293	O	0.983074	0.363431	0.938706
O294	O	1.316408	0.696764	1.272039
H295	H	0.675591	-0.000729	0.565546
H296	H	1.008925	0.332604	0.898879
H297	H	1.342258	0.665938	1.232213
O298	O	1.088888	-0.320728	-0.000041
O299	O	1.422222	0.012605	0.333292
O300	O	1.755555	0.345938	0.666626
H301	H	1.112828	-0.370845	-0.000050
H302	H	1.446161	-0.037512	0.333283
H303	H	1.779495	0.295822	0.666616
H304	H	0.525179	-0.186949	0.775509
H305	H	0.858512	0.146384	1.108843
H306	H	1.191845	0.479717	1.442176
H307	H	0.508454	-0.216030	0.382997
H308	H	0.841787	0.117303	0.716330
H309	H	1.175120	0.450637	1.049663
H310	H	0.660762	0.679672	-0.000055
H311	H	0.994095	1.013006	0.333279
H312	H	1.327428	1.346339	0.666612
H313	H	0.481612	0.267945	-0.000053
H314	H	0.814946	0.601278	0.333280
H315	H	1.148279	0.934612	0.666614
H316	H	0.636928	0.007759	0.775493
H317	H	0.970262	0.341092	1.108826
H318	H	1.303595	0.674426	1.442159
H319	H	0.647365	0.155502	-0.000034
H320	H	0.980699	0.488835	0.333299
H321	H	1.314032	0.822169	0.666633
O322	O	0.708466	-0.242961	-0.000066
O323	O	1.041800	0.090373	0.333267
O324	O	1.375133	0.423706	0.666601
H325	H	0.715154	-0.280096	0.056530
H326	H	1.048487	0.053238	0.389863
H327	H	1.381821	0.386571	0.723196
H328	H	0.640006	0.303780	-0.000046
H329	H	0.973340	0.637113	0.333287
H330	H	1.306673	0.970446	0.666620
H331	H	0.512805	-0.208432	0.224422
H332	H	0.846138	0.124901	0.557756
H333	H	1.179471	0.458235	0.891089
H334	H	1.433816	0.023503	-0.000029
H335	H	1.767149	0.356837	0.333304
H336	H	2.100483	0.690170	0.666637
O337	O	0.633002	0.001021	0.212841
O338	O	0.966335	0.334355	0.546174
O339	O	1.299668	0.667688	0.879507
H340	H	0.658854	-0.029784	0.172997
H341	H	0.992187	0.303549	0.506331
H342	H	1.325521	0.636882	0.839664
H343	H	0.488968	0.119653	-0.000045
H344	H	0.822302	0.452987	0.333288
H345	H	1.155635	0.786320	0.666622
O346	O	0.955981	0.121794	-0.000015
O347	O	1.289315	0.455128	0.333319
O348	O	1.622648	0.788461	0.666652
H349	H	0.984085	0.171052	0.000002
H350	H	1.317419	0.504386	0.333335
H351	H	1.650752	0.837719	0.666668
H352	H	0.620202	-0.021328	0.382970
H353	H	0.953535	0.312006	0.716303
H354	H	1.286868	0.645339	1.049637
H355	H	1.053373	0.101291	-0.000023
H356	H	1.386707	0.434624	0.333311
H357	H	1.720040	0.767957	0.666644
H358	H	0.529527	-0.179341	0.616945
H359	H	0.862861	0.153992	0.950278
H360	H	1.196194	0.487325	1.283612
O361	O	1.336407	0.044017	-0.000019
O362	O	1.669740	0.377350	0.333314
O363	O	2.003074	0.710684	0.666648
H364	H	1.349090	0.080840	-0.056609
H365	H	1.682424	0.414173	0.276724
H366	H	2.015757	0.747507	0.610057
O367	O	1.042383	-0.319982	-0.000004
O368	O	1.375716	0.013351	0.333329
O369	O	1.709050	0.346685	0.666663
H370	H	1.032819	-0.351397	-0.056591
H371	H	1.366153	-0.018064	0.276743
H372	H	1.699486	0.315269	0.610076
O373	O	0.937529	-0.318242	-0.000019
O374	O	1.270862	0.015091	0.333314
O375	O	1.604195	0.348425	0.666648
H376	H	0.947336	-0.349963	-0.056618
H377	H	1.280669	-0.016630	0.276715
H378	H	1.614002	0.316703	0.610049
O379	O	0.813335	-0.244686	-0.000058
O380	O	1.146668	0.088647	0.333275
O381	O	1.480002	0.421981	0.666608
H382	H	0.785235	-0.293951	-0.000059
H383	H	1.118568	0.039382	0.333275
H384	H	1.451901	0.372716	0.666608
O385	O	1.107328	0.119305	-0.000004
O386	O	1.440661	0.452638	0.333329
O387	O	1.773994	0.785972	0.666662
H388	H	1.120014	0.156128	-0.056592
H389	H	1.453348	0.489462	0.276741
H390	H	1.786681	0.822795	0.610074
O391	O	1.212186	0.117573	0.000000
O392	O	1.545519	0.450906	0.333334
O393	O	1.878852	0.784239	0.666667
H394	H	1.251000	0.104908	0.000012
H395	H	1.584333	0.438242	0.333345
H396	H	1.917666	0.771575	0.666679
