data_functionalizedCrystal
_audit_creation_method	'MofGen! by Chris Wilmer'
_symmetry_space_group_name_H-M	'P1'
_symmetry_Int_Tables_number	1
_symmetry_cell_setting	triclinic
loop_
_symmetry_equiv_pos_as_xyz
  x,y,z
_cell_length_a	10.686220
_cell_length_b	25.639239
_cell_length_c	10.686551
_cell_angle_alpha	94.409979
_cell_angle_beta	89.691918
_cell_angle_gamma	94.421315
loop_
_atom_site_label
_atom_site_type_symbol
_atom_site_fract_x
_atom_site_fract_y
_atom_site_fract_z
Zn1	Zn	1.972155	-0.127472	0.562363
Zn2	Zn	1.955828	-0.222110	0.352587
Zn3	Zn	1.746260	-0.140848	0.368678
Zn4	Zn	1.762259	-0.221050	0.578365
O5	O	1.859125	-0.177870	0.465498
O6	O	2.145537	-0.134872	0.521105
O7	O	1.914499	-0.217371	0.179175
O8	O	1.776363	-0.065903	0.394408
O9	O	2.133541	-0.204402	0.366983
O10	O	1.942327	-0.056076	0.536707
O11	O	1.760531	-0.157668	0.190997
O12	O	1.572835	-0.156641	0.409924
O13	O	1.803631	-0.202596	0.751789
O14	O	1.584589	-0.215565	0.563981
O15	O	1.957841	-0.133845	0.740032
O16	O	1.930013	-0.295140	0.382500
O17	O	1.787799	-0.294361	0.548378
C18	C	1.533195	-0.187440	0.490436
C19	C	1.393762	-0.191545	0.501134
C20	C	1.858906	-0.313721	0.465454
C21	C	1.858931	-0.371834	0.465468
C22	C	1.785057	-0.622628	0.551847
C23	C	1.785010	-0.568026	0.551836
O24	O	1.721991	-0.539458	0.625251
N25	N	1.859093	-0.541101	0.465522
C26	C	1.933239	-0.568780	0.379222
O27	O	1.996250	-0.540864	0.305805
C28	C	1.933293	-0.623381	0.379240
C29	C	1.859195	-0.650304	0.465551
C30	C	1.710966	-0.649551	0.638152
C31	C	1.711012	-0.704150	0.638161
C32	C	1.785150	-0.731826	0.551865
C33	C	1.859241	-0.704903	0.465560
C34	C	2.007445	-0.651059	0.292947
C35	C	2.007493	-0.705664	0.292973
C36	C	1.933394	-0.732587	0.379284
C37	C	1.933424	-0.787177	0.379273
N38	N	1.859340	-0.814103	0.465587
C39	C	1.785203	-0.786427	0.551883
C40	C	1.933123	-0.454114	0.379192
C41	C	1.933063	-0.399515	0.379168
C42	C	1.784835	-0.398764	0.551783
C43	C	1.784889	-0.453365	0.551801
C44	C	1.859039	-0.481039	0.465506
C45	C	1.785305	-0.901088	0.551895
C46	C	1.785353	-0.955692	0.551893
C47	C	1.933586	-0.956438	0.379282
C48	C	1.933533	-0.901839	0.379279
C49	C	1.859389	-0.874165	0.465596
O50	O	1.996415	-0.815780	0.305898
O51	O	1.722216	-0.814349	0.625298
C52	C	2.186329	-0.168263	0.440464
C53	C	2.325763	-0.164169	0.429796
C54	C	1.884342	-0.166610	0.792701
C55	C	1.895088	-0.161812	0.932135
C56	C	1.859382	-0.041487	0.465568
C57	C	1.859491	0.016632	0.465597
C58	C	1.834079	-0.189046	0.139563
C59	C	1.823577	-0.193690	0.000112
H60	H	1.374216	-0.137591	0.360535
Br61	Br	1.684680	-0.863540	0.669040
H62	H	1.725011	-0.977610	0.622181
H63	H	1.964542	-0.130848	0.980614
Br64	Br	1.707835	-0.245304	0.919324
H65	H	1.650672	-0.726066	0.708442
Br66	Br	1.313004	-0.235857	0.616566
Br67	Br	1.610340	-0.612002	0.755286
Br68	Br	1.684323	-0.489898	0.668940
H69	H	1.724470	-0.376220	0.622052
Br70	Br	2.033610	-0.362984	0.262009
Br71	Br	2.034063	-0.865301	0.262114
Br72	Br	2.033757	-0.491667	0.262059
H73	H	2.067783	-0.629146	0.222665
Br74	Br	2.108136	-0.743218	0.175855
Br75	Br	2.034201	-0.994008	0.262176
