data_functionalizedCrystal
_audit_creation_method	'MofGen! by Chris Wilmer'
_symmetry_space_group_name_H-M	'P1'
_symmetry_Int_Tables_number	1
_symmetry_cell_setting	triclinic
loop_
_symmetry_equiv_pos_as_xyz
  x,y,z
_cell_length_a	18.101398
_cell_length_b	12.594516
_cell_length_c	18.101389
_cell_angle_alpha	89.987481
_cell_angle_beta	89.975673
_cell_angle_gamma	90.011320
loop_
_atom_site_label
_atom_site_type_symbol
_atom_site_fract_x
_atom_site_fract_y
_atom_site_fract_z
Zn1	Zn	1.132198	-0.423988	-0.418869
Zn2	Zn	1.132127	-0.601956	-0.295040
Zn3	Zn	1.008357	-0.423977	-0.295030
Zn4	Zn	1.008341	-0.601910	-0.418829
O5	O	1.070256	-0.512958	-0.356942
O6	O	1.235822	-0.447620	-0.402464
O7	O	1.115686	-0.578361	-0.191406
O8	O	1.024822	-0.275033	-0.311470
O9	O	1.235769	-0.578372	-0.311488
O10	O	1.115808	-0.275041	-0.402454
O11	O	1.024753	-0.447601	-0.191399
O12	O	0.904722	-0.447557	-0.311431
O13	O	1.024794	-0.578294	-0.522467
O14	O	0.904710	-0.578283	-0.402386
O15	O	1.115791	-0.447575	-0.522497
O16	O	1.115669	-0.750896	-0.311449
O17	O	1.024724	-0.750862	-0.402395
C18	C	0.877845	-0.512915	-0.356904
C19	C	0.795531	-0.512922	-0.356905
C20	C	0.496440	-0.512988	-0.356967
C21	C	0.527748	-0.430327	-0.300020
C22	C	0.613367	-0.430549	-0.299777
C23	C	0.644823	-0.512954	-0.356936
C24	C	0.613725	-0.625071	-0.335619
C25	C	0.528080	-0.624611	-0.335223
C26	C	0.528050	-0.484507	-0.435364
C27	C	0.613700	-0.482010	-0.434936
C28	C	0.728682	-0.512942	-0.356920
C29	C	0.412581	-0.513008	-0.356981
C30	C	1.070207	-0.789499	-0.356935
C31	C	1.070254	-0.907804	-0.356957
C32	C	1.020784	-0.977078	-0.406388
C33	C	1.002743	-1.047918	-0.338810
C34	C	1.088363	-1.047763	-0.424546
C35	C	1.052177	-0.977086	-0.289343
C36	C	1.137829	-0.976925	-0.375124
C37	C	1.119813	-1.047733	-0.307500
C38	C	1.263418	-0.513002	-0.356981
C39	C	1.345732	-0.513021	-0.356998
C40	C	1.070299	-0.512931	-0.550104
C41	C	1.070317	-0.512919	-0.632418
C42	C	1.070325	-0.235337	-0.356966
C43	C	1.070354	-0.117032	-0.356976
C44	C	1.070360	-0.512720	-0.931509
C45	C	1.012909	-0.594703	-0.900166
C46	C	1.013065	-0.595083	-0.814547
C47	C	1.070338	-0.512819	-0.783127
C48	C	1.148369	-0.543275	-0.814235
C49	C	1.148049	-0.543813	-0.899880
C50	C	1.050458	-0.400099	-0.899926
C51	C	1.048722	-0.400749	-0.814275
C52	C	1.070330	-0.512873	-0.699267
C53	C	1.070373	-0.512668	-1.015369
C54	C	1.070256	-0.512908	-0.164532
C55	C	1.070381	-0.512619	-0.082218
H56	H	0.506463	-0.404176	-0.454747
C57	C	0.642623	-0.557414	-0.495331
H58	H	0.622946	-0.536849	-0.541829
H59	H	0.627752	-0.628027	-0.484395
H60	H	0.695021	-0.553872	-0.497036
C61	C	0.499920	-0.317673	-0.317850
H62	H	0.468956	-0.320037	-0.360181
H63	H	0.540894	-0.272553	-0.327365
H64	H	0.472719	-0.290935	-0.276999
C65	C	1.207755	-0.465154	-0.786747
H66	H	1.254497	-0.485033	-0.806213
H67	H	1.209583	-0.466826	-0.734314
H68	H	1.195827	-0.395402	-0.802770
H69	H	0.507804	-0.544714	-0.477795
C70	C	0.964176	-0.935157	-0.462779
H71	H	0.988851	-0.893606	-0.498992
H72	H	0.928530	-0.892673	-0.438090
H73	H	0.940232	-0.993341	-0.486054
C74	C	1.171556	-0.653313	-0.785288
H75	H	1.218852	-0.671037	-0.804419
H76	H	1.136528	-0.704903	-0.800725
H77	H	1.173602	-0.651877	-0.732856
H78	H	0.633824	-0.449376	-0.241685
H79	H	0.634392	-0.347409	-0.313138
C80	C	0.934901	-0.569340	-0.786124
H81	H	0.934892	-0.569536	-0.733640
H82	H	0.901178	-0.621312	-0.803698
H83	H	0.920414	-0.501276	-0.803494
C84	C	0.974928	-0.362612	-0.929083
H85	H	0.954822	-0.415303	-0.960792
H86	H	0.980994	-0.298230	-0.955753
H87	H	0.942363	-0.351201	-0.888688
C88	C	0.971153	-0.369710	-0.786800
H89	H	0.952016	-0.424809	-0.756469
H90	H	0.939415	-0.359298	-0.827947
H91	H	0.974179	-0.305876	-0.759013
H92	H	0.508073	-0.648767	-0.277911
C93	C	0.934504	-0.569219	-0.927965
H94	H	0.936101	-0.508357	-0.958940
H95	H	0.903115	-0.555626	-0.886976
H96	H	0.915928	-0.627951	-0.955146
C97	C	0.498648	-0.455469	-0.221998
H98	H	0.467502	-0.516124	-0.223978
H99	H	0.471389	-0.396518	-0.203882
H100	H	0.539106	-0.469301	-0.190002
C101	C	0.500098	-0.710538	-0.388877
H102	H	0.541075	-0.745587	-0.410806
H103	H	0.470983	-0.678345	-0.426343
H104	H	0.470983	-0.760683	-0.362592
H105	H	0.635144	-0.649646	-0.278926
H106	H	1.194916	-0.945721	-0.390507
C107	C	1.207845	-0.466671	-0.927897
H108	H	1.232228	-0.435149	-0.886934
H109	H	1.185479	-0.412824	-0.957046
H110	H	1.242730	-0.504466	-0.956985
C111	C	0.925605	-1.090049	-0.318056
H112	H	0.890476	-1.065865	-0.353218
H113	H	0.912435	-1.064810	-0.270388
H114	H	0.926313	-1.165471	-0.317776
H115	H	1.036835	-0.946169	-0.232176
H116	H	1.164918	-0.626141	-0.919869
H117	H	1.025920	-0.677672	-0.921697
H118	H	1.087511	-0.336424	-0.792886
C119	C	1.106974	-0.317577	-0.927320
H120	H	1.142529	-0.351535	-0.957857
H121	H	1.131046	-0.286141	-0.886149
H122	H	1.082212	-0.264158	-0.954874
C123	C	1.030810	-0.707854	-0.786880
H124	H	1.037964	-0.753609	-0.827984
H125	H	0.990909	-0.733334	-0.757741
H126	H	1.074508	-0.706200	-0.757854
C127	C	0.641255	-0.710506	-0.389890
H128	H	0.672035	-0.678482	-0.426115
H129	H	0.600146	-0.743030	-0.413370
H130	H	0.668582	-0.762707	-0.363663
C131	C	0.641162	-0.370557	-0.456656
H132	H	0.671473	-0.342991	-0.418355
H133	H	0.600009	-0.324956	-0.463936
H134	H	0.668967	-0.374971	-0.501072
H135	H	1.103640	-1.078808	-0.481697
C136	C	1.176384	-1.089392	-0.250979
H137	H	1.163434	-1.065062	-0.203016
H138	H	1.224207	-1.064010	-0.263468
H139	H	1.176396	-1.164817	-0.251573
