data_functionalizedCrystal
_audit_creation_method	'MofGen! by Chris Wilmer'
_symmetry_space_group_name_H-M	'P1'
_symmetry_Int_Tables_number	1
_symmetry_cell_setting	triclinic
loop_
_symmetry_equiv_pos_as_xyz
  x,y,z
_cell_length_a	9.798715
_cell_length_b	16.992694
_cell_length_c	16.992695
_cell_angle_alpha	90.668223
_cell_angle_beta	89.996563
_cell_angle_gamma	90.001906
loop_
_atom_site_label
_atom_site_type_symbol
_atom_site_fract_x
_atom_site_fract_y
_atom_site_fract_z
O1	O	0.113321	-1.050850	-0.166915
O2	O	0.113361	-0.822450	-0.165084
O3	O	0.113331	-0.935734	-0.051799
O4	O	0.113352	-0.937565	-0.280199
O5	O	-0.113652	-0.935725	-0.051798
O6	O	-0.113621	-0.822441	-0.165083
O7	O	-0.113661	-1.050841	-0.166914
Zn8	Zn	-0.149679	-0.936639	-0.165998
Zn9	Zn	0.149380	-0.936651	-0.165999
O10	O	-0.113630	-0.937556	-0.280198
C11	C	-0.000125	-0.793085	-0.162727
C12	C	-0.000110	-0.705600	-0.155699
C13	C	-0.000160	-0.933374	-0.022439
C14	C	-0.000158	-0.926345	0.065046
N15	N	-0.353779	-0.936637	-0.165997
C16	C	-0.421569	-0.984190	-0.118211
C17	C	-0.578731	-0.984202	-0.118209
N18	N	0.353479	-0.936659	-0.165994
C19	C	-0.000172	-1.080205	-0.169270
C20	C	-0.000178	-1.167690	-0.176299
C21	C	-0.000104	-0.659610	-0.223517
C22	C	-0.000124	-0.577409	-0.216908
C23	C	-0.000139	-0.541201	-0.142480
C24	C	-0.000148	-0.587198	-0.074657
C25	C	-0.000138	-0.669397	-0.081267
C26	C	-0.000178	-0.295886	-0.115086
C27	C	-0.000183	-0.213681	-0.108481
C28	C	-0.000162	-0.203898	-0.250732
C29	C	-0.000144	-0.286099	-0.257336
C30	C	-0.000160	-0.332089	-0.189512
N31	N	-0.000154	-0.457178	-0.135723
N32	N	-0.000154	-0.416110	-0.196270
C33	C	-0.000137	-0.939917	-0.309559
C34	C	-0.000129	-0.946945	-0.397044
C35	C	-0.000172	-0.994163	0.111037
C36	C	-0.000158	-0.987554	0.193238
C37	C	-0.000140	-0.913127	0.229446
C38	C	-0.000122	-0.845303	0.183449
C39	C	-0.000127	-0.851913	0.101250
C40	C	-0.000116	-0.885732	0.474760
C41	C	-0.000116	-0.879127	0.556966
C42	C	-0.000149	-1.021379	0.566749
C43	C	-0.000161	-1.027982	0.484547
C44	C	-0.000136	-0.960159	0.438558
N45	N	-0.000130	-0.906369	0.313468
N46	N	-0.000137	-0.966917	0.354537
H47	H	-0.363257	-1.024890	-0.077297
H48	H	-0.000097	-0.830505	0.437325
H49	H	-0.000171	-1.042779	0.230680
Br50	Br	-0.000112	-0.514995	-0.308951
Br51	Br	-0.675888	-1.052069	-0.050022
H52	H	-0.412092	-0.895931	-0.206905
H53	H	-0.000091	-0.689084	-0.284124
Br54	Br	-0.000215	-1.095177	0.061905
H55	H	-0.000116	-0.315574	-0.317942
H56	H	-0.000194	-0.184203	-0.047870
H57	H	-0.588233	-0.895948	-0.206912
Br58	Br	-0.000141	-0.141480	-0.342773
H59	H	-0.000192	-0.333322	-0.059859
Br60	Br	-0.000182	-0.538059	0.026353
Br61	Br	-0.000157	-0.731814	0.010776
Br62	Br	-0.000141	-1.128995	0.435413
H63	H	-0.000166	-1.076596	0.604202
Br64	Br	-0.000106	-0.778112	0.606105
H65	H	-0.000099	-0.784703	0.212936
H66	H	-0.000116	-0.796688	0.063804
