data_functionalizedCrystal
_audit_creation_method	'MofGen! by Chris Wilmer'
_symmetry_space_group_name_H-M	'P1'
_symmetry_Int_Tables_number	1
_symmetry_cell_setting	triclinic
loop_
_symmetry_equiv_pos_as_xyz
  x,y,z
_cell_length_a	17.077404
_cell_length_b	12.827892
_cell_length_c	17.077396
_cell_angle_alpha	89.975123
_cell_angle_beta	89.980499
_cell_angle_gamma	90.015617
loop_
_atom_site_label
_atom_site_type_symbol
_atom_site_fract_x
_atom_site_fract_y
_atom_site_fract_z
Zn1	Zn	1.200096	-0.416027	-0.443862
Zn2	Zn	1.533429	-0.082693	-0.110529
Zn3	Zn	1.866762	0.250640	0.222804
Zn4	Zn	1.200020	-0.590789	-0.312605
Zn5	Zn	1.533353	-0.257456	0.020729
Zn6	Zn	1.866686	0.075878	0.354062
Zn7	Zn	1.068827	-0.416063	-0.312610
Zn8	Zn	1.402161	-0.082730	0.020723
Zn9	Zn	1.735494	0.250603	0.354056
Zn10	Zn	1.068812	-0.590727	-0.443828
Zn11	Zn	1.402146	-0.257394	-0.110495
Zn12	Zn	1.735479	0.075940	0.222838
O13	O	1.134439	-0.503402	-0.378226
O14	O	1.467772	-0.170068	-0.044893
O15	O	1.801105	0.163265	0.288440
O16	O	1.309932	-0.439220	-0.426463
O17	O	1.643266	-0.105887	-0.093129
O18	O	1.976599	0.227447	0.240204
O19	O	1.182591	-0.567653	-0.202758
O20	O	1.515925	-0.234319	0.130575
O21	O	1.849258	0.099014	0.463908
O22	O	1.086278	-0.269823	-0.330038
O23	O	1.419612	0.063511	0.003295
O24	O	1.752945	0.396844	0.336629
O25	O	1.309877	-0.567617	-0.330028
O26	O	1.643210	-0.234284	0.003305
O27	O	1.976543	0.099050	0.336638
O28	O	1.182720	-0.269796	-0.426468
O29	O	1.516054	0.063538	-0.093135
O30	O	1.849387	0.396871	0.240198
O31	O	1.086205	-0.439282	-0.202763
O32	O	1.419538	-0.105949	0.130571
O33	O	1.752871	0.227384	0.463904
O34	O	0.958978	-0.439222	-0.330005
O35	O	1.292312	-0.105889	0.003329
O36	O	1.625645	0.227444	0.336662
O37	O	1.086253	-0.567511	-0.553680
O38	O	1.419586	-0.234178	-0.220346
O39	O	1.752920	0.099155	0.112987
O40	O	0.958968	-0.567547	-0.426410
O41	O	1.292301	-0.234214	-0.093077
O42	O	1.625634	0.099120	0.240257
O43	O	1.182706	-0.439160	-0.553705
O44	O	1.516039	-0.105826	-0.220371
O45	O	1.849373	0.227507	0.112962
O46	O	1.182577	-0.737017	-0.329995
O47	O	1.515910	-0.403684	0.003338
O48	O	1.849244	-0.070350	0.336672
O49	O	1.086179	-0.736971	-0.426404
O50	O	1.419513	-0.403638	-0.093071
O51	O	1.752846	-0.070305	0.240262
C52	C	0.930491	-0.503383	-0.378205
C53	C	1.263824	-0.170049	-0.044871
C54	C	1.597158	0.163284	0.288462
C55	C	0.843241	-0.503400	-0.378214
C56	C	1.176574	-0.170066	-0.044881
C57	C	1.509908	0.163267	0.288453
C58	C	0.802266	-0.570319	-0.428332
C59	C	1.135599	-0.236986	-0.094998
C60	C	1.468932	0.096347	0.238335
C61	C	0.720285	-0.570321	-0.428344
C62	C	1.053619	-0.236988	-0.095011
C63	C	1.386952	0.096345	0.238322
C64	C	0.679282	-0.503409	-0.378235
C65	C	1.012615	-0.170075	-0.044901
C66	C	1.345948	0.163258	0.288432
C67	C	0.720263	-0.436482	-0.328115
C68	C	1.053596	-0.103149	0.005219
C69	C	1.386929	0.230185	0.338552
C70	C	0.802242	-0.436475	-0.328107
C71	C	1.135575	-0.103142	0.005227
C72	C	1.468908	0.230191	0.338560
C73	C	0.549393	-0.436502	-0.328134
C74	C	0.882726	-0.103169	0.005200
C75	C	1.216059	0.230164	0.338533
C76	C	0.467408	-0.436510	-0.328140
C77	C	0.800741	-0.103177	0.005193
C78	C	1.134075	0.230156	0.338526
C79	C	0.467436	-0.570349	-0.428371
C80	C	0.800770	-0.237015	-0.095038
C81	C	1.134103	0.096318	0.238295
C82	C	0.549415	-0.570342	-0.428363
C83	C	0.882749	-0.237009	-0.095030
C84	C	1.216082	0.096325	0.238303
C85	C	0.590391	-0.503416	-0.378242
C86	C	0.923724	-0.170083	-0.044909
C87	C	1.257057	0.163250	0.288425
C88	C	1.134390	-0.774912	-0.378213
C89	C	1.467723	-0.441578	-0.044879
C90	C	1.801056	-0.108245	0.288454
C91	C	1.134440	-0.891065	-0.378233
C92	C	1.467774	-0.557731	-0.044900
C93	C	1.801107	-0.224398	0.288434
C94	C	1.182198	-0.942837	-0.330579
C95	C	1.515531	-0.609504	0.002754
C96	C	1.848864	-0.276171	0.336087
C97	C	1.182251	-1.062888	-0.330599
C98	C	1.515585	-0.729554	0.002734
C99	C	1.848918	-0.396221	0.336067
C100	C	1.339183	-0.503421	-0.378249
C101	C	1.672516	-0.170088	-0.044915
C102	C	2.005850	0.163245	0.288418
C103	C	1.426433	-0.503430	-0.378258
C104	C	1.759766	-0.170096	-0.044925
C105	C	2.093099	0.163237	0.288409
C106	C	1.134486	-0.503325	-0.582971
C107	C	1.467820	-0.169991	-0.249637
C108	C	1.801153	0.163342	0.083696
C109	C	1.134506	-0.503292	-0.670221
C110	C	1.467840	-0.169958	-0.336887
C111	C	1.801173	0.163375	-0.003554
C112	C	1.134509	-0.230831	-0.378257
C113	C	1.467843	0.102502	-0.044924
C114	C	1.801176	0.435835	0.288409
C115	C	1.134540	-0.114678	-0.378271
C116	C	1.467873	0.218655	-0.044937
C117	C	1.801206	0.551988	0.288396
C118	C	1.184731	-0.436454	-0.711225
C119	C	1.518065	-0.103120	-0.377892
C120	C	1.851398	0.230213	-0.044558
C121	C	1.184741	-0.436419	-0.793206
C122	C	1.518074	-0.103085	-0.459872
C123	C	1.851408	0.230248	-0.126539
C124	C	1.134529	-0.503228	-0.834180
C125	C	1.467862	-0.169895	-0.500847
C126	C	1.801195	0.163438	-0.167513
C127	C	1.084298	-0.570069	-0.793170
C128	C	1.417632	-0.236736	-0.459837
C129	C	1.750965	0.096597	-0.126503
C130	C	1.084285	-0.570098	-0.711191
C131	C	1.417619	-0.236765	-0.377858
C132	C	1.750952	0.096568	-0.044524
C133	C	1.084330	-0.570007	-0.964040
C134	C	1.417663	-0.236673	-0.630707
C135	C	1.750997	0.096660	-0.297373
C136	C	1.084344	-0.569980	-1.046025
C137	C	1.417677	-0.236646	-0.712691
C138	C	1.751010	0.096687	-0.379358
C139	C	1.184785	-0.436327	-1.046055
C140	C	1.518119	-0.102994	-0.712721
C141	C	1.851452	0.230339	-0.379388
C142	C	1.184772	-0.436356	-0.964076
C143	C	1.518106	-0.103023	-0.630742
C144	C	1.851439	0.230311	-0.297409
C145	C	1.134543	-0.503199	-0.923071
C146	C	1.467876	-0.169865	-0.589738
C147	C	1.801209	0.163468	-0.256405
C148	C	1.134437	-0.503403	-0.174279
C149	C	1.467770	-0.170070	0.159055
C150	C	1.801103	0.163264	0.492388
C151	C	1.134568	-0.503141	-0.087029
C152	C	1.467902	-0.169808	0.246304
C153	C	1.801235	0.163525	0.579637
H154	H	0.434070	-0.624839	-0.469184
H155	H	0.767404	-0.291506	-0.135851
H156	H	1.100737	0.041828	0.197483
H157	H	1.225641	-0.381995	-0.826588
H158	H	1.558974	-0.048662	-0.493255
H159	H	1.892308	0.284672	-0.159921
F160	F	1.235691	-1.121079	-0.277268
F161	F	1.569025	-0.787746	0.056066
F162	F	1.902358	-0.454412	0.389399
F163	F	1.081053	-0.949292	-0.431584
F164	F	1.414386	-0.615959	-0.098251
F165	F	1.747719	-0.282625	0.235083
F166	F	0.676621	-0.365261	-0.274789
F167	F	1.009955	-0.031928	0.058544
F168	F	1.343288	0.301405	0.391878
F169	F	0.423770	-0.365299	-0.274805
F170	F	0.757104	-0.031965	0.058528
F171	F	1.090437	0.301368	0.391862
F172	F	1.030896	-0.641077	-1.089631
F173	F	1.364229	-0.307744	-0.756298
F174	F	1.697562	0.025590	-0.422965
F175	F	0.593000	-0.365271	-0.274790
F176	F	0.926333	-0.031937	0.058544
F177	F	1.259666	0.301396	0.391877
H178	H	0.835603	-0.381977	-0.287300
H179	H	1.168936	-0.048644	0.046033
H180	H	1.502269	0.284690	0.379367
H181	H	1.223048	-0.898288	-0.289769
H182	H	1.556382	-0.564954	0.043564
H183	H	1.889715	-0.231621	0.376898
H184	H	1.225622	-0.382053	-0.677870
H185	H	1.558956	-0.048719	-0.344536
H186	H	1.892289	0.284614	-0.011203
F187	F	1.081089	-1.056494	-0.431597
F188	F	1.414423	-0.723160	-0.098263
F189	F	1.747756	-0.389827	0.235070
H190	H	1.225664	-0.381960	-0.930716
H191	H	1.558997	-0.048626	-0.597383
H192	H	1.892331	0.284707	-0.264050
F193	F	1.238244	-0.365188	-1.089695
F194	F	1.571578	-0.031855	-0.756362
F195	F	1.904911	0.301478	-0.423029
F196	F	1.030868	-0.641147	-0.920402
F197	F	1.364201	-0.307813	-0.587068
F198	F	1.697534	0.025520	-0.253735
F199	F	1.030855	-0.641169	-0.836780
F200	F	1.364189	-0.307836	-0.503447
F201	F	1.697522	0.025497	-0.170114
F202	F	1.030827	-0.641234	-0.667551
F203	F	1.364161	-0.307901	-0.334218
F204	F	1.697494	0.025433	-0.000885
H205	H	0.686927	-0.624815	-0.469154
H206	H	1.020260	-0.291482	-0.135821
H207	H	1.353594	0.041852	0.197512
H208	H	0.582798	-0.624834	-0.469163
H209	H	0.916132	-0.291501	-0.135829
H210	H	1.249465	0.041833	0.197504
F211	F	0.845898	-0.641543	-0.481662
F212	F	1.179231	-0.308210	-0.148329
F213	F	1.512564	0.025123	0.185004
