data_functionalizedCrystal
_audit_creation_method	'MofGen! by Chris Wilmer'
_symmetry_space_group_name_H-M	'P1'
_symmetry_Int_Tables_number	1
_symmetry_cell_setting	triclinic
loop_
_symmetry_equiv_pos_as_xyz
  x,y,z
_cell_length_a	12.759401
_cell_length_b	14.908178
_cell_length_c	12.759393
_cell_angle_alpha	86.667587
_cell_angle_beta	89.981504
_cell_angle_gamma	93.314230
loop_
_atom_site_label
_atom_site_type_symbol
_atom_site_fract_x
_atom_site_fract_y
_atom_site_fract_z
Zn1	Zn	1.582097	-0.359132	-0.569812
Zn2	Zn	2.082097	0.140868	-0.069812
Zn3	Zn	1.571841	-0.510032	-0.383977
Zn4	Zn	2.071841	-0.010032	0.116023
Zn5	Zn	1.406396	-0.359179	-0.394149
Zn6	Zn	1.906396	0.140821	0.105851
Zn7	Zn	1.396242	-0.509963	-0.559623
Zn8	Zn	1.896242	-0.009963	-0.059623
O9	O	1.489144	-0.434577	-0.476890
O10	O	1.989144	0.065423	0.023110
O11	O	1.727757	-0.379159	-0.545168
O12	O	2.227757	0.120841	-0.045168
O13	O	1.549852	-0.490070	-0.238302
O14	O	2.049852	0.009930	0.261698
O15	O	1.438245	-0.232918	-0.425972
O16	O	1.938245	0.267082	0.074028
O17	O	1.720222	-0.490024	-0.408636
O18	O	2.220222	0.009976	0.091364
O19	O	1.567332	-0.232883	-0.555031
O20	O	2.067332	0.267117	-0.055031
O21	O	1.428300	-0.379239	-0.245775
O22	O	1.928300	0.120761	0.254225
O23	O	1.258029	-0.379172	-0.416092
O24	O	1.758029	0.120828	0.083908
O25	O	1.420939	-0.489906	-0.707999
O26	O	1.920939	0.010094	-0.207999
O27	O	1.250569	-0.489952	-0.537665
O28	O	1.750569	0.010048	-0.037665
O29	O	1.557486	-0.379091	-0.715485
O30	O	2.057486	0.120909	-0.215485
O31	O	1.540006	-0.636278	-0.398756
O32	O	2.040006	-0.136278	0.101244
O33	O	1.410994	-0.636227	-0.527803
O34	O	1.910994	-0.136227	-0.027803
C35	C	1.216178	-0.434560	-0.476877
C36	C	1.716178	0.065440	0.023123
C37	C	1.099400	-0.434575	-0.476895
C38	C	1.599400	0.065425	0.023105
C39	C	1.040675	-0.492350	-0.540081
C40	C	1.540675	0.007650	-0.040081
C41	C	0.930950	-0.492361	-0.540092
C42	C	1.430950	0.007639	-0.040092
C43	C	0.938686	-0.376820	-0.413721
C44	C	1.438686	0.123180	0.086279
C45	C	1.048409	-0.376804	-0.413717
C46	C	1.548409	0.123196	0.086283
C47	C	1.036208	-0.559060	-0.613037
C48	C	1.536208	-0.059060	-0.113037
C49	C	0.926483	-0.559071	-0.613047
C50	C	1.426483	-0.059071	-0.113047
C51	C	1.473313	-0.668989	-0.461093
C52	C	1.973313	-0.168989	0.038907
C53	C	1.466637	-0.769272	-0.454370
C54	C	1.966637	-0.269272	0.045630
C55	C	1.588408	-0.957528	-0.576270
C56	C	2.088408	-0.457528	-0.076270
C57	C	1.582138	-1.051753	-0.569957
C58	C	2.082138	-0.551753	-0.069957
C59	C	1.447824	-1.051948	-0.435435
C60	C	1.947824	-0.551948	0.064565
C61	C	1.454094	-0.957723	-0.441749
C62	C	1.954094	-0.457723	0.058251
C63	C	1.524389	-0.910516	-0.512167
C64	C	2.024389	-0.410516	-0.012167
C65	C	1.530663	-0.816290	-0.518475
C66	C	2.030663	-0.316290	-0.018475
C67	C	1.396344	-0.816487	-0.383960
C68	C	1.896344	-0.316487	0.116040
C69	C	1.390075	-0.910711	-0.377646
C70	C	1.890075	-0.410711	0.122354
C71	C	1.763176	-0.434594	-0.476904
C72	C	2.263176	0.065406	0.023096
C73	C	1.879952	-0.434601	-0.476910
C74	C	2.379952	0.065399	0.023090
C75	C	1.489224	-0.434486	-0.750930
C76	C	1.989224	0.065514	-0.250930
C77	C	1.489258	-0.434447	-0.867709
C78	C	1.989258	0.065553	-0.367709
C79	C	1.505065	-0.199248	-0.492773
C80	C	2.005065	0.300752	0.007227
C81	C	1.511850	-0.098966	-0.499541
C82	C	2.011850	0.401034	0.000459
C83	C	1.560368	-0.376740	-0.926471
C84	C	2.060368	0.123260	-0.426471
C85	C	1.560395	-0.376708	-1.036198
C86	C	2.060395	0.123292	-0.536198
C87	C	1.418199	-0.492096	-1.028390
C88	C	1.918199	0.007904	-0.528390
C89	C	1.418168	-0.492123	-0.918666
C90	C	1.918168	0.007877	-0.418666
C91	C	1.642466	-0.310124	-0.930980
C92	C	2.142466	0.189876	-0.430980
C93	C	1.642493	-0.310092	-1.040706
C94	C	2.142493	0.189908	-0.540706
C95	C	1.489130	-0.434602	-0.203921
C96	C	1.989130	0.065398	0.296079
C97	C	1.489316	-0.434387	-0.087160
C98	C	1.989316	0.065613	0.412840
H99	H	0.891988	-0.628931	-0.586414
H100	H	1.391988	-0.128931	-0.086414
F101	F	1.342470	-0.553530	-0.856131
F102	F	1.842470	-0.053530	-0.356131
F103	F	1.315259	-0.960962	-0.302713
F104	F	1.815259	-0.460962	0.197287
F105	F	1.605479	-0.766051	-0.593416
F106	F	2.105479	-0.266051	-0.093416
F107	F	0.884408	-0.315339	-0.346488
F108	F	1.384408	0.184661	0.153512
H109	H	1.344219	-0.778199	-0.331760
H110	H	1.844219	-0.278199	0.168240
H111	H	1.096220	-0.329752	-0.362272
H112	H	1.596220	0.170248	0.137728
F113	F	1.076813	-0.534705	-0.721078
F114	F	1.576813	-0.034705	-0.221078
H115	H	0.894163	-0.534130	-0.692078
H116	H	1.394163	-0.034130	-0.192078
H117	H	1.718053	-0.335173	-0.895258
H118	H	2.218053	0.164827	-0.395258
H119	H	1.065759	-0.625401	-0.579287
H120	H	1.565759	-0.125401	-0.079287
H121	H	1.360318	-0.539052	-1.069892
H122	H	1.860318	-0.039052	-0.569892
F123	F	1.663230	-0.907285	-0.651203
F124	F	2.163230	-0.407285	-0.151203
H125	H	1.625398	-0.240252	-0.905926
H126	H	2.125398	0.259748	-0.405926
H127	H	1.634264	-1.090026	-0.622161
H128	H	2.134264	-0.590026	-0.122161
H129	H	1.722605	-0.328806	-1.069225
H130	H	2.222605	0.171194	-0.569225
F131	F	1.610157	-0.223356	-1.091052
F132	F	2.110157	0.276644	-0.591052
F133	F	1.372997	-1.102203	-0.360518
F134	F	1.872997	-0.602203	0.139482
