data_functionalizedCrystal
_audit_creation_method	'MofGen! by Chris Wilmer'
_symmetry_space_group_name_H-M	'P1'
_symmetry_Int_Tables_number	1
_symmetry_cell_setting	triclinic
loop_
_symmetry_equiv_pos_as_xyz
  x,y,z
_cell_length_a	23.532407
_cell_length_b	8.559649
_cell_length_c	7.088929
_cell_angle_alpha	95.344185
_cell_angle_beta	96.161953
_cell_angle_gamma	103.686329
loop_
_atom_site_label
_atom_site_type_symbol
_atom_site_fract_x
_atom_site_fract_y
_atom_site_fract_z
O1	O	0.740588	-0.210640	-0.159084
O2	O	0.573554	-0.238722	-0.159063
O3	O	0.671787	0.008155	-0.159074
O4	O	0.642355	-0.457516	-0.159074
O5	O	0.684918	0.041221	0.158900
O6	O	0.586685	-0.205655	0.158910
O7	O	0.753719	-0.177573	0.158889
Cu8	Cu	0.671401	-0.188595	0.187933
Cu9	Cu	0.655872	-0.227700	-0.188107
O10	O	0.655486	-0.424450	0.158900
C11	C	0.558933	-0.221473	-0.000074
C12	C	0.495806	-0.219322	-0.000066
C13	C	0.680583	0.084253	-0.000091
C14	C	0.687221	0.261737	-0.000102
C15	C	0.768340	-0.194822	-0.000104
C16	C	0.831466	-0.196974	-0.000125
C17	C	1.236105	-0.064357	-0.000058
C18	C	1.295422	-0.066354	-0.000050
O19	O	1.337298	0.056585	0.000019
N20	N	1.311924	-0.213123	-0.000055
C21	C	1.269106	-0.357903	-0.000050
O22	O	1.288590	-0.482925	-0.000052
C23	C	1.209791	-0.355903	-0.000045
C24	C	1.193292	-0.209127	-0.000059
C25	C	1.219604	0.082408	-0.000070
C26	C	1.160291	0.084404	-0.000082
C27	C	1.117478	-0.060366	-0.000082
C28	C	1.133978	-0.207131	-0.000071
C29	C	1.166975	-0.500681	-0.000026
C30	C	1.107657	-0.498668	-0.000019
C31	C	1.091157	-0.351891	-0.000033
C32	C	1.031852	-0.349905	-0.000083
N33	N	1.015350	-0.203136	-0.000078
C34	C	1.058163	-0.058366	-0.000077
C35	C	1.393674	-0.362091	-0.000058
C36	C	1.452988	-0.364094	-0.000077
C37	C	1.479299	-0.072543	-0.000073
C38	C	1.419984	-0.070544	-0.000067
C39	C	1.377172	-0.215322	-0.000052
C40	C	0.933599	-0.054187	-0.000104
C41	C	0.874279	-0.052205	-0.000124
C42	C	0.847973	-0.343754	-0.000118
C43	C	0.907288	-0.345737	-0.000108
C44	C	0.950101	-0.200940	-0.000095
O45	O	0.989944	-0.472778	-0.000144
O46	O	1.038671	0.066638	-0.000050
C47	C	0.646690	-0.500548	-0.000087
C48	C	0.640051	-0.678034	-0.000089
N49	N	0.682328	-0.161089	0.452420
N50	N	0.644951	-0.255193	-0.452594
H51	H	0.968452	0.063721	-0.000094
H52	H	0.594587	0.237749	-0.000077
N53	N	0.730933	-0.038750	0.554814
N54	N	0.782613	-0.042271	0.532571
H55	H	0.816940	0.044131	0.604888
H56	H	0.732689	0.345966	-0.000093
N57	N	0.596360	-0.377532	0.444970
N58	N	0.589035	-0.395965	0.266267
H59	H	0.554717	-0.482371	0.193907
H60	H	0.860850	0.067323	-0.000140
H61	H	1.254459	0.200305	-0.000063
H62	H	1.146864	0.203925	-0.000085
H63	H	1.406555	0.048975	-0.000077
H64	H	1.514169	0.045336	-0.000072
H65	H	1.466414	-0.483617	-0.000092
N66	N	1.349951	-0.510005	-0.000051
N67	N	1.364700	-0.641028	-0.000054
H68	H	1.333823	-0.745494	-0.000046
N69	N	1.183807	-0.650626	0.000020
N70	N	1.173896	-0.734045	0.134071
H71	H	1.185781	-0.839955	0.134109
H72	H	1.072801	-0.616566	0.000002
H73	H	0.920721	-0.465255	-0.000099
H74	H	0.813104	-0.461622	-0.000128
