data_functionalizedCrystal
_audit_creation_method	'MofGen! by Chris Wilmer'
_symmetry_space_group_name_H-M	'P1'
_symmetry_Int_Tables_number	1
_symmetry_cell_setting	triclinic
loop_
_symmetry_equiv_pos_as_xyz
  x,y,z
_cell_length_a	12.645331
_cell_length_b	21.295417
_cell_length_c	12.645324
_cell_angle_alpha	89.959220
_cell_angle_beta	89.978020
_cell_angle_gamma	90.029485
loop_
_atom_site_label
_atom_site_type_symbol
_atom_site_fract_x
_atom_site_fract_y
_atom_site_fract_z
Zn1	Zn	1.620630	-0.250579	-0.599379
Zn2	Zn	1.620474	-0.355866	-0.422091
Zn3	Zn	1.443346	-0.250613	-0.422123
Zn4	Zn	1.443286	-0.355813	-0.599306
O5	O	1.531934	-0.303218	-0.510725
O6	O	1.768956	-0.264554	-0.575878
O7	O	1.596937	-0.341941	-0.273748
O8	O	1.466954	-0.162519	-0.445681
O9	O	1.768842	-0.341908	-0.445625
O10	O	1.597203	-0.162494	-0.575910
O11	O	1.466803	-0.264612	-0.273772
O12	O	1.294991	-0.264560	-0.445610
O13	O	1.466851	-0.341817	-0.747663
O14	O	1.294947	-0.341849	-0.575786
O15	O	1.597145	-0.264502	-0.747717
O16	O	1.596879	-0.443949	-0.445555
O17	O	1.466700	-0.443909	-0.575754
C18	C	1.256504	-0.303203	-0.510694
C19	C	1.138674	-0.303212	-0.510706
C20	C	0.971103	-0.254365	-0.429265
C21	C	1.093662	-0.254491	-0.428906
C22	C	1.094129	-0.369526	-0.480174
C23	C	0.971531	-0.369260	-0.479618
C24	C	0.971530	-0.286375	-0.622995
C25	C	1.094136	-0.284893	-0.622372
C26	C	1.531795	-0.466769	-0.510666
C27	C	1.531833	-0.536737	-0.510677
C28	C	1.599677	-0.569604	-0.442951
C29	C	1.599727	-0.635346	-0.442975
C30	C	1.531913	-0.668220	-0.510713
C31	C	1.464064	-0.635346	-0.578452
C32	C	1.464024	-0.569605	-0.578433
N33	N	1.439177	-0.771484	-0.518784
N34	N	1.439218	-0.833935	-0.518796
C35	C	1.532032	-0.866295	-0.510774
N36	N	1.624805	-0.833843	-0.502720
N37	N	1.624762	-0.771386	-0.502703
C38	C	1.531950	-0.739505	-0.510741
C39	C	1.599936	-0.970446	-0.443071
C40	C	1.599987	-1.036190	-0.443102
C41	C	1.464315	-1.036188	-0.578573
C42	C	1.464273	-0.970446	-0.578547
C43	C	1.532082	-0.937579	-0.510791
C44	C	1.808439	-0.303233	-0.510756
C45	C	1.926269	-0.303240	-0.510770
C46	C	1.532009	-0.303150	-0.787230
C47	C	1.532041	-0.303121	-0.905061
C48	C	1.532102	-0.139027	-0.510807
C49	C	1.532174	-0.069059	-0.510842
C50	C	1.614026	-0.254472	-0.949976
C51	C	1.614378	-0.254599	-1.072536
C52	C	1.561971	-0.369490	-1.072924
C53	C	1.562536	-0.369225	-0.950326
C54	C	1.419982	-0.285945	-0.950236
C55	C	1.420614	-0.284465	-1.072843
C56	C	1.531921	-0.303240	-0.235295
C57	C	1.532094	-0.303092	-0.117466
H58	H	1.123284	-0.406915	-0.537674
H59	H	1.644438	-0.383752	-0.921738
H60	H	1.122937	-0.265639	-0.345743
H61	H	0.940651	-0.238862	-0.650759
H62	H	1.392680	-0.238363	-0.919331
H63	H	1.697428	-0.265977	-1.101875
H64	H	1.655241	-1.062949	-0.387954
O65	O	1.486866	-0.418896	-0.910947
H66	H	1.450038	-0.443002	-0.979472
H67	H	1.358903	-0.321376	-0.921183
H68	H	1.409104	-1.062954	-0.633731
H69	H	1.654893	-0.542845	-0.387782
O70	O	1.133559	-0.189349	-0.454226
H71	H	1.104495	-0.175029	-0.533462
H72	H	1.696589	-0.265720	-0.919178
O73	O	1.390908	-0.670797	-0.651503
H74	H	1.402321	-0.722033	-0.640127
H75	H	0.941657	-0.205042	-0.448199
H76	H	1.654977	-0.662111	-0.387825
H77	H	1.408776	-0.542844	-0.633585
O78	O	1.132710	-0.220254	-0.652884
H79	H	1.183396	-0.201248	-0.588797
O80	O	0.933567	-0.388193	-0.370943
H81	H	1.002773	-0.397451	-0.319278
O82	O	1.485328	-0.418813	-1.111463
H83	H	1.424986	-0.396471	-1.162901
H84	H	1.655153	-0.943685	-0.387902
H85	H	1.409023	-0.943684	-0.633691
H86	H	1.595712	-0.205373	-1.102656
H87	H	1.595581	-0.205097	-0.920533
H88	H	0.940252	-0.265389	-0.346591
H89	H	0.941872	-0.406908	-0.536393
O90	O	1.390753	-0.219740	-1.111412
H91	H	1.311878	-0.206922	-1.079529
O92	O	1.669284	-0.389054	-1.113613
H93	H	1.661510	-0.433290	-1.159328
O94	O	1.335471	-0.327986	-1.113301
H95	H	1.332693	-0.325539	-1.200937
H96	H	1.124780	-0.384073	-0.399012
H97	H	1.124781	-0.317894	-0.686348
O98	O	0.933121	-0.333520	-0.703448
H99	H	0.882045	-0.368795	-0.663766
