data_functionalizedCrystal
_audit_creation_method	'MofGen! by Chris Wilmer'
_symmetry_space_group_name_H-M	'P1'
_symmetry_Int_Tables_number	1
_symmetry_cell_setting	triclinic
loop_
_symmetry_equiv_pos_as_xyz
  x,y,z
_cell_length_a	12.759401
_cell_length_b	11.169416
_cell_length_c	12.759393
_cell_angle_alpha	90.028061
_cell_angle_beta	90.020938
_cell_angle_gamma	90.011674
loop_
_atom_site_label
_atom_site_type_symbol
_atom_site_fract_x
_atom_site_fract_y
_atom_site_fract_z
Zn1	Zn	1.606300	-0.477700	0.594038
Zn2	Zn	1.606205	-0.678429	0.418365
Zn3	Zn	1.430598	-0.477764	0.418373
Zn4	Zn	1.430604	-0.678345	0.594003
O5	O	1.518427	-0.578060	0.506195
O6	O	1.753308	-0.504336	0.570746
O7	O	1.582868	-0.651872	0.271345
O8	O	1.453943	-0.309806	0.441693
O9	O	1.753238	-0.651810	0.441680
O10	O	1.583030	-0.309759	0.570753
O11	O	1.453851	-0.504445	0.271351
O12	O	1.283578	-0.504363	0.441659
O13	O	1.453953	-0.651667	0.741029
O14	O	1.283582	-0.651729	0.570693
O15	O	1.583035	-0.504254	0.741054
O16	O	1.582874	-0.846368	0.441646
O17	O	1.453861	-0.846306	0.570686
C18	C	1.245459	-0.578045	0.506174
C19	C	1.128683	-0.578068	0.506190
C20	C	1.073850	-0.654918	0.573272
C21	C	0.964126	-0.654923	0.573293
C22	C	0.964076	-0.501223	0.439140
C23	C	1.073798	-0.501213	0.439125
C24	C	1.518386	-0.889884	0.506184
C25	C	1.518465	-1.023284	0.506215
C26	C	1.792460	-0.578075	0.506216
C27	C	1.909237	-0.578082	0.506226
C28	C	1.518505	-0.577944	0.780228
C29	C	1.518539	-0.577895	0.897005
C30	C	1.518496	-0.265017	0.506228
C31	C	1.518526	-0.131617	0.506242
C32	C	1.518409	-0.578088	0.233227
C33	C	1.518579	-0.577799	0.116451
C34	C	1.585757	-0.501125	0.951882
C35	C	1.585775	-0.501073	1.061606
C36	C	1.451353	-0.654573	1.061566
C37	C	1.451331	-0.654617	0.951844
H38	H	0.919487	-0.717500	0.627920
H39	H	1.640509	-0.438557	1.106282
O40	O	0.904891	-0.418338	0.366795
H41	H	0.925928	-0.438811	0.284311
O42	O	1.132954	-0.418322	0.366771
H43	H	1.182919	-0.471968	0.313245
O44	O	1.378869	-0.737318	1.120720
H45	H	1.396850	-0.831524	1.099649
H46	H	1.396586	-0.717132	0.907162
O47	O	1.658239	-0.418368	0.892738
H48	H	1.711677	-0.472110	0.842761
O49	O	1.133052	-0.737792	0.645614
H50	H	1.076486	-0.791221	0.692273
