data_functionalizedCrystal
_audit_creation_method	'MofGen! by Chris Wilmer'
_symmetry_space_group_name_H-M	'P1'
_symmetry_Int_Tables_number	1
_symmetry_cell_setting	triclinic
loop_
_symmetry_equiv_pos_as_xyz
  x,y,z
_cell_length_a	13.897448
_cell_length_b	21.395362
_cell_length_c	21.395355
_cell_angle_alpha	90.043940
_cell_angle_beta	89.984371
_cell_angle_gamma	89.966429
loop_
_atom_site_label
_atom_site_type_symbol
_atom_site_fract_x
_atom_site_fract_y
_atom_site_fract_z
Zn1	Zn	-0.383718	-0.957916	-0.354598
Zn2	Zn	0.116282	-0.457916	0.145402
Zn3	Zn	-0.544997	-0.957842	-0.249826
Zn4	Zn	-0.044997	-0.457842	0.250174
Zn5	Zn	-0.383763	-0.853131	-0.249799
Zn6	Zn	0.116237	-0.353131	0.250201
Zn7	Zn	-0.545017	-0.853124	-0.354531
Zn8	Zn	-0.045017	-0.353124	0.145469
O9	O	-0.464374	-0.905503	-0.302189
O10	O	0.035626	-0.405503	0.197811
O11	O	-0.405085	-1.045584	-0.340739
O12	O	0.094915	-0.545584	0.159261
O13	O	-0.523620	-0.943924	-0.162145
O14	O	-0.023620	-0.443924	0.337855
O15	O	-0.248775	-0.867065	-0.263718
O16	O	0.251225	-0.367065	0.236282
O17	O	-0.523576	-1.045530	-0.263764
O18	O	-0.023576	-0.545530	0.236236
O19	O	-0.248742	-0.944050	-0.340714
O20	O	0.251258	-0.444050	0.159286
O21	O	-0.405161	-0.866993	-0.162125
O22	O	0.094839	-0.366993	0.337875
O23	O	-0.405181	-0.765452	-0.263653
O24	O	0.094819	-0.265452	0.236347
O25	O	-0.523610	-0.867053	-0.442218
O26	O	-0.023610	-0.367053	0.057782
O27	O	-0.523654	-0.765447	-0.340599
O28	O	-0.023654	-0.265447	0.159401
O29	O	-0.405104	-0.944043	-0.442267
O30	O	0.094896	-0.444043	0.057733
O31	O	-0.679982	-0.943918	-0.263698
O32	O	-0.179982	-0.443918	0.236302
O33	O	-0.679996	-0.866981	-0.340624
O34	O	-0.179996	-0.366981	0.159376
C35	C	-0.714988	-0.905458	-0.302170
C36	C	-0.214988	-0.405458	0.197830
C37	C	-0.822202	-0.905495	-0.302184
C38	C	-0.322202	-0.405495	0.197816
C39	C	-0.464425	-0.742716	-0.302116
C40	C	0.035575	-0.242716	0.197884
C41	C	-0.464470	-0.673074	-0.302100
C42	C	0.035530	-0.173074	0.197900
C43	C	-0.464354	-0.905555	-0.465612
C44	C	0.035646	-0.405555	0.034388
C45	C	-0.464346	-0.905578	-0.535253
C46	C	0.035654	-0.405578	-0.035253
C47	C	-1.018497	-0.905561	-0.302223
C48	C	-0.518497	-0.405561	0.197777
C49	C	-0.909265	-0.905523	-0.302203
C50	C	-0.409265	-0.405523	0.197797
C51	C	-0.212781	-0.905566	-0.302221
C52	C	0.287219	-0.405566	0.197779
C53	C	-0.105567	-0.905593	-0.302234
C54	C	0.394433	-0.405593	0.197766
C55	C	-0.464323	-1.068927	-0.302262
C56	C	0.035677	-0.568927	0.197738
C57	C	-0.464302	-1.138568	-0.302293
C58	C	0.035698	-0.638568	0.197707
C59	C	-0.526240	-0.640375	-0.342105
C60	C	-0.026240	-0.140375	0.157895
C61	C	-0.526217	-0.574940	-0.342133
C62	C	-0.026217	-0.074940	0.157867
C63	C	-0.464433	-0.542206	-0.302144
C64	C	0.035567	-0.042206	0.197856
C65	C	-0.402650	-0.574913	-0.262136
C66	C	0.097350	-0.074913	0.237864
C67	C	-0.402669	-0.640348	-0.262114
C68	C	0.097331	-0.140348	0.237886
C69	C	-0.456662	-0.438480	-0.245739
C70	C	0.043338	0.061520	0.254261
C71	C	-0.456650	-0.373047	-0.245760
C72	C	0.043350	0.126953	0.254240
C73	C	-0.464370	-0.340385	-0.302214
C74	C	0.035630	0.159615	0.197786
C75	C	-0.472121	-0.373165	-0.358647
C76	C	0.027879	0.126835	0.141353
C77	C	-0.472140	-0.438599	-0.358625
C78	C	0.027860	0.061401	0.141375
C79	C	-0.464405	-0.471254	-0.302164
C80	C	0.035595	0.028746	0.197836
C81	C	-0.526118	-0.236734	-0.342253
C82	C	-0.026118	0.263266	0.157747
C83	C	-0.526088	-0.171297	-0.342282
C84	C	-0.026088	0.328703	0.157718
C85	C	-0.402526	-0.171272	-0.262279
C86	C	0.097474	0.328728	0.237721
C87	C	-0.402551	-0.236707	-0.262255
C88	C	0.097449	0.263293	0.237745
C89	C	-0.464352	-0.269434	-0.302242
C90	C	0.035648	0.230566	0.197758
C91	C	-0.402637	-0.945665	-0.567993
C92	C	0.097363	-0.445665	-0.067993
C93	C	-0.402596	-0.945664	-0.633429
C94	C	0.097404	-0.445664	-0.133429
C95	C	-0.464280	-0.905582	-0.666122
C96	C	0.035720	-0.405582	-0.166122
C97	C	-0.525993	-0.865488	-0.633374
C98	C	-0.025993	-0.365488	-0.133374
C99	C	-0.526026	-0.865485	-0.567940
C100	C	-0.026026	-0.365485	-0.067940
C101	C	-0.551135	-0.900619	-0.769788
C102	C	-0.051135	-0.400619	-0.269788
C103	C	-0.551103	-0.900626	-0.835221
C104	C	-0.051103	-0.400626	-0.335221
C105	C	-0.464178	-0.905586	-0.867942
C106	C	0.035822	-0.405586	-0.367942
C107	C	-0.377282	-0.910553	-0.835223
C108	C	0.122718	-0.410553	-0.335223
C109	C	-0.377315	-0.910550	-0.769788
C110	C	0.122685	-0.410550	-0.269788
C111	C	-0.464251	-0.905580	-0.737074
C112	C	0.035749	-0.405580	-0.237074
C113	C	-0.402419	-0.945675	-0.971635
C114	C	0.097581	-0.445675	-0.471635
C115	C	-0.402376	-0.945669	-1.037072
C116	C	0.097624	-0.445669	-0.537072
C117	C	-0.525782	-0.865496	-1.037016
C118	C	-0.025782	-0.365496	-0.537016
C119	C	-0.525817	-0.865498	-0.971580
C120	C	-0.025817	-0.365498	-0.471580
C121	C	-0.464137	-0.905591	-0.938894
C122	C	0.035863	-0.405591	-0.438894
C123	C	-0.464324	-0.905488	-0.139401
C124	C	0.035676	-0.405488	0.360599
C125	C	-0.464060	-0.905587	-0.069760
C126	C	0.035940	-0.405587	0.430240
H127	H	-0.576562	-0.667017	-0.374666
H128	H	-0.076562	-0.167017	0.125334
C129	C	-0.594052	-0.135327	-0.386281
C130	C	-0.094052	0.364673	0.113719
H131	H	-0.630869	-0.164192	-0.410084
H132	H	-0.130869	0.335808	0.089916
H133	H	-0.557226	-0.109847	-0.413638
H134	H	-0.057226	0.390153	0.086362
H135	H	-0.636013	-0.109758	-0.362260
H136	H	-0.136013	0.390242	0.137740
H137	H	-0.621902	-0.896413	-0.743152
H138	H	-0.121902	-0.396413	-0.243152
C139	C	-0.334506	-0.989774	-1.073089
C140	C	0.165494	-0.489774	-0.573089
H141	H	-0.343314	-0.984031	-1.116741
H142	H	0.156686	-0.484031	-0.616741
H143	H	-0.348632	-1.031864	-1.062395
H144	H	0.151368	-0.531864	-0.562395
H145	H	-0.269696	-0.980627	-1.062358
H146	H	0.230304	-0.480627	-0.562358
H147	H	-0.576073	-0.832859	-0.944923
H148	H	-0.076073	-0.332859	-0.444923
H149	H	-0.621860	-0.896586	-0.861857
H150	H	-0.121860	-0.396586	-0.361857
C151	C	-0.281716	-0.916416	-0.871206
C152	C	0.218284	-0.416416	-0.371206
H153	H	-0.294154	-0.915824	-0.914862
H154	H	0.205846	-0.415824	-0.414862
H155	H	-0.251289	-0.954667	-0.860358
H156	H	0.248711	-0.454667	-0.360358
H157	H	-0.240770	-0.882488	-0.860606
H158	H	0.259230	-0.382488	-0.360606
H159	H	-0.576214	-0.832851	-0.659997
H160	H	-0.076214	-0.332851	-0.159997
H161	H	-0.352216	-0.144621	-0.229722
H162	H	0.147784	0.355379	0.270278
C163	C	-0.334615	-0.272679	-0.218241
C164	C	0.165385	0.227321	0.281759
H165	H	-0.297820	-0.243814	-0.194424
H166	H	0.202180	0.256186	0.305576
H167	H	-0.292648	-0.298254	-0.242244
H168	H	0.207352	0.201746	0.257756
H169	H	-0.371469	-0.298153	-0.190889
H170	H	0.128531	0.201847	0.309111
H171	H	-0.576275	-0.832838	-0.541283
H172	H	-0.076275	-0.332838	-0.041283
H173	H	-0.352190	-0.978317	-0.945020
H174	H	0.147810	-0.478317	-0.445020
H175	H	-0.576435	-0.263381	-0.374815
H176	H	-0.076435	0.236619	0.125185
H177	H	-0.575997	-0.832855	-1.063634
H178	H	-0.075997	-0.332855	-0.563634
H179	H	-0.478406	-0.346573	-0.404617
H180	H	0.021594	0.153427	0.095383
H181	H	-0.450344	-0.346364	-0.199808
H182	H	0.049656	0.153636	0.300192
C183	C	-0.594111	-0.538963	-0.386177
C184	C	-0.094111	-0.038963	0.113823
H185	H	-0.630905	-0.567826	-0.409997
H186	H	-0.130905	-0.067826	0.090003
H187	H	-0.557216	-0.513504	-0.413515
H188	H	-0.057216	-0.013504	0.086485
H189	H	-0.636097	-0.513371	-0.362198
H190	H	-0.136097	-0.013371	0.137802
C191	C	-0.448117	-0.474402	-0.183639
C192	C	0.051883	0.025598	0.316361
H193	H	-0.443496	-0.445510	-0.150034
H194	H	0.056504	0.054490	0.349966
H195	H	-0.392201	-0.499945	-0.184529
H196	H	0.107799	0.000055	0.315471
H197	H	-0.503381	-0.499906	-0.178041
H198	H	-0.003381	0.000094	0.321959
C199	C	-0.281739	-0.916005	-0.733796
C200	C	0.218261	-0.416005	-0.233796
H201	H	-0.294213	-0.915297	-0.690140
H202	H	0.205787	-0.415297	-0.190140
H203	H	-0.241170	-0.881932	-0.744492
H204	H	0.258830	-0.381932	-0.244492
H205	H	-0.250877	-0.954161	-0.744543
H206	H	0.249123	-0.454161	-0.244543
H207	H	-0.352365	-0.666971	-0.229536
H208	H	0.147635	-0.166971	0.270464
C209	C	-0.480662	-0.474657	-0.420695
C210	C	0.019338	0.025343	0.079305
H211	H	-0.479575	-0.518303	-0.412593
H212	H	0.020425	-0.018303	0.087407
H213	H	-0.428250	-0.463991	-0.447116
H214	H	0.071750	0.036009	0.052884
H215	H	-0.539435	-0.463927	-0.440664
H216	H	-0.039435	0.036073	0.059336
C217	C	-0.334721	-0.989766	-0.669450
C218	C	0.165279	-0.489766	-0.169450
H219	H	-0.297997	-1.013646	-0.640612
H220	H	0.202003	-0.513646	-0.140612
H221	H	-0.292685	-0.965816	-0.694961
H222	H	0.207315	-0.465816	-0.194961
H223	H	-0.371617	-1.017056	-0.694994
H224	H	0.128383	-0.517056	-0.194994
H225	H	-0.352343	-0.548258	-0.229578
H226	H	0.147657	-0.048258	0.270422
C227	C	-0.334784	-0.989759	-0.532042
C228	C	0.165216	-0.489759	-0.032042
H229	H	-0.298021	-1.013630	-0.560916
H230	H	0.201979	-0.513630	-0.060916
H231	H	-0.371685	-1.017048	-0.506535
H232	H	0.128315	-0.517048	-0.006535
H233	H	-0.292770	-0.965798	-0.506499
H234	H	0.207230	-0.465798	-0.006499
