data_functionalizedCrystal
_audit_creation_method	'MofGen! by Chris Wilmer'
_symmetry_space_group_name_H-M	'P1'
_symmetry_Int_Tables_number	1
_symmetry_cell_setting	triclinic
loop_
_symmetry_equiv_pos_as_xyz
  x,y,z
_cell_length_a	19.077236
_cell_length_b	19.077078
_cell_length_c	17.077396
_cell_angle_alpha	87.735096
_cell_angle_beta	92.321175
_cell_angle_gamma	94.710072
loop_
_atom_site_label
_atom_site_type_symbol
_atom_site_fract_x
_atom_site_fract_y
_atom_site_fract_z
Zn1	Zn	1.066453	-0.237446	0.502323
Zn2	Zn	1.316453	0.012554	0.752323
Zn3	Zn	1.566453	0.262554	1.002323
Zn4	Zn	1.816453	0.512554	1.252323
Zn5	Zn	1.061620	-0.355343	0.376108
Zn6	Zn	1.311620	-0.105343	0.626108
Zn7	Zn	1.561620	0.144657	0.876108
Zn8	Zn	1.811620	0.394657	1.126108
Zn9	Zn	0.948561	-0.242196	0.365991
Zn10	Zn	1.198561	0.007804	0.615991
Zn11	Zn	1.448561	0.257804	0.865991
Zn12	Zn	1.698561	0.507804	1.115991
Zn13	Zn	0.943786	-0.360025	0.502252
Zn14	Zn	1.193786	-0.110025	0.752252
Zn15	Zn	1.443786	0.139975	1.002252
Zn16	Zn	1.693786	0.389975	1.252252
O17	O	1.005105	-0.298753	0.436668
O18	O	1.255105	-0.048753	0.686668
O19	O	1.505105	0.201247	0.936668
O20	O	1.755105	0.451247	1.186668
O21	O	1.164464	-0.249138	0.489844
O22	O	1.414464	0.000862	0.739844
O23	O	1.664464	0.250862	0.989844
O24	O	1.914464	0.500862	1.239844
O25	O	1.046599	-0.340363	0.264919
O26	O	1.296599	-0.090363	0.514919
O27	O	1.546599	0.159637	0.764919
O28	O	1.796599	0.409637	1.014919
O29	O	0.968221	-0.142914	0.379872
O30	O	1.218221	0.107086	0.629872
O31	O	1.468221	0.357086	0.879872
O32	O	1.718221	0.607086	1.129872
O33	O	1.160914	-0.335756	0.397114
O34	O	1.410914	-0.085756	0.647114
O35	O	1.660914	0.164244	0.897114
O36	O	1.910914	0.414244	1.147114
O37	O	1.054835	-0.139424	0.480034
O38	O	1.304835	0.110576	0.730034
O39	O	1.554835	0.360576	0.980034
O40	O	1.804835	0.610576	1.230034
O41	O	0.963535	-0.257234	0.257486
O42	O	1.213535	-0.007234	0.507486
O43	O	1.463535	0.242766	0.757486
O44	O	1.713535	0.492766	1.007486
O45	O	0.849275	-0.261774	0.379803
O46	O	1.099275	-0.011774	0.629803
O47	O	1.349275	0.238226	0.879803
O48	O	1.599275	0.488226	1.129803
O49	O	0.960082	-0.343736	0.612108
O50	O	1.210082	-0.093736	0.862108
O51	O	1.460082	0.156264	1.112108
O52	O	1.710082	0.406264	1.362108
O53	O	0.845767	-0.348342	0.479913
O54	O	1.095767	-0.098342	0.729913
O55	O	1.345767	0.151658	0.979913
O56	O	1.595767	0.401658	1.229913
O57	O	1.050205	-0.253677	0.612160
O58	O	1.300205	-0.003677	0.862160
O59	O	1.550205	0.246323	1.112160
O60	O	1.800205	0.496323	1.362160
O61	O	1.041968	-0.454616	0.397046
O62	O	1.291968	-0.204616	0.647046
O63	O	1.541968	0.045384	0.897046
O64	O	1.791968	0.295384	1.147046
O65	O	0.955396	-0.458056	0.489723
O66	O	1.205396	-0.208056	0.739723
O67	O	1.455396	0.041944	0.989723
O68	O	1.705396	0.291944	1.239723
C69	C	0.821942	-0.306082	0.428753
C70	C	1.071942	-0.056082	0.678753
C71	C	1.321942	0.193918	0.928753
C72	C	1.571942	0.443918	1.178753
C73	C	0.743583	-0.309235	0.425386
C74	C	0.993583	-0.059235	0.675386
C75	C	1.243583	0.190765	0.925386
C76	C	1.493583	0.440765	1.175386
C77	C	0.997659	-0.481915	0.444492
C78	C	1.247659	-0.231915	0.694492
C79	C	1.497659	0.018085	0.944492
C80	C	1.747659	0.268085	1.194492
C81	C	0.994537	-0.560270	0.447869
C82	C	1.244537	-0.310270	0.697869
C83	C	1.494537	-0.060270	0.947869
C84	C	1.744537	0.189730	1.197869
C85	C	0.972149	-1.001520	0.472112
C86	C	1.222149	-0.751520	0.722112
C87	C	1.472149	-0.501520	0.972112
C88	C	1.722149	-0.251520	1.222112
C89	C	0.975082	-0.927897	0.468931
C90	C	1.225082	-0.677897	0.718931
C91	C	1.475082	-0.427897	0.968931
C92	C	1.725082	-0.177897	1.218931
C93	C	1.021655	-0.889272	0.419126
C94	C	1.271655	-0.639272	0.669126
C95	C	1.521655	-0.389272	0.919126
C96	C	1.771655	-0.139272	1.169126
C97	C	1.065304	-0.924274	0.372505
C98	C	1.315304	-0.674274	0.622505
C99	C	1.565304	-0.424274	0.872505
C100	C	1.815304	-0.174274	1.122505
C101	C	1.062375	-0.997895	0.375690
C102	C	1.312375	-0.747895	0.625690
C103	C	1.562375	-0.497895	0.875690
C104	C	1.812375	-0.247895	1.125690
C105	C	1.035257	-0.668893	0.404433
C106	C	1.285257	-0.418893	0.654433
C107	C	1.535257	-0.168893	0.904433
C108	C	1.785257	0.081107	1.154433
C109	C	1.038182	-0.595267	0.401249
C110	C	1.288182	-0.345267	0.651249
C111	C	1.538182	-0.095267	0.901249
C112	C	1.788182	0.154733	1.151249
C113	C	0.947960	-0.598895	0.497677
C114	C	1.197960	-0.348895	0.747677
C115	C	1.447960	-0.098895	0.997677
C116	C	1.697960	0.151105	1.247677
C117	C	0.945031	-0.672517	0.500854
C118	C	1.195031	-0.422517	0.750854
C119	C	1.445031	-0.172517	1.000854
C120	C	1.695031	0.077483	1.250854
C121	C	0.988683	-0.707513	0.454236
C122	C	1.238683	-0.457513	0.704236
C123	C	1.488683	-0.207513	0.954236
C124	C	1.738683	0.042487	1.204236
N125	N	1.024652	-0.814018	0.415872
N126	N	1.274652	-0.564018	0.665872
N127	N	1.524652	-0.314018	0.915872
N128	N	1.774652	-0.064018	1.165872
N129	N	0.985689	-0.782765	0.457495
N130	N	1.235689	-0.532765	0.707495
N131	N	1.485689	-0.282765	0.957495
N132	N	1.735689	-0.032765	1.207495
C133	C	0.708616	-0.265690	0.472163
C134	C	0.958616	-0.015690	0.722163
C135	C	1.208616	0.234310	0.972163
C136	C	1.458616	0.484310	1.222163
C137	C	0.634990	-0.268649	0.468992
C138	C	0.884990	-0.018649	0.718992
C139	C	1.134990	0.231351	0.968992
C140	C	1.384990	0.481351	1.218992
C141	C	0.596332	-0.315157	0.419048
C142	C	0.846332	-0.065157	0.669048
C143	C	1.096332	0.184843	0.919048
C144	C	1.346332	0.434843	1.169048
C145	C	0.631304	-0.358704	0.372266
C146	C	0.881304	-0.108704	0.622266
C147	C	1.131304	0.141296	0.872266
C148	C	1.381304	0.391296	1.122266
C149	C	0.704929	-0.355741	0.375433
C150	C	0.954929	-0.105741	0.625433
C151	C	1.204929	0.144259	0.875433
C152	C	1.454929	0.394259	1.125433
C153	C	0.375938	-0.328843	0.404387
C154	C	0.625938	-0.078843	0.654387
C155	C	0.875938	0.171157	0.904387
C156	C	1.125938	0.421157	1.154387
C157	C	0.302308	-0.331804	0.401225
C158	C	0.552308	-0.081804	0.651225
C159	C	0.802308	0.168196	0.901225
C160	C	1.052308	0.418196	1.151225
C161	C	0.306000	-0.241748	0.497951
C162	C	0.556000	0.008252	0.747951
C163	C	0.806000	0.258252	0.997951
C164	C	1.056000	0.508252	1.247951
C165	C	0.379626	-0.238792	0.501117
C166	C	0.629626	0.011208	0.751117
C167	C	0.879626	0.261208	1.001117
C168	C	1.129626	0.511208	1.251117
C169	C	0.414592	-0.282337	0.454332
C170	C	0.664592	-0.032337	0.704332
C171	C	0.914592	0.217663	0.954332
C172	C	1.164592	0.467663	1.204332
N173	N	0.521074	-0.318184	0.415808
N174	N	0.771074	-0.068184	0.665808
N175	N	1.021074	0.181816	0.915808
N176	N	1.271074	0.431816	1.165808
N177	N	0.489848	-0.279305	0.457568
N178	N	0.739848	-0.029305	0.707568
N179	N	0.989848	0.220695	0.957568
N180	N	1.239848	0.470695	1.207568
C181	C	1.188983	-0.291395	0.444616
C182	C	1.438983	-0.041395	0.694616
C183	C	1.688983	0.208605	0.944616
C184	C	1.938983	0.458605	1.194616
C185	C	1.267342	-0.288259	0.448002
C186	C	1.517342	-0.038259	0.698002
C187	C	1.767342	0.211741	0.948002
C188	C	2.017342	0.461741	1.198002
C189	C	1.005150	-0.298699	0.641412
C190	C	1.255150	-0.048699	0.891412
C191	C	1.505150	0.201301	1.141412
C192	C	1.755150	0.451301	1.391412
C193	C	1.005169	-0.298676	0.728662
C194	C	1.255169	-0.048676	0.978662
C195	C	1.505169	0.201324	1.228662
C196	C	1.755169	0.451324	1.478662
C197	C	1.012600	-0.114874	0.428832
C198	C	1.262600	0.135126	0.678832
C199	C	1.512600	0.385126	0.928832
C200	C	1.762600	0.635126	1.178832
C201	C	1.015793	-0.036516	0.425493
C202	C	1.265793	0.213484	0.675493
C203	C	1.515793	0.463484	0.925493
C204	C	1.765793	0.713484	1.175493
C205	C	1.005103	-0.298754	0.232721
C206	C	1.255103	-0.048754	0.482721
C207	C	1.505103	0.201246	0.732721
C208	C	1.755103	0.451246	0.982721
C209	C	1.005229	-0.298572	0.145469
C210	C	1.255229	-0.048572	0.395469
C211	C	1.505229	0.201428	0.645469
C212	C	1.755229	0.451428	0.895469
C213	C	1.052098	-0.251779	0.769681
C214	C	1.302098	-0.001779	1.019681
C215	C	1.552098	0.248221	1.269681
C216	C	1.802098	0.498221	1.519681
C217	C	1.052107	-0.251755	0.851660
C218	C	1.302107	-0.001755	1.101660
C219	C	1.552107	0.248245	1.351660
C220	C	1.802107	0.498245	1.601660
C221	C	1.005191	-0.298632	0.892621
C222	C	1.255191	-0.048632	1.142621
C223	C	1.505191	0.201368	1.392621
C224	C	1.755191	0.451368	1.642621
C225	C	0.958257	-0.345532	0.851596
C226	C	1.208257	-0.095532	1.101596
C227	C	1.458257	0.154468	1.351596
C228	C	1.708257	0.404468	1.601596
C229	C	0.958244	-0.345552	0.769618
C230	C	1.208244	-0.095552	1.019618
C231	C	1.458244	0.154448	1.269618
C232	C	1.708244	0.404448	1.519618
C233	C	0.958287	-0.345488	1.022466
C234	C	1.208287	-0.095488	1.272466
C235	C	1.458287	0.154512	1.522466
C236	C	1.708287	0.404512	1.772466
C237	C	0.958300	-0.345470	1.104450
C238	C	1.208300	-0.095470	1.354450
C239	C	1.458300	0.154530	1.604450
C240	C	1.708300	0.404530	1.854450
C241	C	1.052149	-0.251692	1.104509
C242	C	1.302149	-0.001692	1.354509
C243	C	1.552149	0.248308	1.604509
C244	C	1.802149	0.498308	1.854509
C245	C	1.052137	-0.251712	1.022530
C246	C	1.302137	-0.001712	1.272530
C247	C	1.552137	0.248288	1.522530
C248	C	1.802137	0.498288	1.772530
C249	C	1.005204	-0.298612	0.981511
C250	C	1.255204	-0.048612	1.231511
C251	C	1.505204	0.201388	1.481511
C252	C	1.755204	0.451388	1.731511
H253	H	0.934225	-1.032963	0.512670
H254	H	1.184225	-0.782963	0.762670
H255	H	1.434225	-0.532963	1.012670
H256	H	1.684225	-0.282963	1.262670
F257	F	1.102100	-0.201777	1.148164
F258	F	1.352100	0.048223	1.398164
F259	F	1.602100	0.298223	1.648164
F260	F	1.852100	0.548223	1.898164
F261	F	1.081715	-0.706128	0.354816
F262	F	1.331715	-0.456128	0.604816
F263	F	1.581715	-0.206128	0.854816
F264	F	1.831715	0.043872	1.104816
F265	F	1.102078	-0.201864	0.895314
F266	F	1.352078	0.048136	1.145314
F267	F	1.602078	0.298136	1.395314
F268	F	1.852078	0.548136	1.645314
F269	F	0.742142	-0.402088	0.325647
F270	F	0.992142	-0.152088	0.575647
F271	F	1.242142	0.097912	0.825647
F272	F	1.492142	0.347912	1.075647
F273	F	1.087747	-0.554161	0.348229
F274	F	1.337747	-0.304161	0.598229
F275	F	1.587747	-0.054161	0.848229
F276	F	1.837747	0.195839	1.098229
F277	F	0.749753	-0.216193	0.525324
F278	F	0.999753	0.033807	0.775324
F279	F	1.249753	0.283807	1.025324
F280	F	1.499753	0.533807	1.275324
F281	F	0.908322	-0.395420	0.895191
F282	F	1.158322	-0.145420	1.145191
F283	F	1.408322	0.104580	1.395191
F284	F	1.658322	0.354580	1.645191
H285	H	0.920023	-0.383734	0.736221
H286	H	1.170023	-0.133734	0.986221
H287	H	1.420023	0.116266	1.236221
H288	H	1.670023	0.366266	1.486221
H289	H	0.411097	-0.200923	0.541790
H290	H	0.661097	0.049077	0.791790
H291	H	0.911097	0.299077	1.041790
H292	H	1.161097	0.549077	1.291790
F293	F	0.413142	-0.375175	0.354579
F294	F	0.663142	-0.125175	0.604579
F295	F	0.913142	0.124825	0.854579
F296	F	1.163142	0.374825	1.104579
H297	H	1.090345	-0.213544	0.989183
H298	H	1.340345	0.036456	1.239183
H299	H	1.590345	0.286456	1.489183
H300	H	1.840345	0.536456	1.739183
F301	F	0.597779	-0.222303	0.518781
F302	F	0.847779	0.027697	0.768781
F303	F	1.097779	0.277697	1.018781
F304	F	1.347779	0.527697	1.268781
F305	F	1.102037	-0.201888	0.726095
F306	F	1.352037	0.048112	0.976095
F307	F	1.602037	0.298112	1.226095
F308	F	1.852037	0.548112	1.476095
H309	H	0.920095	-0.383640	1.137798
H310	H	1.170095	-0.133640	1.387798
H311	H	1.420095	0.116360	1.637798
H312	H	1.670095	0.366360	1.887798
H313	H	0.920058	-0.383669	0.989070
H314	H	1.170058	-0.133669	1.239070
H315	H	1.420058	0.116331	1.489070
H316	H	1.670058	0.366331	1.739070
H317	H	1.097917	-1.026388	0.337730
H318	H	1.347917	-0.776388	0.587730
H319	H	1.597917	-0.526388	0.837730
H320	H	1.847917	-0.276388	1.087730
H321	H	0.277523	-0.206296	0.536040
H322	H	0.527523	0.043704	0.786040
H323	H	0.777523	0.293704	1.036040
H324	H	1.027523	0.543704	1.286040
F325	F	0.590159	-0.408197	0.319107
F326	F	0.840159	-0.158197	0.569107
F327	F	1.090159	0.091803	0.819107
F328	F	1.340159	0.341803	1.069107
F329	F	0.895469	-0.713619	0.553873
F330	F	1.145469	-0.463619	0.803873
F331	F	1.395469	-0.213619	1.053873
F332	F	1.645469	0.036381	1.303873
F333	F	0.928631	-0.890654	0.518553
F334	F	1.178631	-0.640654	0.768553
F335	F	1.428631	-0.390654	1.018553
F336	F	1.678631	-0.140654	1.268553
H337	H	0.912421	-0.570395	0.535632
H338	H	1.162421	-0.320395	0.785632
H339	H	1.412421	-0.070395	1.035632
H340	H	1.662421	0.179605	1.285632
F341	F	1.114876	-0.883164	0.319503
F342	F	1.364876	-0.633164	0.569503
F343	F	1.614876	-0.383164	0.819503
F344	F	1.864876	-0.133164	1.069503
F345	F	0.261166	-0.381320	0.348080
F346	F	0.511166	-0.131320	0.598080
F347	F	0.761166	0.118680	0.848080
F348	F	1.011166	0.368680	1.098080
