data_functionalizedCrystal
_audit_creation_method	'MofGen! by Chris Wilmer'
_symmetry_space_group_name_H-M	'P1'
_symmetry_Int_Tables_number	1
_symmetry_cell_setting	triclinic
loop_
_symmetry_equiv_pos_as_xyz
  x,y,z
_cell_length_a	19.288864
_cell_length_b	17.766277
_cell_length_c	19.288862
_cell_angle_alpha	90.015225
_cell_angle_beta	83.135763
_cell_angle_gamma	90.012907
loop_
_atom_site_label
_atom_site_type_symbol
_atom_site_fract_x
_atom_site_fract_y
_atom_site_fract_z
O1	O	-0.921342	-0.062848	-0.086651
O2	O	-0.421342	0.437152	0.413349
O3	O	-0.719081	-0.062798	-0.098340
O4	O	-0.219081	0.437202	0.401660
O5	O	-0.826056	-0.062805	0.008635
O6	O	-0.326056	0.437195	0.508635
O7	O	-0.814366	-0.062841	-0.193626
O8	O	-0.314366	0.437159	0.306374
O9	O	-0.826059	0.062383	0.008645
O10	O	-0.326059	0.562383	0.508645
O11	O	-0.719084	0.062390	-0.098330
O12	O	-0.219084	0.562390	0.401670
O13	O	-0.921344	0.062341	-0.086641
O14	O	-0.421344	0.562341	0.413359
Cu15	Cu	-0.820214	0.073796	-0.092484
Cu16	Cu	-0.320214	0.573796	0.407516
Cu17	Cu	-0.820211	-0.074254	-0.092497
Cu18	Cu	-0.320211	0.425746	0.407503
O19	O	-0.814369	0.062348	-0.193616
O20	O	-0.314369	0.562348	0.306384
C21	C	-0.693206	-0.000197	-0.097959
C22	C	-0.193206	0.499803	0.402041
C23	C	-0.616102	-0.000177	-0.096830
C24	C	-0.116102	0.499823	0.403170
C25	C	-0.825682	-0.000207	0.034516
C26	C	-0.325682	0.499793	0.534516
C27	C	-0.824554	-0.000197	0.111620
C28	C	-0.324554	0.499803	0.611620
N29	N	-0.820209	-0.178384	-0.092501
N30	N	-0.320209	0.321616	0.407499
C31	C	-0.947219	-0.000262	-0.087022
C32	C	-0.447219	0.499738	0.412978
C33	C	-1.024323	-0.000287	-0.088151
C34	C	-0.524323	0.499713	0.411849
C35	C	-0.571405	-0.000200	-0.159598
C36	C	-0.071405	0.499800	0.340402
C37	C	-0.498958	-0.000208	-0.158537
C38	C	0.001042	0.499792	0.341463
C39	C	-0.471211	-0.000209	-0.094705
C40	C	0.028789	0.499791	0.405295
C41	C	-0.515918	-0.000181	-0.031929
C42	C	-0.015918	0.499819	0.468071
C43	C	-0.588363	-0.000166	-0.032991
C44	C	-0.088363	0.499834	0.467009
C45	C	-0.362949	-0.044084	-0.044529
C46	C	0.137051	0.455916	0.455471
C47	C	-0.290504	-0.044104	-0.043470
C48	C	0.209496	0.455896	0.456530
C49	C	-0.247766	-0.000254	-0.091425
C50	C	0.252234	0.499746	0.408575
C51	C	-0.277479	0.043608	-0.140453
C52	C	0.222521	0.543608	0.359547
C53	C	-0.349924	0.043624	-0.141515
C54	C	0.150076	0.543624	0.358485
C55	C	-0.392657	-0.000225	-0.093546
C56	C	0.107343	0.499775	0.406454
C57	C	-0.124513	-0.000284	-0.153047
C58	C	0.375487	0.499716	0.346953
C59	C	-0.052065	-0.000288	-0.151984
C60	C	0.447935	0.499712	0.348016
C61	C	-0.069026	-0.000268	-0.025374
C62	C	0.430974	0.499732	0.474626
C63	C	-0.141473	-0.000257	-0.026439
C64	C	0.358527	0.499743	0.473561
C65	C	-0.169211	-0.000269	-0.090278
C66	C	0.330789	0.499731	0.409722
C67	C	-0.867662	-0.217774	-0.045224
C68	C	-0.367662	0.282226	0.454776
C69	C	-0.867668	-0.296576	-0.045223
C70	C	-0.367668	0.203424	0.454777
C71	C	-0.820209	-0.335985	-0.092492
C72	C	-0.320209	0.164015	0.407508
C73	C	-0.772753	-0.296585	-0.139777
C74	C	-0.272753	0.203415	0.360223
C75	C	-0.772753	-0.217785	-0.139781
C76	C	-0.272753	0.282215	0.360219
C77	C	-0.756922	-0.460815	-0.101637
C78	C	-0.256922	0.039185	0.398363
C79	C	-0.756921	-0.539614	-0.101628
C80	C	-0.256921	-0.039614	0.398372
C81	C	-0.820210	-0.579031	-0.092482
C82	C	-0.320210	-0.079031	0.407518
C83	C	-0.883502	-0.539639	-0.083331
C84	C	-0.383502	-0.039639	0.416669
C85	C	-0.883502	-0.460839	-0.083335
C86	C	-0.383502	0.039161	0.416665
C87	C	-0.820204	-0.421430	-0.092492
C88	C	-0.320204	0.078570	0.407508
C89	C	-0.867673	-0.703867	-0.045202
C90	C	-0.367673	-0.203867	0.454798
C91	C	-0.867680	-0.782670	-0.045205
C92	C	-0.367680	-0.282670	0.454795
C93	C	-0.772759	-0.782678	-0.139755
C94	C	-0.272759	-0.282678	0.360245
C95	C	-0.772758	-0.703876	-0.139755
C96	C	-0.272758	-0.203876	0.360245
C97	C	-0.820214	-0.664475	-0.092474
C98	C	-0.320214	-0.164475	0.407526
N99	N	-0.820221	0.177927	-0.092475
N100	N	-0.320221	0.677927	0.407525
C101	C	-0.887322	-0.000207	0.156316
C102	C	-0.387322	0.499793	0.656316
C103	C	-0.886262	-0.000216	0.228764
C104	C	-0.386262	0.499784	0.728764
C105	C	-0.822430	-0.000199	0.256511
C106	C	-0.322430	0.499801	0.756511
C107	C	-0.759653	-0.000193	0.211805
C108	C	-0.259653	0.499807	0.711805
C109	C	-0.760715	-0.000192	0.139359
C110	C	-0.260715	0.499808	0.639359
C111	C	-0.772252	0.043669	0.364802
C112	C	-0.272252	0.543669	0.864802
C113	C	-0.771193	0.043672	0.437247
C114	C	-0.271193	0.543672	0.937247
C115	C	-0.819152	-0.000206	0.479957
C116	C	-0.319152	0.499794	0.979957
C117	C	-0.868182	-0.044078	0.450215
C118	C	-0.368182	0.455922	0.950215
C119	C	-0.869244	-0.044077	0.377770
C120	C	-0.369244	0.455923	0.877770
C121	C	-0.821271	-0.000201	0.335065
C122	C	-0.321271	0.499799	0.835065
C123	C	-0.880775	-0.000226	0.603209
C124	C	-0.380775	0.499774	1.103209
C125	C	-0.879713	-0.000239	0.675658
C126	C	-0.379713	0.499761	1.175658
C127	C	-0.753102	-0.000209	0.658697
C128	C	-0.253102	0.499791	1.158697
C129	C	-0.754167	-0.000204	0.586251
C130	C	-0.254167	0.499796	1.086251
C131	C	-0.818005	-0.000208	0.558511
C132	C	-0.318005	0.499792	1.058511
C133	C	-0.814745	-0.000241	0.780503
C134	C	-0.314745	0.499759	1.280503
C135	C	-0.815880	-0.000224	0.703400
C136	C	-0.315880	0.499776	1.203400
H137	H	-0.593985	-0.000211	-0.211580
H138	H	-0.093985	0.499789	0.288420
C139	C	-0.682886	-0.000194	0.689207
C140	C	-0.182886	0.499806	1.189207
H141	H	-0.645655	-0.000191	0.652208
H142	H	-0.145655	0.499809	1.152208
H143	H	-0.679839	0.043460	0.717130
H144	H	-0.179839	0.543460	1.217130
H145	H	-0.679842	-0.043858	0.717101
H146	H	-0.179842	0.456142	1.217101
H147	H	-0.462559	-0.000225	-0.209652
H148	H	0.037441	0.499775	0.290348
H149	H	-0.906312	-0.328653	-0.006724
H150	H	-0.406312	0.171347	0.493276
H151	H	-0.374114	0.079340	-0.181433
H152	H	0.125886	0.579340	0.318567
C153	C	-0.637535	-0.000146	0.036055
C154	C	-0.137535	0.499854	0.536055
H155	H	-0.684654	-0.000135	0.026279
H156	H	-0.184654	0.499865	0.526279
H157	H	-0.629161	-0.043799	0.062237
H158	H	-0.129161	0.456201	0.562237
H159	H	-0.629133	0.043519	0.062241
H160	H	-0.129133	0.543519	0.562241
C161	C	-0.720555	-0.826014	-0.191753
C162	C	-0.220555	-0.326014	0.308247
H163	H	-0.692295	-0.791265	-0.219913
H164	H	-0.192295	-0.291265	0.280087
H165	H	-0.691776	-0.856741	-0.166781
H166	H	-0.191776	-0.356741	0.333219
H167	H	-0.745394	-0.856767	-0.220659
H168	H	-0.245394	-0.356767	0.279341
H169	H	-0.733196	0.079404	0.330033
H170	H	-0.233196	0.579404	0.830033
H171	H	-0.906306	-0.185696	-0.006727
H172	H	-0.406306	0.314304	0.493273
H173	H	-0.266317	-0.079822	-0.003551
H174	H	0.233683	0.420178	0.496449
H175	H	-0.397742	-0.079797	-0.005477
H176	H	0.102258	0.420203	0.494523
C177	C	-0.485399	-0.000186	0.038285
C178	C	0.014601	0.499814	0.538285
H179	H	-0.435851	-0.000207	0.029928
H180	H	0.064149	0.499793	0.529928
H181	H	-0.500737	0.043476	0.064127
H182	H	-0.000737	0.543476	0.564127
H183	H	-0.500775	-0.043842	0.064114
H184	H	-0.000775	0.456158	0.564114
C185	C	-0.689438	-0.000178	0.242321
C186	C	-0.189438	0.499822	0.742321
H187	H	-0.652206	-0.000179	0.205322
H188	H	-0.152206	0.499821	0.705322
H189	H	-0.686389	0.043477	0.270241
H190	H	-0.186389	0.543477	0.770241
H191	H	-0.686396	-0.043840	0.270217
H192	H	-0.186396	0.456160	0.770217
H193	H	-0.703054	-0.000191	0.549858
H194	H	-0.203054	0.499809	1.049858
H195	H	-0.937377	-0.000227	0.265162
H196	H	-0.437377	0.499773	0.765162
H197	H	-0.242682	0.079316	-0.179502
H198	H	0.257318	0.579316	0.320498
C199	C	-0.691667	-0.000174	0.090191
C200	C	-0.191667	0.499826	0.590191
H201	H	-0.653498	-0.000162	0.117090
H202	H	-0.153498	0.499838	0.617090
H203	H	-0.689449	-0.043826	0.061562
H204	H	-0.189449	0.456174	0.561562
H205	H	-0.689453	0.043491	0.061594
H206	H	-0.189453	0.543491	0.561594
C207	C	-0.923166	-0.092340	0.345054
C208	C	-0.423166	0.407660	0.845054
H209	H	-0.951575	-0.118478	0.380861
H210	H	-0.451575	0.381522	0.880861
H211	H	-0.951626	-0.060729	0.320555
H212	H	-0.451626	0.439271	0.820555
H213	H	-0.899556	-0.127602	0.313570
H214	H	-0.399556	0.372398	0.813570
H215	H	-0.705385	-0.571680	-0.109071
H216	H	-0.205385	-0.071680	0.390929
H217	H	-0.731267	0.079391	0.461456
H218	H	-0.231267	0.579391	0.961456
H219	H	-0.147099	-0.000282	-0.205029
H220	H	0.352901	0.499718	0.294971
H221	H	-0.705381	-0.428728	-0.109088
H222	H	-0.205381	0.071272	0.390912
C223	C	-0.002898	-0.000313	-0.221033
C224	C	0.497102	0.499687	0.278967
H225	H	-0.029797	-0.000325	-0.259202
H226	H	0.470203	0.499675	0.240798
H227	H	0.025732	0.043337	-0.223251
H228	H	0.525732	0.543337	0.276749
H229	H	0.025699	-0.043980	-0.223248
H230	H	0.525699	0.456020	0.276752
C231	C	-0.920937	-0.092351	0.497186
C232	C	-0.420937	0.407649	0.997186
H233	H	-0.913278	-0.086078	0.544591
H234	H	-0.413278	0.413922	1.044591
H235	H	-0.967068	-0.076944	0.491476
H236	H	-0.467068	0.423056	0.991476
H237	H	-0.914998	-0.143817	0.484476
H238	H	-0.414998	0.356183	0.984476
C239	C	-0.953115	-0.417507	-0.073273
C240	C	-0.453115	0.082493	0.426727
H241	H	-0.944047	-0.364933	-0.074581
H242	H	-0.444047	0.135067	0.425419
H243	H	-0.980142	-0.430438	-0.109588
H244	H	-0.480142	0.069562	0.390412
H245	H	-0.978098	-0.430410	-0.029433
H246	H	-0.478098	0.069590	0.470567
C247	C	-0.038513	-0.000273	0.044841
C248	C	0.461487	0.499727	0.544841
H249	H	0.011035	-0.000291	0.036485
H250	H	0.511035	0.499709	0.536485
H251	H	-0.053853	0.043387	0.070684
H252	H	0.446147	0.543387	0.570684
H253	H	-0.053887	-0.043931	0.070667
H254	H	0.446113	0.456069	0.570667
H255	H	-0.935038	-0.571731	-0.075888
H256	H	-0.435038	-0.071731	0.424112
C257	C	-0.190641	-0.000244	0.042607
C258	C	0.309359	0.499756	0.542607
H259	H	-0.163742	-0.000252	0.080776
H260	H	0.336258	0.499748	0.580776
H261	H	-0.219240	0.043417	0.044830
H262	H	0.280760	0.543417	0.544830
H263	H	-0.219268	-0.043901	0.044817
H264	H	0.280732	0.456099	0.544817
H265	H	-0.939304	-0.000214	0.133736
H266	H	-0.439304	0.499786	0.633736
C267	C	-0.919876	-0.660520	0.006797
C268	C	-0.419876	-0.160520	0.506797
H269	H	-0.913073	-0.607947	0.000030
H270	H	-0.413073	-0.107947	0.500030
H271	H	-0.966182	-0.673445	-0.000718
H272	H	-0.466182	-0.173445	0.499282
H273	H	-0.912567	-0.673418	0.053162
H274	H	-0.412567	-0.173418	0.553162
C275	C	-0.919880	-0.826000	0.006802
C276	C	-0.419880	-0.326000	0.506802
H277	H	-0.948137	-0.791245	0.034962
H278	H	-0.448137	-0.291245	0.534962
H279	H	-0.948663	-0.856755	-0.018165
H280	H	-0.448663	-0.356755	0.481835
H281	H	-0.895040	-0.856723	0.035707
H282	H	-0.395040	-0.356723	0.535707
C283	C	-0.720554	-0.660545	-0.191755
C284	C	-0.220554	-0.160545	0.308245
H285	H	-0.692286	-0.695299	-0.219904
H286	H	-0.192286	-0.195299	0.280096
H287	H	-0.745386	-0.629820	-0.220660
H288	H	-0.245386	-0.129820	0.279340
H289	H	-0.691772	-0.629790	-0.166779
H290	H	-0.191772	-0.129790	0.333221
H291	H	-0.734112	-0.328675	-0.178265
H292	H	-0.234112	0.171325	0.321735
C293	C	-0.720543	-0.174454	-0.191778
C294	C	-0.220543	0.325546	0.308222
H295	H	-0.692274	-0.209207	-0.219927
H296	H	-0.192274	0.290793	0.280073
H297	H	-0.745368	-0.143723	-0.220684
H298	H	-0.245368	0.356277	0.279316
H299	H	-0.691763	-0.143705	-0.166794
H300	H	-0.191763	0.356295	0.333206
C301	C	-0.950993	-0.000240	0.572693
C302	C	-0.450993	0.499760	1.072693
H303	H	-0.988225	-0.000258	0.609691
H304	H	-0.488225	0.499742	1.109691
H305	H	-0.954041	0.043417	0.544798
H306	H	-0.454041	0.543417	1.044798
H307	H	-0.954036	-0.043900	0.544771
H308	H	-0.454036	0.456100	1.044771
C309	C	-0.948759	-0.000259	0.724827
C310	C	-0.448759	0.499741	1.224827
H311	H	-0.938986	-0.000270	0.771947
H312	H	-0.438986	0.499730	1.271947
H313	H	-0.974946	0.043392	0.716455
H314	H	-0.474946	0.543392	1.216455
H315	H	-0.974940	-0.043926	0.716421
H316	H	-0.474940	0.456074	1.216421
