data_functionalizedCrystal
_audit_creation_method	'MofGen! by Chris Wilmer'
_symmetry_space_group_name_H-M	'P1'
_symmetry_Int_Tables_number	1
_symmetry_cell_setting	triclinic
loop_
_symmetry_equiv_pos_as_xyz
  x,y,z
_cell_length_a	6.394989
_cell_length_b	16.974800
_cell_length_c	15.455313
_cell_angle_alpha	90.973911
_cell_angle_beta	87.254133
_cell_angle_gamma	95.059532
loop_
_atom_site_label
_atom_site_type_symbol
_atom_site_fract_x
_atom_site_fract_y
_atom_site_fract_z
O1	O	-0.266282	1.051719	0.001730
O2	O	-0.298183	0.822603	-0.014360
O3	O	0.021813	0.940413	-0.006087
O4	O	-0.586278	0.933909	-0.006543
O5	O	0.003589	0.933675	0.137702
O6	O	-0.316406	0.815865	0.129429
O7	O	-0.284506	1.044981	0.145519
Cu8	Cu	-0.302120	0.929808	0.150603
Cu9	Cu	-0.280569	0.937776	-0.019444
O10	O	-0.604501	0.927171	0.137246
C11	C	-0.305747	0.789859	0.055471
C12	C	-0.301112	0.702332	0.049324
N13	N	-0.317276	0.924209	0.270205
C14	C	-0.308863	0.657543	0.124817
C15	C	-0.304475	0.575303	0.119044
C16	C	-0.292350	0.537852	0.037776
C17	C	-0.284593	0.582647	-0.037723
C18	C	-0.288966	0.664886	-0.031948
C19	C	-0.278191	0.292287	0.012102
C20	C	-0.273825	0.210041	0.006334
C21	C	-0.293703	0.202703	0.163101
C22	C	-0.298088	0.284944	0.168868
C23	C	-0.290319	0.329732	0.093369
N24	N	-0.287871	0.453789	0.031873
N25	N	-0.294783	0.413794	0.099273
C26	C	0.090530	0.935758	0.065714
C27	C	0.326788	0.931828	0.065437
C28	C	-0.276941	1.077725	0.075686
C29	C	-0.281576	1.165253	0.081827
N30	N	-0.265396	0.943381	-0.139046
C31	C	-0.181381	0.974278	0.319115
C32	C	-0.192863	0.970051	0.409626
C33	C	-0.340251	0.915760	0.451226
C34	C	-0.476152	0.865686	0.402309
C35	C	-0.464659	0.869909	0.311800
C36	C	-0.389804	0.897530	0.721527
C37	C	-0.401291	0.893313	0.812044
C38	C	-0.117997	0.997677	0.819355
C39	C	-0.106526	1.001899	0.728843
C40	C	-0.242419	0.951822	0.679934
N41	N	-0.351995	0.911440	0.543743
N42	N	-0.230664	0.956139	0.587419
H43	H	-0.318753	0.688028	0.190994
C44	C	-0.638262	0.805957	0.448071
N45	N	-0.760366	0.760968	0.482539
H46	H	-0.575317	0.829138	0.271977
C47	C	-0.271250	0.541449	-0.127118
N48	N	-0.261207	0.510419	-0.194453
C49	C	0.055623	1.061619	0.683090
N50	N	0.177755	1.106602	0.648629
H51	H	-0.007357	1.038446	0.859184
H52	H	-0.282658	0.701353	-0.093423
H53	H	-0.263957	0.179552	-0.059848
C54	C	-0.313050	0.526037	0.202093
N55	N	-0.319525	0.488929	0.264650
C56	C	-0.019240	1.034003	0.273364
N57	N	0.102896	1.078987	0.238907
H58	H	-0.307951	0.315430	0.235045
C59	C	-0.269627	0.341544	-0.070950
N60	N	-0.263168	0.378648	-0.133509
C61	C	-0.563430	0.833583	0.857801
N62	N	-0.685548	0.788597	0.892265
C63	C	-0.302227	0.153430	0.246144
N64	N	-0.308637	0.116318	0.308696
H65	H	-0.082205	1.010820	0.449449
H66	H	-0.500458	0.856757	0.681713
