data_functionalizedCrystal
_audit_creation_method	'MofGen! by Chris Wilmer'
_symmetry_space_group_name_H-M	'P1'
_symmetry_Int_Tables_number	1
_symmetry_cell_setting	triclinic
loop_
_symmetry_equiv_pos_as_xyz
  x,y,z
_cell_length_a	19.288840
_cell_length_b	23.532407
_cell_length_c	17.766277
_cell_angle_alpha	90.012379
_cell_angle_beta	89.983415
_cell_angle_gamma	97.012658
loop_
_atom_site_label
_atom_site_type_symbol
_atom_site_fract_x
_atom_site_fract_y
_atom_site_fract_z
O1	O	0.921145	-0.070977	-0.062730
O2	O	1.254479	0.262356	0.270604
O3	O	1.587812	0.595689	0.603937
O4	O	0.718853	-0.080576	-0.062705
O5	O	1.052186	0.252757	0.270628
O6	O	1.385519	0.586091	0.603962
O7	O	0.826099	0.007143	-0.062702
O8	O	1.159432	0.340476	0.270632
O9	O	1.492766	0.673809	0.603965
O10	O	0.813899	-0.158696	-0.062733
O11	O	1.147232	0.174637	0.270600
O12	O	1.480565	0.507970	0.603934
O13	O	0.826080	0.007147	0.062487
O14	O	1.159414	0.340481	0.395820
O15	O	1.492747	0.673814	0.729153
O16	O	0.718834	-0.080572	0.062484
O17	O	1.052167	0.252762	0.395817
O18	O	1.385501	0.586095	0.729150
O19	O	0.921127	-0.070973	0.062459
O20	O	1.254460	0.262360	0.395792
O21	O	1.587793	0.595694	0.729125
Cu22	Cu	0.819978	-0.075772	0.073902
Cu23	Cu	1.153312	0.257561	0.407235
Cu24	Cu	1.486645	0.590895	0.740569
Cu25	Cu	0.820001	-0.075777	-0.074148
Cu26	Cu	1.153334	0.257556	0.259185
Cu27	Cu	1.486667	0.590890	0.592519
O28	O	0.813880	-0.158692	0.062456
O29	O	1.147213	0.174642	0.395789
O30	O	1.480547	0.507975	0.729122
C31	C	0.692967	-0.080267	-0.000107
C32	C	1.026301	0.253066	0.333226
C33	C	1.359634	0.586399	0.666559
C34	C	0.615866	-0.079347	-0.000097
C35	C	0.949199	0.253986	0.333236
C36	C	1.282532	0.587319	0.666570
C37	C	0.825779	0.028362	-0.000105
C38	C	1.159112	0.361695	0.333229
C39	C	1.492446	0.695028	0.666562
C40	C	0.824845	0.091581	-0.000097
C41	C	1.158178	0.424914	0.333236
C42	C	1.491512	0.758247	0.666570
C43	C	0.579674	-0.078908	-0.068339
C44	C	0.913007	0.254425	0.264994
C45	C	1.246340	0.587759	0.598327
C46	C	0.507230	-0.078037	-0.068348
C47	C	0.840563	0.255296	0.264985
C48	C	1.173896	0.588630	0.598318
C49	C	0.470982	-0.077594	-0.000111
C50	C	0.804315	0.255739	0.333222
C51	C	1.137649	0.589072	0.666555
C52	C	0.507182	-0.078037	0.068140
C53	C	0.840515	0.255296	0.401473
C54	C	1.173849	0.588629	0.734806
C55	C	0.579624	-0.078914	0.068147
C56	C	0.912957	0.254420	0.401480
C57	C	1.246291	0.587753	0.734814
C58	C	0.361754	-0.042846	0.052164
C59	C	0.695087	0.290487	0.385497
C60	C	1.028420	0.623821	0.718830
C61	C	0.289314	-0.041966	0.052154
C62	C	0.622647	0.291367	0.385487
C63	C	0.955980	0.624701	0.718820
C64	C	0.247547	-0.074894	-0.000130
C65	C	0.580880	0.258440	0.333203
C66	C	0.914213	0.591773	0.666536
C67	C	0.278230	-0.108694	-0.052417
C68	C	0.611563	0.224640	0.280916
C69	C	0.944896	0.557973	0.614249
C70	C	0.350672	-0.109570	-0.052410
C71	C	0.684005	0.223763	0.280923
C72	C	1.017338	0.557096	0.614256
C73	C	0.392431	-0.076644	-0.000111
C74	C	0.725764	0.256689	0.333222
C75	C	1.059098	0.590022	0.666555
C76	C	0.132802	-0.073511	-0.068387
C77	C	0.466136	0.259823	0.264946
C78	C	0.799469	0.593156	0.598280
C79	C	0.060356	-0.072643	-0.068393
C80	C	0.393689	0.260690	0.264940
C81	C	0.727023	0.594023	0.598273
C82	C	0.060311	-0.072638	0.068097
C83	C	0.393644	0.260696	0.401430
C84	C	0.726978	0.594029	0.734763
C85	C	0.132755	-0.073511	0.068101
C86	C	0.466088	0.259823	0.401434
C87	C	0.799422	0.593156	0.734768
C88	C	0.168997	-0.073944	-0.000143
C89	C	0.502330	0.259389	0.333190
C90	C	0.835663	0.592722	0.666524
C91	C	0.882453	0.490568	-0.000133
C92	C	1.215786	0.823902	0.333200
C93	C	1.549119	1.157235	0.666534
C94	C	0.881585	0.549970	-0.000137
C95	C	1.214918	0.883304	0.333197
C96	C	1.548251	1.216637	0.666530
O97	O	0.934988	0.586608	-0.000170
O98	O	1.268321	0.919942	0.333163
O99	O	1.601654	1.253275	0.666497
N100	N	0.817827	0.572724	-0.000128
N101	N	1.151160	0.906057	0.333206
N102	N	1.484493	1.239391	0.666539
C103	C	0.754932	0.536072	-0.000122
C104	C	1.088266	0.869406	0.333211
C105	C	1.421599	1.202739	0.666544
O106	O	0.700622	0.560880	-0.000116
O107	O	1.033955	0.894214	0.333218
O108	O	1.367288	1.227547	0.666551
C109	C	0.755801	0.476671	-0.000124
C110	C	1.089134	0.810005	0.333209
C111	C	1.422468	1.143338	0.666543
C112	C	0.819563	0.453921	-0.000125
C113	C	1.152896	0.787255	0.333208
C114	C	1.486230	1.120588	0.666541
C115	C	0.946209	0.467818	-0.000135
C116	C	1.279543	0.801151	0.333198
C117	C	1.612876	1.134484	0.666531
C118	C	0.947077	0.408420	-0.000130
C119	C	1.280410	0.741753	0.333203
C120	C	1.613744	1.075087	0.666536
C121	C	0.884187	0.371773	-0.000123
C122	C	1.217521	0.705106	0.333211
C123	C	1.550854	1.038439	0.666544
C124	C	0.820430	0.394523	-0.000120
C125	C	1.153764	0.727857	0.333213
C126	C	1.487097	1.061190	0.666546
C127	C	0.692907	0.440021	-0.000124
C128	C	1.026241	0.773354	0.333209
C129	C	1.359574	1.106687	0.666543
C130	C	0.693781	0.380616	-0.000126
C131	C	1.027115	0.713950	0.333207
C132	C	1.360448	1.047283	0.666540
C133	C	0.757543	0.357866	-0.000128
C134	C	1.090877	0.691200	0.333206
C135	C	1.424210	1.024533	0.666539
C136	C	0.758408	0.298478	-0.000108
C137	C	1.091742	0.631812	0.333226
C138	C	1.425075	0.965145	0.666559
N139	N	0.822166	0.275725	-0.000117
N140	N	1.155500	0.609058	0.333217
N141	N	1.488833	0.942391	0.666550
C142	C	0.885056	0.312372	-0.000124
C143	C	1.218389	0.645705	0.333209
C144	C	1.551722	0.979039	0.666542
C145	C	0.753113	0.660818	-0.000120
C146	C	1.086447	0.994152	0.333213
C147	C	1.419780	1.327485	0.666546
C148	C	0.752244	0.720218	-0.000113
C149	C	1.085578	1.053551	0.333220
C150	C	1.418911	1.386885	0.666553
C151	C	0.878897	0.734112	-0.000129
C152	C	1.212230	1.067446	0.333204
C153	C	1.545564	1.400779	0.666538
C154	C	0.879765	0.674711	-0.000131
C155	C	1.213099	1.008045	0.333203
C156	C	1.546432	1.341378	0.666536
C157	C	0.816871	0.638065	-0.000129
C158	C	1.150205	0.971398	0.333204
C159	C	1.483538	1.304731	0.666537
C160	C	0.886873	0.187631	-0.000113
C161	C	1.220206	0.520965	0.333221
C162	C	1.553539	0.854298	0.666554
C163	C	0.887735	0.128228	-0.000104
C164	C	1.221068	0.461561	0.333229
C165	C	1.554401	0.794894	0.666562
C166	C	0.761082	0.114339	-0.000093
C167	C	1.094416	0.447672	0.333241
C168	C	1.427749	0.781005	0.666574
C169	C	0.760220	0.173737	-0.000097
C170	C	1.093553	0.507071	0.333236
C171	C	1.426887	0.840404	0.666570
C172	C	0.823121	0.210383	-0.000110
C173	C	1.156454	0.543716	0.333224
C174	C	1.489788	0.877049	0.666557
O175	O	0.705034	0.261806	-0.000077
O176	O	1.038367	0.595139	0.333256
O177	O	1.371700	0.928473	0.666589
O178	O	0.939358	0.287555	-0.000141
O179	O	1.272691	0.620889	0.333192
O180	O	1.606024	0.954222	0.666526
C181	C	0.947012	-0.071282	-0.000141
C182	C	1.280345	0.262052	0.333193
C183	C	1.613678	0.595385	0.666526
C184	C	1.024113	-0.072202	-0.000156
C185	C	1.357447	0.261132	0.333178
C186	C	1.690780	0.594465	0.666511
C187	C	0.814200	0.820089	-0.000135
C188	C	1.147533	1.153423	0.333198
C189	C	1.480867	1.486756	0.666531
C190	C	0.815134	0.756870	-0.000125
C191	C	1.148468	1.090204	0.333209
C192	C	1.481801	1.423537	0.666542
N193	N	0.819968	-0.075768	0.178032
N194	N	1.153301	0.257565	0.511366
N195	N	1.486635	0.590899	0.844699
N196	N	0.820017	-0.075777	-0.178278
N197	N	1.153350	0.257557	0.155055
N198	N	1.486683	0.590890	0.488388
C199	C	0.867472	-0.036945	0.217421
C200	C	1.200805	0.296388	0.550754
C201	C	1.534139	0.629722	0.884087
C202	C	0.867476	-0.036942	0.296222
C203	C	1.200809	0.296391	0.629556
C204	C	1.534143	0.629724	0.962889
C205	C	0.819983	-0.075772	0.335633
C206	C	1.153316	0.257561	0.668966
C207	C	1.486649	0.590894	1.002299
C208	C	0.772470	-0.114598	0.296235
C209	C	1.105803	0.218735	0.629568
C210	C	1.439136	0.552068	0.962902
C211	C	0.772462	-0.114596	0.217435
C212	C	1.105796	0.218737	0.550768
C213	C	1.439129	0.552071	0.884101
C214	C	0.810524	-0.127664	0.460462
C215	C	1.143857	0.205669	0.793795
C216	C	1.477190	0.539003	1.127128
C217	C	0.810536	-0.127667	0.539261
C218	C	1.143869	0.205666	0.872594
C219	C	1.477202	0.539000	1.205927
C220	C	0.820001	-0.075779	0.578679
C221	C	1.153334	0.257554	0.912012
C222	C	1.486668	0.590887	1.245346
C223	C	0.829469	-0.023886	0.539289
C224	C	1.162802	0.309447	0.872622
C225	C	1.496136	0.642781	1.205956
C226	C	0.829462	-0.023884	0.460489
C227	C	1.162795	0.309450	0.793822
C228	C	1.496128	0.642783	1.127156
C229	C	0.819985	-0.075779	0.421078
C230	C	1.153318	0.257554	0.754412
C231	C	1.486652	0.590888	1.087745
C232	C	0.867512	-0.036950	0.703513
C233	C	1.200845	0.296383	1.036847
C234	C	1.534179	0.629716	1.370180
C235	C	0.867511	-0.036947	0.782317
C236	C	1.200845	0.296387	1.115650
C237	C	1.534178	0.629720	1.448983
C238	C	0.772508	-0.114608	0.782328
C239	C	1.105842	0.218726	1.115661
C240	C	1.439175	0.552059	1.448994
C241	C	0.772506	-0.114606	0.703526
C242	C	1.105839	0.218727	1.036859
C243	C	1.439173	0.552060	1.370193
C244	C	0.820011	-0.075778	0.664124
C245	C	1.153345	0.257555	0.997457
C246	C	1.486678	0.590889	1.330790
H247	H	0.477756	-0.077680	-0.123921
H248	H	0.811089	0.255653	0.209412
H249	H	1.144423	0.588987	0.542746
O250	O	0.721270	-0.156480	0.661035
O251	O	1.054603	0.176853	0.994368
O252	O	1.387937	0.510186	1.327702
H253	H	0.750310	-0.184093	0.625105
H254	H	1.083643	0.149240	0.958438
H255	H	1.416977	0.482574	1.291771
O256	O	0.956511	0.103693	-0.000119
O257	O	1.289845	0.437026	0.333215
O258	O	1.623178	0.770360	0.666548
H259	H	0.986708	0.118441	0.050896
H260	H	1.320042	0.451775	0.384229
H261	H	1.653375	0.785108	0.717563
H262	H	0.733778	-0.146211	0.185364
H263	H	1.067112	0.187122	0.518697
H264	H	1.400445	0.520456	0.852031
H265	H	0.997425	0.497651	-0.000144
H266	H	1.330758	0.830984	0.333189
H267	H	1.664091	1.164317	0.666522
O268	O	0.691453	0.198284	-0.000086
O269	O	1.024786	0.531617	0.333247
O270	O	1.358119	0.864950	0.666580
H271	H	0.661264	0.183543	-0.051109
H272	H	0.994597	0.516876	0.282224
H273	H	1.327931	0.850209	0.615557
H274	H	0.030798	-0.072281	0.123657
H275	H	0.364132	0.261053	0.456990
H276	H	0.697465	0.594386	0.790323
H277	H	0.162223	-0.073865	0.123671
H278	H	0.495557	0.259468	0.457005
H279	H	0.828890	0.592802	0.790338
H280	H	0.609177	-0.079261	-0.123909
H281	H	0.942511	0.254072	0.209424
H282	H	1.275844	0.587406	0.542758
H283	H	0.906152	-0.005327	0.185341
H284	H	1.239485	0.328006	0.518675
H285	H	1.572819	0.661339	0.852008
O286	O	0.948536	0.650174	-0.000146
O287	O	1.281869	0.983507	0.333187
O288	O	1.615202	1.316841	0.666520
H289	H	0.992117	0.685642	-0.000157
H290	H	1.325450	1.018976	0.333176
H291	H	1.658784	1.352309	0.666509
H292	H	0.709879	0.084490	-0.000084
H293	H	1.043213	0.417823	0.333249
H294	H	1.376546	0.751157	0.666583
O295	O	0.383768	-0.146030	-0.108791
O296	O	0.717102	0.187303	0.224542
O297	O	1.050435	0.520637	0.557876
H298	H	0.342560	-0.168785	-0.145147
H299	H	0.675893	0.164548	0.188186
H300	H	1.009226	0.497882	0.521519
O301	O	1.015852	0.383890	-0.000139
O302	O	1.349185	0.717223	0.333194
O303	O	1.682519	1.050557	0.666528
H304	H	1.005902	0.336427	-0.000132
H305	H	1.339235	0.669761	0.333202
H306	H	1.672568	1.003094	0.666535
O307	O	0.233193	-0.144217	-0.108812
O308	O	0.566526	0.189117	0.224521
O309	O	0.899860	0.522450	0.557854
H310	H	0.177664	-0.137937	-0.100029
H311	H	0.510997	0.195396	0.233304
H312	H	0.844330	0.528730	0.566638
O313	O	0.918721	0.004926	0.338721
O314	O	1.252054	0.338260	0.672054
O315	O	1.585387	0.671593	1.005387
H316	H	0.951756	0.031923	0.298083
H317	H	1.285090	0.365256	0.631416
H318	H	1.618423	0.698589	0.964750
H319	H	0.733799	-0.146213	0.328327
H320	H	1.067132	0.187120	0.661660
H321	H	1.400466	0.520453	0.994994
H322	H	0.938093	0.217462	-0.000126
H323	H	1.271426	0.550795	0.333207
H324	H	1.604759	0.884129	0.666541
O325	O	0.618660	-0.079396	0.141757
O326	O	0.951994	0.253938	0.475090
O327	O	1.285327	0.587271	0.808423
H328	H	0.611217	-0.040420	0.174493
H329	H	0.944551	0.292913	0.507826
H330	H	1.277884	0.626247	0.841159
H331	H	0.930105	0.763961	-0.000138
H332	H	1.263438	1.097295	0.333195
H333	H	1.596772	1.430628	0.666529
H334	H	0.701894	0.630983	-0.000113
H335	H	1.035228	0.964316	0.333221
H336	H	1.368561	1.297650	0.666554
H337	H	0.700323	0.738735	-0.000099
H338	H	1.033656	1.072069	0.333234
H339	H	1.366990	1.405402	0.666568
O340	O	0.918750	0.004932	0.824800
O341	O	1.252083	0.338266	1.158133
O342	O	1.585417	0.671599	1.491467
H343	H	0.910769	-0.001586	0.886215
H344	H	1.244103	0.331748	1.219548
H345	H	1.577436	0.665081	1.552882
H346	H	0.162311	-0.073870	-0.123955
H347	H	0.495644	0.259464	0.209378
H348	H	0.828977	0.592797	0.542711
H349	H	0.640985	0.458533	-0.000127
H350	H	0.974319	0.791866	0.333206
H351	H	1.307652	1.125200	0.666539
O352	O	0.800339	-0.183634	0.581745
O353	O	1.133672	0.149700	0.915078
O354	O	1.467005	0.483033	1.248411
H355	H	0.793746	-0.219714	0.541098
H356	H	1.127080	0.113619	0.874431
H357	H	1.460413	0.446953	1.207765
H358	H	0.837169	0.018369	0.428421
H359	H	1.170502	0.351703	0.761754
H360	H	1.503836	0.685036	1.095087
H361	H	0.642564	0.350781	-0.000126
H362	H	0.975897	0.684114	0.333207
H363	H	1.309231	1.017448	0.666540
H364	H	0.837176	0.018366	0.571382
H365	H	1.170510	0.351699	0.904715
H366	H	1.503843	0.685033	1.238049
H367	H	0.395755	-0.016031	0.094744
H368	H	0.729089	0.317302	0.428077
H369	H	1.062422	0.650636	0.761410
H370	H	0.906192	-0.005332	0.671431
H371	H	1.239525	0.328001	1.004764
H372	H	1.572859	0.661335	1.338097
H373	H	0.802804	-0.169920	0.428374
H374	H	1.136137	0.163413	0.761707
H375	H	1.469470	0.496746	1.095040
O376	O	0.021318	-0.072149	-0.142000
O377	O	0.354651	0.261184	0.191333
O378	O	0.687985	0.594518	0.524666
H379	H	0.058695	-0.072585	-0.189450
H380	H	0.392028	0.260748	0.143884
H381	H	0.725362	0.594082	0.477217
O382	O	0.256225	-0.005515	0.108551
O383	O	0.589558	0.327819	0.441885
O384	O	0.922892	0.661152	0.775218
H385	H	0.277759	0.040044	0.100845
H386	H	0.611092	0.373377	0.434178
H387	H	0.944426	0.706711	0.767512
O388	O	0.468048	-0.077835	0.141740
O389	O	0.801381	0.255498	0.475073
O390	O	1.134714	0.588831	0.808407
H391	H	0.411578	-0.077247	0.130271
H392	H	0.744911	0.256086	0.463604
H393	H	1.078244	0.589420	0.796937
O394	O	0.721282	-0.156492	0.824822
O395	O	1.054616	0.176841	1.158155
O396	O	1.387949	0.510174	1.491488
H397	H	0.729270	-0.149975	0.886235
H398	H	1.062603	0.183359	1.219568
H399	H	1.395936	0.516692	1.552901
