data_functionalizedCrystal
_audit_creation_method	'MofGen! by Chris Wilmer'
_symmetry_space_group_name_H-M	'P1'
_symmetry_Int_Tables_number	1
_symmetry_cell_setting	triclinic
loop_
_symmetry_equiv_pos_as_xyz
  x,y,z
_cell_length_a	14.971487
_cell_length_b	9.798715
_cell_length_c	14.971486
_cell_angle_alpha	90.003357
_cell_angle_beta	96.385734
_cell_angle_gamma	90.002485
loop_
_atom_site_label
_atom_site_type_symbol
_atom_site_fract_x
_atom_site_fract_y
_atom_site_fract_z
O1	O	-1.186943	0.113296	0.116564
O2	O	-0.686943	0.613296	0.616564
O3	O	-0.926543	0.113342	0.130522
O4	O	-0.426543	0.613342	0.630522
O5	O	-1.063723	0.113308	-0.006657
O6	O	-0.563723	0.613308	0.493343
O7	O	-1.049764	0.113330	0.253743
O8	O	-0.549764	0.613330	0.753743
O9	O	-1.063713	-0.113674	-0.006658
O10	O	-0.563713	0.386326	0.493342
O11	O	-0.926533	-0.113640	0.130521
O12	O	-0.426533	0.386360	0.630521
O13	O	-1.186933	-0.113686	0.116563
O14	O	-0.686933	0.386314	0.616563
Zn15	Zn	-1.056732	-0.149701	0.123542
Zn16	Zn	-0.556732	0.350299	0.623542
Zn17	Zn	-1.056745	0.149357	0.123543
Zn18	Zn	-0.556745	0.649357	0.623543
O19	O	-1.049754	-0.113652	0.253742
O20	O	-0.549754	0.386348	0.753742
C21	C	-0.893214	-0.000143	0.129897
C22	C	-0.393214	0.499857	0.629897
C23	C	-0.793917	-0.000126	0.128026
C24	C	-0.293917	0.499874	0.628026
N25	N	-1.056729	-0.353801	0.123541
N26	N	-0.556729	0.146199	0.623541
C27	C	-0.736691	-0.000120	0.208615
C28	C	-0.236691	0.499880	0.708615
C29	C	-0.643392	-0.000137	0.206852
C30	C	-0.143392	0.499863	0.706852
C31	C	-0.607320	-0.000151	0.124499
C32	C	-0.107320	0.499849	0.624499
C33	C	-0.664552	-0.000162	0.043903
C34	C	-0.164552	0.499838	0.543903
C35	C	-0.757850	-0.000154	0.045668
C36	C	-0.257850	0.499846	0.545668
C37	C	-0.470090	-0.000175	0.040232
C38	C	0.029910	0.499825	0.540232
C39	C	-0.376786	-0.000180	0.038467
C40	C	0.123214	0.499820	0.538467
C41	C	-0.355632	-0.000158	0.201416
C42	C	0.144368	0.499842	0.701416
C43	C	-0.448929	-0.000150	0.203181
C44	C	0.051071	0.499850	0.703181
C45	C	-0.506156	-0.000158	0.122585
C46	C	-0.006156	0.499842	0.622585
C47	C	-1.114329	-0.421592	0.065692
C48	C	-0.614329	0.078408	0.565692
C49	C	-1.114343	-0.578755	0.065689
C50	C	-0.614343	-0.078755	0.565689
C51	C	-0.220263	-0.000189	0.117187
C52	C	0.279737	0.499811	0.617187
C53	C	-0.319560	-0.000173	0.119056
C54	C	0.180440	0.499827	0.619056
C55	C	-1.063094	-0.000182	-0.039982
C56	C	-0.563094	0.499818	0.460018
C57	C	-1.061223	-0.000181	-0.139279
C58	C	-0.561223	0.499819	0.360721
N59	N	-1.056755	0.353457	0.123536
N60	N	-0.556755	0.853457	0.623536
C61	C	-1.141812	-0.000196	-0.196504
C62	C	-0.641812	0.499804	0.303496
C63	C	-1.140049	-0.000182	-0.289804
C64	C	-0.640049	0.499818	0.210196
C65	C	-1.057696	-0.000163	-0.325876
C66	C	-0.557696	0.499837	0.174124
C67	C	-0.977100	-0.000143	-0.268644
C68	C	-0.477100	0.499857	0.231356
C69	C	-0.978864	-0.000148	-0.175346
C70	C	-0.478864	0.499852	0.324654
C71	C	-0.973429	-0.000138	-0.463107
C72	C	-0.473429	0.499862	0.036893
C73	C	-0.971665	-0.000136	-0.556411
C74	C	-0.471665	0.499864	-0.056411
C75	C	-1.134614	-0.000172	-0.577564
C76	C	-0.634614	0.499828	-0.077564
C77	C	-1.136378	-0.000176	-0.484266
C78	C	-0.636378	0.499824	0.015734
C79	C	-1.055782	-0.000160	-0.427040
C80	C	-0.555782	0.499840	0.072960
C81	C	-1.050383	-0.000159	0.287067
C82	C	-0.550383	0.499841	0.787067
C83	C	-1.052254	-0.000151	0.386364
C84	C	-0.552254	0.499849	0.886364
H85	H	-0.766053	-0.000107	0.275677
H86	H	-0.266053	0.499893	0.775677
F87	F	-0.294727	-0.000152	0.287193
F88	F	0.205273	0.499848	0.787193
F89	F	-0.889453	-0.000107	-0.307037
F90	F	-0.389453	0.499893	0.192963
H91	H	-0.596802	-0.000130	0.272476
H92	H	-0.096802	0.499870	0.772476
F93	F	-0.887649	-0.000117	-0.402204
F94	F	-0.387649	0.499883	0.097796
H95	H	-1.007442	-0.588254	0.173070
H96	H	-0.507442	-0.088254	0.673070
F97	F	-0.487318	-0.000121	0.290830
F98	F	0.012682	0.499879	0.790830
H99	H	-1.007423	-0.412113	0.173063
H100	H	-0.507423	0.087887	0.673063
H101	H	-0.913240	-0.000135	-0.128754
H102	H	-0.413240	0.499865	0.371246
F103	F	-0.338397	-0.000230	-0.049182
F104	F	0.161603	0.499770	0.450818
F105	F	-0.530992	-0.000188	-0.045548
F106	F	-0.030992	0.499812	0.454452
F107	F	-1.224027	-0.000194	-0.445878
F108	F	-0.724027	0.499806	0.054122
F109	F	-0.884015	-0.000117	-0.594800
F110	F	-0.384015	0.499883	-0.094800
H111	H	-0.635175	-0.000193	-0.023150
H112	H	-0.135175	0.499807	0.476850
H113	H	-0.804443	-0.000159	-0.019956
H114	H	-0.304443	0.499841	0.480044
H115	H	-1.200238	-0.000181	-0.624162
H116	H	-0.700238	0.499819	-0.124162
H117	H	-1.163629	-0.363282	0.016163
H118	H	-0.663629	0.136718	0.516163
H119	H	-1.163660	-0.637052	0.016164
H120	H	-0.663660	-0.137052	0.516164
F121	F	-1.229465	-0.000230	-0.158123
F122	F	-0.729465	0.499770	0.341877
H123	H	-1.205673	-0.000197	-0.336394
H124	H	-0.705673	0.499803	0.163606
