data_functionalizedCrystal
_audit_creation_method	'MofGen! by Chris Wilmer'
_symmetry_space_group_name_H-M	'P1'
_symmetry_Int_Tables_number	1
_symmetry_cell_setting	triclinic
loop_
_symmetry_equiv_pos_as_xyz
  x,y,z
_cell_length_a	17.077404
_cell_length_b	19.805404
_cell_length_c	17.077396
_cell_angle_alpha	90.029459
_cell_angle_beta	90.018362
_cell_angle_gamma	90.027563
loop_
_atom_site_label
_atom_site_type_symbol
_atom_site_fract_x
_atom_site_fract_y
_atom_site_fract_z
Zn1	Zn	1.200018	-0.269500	0.443813
Zn2	Zn	1.199910	-0.382693	0.312545
Zn3	Zn	1.068750	-0.269519	0.312564
Zn4	Zn	1.068702	-0.382648	0.443771
O5	O	1.134345	-0.326090	0.378174
O6	O	1.309851	-0.284526	0.426410
O7	O	1.182486	-0.367707	0.202701
O8	O	1.086228	-0.174800	0.330000
O9	O	1.309771	-0.367688	0.329968
O10	O	1.182670	-0.174786	0.426428
O11	O	1.086123	-0.284559	0.202715
O12	O	0.958897	-0.284515	0.329959
O13	O	1.086147	-0.367612	0.553624
O14	O	0.958862	-0.367631	0.426357
O15	O	1.182624	-0.284482	0.553655
O16	O	1.182440	-0.477404	0.329927
O17	O	1.086042	-0.477371	0.426339
C18	C	0.930397	-0.326071	0.378156
C19	C	0.843147	-0.326079	0.378167
C20	C	0.802199	-0.282853	0.428461
C21	C	0.720219	-0.282858	0.428465
C22	C	0.679188	-0.326092	0.378178
C23	C	0.720142	-0.369319	0.327878
C24	C	0.802121	-0.369311	0.327871
C25	C	0.549272	-0.369335	0.327897
C26	C	0.467287	-0.369344	0.327905
C27	C	0.467370	-0.282881	0.428491
C28	C	0.549349	-0.282873	0.428484
C29	C	0.590297	-0.326102	0.378185
C30	C	1.134245	-0.501946	0.378143
C31	C	1.134275	-0.577178	0.378157
C32	C	1.184732	-1.038964	0.328082
C33	C	1.184695	-0.968275	0.328067
C34	C	1.134448	-0.932940	0.378215
C35	C	1.084229	-0.968296	0.428377
C36	C	1.084262	-1.038984	0.428387
C37	C	1.084092	-0.683223	0.428333
C38	C	1.084064	-0.612531	0.428320
C39	C	1.184525	-0.612515	0.328013
C40	C	1.184559	-0.683202	0.328024
C41	C	1.134337	-0.718552	0.378182
C42	C	1.134376	-0.795201	0.378197
C43	C	1.134412	-0.856293	0.378205
C44	C	1.339089	-0.326110	0.378192
C45	C	1.426339	-0.326118	0.378199
C46	C	1.134393	-0.326040	0.582918
C47	C	1.134413	-0.326019	0.670168
C48	C	1.134466	-0.149547	0.378221
C49	C	1.134518	-0.074315	0.378241
C50	C	1.134343	-0.326091	0.174226
C51	C	1.134475	-0.325921	0.086976
C52	C	1.184650	-0.282730	0.711175
C53	C	1.184660	-0.282707	0.793156
C54	C	1.134435	-0.325978	0.834127
C55	C	1.084192	-0.369269	0.793114
C56	C	1.084179	-0.369288	0.711135
C57	C	1.084224	-0.369228	0.963984
C58	C	1.084237	-0.369211	1.045969
C59	C	1.184704	-0.282648	1.046005
C60	C	1.184691	-0.282666	0.964026
C61	C	1.134449	-0.325959	0.923018
H62	H	0.433882	-0.404549	0.286958
Cl63	Cl	0.853598	-0.423655	0.264642
H64	H	1.043312	-0.939522	0.469206
Cl65	Cl	1.247866	-0.228224	1.097557
Cl66	Cl	0.668560	-0.423667	0.264655
H67	H	1.225593	-0.247436	0.930669
Cl68	Cl	1.021088	-0.423601	1.097475
H69	H	1.225570	-0.247458	0.826540
H70	H	1.225653	-1.067729	0.287250
Cl71	Cl	1.021049	-0.423664	0.844621
Cl72	Cl	1.021060	-0.423653	0.912433
Cl73	Cl	1.021019	-0.423708	0.659582
H74	H	0.434026	-0.247682	0.469445
H75	H	1.225582	-0.939492	0.287223
Cl76	Cl	0.668745	-0.228516	0.491697
Cl77	Cl	0.853773	-0.228502	0.491687
H78	H	1.043144	-0.583762	0.469159
H79	H	1.225478	-0.711969	0.287190
Cl80	Cl	0.600748	-0.423685	0.264669
Cl81	Cl	1.021129	-1.083426	0.491442
H82	H	0.582754	-0.247672	0.469437
H83	H	1.225551	-0.247496	0.677822
H84	H	1.225416	-0.583725	0.287169
H85	H	1.043192	-0.711997	0.469169
