data_functionalizedCrystal
_audit_creation_method	'MofGen! by Chris Wilmer'
_symmetry_space_group_name_H-M	'P1'
_symmetry_Int_Tables_number	1
_symmetry_cell_setting	triclinic
loop_
_symmetry_equiv_pos_as_xyz
  x,y,z
_cell_length_a	12.759401
_cell_length_b	13.897448
_cell_length_c	12.759393
_cell_angle_alpha	89.970315
_cell_angle_beta	90.020938
_cell_angle_gamma	89.978906
loop_
_atom_site_label
_atom_site_type_symbol
_atom_site_fract_x
_atom_site_fract_y
_atom_site_fract_z
Zn1	Zn	1.606231	0.383929	0.594026
Zn2	Zn	1.939564	0.717262	0.927359
Zn3	Zn	2.272897	1.050596	1.260693
Zn4	Zn	1.606107	0.545255	0.418349
Zn5	Zn	1.939440	0.878589	0.751682
Zn6	Zn	2.272774	1.211922	1.085015
Zn7	Zn	1.430530	0.383980	0.418361
Zn8	Zn	1.763863	0.717314	0.751695
Zn9	Zn	2.097196	1.050647	1.085028
Zn10	Zn	1.430507	0.545188	0.593986
Zn11	Zn	1.763840	0.878521	0.927319
Zn12	Zn	2.097173	1.211855	1.260653
O13	O	1.518343	0.464588	0.506180
O14	O	1.851677	0.797921	0.839514
O15	O	2.185010	1.131255	1.172847
O16	O	1.753235	0.405336	0.570734
O17	O	2.086569	0.738669	0.904067
O18	O	2.419902	1.072003	1.237400
O19	O	1.582774	0.523912	0.271329
O20	O	1.916107	0.857245	0.604663
O21	O	2.249441	1.190578	0.937996
O22	O	1.453898	0.248992	0.441686
O23	O	1.787232	0.582325	0.775019
O24	O	2.120565	0.915659	1.108352
O25	O	1.753144	0.523862	0.441664
O26	O	2.086478	0.857195	0.774998
O27	O	2.419811	1.190528	1.108331
O28	O	1.582985	0.248954	0.570746
O29	O	1.916318	0.582287	0.904079
O30	O	2.249652	0.915621	1.237412
O31	O	1.453778	0.405423	0.271338
O32	O	1.787111	0.738757	0.604672
O33	O	2.120445	1.072090	0.938005
O34	O	1.283505	0.405358	0.441647
O35	O	1.616839	0.738691	0.774980
O36	O	1.950172	1.072025	1.108313
O37	O	1.453859	0.523747	0.741012
O38	O	1.787192	0.857080	1.074346
O39	O	2.120526	1.190414	1.407679
O40	O	1.283489	0.523797	0.570677
O41	O	1.616822	0.857130	0.904011
O42	O	1.950155	1.190463	1.237344
O43	O	1.582963	0.405271	0.741042
O44	O	1.916296	0.738604	1.074375
O45	O	2.249629	1.071937	1.407708
O46	O	1.582752	0.680228	0.441625
O47	O	1.916085	1.013561	0.774959
O48	O	2.249418	1.346895	1.108292
O49	O	1.453739	0.680179	0.570665
O50	O	1.787072	1.013512	0.903998
O51	O	2.120405	1.346845	1.237332
C52	C	1.245376	0.464576	0.506160
C53	C	1.578709	0.797910	0.839493
C54	C	1.912043	1.131243	1.172826
C55	C	1.128599	0.464595	0.506176
C56	C	1.461933	0.797928	0.839509
C57	C	1.795266	1.131261	1.172842
C58	C	1.073756	0.526359	0.573256
C59	C	1.407090	0.859693	0.906589
C60	C	1.740423	1.193026	1.239923
C61	C	0.964032	0.526363	0.573277
C62	C	1.297365	0.859696	0.906610
C63	C	1.630699	1.193030	1.239944
C64	C	0.964004	0.402834	0.439128
C65	C	1.297338	0.736168	0.772461
C66	C	1.630671	1.069501	1.105794
C67	C	1.073726	0.402827	0.439113
C68	C	1.407060	0.736160	0.772446
C69	C	1.740393	1.069493	1.105780
C70	C	1.518258	0.715203	0.506162
C71	C	1.851591	1.048536	0.839496
C72	C	2.184925	1.381869	1.172829
C73	C	1.518317	0.822416	0.506190
C74	C	1.851651	1.155750	0.839523
C75	C	2.184984	1.489083	1.172856
C76	C	1.518421	1.018711	0.506265
C77	C	1.851754	1.352045	0.839599
C78	C	2.185087	1.685378	1.172932
C79	C	1.518360	0.909479	0.506226
C80	C	1.851694	1.242812	0.839560
C81	C	2.185027	1.576146	1.172893
C82	C	1.792377	0.464601	0.506202
C83	C	2.125710	0.797934	0.839535
C84	C	2.459043	1.131267	1.172869
C85	C	1.909153	0.464606	0.506211
C86	C	2.242487	0.797939	0.839544
C87	C	2.575820	1.131273	1.172878
C88	C	1.518422	0.464496	0.780214
C89	C	1.851755	0.797829	1.113547
C90	C	2.185089	1.131162	1.446881
C91	C	1.518456	0.464456	0.896991
C92	C	1.851789	0.797789	1.230324
C93	C	2.185122	1.131123	1.563657
C94	C	1.518449	1.212995	0.506234
C95	C	1.851782	1.546328	0.839567
C96	C	2.185116	1.879662	1.172901
C97	C	1.518471	1.105781	0.506288
C98	C	1.851805	1.439115	0.839622
C99	C	2.185138	1.772448	1.172955
C100	C	1.518326	0.464611	0.233213
C101	C	1.851659	0.797944	0.566546
C102	C	2.184992	1.131277	0.899880
C103	C	1.518496	0.464379	0.116437
C104	C	1.851829	0.797712	0.449770
C105	C	2.185162	1.131045	0.783104
C106	C	1.585685	0.402756	0.951870
C107	C	1.919018	0.736089	1.285203
C108	C	2.252352	1.069422	1.618536
C109	C	1.585703	0.402714	1.061594
C110	C	1.919036	0.736047	1.394927
C111	C	2.252369	1.069381	1.728260
C112	C	1.451259	0.526082	1.061550
C113	C	1.784592	0.859415	1.394884
C114	C	2.117926	1.192748	1.728217
C115	C	1.451237	0.526118	0.951828
C116	C	1.784570	0.859451	1.285161
C117	C	2.117903	1.192784	1.618495
H118	H	0.919384	0.576657	0.627902
H119	H	1.252717	0.909990	0.961236
H120	H	1.586050	1.243323	1.294569
C121	C	1.134118	0.594298	0.647021
C122	C	1.467452	0.927631	0.980354
C123	C	1.800785	1.260964	1.313687
H124	H	1.207320	0.585457	0.637398
H125	H	1.540654	0.918790	0.970732
H126	H	1.873987	1.252124	1.304065
H127	H	1.116179	0.580265	0.717642
H128	H	1.449513	0.913599	1.050975
H129	H	1.782846	1.246932	1.384308
H130	H	1.116103	0.659093	0.631514
H131	H	1.449437	0.992427	0.964847
H132	H	1.782770	1.325760	1.298181
H133	H	1.640446	0.352470	1.106271
H134	H	1.973779	0.685803	1.439605
H135	H	2.307113	1.019136	1.772938
H136	H	1.396534	0.576286	1.106212
H137	H	1.729867	0.909620	1.439546
H138	H	2.063200	1.242953	1.772879
H139	H	1.396483	0.576361	0.907144
H140	H	1.729816	0.909694	1.240478
H141	H	2.063149	1.243028	1.573811
H142	H	1.118381	0.352524	0.384488
H143	H	1.451714	0.685858	0.717821
H144	H	1.785048	1.019191	1.051154
H145	H	0.919313	0.352547	0.384526
H146	H	1.252647	0.685880	0.717859
H147	H	1.585980	1.019213	1.051193
H148	H	1.640416	0.352544	0.907224
H149	H	1.973750	0.685877	1.240558
H150	H	2.307083	1.019211	1.573891
