data_functionalizedCrystal
_audit_creation_method	'MofGen! by Chris Wilmer'
_symmetry_space_group_name_H-M	'P1'
_symmetry_Int_Tables_number	1
_symmetry_cell_setting	triclinic
loop_
_symmetry_equiv_pos_as_xyz
  x,y,z
_cell_length_a	10.967874
_cell_length_b	10.540510
_cell_length_c	10.065875
_cell_angle_alpha	98.879491
_cell_angle_beta	69.229500
_cell_angle_gamma	84.613739
loop_
_atom_site_label
_atom_site_type_symbol
_atom_site_fract_x
_atom_site_fract_y
_atom_site_fract_z
O1	O	1.740643	0.092823	-0.522859
O2	O	1.363345	0.124330	-0.434126
O3	O	1.560622	-0.076467	-0.480521
O4	O	1.543366	0.293620	-0.476464
O5	O	1.523005	-0.038029	-0.244686
O6	O	1.325728	0.162768	-0.198291
O7	O	1.703026	0.131262	-0.287023
Zn8	Zn	1.508405	0.153118	-0.205213
Zn9	Zn	1.557966	0.102474	-0.515936
O10	O	1.505749	0.332059	-0.240628
C11	C	1.296224	0.144161	-0.304846
C12	C	1.152269	0.145968	-0.270991
C13	C	1.107576	0.126862	-0.378067
C14	C	0.958791	0.128730	-0.343079
C15	C	1.540528	-0.104502	-0.362304
C16	C	1.536682	-0.245304	-0.361408
C17	C	1.673643	-0.467993	-0.393098
C18	C	1.677833	-0.321645	-0.394602
C19	C	1.485907	-0.309207	-0.479085
C20	C	1.482820	-0.455865	-0.478461
C21	C	1.437103	-0.411847	-0.209580
C22	C	1.443515	-0.265477	-0.209382
C23	C	1.770147	0.111430	-0.416306
C24	C	1.914104	0.109621	-0.450171
C25	C	1.525844	0.360093	-0.358849
C26	C	1.529691	0.500893	-0.359754
N27	N	1.474590	0.187680	0.006845
N28	N	1.591791	0.067901	-0.727997
C29	C	1.546193	0.114491	0.057784
C30	C	1.520178	0.141101	0.221070
H31	H	1.080382	0.163716	-0.153417
O32	O	1.474627	-0.448314	-0.088261
H33	H	1.502375	-0.362745	-0.033025
O34	O	1.652873	0.005366	-0.044567
H35	H	1.727274	0.045747	-0.127197
H36	H	1.439606	0.223461	0.298339
O37	O	1.202798	0.103355	-0.533809
H38	H	1.176000	0.180415	-0.586878
H39	H	1.750121	-0.311209	-0.504679
H40	H	1.480200	-0.222669	-0.122119
O41	O	1.698508	-0.041212	0.169673
H42	H	1.702200	-0.044991	0.057480
H43	H	1.718971	-0.278762	-0.311363
O44	O	1.367877	0.296785	0.109182
H45	H	1.364198	0.300571	0.221372
H46	H	0.886907	0.146479	-0.225497
H47	H	1.713230	-0.496342	-0.309452
O48	O	1.009304	0.086107	-0.605929
H49	H	1.111228	0.088316	-0.608973
H50	H	1.743635	-0.529274	-0.501989
H51	H	1.548256	-0.514405	-0.590742
O52	O	1.344283	-0.482238	-0.453703
H53	H	1.279789	-0.390284	-0.442240
H54	H	1.552072	-0.296634	-0.591108
O55	O	1.349326	-0.242174	-0.453375
H56	H	1.316110	-0.162407	-0.356222
H57	H	1.339167	-0.211084	-0.177015
O58	O	1.296532	-0.435547	-0.175337
H59	H	1.292557	-0.509097	-0.264765
