data_functionalizedCrystal
_audit_creation_method	'MofGen! by Chris Wilmer'
_symmetry_space_group_name_H-M	'P1'
_symmetry_Int_Tables_number	1
_symmetry_cell_setting	triclinic
loop_
_symmetry_equiv_pos_as_xyz
  x,y,z
_cell_length_a	17.699097
_cell_length_b	17.000371
_cell_length_c	16.176319
_cell_angle_alpha	89.992539
_cell_angle_beta	89.988988
_cell_angle_gamma	79.443839
loop_
_atom_site_label
_atom_site_type_symbol
_atom_site_fract_x
_atom_site_fract_y
_atom_site_fract_z
O1	O	0.997546	0.100717	-0.068815
O2	O	0.776321	0.113803	-0.068802
O3	O	0.900670	-0.008632	-0.068803
O4	O	0.873197	0.223153	-0.068813
O5	O	0.900654	-0.008640	0.068690
O6	O	0.776305	0.113796	0.068691
O7	O	0.997530	0.100710	0.068678
Cu8	Cu	0.886916	0.107252	0.081239
Cu9	Cu	0.886935	0.107261	-0.081363
O10	O	0.873181	0.223145	0.068680
C11	C	0.748147	0.113329	-0.000053
C12	C	0.664221	0.111917	-0.000048
C13	C	0.149072	0.103266	-0.075029
C14	C	0.227930	0.104587	-0.075025
C15	C	0.267345	0.105245	-0.000074
C16	C	0.227898	0.104573	0.074878
C17	C	0.149042	0.103246	0.074873
C18	C	0.545916	0.109924	0.074900
C19	C	0.624777	0.111253	0.074899
C20	C	0.624803	0.111265	-0.074998
C21	C	0.545947	0.109938	-0.075003
C22	C	0.506509	0.109262	-0.000052
C23	C	0.421002	0.107828	-0.000057
C24	C	0.352849	0.106685	-0.000068
C25	C	0.902137	-0.038292	-0.000057
C26	C	0.906525	-0.126659	-0.000058
C27	C	0.839002	-0.158557	-0.000058
C28	C	0.843129	-0.241588	-0.000056
C29	C	0.914781	-0.292719	-0.000060
C30	C	0.982309	-0.260816	-0.000058
C31	C	0.978181	-0.177786	-0.000054
C32	C	0.930726	-0.543895	-0.000067
C33	C	0.934849	-0.626929	-0.000073
C34	C	0.795668	-0.607696	-0.000069
C35	C	0.791547	-0.524666	-0.000070
C36	C	0.859075	-0.492770	-0.000064
C37	C	0.919001	-0.377590	-0.000061
C38	C	0.854854	-0.407900	-0.000057
C39	C	1.025704	0.101184	-0.000072
C40	C	1.109630	0.102596	-0.000083
C41	C	0.871714	0.252805	-0.000068
C42	C	0.867326	0.341172	-0.000073
N43	N	0.886909	0.107245	0.195604
N44	N	0.886948	0.107262	-0.195728
C45	C	0.941985	0.053053	0.238868
C46	C	0.941989	0.053052	0.325415
C47	C	0.886920	0.107248	0.368697
C48	C	0.831838	0.161443	0.325427
C49	C	0.831832	0.161439	0.238882
C50	C	0.831863	0.161457	0.674456
C51	C	0.831875	0.161458	0.761007
C52	C	0.942020	0.053070	0.760988
C53	C	0.942014	0.053067	0.674443
C54	C	0.886930	0.107258	0.631181
C55	C	0.886926	0.107258	0.537337
C56	C	0.886927	0.107253	0.462539
H57	H	0.513816	0.109362	0.135929
Br58	Br	1.016756	-0.020482	0.615705
Br59	Br	0.281389	0.105461	0.176599
H60	H	0.740690	-0.633675	-0.000073
H61	H	0.733200	-0.483040	-0.000069
H62	H	0.656866	0.111789	0.135936
Br63	Br	0.757615	-0.338508	-0.000045
H64	H	0.985713	-0.517936	-0.000064
H65	H	1.040650	-0.302453	-0.000056
Br66	Br	0.757078	0.234984	0.180167
H67	H	1.033166	-0.151817	-0.000053
H68	H	0.513859	0.109406	-0.136036
H69	H	0.116985	0.102736	-0.136063
Br70	Br	0.678332	0.112179	-0.176720
H71	H	0.986870	0.008942	0.796222
H72	H	0.116929	0.102709	0.135902
H73	H	0.780655	-0.116931	-0.000058
Br74	Br	1.032098	-0.696323	-0.000088
H75	H	0.977340	-0.419230	-0.000066
Br76	Br	0.281456	0.105488	-0.176742
H77	H	0.786996	0.205567	0.360673
H78	H	0.787014	0.205583	0.639238
Br79	Br	1.016731	-0.020497	0.180137
H80	H	0.788144	-0.267555	-0.000062
H81	H	0.986835	0.008924	0.360639
H82	H	0.787029	0.205593	0.796246
