data_functionalizedCrystal
_audit_creation_method	'MofGen! by Chris Wilmer'
_symmetry_space_group_name_H-M	'P1'
_symmetry_Int_Tables_number	1
_symmetry_cell_setting	triclinic
loop_
_symmetry_equiv_pos_as_xyz
  x,y,z
_cell_length_a	27.732048
_cell_length_b	27.732048
_cell_length_c	9.130307
_cell_angle_alpha	89.996007
_cell_angle_beta	89.991788
_cell_angle_gamma	82.642654
loop_
_atom_site_label
_atom_site_type_symbol
_atom_site_fract_x
_atom_site_fract_y
_atom_site_fract_z
O1	O	0.057516	0.640925	-0.121897
O2	O	0.066262	0.500132	-0.121884
O3	O	-0.008508	0.574901	-0.121863
O4	O	0.132286	0.566156	-0.121918
O5	O	-0.008508	0.574899	0.121736
O6	O	0.066261	0.500129	0.121715
O7	O	0.057516	0.640923	0.121702
Cu8	Cu	0.061888	0.570526	0.143951
Cu9	Cu	0.061889	0.570529	-0.144133
O10	O	0.132285	0.566153	0.121681
C11	C	-0.026515	0.574716	-0.000060
C12	C	-0.080170	0.574164	-0.000048
C13	C	0.066078	0.482124	-0.000083
C14	C	0.065525	0.428469	-0.000077
C15	C	0.057699	0.658931	-0.000103
C16	C	0.058252	0.712586	-0.000119
C17	C	-0.418985	0.614867	-0.000127
C18	C	-0.620645	0.612816	-0.000147
O19	O	-0.651900	0.650037	-0.000215
N20	N	-0.639768	0.568481	-0.000142
C21	C	-0.608474	0.524656	-0.000141
O22	O	-0.629367	0.486899	-0.000151
C23	C	-0.406815	0.526707	-0.000131
C24	C	-0.387694	0.571045	-0.000121
C25	C	-0.399864	0.659202	-0.000119
C26	C	-0.349452	0.659714	-0.000106
C27	C	-0.318161	0.615892	-0.000101
C28	C	-0.337282	0.571557	-0.000108
C29	C	-0.375521	0.482882	-0.000140
C30	C	-0.325104	0.483399	-0.000142
C31	C	-0.305983	0.527737	-0.000132
C32	C	-0.255580	0.528248	-0.000090
N33	N	-0.236456	0.572583	-0.000096
C34	C	-0.267747	0.616405	-0.000101
C35	C	-0.714348	0.523582	-0.000143
C36	C	-0.764762	0.523069	-0.000143
C37	C	-0.776930	0.611230	-0.000152
C38	C	-0.726514	0.611742	-0.000141
C39	C	-0.695224	0.567917	-0.000148
C40	C	-0.161878	0.617477	-0.000072
C41	C	-0.111461	0.617986	-0.000053
C42	C	-0.099298	0.529825	-0.000052
C43	C	-0.149710	0.529316	-0.000063
C44	C	-0.180999	0.573147	-0.000078
O45	O	-0.224296	0.491047	-0.000039
O46	O	-0.246844	0.654156	-0.000122
C47	C	-0.469397	0.614355	-0.000140
C48	C	-0.488518	0.570021	-0.000148
C49	C	-0.457228	0.526198	-0.000142
C50	C	-0.538933	0.569508	-0.000147
C51	C	-0.570223	0.613330	-0.000153
C52	C	-0.551100	0.657665	-0.000158
C53	C	-0.500688	0.658177	-0.000145
C54	C	-0.476351	0.481863	-0.000137
C55	C	-0.526764	0.481355	-0.000148
C56	C	-0.558054	0.525177	-0.000153
C57	C	0.150292	0.566338	-0.000126
C58	C	0.203947	0.566891	-0.000148
N59	N	0.061887	0.570527	0.346573
C60	C	0.017548	1.051401	-0.000053
C61	C	0.019599	1.253060	-0.000049
O62	O	-0.017621	1.284316	0.000029
N63	N	0.063935	1.272184	-0.000071
C64	C	0.107760	1.240890	-0.000083
O65	O	0.145517	1.261783	-0.000087
C66	C	0.105709	1.039231	-0.000077
C67	C	0.061371	1.020110	-0.000070
C68	C	-0.026786	1.032280	-0.000044
C69	C	-0.027298	0.981868	-0.000053
C70	C	0.016524	0.950577	-0.000071
C71	C	0.060858	0.969698	-0.000079
C72	C	0.149534	1.007937	-0.000079
C73	C	0.149017	0.957520	-0.000074
C74	C	0.104679	0.938399	-0.000067
C75	C	0.104168	0.887996	-0.000105
N76	N	0.059833	0.868872	-0.000084
C77	C	0.016011	0.900163	-0.000067
C78	C	0.108834	1.346764	-0.000090
C79	C	0.109347	1.397178	-0.000094
C80	C	0.021186	1.409345	-0.000057
C81	C	0.020674	1.358930	-0.000063
C82	C	0.064499	1.327640	-0.000068
C83	C	0.014938	0.794293	-0.000087
C84	C	0.014430	0.743876	-0.000102
C85	C	0.102591	0.731713	-0.000131
C86	C	0.103099	0.782126	-0.000124
C87	C	0.059269	0.813415	-0.000097
O88	O	0.141369	0.856712	-0.000166
O89	O	-0.021740	0.879260	-0.000031
C90	C	0.018061	1.101813	-0.000044
C91	C	0.062395	1.120934	-0.000052
C92	C	0.106217	1.089643	-0.000070
C93	C	0.062908	1.171348	-0.000057
C94	C	0.019086	1.202639	-0.000039
C95	C	-0.025249	1.183515	-0.000018
C96	C	-0.025761	1.133103	-0.000027
C97	C	0.150553	1.108767	-0.000091
C98	C	0.151061	1.159180	-0.000084
C99	C	0.107239	1.190470	-0.000067
N100	N	0.061886	0.570531	-0.346756
C101	C	-0.004302	0.636762	0.346582
C102	C	-0.037396	0.669883	0.423253
C103	C	-0.037396	0.669888	0.576586
C104	C	-0.004301	0.636767	0.653252
C105	C	0.028793	0.603647	0.576581
C106	C	0.028791	0.603646	0.423244
C107	C	0.094980	0.537410	0.576573
C108	C	0.094983	0.537407	0.423239
C109	C	0.128075	0.504290	0.653239
C110	C	0.161172	0.471171	0.576568
C111	C	0.161171	0.471168	0.423225
C112	C	0.128076	0.504286	0.346568
H113	H	-0.187348	0.653168	-0.000090
H114	H	-0.064343	0.696848	0.360818
H115	H	0.187169	1.174742	-0.000100
H116	H	-0.688875	0.487892	-0.000148
C117	C	-0.479660	0.706951	-0.000150
C118	C	-0.491626	0.743246	0.126335
C119	C	-0.470603	0.792022	0.126325
C120	C	-0.437614	0.804504	-0.000168
C121	C	-0.425646	0.768208	-0.126663
C122	C	-0.446669	0.719432	-0.126653
H123	H	-0.516048	0.734007	0.219982
H124	H	-0.479463	0.818890	0.219965
H125	H	-0.422051	0.840611	-0.000175
H126	H	-0.401224	0.777447	-0.220309
H127	H	-0.437809	0.692563	-0.220293
C128	C	0.151872	0.803158	-0.000162
C129	C	0.164349	0.836147	-0.126660
C130	C	0.213124	0.857173	-0.126691
C131	C	0.249422	0.845211	-0.000223
C132	C	0.236946	0.812221	0.126284
C133	C	0.188172	0.791195	0.126315
H134	H	0.137478	0.845003	-0.220287
H135	H	0.222359	0.881595	-0.220341
H136	H	0.285528	0.860776	-0.000246
H137	H	0.263817	0.803365	0.219911
H138	H	0.178936	0.766773	0.219965
H139	H	-0.095896	0.654093	-0.000042
C140	C	0.197573	0.434742	0.660897
C141	C	0.197649	0.434819	0.829558
C142	C	0.234052	0.398390	0.913893
C143	C	0.270379	0.361882	0.829566
C144	C	0.270305	0.361803	0.660895
C145	C	0.233902	0.398233	0.576561
H146	H	0.170756	0.461846	0.891990
H147	H	0.234107	0.398449	1.038754
H148	H	0.297327	0.334915	0.891996
H149	H	0.297198	0.334777	0.598463
H150	H	0.233848	0.398174	0.451699
H151	H	-0.333889	0.695819	-0.000104
H152	H	0.128075	0.504288	0.221716
C153	C	-0.073799	0.706320	0.660932
C154	C	-0.110197	0.742755	0.576616
C155	C	-0.146599	0.779187	0.660961
C156	C	-0.146603	0.779184	0.829623
C157	C	-0.110203	0.742747	0.913948
C158	C	-0.073801	0.706315	0.829603
H159	H	-0.110195	0.742759	0.451754
H160	H	-0.173544	0.806160	0.598537
H161	H	-0.173550	0.806153	0.892060
H162	H	-0.110205	0.742744	1.038810
H163	H	-0.046856	0.679342	0.892028
H164	H	0.138270	0.706228	-0.000153
C165	C	0.198309	1.028957	-0.000055
C166	C	0.210783	1.061931	0.126460
C167	C	0.259562	1.082948	0.126498
C168	C	0.295868	1.070991	0.000022
C169	C	0.283396	1.038016	-0.126502
C170	C	0.234616	1.016999	-0.126541
H171	H	0.183906	1.070783	0.220094
H172	H	0.268795	1.107358	0.220161
H173	H	0.331978	1.086550	0.000051
H174	H	0.310273	1.029164	-0.220136
H175	H	0.225384	0.992589	-0.220203
H176	H	-0.425336	0.694889	-0.000129
C177	C	-0.396549	0.434110	-0.000147
C178	C	-0.429526	0.421633	-0.126641
C179	C	-0.450554	0.372859	-0.126644
C180	C	-0.438603	0.336562	-0.000152
C181	C	-0.405624	0.349038	0.126352
C182	C	-0.384597	0.397812	0.126355
H183	H	-0.438374	0.448503	-0.220287
H184	H	-0.474967	0.363624	-0.220291
H185	H	-0.454169	0.300457	-0.000154
H186	H	-0.396776	0.322168	0.219998
H187	H	-0.360183	0.407048	0.220002
H188	H	0.128072	0.504293	0.778091
C189	C	-0.705484	0.660514	-0.000144
C190	C	-0.717444	0.696807	0.126348
C191	C	-0.696417	0.745581	0.126341
C192	C	-0.663429	0.758062	-0.000156
C193	C	-0.651467	0.721768	-0.126657
C194	C	-0.672494	0.672994	-0.126651
H195	H	-0.741866	0.687569	0.219997
H196	H	-0.705273	0.772449	0.219986
H197	H	-0.647863	0.794168	-0.000161
H198	H	-0.627045	0.731007	-0.220307
H199	H	-0.663638	0.646127	-0.220296
H200	H	-0.802415	0.646911	-0.000155
H201	H	-0.780325	0.486964	-0.000125
H202	H	-0.004307	0.636769	0.778104
H203	H	-0.020752	0.819764	-0.000065
C204	C	-0.547794	0.432579	-0.000153
C205	C	-0.580768	0.420105	-0.126660
C206	C	-0.601797	0.371331	-0.126677
C207	C	-0.589851	0.335032	-0.000188
C208	C	-0.556876	0.347506	0.126329
C209	C	-0.535847	0.396279	0.126347
H210	H	-0.589612	0.446976	-0.220304
H211	H	-0.626207	0.362098	-0.220334
H212	H	-0.605418	0.298927	-0.000200
H213	H	-0.548032	0.320634	0.219973
H214	H	-0.511436	0.405513	0.220003
C215	C	-0.074535	1.112076	-0.000007
C216	C	-0.087017	1.079090	0.126492
C217	C	-0.135793	1.058067	0.126515
C218	C	-0.172088	1.070029	0.000040
C219	C	-0.159607	1.103017	-0.126468
C220	C	-0.110831	1.124040	-0.126492
H221	H	-0.060148	1.070233	0.220125
H222	H	-0.145032	1.033648	0.220166
H223	H	-0.208195	1.054467	0.000057
H224	H	-0.186476	1.111874	-0.220102
H225	H	-0.101592	1.148459	-0.220142
C226	C	-0.290685	0.435189	-0.000145
C227	C	-0.292591	0.398757	-0.126643
C228	C	-0.258173	0.350548	-0.126642
C229	C	-0.221849	0.338771	-0.000143
C230	C	-0.219941	0.375205	0.126364
C231	C	-0.254359	0.423413	0.126363
H232	H	-0.319482	0.407474	-0.220293
H233	H	-0.259586	0.323578	-0.220292
H234	H	-0.196371	0.303084	-0.000143
H235	H	-0.193050	0.366488	0.220014
H236	H	-0.252947	0.450384	0.220013
C237	C	-0.076072	0.960841	-0.000032
C238	C	-0.112364	0.972797	0.126483
C239	C	-0.161141	0.951776	0.126509
C240	C	-0.173627	0.918799	0.000020
C241	C	-0.137335	0.906841	-0.126504
C242	C	-0.088558	0.927862	-0.126530
H243	H	-0.103121	0.997211	0.220125
H244	H	-0.188007	0.960629	0.220171
H245	H	-0.209735	0.903237	0.000040
H246	H	-0.146577	0.882427	-0.220146
H247	H	-0.061692	0.919009	-0.220192
H248	H	0.186239	1.083295	-0.000103
H249	H	-0.073812	0.494146	-0.000042
C250	C	-0.028098	1.337900	-0.000041
C251	C	-0.064392	1.349855	0.126468
C252	C	-0.113166	1.328827	0.126494
C253	C	-0.125647	1.295845	0.000011
C254	C	-0.089352	1.283888	-0.126507
C255	C	-0.040578	1.304915	-0.126534
H256	H	-0.055154	1.374272	0.220107
H257	H	-0.140034	1.337679	0.220152
H258	H	-0.161752	1.280279	0.000031
H259	H	-0.098590	1.259471	-0.220146
H260	H	-0.013711	1.296064	-0.220192
C261	C	0.157047	1.312349	-0.000106
C262	C	0.193479	1.314270	-0.126622
C263	C	0.241692	1.279858	-0.126645
C264	C	0.253473	1.243526	-0.000153
C265	C	0.217040	1.241604	0.126372
C266	C	0.168827	1.276015	0.126395
H267	H	0.184759	1.341166	-0.220267
H268	H	0.268663	1.281282	-0.220308
H269	H	0.289163	1.218053	-0.000170
H270	H	0.225760	1.214707	0.220017
H271	H	0.141856	1.274592	0.220058
H272	H	-0.165279	0.493213	-0.000030
H273	H	-0.576585	0.693347	-0.000156
H274	H	-0.004301	0.636766	0.221730
H275	H	-0.450879	0.446177	-0.000136
H276	H	-0.021677	0.728311	-0.000100
H277	H	-0.062473	1.057752	-0.000026
H278	H	-0.014496	1.434831	-0.000048
H279	H	0.145452	1.412741	-0.000120
H280	H	0.184706	0.932045	-0.000071
H281	H	0.188118	0.444195	0.360807
H282	H	-0.060931	1.209001	-0.000012
