data_functionalizedCrystal
_audit_creation_method	'MofGen! by Chris Wilmer'
_symmetry_space_group_name_H-M	'P1'
_symmetry_Int_Tables_number	1
_symmetry_cell_setting	triclinic
loop_
_symmetry_equiv_pos_as_xyz
  x,y,z
_cell_length_a	12.837943
_cell_length_b	9.730223
_cell_length_c	12.811415
_cell_angle_alpha	95.432205
_cell_angle_beta	89.411917
_cell_angle_gamma	89.999322
loop_
_atom_site_label
_atom_site_type_symbol
_atom_site_fract_x
_atom_site_fract_y
_atom_site_fract_z
O1	O	1.376624	0.148282	0.272971
O2	O	1.074761	0.146610	0.259487
O3	O	1.233287	0.128491	0.114197
O4	O	1.218098	0.166401	0.418261
O5	O	1.233286	-0.100088	0.114200
O6	O	1.074759	-0.081970	0.259490
O7	O	1.376623	-0.080297	0.272975
Zn8	Zn	1.225690	-0.117425	0.266233
Zn9	Zn	1.225693	0.183738	0.266228
O10	O	1.218096	-0.062179	0.418265
C11	C	1.036120	0.031753	0.254933
C12	C	0.920984	0.030063	0.241347
N13	N	1.225696	-0.322961	0.266237
C14	C	0.680730	0.050407	0.404677
C15	C	0.572549	0.048818	0.391916
C16	C	0.596439	0.025288	0.203067
C17	C	0.704620	0.026877	0.215827
C18	C	0.746761	0.039438	0.316635
C19	C	0.854944	0.041037	0.329395
C20	C	0.878832	0.017497	0.140546
C21	C	0.770652	0.015908	0.127786
C22	C	1.295910	-0.402907	0.201928
C23	C	1.295907	-0.546792	0.201915
C24	C	1.155474	-0.530771	0.330528
C25	C	1.155473	-0.386890	0.330535
C26	C	1.366134	-0.338979	0.137630
C27	C	1.436354	-0.418925	0.073317
C28	C	1.436351	-0.562810	0.073304
C29	C	1.366128	-0.626748	0.137604
C30	C	1.415264	0.034562	0.277528
C31	C	1.530399	0.036261	0.291115
C32	C	1.232435	0.009319	0.075009
C33	C	1.229887	-0.005231	-0.041763
N34	N	1.225695	0.389273	0.266217
C35	C	1.225082	0.216654	-0.261186
C36	C	1.222687	0.202990	-0.370904
C37	C	1.222696	-0.046223	-0.370920
C38	C	1.225091	-0.032558	-0.261202
C39	C	1.226285	0.098884	-0.206339
C40	C	1.228687	0.112547	-0.096618
C41	C	1.228688	-0.136664	-0.096636
C42	C	1.226294	-0.150328	-0.206354
C43	C	1.218948	0.056997	0.457452
C44	C	1.221496	0.071556	0.574225
H45	H	0.889253	0.051263	0.411478
F46	F	0.551572	0.011904	0.095788
H47	H	0.736325	0.005665	0.045710
F48	F	0.949116	0.005840	0.046840
F49	F	1.511078	-0.350878	0.004880
H50	H	1.098297	-0.321797	0.382900
H51	H	1.366144	-0.221821	0.137637
F52	F	1.226366	0.356542	-0.202795
F53	F	1.511076	-0.647893	0.004850
F54	F	0.725582	0.063793	0.511962
H55	H	1.098302	-0.582839	0.382880
F56	F	1.221404	0.328337	-0.429273
F57	F	1.366123	-0.779886	0.137576
H58	H	1.229662	0.219574	-0.051951
F59	F	1.221400	-0.186101	-0.429326
H60	H	1.225318	-0.257345	-0.251038
F61	F	1.229978	-0.262011	-0.038256
H62	H	0.518789	0.057746	0.463609
