data_functionalizedCrystal
_audit_creation_method	'MofGen! by Chris Wilmer'
_symmetry_space_group_name_H-M	'P1'
_symmetry_Int_Tables_number	1
_symmetry_cell_setting	triclinic
loop_
_symmetry_equiv_pos_as_xyz
  x,y,z
_cell_length_a	6.817900
_cell_length_b	17.982783
_cell_length_c	9.514088
_cell_angle_alpha	91.865518
_cell_angle_beta	118.843545
_cell_angle_gamma	102.448572
loop_
_atom_site_label
_atom_site_type_symbol
_atom_site_fract_x
_atom_site_fract_y
_atom_site_fract_z
V1	V	-4.212553	-0.106764	-0.501418
O2	O	-4.201535	0.003741	-0.491187
O3	O	-4.157986	-0.210359	-0.498649
O4	O	-4.247378	-0.105732	-0.719803
O5	O	-4.111523	-0.101611	-0.268502
V6	V	-4.686196	-0.093475	-0.473479
O7	O	-4.495484	-0.135917	-0.562704
O8	O	-4.853462	-0.064323	-0.412193
O9	O	-4.517557	0.010120	-0.476249
O10	O	-4.814611	-0.203980	-0.483710
O11	O	-4.904623	-0.098628	-0.706396
O12	O	-4.428164	-0.094507	-0.255095
C13	C	-3.998793	-0.235594	-0.490909
C14	C	-4.036020	-0.320288	-0.490100
C15	C	-3.957766	-0.348800	-0.342575
C16	C	-3.992766	-0.428380	-0.341821
C17	C	-4.106006	-0.479446	-0.488593
C18	C	-4.184271	-0.450929	-0.636129
C19	C	-4.149285	-0.371351	-0.636882
C20	C	-4.325370	-0.771859	-0.633095
C21	C	-4.360345	-0.851442	-0.632330
C22	C	-4.168851	-0.828888	-0.338033
C23	C	-4.133865	-0.749310	-0.338786
C24	C	-4.212143	-0.720800	-0.486322
C25	C	-4.174195	-0.634511	-0.487139
C26	C	-4.143940	-0.565734	-0.487777
C27	C	-4.112821	-0.102131	-0.773011
C28	C	-4.222537	-0.101972	-0.951546
C29	C	-4.340089	0.035351	-0.483984
C30	C	-4.282105	0.120044	-0.484804
C31	C	-4.226060	-0.098111	-0.201878
C32	C	-4.095582	-0.098265	-0.023342
H33	H	-4.452562	-0.893020	-0.751856
H34	H	-4.276489	-0.492514	-0.755634
H35	H	-4.389084	-0.748656	-0.753226
H36	H	-4.105124	-0.852110	-0.217902
H37	H	-3.902959	-0.095220	-0.948226
H38	H	-4.213030	-0.348139	-0.757013
H39	H	-4.415181	-0.105027	-1.026673
H40	H	-3.865539	-0.307226	-0.223056
H41	H	-3.929046	-0.451590	-0.221692
H42	H	-4.041646	-0.707734	-0.219269
