data_functionalizedCrystal
_audit_creation_method	'MofGen! by Chris Wilmer'
_symmetry_space_group_name_H-M	'P1'
_symmetry_Int_Tables_number	1
_symmetry_cell_setting	triclinic
loop_
_symmetry_equiv_pos_as_xyz
  x,y,z
_cell_length_a	14.044220
_cell_length_b	11.792254
_cell_length_c	10.868271
_cell_angle_alpha	90.004454
_cell_angle_beta	89.994103
_cell_angle_gamma	88.693738
loop_
_atom_site_label
_atom_site_type_symbol
_atom_site_fract_x
_atom_site_fract_y
_atom_site_fract_z
O1	O	0.130045	1.519094	-0.102325
O2	O	0.463378	1.852427	0.231008
O3	O	0.796711	2.185760	0.564342
O4	O	0.143429	1.190011	-0.102328
O5	O	0.476762	1.523344	0.231005
O6	O	0.810095	1.856678	0.564339
O7	O	-0.001274	1.349613	-0.102314
O8	O	0.332060	1.682946	0.231019
O9	O	0.665393	2.016279	0.564352
O10	O	0.274747	1.359492	-0.102339
O11	O	0.608080	1.692825	0.230995
O12	O	0.941413	2.026158	0.564328
O13	O	-0.001279	1.349627	0.102330
O14	O	0.332054	1.682960	0.435664
O15	O	0.665387	2.016293	0.768997
O16	O	0.143423	1.190025	0.102317
O17	O	0.476756	1.523358	0.435650
O18	O	0.810090	1.856691	0.768983
O19	O	0.130039	1.519107	0.102320
O20	O	0.463372	1.852441	0.435653
O21	O	0.796706	2.185774	0.768986
Zn22	Zn	0.136730	1.354568	0.134810
Zn23	Zn	0.470063	1.687902	0.468143
Zn24	Zn	0.803397	2.021235	0.801477
Zn25	Zn	0.136738	1.354550	-0.134818
Zn26	Zn	0.470071	1.687883	0.198515
Zn27	Zn	0.803404	2.021217	0.531848
O28	O	0.274741	1.359506	0.102306
O29	O	0.608074	1.692839	0.435639
O30	O	0.941408	2.026172	0.768973
C31	C	0.142583	1.147648	-0.000006
C32	C	0.475916	1.480981	0.333327
C33	C	0.809249	1.814315	0.666661
C34	C	0.140059	1.021398	-0.000007
C35	C	0.473392	1.354731	0.333327
C36	C	0.806726	1.688065	0.666660
C37	C	0.138009	0.918869	-0.000012
C38	C	0.471342	1.252202	0.333322
C39	C	0.804675	1.585536	0.666655
C40	C	0.135445	0.790242	-0.000012
C41	C	0.468778	1.123575	0.333321
C42	C	0.802112	1.456908	0.666654
C43	C	-0.036613	1.345295	0.000008
C44	C	0.296720	1.678629	0.333342
C45	C	0.630053	2.011962	0.666675
C46	C	-0.141906	1.332396	0.000010
C47	C	0.191428	1.665730	0.333343
C48	C	0.524761	1.999063	0.666676
C49	C	-0.334689	1.308814	-0.000008
C50	C	-0.001356	1.642148	0.333325
C51	C	0.331977	1.975481	0.666659
C52	C	-0.391849	1.400299	-0.000011
C53	C	-0.058516	1.733632	0.333322
C54	C	0.274818	2.066966	0.666656
C55	C	-0.499120	1.387178	-0.000021
C56	C	-0.165787	1.720511	0.333312
C57	C	0.167546	2.053844	0.666646
C58	C	-0.227408	1.321934	0.000002
C59	C	0.105925	1.655267	0.333335
C60	C	0.439259	1.988601	0.666669
C61	C	0.310081	1.363823	-0.000019
C62	C	0.643414	1.697156	0.333314
C63	C	0.976747	2.030490	0.666647
C64	C	0.415373	1.376722	-0.000029
C65	C	0.748707	1.710055	0.333304
C66	C	1.082040	2.043389	0.666638
C67	C	0.130885	1.561470	-0.000005
C68	C	0.464218	1.894804	0.333328
C69	C	0.797552	2.228137	0.666662
C70	C	0.133408	1.687720	-0.000012
C71	C	0.466742	2.021054	0.333321
C72	C	0.800075	2.354387	0.666654
N73	N	0.136736	1.354538	-0.318832
N74	N	0.470069	1.687871	0.014501
N75	N	0.803402	2.021204	0.347834
C76	C	0.136736	1.354546	-0.430170
C77	C	0.470069	1.687879	-0.096837
C78	C	0.803402	2.021212	0.236497
C79	C	0.136732	1.354566	-0.569848
C80	C	0.470065	1.687900	-0.236514
C81	C	0.803399	2.021233	0.096819
N82	N	0.136724	1.354589	0.318824
N83	N	0.470058	1.687922	0.652157
N84	N	0.803391	2.021256	0.985491
H85	H	-0.360221	1.488476	-0.000093
H86	H	-0.026888	1.821809	0.333241
H87	H	0.306445	2.155143	0.666574
H88	H	-0.366315	1.220644	-0.000012
H89	H	-0.032982	1.553978	0.333321
H90	H	0.300352	1.887311	0.666655
