data_functionalizedCrystal
_audit_creation_method	'MofGen! by Chris Wilmer'
_symmetry_space_group_name_H-M	'P1'
_symmetry_Int_Tables_number	1
_symmetry_cell_setting	triclinic
loop_
_symmetry_equiv_pos_as_xyz
  x,y,z
_cell_length_a	15.712078
_cell_length_b	14.750522
_cell_length_c	16.109301
_cell_angle_alpha	104.204177
_cell_angle_beta	101.521314
_cell_angle_gamma	99.532192
loop_
_atom_site_label
_atom_site_type_symbol
_atom_site_fract_x
_atom_site_fract_y
_atom_site_fract_z
O1	O	1.163556	0.080076	0.477136
O2	O	0.911908	0.080026	0.413837
O3	O	1.044643	0.080043	0.326557
O4	O	1.030821	0.080059	0.564416
O5	O	1.011162	-0.079625	0.284170
O6	O	0.878427	-0.079641	0.371450
O7	O	1.130076	-0.079591	0.434749
Zn8	Zn	0.998936	-0.104967	0.396370
Zn9	Zn	1.043048	0.105402	0.452216
O10	O	0.997341	-0.079608	0.522029
C11	C	0.862966	0.000186	0.382303
C12	C	0.767016	0.000166	0.351482
C13	C	0.399863	0.000251	0.613139
C14	C	0.309714	0.000273	0.584170
C15	C	0.330369	0.000265	0.438979
C16	C	0.420523	0.000247	0.467938
C17	C	0.455262	0.000239	0.555019
C18	C	0.475922	0.000236	0.409817
C19	C	0.566067	0.000214	0.438772
C20	C	0.600812	0.000203	0.525849
C21	C	0.545407	0.000217	0.583974
C22	C	0.441180	0.000237	0.322735
C23	C	0.496579	0.000226	0.264614
C24	C	0.586726	0.000211	0.293571
C25	C	0.621472	0.000200	0.380647
C26	C	0.642132	0.000196	0.235445
C27	C	0.732276	0.000174	0.264401
C28	C	0.711617	0.000178	0.409603
N29	N	0.968837	-0.248538	0.358257
C30	C	1.157144	-0.600261	0.596767
C31	C	1.136073	-0.700771	0.570054
C32	C	1.031277	-0.700786	0.437278
C33	C	1.052336	-0.600275	0.463982
C34	C	1.115271	-0.550020	0.543727
C35	C	1.010462	-0.550033	0.410942
C36	C	1.031523	-0.449530	0.437642
C37	C	1.094458	-0.399269	0.517382
C38	C	1.136332	-0.449517	0.570427
C39	C	0.947532	-0.600290	0.331194
C40	C	0.905659	-0.550048	0.278154
C41	C	0.926715	-0.449543	0.304857
C42	C	0.989649	-0.399282	0.384597
C43	C	0.884841	-0.399295	0.251812
C44	C	0.905902	-0.298792	0.278513
C45	C	1.010710	-0.298779	0.411297
C46	C	1.179018	0.000251	0.466283
C47	C	1.274970	0.000277	0.497106
C48	C	1.027343	0.000208	0.274218
C49	C	1.025663	0.000207	0.181411
N50	N	1.073154	0.248972	0.490324
C51	C	1.100526	0.000237	-0.018071
C52	C	1.098943	0.000244	-0.105272
C53	C	0.941454	0.000209	-0.133335
C54	C	0.943039	0.000208	-0.046134
C55	C	1.022577	0.000217	0.011495
C56	C	1.019409	0.000226	-0.162907
C57	C	1.017692	0.000234	-0.257454
C58	C	1.024294	0.000211	0.106048
C59	C	1.014641	0.000228	0.574368
C60	C	1.016322	0.000236	0.667177
H61	H	0.674213	0.000181	0.549422
H62	H	0.879560	0.000196	-0.022063
O63	O	0.865089	-0.250022	0.227040
C64	C	0.772202	-0.274624	0.216799
H65	H	0.758028	-0.302274	0.273948
H66	H	0.743540	-0.208538	0.216565
H67	H	0.739928	-0.332954	0.151605
H68	H	1.162418	0.000262	-0.129338
H69	H	1.165291	0.000246	0.028849
O70	O	0.433546	0.000375	0.697786
C71	C	0.422634	0.083090	0.756844
H72	H	0.365908	0.110676	0.722508
H73	H	0.406205	0.064499	0.817335
H74	H	0.486964	0.140980	0.778445
H75	H	0.468279	0.000221	0.193709
O76	O	0.745299	0.000302	0.494249
C77	C	0.734388	0.083017	0.553307
H78	H	0.677661	0.110602	0.518971
H79	H	0.717959	0.064426	0.613798
H80	H	0.798718	0.140907	0.574908
O81	O	0.864260	0.000149	-0.189446
C82	C	0.879578	0.000174	-0.272747
H83	H	0.940698	-0.030036	-0.280624
H84	H	0.818968	-0.046195	-0.327158
H85	H	0.891453	0.076773	-0.277821
O86	O	1.176694	-0.749725	0.621461
C87	C	1.144594	-0.849208	0.580810
H88	H	1.117102	-0.862932	0.506692
H89	H	1.201369	-0.887385	0.592498
H90	H	1.089357	-0.877754	0.610368
H91	H	0.854419	-0.590979	0.213224
H92	H	0.573692	0.000209	0.654883
H93	H	0.264609	0.000277	0.631505
H94	H	0.302070	0.000260	0.368074
H95	H	0.367775	0.000244	0.299159
H96	H	0.613831	0.000190	0.164541
H97	H	0.777385	0.000167	0.217074
H98	H	1.061949	-0.257859	0.476240
O99	O	1.115051	-0.301640	0.543436
C100	C	1.179559	-0.268060	0.625203
H101	H	1.217514	-0.325965	0.633997
H102	H	1.228147	-0.200805	0.626535
H103	H	1.145181	-0.250257	0.681196
H104	H	1.187570	-0.408597	0.635369
H105	H	0.980037	-0.741717	0.372347
O106	O	1.218324	-0.551584	0.674243
C107	C	1.250748	-0.617477	0.715353
H108	H	1.240799	-0.689112	0.663450
H109	H	1.324795	-0.588411	0.748940
H110	H	1.212872	-0.628190	0.766911
O111	O	0.927227	-0.697919	0.305290
C112	C	1.004787	-0.731470	0.296078
H113	H	1.066147	-0.673544	0.338004
H114	H	1.003886	-0.798714	0.319102
H115	H	1.007044	-0.749282	0.223680
H116	H	0.833605	-0.440227	0.186880
