data_functionalizedCrystal
_audit_creation_method	'MofGen! by Chris Wilmer'
_symmetry_space_group_name_H-M	'P1'
_symmetry_Int_Tables_number	1
_symmetry_cell_setting	triclinic
loop_
_symmetry_equiv_pos_as_xyz
  x,y,z
_cell_length_a	19.188905
_cell_length_b	19.188930
_cell_length_c	9.130307
_cell_angle_alpha	89.991600
_cell_angle_beta	89.991361
_cell_angle_gamma	83.139668
loop_
_atom_site_label
_atom_site_type_symbol
_atom_site_fract_x
_atom_site_fract_y
_atom_site_fract_z
O1	O	0.926153	0.087083	-0.122057
O2	O	0.722839	0.098836	-0.122009
O3	O	0.830363	-0.008697	-0.122006
O4	O	0.818629	0.194616	-0.122060
O5	O	0.830360	-0.008698	0.121593
O6	O	0.722836	0.098835	0.121590
O7	O	0.926150	0.087082	0.121542
Cu8	Cu	0.824492	0.092958	0.143808
Cu9	Cu	0.824496	0.092960	-0.144276
O10	O	0.818625	0.194615	0.121539
C11	C	0.696826	0.098458	-0.000203
C12	C	0.619321	0.097324	-0.000184
C13	C	0.582931	0.096780	-0.132973
C14	C	0.510107	0.095707	-0.132991
C15	C	0.473678	0.095164	-0.000212
C16	C	0.510076	0.095712	0.132595
C17	C	0.582898	0.096792	0.132609
N18	N	0.364657	0.053735	0.098614
N19	N	0.295480	0.052707	0.098591
C20	C	0.254272	0.091911	-0.000246
N21	N	0.284855	0.132173	-0.099083
N22	N	0.354039	0.133197	-0.099065
C23	C	0.394716	0.093993	-0.000212
C24	C	0.138918	0.090205	-0.133065
C25	C	0.066092	0.089136	-0.133077
C26	C	0.066064	0.089134	0.132513
C27	C	0.138887	0.090210	0.132522
C28	C	0.175310	0.090742	-0.000271
C29	C	0.829982	-0.034708	-0.000202
C30	C	0.828841	-0.112213	-0.000189
C31	C	0.891933	-0.157142	-0.000197
C32	C	0.890861	-0.229966	-0.000220
C33	C	0.826694	-0.257857	-0.000206
C34	C	0.763594	-0.212917	-0.000207
C35	C	0.764668	-0.140095	-0.000198
N36	N	0.777645	-0.365858	0.082707
N37	N	0.776629	-0.435036	0.082702
C38	C	0.823456	-0.477265	-0.000235
N39	N	0.871347	-0.447703	-0.083148
N40	N	0.872364	-0.378519	-0.083137
C41	C	0.825523	-0.336819	-0.000216
C42	C	0.885390	-0.601159	-0.000270
C43	C	0.884315	-0.673984	-0.000302
C44	C	0.757047	-0.656933	-0.000274
C45	C	0.758123	-0.584110	-0.000257
C46	C	0.822296	-0.556228	-0.000248
C47	C	0.952163	0.087460	-0.000267
C48	C	1.029668	0.088594	-0.000296
C49	C	0.819007	0.220626	-0.000268
C50	C	0.820148	0.298131	-0.000291
N51	N	0.824495	0.092957	0.346431
N52	N	0.824500	0.092955	-0.346898
C53	C	0.919746	-0.002236	0.346424
C54	C	0.967376	-0.049830	0.423087
C55	C	0.967383	-0.049831	0.576421
C56	C	0.919753	-0.002233	0.653094
C57	C	0.872123	0.045361	0.576431
C58	C	0.872122	0.045358	0.423094
C59	C	0.776870	0.140550	0.576438
C60	C	0.776865	0.140555	0.423105
C61	C	0.729240	0.188147	0.653112
C62	C	0.681612	0.235746	0.576449
C63	C	0.681608	0.235745	0.423106
C64	C	0.729235	0.188149	0.346442
H65	H	0.612582	0.097213	-0.241104
C66	C	0.648237	-0.664831	0.124968
C67	C	0.686512	-0.687581	-0.000263
H68	H	0.604689	-0.683751	0.124962
H69	H	0.674203	-0.680281	0.209894
H70	H	0.639852	-0.615029	0.124964
H71	H	0.694901	-0.737383	-0.000253
H72	H	0.660540	-0.672135	-0.085211
C73	C	0.640219	0.356721	0.375880
C74	C	0.629252	0.288065	0.338841
H75	H	0.607898	0.389020	0.323853
H76	H	0.633403	0.363524	0.478161
H77	H	0.686791	0.364181	0.350720
H78	H	0.582681	0.280602	0.364010
H79	H	0.636062	0.281258	0.236537
C80	C	0.517445	0.095804	-0.395514
C81	C	0.470096	0.095107	-0.278963
H82	H	0.492744	0.095430	-0.485628
H83	H	0.540389	0.136929	-0.390006
H84	H	0.551306	0.055516	-0.389961
H85	H	0.436238	0.135398	-0.284510
H86	H	0.447141	0.053977	-0.284474
H87	H	0.480411	0.095271	0.240705
C88	C	0.649979	-0.547151	-0.125441
C89	C	0.688768	-0.534721	-0.000227
H90	H	0.607158	-0.516663	-0.125418
H91	H	0.676300	-0.538705	-0.210378
H92	H	0.640163	-0.594515	-0.125430
H93	H	0.698588	-0.487358	-0.000243
H94	H	0.662442	-0.543161	0.084732
H95	H	0.713289	-0.103513	-0.000191
H96	H	0.168574	0.090645	-0.241192
H97	H	0.919750	-0.002234	0.221572
C98	C	0.575553	0.096680	0.395129
C99	C	0.622903	0.097382	0.278582
H100	H	0.600254	0.097038	0.485246
H101	H	0.541700	0.136965	0.389594
H102	H	0.552603	0.055551	0.389599
H103	H	0.645850	0.138513	0.284106
H104	H	0.656769	0.057093	0.284120
C105	C	0.073442	0.089226	-0.395596
C106	C	0.026090	0.088535	-0.279052
H107	H	0.048745	0.088850	-0.485714
H108	H	0.096388	0.130350	-0.390090
H109	H	0.107302	0.048937	-0.390033
H110	H	-0.007767	0.128827	-0.284609
H111	H	0.003133	0.047406	-0.284560
C112	C	-0.045573	0.087463	0.250418
C113	C	0.026030	0.088529	0.278469
H114	H	-0.070288	0.087086	0.340530
H115	H	-0.062955	0.127994	0.195866
H116	H	-0.052035	0.046580	0.195853
H117	H	0.032493	0.129415	0.333025
H118	H	0.043418	0.047995	0.333045
H119	H	0.935694	-0.710565	-0.000317
C120	C	0.663515	0.174218	0.872799
C121	C	0.729246	0.188145	0.821659
H122	H	0.663521	0.174214	0.976853
H123	H	0.628339	0.209373	0.838120
H124	H	0.654112	0.129612	0.838122
H125	H	0.738647	0.232753	0.856326
H126	H	0.764432	0.152988	0.856352
H127	H	0.937644	-0.578456	-0.000270
H128	H	1.006165	-0.088589	0.638840
H129	H	0.168517	0.090648	0.240653
C130	C	1.017623	-0.181316	-0.000220
C131	C	0.962471	-0.126495	-0.000203
H132	H	1.061169	-0.162392	-0.000233
H133	H	1.014554	-0.209369	0.084722
H134	H	1.014554	-0.209358	-0.085176
H135	H	0.965537	-0.098455	0.084759
H136	H	0.965542	-0.098429	-0.085154
C137	C	0.963492	-0.321747	-0.125448
C138	C	0.960215	-0.279365	-0.000220
H139	H	1.006311	-0.352239	-0.125447
H140	H	0.925125	-0.348772	-0.125440
H141	H	0.961275	-0.292971	-0.210385
H142	H	0.962428	-0.308141	0.084718
H143	H	0.998593	-0.252338	-0.000215
C144	C	0.705441	-0.316979	-0.000184
C145	C	0.693060	-0.243572	-0.000185
H146	H	0.661894	-0.335902	-0.000167
H147	H	0.731407	-0.332405	-0.085133
H148	H	0.731409	-0.332415	0.084765
H149	H	0.667096	-0.228136	-0.085140
H150	H	0.667083	-0.228140	0.084772
C151	C	1.008784	-0.170798	0.375796
C152	C	1.019729	-0.102130	0.338761
H153	H	1.041102	-0.203079	0.323720
H154	H	1.015619	-0.177623	0.478067
H155	H	0.962211	-0.178264	0.350695
H156	H	1.066301	-0.094662	0.363873
H157	H	1.012900	-0.095302	0.236468
H158	H	0.729238	0.188147	0.221590
C159	C	0.560617	0.277037	0.623703
C160	C	0.629260	0.288056	0.660734
H161	H	0.528298	0.309329	0.675750
H162	H	0.553803	0.283858	0.521426
H163	H	0.553196	0.230452	0.648843
H164	H	0.636683	0.334640	0.635583
H165	H	0.636077	0.281241	0.763033
H166	H	0.919756	-0.002242	0.777947
