data_functionalizedCrystal
_audit_creation_method	'MofGen! by Chris Wilmer'
_symmetry_space_group_name_H-M	'P1'
_symmetry_Int_Tables_number	1
_symmetry_cell_setting	triclinic
loop_
_symmetry_equiv_pos_as_xyz
  x,y,z
_cell_length_a	10.654550
_cell_length_b	10.489741
_cell_length_c	9.130313
_cell_angle_alpha	89.999004
_cell_angle_beta	89.996220
_cell_angle_gamma	84.512038
loop_
_atom_site_label
_atom_site_type_symbol
_atom_site_fract_x
_atom_site_fract_y
_atom_site_fract_z
O1	O	1.667918	0.179156	-0.121919
O2	O	1.302447	0.196226	-0.121895
O3	O	1.493499	0.002089	-0.121899
O4	O	1.476867	0.373293	-0.121915
O5	O	1.493497	0.002094	0.121700
O6	O	1.302445	0.196231	0.121703
O7	O	1.667916	0.179161	0.121680
Cu8	Cu	1.485180	0.187697	0.143934
Cu9	Cu	1.485183	0.187690	-0.144150
O10	O	1.476864	0.373298	0.121683
C11	C	1.255648	0.194975	-0.000093
C12	C	1.116203	0.191225	-0.000084
C13	C	1.036771	0.305530	-0.000110
C14	C	0.905748	0.301999	-0.000135
C15	C	0.933603	0.069849	-0.000114
C16	C	1.064623	0.073381	-0.000078
C17	C	1.088351	0.423374	-0.000116
C18	C	1.008917	0.537688	-0.000144
C19	C	0.877895	0.534157	-0.000169
C20	C	0.826306	0.416312	-0.000166
C21	C	1.492241	-0.045439	-0.000100
C22	C	1.488483	-0.187067	-0.000103
C23	C	1.366923	-0.255148	-0.000106
C24	C	1.424346	-0.347296	0.119997
C25	C	1.424377	-0.347276	-0.120172
C26	C	1.545956	-0.277349	0.120099
C27	C	1.545970	-0.277320	-0.120178
C28	C	1.603481	-0.369440	-0.000045
C29	C	1.714715	0.180412	-0.000126
C30	C	1.854160	0.184162	-0.000145
C31	C	1.478122	0.420826	-0.000118
C32	C	1.481880	0.562454	-0.000126
N33	N	1.485187	0.187700	0.346557
N34	N	1.485186	0.187677	-0.346772
C35	C	1.569807	0.101766	0.423207
C36	C	1.569803	0.101751	0.576544
C37	C	1.400557	0.273615	0.576567
C38	C	1.400555	0.273623	0.423232
C39	C	1.654439	0.015843	0.346531
C40	C	1.739066	-0.070097	0.423182
C41	C	1.739063	-0.070112	0.576519
C42	C	1.654432	0.015812	0.653205
H43	H	1.129299	-0.019696	-0.000061
C44	C	1.231913	-0.187998	0.000062
H45	H	1.188927	-0.211793	0.085512
H46	H	1.188291	-0.212941	-0.084392
H47	H	1.235235	-0.097821	-0.000797
H48	H	1.372910	-0.378281	0.221542
C49	C	1.654444	0.015864	0.177867
H50	H	1.591931	0.079356	0.143197
H51	H	1.636536	-0.065825	0.143162
H52	H	1.734872	0.034103	0.143187
C53	C	1.615368	-0.235738	0.257429
H54	H	1.617292	-0.145380	0.256627
H55	H	1.699150	-0.275893	0.257777
H56	H	1.572457	-0.260249	0.342616
H57	H	1.703518	-0.418912	0.000015
H58	H	1.807963	-0.140062	0.360736
H59	H	1.195034	0.426262	-0.000102
H60	H	1.597363	-0.246302	-0.221728
C61	C	1.065660	0.667306	-0.000145
H62	H	1.155068	0.653041	-0.000140
H63	H	1.038449	0.714427	0.084793
H64	H	1.038482	0.714410	-0.085114
C65	C	1.832144	-0.164642	0.660831
H66	H	1.882550	-0.215803	0.593200
H67	H	1.786498	-0.218179	0.720647
H68	H	1.884835	-0.118252	0.720644
H69	H	0.813223	0.627237	-0.000177
C70	C	1.654419	0.015794	0.821872
H71	H	1.591897	0.079271	0.856561
H72	H	1.734841	0.034005	0.856563
H73	H	1.636489	-0.065906	0.856547
H74	H	1.372927	-0.378217	-0.221719
H75	H	1.331655	0.343573	0.639014
H76	H	0.719617	0.413446	-0.000164
H77	H	0.891588	-0.026095	-0.000136
C78	C	1.307483	0.368155	0.338911
H79	H	1.257092	0.419339	0.406535
H80	H	1.254795	0.321777	0.279095
H81	H	1.353147	0.421688	0.279098
