data_functionalizedCrystal
_audit_creation_method	'MofGen! by Chris Wilmer'
_symmetry_space_group_name_H-M	'P1'
_symmetry_Int_Tables_number	1
_symmetry_cell_setting	triclinic
loop_
_symmetry_equiv_pos_as_xyz
  x,y,z
_cell_length_a	23.532407
_cell_length_b	23.532407
_cell_length_c	8.140239
_cell_angle_alpha	89.988012
_cell_angle_beta	90.002624
_cell_angle_gamma	82.848713
loop_
_atom_site_label
_atom_site_type_symbol
_atom_site_fract_x
_atom_site_fract_y
_atom_site_fract_z
O1	O	0.755258	0.069134	-0.136438
O2	O	1.088592	0.402467	0.196895
O3	O	1.421925	0.735801	0.530228
O4	O	0.589395	0.079137	-0.136491
O5	O	0.922728	0.412470	0.196842
O6	O	1.256061	0.745804	0.530176
O7	O	0.677328	-0.008796	-0.136417
O8	O	1.010661	0.324537	0.196916
O9	O	1.343995	0.657871	0.530250
O10	O	0.667325	0.157067	-0.136512
O11	O	1.000658	0.490401	0.196821
O12	O	1.333992	0.823734	0.530154
O13	O	0.677323	-0.008797	0.136810
O14	O	1.010657	0.324536	0.470143
O15	O	1.343990	0.657870	0.803477
O16	O	0.589390	0.079136	0.136736
O17	O	0.922723	0.412470	0.470070
O18	O	1.256057	0.745803	0.803403
O19	O	0.755253	0.069133	0.136789
O20	O	1.088587	0.402466	0.470122
O21	O	1.421920	0.735800	0.803455
Zn22	Zn	0.672321	0.074134	0.180143
Zn23	Zn	1.005654	0.407468	0.513477
Zn24	Zn	1.338988	0.740801	0.846810
Zn25	Zn	0.672327	0.074136	-0.179845
Zn26	Zn	1.005661	0.407469	0.153488
Zn27	Zn	1.338994	0.740802	0.486821
O28	O	0.667320	0.157066	0.136715
O29	O	1.000653	0.490400	0.470048
O30	O	1.333987	0.823733	0.803382
C31	C	0.568176	0.078882	0.000117
C32	C	0.901510	0.412215	0.333450
C33	C	1.234843	0.745549	0.666783
C34	C	0.504959	0.078116	0.000099
C35	C	0.838293	0.411449	0.333432
C36	C	1.171626	0.744783	0.666766
C37	C	0.105856	0.125350	0.000146
C38	C	0.439190	0.458683	0.333479
C39	C	0.772523	0.792016	0.666813
C40	C	0.046456	0.124638	0.000157
C41	C	0.379789	0.457971	0.333490
C42	C	0.713123	0.791305	0.666823
O43	O	0.009711	0.168424	0.000191
O44	O	0.343045	0.501757	0.333524
O45	O	0.676378	0.835091	0.666858
N46	N	0.023830	0.072362	0.000184
N47	N	0.357163	0.405695	0.333517
N48	N	0.690497	0.739028	0.666851
C49	C	0.060607	0.020794	0.000217
C50	C	0.393941	0.354127	0.333551
C51	C	0.727274	0.687460	0.666884
O52	O	0.035908	-0.023737	0.000243
O53	O	0.369241	0.309596	0.333577
O54	O	0.702574	0.642930	0.666910
C55	C	0.120006	0.021506	0.000219
C56	C	0.453340	0.354839	0.333552
C57	C	0.786673	0.688172	0.666885
C58	C	0.142629	0.073785	0.000175
C59	C	0.475962	0.407119	0.333508
C60	C	0.809296	0.740452	0.666841
C61	C	0.128480	0.177625	0.000104
C62	C	0.461813	0.510958	0.333437
C63	C	0.795146	0.844292	0.666771
C64	C	0.187876	0.178336	0.000090
C65	C	0.521209	0.511670	0.333424
C66	C	0.854542	0.845003	0.666757
C67	C	0.224649	0.126772	0.000119
C68	C	0.557982	0.460105	0.333452
C69	C	0.891315	0.793439	0.666786
C70	C	0.202025	0.074496	0.000161
C71	C	0.535359	0.407830	0.333495
C72	C	0.868692	0.741163	0.666828
C73	C	0.156783	-0.030062	0.000264
C74	C	0.490116	0.303271	0.333597
C75	C	0.823450	0.636605	0.666931
C76	C	0.216185	-0.029345	0.000267
C77	C	0.549519	0.303988	0.333600
C78	C	0.882852	0.637321	0.666933
C79	C	0.238808	0.022934	0.000223
C80	C	0.572141	0.356268	0.333556
C81	C	0.905475	0.689601	0.666889
C82	C	0.298194	0.023643	0.000176
C83	C	0.631528	0.356977	0.333510
C84	C	0.964861	0.690310	0.666843
N85	N	0.320821	0.075920	0.000149
N86	N	0.654154	0.409253	0.333482
N87	N	0.987487	0.742586	0.666816
C88	C	0.284048	0.127484	0.000120
C89	C	0.617381	0.460817	0.333454
C90	C	0.950714	0.794151	0.666787
C91	C	-0.064135	0.019302	0.000218
C92	C	0.269198	0.352635	0.333551
C93	C	0.602532	0.685969	0.666884
C94	C	-0.123533	0.018589	0.000205
C95	C	0.209800	0.351923	0.333538
C96	C	0.543134	0.685256	0.666871
C97	C	-0.137680	0.122434	0.000147
C98	C	0.195653	0.455768	0.333480
C99	C	0.528986	0.789101	0.666813
C100	C	-0.078281	0.123146	0.000148
C101	C	0.255052	0.456480	0.333481
C102	C	0.588385	0.789813	0.666815
C103	C	-0.041509	0.071578	0.000190
C104	C	0.291824	0.404912	0.333524
C105	C	0.625158	0.738245	0.666857
C106	C	0.408784	0.128974	0.000091
C107	C	0.742118	0.462307	0.333424
C108	C	1.075451	0.795640	0.666757
C109	C	0.468186	0.129680	0.000070
C110	C	0.801520	0.463014	0.333404
C111	C	1.134853	0.796347	0.666737
C112	C	0.482329	0.025836	0.000137
C113	C	0.815662	0.359169	0.333470
C114	C	1.148995	0.692503	0.666803
C115	C	0.422932	0.025129	0.000148
C116	C	0.756265	0.358462	0.333482
C117	C	1.089598	0.691796	0.666815
C118	C	0.386160	0.076702	0.000131
C119	C	0.719494	0.410036	0.333464
C120	C	1.052827	0.743369	0.666798
O121	O	0.334974	-0.020119	0.000149
O122	O	0.668307	0.313214	0.333482
O123	O	1.001640	0.646547	0.666815
O124	O	0.308756	0.172007	0.000116
O125	O	0.642089	0.505340	0.333450
O126	O	0.975422	0.838674	0.666783
C127	C	0.677071	-0.030013	0.000205
C128	C	1.010404	0.303321	0.333538
C129	C	1.343738	0.636654	0.666872
C130	C	0.676305	-0.093230	0.000229
C131	C	1.009638	0.240104	0.333563
C132	C	1.342972	0.573437	0.666896
C133	C	0.621110	-0.359397	0.000110
C134	C	0.954443	-0.026064	0.333443
C135	C	1.287776	0.307270	0.666776
C136	C	0.621821	-0.299997	0.000122
C137	C	0.955154	0.033336	0.333456
C138	C	1.288488	0.366670	0.666789
O139	O	0.578035	-0.263252	0.000057
O140	O	0.911368	0.070081	0.333390
O141	O	1.244702	0.403414	0.666723
N142	N	0.674097	-0.277371	0.000158
N143	N	1.007431	0.055963	0.333491
N144	N	1.340764	0.389296	0.666825
C145	C	0.725666	-0.314148	0.000164
C146	C	1.058999	0.019185	0.333497
C147	C	1.392332	0.352518	0.666830
O148	O	0.770196	-0.289449	0.000194
O149	O	1.103529	0.043885	0.333527
O150	O	1.436863	0.377218	0.666860
C151	C	0.724954	-0.373547	0.000139
C152	C	1.058287	-0.040214	0.333472
C153	C	1.391620	0.293119	0.666806
C154	C	0.672674	-0.396170	0.000120
C155	C	1.006007	-0.062837	0.333454
C156	C	1.339341	0.270497	0.666787
C157	C	0.568834	-0.382020	0.000089
C158	C	0.902167	-0.048687	0.333422
C159	C	1.235501	0.284646	0.666756
C160	C	0.568123	-0.441417	0.000079
C161	C	0.901456	-0.108083	0.333413
C162	C	1.234790	0.225250	0.666746
C163	C	0.619687	-0.478189	0.000090
C164	C	0.953021	-0.144856	0.333423
C165	C	1.286354	0.188477	0.666757
C166	C	0.671963	-0.455566	0.000111
C167	C	1.005296	-0.122233	0.333444
C168	C	1.338629	0.211101	0.666777
C169	C	0.776521	-0.410324	0.000133
C170	C	1.109854	-0.076990	0.333467
C171	C	1.443188	0.256343	0.666800
C172	C	0.775805	-0.469726	0.000107
C173	C	1.109138	-0.136393	0.333441
C174	C	1.442471	0.196940	0.666774
C175	C	0.723525	-0.492349	0.000089
C176	C	1.056858	-0.159016	0.333422
C177	C	1.390192	0.174318	0.666755
C178	C	0.722816	-0.551735	0.000112
C179	C	1.056149	-0.218402	0.333445
C180	C	1.389482	0.114931	0.666778
N181	N	0.670539	-0.574361	0.000076
N182	N	1.003873	-0.241028	0.333409
N183	N	1.337206	0.092305	0.666743
C184	C	0.618975	-0.537589	0.000065
C185	C	0.952309	-0.204255	0.333399
C186	C	1.285642	0.129078	0.666732
C187	C	0.727157	-0.189406	0.000213
C188	C	1.060490	0.143928	0.333546
C189	C	1.393824	0.477261	0.666879
C190	C	0.727870	-0.130008	0.000249
C191	C	1.061203	0.203326	0.333582
C192	C	1.394536	0.536659	0.666916
C193	C	0.624025	-0.115861	0.000205
C194	C	0.957358	0.217473	0.333538
C195	C	1.290691	0.550806	0.666871
C196	C	0.623313	-0.175260	0.000180
C197	C	0.956646	0.158074	0.333513
C198	C	1.289979	0.491407	0.666847
C199	C	0.674881	-0.212032	0.000177
C200	C	1.008214	0.121301	0.333510
C201	C	1.341547	0.454635	0.666844
C202	C	0.617486	-0.662325	0.000046
C203	C	0.950819	-0.328992	0.333380
C204	C	1.284152	0.004341	0.666713
C205	C	0.616779	-0.721727	0.000043
C206	C	0.950112	-0.388394	0.333377
C207	C	1.283446	-0.055061	0.666710
C208	C	0.720623	-0.735869	0.000079
C209	C	1.053957	-0.402536	0.333412
C210	C	1.387290	-0.069203	0.666746
C211	C	0.721330	-0.676473	0.000091
C212	C	1.054664	-0.343139	0.333424
C213	C	1.387997	-0.009806	0.666757
C214	C	0.669757	-0.639701	0.000069
C215	C	1.003090	-0.306368	0.333402
C216	C	1.336423	0.026965	0.666735
O217	O	0.766579	-0.588514	0.000171
O218	O	1.099912	-0.255181	0.333504
O219	O	1.433245	0.078152	0.666837
O220	O	0.574452	-0.562296	0.000014
O221	O	0.907785	-0.228963	0.333347
O222	O	1.241119	0.104370	0.666681
C223	C	0.776472	0.069388	0.000178
C224	C	1.109805	0.402722	0.333511
C225	C	1.443138	0.736055	0.666844
C226	C	0.839689	0.070154	0.000185
C227	C	1.173022	0.403487	0.333518
C228	C	1.506356	0.736821	0.666851
C229	C	0.667577	0.178283	0.000089
C230	C	1.000911	0.511616	0.333423
C231	C	1.334244	0.844949	0.666756
C232	C	0.668343	0.241500	0.000054
C233	C	1.001676	0.574833	0.333387
C234	C	1.335010	0.908166	0.666721
N235	N	0.672321	0.074133	0.425826
N236	N	1.005654	0.407467	0.759159
N237	N	1.338987	0.740800	1.092492
N238	N	0.672332	0.074132	-0.425528
N239	N	1.005665	0.407466	-0.092195
N240	N	1.338999	0.740799	0.241139
H241	H	0.486602	0.172255	0.000033
H242	H	0.819935	0.505588	0.333367
H243	H	1.153269	0.838921	0.666700
C244	C	0.212756	0.235843	0.000054
C245	C	0.546089	0.569176	0.333388
C246	C	0.879423	0.902509	0.666721
H247	H	0.253399	0.228889	0.000042
H248	H	0.586732	0.562223	0.333376
H249	H	0.920066	0.895556	0.666709
H250	H	0.200113	0.257058	0.095322
H251	H	0.533446	0.590391	0.428655
H252	H	0.866780	0.923724	0.761989
H253	H	0.200109	0.257057	-0.095251
H254	H	0.533442	0.590391	0.238083
H255	H	0.866775	0.923724	0.571416
H256	H	-0.141947	-0.023982	0.000215
H257	H	0.191387	0.309352	0.333548
H258	H	0.524720	0.642685	0.666881
C259	C	0.088038	0.234351	0.000058
C260	C	0.421371	0.567684	0.333392
C261	C	0.754704	0.901018	0.666725
H262	H	0.110027	0.265581	0.000021
H263	H	0.443361	0.598914	0.333354
H264	H	0.776694	0.932248	0.666687
H265	H	0.064569	0.236242	0.095330
H266	H	0.397902	0.569575	0.428663
H267	H	0.731236	0.902908	0.761996
H268	H	0.064575	0.236232	-0.095243
H269	H	0.397908	0.569565	0.238090
H270	H	0.731241	0.902899	0.571424
H271	H	0.770441	-0.111594	0.000290
H272	H	1.103774	0.221739	0.333623
H273	H	1.437108	0.555073	0.666957
H274	H	-0.034198	-0.022693	0.000237
H275	H	0.299136	0.310640	0.333571
H276	H	0.632469	0.643973	0.666904
C277	C	0.777341	-0.776324	0.000082
C278	C	1.110674	-0.442991	0.333416
C279	C	1.444008	-0.109657	0.666749
H280	H	0.808581	-0.754347	0.000106
H281	H	1.141914	-0.421014	0.333439
H282	H	1.475247	-0.087680	0.666773
H283	H	0.779217	-0.799779	-0.095206
H284	H	1.112550	-0.466445	0.238128
H285	H	1.445884	-0.133112	0.571461
H286	H	0.779220	-0.799800	0.095367
H287	H	1.112553	-0.466467	0.428700
H288	H	1.445887	-0.133133	0.762034
C289	C	0.522786	-0.030880	0.000181
C290	C	0.856119	0.302453	0.333514
C291	C	1.189452	0.635786	0.666847
H292	H	0.561400	-0.022964	0.000188
H293	H	0.894734	0.310369	0.333521
H294	H	1.228067	0.643702	0.666855
H295	H	0.515961	-0.052338	-0.095076
H296	H	0.849295	0.280996	0.238257
H297	H	1.182628	0.614329	0.571591
H298	H	0.515961	-0.052325	0.095497
H299	H	0.849295	0.281008	0.428830
H300	H	1.182628	0.614341	0.762163
H301	H	0.769152	-0.219343	0.000222
H302	H	1.102486	0.113990	0.333555
H303	H	1.435819	0.447323	0.666888
H304	H	-0.167632	0.164421	0.000131
H305	H	0.165701	0.497754	0.333465
H306	H	0.499035	0.831087	0.666798
C307	C	0.565806	-0.200139	0.000135
C308	C	0.899139	0.133194	0.333469
C309	C	1.232473	0.466527	0.666802
H310	H	0.535201	-0.169727	0.000121
H311	H	0.868534	0.163607	0.333455
H312	H	1.201868	0.496940	0.666788
H313	H	0.563362	-0.223030	0.095398
H314	H	0.896695	0.110303	0.428731
H315	H	1.230029	0.443636	0.762064
H316	H	0.563372	-0.223001	-0.095175
H317	H	0.896705	0.110332	0.238158
H318	H	1.230039	0.443665	0.571492
C319	C	0.834030	-0.385452	0.000131
C320	C	1.167363	-0.052118	0.333464
C321	C	1.500696	0.281215	0.666797
H322	H	0.864632	-0.415867	0.000109
H323	H	1.197965	-0.082534	0.333442
H324	H	1.531299	0.250800	0.666776
H325	H	0.836477	-0.362583	0.095410
H326	H	1.169810	-0.029250	0.428743
H327	H	1.503143	0.304084	0.762077
H328	H	0.836465	-0.362568	-0.095163
H329	H	1.169798	-0.029235	0.238171
H330	H	1.503132	0.304098	0.571504
C331	C	0.832531	-0.510173	0.000112
C332	C	1.165864	-0.176839	0.333445
C333	C	1.499198	0.156494	0.666779
H334	H	0.863765	-0.488188	0.000139
H335	H	1.197098	-0.154855	0.333472
H336	H	1.530431	0.178479	0.666805
H337	H	0.834415	-0.533630	-0.095170
H338	H	1.167748	-0.200297	0.238163
H339	H	1.501082	0.133036	0.571496
H340	H	0.834412	-0.533646	0.095402
H341	H	1.167745	-0.200313	0.428736
H342	H	1.501079	0.133021	0.762069
C343	C	0.559269	-0.746609	0.000009
C344	C	0.892602	-0.413275	0.333343
C345	C	1.225936	-0.079942	0.666676
H346	H	0.528663	-0.716198	-0.000015
H347	H	0.861996	-0.382864	0.333319
H348	H	1.195329	-0.049531	0.666652
H349	H	0.556827	-0.769496	0.095281
H350	H	0.890160	-0.436162	0.428614
H351	H	1.223493	-0.102829	0.761948
H352	H	0.556836	-0.769476	-0.095292
H353	H	0.890170	-0.436142	0.238042
H354	H	1.223503	-0.102809	0.571375
C355	C	0.778836	-0.651586	0.000131
C356	C	1.112169	-0.318253	0.333464
C357	C	1.445503	0.015081	0.666798
H358	H	0.809443	-0.681996	0.000132
H359	H	1.142777	-0.348663	0.333466
H360	H	1.476110	-0.015330	0.666799
H361	H	0.781271	-0.628714	0.095410
H362	H	1.114604	-0.295381	0.428743
H363	H	1.447937	0.037952	0.762077
H364	H	0.781275	-0.628704	-0.095163
H365	H	1.114608	-0.295370	0.238171
H366	H	1.447942	0.037963	0.571504
C367	C	0.368345	0.185703	0.000050
C368	C	0.701678	0.519036	0.333383
C369	C	1.035011	0.852370	0.666716
H370	H	0.390333	0.216934	0.000005
H371	H	0.723666	0.550268	0.333338
H372	H	1.056999	0.883601	0.666672
H373	H	0.344879	0.187593	0.095326
H374	H	0.678212	0.520927	0.428660
H375	H	1.011545	0.854260	0.761993
H376	H	0.344879	0.187583	-0.095246
H377	H	0.678212	0.520916	0.238087
H378	H	1.011546	0.854250	0.571420
C379	C	0.131911	-0.087571	0.000335
C380	C	0.465244	0.245763	0.333668
C381	C	0.798578	0.579096	0.667002
H382	H	0.162326	-0.118173	0.000376
H383	H	0.495659	0.215160	0.333710
H384	H	0.828993	0.548494	0.667043
H385	H	0.109030	-0.090019	-0.094933
H386	H	0.442363	0.243314	0.238400
H387	H	0.775696	0.576648	0.571733
H388	H	0.109040	-0.090004	0.095639
H389	H	0.442373	0.243329	0.428972
H390	H	0.775707	0.576662	0.762306
C391	C	0.567303	-0.075405	0.000180
C392	C	0.900636	0.257928	0.333514
C393	C	1.233970	0.591261	0.666847
H394	H	0.536063	-0.097382	0.000171
H395	H	0.869397	0.235951	0.333504
H396	H	1.202730	0.569284	0.666837
H397	H	0.565428	-0.051930	-0.095094
H398	H	0.898762	0.281404	0.238240
H399	H	1.232095	0.614737	0.571573
H400	H	0.565422	-0.051950	0.095479
H401	H	0.898756	0.281383	0.428812
H402	H	1.232089	0.614717	0.762145
H403	H	-0.059866	0.165717	0.000122
H404	H	0.273467	0.499050	0.333455
H405	H	0.606800	0.832384	0.666788
C406	C	0.512108	-0.341579	0.000090
C407	C	0.845442	-0.008245	0.333424
C408	C	1.178775	0.325088	0.666757
H409	H	0.480878	-0.363568	0.000087
H410	H	0.814211	-0.030235	0.333420
H411	H	1.147545	0.303099	0.666754
H412	H	0.510219	-0.318098	-0.095174
H413	H	0.843553	0.015236	0.238159
H414	H	1.176886	0.348569	0.571492
H415	H	0.510225	-0.318128	0.095398
H416	H	0.843558	0.015205	0.428732
H417	H	1.176892	0.348539	0.762065
H418	H	0.246123	-0.071339	0.000302
H419	H	0.579457	0.261994	0.333636
H420	H	0.912790	0.595327	0.666969
H421	H	0.404512	-0.017441	0.000160
H422	H	0.737845	0.315892	0.333494
H423	H	1.071178	0.649225	0.666827
C424	C	0.560756	-0.621885	0.000035
C425	C	0.894089	-0.288552	0.333368
C426	C	1.227423	0.044781	0.666702
H427	H	0.529525	-0.643874	0.000036
H428	H	0.862858	-0.310540	0.333370
H429	H	1.196192	0.022793	0.666703
H430	H	0.558870	-0.598408	-0.095237
H431	H	0.892203	-0.265075	0.238096
H432	H	1.225536	0.068258	0.571429
H433	H	0.558872	-0.598431	0.095335
H434	H	0.892206	-0.265098	0.428669
H435	H	1.225539	0.068236	0.762002
C436	C	0.510615	-0.466294	0.000035
C437	C	0.843948	-0.132961	0.333368
C438	C	1.177282	0.200373	0.666702
H439	H	0.480012	-0.435880	0.000013
H440	H	0.813345	-0.102547	0.333347
H441	H	1.146678	0.230787	0.666680
H442	H	0.508169	-0.489182	0.095302
H443	H	0.841502	-0.155849	0.428635
H444	H	1.174835	0.177484	0.761969
H445	H	0.508181	-0.489158	-0.095271
H446	H	0.841514	-0.155825	0.238063
H447	H	1.174847	0.177509	0.571396
