data_functionalizedCrystal
_audit_creation_method	'MofGen! by Chris Wilmer'
_symmetry_space_group_name_H-M	'P1'
_symmetry_Int_Tables_number	1
_symmetry_cell_setting	triclinic
loop_
_symmetry_equiv_pos_as_xyz
  x,y,z
_cell_length_a	16.109302
_cell_length_b	27.731996
_cell_length_c	15.186229
_cell_angle_alpha	89.990305
_cell_angle_beta	89.994701
_cell_angle_gamma	83.041584
loop_
_atom_site_label
_atom_site_type_symbol
_atom_site_fract_x
_atom_site_fract_y
_atom_site_fract_z
O1	O	1.102341	0.062133	-0.073280
O2	O	1.602341	0.562133	0.426720
O3	O	0.860181	0.069865	-0.073274
O4	O	1.360181	0.569865	0.426726
O5	O	0.988804	-0.004368	-0.073258
O6	O	1.488804	0.495632	0.426742
O7	O	0.973717	0.136366	-0.073296
O8	O	1.473717	0.636366	0.426704
O9	O	0.988796	-0.004369	0.073199
O10	O	1.488796	0.495631	0.573199
O11	O	0.860172	0.069864	0.073183
O12	O	1.360172	0.569864	0.573183
O13	O	1.102332	0.062132	0.073177
O14	O	1.602332	0.562132	0.573177
Zn15	Zn	0.981251	0.065998	0.096433
Zn16	Zn	1.481251	0.565998	0.596433
Zn17	Zn	0.981262	0.065999	-0.096530
Zn18	Zn	1.481262	0.565999	0.403470
O19	O	0.973709	0.136365	0.073161
O20	O	1.473709	0.636365	0.573161
C21	C	0.829206	0.069551	-0.000045
C22	C	1.329206	0.569551	0.499955
C23	C	0.736922	0.068612	-0.000042
C24	C	1.236922	0.568612	0.499958
C25	C	0.524604	0.066440	0.079784
C26	C	1.024604	0.566440	0.579784
C27	C	0.437896	0.065552	0.079781
C28	C	0.937896	0.565552	0.579781
C29	C	0.437915	0.065556	-0.079895
C30	C	0.937915	0.565556	0.420105
C31	C	0.524623	0.066440	-0.079891
C32	C	1.024623	0.566440	0.420109
C33	C	0.567965	0.066885	-0.000049
C34	C	1.067965	0.566885	0.499951
C35	C	0.394548	0.065113	-0.000056
C36	C	0.894548	0.565113	0.499944
C37	C	0.300535	0.064150	-0.000059
C38	C	0.800535	0.564150	0.499941
C39	C	0.661985	0.067846	-0.000045
C40	C	1.161985	0.567846	0.499955
C41	C	0.988490	-0.022377	-0.000027
C42	C	1.488490	0.477623	0.499973
C43	C	0.987557	-0.076037	-0.000018
C44	C	1.487557	0.423963	0.499982
C45	C	0.981688	-0.408778	-0.079894
C46	C	1.481688	0.091222	0.420106
C47	C	0.978143	-0.610451	-0.079910
C48	C	1.478143	-0.110451	0.420090
O49	O	0.977653	-0.636523	-0.147806
O50	O	1.477653	-0.136523	0.352194
N51	N	0.977698	-0.635670	-0.000077
N52	N	1.477698	-0.135670	0.499923
C53	C	0.978134	-0.610468	0.079766
C54	C	1.478134	-0.110468	0.579766
O55	O	0.977666	-0.636546	0.147669
O56	O	1.477666	-0.136546	0.647669
C57	C	0.981673	-0.408795	0.079781
C58	C	1.481673	0.091205	0.579781
C59	C	0.982127	-0.383579	-0.000058
C60	C	1.482127	0.116421	0.499942
C61	C	0.982141	-0.383561	-0.159726
C62	C	1.482141	0.116439	0.340274
C63	C	0.983031	-0.333146	-0.159722
C64	C	1.483031	0.166854	0.340278
C65	C	0.983470	-0.307948	-0.079885
C66	C	1.483470	0.192052	0.420115
C67	C	0.983017	-0.333164	-0.000053
C68	C	1.483017	0.166836	0.499947
C69	C	0.982103	-0.383594	0.159622
C70	C	1.482103	0.116406	0.659622
C71	C	0.982986	-0.333172	0.159619
C72	C	1.482986	0.166828	0.659619
C73	C	0.983439	-0.307956	0.079780
C74	C	1.483439	0.192044	0.579780
C75	C	0.984346	-0.257551	0.079788
C76	C	1.484346	0.242449	0.579788
N77	N	0.984791	-0.232331	-0.000045
N78	N	1.484791	0.267669	0.499955
C79	C	0.984353	-0.257530	-0.079882
C80	C	1.484353	0.242470	0.420118
C81	C	0.976278	-0.716349	0.079753
C82	C	1.476278	-0.216349	0.579753
C83	C	0.975395	-0.766767	0.079749
C84	C	1.475395	-0.266767	0.579749
C85	C	0.975402	-0.766746	-0.079927
C86	C	1.475402	-0.266746	0.420073
C87	C	0.976292	-0.716328	-0.079922
C88	C	1.476292	-0.216328	0.420078
C89	C	0.976723	-0.691130	-0.000080
C90	C	1.476723	-0.191130	0.499920
C91	C	0.986224	-0.151655	-0.079866
C92	C	1.486224	0.348345	0.420134
C93	C	0.987118	-0.101236	-0.079854
C94	C	1.487118	0.398764	0.420146
C95	C	0.987106	-0.101261	0.079821
C96	C	1.487106	0.398739	0.579821
C97	C	0.986217	-0.151676	0.079810
C98	C	1.486217	0.348324	0.579810
C99	C	0.985773	-0.176871	-0.000040
C100	C	1.485773	0.323129	0.499960
O101	O	0.984828	-0.231447	0.147649
O102	O	1.484828	0.268553	0.647649
O103	O	0.984803	-0.231442	-0.147774
O104	O	1.484803	0.268558	0.352226
C105	C	0.980798	-0.459192	-0.079899
C106	C	1.480798	0.040808	0.420101
C107	C	0.980345	-0.484409	-0.000067
C108	C	1.480345	0.015591	0.499933
C109	C	0.980783	-0.459210	0.079769
C110	C	1.480783	0.040790	0.579769
C111	C	0.979462	-0.534827	-0.000071
C112	C	1.479462	-0.034827	0.499929
C113	C	0.979024	-0.560025	-0.079907
C114	C	1.479024	-0.060025	0.420093
C115	C	0.979468	-0.534806	-0.159740
C116	C	1.479468	-0.034806	0.340260
C117	C	0.980359	-0.484391	-0.159735
C118	C	1.480359	0.015609	0.340265
C119	C	0.980339	-0.484430	0.159602
C120	C	1.480339	0.015570	0.659602
C121	C	0.979449	-0.534845	0.159591
C122	C	1.479449	-0.034845	0.659591
C123	C	0.979010	-0.560043	0.079755
C124	C	1.479010	-0.060043	0.579755
C125	C	1.133308	0.062446	-0.000054
C126	C	1.633308	0.562446	0.499946
C127	C	1.225591	0.063385	-0.000063
C128	C	1.725591	0.563385	0.499937
C129	C	0.974023	0.154374	-0.000072
C130	C	1.474023	0.654374	0.499928
C131	C	0.974957	0.208034	-0.000087
C132	C	1.474957	0.708034	0.499913
N133	N	0.981249	0.065997	0.228126
N134	N	1.481249	0.565997	0.728126
N135	N	0.981270	0.065997	-0.228223
N136	N	1.481270	0.565997	0.271777
C137	C	1.038223	0.033137	0.453856
C138	C	1.538223	0.533137	0.953856
C139	C	1.038226	0.033136	0.546046
C140	C	1.538226	0.533136	1.046046
C141	C	0.924291	0.098858	0.546041
C142	C	1.424291	0.598858	1.046041
C143	C	0.924285	0.098856	0.453853
C144	C	1.424285	0.598856	0.953853
C145	C	0.981256	0.065996	0.407763
C146	C	1.481256	0.565996	0.907763
C147	C	0.981264	0.065997	0.592140
C148	C	1.481264	0.565997	1.092140
C149	C	0.981267	0.065996	0.692096
C150	C	1.481267	0.565996	1.192096
C151	C	0.981252	0.065997	0.307800
C152	C	1.481252	0.565997	0.807800
H153	H	0.559929	0.066801	-0.144904
H154	H	1.059929	0.566801	0.355096
Cl155	Cl	1.109843	-0.008175	0.603989
Cl156	Cl	1.609843	0.491825	1.103989
Cl157	Cl	0.987690	-0.069539	-0.180230
Cl158	Cl	1.487690	0.430461	0.319770
Cl159	Cl	0.852659	0.140165	0.395901
Cl160	Cl	1.352659	0.640165	0.895901
Cl161	Cl	0.383388	0.064994	0.180147
Cl162	Cl	0.883388	0.564994	0.680147
H163	H	0.975038	-0.787295	0.144762
H164	H	1.475038	-0.287295	0.644762
H165	H	0.877908	0.125612	0.583576
H166	H	1.377908	0.625612	1.083576
H167	H	0.559891	0.066802	0.144796
H168	H	1.059891	0.566802	0.644796
H169	H	0.985859	-0.172163	-0.144888
H170	H	1.485859	0.327837	0.355112
Cl171	Cl	0.983593	-0.301453	-0.260095
Cl172	Cl	1.483593	0.198547	0.239905
H173	H	0.979086	-0.555372	0.224610
H174	H	1.479086	-0.055372	0.724610
Cl175	Cl	0.383426	0.064985	-0.180262
Cl176	Cl	0.883426	0.564985	0.319738
Cl177	Cl	0.981591	-0.415230	-0.260106
Cl178	Cl	1.481591	0.084770	0.239894
Cl179	Cl	0.976859	-0.684632	-0.180294
Cl180	Cl	1.476859	-0.184632	0.319706
H181	H	0.975046	-0.787271	-0.144933
H182	H	1.475046	-0.287271	0.355067
H183	H	0.979115	-0.555332	-0.224746
H184	H	1.479115	-0.055332	0.275254
H185	H	0.976633	-0.695838	0.144774
H186	H	1.476633	-0.195838	0.644774
Cl187	Cl	0.981528	-0.415281	0.259997
Cl188	Cl	1.481528	0.084719	0.759997
Cl189	Cl	0.985663	-0.183378	0.180179
Cl190	Cl	1.485663	0.316622	0.680179
Cl191	Cl	0.983529	-0.301498	0.259998
Cl192	Cl	1.483529	0.198502	0.759998
Cl193	Cl	0.980927	-0.452698	-0.260109
Cl194	Cl	1.480927	0.047302	0.239891
Cl195	Cl	0.987657	-0.069573	0.180182
Cl196	Cl	1.487657	0.430427	0.680182
H197	H	0.980697	-0.463918	0.224616
H198	H	1.480697	0.036082	0.724616
Cl199	Cl	1.109840	-0.008174	0.395918
Cl200	Cl	1.609840	0.491826	0.895918
