data_functionalizedCrystal
_audit_creation_method	'MofGen! by Chris Wilmer'
_symmetry_space_group_name_H-M	'P1'
_symmetry_Int_Tables_number	1
_symmetry_cell_setting	triclinic
loop_
_symmetry_equiv_pos_as_xyz
  x,y,z
_cell_length_a	12.837943
_cell_length_b	12.837942
_cell_length_c	11.295471
_cell_angle_alpha	85.472334
_cell_angle_beta	94.542158
_cell_angle_gamma	94.828940
loop_
_atom_site_label
_atom_site_type_symbol
_atom_site_fract_x
_atom_site_fract_y
_atom_site_fract_z
O1	O	1.408695	0.265793	0.099003
O2	O	1.105562	0.252349	0.099010
O3	O	1.250406	0.107505	0.098999
O4	O	1.263850	0.410638	0.099013
O5	O	1.237671	0.120196	-0.099051
O6	O	1.092827	0.265040	-0.099040
O7	O	1.395960	0.278484	-0.099047
Cu8	Cu	1.243230	0.272921	-0.117128
Cu9	Cu	1.258291	0.257912	0.117090
O10	O	1.251115	0.423329	-0.099037
C11	C	1.060125	0.254153	-0.000014
C12	C	0.943710	0.240609	-0.000012
C13	C	0.718835	0.403439	-0.000021
C14	C	0.609453	0.390717	-0.000020
C15	C	0.615561	0.202446	-0.000016
C16	C	0.724943	0.215167	-0.000017
C17	C	0.776576	0.315667	-0.000018
C18	C	0.885961	0.328387	-0.000011
C19	C	0.892066	0.140117	-0.000016
C20	C	0.782684	0.127396	-0.000015
C21	C	1.239497	0.074781	-0.000025
C22	C	1.225953	-0.041634	-0.000023
C23	C	1.388784	-0.266509	-0.000002
C24	C	1.376062	-0.375892	0.000000
C25	C	1.187791	-0.369784	-0.000008
C26	C	1.200512	-0.260402	-0.000010
C27	C	1.301011	-0.208768	-0.000009
C28	C	1.313731	-0.099383	-0.000020
C29	C	1.125461	-0.093278	-0.000019
C30	C	1.112740	-0.202660	-0.000017
C31	C	1.441396	0.276680	-0.000021
C32	C	1.557812	0.290224	-0.000015
C33	C	1.262024	0.456052	-0.000010
C34	C	1.275569	0.572467	-0.000004
N35	N	1.232645	0.283477	-0.281863
C36	C	1.156519	0.359581	-0.468880
C37	C	1.164498	0.351586	-0.344217
C38	C	1.292815	0.223358	-0.344182
C39	C	1.284836	0.231353	-0.468846
C40	C	1.216687	0.299468	-0.531190
C41	C	1.208714	0.307469	-0.655856
C42	C	1.337025	0.179235	-0.655819
C43	C	1.345004	0.171240	-0.531156
N44	N	1.268884	0.247349	0.281826
H45	H	0.562444	0.462191	-0.000025
H46	H	1.386021	0.130290	-0.706566
N47	N	1.079403	-0.425484	-0.000004
H48	H	1.045184	-0.409813	0.073413
H49	H	1.084756	-0.503520	-0.000040
N50	N	0.941661	0.436775	-0.000021
H51	H	0.991627	0.441552	0.073396
H52	H	0.888416	0.490386	-0.000073
N53	N	1.004346	-0.258348	-0.000021
H54	H	0.999584	-0.308295	0.073397
H55	H	0.990222	-0.298832	-0.073486
H56	H	0.760876	0.485269	-0.000020
H57	H	0.573495	0.120630	-0.000114
H58	H	1.400487	0.115778	-0.480380
H59	H	1.348293	0.167892	-0.293405
H60	H	1.101036	0.415051	-0.519642
N61	N	0.954346	0.045444	-0.000030
H62	H	0.905034	-0.020149	-0.000032
H63	H	1.004583	0.041916	0.073389
H64	H	0.740628	0.045572	-0.000028
N65	N	1.422120	-0.043687	-0.000026
H66	H	1.475792	-0.096869	-0.000018
H67	H	1.436217	-0.003136	0.073392
N68	N	1.135206	0.380922	-0.723106
H69	H	1.176470	0.434568	-0.774809
H70	H	1.098312	0.417711	-0.664638
N71	N	1.497170	-0.210809	-0.000019
H72	H	1.550845	-0.263986	-0.000021
H73	H	1.511273	-0.170258	0.073398
H74	H	1.115501	0.400535	-0.293487
H75	H	1.447536	-0.422901	0.000010
H76	H	1.053990	-0.046252	-0.000034
