data_functionalizedCrystal
_audit_creation_method	'MofGen! by Chris Wilmer'
_symmetry_space_group_name_H-M	'P1'
_symmetry_Int_Tables_number	1
_symmetry_cell_setting	triclinic
loop_
_symmetry_equiv_pos_as_xyz
  x,y,z
_cell_length_a	34.408637
_cell_length_b	34.407814
_cell_length_c	34.404193
_cell_angle_alpha	60.004510
_cell_angle_beta	60.009006
_cell_angle_gamma	59.994604
loop_
_atom_site_label
_atom_site_type_symbol
_atom_site_fract_x
_atom_site_fract_y
_atom_site_fract_z
O1	O	0.053973	-0.567860	0.474801
O2	O	0.553973	-0.067860	0.974801
O3	O	0.020377	-0.442124	0.382567
O4	O	0.520377	0.057876	0.882567
O5	O	0.100004	-0.521670	0.382483
O6	O	0.600004	-0.021670	0.882483
O7	O	-0.025653	-0.488314	0.474886
O8	O	0.474347	0.011686	0.974886
O9	O	0.126426	-0.495253	0.408816
O10	O	0.626426	0.004747	0.908816
O11	O	0.046800	-0.415707	0.408900
O12	O	0.546800	0.084293	0.908900
O13	O	0.080396	-0.541443	0.501134
O14	O	0.580396	-0.041443	1.001134
Zn15	Zn	0.067793	-0.474381	0.459198
Zn16	Zn	0.567793	0.025619	0.959198
Zn17	Zn	0.032980	-0.509186	0.424503
Zn18	Zn	0.532980	-0.009186	0.924503
O19	O	0.000769	-0.461897	0.501219
O20	O	0.500769	0.038103	1.001219
N21	N	0.091552	-0.450631	0.482879
N22	N	0.591552	0.049369	0.982879
N23	N	0.009225	-0.532940	0.400823
N24	N	0.509225	-0.032940	0.900823
C25	C	0.142848	-0.268847	0.534081
C26	C	0.642848	0.231153	1.034081
C27	C	0.142979	-0.399386	0.664559
C28	C	0.642979	0.100614	1.164559
C29	C	0.142862	-0.399365	0.534081
C30	C	0.642862	0.100635	1.034081
C31	C	0.273409	-0.399338	0.533986
C32	C	0.773409	0.100662	1.033986
C33	C	0.157225	-0.311914	0.548422
C34	C	0.657225	0.188086	1.048422
C35	C	0.157300	-0.385019	0.621491
C36	C	0.657300	0.114981	1.121491
C37	C	0.230339	-0.384991	0.548370
C38	C	0.730339	0.115009	1.048370
C39	C	0.157235	-0.385007	0.548422
C40	C	0.657235	0.114993	1.048422
C41	C	0.124548	-0.214028	0.515827
C42	C	0.624548	0.285972	1.015827
C43	C	0.124571	-0.417639	0.515827
C44	C	0.624571	0.082361	1.015827
C45	C	0.175526	-0.366733	0.566676
C46	C	0.675526	0.133267	1.066676
C47	C	0.353121	-0.385580	0.491988
C48	C	0.853121	0.114420	0.991988
C49	C	0.402952	-0.402180	0.475348
C50	C	0.902952	0.097820	0.975348
C51	C	0.402981	-0.482812	0.506096
C52	C	0.902981	0.017188	1.006096
C53	C	0.353151	-0.466211	0.522737
C54	C	0.853151	0.033789	1.022737
C55	C	0.136544	-0.189099	0.466839
C56	C	0.636544	0.310901	0.966839
C57	C	0.119905	-0.139265	0.450247
C58	C	0.619905	0.360735	0.950247
C59	C	0.079280	-0.139291	0.531632
C60	C	0.579280	0.360709	1.031632
C61	C	0.095918	-0.189125	0.548224
C62	C	0.595918	0.310875	1.048224
C63	C	0.075577	-0.405615	0.527900
C64	C	0.575577	0.094385	1.027900
C65	C	0.058953	-0.422228	0.511301
C66	C	0.558953	0.077772	1.011301
C67	C	0.140315	-0.462889	0.470566
C68	C	0.640315	0.037111	0.970566
C69	C	0.156941	-0.446276	0.487159
C70	C	0.656941	0.053724	0.987159
C71	C	0.075772	-0.405653	0.744326
C72	C	0.575772	0.094347	1.244326
C73	C	0.059206	-0.422280	0.794159
C74	C	0.559206	0.077720	1.294159
C75	C	0.140607	-0.462951	0.794094
C76	C	0.640607	0.037049	1.294094
C77	C	0.157172	-0.446325	0.744260
C78	C	0.657172	0.053675	1.244260
C79	C	0.124753	-0.417674	0.719377
C80	C	0.624753	0.082326	1.219377
C81	C	0.328223	-0.417595	0.515681
C82	C	0.828223	0.082405	1.015681
C83	C	-0.172390	-0.583988	0.349141
C84	C	0.327610	-0.083988	0.849141
C85	C	-0.041751	-0.584138	0.218783
C86	C	0.458249	-0.084138	0.718783
C87	C	-0.041941	-0.584130	0.349402
C88	C	0.458059	-0.084130	0.849402
C89	C	-0.041957	-0.714607	0.349338
C90	C	0.458043	-0.214607	0.849338
C91	C	-0.129326	-0.598388	0.334853
C92	C	0.370674	-0.098388	0.834853
C93	C	-0.056165	-0.598473	0.261852
C94	C	0.443835	-0.098473	0.761852
C95	C	-0.056282	-0.671535	0.334962
C96	C	0.443718	-0.171535	0.834962
C97	C	-0.056272	-0.598469	0.334999
C98	C	0.443728	-0.098469	0.834999
C99	C	-0.227205	-0.565659	0.367327
C100	C	0.272795	-0.065659	0.867327
C101	C	-0.023703	-0.565882	0.367734
C102	C	0.476297	-0.065882	0.867734
C103	C	-0.074511	-0.616717	0.316667
C104	C	0.425489	-0.116717	0.816667
C105	C	-0.055754	-0.794298	0.391257
C106	C	0.444246	-0.294298	0.891257
C107	C	-0.039181	-0.844132	0.407888
C108	C	0.460819	-0.344132	0.907888
C109	C	0.041447	-0.844215	0.377269
C110	C	0.541447	-0.344215	0.877269
C111	C	0.024873	-0.794381	0.360637
C112	C	0.524873	-0.294381	0.860637
C113	C	-0.252183	-0.577666	0.416302
C114	C	0.247817	-0.077666	0.916302
C115	C	-0.302014	-0.561001	0.432833
C116	C	0.197986	-0.061001	0.932833
C117	C	-0.301886	-0.520329	0.351410
C118	C	0.198114	-0.020329	0.851410
C119	C	-0.252055	-0.536994	0.334880
C120	C	0.247945	-0.036994	0.834880
C121	C	-0.035709	-0.516892	0.355682
C122	C	0.464291	-0.016892	0.855682
C123	C	-0.019129	-0.500308	0.372353
C124	C	0.480871	-0.000308	0.872353
C125	C	0.021465	-0.581700	0.413115
C126	C	0.521465	-0.081700	0.913115
C127	C	0.004884	-0.598286	0.396450
C128	C	0.504884	-0.098286	0.896450
C129	C	-0.035389	-0.516907	0.139026
C130	C	0.464611	-0.016907	0.639026
C131	C	-0.018707	-0.500324	0.089193
C132	C	0.481293	-0.000324	0.589193
C133	C	0.021949	-0.581721	0.089240
C134	C	0.521949	-0.081721	0.589240
C135	C	0.005268	-0.598303	0.139074
C136	C	0.505268	-0.098303	0.639074
C137	C	-0.023402	-0.565894	0.163965
C138	C	0.476598	-0.065894	0.663965
C139	C	-0.023728	-0.769425	0.367633
C140	C	0.476272	-0.269425	0.867633
N141	N	0.427173	-0.450553	0.482630
N142	N	0.927173	0.049447	0.982630
O143	O	0.589997	-0.458460	0.365361
O144	O	1.089997	0.041540	0.865361
O145	O	0.590185	-0.550997	0.490963
O146	O	1.090185	-0.050997	0.990963
O147	O	0.590104	-0.550786	0.411309
O148	O	1.090104	-0.050786	0.911309
O149	O	0.590077	-0.458671	0.445016
O150	O	1.090077	0.041329	0.945016
O151	O	0.510940	-0.524462	0.437777
O152	O	1.010940	-0.024462	0.937777
O153	O	0.511020	-0.524674	0.517432
O154	O	1.011020	-0.024674	1.017432
O155	O	0.510832	-0.432136	0.391830
O156	O	1.010832	0.067864	0.891830
Zn157	Zn	0.498357	-0.474225	0.458833
Zn158	Zn	0.998357	0.025775	0.958833
Zn159	Zn	0.602660	-0.508908	0.423960
Zn160	Zn	1.102660	-0.008908	0.923960
O161	O	0.510913	-0.432348	0.471484
O162	O	1.010913	0.067652	0.971484
N163	N	0.673844	-0.532580	0.400158
N164	N	1.173844	-0.032580	0.900158
N165	N	0.091520	-0.115070	0.482873
N166	N	0.591520	0.384930	0.982873
O167	O	-0.025663	0.047841	0.474857
O168	O	0.474337	0.547841	0.974857
O169	O	0.099940	0.047877	0.382299
O170	O	0.599940	0.547877	0.882299
O171	O	0.020247	0.047844	0.382560
O172	O	0.520247	0.547844	0.882560
O173	O	0.054030	0.047874	0.474596
O174	O	0.554030	0.547874	0.974596
O175	O	0.046674	-0.031326	0.408942
O176	O	0.546674	0.468674	0.908942
O177	O	0.126367	-0.031293	0.408680
O178	O	0.626367	0.468707	0.908680
O179	O	0.000764	-0.031329	0.501238
O180	O	0.500764	0.468671	1.001238
Zn181	Zn	0.067761	-0.043881	0.459148
Zn182	Zn	0.567761	0.456119	0.959148
Zn183	Zn	0.032943	0.060429	0.424389
Zn184	Zn	0.532943	0.560429	0.924389
O185	O	0.080457	-0.031296	0.500977
O186	O	0.580457	0.468704	1.000977
N187	N	0.009178	0.131618	0.400665
N188	N	0.509178	0.631618	0.900665
N189	N	0.091852	-0.450680	0.818332
N190	N	0.591852	0.049320	1.318332
O191	O	0.083862	-0.567845	0.981235
O192	O	0.583862	-0.067845	1.481235
O193	O	-0.008657	-0.442198	0.981276
O194	O	0.491343	0.057802	1.481276
O195	O	-0.008441	-0.521875	0.981252
O196	O	0.491559	-0.021875	1.481252
O197	O	0.083646	-0.488168	0.981258
O198	O	0.583646	0.011832	1.481258
O199	O	0.017919	-0.495468	0.902085
O200	O	0.517919	0.004532	1.402085
O201	O	0.017703	-0.415791	0.902109
O202	O	0.517703	0.084209	1.402109
O203	O	0.110222	-0.541438	0.902067
O204	O	0.610222	-0.041438	1.402067
Zn205	Zn	0.068148	-0.474422	0.889518
Zn206	Zn	0.568148	0.025578	1.389518
Zn207	Zn	0.033417	-0.509214	0.993825
Zn208	Zn	0.533417	-0.009214	1.493825
O209	O	0.110006	-0.461761	0.902091
O210	O	0.610006	0.038239	1.402091
N211	N	0.009712	-0.532961	1.065011
N212	N	0.509712	-0.032961	1.565011
C213	C	0.030439	-0.413071	0.383027
C214	C	0.530439	0.086929	0.883027
C215	C	0.129046	-0.511580	0.382922
C216	C	0.629046	-0.011580	0.882922
C217	C	0.070334	-0.570496	0.500675
C218	C	0.570334	-0.070496	1.000675
C219	C	-0.028274	-0.471987	0.500780
C220	C	0.471726	0.028013	1.000780
C221	C	0.550625	-0.550579	0.520021
C222	C	1.050625	-0.050579	1.020021
C223	C	0.550527	-0.550317	0.421379
C224	C	1.050527	-0.050317	0.921379
C225	C	0.550389	-0.432554	0.362773
C226	C	1.050389	0.067446	0.862773
C227	C	0.550491	-0.432816	0.461414
C228	C	1.050491	0.067184	0.961414
C229	C	0.128944	0.008394	0.382712
C230	C	0.628944	0.508394	0.882712
C231	C	0.030287	0.008256	0.383068
C232	C	0.530287	0.508256	0.883068
C233	C	-0.028273	0.008252	0.500793
C234	C	0.471727	0.508252	1.000793
C235	C	0.070417	0.008292	0.500470
C236	C	0.570417	0.508292	1.000470
C237	C	-0.008218	-0.413165	0.941698
C238	C	0.491782	0.086835	1.441698
C239	C	-0.007945	-0.511830	0.941653
C240	C	0.492055	-0.011830	1.441653
C241	C	0.109783	-0.570471	0.941646
C242	C	0.609783	-0.070471	1.441646
C243	C	0.109516	-0.471800	0.941673
C244	C	0.609516	0.028200	1.441673
H245	H	0.019320	-0.412483	0.814467
H246	H	0.519320	0.087517	1.314467
C247	C	0.148602	-0.462056	0.941667
C248	C	0.648602	0.037944	1.441667
N249	N	0.178041	-0.454716	0.941662
N250	N	0.678041	0.045284	1.441662
H251	H	0.077653	0.008301	0.529384
H252	H	0.577653	0.508301	1.029384
C253	C	0.148996	-0.619249	0.941714
C254	C	0.648996	-0.119249	1.441714
N255	N	0.178521	-0.655999	0.941798
N256	N	0.678521	-0.155999	1.441798
H257	H	0.049370	-0.382321	0.724071
H258	H	0.549370	0.117679	1.224071
H259	H	-0.036863	-0.519031	0.941619
H260	H	0.463137	-0.019031	1.441619
C261	C	-0.066928	-0.481252	0.166401
C262	C	0.433072	0.018748	0.666401
N263	N	-0.090681	-0.454397	0.187021
N264	N	0.409319	0.045603	0.687021
C265	C	0.176271	-0.494459	0.821463
C266	C	0.676271	0.005541	1.321463
N267	N	0.203133	-0.518195	0.842078
N268	N	0.703133	-0.018195	1.342078
C269	C	0.550242	-0.393280	0.314065
C270	C	1.050242	0.106720	0.814065
N271	N	0.550107	-0.363692	0.277386
N272	N	1.050107	0.136308	0.777386
C273	C	0.020517	0.008235	0.344008
C274	C	0.520517	0.508235	0.844008
N275	N	0.013160	0.008215	0.314589
N276	N	0.513160	0.508215	0.814589
H277	H	0.550674	-0.579628	0.556096
H278	H	1.050674	-0.079628	1.056096
H279	H	-0.037264	-0.377079	0.941710
H280	H	0.462736	0.122921	1.441710
C281	C	0.550543	-0.589411	0.411635
C282	C	1.050543	-0.089411	0.911635
N283	N	0.550554	-0.618857	0.404297
N284	N	1.050554	-0.118857	0.904297
H285	H	0.164941	0.008624	0.353583
H286	H	0.664941	0.508624	0.853583
H287	H	0.197059	-0.456117	0.723950
H288	H	0.697059	0.043883	1.223950
C289	C	0.039967	-0.374107	0.559426
C290	C	0.539967	0.125893	1.059426
N291	N	0.013144	-0.350373	0.583170
N292	N	0.513144	0.149627	1.083170
H293	H	-0.028907	-0.460416	0.362542
H294	H	0.471093	0.039584	0.862542
C295	C	0.080030	-0.619292	0.539811
C296	C	0.580030	-0.119292	1.039811
N297	N	0.087334	-0.656046	0.569289
N298	N	0.587334	-0.156046	1.069289
C299	C	0.177803	-0.521181	0.343722
C300	C	0.677803	-0.021181	0.843722
N301	N	0.214527	-0.528412	0.314196
N302	N	0.714527	-0.028412	0.814196
C303	C	-0.077030	-0.462387	0.539979
C304	C	0.422970	0.037613	1.039979
N305	N	-0.113754	-0.455155	0.569505
N306	N	0.386246	0.044845	1.069505
H307	H	0.550485	-0.403881	0.468626
H308	H	1.050485	0.096119	0.968626
H309	H	-0.064344	0.008241	0.529850
H310	H	0.435656	0.508241	1.029850
H311	H	0.019058	-0.412426	0.521121
H312	H	0.519058	0.087574	1.021121
H313	H	0.166679	-0.486211	0.447227
H314	H	0.666679	0.013789	0.947227
H315	H	0.196836	-0.456064	0.477324
H316	H	0.696836	0.043936	0.977324
H317	H	0.332881	-0.492283	0.542031
H318	H	0.832881	0.007717	1.042031
H319	H	0.423275	-0.522397	0.511838
H320	H	0.923275	-0.022397	1.011838
H321	H	0.332825	-0.345993	0.486242
H322	H	0.832825	0.154007	0.986242
C323	C	0.430342	-0.366960	0.449282
C324	C	0.930342	0.133040	0.949282
N325	N	0.450973	-0.340432	0.429645
N326	N	0.950973	0.159568	0.929645
C327	C	-0.031905	-0.446433	0.061765
C328	C	0.468095	0.053567	0.561765
N329	N	-0.041846	-0.405842	0.041107
N330	N	0.458154	0.094158	0.541107
C331	C	0.168036	-0.216489	0.431198
C332	C	0.668036	0.283511	0.931198
N333	N	0.191756	-0.237120	0.404353
N334	N	0.691756	0.262880	0.904353
H335	H	0.055974	-0.119015	0.558014
H336	H	0.555974	0.380985	1.058014
C337	C	0.082722	-0.216543	0.602113
C338	C	0.582722	0.283457	1.102113
N339	N	0.072782	-0.237195	0.642704
N340	N	0.572782	0.262805	1.142704
C341	C	0.053477	-0.617374	0.061862
C342	C	0.553477	-0.117374	0.561862
N343	N	0.077227	-0.644228	0.041240
N344	N	0.577227	-0.144228	0.541240
C345	C	0.133099	-0.111842	0.396357
C346	C	0.633099	0.388158	0.896357
N347	N	0.143037	-0.091189	0.355766
N348	N	0.643037	0.408811	0.855766
H349	H	-0.058984	-0.490504	0.332300
H350	H	0.441016	0.009496	0.832300
C351	C	0.018456	-0.652195	0.166505
C352	C	0.518456	-0.152195	0.666505
N353	N	0.028388	-0.692786	0.187164
N354	N	0.528388	-0.192786	0.687164
H355	H	0.014660	-0.638178	0.406265
H356	H	0.514660	-0.138178	0.906265
C357	C	0.060106	-0.767024	0.334661
C358	C	0.560106	-0.267024	0.834661
N359	N	0.086645	-0.746420	0.315102
N360	N	0.586645	-0.246420	0.815102
C361	C	0.094910	-0.871666	0.369574
C362	C	0.594910	-0.371666	0.869574
N363	N	0.135179	-0.892343	0.363778
N364	N	0.635179	-0.392343	0.863778
C365	C	0.052922	-0.617351	0.444693
C366	C	0.552922	-0.117351	0.944693
N367	N	0.076616	-0.644202	0.468477
N368	N	0.576616	-0.144202	0.968477
H369	H	-0.095331	-0.773979	0.396956
H370	H	0.404669	-0.273979	0.896956
C371	C	-0.224852	-0.609195	0.451998
C372	C	0.275148	-0.109195	0.951998
N373	N	-0.204265	-0.632942	0.478884
N374	N	0.295735	-0.132942	0.978884
C375	C	-0.074414	-0.871495	0.433883
C376	C	0.425586	-0.371495	0.933883
N377	N	-0.100952	-0.892106	0.453467
N378	N	0.399048	-0.392106	0.953467
H379	H	-0.322118	-0.496994	0.324987
H380	H	0.177882	0.003006	0.824987
C381	C	-0.224583	-0.523784	0.281004
C382	C	0.275417	-0.023784	0.781004
N383	N	-0.203890	-0.513832	0.240423
N384	N	0.296110	-0.013832	0.740423
C385	C	-0.329491	-0.574208	0.486710
C386	C	0.170509	-0.074208	0.986710
N387	N	-0.350186	-0.584157	0.527291
N388	N	0.149814	-0.084157	1.027291
H389	H	0.023260	-0.376951	0.354059
H390	H	0.523260	0.123049	0.854059
