data_functionalizedCrystal
_audit_creation_method	'MofGen! by Chris Wilmer'
_symmetry_space_group_name_H-M	'P1'
_symmetry_Int_Tables_number	1
_symmetry_cell_setting	triclinic
loop_
_symmetry_equiv_pos_as_xyz
  x,y,z
_cell_length_a	13.897449
_cell_length_b	18.101397
_cell_length_c	13.897441
_cell_angle_alpha	90.034904
_cell_angle_beta	90.020733
_cell_angle_gamma	90.021745
loop_
_atom_site_label
_atom_site_type_symbol
_atom_site_fract_x
_atom_site_fract_y
_atom_site_fract_z
Zn1	Zn	1.474684	-0.294781	0.545352
Zn2	Zn	1.808017	0.038553	0.878686
Zn3	Zn	2.141351	0.371886	1.212019
Zn4	Zn	1.474570	-0.418636	0.384042
Zn5	Zn	1.807904	-0.085303	0.717375
Zn6	Zn	2.141237	0.248030	1.050708
Zn7	Zn	1.313373	-0.294816	0.384071
Zn8	Zn	1.646706	0.038517	0.717404
Zn9	Zn	1.980040	0.371851	1.050737
Zn10	Zn	1.313347	-0.418588	0.545294
Zn11	Zn	1.646680	-0.085254	0.878628
Zn12	Zn	1.980014	0.248079	1.211961
O13	O	1.393994	-0.356705	0.464690
O14	O	1.727327	-0.023372	0.798023
O15	O	2.060660	0.309962	1.131356
O16	O	1.609651	-0.311216	0.523966
O17	O	1.942984	0.022117	0.857300
O18	O	2.276317	0.355451	1.190633
O19	O	1.453150	-0.402246	0.249064
O20	O	1.786484	-0.068913	0.582397
O21	O	2.119817	0.264420	0.915730
O22	O	1.334830	-0.191178	0.405502
O23	O	1.668163	0.142155	0.738835
O24	O	2.001497	0.475488	1.072168
O25	O	1.609567	-0.402212	0.405452
O26	O	1.942900	-0.068879	0.738785
O27	O	2.276234	0.264454	1.072119
O28	O	1.453344	-0.191152	0.523994
O29	O	1.786678	0.142181	0.857328
O30	O	2.120011	0.475514	1.190661
O31	O	1.334720	-0.311276	0.249085
O32	O	1.668053	0.022057	0.582418
O33	O	2.001386	0.355391	0.915752
O34	O	1.178388	-0.311229	0.405445
O35	O	1.511721	0.022104	0.738779
O36	O	1.845055	0.355438	1.072112
O37	O	1.334785	-0.402129	0.680284
O38	O	1.668119	-0.068796	1.013617
O39	O	2.001452	0.264537	1.346950
O40	O	1.178369	-0.402163	0.523895
O41	O	1.511702	-0.068830	0.857229
O42	O	1.845036	0.264503	1.190562
O43	O	1.453319	-0.311169	0.680326
O44	O	1.786652	0.022165	1.013660
O45	O	2.119986	0.355498	1.346993
O46	O	1.453125	-0.522263	0.405396
O47	O	1.786458	-0.188929	0.738729
O48	O	2.119792	0.144404	1.072062
O49	O	1.334675	-0.522227	0.523867
O50	O	1.668008	-0.188894	0.857201
O51	O	2.001342	0.144440	1.190534
C52	C	1.143379	-0.356695	0.464668
C53	C	1.476713	-0.023362	0.798001
C54	C	1.810046	0.309971	1.131334
C55	C	1.036165	-0.356709	0.464681
C56	C	1.369499	-0.023376	0.798015
C57	C	1.702832	0.309958	1.131348
C58	C	0.839870	-0.356711	0.464706
C59	C	1.173204	-0.023378	0.798040
C60	C	1.506537	0.309955	1.131373
C61	C	0.949103	-0.356708	0.464690
C62	C	1.282436	-0.023374	0.798023
C63	C	1.615769	0.309959	1.131356
C64	C	1.393911	-0.549116	0.464643
C65	C	1.727244	-0.215782	0.797976
C66	C	2.060578	0.117551	1.131310
C67	C	1.393964	-0.631430	0.464655
C68	C	1.727297	-0.298096	0.797989
C69	C	2.060631	0.035237	1.131322
C70	C	1.394087	-0.930521	0.464743
C71	C	1.727420	-0.597187	0.798077
C72	C	2.060754	-0.263854	1.131410
C73	C	1.468405	-0.899187	0.390004
C74	C	1.801738	-0.565854	0.723338
C75	C	2.135071	-0.232521	1.056671
C76	C	1.468662	-0.813569	0.390198
C77	C	1.801996	-0.480235	0.723531
C78	C	2.135329	-0.146902	1.056865
C79	C	1.394026	-0.782138	0.464699
C80	C	1.727359	-0.448805	0.798032
C81	C	2.060693	-0.115472	1.131365
C82	C	1.421587	-0.813139	0.566372
C83	C	1.754920	-0.479806	0.899705
C84	C	2.088253	-0.146472	1.233039
C85	C	1.422162	-0.898784	0.565965
C86	C	1.755495	-0.565451	0.899298
C87	C	2.088829	-0.232117	1.232632
C88	C	1.292011	-0.899033	0.438689
C89	C	1.625344	-0.565700	0.772022
C90	C	1.958677	-0.232366	1.105355
C91	C	1.292515	-0.813384	0.436419
C92	C	1.625848	-0.480050	0.769752
C93	C	1.959181	-0.146717	1.103086
C94	C	1.393990	-0.698279	0.464680
C95	C	1.727323	-0.364945	0.798013
C96	C	2.060657	-0.031612	1.131346
C97	C	1.394126	-1.014380	0.464769
C98	C	1.727459	-0.681047	0.798102
C99	C	2.060792	-0.347713	1.131436
C100	C	1.645587	-0.356716	0.464712
C101	C	1.978920	-0.023382	0.798046
C102	C	2.312253	0.309951	1.131379
C103	C	1.752800	-0.356720	0.464722
C104	C	2.086134	-0.023387	0.798055
C105	C	2.419467	0.309947	1.131389
C106	C	1.394062	-0.356640	0.716283
C107	C	1.727395	-0.023306	1.049616
C108	C	2.060729	0.310027	1.382949
C109	C	1.394091	-0.356612	0.823497
C110	C	1.727425	-0.023278	1.156830
C111	C	2.060758	0.310055	1.490163
C112	C	1.394103	-0.163543	0.464758
C113	C	1.727436	0.169790	0.798091
C114	C	2.060769	0.503123	1.131424
C115	C	1.394149	-0.081229	0.464787
C116	C	1.727483	0.252104	0.798120
C117	C	2.060816	0.585438	1.131453
C118	C	1.393981	-0.356717	0.214075
C119	C	1.727314	-0.023384	0.547409
C120	C	2.060648	0.309950	0.880742
C121	C	1.394139	-0.356536	0.106862
C122	C	1.727472	-0.023203	0.440195
C123	C	2.060805	0.310130	0.773529
C124	C	1.394117	-0.356562	1.019792
C125	C	1.727451	-0.023228	1.353125
C126	C	2.060784	0.310105	1.686459
C127	C	1.394100	-0.356592	0.910560
C128	C	1.727433	-0.023258	1.243893
C129	C	2.060767	0.310075	1.577226
H130	H	1.451419	-0.792612	0.314809
H131	H	1.784752	-0.459278	0.648142
H132	H	2.118086	-0.125945	0.981475
H133	H	1.234164	-0.791996	0.486869
H134	H	1.567497	-0.458663	0.820202
H135	H	1.900830	-0.125330	1.153535
C136	C	1.445401	-0.927089	0.287850
C137	C	1.778734	-0.593755	0.621184
C138	C	2.112068	-0.260422	0.954517
N139	N	1.428072	-0.948108	0.210905
N140	N	1.761405	-0.614775	0.544238
N141	N	2.094738	-0.281441	0.877572
H142	H	1.543604	-0.920653	0.407045
H143	H	1.876937	-0.587320	0.740378
H144	H	2.210271	-0.253986	1.073712
C145	C	1.217204	-0.926412	0.512224
C146	C	1.550537	-0.593078	0.845558
C147	C	1.883871	-0.259745	1.178891
N148	N	1.160867	-0.947037	0.567614
N149	N	1.494200	-0.613704	0.900948
N150	N	1.827534	-0.280371	1.234281
H151	H	1.544275	-0.793023	0.407437
H152	H	1.877608	-0.459690	0.740770
H153	H	2.210941	-0.126356	1.074103
H154	H	1.496775	-0.918700	0.588035
H155	H	1.830109	-0.585367	0.921369
H156	H	2.163442	-0.252034	1.254702
H157	H	1.370404	-0.919508	0.623570
H158	H	1.703737	-0.586175	0.956903
H159	H	2.037070	-0.252842	1.290237
H160	H	1.369113	-0.792777	0.623556
H161	H	1.702446	-0.459444	0.956889
H162	H	2.035779	-0.126111	1.290222
H163	H	1.266939	-0.920698	0.365834
H164	H	1.600272	-0.587365	0.699168
H165	H	1.933605	-0.254031	1.032501
H166	H	1.271733	-0.793130	0.361596
H167	H	1.605067	-0.459796	0.694929
H168	H	1.938400	-0.126463	1.028262
H169	H	1.495365	-0.791629	0.588815
H170	H	1.828698	-0.458296	0.922149
H171	H	2.162031	-0.124962	1.255482
