data_functionalizedCrystal
_audit_creation_method	'MofGen! by Chris Wilmer'
_symmetry_space_group_name_H-M	'P1'
_symmetry_Int_Tables_number	1
_symmetry_cell_setting	triclinic
loop_
_symmetry_equiv_pos_as_xyz
  x,y,z
_cell_length_a	18.101395
_cell_length_b	11.169417
_cell_length_c	11.169409
_cell_angle_alpha	90.019824
_cell_angle_beta	89.964326
_cell_angle_gamma	89.968017
loop_
_atom_site_label
_atom_site_type_symbol
_atom_site_fract_x
_atom_site_fract_y
_atom_site_fract_z
Zn1	Zn	-0.294752	-1.834789	-0.678515
Zn2	Zn	-0.418619	-1.834606	-0.477820
Zn3	Zn	-0.294797	-1.634075	-0.477849
Zn4	Zn	-0.418558	-1.634010	-0.678465
O5	O	-0.356682	-1.734370	-0.578162
O6	O	-0.311190	-2.002715	-0.651901
O7	O	-0.402238	-1.807956	-0.309874
O8	O	-0.191159	-1.660804	-0.504501
O9	O	-0.402194	-2.002580	-0.504451
O10	O	-0.191125	-1.808268	-0.651929
O11	O	-0.311267	-1.660626	-0.309896
O12	O	-0.311208	-1.466117	-0.504453
O13	O	-0.402091	-1.660693	-0.846421
O14	O	-0.402135	-1.466069	-0.651844
O15	O	-0.311131	-1.808205	-0.846458
O16	O	-0.522244	-1.807892	-0.504403
O17	O	-0.522199	-1.660515	-0.651816
C18	C	-0.356670	-1.422545	-0.578147
C19	C	-0.356684	-1.289145	-0.578169
C20	C	-0.549092	-1.734209	-0.578127
C21	C	-0.631406	-1.734250	-0.578152
C22	C	-0.356599	-1.734462	-0.891205
C23	C	-0.356564	-1.734501	-1.024605
C24	C	-0.930497	-1.734514	-0.578217
C25	C	-0.899175	-1.642003	-0.671195
C26	C	-0.813557	-1.641564	-0.670904
C27	C	-0.782115	-1.734383	-0.578186
C28	C	-0.813278	-1.700132	-0.451699
C29	C	-0.898923	-1.699535	-0.452255
C30	C	-0.898837	-1.861478	-0.610612
C31	C	-0.813186	-1.860732	-0.613386
C32	C	-0.698255	-1.734311	-0.578160
C33	C	-1.014357	-1.734583	-0.578234
C34	C	-0.163520	-1.734564	-0.578224
C35	C	-0.081206	-1.734647	-0.578250
C36	C	-0.356694	-2.047412	-0.578178
C37	C	-0.356699	-2.180812	-0.578185
C38	C	-0.356710	-1.734347	-0.266338
C39	C	-0.356537	-1.734541	-0.132938
H40	H	-0.792484	-1.662994	-0.764693
O41	O	-0.925756	-1.952690	-0.520894
H42	H	-0.877663	-1.994134	-0.475280
H43	H	-0.792814	-1.886561	-0.706473
H44	H	-0.919714	-1.663221	-0.765288
O45	O	-0.927769	-1.518100	-0.643133
H46	H	-0.905331	-1.453501	-0.709293
H47	H	-0.793137	-1.547455	-0.649447
O48	O	-0.926369	-1.784913	-0.357359
H49	H	-0.960360	-1.855801	-0.399906
O50	O	-0.927361	-1.902842	-0.730707
H51	H	-0.880099	-1.917814	-0.792288
H52	H	-0.791778	-1.933304	-0.550600
O53	O	-0.925489	-1.576602	-0.415908
H54	H	-0.904301	-1.509226	-0.480356
O55	O	-0.786305	-1.786562	-0.357419
H56	H	-0.750313	-1.855008	-0.399815
O57	O	-0.784964	-1.578491	-0.414696
H58	H	-0.753038	-1.586974	-0.330311
