data_functionalizedCrystal
_audit_creation_method	'MofGen! by Chris Wilmer'
_symmetry_space_group_name_H-M	'P1'
_symmetry_Int_Tables_number	1
_symmetry_cell_setting	triclinic
loop_
_symmetry_equiv_pos_as_xyz
  x,y,z
_cell_length_a	14.853566
_cell_length_b	15.944493
_cell_length_c	13.930277
_cell_angle_alpha	90.001318
_cell_angle_beta	89.995631
_cell_angle_gamma	83.554729
loop_
_atom_site_label
_atom_site_type_symbol
_atom_site_fract_x
_atom_site_fract_y
_atom_site_fract_z
O1	O	1.196204	0.109662	-0.079755
O2	O	0.933724	0.122728	-0.079769
O3	O	1.072159	-0.006075	-0.079769
O4	O	1.057769	0.238465	-0.079754
O5	O	1.072140	-0.006078	0.079893
O6	O	0.933705	0.122725	0.079893
O7	O	1.196185	0.109660	0.079907
Zn8	Zn	1.064942	0.116192	0.105250
Zn9	Zn	1.064967	0.116195	-0.105111
O10	O	1.057750	0.238462	0.079908
C11	C	0.900127	0.122134	0.000060
C12	C	0.800046	0.120361	0.000054
C13	C	0.376883	0.112861	-0.086961
C14	C	0.376883	0.112859	0.087108
C15	C	0.470915	0.114524	0.087105
C16	C	0.517935	0.115360	0.000068
C17	C	0.470923	0.114529	-0.086967
C18	C	0.517932	0.115363	0.174138
C19	C	0.611970	0.117029	0.174139
C20	C	0.658992	0.117859	0.087100
C21	C	0.611974	0.117028	0.000062
C22	C	0.658994	0.117863	-0.086975
C23	C	0.611979	0.117026	-0.174015
C24	C	0.517945	0.115359	-0.174006
C25	C	0.753026	0.119526	0.087091
C26	C	0.753034	0.119531	-0.086981
C27	C	1.071561	-0.037372	0.000057
C28	C	1.069798	-0.130623	0.000045
C29	C	1.151284	-0.366292	0.000068
C30	C	1.107351	-0.416907	-0.078656
C31	C	1.066531	-0.301347	0.000057
C32	C	1.107312	-0.416886	0.078758
C33	C	1.063381	-0.466260	0.000072
C34	C	1.022621	-0.350734	-0.078732
C35	C	1.022595	-0.350710	0.078753
C36	C	0.978600	-0.401293	0.000010
C37	C	1.068348	-0.206345	0.000047
C38	C	1.061558	-0.561260	0.000075
C39	C	1.229782	0.110253	0.000076
C40	C	1.329863	0.112026	0.000076
C41	C	1.058348	0.269759	0.000079
C42	C	1.060111	0.363010	0.000085
N43	N	1.064931	0.116189	0.248816
N44	N	1.064985	0.116192	-0.248678
C45	C	1.003666	0.173207	0.701085
C46	C	1.126293	0.059177	0.701054
C47	C	1.126283	0.059175	0.600559
C48	C	1.064964	0.116190	0.550322
C49	C	1.003655	0.173208	0.600580
C50	C	1.187596	0.002164	0.550293
C51	C	1.187588	0.002159	0.449791
C52	C	1.126264	0.059171	0.399552
C53	C	1.064953	0.116191	0.449817
C54	C	1.003634	0.173206	0.399580
C55	C	0.942317	0.230222	0.449843
C56	C	0.942331	0.230219	0.550342
C57	C	1.126250	0.059174	0.299053
C58	C	1.003623	0.173207	0.299075
H59	H	0.791311	0.120208	-0.157858
F60	F	0.662031	0.117920	-0.266643
H61	H	0.986825	-0.321790	0.145307
H62	H	0.791300	0.120216	0.157957
F63	F	0.467906	0.114442	-0.266630
H64	H	0.892410	0.276641	0.591272
F65	F	1.154143	-0.454691	-0.165643
F66	F	0.938408	0.233882	0.754577
F67	F	1.154106	-0.454649	0.165746
F68	F	0.467885	0.114483	0.266763
H69	H	0.650242	0.117709	0.245012
H70	H	0.892394	0.276648	0.408928
F71	F	0.326850	0.111951	-0.179590
H72	H	1.224288	-0.350583	-0.000007
F73	F	0.975877	-0.313119	-0.165819
H74	H	0.953686	0.219632	0.258178
F75	F	0.883105	-0.421616	-0.000048
F76	F	1.191556	-0.001494	0.754520
F77	F	1.252858	-0.058508	0.603758
H78	H	1.237514	-0.044266	0.408873
H79	H	0.338593	0.112185	0.157970
F80	F	1.191508	-0.001498	0.245566
