data_functionalizedCrystal
_audit_creation_method	'MofGen! by Chris Wilmer'
_symmetry_space_group_name_H-M	'P1'
_symmetry_Int_Tables_number	1
_symmetry_cell_setting	triclinic
loop_
_symmetry_equiv_pos_as_xyz
  x,y,z
_cell_length_a	14.908520
_cell_length_b	14.908618
_cell_length_c	14.908308
_cell_angle_alpha	89.826377
_cell_angle_beta	96.360765
_cell_angle_gamma	89.795563
loop_
_atom_site_label
_atom_site_type_symbol
_atom_site_fract_x
_atom_site_fract_y
_atom_site_fract_z
Zn1	Zn	-0.470652	-1.316646	-0.613103
Zn2	Zn	0.029348	-0.816646	-0.113103
Zn3	Zn	-0.613291	-1.316544	-0.470467
Zn4	Zn	-0.113291	-0.816544	0.029533
Zn5	Zn	-0.453326	-1.176016	-0.453158
Zn6	Zn	0.046674	-0.676016	0.046842
Zn7	Zn	-0.612215	-1.157638	-0.612056
Zn8	Zn	-0.112215	-0.657638	-0.112056
O9	O	-0.537371	-1.241711	-0.537196
O10	O	-0.037371	-0.741711	-0.037196
O11	O	-0.497274	-1.441990	-0.601863
O12	O	0.002726	-0.941990	-0.101863
O13	O	-0.585271	-1.305552	-0.341978
O14	O	-0.085271	-0.805552	0.158022
O15	O	-0.329434	-1.202405	-0.467570
O16	O	0.170566	-0.702405	0.032430
O17	O	-0.602070	-1.441915	-0.497069
O18	O	-0.102070	-0.941915	0.002931
O19	O	-0.342163	-1.305725	-0.585080
O20	O	0.157837	-0.805725	-0.085080
O21	O	-0.467746	-1.202306	-0.329262
O22	O	0.032254	-0.702306	0.170738
O23	O	-0.466702	-1.048221	-0.466555
O24	O	0.033298	-0.548221	0.033445
O25	O	-0.600236	-1.171082	-0.738387
O26	O	-0.100236	-0.671082	-0.238387
O27	O	-0.583437	-1.034719	-0.583296
O28	O	-0.083437	-0.534719	-0.083296
O29	O	-0.496231	-1.287905	-0.739156
O30	O	0.003769	-0.787905	-0.239156
O31	O	-0.739338	-1.287731	-0.496054
O32	O	-0.239338	-0.787731	0.003946
O33	O	-0.738548	-1.170983	-0.600079
O34	O	-0.238548	-0.670983	-0.100079
C35	C	-0.523073	-1.008966	-0.522934
C36	C	-0.023073	-0.508966	-0.022934
C37	C	-0.516980	-0.909394	-0.516856
C38	C	-0.016980	-0.409394	-0.016856
C39	C	-0.771665	-1.227375	-0.549852
C40	C	-0.271665	-0.727375	-0.049852
C41	C	-0.871904	-1.221322	-0.555302
C42	C	-0.371904	-0.721322	-0.055302
C43	C	-0.627255	-0.708275	-0.626851
C44	C	-0.127255	-0.208275	-0.126851
C45	C	-0.621533	-0.614718	-0.621143
C46	C	-0.121533	-0.114718	-0.121143
C47	C	-0.499808	-0.628721	-0.499737
C48	C	0.000192	-0.128721	0.000263
C49	C	-0.505531	-0.722278	-0.505445
C50	C	-0.005531	-0.222278	-0.005445
C51	C	-0.569257	-0.762052	-0.569003
C52	C	-0.069257	-0.262052	-0.069003
C53	C	-0.574984	-0.855610	-0.574706
C54	C	-0.074984	-0.355610	-0.074706
C55	C	-0.453255	-0.869612	-0.453305
C56	C	0.046745	-0.369612	0.046695
C57	C	-0.447533	-0.776055	-0.447597
C58	C	0.052467	-0.276055	0.052403
C59	C	-1.061038	-1.331630	-0.457322
C60	C	-0.561038	-0.831630	0.042678
C61	C	-1.155221	-1.325946	-0.462440
C62	C	-0.655221	-0.825946	0.037560
C63	C	-1.154456	-1.204275	-0.570660
C64	C	-0.654456	-0.704275	-0.070660
C65	C	-1.060273	-1.209959	-0.565542
C66	C	-0.560273	-0.709959	-0.065542
C67	C	-1.013567	-1.273638	-0.508870
C68	C	-0.513567	-0.773638	-0.008870
C69	C	-0.919381	-1.279317	-0.503748
C70	C	-0.419381	-0.779317	-0.003748
C71	C	-0.918619	-1.157651	-0.611973
C72	C	-0.418619	-0.657651	-0.111973
C73	C	-1.012802	-1.151967	-0.617090
C74	C	-0.512802	-0.651967	-0.117090
C75	C	-0.302164	-1.256126	-0.524511
C76	C	0.197836	-0.756126	-0.024511
C77	C	-0.201933	-1.262269	-0.519106
C78	C	0.298067	-0.762269	-0.019106
C79	C	-0.550046	-1.227455	-0.772407
C80	C	-0.050046	-0.727455	-0.272407
C81	C	-0.555448	-1.221379	-0.872640
C82	C	-0.055448	-0.721379	-0.372640
C83	C	-0.551718	-0.475366	-0.551507
C84	C	-0.051718	0.024634	-0.051507
C85	C	-0.557812	-0.574937	-0.557587
C86	C	-0.057812	-0.074937	-0.057587
C87	C	-0.457275	-1.331609	-1.061790
C88	C	0.042725	-0.831609	-0.561790
C89	C	-0.462347	-1.325904	-1.155968
C90	C	0.037653	-0.825904	-0.655968
C91	C	-0.570659	-1.204260	-1.155175
C92	C	-0.070659	-0.704260	-0.655175
C93	C	-0.565587	-1.209965	-1.060997
C94	C	-0.065587	-0.709965	-0.560997
C95	C	-0.508894	-1.273643	-1.014308
C96	C	-0.008894	-0.773643	-0.514308
C97	C	-0.503827	-1.279352	-0.920129
C98	C	-0.003827	-0.779352	-0.420129
C99	C	-0.612133	-1.157704	-0.919337
C100	C	-0.112133	-0.657704	-0.419337
C101	C	-0.617205	-1.151999	-1.013515
C102	C	-0.117205	-0.651999	-0.513515
C103	C	-0.524683	-1.255968	-0.302899
C104	C	-0.024683	-0.755968	0.197101
C105	C	-0.519038	-1.262232	-0.202664
C106	C	-0.019038	-0.762232	0.297336
H107	H	-0.626874	-0.887992	-0.626457
H108	H	-0.126874	-0.387992	-0.126457
O109	O	-0.390710	-0.927627	-0.390904
O110	O	0.109290	-0.427627	0.109096
H111	H	-0.401173	-0.913007	-0.319842
H112	H	0.098827	-0.413007	0.180158
O113	O	-0.695984	-0.751184	-0.695397
O114	O	-0.195984	-0.251184	-0.195397
H115	H	-0.735351	-0.698070	-0.734667
H116	H	-0.235351	-0.198070	-0.234667
H117	H	-0.420312	-1.373104	-1.194624
H118	H	0.079688	-0.873104	-0.694624
H119	H	-0.668759	-0.570936	-0.668250
H120	H	-0.168759	-0.070936	-0.168250
H121	H	-0.879957	-1.110427	-0.653944
H122	H	-0.379957	-0.610427	-0.153944
O123	O	-0.378816	-0.733136	-0.379046
O124	O	0.121184	-0.233136	0.120954
H125	H	-0.309995	-0.754457	-0.391888
H126	H	0.190005	-0.254457	0.108112
O127	O	-0.631787	-1.135569	-1.205536
O128	O	-0.131787	-0.635569	-0.705536
H129	H	-0.626635	-1.141341	-1.279000
H130	H	-0.126635	-0.641341	-0.779000
O131	O	-0.678344	-1.083315	-1.063875
O132	O	-0.178344	-0.583315	-0.563875
H133	H	-0.728998	-1.117998	-1.111713
H134	H	-0.228998	-0.617998	-0.611713
O135	O	-0.667776	-1.095163	-0.868101
O136	O	-0.167776	-0.595163	-0.368101
H137	H	-0.648947	-1.024716	-0.881043
H138	H	-0.148947	-0.524716	-0.381043
H139	H	-0.411119	-1.383462	-1.023775
H140	H	0.088881	-0.883462	-0.523775
H141	H	-1.050843	-1.100124	-0.663233
H142	H	-0.550843	-0.600124	-0.163233
H143	H	-0.457666	-1.331203	-0.882116
H144	H	0.042334	-0.831203	-0.382116
H145	H	-0.447920	-0.596321	-0.447996
H146	H	0.052080	-0.096321	0.052004
O147	O	-0.869000	-1.348000	-0.442633
O148	O	-0.369000	-0.848000	0.057367
H149	H	-0.917837	-1.387378	-0.407658
H150	H	-0.417837	-0.887378	0.092342
O151	O	-1.206412	-1.388506	-0.406841
O152	O	-0.706412	-0.888506	0.093159
H153	H	-1.254227	-1.429018	-0.452368
H154	H	-0.754227	-0.929018	0.047632
O155	O	-1.204836	-1.135587	-0.631770
O156	O	-0.704836	-0.635587	-0.131770
H157	H	-1.278302	-1.141375	-0.626659
H158	H	-0.778302	-0.641375	-0.126659
H159	H	-1.023008	-1.383474	-0.411171
H160	H	-0.523008	-0.883474	0.088829
