data_functionalizedCrystal
_audit_creation_method	'MofGen! by Chris Wilmer'
_symmetry_space_group_name_H-M	'P1'
_symmetry_Int_Tables_number	1
_symmetry_cell_setting	triclinic
loop_
_symmetry_equiv_pos_as_xyz
  x,y,z
_cell_length_a	14.971482
_cell_length_b	11.792254
_cell_length_c	13.448316
_cell_angle_alpha	89.993237
_cell_angle_beta	89.993798
_cell_angle_gamma	83.905603
loop_
_atom_site_label
_atom_site_type_symbol
_atom_site_fract_x
_atom_site_fract_y
_atom_site_fract_z
O1	O	1.187547	0.147888	-0.082679
O2	O	0.927218	0.165605	-0.082684
O3	O	1.063694	-0.008464	-0.082675
O4	O	1.051071	0.321957	-0.082689
O5	O	1.063677	-0.008474	0.082709
O6	O	0.927201	0.165594	0.082700
O7	O	1.187530	0.147878	0.082704
Cu8	Cu	1.057364	0.156735	0.097803
Cu9	Cu	1.057384	0.156748	-0.097783
O10	O	1.051054	0.321946	0.082695
C11	C	0.893882	0.164808	0.000007
C12	C	0.794575	0.162436	0.000005
C13	C	0.747916	0.161313	0.090157
C14	C	0.654609	0.159066	0.090158
C15	C	0.607961	0.157950	0.000007
C16	C	0.654626	0.159070	-0.090152
C17	C	0.747933	0.161309	-0.090152
C18	C	0.460145	0.154407	-0.090146
C19	C	0.366832	0.152170	-0.090146
C20	C	0.366821	0.152164	0.090165
C21	C	0.460128	0.154402	0.090165
C22	C	0.506787	0.155524	0.000006
C23	C	1.062891	-0.050755	0.000017
C24	C	1.060510	-0.176752	0.000016
C25	C	1.058577	-0.279076	0.000012
C26	C	1.056159	-0.407447	0.000003
C27	C	1.220867	0.148675	0.000011
C28	C	1.320173	0.151047	0.000006
C29	C	1.051858	0.364237	0.000001
C30	C	1.054238	0.490235	-0.000005
N31	N	1.057356	0.156725	0.235367
N32	N	1.057399	0.156748	-0.235347
C33	C	1.117807	0.079679	0.287412
C34	C	1.117812	0.079679	0.391515
C35	C	1.057371	0.156730	0.443572
C36	C	0.996914	0.233779	0.391520
C37	C	0.996905	0.233774	0.287418
C38	C	0.996939	0.233787	0.608500
C39	C	0.996949	0.233794	0.712608
C40	C	1.117846	0.079692	0.712596
C41	C	1.117837	0.079686	0.608495
C42	C	1.057381	0.156738	0.556450
H43	H	0.498132	0.155320	-0.163563
F44	F	0.317188	0.150981	-0.186095
H45	H	0.947730	0.296536	0.754988
H46	H	0.947706	0.296527	0.566128
F47	F	0.604981	0.157848	-0.186099
F48	F	0.797590	0.162500	-0.186104
F49	F	1.182142	-0.002325	0.232019
H50	H	1.167035	0.016941	0.433889
H51	H	0.498106	0.155318	0.163574
F52	F	0.932562	0.315774	0.232030
H53	H	1.167057	0.016951	0.566111
H54	H	0.785889	0.162231	0.163569
H55	H	0.328827	0.151251	0.163576
H56	H	1.167071	0.016954	0.754977
F57	F	0.604954	0.157886	0.186110
F58	F	0.932582	0.315779	0.446923
