data_functionalizedCrystal
_audit_creation_method	'MofGen! by Chris Wilmer'
_symmetry_space_group_name_H-M	'P1'
_symmetry_Int_Tables_number	1
_symmetry_cell_setting	triclinic
loop_
_symmetry_equiv_pos_as_xyz
  x,y,z
_cell_length_a	15.995350
_cell_length_b	14.971486
_cell_length_c	13.448316
_cell_angle_alpha	89.996136
_cell_angle_beta	89.998570
_cell_angle_gamma	83.553252
loop_
_atom_site_label
_atom_site_type_symbol
_atom_site_fract_x
_atom_site_fract_y
_atom_site_fract_z
O1	O	-1.111102	-0.115292	0.082608
O2	O	-0.867341	-0.129529	0.082629
O3	O	-0.995755	0.007797	0.082611
O4	O	-0.982688	-0.252618	0.082626
O5	O	-0.995742	0.007798	-0.082773
O6	O	-0.867328	-0.129528	-0.082755
O7	O	-1.111089	-0.115291	-0.082776
Cu8	Cu	-0.989207	-0.122409	-0.097866
Cu9	Cu	-0.989222	-0.122411	0.097719
O10	O	-0.982675	-0.252617	-0.082758
C11	C	-0.836139	-0.128940	-0.000061
C12	C	-0.743187	-0.127175	-0.000053
C13	C	-0.995164	0.041122	-0.000081
C14	C	-0.993413	0.140417	-0.000080
C15	C	-1.142291	-0.115880	-0.000084
C16	C	-1.235243	-0.117645	-0.000085
C17	C	-0.405433	-0.120838	-0.000074
C18	C	-0.452769	-0.023037	-0.000449
C19	C	-0.549461	-0.024802	-0.000069
C20	C	-0.572997	-0.123982	-0.000064
C21	C	-0.531965	-0.172221	0.094377
C22	C	-0.435327	-0.169764	0.094449
C23	C	-0.434976	-0.171784	-0.093623
C24	C	-0.531921	-0.171760	-0.094865
C25	C	-0.667696	-0.125763	-0.000055
C26	C	-0.310733	-0.119060	-0.000076
C27	C	-0.983266	-0.285942	-0.000064
C28	C	-0.985017	-0.385237	-0.000059
N29	N	-0.989203	-0.122408	-0.235431
C30	C	-1.068852	0.197728	-0.000087
C31	C	-1.067202	0.291026	-0.000077
C32	C	-0.990111	0.327010	-0.000067
C33	C	-0.914666	0.269691	-0.000057
C34	C	-0.916317	0.176395	-0.000060
C35	C	-0.911229	0.464150	-0.000053
C36	C	-0.909577	0.557452	-0.000052
C37	C	-1.062114	0.578780	-0.000070
C38	C	-1.063766	0.485484	-0.000073
C39	C	-0.988320	0.428172	-0.000065
C40	C	-1.040035	-0.176691	-0.287468
C41	C	-1.040046	-0.176687	-0.391571
C42	C	-0.989219	-0.122404	-0.443635
C43	C	-0.938384	-0.068115	-0.391591
C44	C	-0.938379	-0.068115	-0.287489
C45	C	-0.938397	-0.068121	-0.608571
C46	C	-0.938401	-0.068122	-0.712679
C47	C	-1.040064	-0.176693	-0.712652
C48	C	-1.040059	-0.176693	-0.608551
C49	C	-0.989223	-0.122405	-0.556514
N50	N	-0.989234	-0.122405	0.235283
H51	H	-0.434203	0.016057	-0.068177
C52	C	-0.570248	-0.126959	0.189324
H53	H	-0.611225	-0.078671	0.171613
H54	H	-0.596028	-0.169679	0.227537
H55	H	-0.527103	-0.104583	0.227389
H56	H	-0.854886	0.129732	-0.000054
H57	H	-1.131629	0.168438	-0.000101
C58	C	-1.095967	-0.236403	-0.551282
H59	H	-1.126249	-0.268729	-0.597181
H60	H	-1.061693	-0.277544	-0.510670
H61	H	-1.134465	-0.199764	-0.510673
H62	H	-1.126540	0.456189	-0.000088
H63	H	-0.414403	-0.139810	-0.165207
C64	C	-1.095950	-0.236398	-0.230206
H65	H	-1.126232	-0.268719	-0.276111
H66	H	-1.061683	-0.277544	-0.189593
H67	H	-1.134449	-0.199758	-0.189600
C68	C	-0.882475	-0.008409	-0.551332
H69	H	-0.852198	0.023913	-0.597247
H70	H	-0.916740	0.032736	-0.510718
H71	H	-0.843973	-0.045049	-0.510727
H72	H	-0.897004	-0.023912	-0.433990
H73	H	-0.896985	-0.023912	-0.245122
C74	C	-0.392169	-0.269193	-0.094492
H75	H	-0.410272	-0.299638	-0.151184
H76	H	-0.332852	-0.268855	-0.096922
H77	H	-0.406986	-0.299187	-0.035902
C78	C	-1.150186	0.354065	-0.000095
H79	H	-1.196334	0.319272	-0.000116
H80	H	-1.152725	0.390900	0.057578
H81	H	-1.152701	0.390904	-0.057775
H82	H	-1.081453	-0.220900	-0.755026
C83	C	-0.551149	-0.270652	0.099138
H84	H	-0.584436	-0.283231	0.043440
H85	H	-0.499901	-0.309436	0.098261
H86	H	-0.580964	-0.280008	0.158647
C87	C	-0.587055	0.026756	0.091545
H88	H	-0.543223	0.048856	0.128681
H89	H	-0.625977	0.075706	0.070488
H90	H	-0.615147	-0.012495	0.132002
H91	H	-0.897012	-0.023921	-0.755067
C92	C	-0.587812	0.026422	-0.091522
H93	H	-0.544303	0.048505	-0.129239
H94	H	-0.616139	-0.012999	-0.131472
H95	H	-0.626645	0.075379	-0.070273
C96	C	-0.426254	0.029538	0.090527
H97	H	-0.386463	-0.007857	0.128739
H98	H	-0.401658	0.081025	0.068806
H99	H	-0.474285	0.047865	0.130174
H100	H	-1.123545	0.625449	-0.000073
C101	C	-0.568760	-0.124189	-0.189252
H102	H	-0.609009	-0.075416	-0.170972
H103	H	-0.524841	-0.102218	-0.226343
H104	H	-0.595178	-0.165588	-0.228663
H105	H	-0.416989	-0.134587	0.165042
H106	H	-0.846803	0.586747	-0.000059
H107	H	-0.849793	0.417488	-0.000043
H108	H	-0.403151	-0.241568	0.098738
H109	H	-0.547358	-0.244085	-0.100565
C110	C	-0.829865	0.309267	-0.000038
H111	H	-0.785172	0.261770	-0.000023
H112	H	-0.826040	0.345224	-0.057707
H113	H	-0.826060	0.345212	0.057646
H114	H	-1.081440	-0.220888	-0.433935
