data_functionalizedCrystal
_audit_creation_method	'MofGen! by Chris Wilmer'
_symmetry_space_group_name_H-M	'P1'
_symmetry_Int_Tables_number	1
_symmetry_cell_setting	triclinic
loop_
_symmetry_equiv_pos_as_xyz
  x,y,z
_cell_length_a	17.077404
_cell_length_b	18.101396
_cell_length_c	17.077396
_cell_angle_alpha	90.027670
_cell_angle_beta	89.983895
_cell_angle_gamma	89.965006
loop_
_atom_site_label
_atom_site_type_symbol
_atom_site_fract_x
_atom_site_fract_y
_atom_site_fract_z
Zn1	Zn	1.199960	0.294864	-0.443828
Zn2	Zn	1.699960	0.794864	0.056172
Zn3	Zn	1.199840	0.418714	-0.312566
Zn4	Zn	1.699840	0.918714	0.187434
Zn5	Zn	1.068697	0.294887	-0.312578
Zn6	Zn	1.568697	0.794887	0.187422
Zn7	Zn	1.068627	0.418663	-0.443792
Zn8	Zn	1.568627	0.918663	0.056208
O9	O	1.134281	0.356782	-0.378191
O10	O	1.634281	0.856782	0.121809
O11	O	1.309791	0.311304	-0.426425
O12	O	1.809791	0.811304	0.073575
O13	O	1.182422	0.402319	-0.202720
O14	O	1.682422	0.902319	0.297280
O15	O	1.086189	0.191251	-0.330009
O16	O	1.586189	0.691251	0.169991
O17	O	1.309703	0.402297	-0.329987
O18	O	1.809703	0.902297	0.170013
O19	O	1.182627	0.191234	-0.426438
O20	O	1.682627	0.691234	0.073562
O21	O	1.086072	0.311343	-0.202730
O22	O	1.586072	0.811343	0.297270
O23	O	0.958841	0.311294	-0.329974
O24	O	1.458841	0.811294	0.170026
O25	O	1.086070	0.402210	-0.553644
O26	O	1.586070	0.902210	-0.053644
O27	O	0.958790	0.402233	-0.426376
O28	O	1.458790	0.902233	0.073624
O29	O	1.182560	0.311255	-0.553670
O30	O	1.682560	0.811255	-0.053670
O31	O	1.182355	0.522340	-0.329953
O32	O	1.682355	1.022340	0.170047
O33	O	1.085954	0.522303	-0.426364
O34	O	1.585954	1.022303	0.073636
C35	C	0.930333	0.356761	-0.378173
C36	C	1.430333	0.856761	0.121827
C37	C	0.843083	0.356770	-0.378184
C38	C	1.343083	0.856770	0.121816
C39	C	0.802140	0.309474	-0.428476
C40	C	1.302140	0.809474	0.071524
C41	C	0.720159	0.309479	-0.428480
C42	C	1.220159	0.809479	0.071520
C43	C	0.679124	0.356784	-0.378195
C44	C	1.179124	0.856784	0.121805
C45	C	0.720073	0.404081	-0.327898
C46	C	1.220073	0.904081	0.172102
C47	C	0.802052	0.404072	-0.327891
C48	C	1.302052	0.904072	0.172109
C49	C	0.549203	0.404098	-0.327917
C50	C	1.049203	0.904098	0.172083
C51	C	0.467219	0.404108	-0.327925
C52	C	0.967219	0.904108	0.172075
C53	C	0.467310	0.309505	-0.428506
C54	C	0.967310	0.809505	0.071494
C55	C	0.549289	0.309496	-0.428499
C56	C	1.049289	0.809496	0.071501
C57	C	0.590233	0.356795	-0.378203
C58	C	1.090233	0.856795	0.121797
C59	C	1.134155	0.549193	-0.378170
C60	C	1.634155	1.049193	0.121830
C61	C	1.134173	0.631507	-0.378187
C62	C	1.634173	1.131507	0.121813
C63	C	1.134312	0.930598	-0.378233
C64	C	1.634312	1.430598	0.121767
C65	C	1.073803	0.899280	-0.439043
C66	C	1.573803	1.399280	0.060957
C67	C	1.073525	0.813662	-0.438852
C68	C	1.573525	1.313662	0.061148
C69	C	1.134243	0.782215	-0.378211
C70	C	1.634243	1.282215	0.121789
C71	C	1.111846	0.813367	-0.295482
C72	C	1.611846	1.313367	0.204518
C73	C	1.111447	0.899012	-0.295847
C74	C	1.611447	1.399012	0.204153
C75	C	1.217354	0.898944	-0.399424
C76	C	1.717354	1.398944	0.100576
C77	C	1.216875	0.813293	-0.401237
C78	C	1.716875	1.313293	0.098763
C79	C	1.134205	0.698356	-0.378194
C80	C	1.634205	1.198356	0.121806
C81	C	1.134348	1.014457	-0.378245
C82	C	1.634348	1.514457	0.121755
C83	C	1.339025	0.356804	-0.378209
C84	C	1.839025	0.856804	0.121791
C85	C	1.426275	0.356813	-0.378217
C86	C	1.926275	0.856813	0.121783
C87	C	1.134321	0.356725	-0.582935
C88	C	1.634321	0.856725	-0.082935
C89	C	1.134337	0.356700	-0.670185
C90	C	1.634337	0.856700	-0.170185
C91	C	1.134402	1.163620	-0.378232
C92	C	1.634402	1.663620	0.121768
C93	C	1.134383	1.081306	-0.378257
C94	C	1.634383	1.581306	0.121743
C95	C	1.084183	0.309324	-0.711180
C96	C	1.584183	0.809324	-0.211180
C97	C	1.084196	0.309307	-0.793160
C98	C	1.584196	0.809307	-0.293160
C99	C	1.134367	0.356663	-0.834145
C100	C	1.634367	0.856663	-0.334145
C101	C	1.184524	0.404045	-0.793144
C102	C	1.684524	0.904045	-0.293144
C103	C	1.184507	0.404065	-0.711165
C104	C	1.684507	0.904065	-0.211165
C105	C	1.184558	0.403999	-0.964015
C106	C	1.684558	0.903999	-0.464015
C107	C	1.184577	0.403978	-1.045999
C108	C	1.684577	0.903978	-0.545999
C109	C	1.084247	0.309240	-1.046009
C110	C	1.584247	0.809240	-0.546009
C111	C	1.084230	0.309260	-0.964030
C112	C	1.584230	0.809260	-0.464030
C113	C	1.134388	0.356641	-0.923036
C114	C	1.634388	0.856641	-0.423036
C115	C	1.134287	0.356786	-0.174243
C116	C	1.634287	0.856786	0.325757
C117	C	1.134422	0.356601	-0.086994
C118	C	1.634422	0.856601	0.413006
H119	H	0.433970	0.270991	-0.469458
H120	H	0.933970	0.770991	0.030542
O121	O	1.238687	0.455058	-1.090205
O122	O	1.738687	0.955058	-0.590205
H123	H	1.203527	0.492712	-1.127549
H124	H	1.703527	0.992712	-0.627549
O125	O	0.846216	0.455080	-0.273643
O126	O	1.346216	0.955080	0.226357
H127	H	0.883567	0.492793	-0.308698
H128	H	1.383567	0.992793	0.191302
O129	O	0.846393	0.258450	-0.482715
O130	O	1.346393	0.758450	0.017285
H131	H	0.910277	0.266392	-0.474268
H132	H	1.410277	0.766392	0.025732
H133	H	1.225409	0.442575	-0.930639
H134	H	1.725409	0.942575	-0.430639
O135	O	0.992002	0.786593	-0.420255
O136	O	1.492002	1.286593	0.079745
H137	H	0.993572	0.752706	-0.366127
H138	H	1.493572	1.252706	0.133873
O139	O	1.238635	0.455123	-0.837352
O140	O	1.738635	0.955123	-0.337352
H141	H	1.225116	0.513248	-0.821610
H142	H	1.725116	1.013248	-0.321610
O143	O	1.238604	0.455166	-0.666950
O144	O	1.738604	0.955166	-0.166950
H145	H	1.230158	0.447230	-0.603060
H146	H	1.730158	0.947230	-0.103060
O147	O	0.422954	0.455121	-0.273684
O148	O	0.922954	0.955121	0.226316
H149	H	0.465195	0.488000	-0.238699
H150	H	0.965195	0.988000	0.261301
H151	H	1.051791	0.791980	-0.277209
H152	H	1.551791	1.291980	0.222791
H153	H	1.087538	0.792597	-0.500194
H154	H	1.587538	1.292597	-0.000194
H155	H	0.582698	0.270981	-0.469450
H156	H	1.082698	0.770981	0.030550
O157	O	1.277014	0.925859	-0.340747
O158	O	1.777014	1.425859	0.159253
H159	H	1.304128	0.877763	-0.310914
H160	H	1.804128	1.377763	0.189086
O161	O	0.675996	0.258467	-0.482722
O162	O	1.175996	0.758467	0.017278
H163	H	0.718303	0.225578	-0.517693
H164	H	1.218303	0.725578	-0.017693
O165	O	1.092259	0.926687	-0.520472
O166	O	1.592259	1.426687	-0.020472
H167	H	1.104018	0.878874	-0.559464
H168	H	1.604018	1.378874	-0.059464
H169	H	1.237769	0.920491	-0.458722
H170	H	1.737769	1.420491	0.041278
H171	H	0.582537	0.442612	-0.286958
H172	H	1.082537	0.942612	0.213042
H173	H	1.043352	0.270731	-0.826534
H174	H	1.543352	0.770731	-0.326534
O175	O	0.675815	0.455098	-0.273656
O176	O	1.175815	0.955098	0.226344
H177	H	0.691529	0.513235	-0.287002
H178	H	1.191529	1.013235	0.212998
O179	O	0.992759	0.927855	-0.420685
O180	O	1.492759	1.427855	0.079315
H181	H	0.995387	0.964265	-0.368438
H182	H	1.495387	1.464265	0.131562
H183	H	1.050744	0.919053	-0.277897
H184	H	1.550744	1.419053	0.222103
H185	H	1.154536	0.792999	-0.248939
H186	H	1.654536	1.292999	0.251061
H187	H	1.153607	0.919732	-0.248995
H188	H	1.653607	1.419732	0.251005
O189	O	1.239265	0.786310	-0.481876
O190	O	1.739265	1.286310	0.018124
H191	H	1.191747	0.750909	-0.505464
H192	H	1.691747	1.250909	-0.005464
O193	O	1.279760	0.784967	-0.346825
O194	O	1.779760	1.284967	0.153175
H195	H	1.252981	0.748133	-0.302322
H196	H	1.752981	1.248133	0.197678
H197	H	1.043332	0.270756	-0.677816
H198	H	1.543332	0.770756	-0.177816
H199	H	1.043379	0.270695	-0.930663
H200	H	1.543379	0.770695	-0.430663
H201	H	1.043408	0.270660	-1.079391
H202	H	1.543408	0.770660	-0.579391
