data_functionalizedCrystal
_audit_creation_method	'MofGen! by Chris Wilmer'
_symmetry_space_group_name_H-M	'P1'
_symmetry_Int_Tables_number	1
_symmetry_cell_setting	triclinic
loop_
_symmetry_equiv_pos_as_xyz
  x,y,z
_cell_length_a	14.044220
_cell_length_b	10.723022
_cell_length_c	13.101018
_cell_angle_alpha	93.394040
_cell_angle_beta	93.666550
_cell_angle_gamma	91.171948
loop_
_atom_site_label
_atom_site_type_symbol
_atom_site_fract_x
_atom_site_fract_y
_atom_site_fract_z
O1	O	-0.127849	1.676794	0.085206
O2	O	0.205485	2.010127	0.418539
O3	O	0.538818	2.343460	0.751873
O4	O	-0.140585	1.314916	0.085209
O5	O	0.192749	1.648249	0.418543
O6	O	0.526082	1.981582	0.751876
O7	O	0.003803	1.490423	0.085203
O8	O	0.337136	1.823756	0.418537
O9	O	0.670470	2.157089	0.751870
O10	O	-0.272236	1.501287	0.085212
O11	O	0.061097	1.834620	0.418546
O12	O	0.394430	2.167953	0.751879
O13	O	-0.006566	1.477815	-0.085227
O14	O	0.326768	1.811149	0.248107
O15	O	0.660101	2.144482	0.581440
O16	O	-0.150953	1.302308	-0.085221
O17	O	0.182380	1.635642	0.248113
O18	O	0.515713	1.968975	0.581446
O19	O	-0.138217	1.664187	-0.085224
O20	O	0.195116	1.997520	0.248109
O21	O	0.528449	2.330853	0.581443
Zn22	Zn	-0.146232	1.481246	-0.112282
Zn23	Zn	0.187102	1.814579	0.221052
Zn24	Zn	0.520435	2.147912	0.554385
Zn25	Zn	-0.132570	1.497856	0.112267
Zn26	Zn	0.200763	1.831190	0.445600
Zn27	Zn	0.534096	2.164523	0.778934
O28	O	-0.282605	1.488680	-0.085218
O29	O	0.050728	1.822013	0.248116
O30	O	0.384062	2.155346	0.581449
C31	C	-0.144842	1.262020	-0.000005
C32	C	0.188491	1.595353	0.333328
C33	C	0.521824	1.928686	0.666661
C34	C	-0.142070	1.123188	-0.000004
C35	C	0.191263	1.456521	0.333329
C36	C	0.524596	1.789855	0.666663
C37	C	-0.058807	1.066297	-0.000006
C38	C	0.274527	1.399630	0.333327
C39	C	0.607860	1.732963	0.666661
C40	C	-0.055940	0.922807	-0.000005
C41	C	0.277394	1.256140	0.333328
C42	C	0.610727	1.589474	0.666662
C43	C	-0.312766	1.499739	-0.000002
C44	C	0.020567	1.833072	0.333332
C45	C	0.353901	2.166405	0.666665
C46	C	-0.418084	1.513923	0.000002
C47	C	-0.084750	1.847257	0.333335
C48	C	0.248583	2.180590	0.666669
C49	C	-0.610914	1.539855	-0.000003
C50	C	-0.277580	1.873188	0.333331
C51	C	0.055753	2.206522	0.666664
C52	C	-0.667893	1.439253	-0.000003
C53	C	-0.334560	1.772587	0.333331
C54	C	-0.001227	2.105920	0.666664
C55	C	-0.775191	1.453682	-0.000005
C56	C	-0.441857	1.787015	0.333328
C57	C	-0.108524	2.120349	0.666661
C58	C	-0.503606	1.525428	-0.000000
C59	C	-0.170273	1.858762	0.333333
C60	C	0.163060	2.192095	0.666667
C61	C	0.033964	1.479364	-0.000011
C62	C	0.367297	1.812697	0.333323
C63	C	0.700631	2.146030	0.666656
C64	C	0.139282	1.465180	-0.000008
C65	C	0.472616	1.798513	0.333326
C66	C	0.805949	2.131846	0.666659
C67	C	-0.133959	1.717083	-0.000007
C68	C	0.199374	2.050416	0.333326
C69	C	0.532707	2.383749	0.666660
C70	C	-0.136731	1.855915	-0.000002
C71	C	0.196602	2.189248	0.333332
C72	C	0.529935	2.522581	0.666665
N73	N	-0.155554	1.469919	-0.265530
N74	N	0.177779	1.803252	0.067803
N75	N	0.511112	2.136585	0.401136
C76	C	-0.110552	1.524597	-0.525442
C77	C	0.222781	1.857930	-0.192108
C78	C	0.556115	2.191264	0.141225
C79	C	-0.168239	1.454518	-0.474566
C80	C	0.165094	1.787851	-0.141233
C81	C	0.498427	2.121185	0.192100
C82	C	-0.161180	1.463089	-0.358248
C83	C	0.172154	1.796423	-0.024914
C84	C	0.505487	2.129756	0.308419
C85	C	-0.117611	1.516027	-0.641771
C86	C	0.215723	1.849361	-0.308437
C87	C	0.549056	2.182694	0.024896
N88	N	-0.123240	1.509193	0.265516
N89	N	0.210093	1.842526	0.598849
N90	N	0.543427	2.175859	0.932182
H91	H	0.010356	1.123820	-0.000004
H92	H	0.343689	1.457153	0.333330
H93	H	0.677022	1.790486	0.666663
H94	H	-0.055867	1.591027	-0.481644
H95	H	0.277466	1.924360	-0.148311
H96	H	0.610800	2.257693	0.185023
Cl97	Cl	-0.246807	0.931465	-0.000007
Cl98	Cl	0.086527	1.264798	0.333327
Cl99	Cl	0.419860	1.598131	0.666660
H100	H	0.015351	0.873864	0.000019
H101	H	0.348685	1.207198	0.333352
H102	H	0.682018	1.540531	0.666686
Cl103	Cl	-0.252679	1.351954	-0.542192
Cl104	Cl	0.080655	1.685288	-0.208859
Cl105	Cl	0.413988	2.018621	0.124475
H106	H	-0.636092	1.342289	-0.000003
H107	H	-0.302759	1.675622	0.333331
H108	H	0.030575	2.008955	0.666664
Cl109	Cl	-0.248857	1.034388	0.000008
Cl110	Cl	0.084476	1.367722	0.333342
Cl111	Cl	0.417810	1.701055	0.666675
H112	H	-0.642713	1.636811	-0.000008
H113	H	-0.309380	1.970145	0.333326
H114	H	0.023953	2.303478	0.666659
