data_functionalizedCrystal
_audit_creation_method	'MofGen! by Chris Wilmer'
_symmetry_space_group_name_H-M	'P1'
_symmetry_Int_Tables_number	1
_symmetry_cell_setting	triclinic
loop_
_symmetry_equiv_pos_as_xyz
  x,y,z
_cell_length_a	12.827893
_cell_length_b	19.121063
_cell_length_c	12.827885
_cell_angle_alpha	92.403967
_cell_angle_beta	89.980728
_cell_angle_gamma	92.468878
loop_
_atom_site_label
_atom_site_type_symbol
_atom_site_fract_x
_atom_site_fract_y
_atom_site_fract_z
Zn1	Zn	1.579835	-0.279579	-0.608539
Zn2	Zn	2.079835	0.220421	-0.108539
Zn3	Zn	1.572236	-0.397046	-0.441232
Zn4	Zn	2.072236	0.102954	0.058768
Zn5	Zn	1.405075	-0.279614	-0.433815
Zn6	Zn	1.905075	0.220386	0.066185
Zn7	Zn	1.397572	-0.396994	-0.615928
Zn8	Zn	1.897572	0.103006	-0.115928
O9	O	1.488680	-0.338308	-0.524878
O10	O	1.988680	0.161692	-0.024878
O11	O	1.725063	-0.295169	-0.586357
O12	O	2.225063	0.204831	-0.086357
O13	O	1.550022	-0.381505	-0.294014
O14	O	2.050022	0.118495	0.205986
O15	O	1.434577	-0.181325	-0.450796
O16	O	1.934577	0.318675	0.049204
O17	O	1.719480	-0.381471	-0.463437
O18	O	2.219480	0.118529	0.036563
O19	O	1.562973	-0.181300	-0.579165
O20	O	2.062973	0.318700	-0.079165
O21	O	1.427209	-0.295227	-0.288565
O22	O	1.927209	0.204773	0.211435
O23	O	1.257844	-0.295177	-0.457961
O24	O	1.757844	0.204823	0.042039
O25	O	1.421790	-0.381382	-0.761182
O26	O	1.921790	0.118618	-0.261182
O27	O	1.252332	-0.381415	-0.591759
O28	O	1.752332	0.118585	-0.091759
O29	O	1.555698	-0.295118	-0.755753
O30	O	2.055698	0.204882	-0.255753
O31	O	1.542747	-0.495323	-0.470602
O32	O	2.042747	0.004677	0.029398
O33	O	1.414422	-0.495285	-0.598951
O34	O	1.914422	0.004715	-0.098951
C35	C	1.217171	-0.338295	-0.524858
C36	C	1.717171	0.161705	-0.024858
C37	C	1.101017	-0.338306	-0.524875
C38	C	1.601017	0.161694	-0.024875
C39	C	1.046528	-0.381046	-0.590989
C40	C	1.546528	0.118954	-0.090989
C41	C	0.926477	-0.381059	-0.591008
C42	C	1.426477	0.118941	-0.091008
C43	C	1.476974	-0.520788	-0.536406
C44	C	1.976974	-0.020788	-0.036406
C45	C	1.472062	-0.598854	-0.541373
C46	C	1.972062	-0.098854	-0.041373
C47	C	1.536618	-0.635526	-0.476937
C48	C	2.036618	-0.135526	0.023063
C49	C	1.532005	-0.708877	-0.481615
C50	C	2.032005	-0.208877	0.018385
C51	C	1.462829	-0.745554	-0.550723
C52	C	1.962829	-0.245554	-0.050723
C53	C	1.398270	-0.708877	-0.615166
C54	C	1.898270	-0.208877	-0.115166
C55	C	1.402890	-0.635528	-0.610493
C56	C	1.902890	-0.135528	-0.110493
C57	C	1.445540	-0.967023	-0.568177
C58	C	1.945540	-0.467023	-0.068177
C59	C	1.440923	-1.040378	-0.572842
C60	C	1.940923	-0.540378	-0.072842
C61	C	1.574660	-1.040373	-0.439292
C62	C	2.074660	-0.540373	0.060708
C63	C	1.579269	-0.967021	-0.434621
C64	C	2.079269	-0.467021	0.065379
C65	C	1.514714	-0.930351	-0.499067
C66	C	2.014714	-0.430351	0.000933
C67	C	1.458109	-0.820531	-0.555503
C68	C	1.958109	-0.320531	-0.055503
C69	C	1.519440	-0.855375	-0.494292
C70	C	2.019440	-0.355375	0.005708
C71	C	1.761249	-0.338322	-0.524900
C72	C	2.261249	0.161678	-0.024900
C73	C	1.877402	-0.338328	-0.524909
C74	C	2.377402	0.161672	-0.024909
C75	C	1.488755	-0.338241	-0.797445
C76	C	1.988755	0.161759	-0.297445
C77	C	1.488787	-0.338212	-0.913596
C78	C	1.988787	0.161788	-0.413596
C79	C	1.500460	-0.155116	-0.513328
C80	C	2.000460	0.344884	-0.013328
C81	C	1.505479	-0.077050	-0.508407
C82	C	2.005479	0.422950	-0.008407
C83	C	1.555057	-0.295518	-0.962694
C84	C	2.055057	0.204482	-0.462694
C85	C	1.555091	-0.295487	-1.082742
C86	C	2.055091	0.204513	-0.582742
C87	C	1.488668	-0.338325	-0.253370
C88	C	1.988668	0.161675	0.246630
C89	C	1.488851	-0.338156	-0.137206
C90	C	1.988851	0.161844	0.362794
H91	H	1.088756	-0.417626	-0.647580
H92	H	1.588756	0.082374	-0.147580
N93	N	1.590083	-0.817903	-0.423697
N94	N	2.090083	-0.317903	0.076303
N95	N	1.555910	-0.777028	-0.354480
N96	N	2.055910	-0.277028	0.145520
H97	H	1.605798	-0.750557	-0.304617
H98	H	2.105798	-0.250557	0.195383
H99	H	1.384604	-1.070239	-0.629137
H100	H	1.884604	-0.570239	-0.129137
N101	N	1.597942	-0.746352	-0.415810
N102	N	2.097942	-0.246352	0.084190
N103	N	1.661937	-0.787225	-0.455245
N104	N	2.161937	-0.287225	0.044755
H105	H	1.708508	-0.813695	-0.408772
H106	H	2.208508	-0.313695	0.091228
H107	H	0.924244	-0.301737	-0.468300
H108	H	1.424244	0.198263	0.031700
N109	N	1.626267	-0.249618	-1.135697
N110	N	2.126267	0.250382	-0.635697
N111	N	1.688539	-0.209501	-1.084544
N112	N	2.188539	0.290499	-0.584544
H113	H	1.738809	-0.177103	-1.121944
H114	H	2.238809	0.322897	-0.621944
N115	N	0.867699	-0.426968	-0.662003
N116	N	1.367699	0.073032	-0.162003
N117	N	0.770260	-0.426916	-0.661913
N118	N	1.270260	0.073084	-0.161913
H119	H	0.728744	-0.459342	-0.712054
H120	H	1.228744	0.040658	-0.212054
N121	N	1.417653	-0.384004	-1.084241
N122	N	1.917653	0.115996	-0.584241
N123	N	1.321518	-0.379340	-1.096048
N124	N	1.821518	0.120660	-0.596048
H125	H	1.271232	-0.411719	-1.058635
H126	H	1.771232	0.088281	-0.558635
N127	N	1.048056	-0.292399	-0.453896
N128	N	1.548056	0.207601	0.046104
N129	N	0.990011	-0.247715	-0.488019
N130	N	1.490011	0.252285	0.011981
H131	H	0.952609	-0.215290	-0.437889
H132	H	1.452609	0.284710	0.062111
N133	N	1.626200	-0.249678	-0.903957
N134	N	2.126200	0.250322	-0.403957
N135	N	1.623449	-0.184859	-0.911981
N136	N	2.123449	0.315141	-0.411981
H137	H	1.673696	-0.152482	-0.870501
H138	H	2.173696	0.347518	-0.370501
N139	N	1.417649	-0.384048	-0.972344
N140	N	1.917649	0.115952	-0.472344
N141	N	1.420394	-0.448868	-0.964327
N142	N	1.920394	0.051132	-0.464327
H143	H	1.370149	-0.481241	-1.005815
H144	H	1.870149	0.018759	-0.505815
N145	N	1.607264	-0.598065	-0.406326
N146	N	2.107264	-0.098065	0.093674
N147	N	1.599862	-0.606315	-0.310419
N148	N	2.099862	-0.106315	0.189581
H149	H	1.649759	-0.579860	-0.260547
H150	H	2.149759	-0.079860	0.239453
N151	N	1.649933	-0.929569	-0.364018
N152	N	2.149933	-0.429569	0.135982
N153	N	1.707568	-0.962322	-0.306489
N154	N	2.207568	-0.462322	0.193511
H155	H	1.757473	-0.935872	-0.256622
H156	H	2.257473	-0.435872	0.243378
N157	N	1.640588	-1.077842	-0.373472
N158	N	2.140588	-0.577842	0.126528
N159	N	1.636457	-1.143332	-0.377647
N160	N	2.136457	-0.643332	0.122353
H161	H	1.683023	-1.169796	-0.331161
H162	H	2.183023	-0.669796	0.168839
N163	N	1.379594	-0.929582	-0.634012
N164	N	1.879594	-0.429582	-0.134012
N165	N	1.317834	-0.962341	-0.695707
N166	N	1.817834	-0.462341	-0.195707
H167	H	1.271255	-0.935896	-0.742206
H168	H	1.771255	-0.435896	-0.242206
H169	H	1.341950	-0.738746	-0.671440
H170	H	1.841950	-0.238746	-0.171440
N171	N	1.336961	-0.598065	-0.676326
N172	N	1.836961	-0.098065	-0.176326
N173	N	1.343335	-0.606201	-0.773278
N174	N	1.843335	-0.106201	-0.273278
H175	H	1.296775	-0.579744	-0.819779
H176	H	1.796775	-0.079744	-0.319779
N177	N	1.387443	-0.858011	-0.626074
N178	N	1.887443	-0.358011	-0.126074
N179	N	1.318304	-0.899002	-0.591846
N180	N	1.818304	-0.399002	-0.091846
H181	H	1.268397	-0.925476	-0.641687
H182	H	1.768397	-0.425476	-0.141687
