data_functionalizedCrystal
_audit_creation_method	'MofGen! by Chris Wilmer'
_symmetry_space_group_name_H-M	'P1'
_symmetry_Int_Tables_number	1
_symmetry_cell_setting	triclinic
loop_
_symmetry_equiv_pos_as_xyz
  x,y,z
_cell_length_a	21.395364
_cell_length_b	18.101390
_cell_length_c	21.395361
_cell_angle_alpha	90.037120
_cell_angle_beta	89.954341
_cell_angle_gamma	89.980642
loop_
_atom_site_label
_atom_site_type_symbol
_atom_site_fract_x
_atom_site_fract_y
_atom_site_fract_z
Zn1	Zn	0.957827	-0.418712	0.249165
Zn2	Zn	0.957739	-0.294862	0.353953
Zn3	Zn	0.853052	-0.294885	0.249221
Zn4	Zn	0.853011	-0.418662	0.353936
O5	O	0.905407	-0.356780	0.301569
O6	O	1.045493	-0.402295	0.263049
O7	O	0.943832	-0.191232	0.340091
O8	O	0.867004	-0.311342	0.161535
O9	O	1.045429	-0.311302	0.340036
O10	O	0.943982	-0.402317	0.161494
O11	O	0.866919	-0.191249	0.263144
O12	O	0.765368	-0.311293	0.263128
O13	O	0.866935	-0.522301	0.340007
O14	O	0.765339	-0.402231	0.340061
O15	O	0.943943	-0.522338	0.263032
O16	O	0.943793	-0.311253	0.441629
O17	O	0.866850	-0.402208	0.441616
C18	C	0.742620	-0.356759	0.301599
C19	C	0.672978	-0.356768	0.301627
C20	C	0.640321	-0.404221	0.261605
C21	C	0.574886	-0.404224	0.261589
C22	C	0.542110	-0.356781	0.301605
C23	C	0.574775	-0.309319	0.341630
C24	C	0.640209	-0.309312	0.341641
C25	C	0.438386	-0.350824	0.358031
C26	C	0.372953	-0.350836	0.358021
C27	C	0.340289	-0.356798	0.301571
C28	C	0.373067	-0.362764	0.245128
C29	C	0.438501	-0.362757	0.245139
C30	C	0.471158	-0.356783	0.301597
C31	C	0.236680	-0.404256	0.261527
C32	C	0.171243	-0.404254	0.261509
C33	C	0.171134	-0.309353	0.341556
C34	C	0.236569	-0.309352	0.341568
C35	C	0.269338	-0.356807	0.301555
C36	C	0.905445	-0.549942	0.301511
C37	C	0.905460	-0.632256	0.301487
C38	C	0.905494	-0.931347	0.301448
C39	C	0.954105	-0.900045	0.253188
C40	C	0.953953	-0.814427	0.253009
C41	C	0.905478	-0.782965	0.301467
C42	C	0.839472	-0.814040	0.283546
C43	C	0.839763	-0.899685	0.283184
C44	C	0.922308	-0.899754	0.367754
C45	C	0.923756	-0.814104	0.367415
C46	C	0.905465	-0.699105	0.301479
C47	C	0.905503	-1.015207	0.301434
C48	C	1.068831	-0.356801	0.301538
C49	C	1.138472	-0.356810	0.301526
C50	C	0.905325	-0.356739	0.464356
C51	C	0.905347	-0.356746	0.533997
C52	C	0.905406	-0.164369	0.301580
C53	C	0.905512	-0.082056	0.301428
C54	C	0.905507	-0.356838	0.138145
C55	C	0.905550	-0.356862	0.068504
C56	C	0.945446	-0.309434	0.566696
C57	C	0.945475	-0.309451	0.632132
C58	C	0.905394	-0.356771	0.664866
C59	C	0.865291	-0.404092	0.632159
C60	C	0.865268	-0.404080	0.566725
C61	C	0.848979	-0.362575	0.768594
C62	C	0.849001	-0.362582	0.834027
C63	C	0.905467	-0.356815	0.866686
C64	C	0.961911	-0.351024	0.833905
C65	C	0.961888	-0.351012	0.768470
C66	C	0.905415	-0.356791	0.735818
C67	C	0.945601	-0.309518	0.970338
C68	C	0.945632	-0.309540	1.035774
C69	C	0.865442	-0.404178	1.035800
C70	C	0.865417	-0.404160	0.970365
C71	C	0.905496	-0.356826	0.937638
H72	H	0.548291	-0.442864	0.228995
H73	H	0.802271	-0.793658	0.317614
H74	H	0.346473	-0.367619	0.199161
O75	O	0.826594	-0.450185	1.067658
C76	C	0.862258	-0.498077	1.105419
H77	H	0.909756	-0.472010	1.115185
H78	H	0.869108	-0.552958	1.080152
C79	C	0.769465	-0.543482	1.155609
C80	C	0.827800	-0.511464	1.167609
H81	H	0.748209	-0.551743	1.193970
H82	H	0.745436	-0.511219	1.130168
H83	H	0.775181	-0.589213	1.134552
H84	H	0.822083	-0.465730	1.188659
H85	H	0.851827	-0.543719	1.193056
H86	H	0.144448	-0.270725	0.374138
H87	H	0.263159	-0.270713	0.374161
H88	H	0.978289	-0.271014	1.062397
O89	O	0.139489	-0.450247	0.222564
C90	C	0.101653	-0.408182	0.182053
H91	H	0.121358	-0.349864	0.178119
H92	H	0.052042	-0.405588	0.201413
C93	C	0.076521	-0.516144	0.121790
C94	C	0.100726	-0.444517	0.116955
H95	H	0.075946	-0.538558	0.081636
H96	H	0.102010	-0.544485	0.149085
H97	H	0.035181	-0.513972	0.137926
H98	H	0.142068	-0.446691	0.100827
H99	H	0.075244	-0.416177	0.089656
H100	H	0.832657	-0.442623	0.658815
O101	O	0.794182	-0.368079	0.865899
C102	C	0.786154	-0.305044	0.903814
H103	H	0.814915	-0.257442	0.884093
H104	H	0.802398	-0.317832	0.953376
C105	C	0.681265	-0.341681	0.929141
C106	C	0.716586	-0.283214	0.904916
H107	H	0.638352	-0.328216	0.929824
H108	H	0.686673	-0.384150	0.903599
H109	H	0.694809	-0.352331	0.970441
H110	H	0.703047	-0.272570	0.863614
H111	H	0.711173	-0.240742	0.930451
O112	O	0.341213	-0.345001	0.412899
C113	C	0.384072	-0.339742	0.462726
H114	H	0.430726	-0.318318	0.444444
H115	H	0.391031	-0.396618	0.484498
C116	C	0.301167	-0.312422	0.534896
C117	C	0.358466	-0.286103	0.512442
H118	H	0.285371	-0.279338	0.565564
H119	H	0.272291	-0.315967	0.501327
H120	H	0.306974	-0.359818	0.553034
H121	H	0.352657	-0.238712	0.494297
H122	H	0.387340	-0.282548	0.546009
H123	H	0.464976	-0.345968	0.404003
H124	H	0.548085	-0.270691	0.374211
O125	O	0.795121	-0.924308	0.323367
C126	C	0.808115	-0.898180	0.384076
H127	H	0.838516	-0.846604	0.380953
H128	H	0.833893	-0.942715	0.411520
C129	C	0.709080	-0.942496	0.421370
C130	C	0.746415	-0.879146	0.417534
H131	H	0.671021	-0.930757	0.442011
H132	H	0.700326	-0.960102	0.380471
H133	H	0.730569	-0.979602	0.444239
H134	H	0.724928	-0.842044	0.394659
H135	H	0.755164	-0.861533	0.458431
H136	H	0.832761	-0.442683	0.943740
H137	H	0.465185	-0.367612	0.199182
O138	O	1.012353	-0.789449	0.266471
C139	C	1.030433	-0.815275	0.325929
H140	H	1.002504	-0.866954	0.338025
H141	H	1.020996	-0.770660	0.362371
C142	C	1.134959	-0.770471	0.310454
C143	C	1.100660	-0.833948	0.325309
H144	H	1.178279	-0.781987	0.310074
H145	H	1.122778	-0.753069	0.270397
H146	H	1.127089	-0.733298	0.340825
H147	H	1.108525	-0.871116	0.294934
H148	H	1.112844	-0.851357	0.365361
H149	H	0.666798	-0.270669	0.374232
H150	H	1.003210	-0.920646	0.264270
O151	O	0.940887	-0.925766	0.194945
C152	C	0.887915	-0.971972	0.197625
H153	H	0.859046	-0.957642	0.240769
H154	H	0.903514	-1.032110	0.200369
C155	C	0.883436	-0.978169	0.085574
C156	C	0.847975	-0.960563	0.138561
H157	H	0.858801	-0.971134	0.049140
H158	H	0.919126	-0.947041	0.083768
H159	H	0.896433	-1.028283	0.087869
H160	H	0.834986	-0.910448	0.136269
H161	H	0.812283	-0.991682	0.140365
O162	O	0.940563	-0.790040	0.194424
C163	C	0.881299	-0.816465	0.176297
H164	H	0.852545	-0.829880	0.219708
H165	H	0.887184	-0.868504	0.146831
C166	C	0.882768	-0.740433	0.084344
C167	C	0.847451	-0.756904	0.137662
H168	H	0.861890	-0.703696	0.060509
H169	H	0.922697	-0.722632	0.096554
H170	H	0.887670	-0.783805	0.059795
H171	H	0.842556	-0.713536	0.162213
H172	H	0.807521	-0.774697	0.125455
H173	H	0.978082	-0.270894	0.540052
O174	O	0.268419	-0.450373	0.222599
C175	C	0.225560	-0.492268	0.187278
H176	H	0.178909	-0.461941	0.185064
H177	H	0.218594	-0.548461	0.210280
C178	C	0.308467	-0.540340	0.123330
C179	C	0.251172	-0.503088	0.120607
H180	H	0.324266	-0.547018	0.082205
H181	H	0.337343	-0.512118	0.147128
H182	H	0.302654	-0.587164	0.142501
H183	H	0.256987	-0.456263	0.101443
H184	H	0.222297	-0.531304	0.096804
O185	O	0.822656	-0.923581	0.225404
C186	C	0.768138	-0.966944	0.230239
H187	H	0.742048	-0.951886	0.274946
H188	H	0.781496	-1.027899	0.231507
C189	C	0.757830	-0.970806	0.118504
C190	C	0.725782	-0.952307	0.173412
H191	H	0.731703	-0.961780	0.083450
H192	H	0.794561	-0.941594	0.115246
H193	H	0.768960	-1.021601	0.119569
H194	H	0.714660	-0.901511	0.172349
H195	H	0.689048	-0.981510	0.176668
H196	H	0.802994	-0.367274	0.742010
H197	H	1.007847	-0.346299	0.741781
H198	H	0.969595	-0.921396	0.384076
O199	O	0.822047	-0.788518	0.226384
C200	C	0.762678	-0.816963	0.210991
H201	H	0.736856	-0.832913	0.255610
H202	H	0.768440	-0.867817	0.180054
C203	C	0.756641	-0.738201	0.120892
C204	C	0.724923	-0.757786	0.175694
H205	H	0.733352	-0.701700	0.099117
H206	H	0.796640	-0.719039	0.131261
H207	H	0.761441	-0.780585	0.095119
H208	H	0.720131	-0.715404	0.201470
H209	H	0.684922	-0.776939	0.165329
O210	O	0.981659	-0.789737	0.383557
C211	C	0.981731	-0.711882	0.385603
H212	H	0.932014	-0.691071	0.393252
H213	H	1.000508	-0.689248	0.339560
C214	C	1.084671	-0.711083	0.430311
C215	C	1.023607	-0.685523	0.439710
H216	H	1.110504	-0.694823	0.463684
H217	H	1.084623	-0.763536	0.428930
H218	H	1.100309	-0.692220	0.391939
H219	H	1.007967	-0.704394	0.478076
H220	H	1.023653	-0.633073	0.441098
O221	O	0.984448	-0.263417	0.663808
C222	C	1.019829	-0.221652	0.620890
H223	H	0.994154	-0.219054	0.574276
H224	H	1.067402	-0.248814	0.613861
C225	C	1.060431	-0.146038	0.703726
C226	C	1.028894	-0.142842	0.646475
H227	H	1.066026	-0.097426	0.719508
H228	H	1.036596	-0.174178	0.732641
H229	H	1.100072	-0.168677	0.697860
H230	H	0.989251	-0.120212	0.652342
H231	H	1.052723	-0.114697	0.617561
H232	H	0.890925	-0.792683	0.405303
O233	O	0.880122	-0.924026	0.410653
C234	C	0.881241	-1.001867	0.412711
H235	H	0.928226	-1.022624	0.394673
H236	H	0.842147	-1.024803	0.382171
C237	C	0.814099	-1.002379	0.502735
C238	C	0.871808	-1.027873	0.480585
H239	H	0.808278	-1.018422	0.544602
H240	H	0.813343	-0.949936	0.501347
H241	H	0.781527	-1.021495	0.477279
H242	H	0.904379	-1.008749	0.506036
H243	H	0.872570	-1.080313	0.481979
O244	O	1.016763	-0.345561	0.865646
C245	C	1.024809	-0.408620	0.903447
H246	H	0.996017	-0.456200	0.883726
H247	H	1.008613	-0.395854	0.953069
C248	C	1.129731	-0.372036	0.928566
C249	C	1.094372	-0.430476	0.904342
H250	H	1.172641	-0.385516	0.929121
H251	H	1.124310	-0.329550	0.903101
H252	H	1.116227	-0.361403	0.969916
H253	H	1.107871	-0.441102	0.862991
H254	H	1.099797	-0.472964	0.929801
O255	O	0.984593	-0.263520	0.938639
C256	C	1.019986	-0.221754	0.981535
H257	H	1.022162	-0.252103	1.028154
H258	H	0.997071	-0.165487	0.988565
C259	C	1.083992	-0.173868	0.898666
C260	C	1.086668	-0.211145	0.955922
H261	H	1.125123	-0.167320	0.882866
H262	H	1.060145	-0.202004	0.869765
H263	H	1.064893	-0.126983	0.904531
H264	H	1.105760	-0.258033	0.950054
H265	H	1.110520	-0.183017	0.984821
O266	O	0.826252	-0.450062	0.535055
C267	C	0.790893	-0.491851	0.577974
H268	H	0.788755	-0.461528	0.624643
H269	H	0.813814	-0.548122	0.584865
C270	C	0.726820	-0.539692	0.495188
C271	C	0.724190	-0.502445	0.552506
H272	H	0.685676	-0.546230	0.479477
H273	H	0.750643	-0.511540	0.466272
H274	H	0.745924	-0.586580	0.500938
H275	H	0.705094	-0.455555	0.546753
H276	H	0.700362	-0.530589	0.581421
H277	H	0.666998	-0.442862	0.229023
