data_functionalizedCrystal
_audit_creation_method	'MofGen! by Chris Wilmer'
_symmetry_space_group_name_H-M	'P1'
_symmetry_Int_Tables_number	1
_symmetry_cell_setting	triclinic
loop_
_symmetry_equiv_pos_as_xyz
  x,y,z
_cell_length_a	17.077403
_cell_length_b	18.215407
_cell_length_c	17.077396
_cell_angle_alpha	90.017722
_cell_angle_beta	90.017592
_cell_angle_gamma	89.995225
loop_
_atom_site_label
_atom_site_type_symbol
_atom_site_fract_x
_atom_site_fract_y
_atom_site_fract_z
Zn1	Zn	-0.312623	1.125195	0.443865
Zn2	Zn	0.020710	1.458528	0.777198
Zn3	Zn	0.354044	1.791862	1.110532
Zn4	Zn	-0.443898	1.125155	0.312624
Zn5	Zn	-0.110565	1.458489	0.645957
Zn6	Zn	0.222769	1.791822	0.979290
Zn7	Zn	-0.312637	1.002128	0.312617
Zn8	Zn	0.020696	1.335461	0.645950
Zn9	Zn	0.354029	1.668794	0.979284
Zn10	Zn	-0.443838	1.002145	0.443851
Zn11	Zn	-0.110505	1.335479	0.777185
Zn12	Zn	0.222828	1.668812	1.110518
O13	O	-0.378249	1.063656	0.378239
O14	O	-0.044916	1.396989	0.711573
O15	O	0.288418	1.730323	1.044906
O16	O	-0.330056	1.228174	0.426464
O17	O	0.003278	1.561507	0.759797
O18	O	0.336611	1.894841	1.093131
O19	O	-0.426517	1.108812	0.202776
O20	O	-0.093184	1.442145	0.536109
O21	O	0.240150	1.775478	0.869443
O22	O	-0.202789	1.018462	0.330030
O23	O	0.130545	1.351795	0.663363
O24	O	0.463878	1.685129	0.996697
O25	O	-0.426503	1.228145	0.330042
O26	O	-0.093170	1.561478	0.663375
O27	O	0.240164	1.894812	0.996708
O28	O	-0.202778	1.108879	0.426457
O29	O	0.130555	1.442212	0.759791
O30	O	0.463889	1.775546	1.093124
O31	O	-0.330080	1.018424	0.202771
O32	O	0.003253	1.351757	0.536104
O33	O	0.336586	1.685090	0.869437
O34	O	-0.330023	0.899146	0.330017
O35	O	0.003311	1.232479	0.663350
O36	O	0.336644	1.565812	0.996684
O37	O	-0.426401	1.018492	0.553700
O38	O	-0.093068	1.351825	0.887034
O39	O	0.240265	1.685159	1.220367
O40	O	-0.426415	0.899159	0.426434
O41	O	-0.093082	1.232492	0.759768
O42	O	0.240251	1.565825	1.093101
O43	O	-0.329998	1.108896	0.553710
O44	O	0.003335	1.442229	0.887043
O45	O	0.336669	1.775563	1.220377
O46	O	-0.553737	1.108829	0.330029
O47	O	-0.220404	1.442162	0.663362
O48	O	0.112930	1.775495	0.996695
O49	O	-0.553693	1.018454	0.426441
O50	O	-0.220360	1.351787	0.759774
O51	O	0.112974	1.685120	1.093108
C52	C	-0.378215	0.872450	0.378224
C53	C	-0.044881	1.205783	0.711557
C54	C	0.288452	1.539116	1.044891
C55	C	-0.378219	0.790651	0.378236
C56	C	-0.044885	1.123984	0.711569
C57	C	0.288448	1.457317	1.044903
C58	C	-0.328126	0.525603	0.428526
C59	C	0.005207	0.858936	0.761860
C60	C	0.338541	1.192269	1.095193
C61	C	-0.328113	0.602461	0.428524
C62	C	0.005220	0.935795	0.761857
C63	C	0.338554	1.269128	1.095191
C64	C	-0.428398	0.602450	0.327969
C65	C	-0.095064	0.935784	0.661303
C66	C	0.238269	1.269117	0.994636
C67	C	-0.428414	0.525593	0.327976
C68	C	-0.095081	0.858926	0.661310
C69	C	0.238253	1.192260	0.994643
C70	C	-0.378273	0.487171	0.378254
C71	C	-0.044940	0.820504	0.711587
C72	C	0.288393	1.153838	1.044920
C73	C	-0.378245	0.640887	0.378244
C74	C	-0.044911	0.974221	0.711578
C75	C	0.288422	1.307554	1.044911
C76	C	-0.378231	0.724221	0.378241
C77	C	-0.044898	1.057554	0.711574
C78	C	0.288435	1.390888	1.044908
C79	C	-0.378288	0.403832	0.378258
C80	C	-0.044954	0.737165	0.711591
C81	C	0.288379	1.070499	1.044925
C82	C	-0.582197	1.063659	0.378251
C83	C	-0.248864	1.396992	0.711585
C84	C	0.084470	1.730325	1.044918
C85	C	-0.669447	1.063727	0.378283
C86	C	-0.336113	1.397061	0.711616
C87	C	-0.002780	1.730394	1.044949
C88	C	-0.173505	1.063673	0.378244
C89	C	0.159828	1.397006	0.711578
C90	C	0.493162	1.730340	1.044911
C91	C	-0.086255	1.063680	0.378246
C92	C	0.247078	1.397014	0.711580
C93	C	0.580412	1.730347	1.044913
C94	C	-0.045269	1.016611	0.328045
C95	C	0.288064	1.349945	0.661378
C96	C	0.621397	1.683278	0.994711
C97	C	0.036711	1.016617	0.328054
C98	C	0.370045	1.349950	0.661388
C99	C	0.703378	1.683284	0.994721
C100	C	0.077704	1.063696	0.378263
C101	C	0.411038	1.397029	0.711596
C102	C	0.744371	1.730362	1.044930
C103	C	0.036713	1.110767	0.428470
C104	C	0.370046	1.444100	0.761804
C105	C	0.703379	1.777433	1.095137
C106	C	-0.045266	1.110757	0.428464
C107	C	0.288067	1.444090	0.761797
C108	C	0.621400	1.777424	1.095130
C109	C	0.207583	1.110785	0.428479
C110	C	0.540916	1.444119	0.761812
C111	C	0.874249	1.777452	1.095146
C112	C	0.289567	1.110796	0.428485
C113	C	0.622901	1.444130	0.761818
C114	C	0.956234	1.777463	1.095151
C115	C	0.289560	1.016645	0.328070
C116	C	0.622894	1.349979	0.661403
C117	C	0.956227	1.683312	0.994736
C118	C	0.207581	1.016635	0.328063
C119	C	0.540915	1.349969	0.661396
C120	C	0.874248	1.683302	0.994730
C121	C	0.166595	1.063708	0.378270
C122	C	0.499929	1.397041	0.711603
C123	C	0.833262	1.730374	1.044936
C124	C	-0.378191	1.063700	0.582984
C125	C	-0.044858	1.397034	0.916317
C126	C	0.288475	1.730367	1.249650
C127	C	-0.378167	1.063719	0.670233
C128	C	-0.044833	1.397053	1.003567
C129	C	0.288500	1.730386	1.336900
C130	C	-0.378284	1.255609	0.378255
C131	C	-0.044951	1.588942	0.711588
C132	C	0.288382	1.922275	1.044922
C133	C	-0.378299	1.337408	0.378262
C134	C	-0.044966	1.670741	0.711595
C135	C	0.288367	2.004074	1.044929
C136	C	-0.378250	1.063654	0.174291
C137	C	-0.044917	1.396987	0.507625
C138	C	0.288417	1.730320	0.840958
C139	C	-0.378054	1.063777	0.087042
C140	C	-0.044720	1.397111	0.420375
C141	C	0.288613	1.730444	0.753709
C142	C	-0.327965	1.110794	0.711230
C143	C	0.005368	1.444128	1.044563
C144	C	0.338701	1.777461	1.377897
C145	C	-0.327939	1.110803	0.793210
C146	C	0.005394	1.444137	1.126544
C147	C	0.338727	1.777470	1.459877
C148	C	-0.378119	1.063740	0.834193
C149	C	-0.044786	1.397074	1.167526
C150	C	0.288548	1.730407	1.500860
C151	C	-0.428322	1.016660	0.793191
C152	C	-0.094989	1.349993	1.126524
C153	C	0.238344	1.683327	1.459857
C154	C	-0.428344	1.016648	0.711212
C155	C	-0.095011	1.349981	1.044545
C156	C	0.238323	1.683315	1.377878
C157	C	-0.428275	1.016690	0.964061
C158	C	-0.094942	1.350023	1.297394
C159	C	0.238391	1.683356	1.630727
C160	C	-0.428255	1.016702	1.046045
C161	C	-0.094922	1.350036	1.379379
C162	C	0.238412	1.683369	1.712712
C163	C	-0.327870	1.110845	1.046060
C164	C	0.005463	1.444178	1.379393
C165	C	0.338796	1.777512	1.712726
C166	C	-0.327892	1.110833	0.964081
C167	C	0.005441	1.444166	1.297414
C168	C	0.338775	1.777500	1.630747
C169	C	-0.378097	1.063753	0.923084
C170	C	-0.044763	1.397087	1.256417
C171	C	0.288570	1.730420	1.589751
H172	H	-0.469254	0.494301	0.287038
H173	H	-0.135921	0.827635	0.620371
H174	H	0.197412	1.160968	0.953704
Br175	Br	-0.100895	0.952721	0.259895
Br176	Br	0.232439	1.286054	0.593228
Br177	Br	0.565772	1.619387	0.926561
H178	H	-0.287279	0.633749	0.469462
H179	H	0.046055	0.967082	0.802795
H180	H	0.379388	1.300416	1.136128
H181	H	-0.469219	0.633743	0.287034
H182	H	-0.135885	0.967076	0.620367
H183	H	0.197448	1.300409	0.953700
H184	H	0.070082	0.978289	0.287177
H185	H	0.403415	1.311623	0.620510
H186	H	0.736748	1.644956	0.953844
H187	H	0.174207	0.978304	0.287175
H188	H	0.507540	1.311637	0.620508
H189	H	0.840874	1.644970	0.953841
H190	H	-0.287298	0.494322	0.469465
H191	H	0.046035	0.827655	0.802799
H192	H	0.379369	1.160988	1.136132
H193	H	0.322936	0.978318	0.287190
H194	H	0.656269	1.311651	0.620523
H195	H	0.989602	1.644984	0.953857
Br196	Br	0.345201	1.174691	0.496623
Br197	Br	0.678534	1.508025	0.829957
Br198	Br	1.011868	1.841358	1.163290
Br199	Br	0.151959	1.174670	0.496617
Br200	Br	0.485293	1.508003	0.829950
Br201	Br	0.818626	1.841337	1.163283
H202	H	0.070094	1.149097	0.469355
H203	H	0.403427	1.482430	0.802688
H204	H	0.736761	1.815763	1.136022
H205	H	-0.287036	1.149160	0.930715
H206	H	0.046298	1.482493	1.264048
H207	H	0.379631	1.815827	1.597382
Br208	Br	-0.259738	1.174742	1.101696
Br209	Br	0.073595	1.508075	1.435030
Br210	Br	0.406928	1.841408	1.768363
Br211	Br	-0.496349	0.952823	1.101665
Br212	Br	-0.163016	1.286157	1.434998
Br213	Br	0.170318	1.619490	1.768331
H214	H	-0.078636	1.149080	0.469349
H215	H	0.254697	1.482413	0.802683
H216	H	0.588031	1.815746	1.136016
H217	H	-0.287105	1.149121	0.677868
H218	H	0.046228	1.482454	1.011201
H219	H	0.379561	1.815788	1.344535
Br220	Br	-0.496420	0.952783	0.848809
Br221	Br	-0.163086	1.286116	1.182142
Br222	Br	0.170247	1.619450	1.515475
Br223	Br	-0.496408	0.952793	0.908423
Br224	Br	-0.163075	1.286126	1.241756
Br225	Br	0.170258	1.619459	1.575089
Br226	Br	-0.496472	0.952753	0.655572
Br227	Br	-0.163139	1.286087	0.988906
Br228	Br	0.170194	1.619420	1.322239
Br229	Br	-0.259842	1.174728	0.848846
Br230	Br	0.073491	1.508061	1.182179
Br231	Br	0.406824	1.841395	1.515513
