data_functionalizedCrystal
_audit_creation_method	'MofGen! by Chris Wilmer'
_symmetry_space_group_name_H-M	'P1'
_symmetry_Int_Tables_number	1
_symmetry_cell_setting	triclinic
loop_
_symmetry_equiv_pos_as_xyz
  x,y,z
_cell_length_a	10.654555
_cell_length_b	13.101039
_cell_length_c	10.654550
_cell_angle_alpha	86.605036
_cell_angle_beta	95.514047
_cell_angle_gamma	86.612317
loop_
_atom_site_label
_atom_site_type_symbol
_atom_site_fract_x
_atom_site_fract_y
_atom_site_fract_z
O1	O	-1.674681	0.085152	0.169563
O2	O	-1.309205	0.085167	0.186361
O3	O	-1.500345	0.085153	-0.004777
O4	O	-1.483540	0.085166	0.360700
O5	O	-1.486631	-0.085276	0.008960
O6	O	-1.295491	-0.085261	0.200098
O7	O	-1.660967	-0.085277	0.183299
Zn8	Zn	-1.476052	-0.112328	0.193879
Zn9	Zn	-1.494120	0.112219	0.175781
O10	O	-1.469827	-0.085262	0.374437
C11	C	-1.255550	-0.000045	0.191994
C12	C	-1.116108	-0.000039	0.188299
N13	N	-1.463729	-0.265576	0.206231
C14	C	-0.927037	0.092856	0.175610
C15	C	-1.058060	0.092861	0.179073
C16	C	-1.043127	-0.092950	0.194050
C17	C	-0.912108	-0.092953	0.190577
C18	C	-1.446965	-0.474617	0.223047
C19	C	-1.523213	-0.525499	0.146608
C20	C	-1.513885	-0.641817	0.155964
C21	C	-1.456291	-0.358289	0.213692
C22	C	-0.714622	-0.000059	0.177667
C23	C	-0.854066	-0.000047	0.181364
C24	C	-1.492254	-0.000061	-0.044707
C25	C	-1.488563	-0.000059	-0.184150
N26	N	-1.506452	0.265466	0.163420
C27	C	-1.601104	-0.000064	-0.263633
C28	C	-1.597628	-0.000051	-0.394655
C29	C	-1.369061	-0.000034	-0.366697
C30	C	-1.372538	-0.000039	-0.235679
C31	C	-1.477918	-0.000046	0.414366
C32	C	-1.481610	-0.000041	0.553809
H33	H	-1.117468	0.168512	0.174386
H34	H	-0.852692	-0.168611	0.195262
O35	O	-0.864451	0.193065	0.165651
H36	H	-0.794675	0.197531	0.249161
O37	O	-1.243928	-0.000028	-0.422286
H38	H	-1.195387	0.069442	-0.396044
H39	H	-1.695578	-0.000078	-0.221684
O40	O	-1.105725	-0.193154	0.204009
H41	H	-1.209088	-0.177546	0.205473
O42	O	-1.618963	-0.467491	0.050613
H43	H	-1.715427	-0.488012	0.068978
H44	H	-1.374686	-0.518409	0.295511
H45	H	-1.689271	-0.000052	-0.459366
O46	O	-1.251149	-0.000046	-0.149934
H47	H	-1.169884	-0.000050	-0.207772
