data_functionalizedCrystal
_audit_creation_method	'MofGen! by Chris Wilmer'
_symmetry_space_group_name_H-M	'P1'
_symmetry_Int_Tables_number	1
_symmetry_cell_setting	triclinic
loop_
_symmetry_equiv_pos_as_xyz
  x,y,z
_cell_length_a	6.394989
_cell_length_b	14.971486
_cell_length_c	14.048226
_cell_angle_alpha	89.998499
_cell_angle_beta	90.003392
_cell_angle_gamma	94.944080
loop_
_atom_site_label
_atom_site_type_symbol
_atom_site_fract_x
_atom_site_fract_y
_atom_site_fract_z
O1	O	-0.272212	1.189891	-0.079045
O2	O	-0.304810	0.929843	-0.079070
O3	O	0.015544	1.063558	-0.079058
O4	O	-0.592566	1.056176	-0.079057
O5	O	0.015563	1.063542	0.079264
O6	O	-0.304791	0.929827	0.079252
O7	O	-0.272193	1.189874	0.079277
Zn8	Zn	-0.288489	1.059848	0.104401
Zn9	Zn	-0.288514	1.059870	-0.104194
O10	O	-0.592547	1.056159	0.079264
C11	C	-0.303343	0.896494	0.000088
C12	C	-0.298974	0.797150	0.000078
N13	N	-0.288471	1.059839	0.246762
C14	C	-0.487173	0.741960	0.000079
C15	C	-0.483056	0.648616	0.000093
C16	C	-0.290737	0.610464	0.000099
C17	C	-0.102524	0.665661	0.000101
C18	C	-0.106643	0.759003	0.000093
C19	C	-0.093951	0.471106	0.000114
C20	C	-0.089830	0.377757	0.000119
C21	C	-0.470364	0.360719	0.000114
C22	C	-0.474483	0.454061	0.000107
C23	C	-0.286268	0.509252	0.000106
C24	C	0.093378	1.062090	0.000099
C25	C	0.329624	1.057629	0.000098
C26	C	-0.273661	1.223223	0.000117
C27	C	-0.278029	1.322567	0.000121
N28	N	-0.288516	1.059885	-0.246555
C29	C	-0.146677	1.119068	0.296585
C30	C	-0.146676	1.119074	0.396243
C31	C	-0.288480	1.059855	0.446075
C32	C	-0.430281	1.000620	0.396245
C33	C	-0.430271	1.000610	0.296589
C34	C	-0.430296	1.000646	0.603959
C35	C	-0.430310	1.000656	0.703622
C36	C	-0.146701	1.119110	0.703613
C37	C	-0.146691	1.119100	0.603957
C38	C	-0.288495	1.059866	0.554134
H39	H	-0.636307	0.603684	0.000094
H40	H	-0.545780	0.952433	0.744190
C41	C	0.118904	0.336278	-0.000059
C42	C	0.132411	0.283203	-0.081519
C43	C	0.324676	0.244986	-0.081719
H44	H	0.128600	0.300156	0.055090
H45	H	0.230478	0.382486	-0.000103
H46	H	0.020869	0.237001	-0.081465
H47	H	0.122753	0.319305	-0.136681
H48	H	0.436250	0.291194	-0.081764
H49	H	0.334355	0.208868	-0.026567
H50	H	0.333875	0.208977	-0.136993
C51	C	0.006925	1.183430	0.450465
C52	C	-0.104582	1.239416	0.507684
C53	C	0.036848	1.298706	0.557658
H54	H	0.091436	1.218790	0.406628
H55	H	0.093975	1.150306	0.489404
H56	H	-0.191596	1.272538	0.468748
H57	H	-0.189086	1.204081	0.551538
H58	H	0.123898	1.265581	0.596597
H59	H	0.121351	1.334060	0.513815
H60	H	-0.038789	1.336694	0.596494
H61	H	-0.631086	0.485121	0.000093
H62	H	0.059314	0.516040	0.000115
H63	H	-0.031233	1.167325	0.563384
H64	H	-0.545762	0.952408	0.563396
H65	H	-0.031212	1.167295	0.256018
C66	C	-0.583906	0.936276	0.450470
C67	C	-0.472426	0.880296	0.507718
C68	C	-0.613880	0.821020	0.557691
H69	H	-0.668413	0.900911	0.406633
H70	H	-0.670958	0.969411	0.489390
H71	H	-0.385410	0.847163	0.468801
H72	H	-0.387927	0.915636	0.551572
H73	H	-0.700933	0.854155	0.596612
H74	H	-0.698379	0.785661	0.513848
H75	H	-0.538262	0.783036	0.596546
H76	H	0.054066	0.634590	0.000119
H77	H	-0.545731	0.952379	0.256024
H78	H	-0.643782	0.773016	0.000074
H79	H	-0.623615	0.315778	0.000119
H80	H	0.046608	0.803939	0.000091
H81	H	-0.031240	1.167340	0.744185
