data_functionalizedCrystal
_audit_creation_method	'MofGen! by Chris Wilmer'
_symmetry_space_group_name_H-M	'P1'
_symmetry_Int_Tables_number	1
_symmetry_cell_setting	triclinic
loop_
_symmetry_equiv_pos_as_xyz
  x,y,z
_cell_length_a	23.196402
_cell_length_b	23.196402
_cell_length_c	14.560438
_cell_angle_alpha	120.000217
_cell_angle_beta	90.000271
_cell_angle_gamma	60.002409
loop_
_atom_site_label
_atom_site_type_symbol
_atom_site_fract_x
_atom_site_fract_y
_atom_site_fract_z
Zr1	Zr	0.555433	0.630965	0.120509
O2	O	0.463389	0.751233	0.267149
O3	O	0.583641	0.510702	0.075561
O4	O	0.583647	0.630968	0.267160
O5	O	0.463387	0.630962	-0.075593
O6	O	0.678519	0.630966	0.267164
O7	O	0.463382	0.630966	0.075550
O8	O	0.678508	0.415832	-0.075573
O9	O	0.463398	0.846097	0.267143
O10	O	0.666484	0.560165	0.056387
O11	O	0.595686	0.560164	-0.056411
O12	O	0.595693	0.701762	0.169173
O13	O	0.524894	0.701760	0.056374
Zr14	Zr	0.706750	0.630955	-0.120541
Zr15	Zr	0.706743	0.630961	0.120514
Zr16	Zr	0.555441	0.630959	-0.120546
Zr17	Zr	0.555448	0.782263	0.120500
Zr18	Zr	0.706735	0.479658	-0.120532
O19	O	0.678542	0.751218	-0.075593
O20	O	0.678531	0.751227	0.267156
O21	O	0.463399	0.751224	-0.075600
O22	O	0.798795	0.510688	-0.267181
O23	O	0.798784	0.510697	0.075568
O24	O	0.583652	0.510693	-0.267189
O25	O	0.798796	0.630958	0.075561
O26	O	0.678536	0.630952	-0.267192
O27	O	0.583664	0.630954	-0.267196
O28	O	0.798801	0.630954	-0.075582
O29	O	0.583669	0.846094	0.267148
O30	O	0.678514	0.415827	-0.267180
O31	O	0.798785	0.415824	-0.267176
O32	O	0.798779	0.415829	-0.075569
O33	O	0.463404	0.846092	0.075537
O34	O	0.583675	0.846089	0.075541
O35	O	0.666491	0.560159	-0.169205
O36	O	0.737289	0.560160	-0.056406
O37	O	0.666498	0.701757	0.056379
O38	O	0.595700	0.701756	-0.056420
C39	C	0.631073	0.441710	-0.000005
C40	C	0.631066	0.377481	-0.000001
C41	C	0.683335	0.295049	-0.083257
C42	C	0.683340	0.234688	-0.083268
C43	C	0.631081	0.256765	-0.000004
C44	C	0.578803	0.339211	0.083259
C45	C	0.578796	0.399569	0.083261
C46	C	0.614804	0.201181	0.101624
C47	C	0.614816	0.140822	0.101623
C48	C	0.631100	0.070603	-0.000009
C49	C	0.647387	0.060741	-0.101647
C50	C	0.647379	0.121099	-0.101645
C51	C	0.631083	0.191323	0.000003
C52	C	0.683377	-0.077282	-0.083283
C53	C	0.683377	-0.137642	-0.083294
C54	C	0.578843	-0.033116	0.083242
C55	C	0.578840	0.027241	0.083244
C56	C	0.631111	0.005152	-0.000018
C57	C	0.441826	0.630965	-0.000023
C58	C	0.377592	0.630967	-0.000025
C59	C	0.347417	0.630975	0.083246
C60	C	0.287065	0.630968	0.083246
C61	C	0.256883	0.630968	-0.000017
C62	C	0.287068	0.630956	-0.083302
C63	C	0.347422	0.630955	-0.083306
C64	C	0.137514	0.678472	-0.025965
C65	C	0.077159	0.678478	-0.025954
C66	C	0.070733	0.630967	-0.000011
C67	C	0.124665	0.583462	0.025945
C68	C	0.185019	0.583461	0.025941
C69	C	0.191440	0.630969	-0.000022
C70	C	-0.024881	0.630967	0.083265
C71	C	-0.085231	0.630954	0.083258
C72	C	-0.085231	0.630950	-0.083287
C73	C	-0.024879	0.630955	-0.083284
C74	C	0.005291	0.630967	-0.000002
C75	C	0.820357	0.630955	-0.000010
C76	C	0.884592	0.630954	-0.000007
C77	C	0.631082	0.630968	0.301507
C78	C	0.631079	0.630971	0.403841
C79	C	0.631111	0.820210	-0.000027
C80	C	0.631117	0.884440	-0.000031
C81	C	0.594127	0.704882	0.510791
C82	C	0.594134	0.704880	0.606941
C83	C	0.668046	0.557048	0.489178
C84	C	0.668043	0.557051	0.393031
C85	C	0.631097	0.630956	0.698464
C86	C	0.631089	0.630965	0.596139
C87	C	0.820338	0.441705	0.000002
C88	C	0.884566	0.377474	0.000008
C89	C	0.631082	0.441702	-0.301528
C90	C	0.631079	0.377470	-0.403858
C91	C	0.820348	0.441698	-0.301522
C92	C	0.884579	0.377464	-0.403850
C93	C	0.441836	0.820223	0.301489
C94	C	0.377604	0.884457	0.403818
C95	C	0.441846	0.820215	-0.000034
C96	C	0.377617	0.884446	-0.000040
C97	C	0.631101	0.820218	0.301496
C98	C	0.631105	0.884450	0.403826
C99	C	0.877769	0.347313	0.058898
C100	C	0.938113	0.286969	0.058926
C101	C	1.005253	0.256784	0.000057
C102	C	1.012049	0.286951	-0.058835
C103	C	0.951706	0.347298	-0.058856
C104	C	0.668037	0.347303	-0.510801
C105	C	0.668031	0.286959	-0.606961
C106	C	0.631071	0.256778	-0.596175
C107	C	0.594109	0.286950	-0.489221
C108	C	0.594111	0.347298	-0.393064
C109	C	0.951705	0.347299	-0.393024
C110	C	1.012064	0.286953	-0.489163
C111	C	1.005294	0.256768	-0.596127
C112	C	0.938161	0.286938	-0.606950
C113	C	0.877804	0.347288	-0.510812
C114	C	0.310478	0.914628	0.392992
C115	C	0.250120	0.974993	0.489131
C116	C	0.256889	1.005181	0.596095
C117	C	0.324023	0.975007	0.606918
C118	C	0.384379	0.914648	0.510780
C119	C	0.384414	0.914614	-0.058920
C120	C	0.324071	0.974974	-0.058921
C121	C	0.256930	1.005162	-0.000049
C122	C	0.250135	0.974992	0.058838
C123	C	0.310478	0.914637	0.058846
C124	C	0.668072	0.914612	0.393005
C125	C	0.668089	0.974957	0.489146
C126	C	0.631134	1.005143	0.596107
C127	C	0.594165	0.974976	0.606927
C128	C	0.594153	0.914627	0.510787
H129	H	0.725936	-0.095268	-0.151085
H130	H	0.725940	-0.204765	-0.151098
H131	H	0.698139	0.496865	0.480390
H132	H	-0.000314	0.630973	0.151075
C133	C	0.190558	1.071551	-0.000074
N134	N	0.140568	1.121553	-0.000101
C135	C	0.380619	0.630939	-0.174921
N136	N	0.405624	0.630925	-0.243928
C137	C	0.708695	0.380496	-0.522693
N138	N	0.739316	0.405497	-0.531659
C139	C	0.959169	0.380496	-0.275373
N140	N	0.964797	0.405500	-0.186761
C141	C	0.596891	0.278420	0.213435
N142	N	0.583400	0.336595	0.297648
H143	H	-0.109797	0.630956	0.151064
H144	H	0.439035	0.890082	0.519607
H145	H	0.631149	1.054283	0.674382
H146	H	0.304953	0.890053	0.305906
H147	H	0.564077	0.999563	0.694028
H148	H	0.536292	-0.015140	0.151035
H149	H	0.564047	0.890076	0.519614
H150	H	0.329618	0.999528	-0.106879
C151	C	0.331457	1.008216	0.724588
N152	N	0.337055	1.033225	0.813220
C153	C	1.085903	0.253769	-0.477233
N154	N	1.141518	0.228775	-0.468243
C155	C	0.458263	0.881422	-0.123683
N156	N	0.513885	0.856431	-0.172459
C157	C	0.708694	0.475739	0.275375
N158	N	0.739313	0.414497	0.186759
C159	C	0.176273	1.008196	0.123576
N160	N	0.120639	1.033201	0.172325
H161	H	0.631075	0.207639	-0.674481
C162	C	0.521319	0.363494	0.174850
N163	N	0.478019	0.381786	0.243838
C164	C	1.085910	0.253732	-0.123596
N165	N	1.141544	0.228705	-0.172381
H166	H	0.932566	0.262414	0.106882
C167	C	0.302988	0.881450	0.123608
N168	N	0.297342	0.856455	0.172388
H169	H	-0.109803	0.630946	-0.151085
H170	H	0.932660	0.262353	-0.694052
C171	C	0.740831	0.270746	-0.174854
N172	N	0.784136	0.252442	-0.243848
C173	C	1.071696	0.190376	-0.701871
N174	N	1.121712	0.140366	-0.781514
C175	C	0.708755	1.008134	0.477219
N176	N	0.739384	1.033122	0.468232
H177	H	0.660638	0.113067	-0.184402
C178	C	0.740843	0.144000	-0.174858
N179	N	0.784156	0.075695	-0.243842
C180	C	0.665297	-0.016497	-0.213451
N181	N	0.678787	-0.074674	-0.297659
H182	H	0.698165	0.890044	0.305920
C183	C	0.708703	0.253772	-0.724599
N184	N	0.739339	0.228776	-0.813202
C185	C	0.553459	0.253738	-0.477375
N186	N	0.522846	0.228716	-0.468457
H187	H	0.207737	1.054330	0.674367
H188	H	0.823106	0.371889	0.106850
H189	H	0.823149	0.371840	-0.519642
H190	H	1.054383	0.207645	0.000082
C191	C	0.176280	1.008172	0.477201
N192	N	0.120666	1.033161	0.468211
C193	C	0.553460	0.380466	-0.275429
N194	N	0.522841	0.405444	-0.186827
H195	H	0.536281	0.094363	0.151046
H196	H	0.601558	0.148856	0.184382
C197	C	0.380606	0.630976	0.174850
N198	N	0.405606	0.630973	0.243843
C199	C	0.521297	0.490252	0.174859
N200	N	0.477990	0.558556	0.243856
H201	H	0.033249	0.717163	-0.047082
C202	C	0.253861	0.630987	0.174863
N203	N	0.228851	0.631007	0.243873
C204	C	0.117605	0.531193	0.054480
N205	N	0.112284	0.491827	0.075973
C206	C	0.244346	0.531198	0.054477
N207	N	0.289033	0.491829	0.075965
C208	C	0.553473	0.786196	0.522688
N209	N	0.522854	0.847444	0.531653
H210	H	-0.000311	0.630953	-0.151087
H211	H	0.262492	0.630954	-0.151098
H212	H	0.142763	0.717110	-0.047184
H213	H	0.957250	0.371847	-0.106818
H214	H	0.564044	0.765066	0.694021
