data_functionalizedCrystal
_audit_creation_method	'MofGen! by Chris Wilmer'
_symmetry_space_group_name_H-M	'P1'
_symmetry_Int_Tables_number	1
_symmetry_cell_setting	triclinic
loop_
_symmetry_equiv_pos_as_xyz
  x,y,z
_cell_length_a	10.540514
_cell_length_b	10.540539
_cell_length_c	16.176319
_cell_angle_alpha	89.995366
_cell_angle_beta	89.992089
_cell_angle_gamma	84.520326
loop_
_atom_site_label
_atom_site_type_symbol
_atom_site_fract_x
_atom_site_fract_y
_atom_site_fract_z
O1	O	1.685911	0.178751	-0.068753
O2	O	1.316494	0.195640	-0.068752
O3	O	1.509630	0.002488	-0.068751
O4	O	1.492774	0.371903	-0.068753
O5	O	1.509603	0.002476	0.068742
O6	O	1.316467	0.195628	0.068742
O7	O	1.685884	0.178738	0.068740
Cu8	Cu	1.501173	0.187182	0.081295
Cu9	Cu	1.501205	0.187197	-0.081306
O10	O	1.492747	0.371890	0.068740
C11	C	1.269177	0.194374	-0.000005
C12	C	1.128227	0.190605	-0.000005
C13	C	1.057522	0.328745	-0.000007
C14	C	0.910908	0.324871	-0.000323
C15	C	0.935905	0.115485	-0.078372
C16	C	1.082444	0.120339	-0.078433
C17	C	1.082816	0.118280	0.077928
C18	C	0.935837	0.116947	0.078953
C19	C	1.508353	-0.044821	-0.000006
C20	C	1.504571	-0.185769	-0.000011
C21	C	1.359652	-0.369182	-0.000319
C22	C	1.363486	-0.222564	-0.000009
C23	C	1.572452	-0.247440	0.078505
C24	C	1.567637	-0.393984	0.078571
C25	C	1.570537	-0.394488	-0.077785
C26	C	1.571837	-0.247506	-0.078823
C27	C	1.733201	0.180004	-0.000008
C28	C	1.874151	0.183774	-0.000014
C29	C	1.494025	0.419199	-0.000007
C30	C	1.497807	0.560147	-0.000008
N31	N	1.501160	0.187171	0.195660
N32	N	1.501228	0.187198	-0.195672
C33	C	1.586707	0.101678	0.238925
C34	C	1.586713	0.101677	0.325472
C35	C	1.501178	0.187175	0.368753
C36	C	1.415621	0.272671	0.325483
C37	C	1.415610	0.272665	0.238937
C38	C	1.415665	0.272696	0.674511
C39	C	1.415686	0.272697	0.761062
C40	C	1.586769	0.101707	0.761046
C41	C	1.586757	0.101701	0.674500
C42	C	1.501197	0.187192	0.631237
C43	C	1.501189	0.187191	0.537393
C44	C	1.501191	0.187184	0.462596
H45	H	0.869188	0.378364	-0.056825
H46	H	1.525276	-0.204841	0.136933
F47	F	1.324610	0.363683	0.628474
H48	H	1.087760	0.383968	-0.056116
H49	H	1.524886	-0.426031	-0.137294
F50	F	1.677754	0.010684	0.192870
F51	F	1.677761	0.010686	0.371517
H52	H	0.911652	0.014101	0.083919
F53	F	1.324580	0.363660	0.371546
H54	H	1.517447	-0.422184	0.137263
F55	F	1.677827	0.010715	0.807095
H56	H	1.304136	-0.399390	0.055671
F57	F	1.293149	-0.167980	0.073678
H58	H	1.656412	0.032085	0.639263
H59	H	1.676060	-0.225095	0.081424
H60	H	1.346028	0.342323	0.796300
H61	H	0.893309	0.162305	-0.136909
H62	H	1.345947	0.342280	0.203712
H63	H	1.672442	-0.441723	-0.078313
H64	H	1.110680	0.170225	-0.137231
F65	F	1.145196	-0.012291	-0.082801
H66	H	1.669103	-0.441962	0.082133
F67	F	0.882239	0.182174	0.154727
H68	H	0.913591	0.011854	-0.081064
H69	H	1.086050	0.384778	0.056176
F70	F	0.855124	0.395084	0.073075
H71	H	1.114299	0.164259	0.137339
H72	H	1.303931	-0.397772	-0.056623
F73	F	1.293671	-0.166862	-0.073575
F74	F	1.144602	-0.014893	0.078927
H75	H	1.522169	-0.206638	-0.136906
H76	H	1.674699	-0.223293	-0.083564
