data_functionalizedCrystal
_audit_creation_method	'MofGen! by Chris Wilmer'
_symmetry_space_group_name_H-M	'P1'
_symmetry_Int_Tables_number	1
_symmetry_cell_setting	triclinic
loop_
_symmetry_equiv_pos_as_xyz
  x,y,z
_cell_length_a	12.759400
_cell_length_b	14.908742
_cell_length_c	12.759393
_cell_angle_alpha	86.719973
_cell_angle_beta	90.029805
_cell_angle_gamma	86.721058
loop_
_atom_site_label
_atom_site_type_symbol
_atom_site_fract_x
_atom_site_fract_y
_atom_site_fract_z
Zn1	Zn	-0.510850	1.379220	0.501183
Zn2	Zn	-0.686560	1.379127	0.325512
Zn3	Zn	-0.500769	1.228354	0.335674
Zn4	Zn	-0.676355	1.228348	0.511299
O5	O	-0.593633	1.303762	0.418417
O6	O	-0.542649	1.505447	0.469394
O7	O	-0.661966	1.359090	0.179841
O8	O	-0.355088	1.248409	0.357649
O9	O	-0.671742	1.505379	0.340329
O10	O	-0.362495	1.359249	0.479248
O11	O	-0.525466	1.248318	0.187307
O12	O	-0.515571	1.102114	0.367457
O13	O	-0.654348	1.248397	0.656976
O14	O	-0.644573	1.102109	0.496488
O15	O	-0.532753	1.359243	0.649544
O16	O	-0.832224	1.359084	0.350137
O17	O	-0.824727	1.248307	0.486634
C18	C	-0.577871	1.069379	0.434174
C19	C	-0.571153	0.969109	0.440939
C20	C	-0.866597	1.303709	0.418402
C21	C	-0.983378	1.303769	0.418425
C22	C	-0.494592	0.827814	0.517769
C23	C	-0.500895	0.922027	0.511417
C24	C	-0.635115	0.921971	0.376810
C25	C	-0.628812	0.827758	0.383162
C26	C	-0.558547	0.780683	0.453642
C27	C	-0.552239	0.686469	0.459988
C28	C	-0.686465	0.686414	0.325387
C29	C	-0.692768	0.780627	0.319035
C30	C	-1.042005	1.361458	0.481801
C31	C	-1.151732	1.361509	0.481826
C32	C	-1.144196	1.246178	0.355091
C33	C	-1.034470	1.246123	0.355072
C34	C	-0.319605	1.303840	0.418453
C35	C	-0.202831	1.303874	0.418469
C36	C	-0.593537	1.303830	0.692446
C37	C	-0.593496	1.303858	0.809221
C38	C	-0.609458	1.539061	0.402599
C39	C	-0.616202	1.639331	0.395859
C40	C	-0.593657	1.303747	0.145451
C41	C	-0.593414	1.303893	0.028665
C42	C	-0.530171	1.361580	0.860214
C43	C	-0.530127	1.361595	0.969937
C44	C	-0.656741	1.246165	0.977664
C45	C	-0.656779	1.246146	0.867943
H46	H	-0.495021	0.648141	0.517373
H47	H	-0.437369	0.789485	0.575147
O48	O	-1.193716	1.190234	0.293397
C49	C	-1.168304	1.209997	0.187369
H50	H	-1.090933	1.244637	0.182882
H51	H	-1.233154	1.256423	0.148916
C52	C	-1.252487	1.079532	0.135068
C53	C	-1.157454	1.122070	0.129556
H54	H	-1.245799	1.025296	0.099403
H55	H	-1.269612	1.066218	0.206500
H56	H	-1.306520	1.118230	0.103024
H57	H	-1.103427	1.083377	0.161611
H58	H	-1.140321	1.135375	0.058128
H59	H	-0.448816	0.960398	0.563636
H60	H	-0.986732	1.199141	0.303464
H61	H	-0.478638	1.408571	0.812406
H62	H	-0.478559	1.408596	1.011451
H63	H	-1.000408	1.408395	0.533388
O64	O	-0.718456	1.190170	0.818441
C65	C	-0.824482	1.209841	0.843929
H66	H	-0.834628	1.281912	0.869256
H67	H	-0.848672	1.161476	0.910856
C68	C	-0.881459	1.110790	0.716043
C69	C	-0.893921	1.199311	0.747142
H70	H	-0.924294	1.104290	0.656343
H71	H	-0.810027	1.097533	0.698874
H72	H	-0.901616	1.070495	0.771824
H73	H	-0.873753	1.239602	0.691366
H74	H	-0.965352	1.212573	0.764300
H75	H	-0.692325	0.960316	0.319431
H76	H	-0.708267	1.199179	1.025488
O77	O	-0.761076	0.826460	0.250713
C78	C	-0.832670	0.880960	0.306738
H79	H	-0.796661	0.895103	0.385470
H80	H	-0.908114	0.844653	0.320590
C81	C	-0.901834	0.953060	0.146171
C82	C	-0.857603	0.970438	0.242867
H83	H	-0.917219	1.008253	0.106772
H84	H	-0.853603	0.916341	0.108425
H85	H	-0.964699	0.922802	0.157729
H86	H	-0.794734	1.000684	0.231309
H87	H	-0.905825	1.007164	0.280610
H88	H	-1.199462	1.408483	0.533435
H89	H	-0.738544	0.648030	0.273172
