data_functionalizedCrystal
_audit_creation_method	'MofGen! by Chris Wilmer'
_symmetry_space_group_name_H-M	'P1'
_symmetry_Int_Tables_number	1
_symmetry_cell_setting	triclinic
loop_
_symmetry_equiv_pos_as_xyz
  x,y,z
_cell_length_a	19.077236
_cell_length_b	18.101397
_cell_length_c	19.076919
_cell_angle_alpha	92.268541
_cell_angle_beta	89.887323
_cell_angle_gamma	92.313125
loop_
_atom_site_label
_atom_site_type_symbol
_atom_site_fract_x
_atom_site_fract_y
_atom_site_fract_z
Zn1	Zn	1.058310	-0.268826	-0.440528
Zn2	Zn	1.062958	-0.387506	-0.323016
Zn3	Zn	0.945525	-0.268438	-0.318308
Zn4	Zn	0.940778	-0.397386	-0.435753
O5	O	1.001893	-0.330539	-0.379401
O6	O	1.157260	-0.280597	-0.428908
O7	O	1.051312	-0.367414	-0.224061
O8	O	0.960528	-0.164856	-0.334549
O9	O	1.160675	-0.367791	-0.342572
O10	O	1.043390	-0.165141	-0.424344
O11	O	0.965035	-0.279935	-0.220602
O12	O	0.846562	-0.289515	-0.329919
O13	O	0.952437	-0.384630	-0.534717
O14	O	0.843074	-0.384253	-0.416206
O15	O	1.038787	-0.290177	-0.538225
O16	O	1.046709	-0.492450	-0.337942
O17	O	0.956944	-0.499709	-0.420770
C18	C	0.819321	-0.337915	-0.372034
C19	C	0.741216	-0.341089	-0.368899
C20	C	0.702742	-0.297261	-0.412445
C21	C	0.629353	-0.300239	-0.409493
C22	C	0.594441	-0.347050	-0.362998
C23	C	0.632920	-0.390879	-0.319447
C24	C	0.706307	-0.387896	-0.322396
C25	C	0.375148	-0.360827	-0.349348
C26	C	0.301756	-0.363808	-0.346404
C27	C	0.298194	-0.273166	-0.436449
C28	C	0.371583	-0.270191	-0.439397
C29	C	0.410056	-0.314017	-0.395843
N30	N	0.519426	-0.350097	-0.359981
N31	N	0.485069	-0.310966	-0.398857
C32	C	1.001834	-0.522950	-0.379365
C33	C	1.001872	-0.605263	-0.379375
C34	C	1.001959	-0.904353	-0.379443
C35	C	1.058291	-0.868430	-0.327179
C36	C	1.058473	-0.782810	-0.327327
C37	C	1.001916	-0.755971	-0.379409
C38	C	1.019012	-0.789424	-0.454283
C39	C	1.019443	-0.875039	-0.454003
C40	C	0.928361	-0.875038	-0.357469
C41	C	0.928795	-0.789301	-0.355830
C42	C	1.001890	-0.672112	-0.379394
C43	C	1.001987	-0.988213	-0.379463
C44	C	1.185177	-0.323135	-0.386798
C45	C	1.263282	-0.319980	-0.389950
C46	C	0.994564	-0.338549	-0.562680
C47	C	0.991440	-0.341962	-0.640783
C48	C	1.001970	-0.137376	-0.379454
C49	C	1.002003	-0.055061	-0.379477
C50	C	1.034929	-0.294391	-0.679303
C51	C	1.031986	-0.297596	-0.752688
C52	C	0.985557	-0.348375	-0.787552
C53	C	0.942064	-0.395948	-0.749027
C54	C	0.945004	-0.392739	-0.675642
C55	C	0.971940	-0.363242	-1.006831
C56	C	0.969005	-0.366448	-1.080220
C57	C	1.058926	-0.268095	-1.083877
C58	C	1.061864	-0.264894	-1.010491
C59	C	1.018369	-0.312464	-0.971972
N60	N	0.982549	-0.351654	-0.862564
N61	N	1.021374	-0.309181	-0.896962
C62	C	1.009234	-0.322505	-0.196837
C63	C	1.012493	-0.318878	-0.118741
H64	H	0.273332	-0.401930	-0.308541
H65	H	0.980048	-0.899138	-0.494448
H66	H	0.979108	-0.772445	-0.494400
H67	H	0.266862	-0.237484	-0.471907
C68	C	1.106764	-0.215766	-1.126249
C69	C	1.157833	-0.159910	-1.087900
C70	C	1.205672	-0.107576	-1.130272
C71	C	1.202442	-0.111099	-1.210991
C72	C	1.151371	-0.166958	-1.249344
C73	C	1.103532	-0.219291	-1.206973
H74	H	1.160226	-0.157300	-1.028143
H75	H	1.243478	-0.066226	-1.101880
H76	H	1.237855	-0.072359	-1.242357
H77	H	1.148978	-0.169568	-1.309102
H78	H	1.065725	-0.260642	-1.235365
H79	H	0.904259	-0.437291	-0.777418
C80	C	1.090734	-0.758412	-0.479296
C81	C	1.095801	-0.714646	-0.546840
C82	C	1.167526	-0.683635	-0.571848
C83	C	1.234183	-0.696391	-0.529314
C84	C	1.229119	-0.740159	-0.461767
C85	C	1.157394	-0.771169	-0.436758
H86	H	1.046455	-0.705201	-0.578330
H87	H	1.171274	-0.651235	-0.621852
H88	H	1.287278	-0.673435	-0.547827
H89	H	1.278465	-0.749603	-0.430276
H90	H	1.153646	-0.803570	-0.386754
H91	H	0.737632	-0.423585	-0.286935
H92	H	1.112574	-0.888227	-0.341798
H93	H	0.909584	-0.431469	-0.644280
C94	C	0.869373	-0.764981	-0.403205
C95	C	0.793048	-0.791470	-0.389410
C96	C	0.733632	-0.767179	-0.436812
C97	C	0.750540	-0.716399	-0.498008
C98	C	0.826868	-0.689907	-0.511805
C99	C	0.886284	-0.714198	-0.464404
H100	H	0.780529	-0.829063	-0.344107
H101	H	0.677129	-0.786790	-0.426597
H102	H	0.706557	-0.698417	-0.533097
H103	H	0.839388	-0.652314	-0.557109
H104	H	0.942787	-0.694587	-0.474618
C105	C	0.417466	-0.409039	-0.301446
C106	C	0.466701	-0.466503	-0.333820
C107	C	0.509024	-0.514718	-0.285918
C108	C	0.502111	-0.505467	-0.205641
C109	C	0.452874	-0.448000	-0.173263
C110	C	0.410551	-0.399786	-0.221166
H111	H	0.471820	-0.473354	-0.393250
H112	H	0.545472	-0.557259	-0.309887
H113	H	0.533441	-0.541159	-0.170181
H114	H	0.447755	-0.441150	-0.113834
H115	H	0.374103	-0.357244	-0.197197
C116	C	1.079825	-0.245272	-0.795064
C117	C	1.047381	-0.190562	-0.844298
C118	C	1.095222	-0.138236	-0.886675
C119	C	1.175507	-0.140620	-0.879819
C120	C	1.207955	-0.195332	-0.830583
C121	C	1.160114	-0.247658	-0.788206
H122	H	0.987946	-0.188795	-0.849375
H123	H	1.071201	-0.097734	-0.923122
H124	H	1.210922	-0.101885	-0.911189
H125	H	1.267391	-0.197099	-0.825506
H126	H	1.184135	-0.288160	-0.751758
C127	C	0.741142	-0.245767	-0.463591
C128	C	0.698818	-0.197554	-0.511488
C129	C	0.737216	-0.146057	-0.562633
C130	C	0.817939	-0.142774	-0.565882
C131	C	0.860268	-0.190989	-0.517984
C132	C	0.821869	-0.242485	-0.466838
H133	H	0.639058	-0.199983	-0.509084
H134	H	0.705881	-0.110366	-0.598091
H135	H	0.846363	-0.104653	-0.603744
H136	H	0.920027	-0.188559	-0.520388
H137	H	0.853204	-0.278177	-0.431381
C138	C	0.871706	-0.906981	-0.408839
C139	C	0.828398	-0.854596	-0.451509
C140	C	0.771751	-0.886543	-0.502882
C141	C	0.758412	-0.970876	-0.511585
C142	C	0.801721	-1.023266	-0.468914
C143	C	0.858368	-0.991319	-0.417541
H144	H	0.838271	-0.792163	-0.445068
H145	H	0.739691	-0.847760	-0.534471
H146	H	0.716478	-0.994525	-0.549615
H147	H	0.791848	-1.085699	-0.475355
H148	H	0.890428	-1.030102	-0.385952
C149	C	1.044495	-0.751909	-0.252453
C150	C	1.033087	-0.805150	-0.192107
C151	C	1.019112	-0.774253	-0.117229
C152	C	1.016545	-0.690115	-0.102698
C153	C	1.027954	-0.636868	-0.163045
C154	C	1.041928	-0.667765	-0.237923
H155	H	1.034986	-0.867439	-0.202863
H156	H	1.010666	-0.813670	-0.072556
H157	H	1.006200	-0.667243	-0.047268
H158	H	1.026054	-0.574579	-0.152290
H159	H	1.050374	-0.628348	-0.282597
C160	C	1.086001	-0.238532	-0.640956
C161	C	1.079894	-0.155016	-0.650838
C162	C	1.130966	-0.099154	-0.612493
C163	C	1.188145	-0.126808	-0.564266
C164	C	1.194255	-0.210328	-0.554382
C165	C	1.143183	-0.266190	-0.592727
H166	H	1.037564	-0.134542	-0.686540
H167	H	1.126443	-0.037327	-0.619810
H168	H	1.225952	-0.085455	-0.535881
H169	H	1.236585	-0.230802	-0.518679
H170	H	1.147706	-0.328017	-0.585410
H171	H	0.598031	-0.264551	-0.444954
H172	H	0.931195	-0.407801	-1.108604
C173	C	0.924088	-0.415574	-0.964481
C174	C	0.843806	-0.413189	-0.971371
C175	C	0.795946	-0.465525	-0.929025
C176	C	0.828368	-0.520246	-0.879787
C177	C	0.908654	-0.522633	-0.872895
C178	C	0.956514	-0.470297	-0.915241
H179	H	0.819802	-0.372679	-1.007822
H180	H	0.736513	-0.463758	-0.934128
H181	H	0.792939	-0.558989	-0.848440
H182	H	0.932658	-0.563143	-0.836444
H183	H	1.015947	-0.472065	-0.910138
C184	C	1.044539	-0.893734	-0.252089
C185	C	0.981990	-0.947327	-0.237307
C186	C	0.968237	-0.972638	-0.162216
C187	C	1.017032	-0.944356	-0.101907
C188	C	1.079585	-0.890759	-0.116688
C189	C	1.093338	-0.865449	-0.191779
H190	H	0.945865	-0.968267	-0.281952
H191	H	0.921931	-1.012314	-0.151274
H192	H	1.006852	-0.963092	-0.046320
H193	H	1.115710	-0.869820	-0.072043
H194	H	1.139644	-0.825773	-0.202721
H195	H	1.099673	-0.223546	-0.982111
H196	H	0.400003	-0.232075	-0.477261
H197	H	1.113051	-0.760589	-0.342103
H198	H	1.073151	-0.893465	-0.472269
C199	C	0.911306	-0.759522	-0.281372
C200	C	0.905555	-0.675733	-0.266592
C201	C	0.888072	-0.645950	-0.192132
C202	C	0.876340	-0.699956	-0.132454
C203	C	0.882090	-0.783751	-0.147232
C204	C	0.899573	-0.813534	-0.221692
H205	H	0.914240	-0.635749	-0.310771
H206	H	0.883815	-0.583919	-0.181192
H207	H	0.863398	-0.677909	-0.077334
H208	H	0.873405	-0.823735	-0.103053
H209	H	0.903830	-0.875564	-0.232632
H210	H	0.604489	-0.428990	-0.281586
H211	H	0.912233	-0.895103	-0.303662
