data_functionalizedCrystal
_audit_creation_method	'MofGen! by Chris Wilmer'
_symmetry_space_group_name_H-M	'P1'
_symmetry_Int_Tables_number	1
_symmetry_cell_setting	triclinic
loop_
_symmetry_equiv_pos_as_xyz
  x,y,z
_cell_length_a	21.295419
_cell_length_b	21.295417
_cell_length_c	18.101390
_cell_angle_alpha	89.963986
_cell_angle_beta	89.980651
_cell_angle_gamma	90.044503
loop_
_atom_site_label
_atom_site_type_symbol
_atom_site_fract_x
_atom_site_fract_y
_atom_site_fract_z
Zn1	Zn	0.962327	-0.250337	-0.418718
Zn2	Zn	0.962240	-0.355617	-0.294869
Zn3	Zn	0.857060	-0.250393	-0.294890
Zn4	Zn	0.857021	-0.355599	-0.418670
O5	O	0.909662	-0.302986	-0.356787
O6	O	1.050405	-0.264286	-0.402300
O7	O	0.948268	-0.341689	-0.191239
O8	O	0.871076	-0.162296	-0.311345
O9	O	1.050341	-0.341635	-0.311310
O10	O	0.948415	-0.162255	-0.402321
O11	O	0.870992	-0.264382	-0.191255
O12	O	0.768965	-0.264364	-0.311298
O13	O	0.871010	-0.341605	-0.522309
O14	O	0.768937	-0.341659	-0.402239
O15	O	0.948378	-0.264269	-0.522344
O16	O	0.948230	-0.443704	-0.311263
O17	O	0.870926	-0.443691	-0.402218
C18	C	0.746110	-0.303016	-0.356766
C19	C	0.676142	-0.303045	-0.356775
C20	C	0.643331	-0.262835	-0.404227
C21	C	0.577589	-0.262818	-0.404230
C22	C	0.544660	-0.303022	-0.356788
C23	C	0.577479	-0.343235	-0.309327
C24	C	0.643220	-0.343246	-0.309320
N25	N	0.441385	-0.358101	-0.351001
N26	N	0.378934	-0.358088	-0.351012
C27	C	0.346585	-0.302989	-0.356804
N28	N	0.379047	-0.247902	-0.362600
N29	N	0.441504	-0.247916	-0.362593
C30	C	0.473374	-0.303014	-0.356790
C31	C	0.242488	-0.262758	-0.404262
C32	C	0.176745	-0.262740	-0.404260
C33	C	0.176636	-0.343162	-0.309361
C34	C	0.242378	-0.343175	-0.309359
C35	C	0.275301	-0.302973	-0.356814
C36	C	0.909582	-0.466538	-0.356749
C37	C	0.909605	-0.536506	-0.356758
C38	C	0.949853	-0.569294	-0.404163
C39	C	0.949875	-0.635037	-0.404181
C40	C	0.909656	-0.667988	-0.356781
C41	C	0.869401	-0.635192	-0.309373
C42	C	0.869375	-0.569451	-0.309362
N43	N	0.904902	-0.771257	-0.291969
N44	N	0.904929	-0.833708	-0.291983
C45	C	0.909730	-0.866063	-0.356815
N46	N	0.914513	-0.833607	-0.421635
N47	N	0.914488	-0.771150	-0.421621
C48	C	0.909679	-0.739274	-0.356789
C49	C	0.950003	-0.970137	-0.404243
C50	C	0.950021	-1.035880	-0.404263
C51	C	0.869550	-1.036035	-0.309448
C52	C	0.869529	-0.970293	-0.309436
C53	C	0.909759	-0.937347	-0.356832
C54	C	1.073852	-0.302956	-0.356808
C55	C	1.143820	-0.302944	-0.356817
C56	C	0.909699	-0.302929	-0.549949
C57	C	0.909715	-0.302904	-0.632263
C58	C	0.909760	-0.138796	-0.356841
C59	C	0.909801	-0.068828	-0.356864
C60	C	0.909749	-0.302865	-0.931354
C61	C	0.958587	-0.254378	-0.900051
C62	C	0.958435	-0.254199	-0.814433
C63	C	0.909733	-0.302884	-0.782971
C64	C	0.843417	-0.284879	-0.814046
C65	C	0.843710	-0.284515	-0.899692
C66	C	0.926643	-0.369482	-0.899762
C67	C	0.928098	-0.369142	-0.814112
C68	C	0.909720	-0.302897	-0.699112
C69	C	0.909758	-0.302851	-1.015214
C70	C	0.909661	-0.302998	-0.164376
C71	C	0.909767	-0.302845	-0.082063
H72	H	0.550869	-0.230071	-0.442870
H73	H	0.828835	-0.236724	-0.792611
H74	H	0.836600	-0.542755	-0.270758
H75	H	0.550664	-0.375968	-0.270699
H76	H	0.269295	-0.230020	-0.442898
O77	O	0.830302	-0.667268	-0.263431
C78	C	0.789629	-0.705305	-0.305558
H79	H	0.811808	-0.715091	-0.361705
H80	H	0.742965	-0.680018	-0.313642
C81	C	0.751036	-0.755772	-0.195848
C82	C	0.778279	-0.767796	-0.264807
H83	H	0.744031	-0.794319	-0.170710
H84	H	0.778435	-0.730145	-0.167465
H85	H	0.712152	-0.734699	-0.202594
H86	H	0.817165	-0.788862	-0.258059
H87	H	0.750885	-0.793429	-0.293187
H88	H	0.976901	-0.382720	-0.793801
O89	O	0.675067	-0.382401	-0.263305
C90	C	0.658934	-0.445153	-0.279343
H91	H	0.640877	-0.448388	-0.338499
H92	H	0.620746	-0.461559	-0.239604
C93	C	0.739469	-0.483194	-0.197978
C94	C	0.717295	-0.487168	-0.270636
H95	H	0.775467	-0.509113	-0.192603
H96	H	0.750337	-0.440918	-0.187170
H97	H	0.707640	-0.496865	-0.164870
H98	H	0.749121	-0.473490	-0.303741
H99	H	0.706434	-0.529444	-0.281449
H100	H	1.007609	-0.265473	-0.793424
H101	H	0.982759	-0.943312	-0.442839
O102	O	0.945502	-0.195836	-0.925826
C103	C	0.997304	-0.172967	-0.966258
H104	H	1.026696	-0.214142	-0.986768
H105	H	1.027266	-0.141736	-0.929197
C106	C	0.937611	-0.083982	-1.007590
C107	C	0.973708	-0.134554	-1.032787
H108	H	0.923058	-0.060285	-1.048627
H109	H	0.902712	-0.099388	-0.980348
H110	H	0.962586	-0.057963	-0.976706
H111	H	0.948732	-0.160576	-1.063663
H112	H	1.008603	-0.119152	-1.060036
H113	H	0.836758	-0.943595	-0.270831
H114	H	0.806084	-0.318295	-0.920397
O115	O	0.888828	-0.414598	-0.788496
C116	C	0.923704	-0.459642	-0.748827
H117	H	0.969296	-0.437560	-0.728447
H118	H	0.934957	-0.501063	-0.786425
C119	C	0.829018	-0.509838	-0.707262
C120	C	0.885012	-0.482716	-0.682227
H121	H	0.805150	-0.524075	-0.666182
H122	H	0.805521	-0.479494	-0.733990
H123	H	0.838403	-0.544353	-0.738595
H124	H	0.875626	-0.448198	-0.650903
H125	H	0.908506	-0.513056	-0.655492
H126	H	0.891075	-0.405610	-0.920010
O127	O	0.945013	-0.195369	-0.789919
C128	C	0.889854	-0.197015	-0.746856
H129	H	0.882526	-0.246501	-0.724380
H130	H	0.847937	-0.183207	-0.782481
C131	C	0.905124	-0.089840	-0.709656
C132	C	0.896126	-0.150618	-0.682046
H133	H	0.908991	-0.061218	-0.669680
H134	H	0.942285	-0.088729	-0.738671
H135	H	0.870191	-0.078342	-0.739344
H136	H	0.931062	-0.162118	-0.652367
H137	H	0.858972	-0.151729	-0.653025
H138	H	1.007923	-0.265513	-0.920652
H139	H	0.982608	-0.542472	-0.442757
H140	H	0.150031	-0.229993	-0.442900
O141	O	0.675213	-0.223719	-0.450339
C142	C	0.632150	-0.188234	-0.492234
H143	H	0.585278	-0.186020	-0.461911
H144	H	0.625160	-0.211341	-0.548431
C145	C	0.715440	-0.123970	-0.540287
C146	C	0.657872	-0.121246	-0.503042
H147	H	0.731306	-0.082649	-0.546958
H148	H	0.744453	-0.147878	-0.512064
H149	H	0.709607	-0.143228	-0.587114
H150	H	0.663707	-0.101996	-0.456212
H151	H	0.628860	-0.097333	-0.531257
H152	H	0.149826	-0.375897	-0.270733
O153	O	0.274284	-0.382151	-0.263193
C154	C	0.312342	-0.346272	-0.215447
H155	H	0.292576	-0.296686	-0.210977
H156	H	0.362175	-0.344135	-0.238347
C157	C	0.337575	-0.437854	-0.143886
C158	C	0.313295	-0.376952	-0.138391
H159	H	0.338165	-0.456779	-0.096355
H160	H	0.311936	-0.462027	-0.176054
H161	H	0.379100	-0.436065	-0.162972
H162	H	0.271767	-0.378743	-0.119314
H163	H	0.338926	-0.352780	-0.106217
O164	O	0.983366	-0.388922	-0.925577
C165	C	1.008654	-0.342587	-0.972664
H166	H	0.986916	-0.295109	-0.958900
H167	H	0.997806	-0.355108	-1.032542
C168	C	1.106993	-0.397506	-0.978714
C169	C	1.080298	-0.339193	-0.961804
H170	H	1.151187	-0.395414	-0.972019
H171	H	1.089955	-0.428725	-0.946993
H172	H	1.097947	-0.407935	-1.028612
H173	H	1.089338	-0.328769	-0.911905
H174	H	1.097339	-0.307973	-0.993517
H175	H	0.982644	-0.661738	-0.442792
H176	H	0.829388	-0.235819	-0.919686
O177	O	0.989181	-1.067635	-0.450336
C178	C	1.024671	-1.024456	-0.492174
H179	H	1.026844	-0.977611	-0.461834
H180	H	1.001597	-1.017453	-0.548397
C181	C	1.089005	-1.107565	-0.540177
C182	C	1.091678	-1.050031	-0.502910
H183	H	1.130337	-1.123341	-0.546803
H184	H	1.065093	-1.136656	-0.511993
H185	H	1.069774	-1.101721	-0.587026
H186	H	1.110902	-1.055876	-0.456059
H187	H	1.115595	-1.020941	-0.531087
O188	O	0.830446	-1.068104	-0.263509
C189	C	0.789771	-1.106134	-0.305640
H190	H	0.811952	-1.115921	-0.361787
H191	H	0.743111	-1.080842	-0.313726
C192	C	0.751166	-1.156600	-0.195935
C193	C	0.778411	-1.168625	-0.264893
H194	H	0.744155	-1.195147	-0.170799
H195	H	0.778567	-1.130977	-0.167550
H196	H	0.712285	-1.135522	-0.202683
H197	H	0.817294	-1.189696	-0.258143
H198	H	0.751015	-1.194254	-0.293276
H199	H	0.806041	-0.319107	-0.793665
