data_functionalizedCrystal
_audit_creation_method	'MofGen! by Chris Wilmer'
_symmetry_space_group_name_H-M	'P1'
_symmetry_Int_Tables_number	1
_symmetry_cell_setting	triclinic
loop_
_symmetry_equiv_pos_as_xyz
  x,y,z
_cell_length_a	10.540539
_cell_length_b	10.540539
_cell_length_c	17.766277
_cell_angle_alpha	90.004177
_cell_angle_beta	90.007287
_cell_angle_gamma	84.525492
loop_
_atom_site_label
_atom_site_type_symbol
_atom_site_fract_x
_atom_site_fract_y
_atom_site_fract_z
O1	O	1.685896	0.178903	0.062555
O2	O	1.316483	0.195758	0.062564
O3	O	1.509617	0.002624	0.062558
O4	O	1.492762	0.372037	0.062560
O5	O	1.509583	0.002614	-0.062630
O6	O	1.316449	0.195748	-0.062625
O7	O	1.685862	0.178892	-0.062634
Cu8	Cu	1.501152	0.187319	-0.074060
Cu9	Cu	1.501193	0.187331	0.073990
O10	O	1.492727	0.372027	-0.062628
C11	C	1.269163	0.194489	-0.000029
C12	C	1.128215	0.190707	-0.000026
C13	C	0.944788	0.045790	-0.000319
C14	C	1.091406	0.049624	-0.000029
C15	C	1.066562	0.258608	0.071461
C16	C	0.920017	0.253793	0.071513
C17	C	0.919490	0.256652	-0.070850
C18	C	1.066472	0.257951	-0.071787
C19	C	1.508336	-0.044684	-0.000035
C20	C	1.504554	-0.185632	-0.000031
C21	C	1.359637	-0.369059	0.000254
C22	C	1.363471	-0.222441	-0.000028
C23	C	1.572430	-0.247296	-0.071521
C24	C	1.567615	-0.393840	-0.071581
C25	C	1.570524	-0.394347	0.070782
C26	C	1.571823	-0.247365	0.071727
C27	C	1.733182	0.180161	-0.000039
C28	C	1.874130	0.183943	-0.000037
C29	C	1.494008	0.419335	-0.000034
C30	C	1.497790	0.560283	-0.000033
N31	N	1.501133	0.187310	-0.178190
C32	C	1.586681	0.101833	-0.217580
C33	C	1.586688	0.101827	-0.296381
C34	C	1.501160	0.187320	-0.335791
C35	C	1.415595	0.272804	-0.296392
C36	C	1.415582	0.272799	-0.217592
C37	C	1.485575	0.302785	-0.460628
C38	C	1.485597	0.302791	-0.539427
C39	C	1.501194	0.187336	-0.578837
C40	C	1.516795	0.071869	-0.539439
C41	C	1.516782	0.071864	-0.460639
C42	C	1.501164	0.187335	-0.421236
C43	C	1.586755	0.101845	-0.703672
C44	C	1.586753	0.101838	-0.782476
C45	C	1.415666	0.272826	-0.782485
C46	C	1.415661	0.272823	-0.703683
C47	C	1.501212	0.187334	-0.664282
N48	N	1.501222	0.187331	0.178120
H49	H	0.887929	0.210989	-0.125036
H50	H	1.304119	-0.399271	-0.050723
H51	H	1.088915	0.362216	0.074121
N52	N	1.674108	0.014501	-0.822725
N53	N	1.674083	0.014490	-0.893082
H54	H	1.735767	-0.047205	-0.921511
N55	N	1.289724	-0.404958	0.064556
N56	N	1.188765	-0.456615	0.056013
H57	H	1.139388	-0.481981	0.101428
H58	H	0.914595	-0.009706	0.050662
N59	N	0.859838	0.381074	0.075614
N60	N	0.787944	0.413672	0.129592
H61	H	0.745450	0.503564	0.132496
H62	H	1.472852	0.396808	-0.428546
H63	H	1.346022	0.342432	-0.814571
N64	N	1.117824	0.195697	-0.138127
N65	N	1.199594	0.102154	-0.132635
H66	H	1.235870	0.058183	-0.179487
N67	N	1.513290	-0.433914	0.138767
N68	N	1.577065	-0.504947	0.184009
H69	H	1.536636	-0.532891	0.232022
N70	N	1.673970	0.014416	-0.663379
N71	N	1.670986	-0.102917	-0.672189
H72	H	1.732523	-0.164698	-0.643714
H73	H	0.891822	0.203617	0.124949
N74	N	1.694899	-0.454010	-0.075677
N75	N	1.763970	-0.433348	-0.130668
H76	H	1.853863	-0.475838	-0.133567
H77	H	1.309659	-0.180689	-0.051358
H78	H	1.517423	-0.422044	-0.125019
N79	N	1.120048	0.199472	0.138197
N80	N	1.203554	0.107333	0.133296
H81	H	1.241343	0.065573	0.180427
H82	H	1.525252	-0.204701	-0.124719
N83	N	1.096869	0.386985	-0.077196
N84	N	1.164831	0.431688	-0.028028
H85	H	1.186300	0.522823	-0.031842
H86	H	1.345954	0.342412	-0.328483
N87	N	1.328267	0.360146	-0.663455
N88	N	1.251901	0.436470	-0.698647
H89	H	1.190170	0.498144	-0.670237
H90	H	0.872263	0.358555	-0.071332
N91	N	1.532690	-0.046073	-0.579691
N92	N	1.447621	-0.075381	-0.623664
H93	H	1.458840	-0.158676	-0.652093
N94	N	1.296462	-0.169000	0.064262
N95	N	1.246529	-0.239982	0.109652
H96	H	1.199195	-0.202245	0.155057
N97	N	1.702395	-0.219226	-0.074858
N98	N	1.728291	-0.106067	-0.078010
H99	H	1.820078	-0.086236	-0.080364
N100	N	1.509592	-0.196004	0.138070
N101	N	1.416045	-0.114235	0.132584
H102	H	1.372090	-0.077954	0.179438
N103	N	1.469670	0.420717	-0.579682
N104	N	1.554727	0.450048	-0.623641
H105	H	1.543477	0.533334	-0.652073
N106	N	0.908907	-0.024166	-0.064621
N107	N	0.955615	-0.136452	-0.074439
H108	H	0.930267	-0.185863	-0.119853
H109	H	1.674685	-0.223143	0.076041
H110	H	1.529481	-0.022153	-0.428564
H111	H	1.672428	-0.441573	0.071260
N112	N	1.674182	0.014610	-0.177345
N113	N	1.750632	-0.061633	-0.212530
H114	H	1.812471	-0.123195	-0.184114
N115	N	1.328198	0.360141	-0.177365
N116	N	1.330996	0.477496	-0.186163
H117	H	1.269281	0.539187	-0.157752
N118	N	1.144838	-0.017413	-0.064313
N119	N	1.073850	-0.067366	-0.109705
H120	H	1.111581	-0.114723	-0.155105
N121	N	1.143824	-0.017840	0.064367
N122	N	1.261359	-0.026734	0.075772
H123	H	1.298381	-0.074383	0.121254
N124	N	1.674082	0.014497	-0.336616
N125	N	1.750452	-0.061827	-0.301428
H126	H	1.812176	-0.123504	-0.329841
