data_functionalizedCrystal
_audit_creation_method	'MofGen! by Chris Wilmer'
_symmetry_space_group_name_H-M	'P1'
_symmetry_Int_Tables_number	1
_symmetry_cell_setting	triclinic
loop_
_symmetry_equiv_pos_as_xyz
  x,y,z
_cell_length_a	15.297475
_cell_length_b	21.295417
_cell_length_c	15.296720
_cell_angle_alpha	99.638166
_cell_angle_beta	91.617114
_cell_angle_gamma	80.332118
loop_
_atom_site_label
_atom_site_type_symbol
_atom_site_fract_x
_atom_site_fract_y
_atom_site_fract_z
Zn1	Zn	1.253315	-0.489896	-0.726513
Zn2	Zn	1.278561	-0.580536	-0.580012
Zn3	Zn	1.132199	-0.454534	-0.554760
Zn4	Zn	1.106789	-0.574348	-0.701142
O5	O	1.192716	-0.524829	-0.640607
O6	O	1.379239	-0.519309	-0.728265
O7	O	1.280346	-0.551612	-0.454090
O8	O	1.148333	-0.371150	-0.577592
O9	O	1.397787	-0.585901	-0.620632
O10	O	1.237317	-0.397130	-0.703779
O11	O	1.172814	-0.459039	-0.435537
O12	O	1.006253	-0.453039	-0.552991
O13	O	1.105026	-0.575355	-0.827080
O14	O	0.987585	-0.541066	-0.660538
O15	O	1.212678	-0.513309	-0.845720
O16	O	1.255707	-0.667790	-0.596031
O17	O	1.129506	-0.663244	-0.685025
C18	C	0.965136	-0.492545	-0.601272
C19	C	0.867773	-0.478750	-0.584465
C20	C	1.192609	-0.688359	-0.640538
C21	C	1.192639	-0.758333	-0.640552
C22	C	0.554602	-0.623422	-0.760730
C23	C	0.646080	-0.636386	-0.776518
C24	C	0.701507	-0.596978	-0.728507
C25	C	0.665449	-0.544604	-0.664703
C26	C	0.573963	-0.531641	-0.648908
C27	C	0.720868	-0.505198	-0.616685
C28	C	0.684809	-0.452823	-0.552882
C29	C	0.593332	-0.439862	-0.537090
C30	C	0.537904	-0.479270	-0.585102
C31	C	0.812354	-0.518160	-0.632480
C32	C	0.831715	-0.426380	-0.520659
C33	C	0.740237	-0.413415	-0.504870
C34	C	1.258392	-0.793558	-0.594279
C35	C	1.258429	-0.859308	-0.594306
C36	C	1.192700	-0.889827	-0.640594
C37	C	1.126942	-0.854594	-0.686877
C38	C	1.126911	-0.788847	-0.686856
N39	N	1.114918	-0.982893	-0.634027
N40	N	1.114951	-1.045351	-0.634042
C41	C	1.192790	-1.087921	-0.640661
N42	N	1.270600	-1.065673	-0.647247
N43	N	1.270567	-1.003210	-0.647228
C44	C	1.192726	-0.961119	-0.640622
C45	C	1.258588	-1.194441	-0.594415
C46	C	1.258626	-1.260193	-0.594448
C47	C	1.127132	-1.255477	-0.687013
C48	C	1.127101	-1.189727	-0.686986
C49	C	1.192829	-1.159213	-0.640682
C50	C	1.421184	-0.557239	-0.680096
C51	C	1.518543	-0.571051	-0.696923
C52	C	1.153201	-0.547586	-0.869070
C53	C	1.136362	-0.557284	-0.966428
C54	C	1.192843	-0.360665	-0.640699
C55	C	1.192898	-0.290708	-0.640738
C56	C	1.313098	-0.455410	-1.279682
C57	C	1.328925	-0.446300	-1.188211
C58	C	1.280785	-0.474045	-1.132761
C59	C	1.216817	-0.510902	-1.168791
C60	C	1.200994	-0.520017	-1.260272
C61	C	1.168681	-0.538652	-1.113350
C62	C	1.104713	-0.575509	-1.149380
C63	C	1.088892	-0.584622	-1.240852
C64	C	1.137031	-0.556877	-1.296302
C65	C	1.184504	-0.529537	-1.021869
C66	C	1.072400	-0.594144	-1.002458
C67	C	1.056573	-0.603254	-1.093930
C68	C	1.232127	-0.502121	-0.413041
C69	C	1.249136	-0.492270	-0.315713
H70	H	0.775992	-0.607537	-0.741366
H71	H	1.293675	-0.466626	-1.058281
C72	C	1.307542	-0.382735	-1.384718
C73	C	1.366010	-0.424919	-1.340633
H74	H	1.340214	-0.363908	-1.422344
H75	H	1.267192	-0.405993	-1.419261
H76	H	1.275578	-0.349688	-1.342445
H77	H	1.397970	-0.457969	-1.382907
H78	H	1.406376	-0.401659	-1.306089
H79	H	1.073367	-0.760165	-0.724538
H80	H	1.312110	-1.169596	-0.556715
H81	H	1.312175	-1.288874	-0.556770
H82	H	0.675432	-0.679031	-0.828465
H83	H	1.311976	-0.887995	-0.556626
H84	H	1.236587	-0.499527	-0.992543
C85	C	1.464530	-0.443996	-1.105681
C86	C	1.399207	-0.405771	-1.148590
H87	H	1.507916	-0.418967	-1.081219
H88	H	1.438122	-0.459221	-1.059584
H89	H	1.491864	-0.479718	-1.147145
H90	H	1.371869	-0.370051	-1.107123
H91	H	1.425619	-0.390536	-1.194692
C92	C	0.402992	-0.403101	-0.584979
C93	C	0.437345	-0.465031	-0.567753
H94	H	0.340909	-0.394318	-0.574276
H95	H	0.430822	-0.372139	-0.547245
H96	H	0.413934	-0.400852	-0.645107
H97	H	0.426409	-0.467279	-0.507623
H98	H	0.409506	-0.496002	-0.605488
H99	H	1.073426	-0.879448	-0.724567
H100	H	0.563978	-0.397221	-0.485129
H101	H	0.710865	-0.370771	-0.452921
C102	C	0.982552	-0.645912	-1.225541
C103	C	0.986268	-0.643772	-1.133542
H104	H	0.939152	-0.670930	-1.249995
H105	H	0.967172	-0.603302	-1.238334
H106	H	1.038810	-0.664966	-1.250689
H107	H	0.930011	-0.624714	-1.108394
H108	H	1.001642	-0.686390	-1.120742
C109	C	0.405768	-0.644295	-0.786157
C110	C	0.493676	-0.666735	-0.813497
H111	H	0.368155	-0.671036	-0.818741
H112	H	0.400951	-0.645452	-0.724697
H113	H	0.388575	-0.601182	-0.796507
H114	H	0.510871	-0.709847	-0.803142
H115	H	0.498497	-0.665585	-0.874972
H116	H	0.876845	-0.394291	-0.481562
C117	C	1.068794	-1.354165	-0.728147
C118	C	1.054882	-1.289016	-0.737897
H119	H	1.024187	-1.374871	-0.759561
H120	H	1.125410	-1.374517	-0.751187
H121	H	1.066205	-1.357288	-0.667079
H122	H	1.057478	-1.285893	-0.798966
H123	H	0.998252	-1.268658	-0.714861
C124	C	1.388374	-0.804831	-0.502793
C125	C	1.330649	-0.760020	-0.543397
H126	H	1.432987	-0.784125	-0.471388
H127	H	1.356050	-0.821757	-0.462671
H128	H	1.415246	-0.838996	-0.546786
H129	H	1.303772	-0.725858	-0.499403
H130	H	1.362978	-0.743085	-0.583522
C131	C	0.997124	-1.191669	-0.778469
C132	C	1.054813	-1.151000	-0.737837
H133	H	0.952492	-1.167758	-0.809860
H134	H	1.029470	-1.226022	-0.818607
H135	H	0.970274	-1.208798	-0.734492
H136	H	1.081668	-1.133874	-0.781816
H137	H	1.022462	-1.116635	-0.697696
C138	C	1.136642	-0.632968	-1.431170
C139	C	1.119636	-0.566892	-1.396853
H140	H	1.125899	-0.639148	-1.493246
H141	H	1.196733	-0.649802	-1.420244
H142	H	1.098814	-0.654764	-1.403303
H143	H	1.157469	-0.545096	-1.424716
H144	H	1.059536	-0.550050	-1.407788
H145	H	1.036812	-0.614639	-1.270186
C146	C	1.046868	-0.608855	-0.853615
C147	C	1.019476	-0.624642	-0.941515
H148	H	1.014194	-0.627680	-0.815989
H149	H	1.108299	-0.624923	-0.848794
H150	H	1.036672	-0.563253	-0.836445
H151	H	1.029678	-0.670244	-0.958687
H152	H	0.958031	-0.608577	-0.946340
H153	H	0.841704	-0.560804	-0.684430
