data_functionalizedCrystal
_audit_creation_method	'MofGen! by Chris Wilmer'
_symmetry_space_group_name_H-M	'P1'
_symmetry_Int_Tables_number	1
_symmetry_cell_setting	triclinic
loop_
_symmetry_equiv_pos_as_xyz
  x,y,z
_cell_length_a	10.654556
_cell_length_b	19.188924
_cell_length_c	9.130313
_cell_angle_alpha	89.993420
_cell_angle_beta	89.998135
_cell_angle_gamma	83.814751
loop_
_atom_site_label
_atom_site_type_symbol
_atom_site_fract_x
_atom_site_fract_y
_atom_site_fract_z
O1	O	1.665755	0.098083	-0.121751
O2	O	1.300079	0.107421	-0.121767
O3	O	1.493474	0.001166	-0.121742
O4	O	1.472360	0.204339	-0.121777
O5	O	1.493461	0.001162	0.121857
O6	O	1.300066	0.107418	0.121832
O7	O	1.665742	0.098080	0.121847
Cu8	Cu	1.482903	0.102749	0.144082
Cu9	Cu	1.482918	0.102753	-0.144002
O10	O	1.472347	0.204336	0.121822
C11	C	1.253290	0.106733	0.000030
C12	C	1.113890	0.104679	0.000025
C13	C	0.917413	0.101789	-0.132749
C14	C	1.048395	0.103714	-0.132758
C15	C	1.048399	0.103711	0.132826
C16	C	0.917421	0.101780	0.132834
C17	C	1.492785	-0.024852	0.000059
C18	C	1.490737	-0.102370	0.000063
C19	C	1.489789	-0.138773	-0.132723
C20	C	1.487846	-0.211609	-0.132734
C21	C	1.486878	-0.248040	0.000048
C22	C	1.487820	-0.211627	0.132852
C23	C	1.489749	-0.138792	0.132859
N24	N	1.555305	-0.367256	0.098878
N25	N	1.553475	-0.436446	0.098862
C26	C	1.481061	-0.467487	0.000034
N27	N	1.410563	-0.426725	-0.098800
N28	N	1.412399	-0.357528	-0.098788
C29	C	1.484785	-0.327017	0.000055
C30	C	1.478004	-0.582867	-0.132774
C31	C	1.476054	-0.655703	-0.132779
C32	C	1.476041	-0.655721	0.132810
C33	C	1.477978	-0.582885	0.132812
C34	C	1.478966	-0.546463	0.000016
C35	C	1.712532	0.098768	0.000047
C36	C	1.851931	0.100823	0.000042
C37	C	1.473036	0.230353	0.000018
C38	C	1.475084	0.307871	0.000004
N39	N	1.482901	0.102746	0.346705
N40	N	1.482930	0.102750	-0.346625
C41	C	1.568565	0.055716	0.423368
C42	C	1.568577	0.055716	0.576705
C43	C	1.397257	0.149783	0.576702
C44	C	1.397240	0.149778	0.423368
H45	H	0.864104	0.100993	0.240976
N46	N	1.660933	0.004988	0.340660
H47	H	1.750017	0.013487	0.367317
H48	H	1.646641	-0.044617	0.367393
N49	N	1.490849	-0.099489	-0.275947
H50	H	1.489952	-0.133607	-0.360069
H51	H	1.413818	-0.063986	-0.281737
H52	H	1.478761	-0.553245	0.240941
N53	N	1.474983	-0.695002	0.276030
H54	H	1.473612	-0.746667	0.255879
H55	H	1.553147	-0.687560	0.334026
H56	H	1.487066	-0.241254	-0.240868
N57	N	1.119009	0.104760	-0.275992
H58	H	1.162937	0.148763	-0.281924
H59	H	1.183702	0.062326	-0.281830
H60	H	1.327516	0.188076	0.639136
H61	H	1.638330	0.017419	0.639120
N62	N	1.304832	0.200500	0.340667
H63	H	1.250573	0.230298	0.412497
H64	H	1.352717	0.231615	0.277020
H65	H	1.101737	0.104492	0.240941
N66	N	0.846775	0.100753	-0.275967
H67	H	0.908139	0.101655	-0.360090
H68	H	0.802851	0.056747	-0.281737
H69	H	1.487028	-0.241293	0.240964
N70	N	1.475062	-0.694990	-0.275984
H71	H	1.552097	-0.730490	-0.281836
H72	H	1.396390	-0.719888	-0.281829
N73	N	1.490776	-0.099523	0.276084
H74	H	1.489865	-0.133651	0.360204
H75	H	1.569411	-0.074591	0.281873
H76	H	1.478802	-0.553210	-0.240904
