data_functionalizedCrystal
_audit_creation_method	'MofGen! by Chris Wilmer'
_symmetry_space_group_name_H-M	'P1'
_symmetry_Int_Tables_number	1
_symmetry_cell_setting	triclinic
loop_
_symmetry_equiv_pos_as_xyz
  x,y,z
_cell_length_a	19.188925
_cell_length_b	19.188930
_cell_length_c	11.892095
_cell_angle_alpha	93.870839
_cell_angle_beta	86.113334
_cell_angle_gamma	83.143665
loop_
_atom_site_label
_atom_site_type_symbol
_atom_site_fract_x
_atom_site_fract_y
_atom_site_fract_z
O1	O	0.930627	0.082670	-0.094040
O2	O	1.430627	0.582670	0.405960
O3	O	0.727315	0.094409	-0.094038
O4	O	1.227315	0.594409	0.405962
O5	O	0.834837	-0.013115	-0.094017
O6	O	1.334837	0.486885	0.405983
O7	O	0.823105	0.190194	-0.094061
O8	O	1.323105	0.690194	0.405939
O9	O	0.825872	-0.004164	0.093989
O10	O	1.325872	0.495836	0.593989
O11	O	0.718350	0.103360	0.093967
O12	O	1.218350	0.603360	0.593967
O13	O	0.921662	0.091622	0.093966
O14	O	1.421662	0.591622	0.593966
Zn15	Zn	0.818583	0.098912	0.123817
Zn16	Zn	1.318583	0.598912	0.623817
Zn17	Zn	0.830394	0.087118	-0.123889
Zn18	Zn	1.330394	0.587118	0.376111
O19	O	0.814140	0.199146	0.093945
O20	O	1.314140	0.699146	0.593945
C21	C	0.696821	0.098505	-0.000035
C22	C	1.196821	0.598505	0.499965
C23	C	0.619317	0.097366	-0.000034
C24	C	1.119317	0.597366	0.499966
C25	C	0.057547	0.152829	-0.000048
C26	C	0.557547	0.652829	0.499952
C27	C	0.130371	0.153905	-0.000055
C28	C	0.630371	0.653905	0.499945
C29	C	0.175304	0.090814	-0.000039
C30	C	0.675304	0.590814	0.499961
C31	C	0.147411	0.026640	-0.000046
C32	C	0.647411	0.526640	0.499954
C33	C	0.074589	0.025565	-0.000051
C34	C	0.574589	0.525565	0.499949
N35	N	0.292929	0.048185	0.063970
N36	N	0.792929	0.548185	0.563970
N37	N	0.362106	0.049211	0.063977
N38	N	0.862106	0.549211	0.563977
C39	C	0.394713	0.094049	-0.000026
C40	C	0.894713	0.594049	0.499974
N41	N	0.355527	0.137833	-0.064022
N42	N	0.855527	0.637833	0.435978
N43	N	0.286343	0.136810	-0.064024
N44	N	0.786343	0.636810	0.435976
C45	C	0.254268	0.091972	-0.000034
C46	C	0.754268	0.591972	0.499966
C47	C	0.501562	0.159385	-0.000034
C48	C	1.001562	0.659385	0.499966
C49	C	0.574388	0.160458	-0.000047
C50	C	1.074388	0.660458	0.499953
C51	C	0.591426	0.033192	-0.000027
C52	C	1.091426	0.533192	0.499973
C53	C	0.518602	0.032120	-0.000025
C54	C	1.018602	0.532120	0.499975
C55	C	0.473674	0.095218	-0.000023
C56	C	0.973674	0.595218	0.499977
C57	C	0.829974	-0.034650	-0.000011
C58	C	1.329974	0.465350	0.499989
C59	C	0.828833	-0.112154	-0.000001
C60	C	1.328833	0.387846	0.499999
C61	C	0.891924	-0.157079	0.000004
C62	C	1.391924	0.342921	0.500004
C63	C	0.890853	-0.229904	-0.000014
C64	C	1.390853	0.270096	0.499986
C65	C	0.826687	-0.257799	-0.000015
C66	C	1.326687	0.242201	0.499985
C67	C	0.763588	-0.212865	-0.000026
C68	C	1.263588	0.287135	0.499974
C69	C	0.764661	-0.140042	-0.000019
C70	C	1.264661	0.359958	0.499981
N71	N	0.774588	-0.362757	0.063968
N72	N	1.274588	0.137243	0.563968
N73	N	0.773573	-0.431936	0.063964
N74	N	1.273573	0.068064	0.563964
C75	C	0.823450	-0.477209	-0.000038
C76	C	1.323450	0.022791	0.499962
N77	N	0.874390	-0.450691	-0.064020
N78	N	1.374390	0.049309	0.435980
N79	N	0.875407	-0.381506	-0.064011
N80	N	1.375407	0.118494	0.435989
C81	C	0.825516	-0.336762	-0.000023
C82	C	1.325516	0.163238	0.499977
C83	C	0.885384	-0.601099	-0.000054
C84	C	1.385384	-0.101099	0.499946
C85	C	0.884311	-0.673925	-0.000079
C86	C	1.384311	-0.173925	0.499921
C87	C	0.757043	-0.656884	-0.000079
C88	C	1.257043	-0.156884	0.499921
C89	C	0.758119	-0.584060	-0.000066
C90	C	1.258119	-0.084060	0.499934
C91	C	0.822291	-0.556172	-0.000047
C92	C	1.322291	-0.056172	0.499953
C93	C	0.952156	0.087525	-0.000040
C94	C	1.452156	0.587525	0.499960
C95	C	1.029661	0.088664	-0.000049
C96	C	1.529661	0.588664	0.499951
C97	C	0.819003	0.220681	-0.000064
C98	C	1.319003	0.720681	0.499936
C99	C	0.820144	0.298184	-0.000081
C100	C	1.320144	0.798184	0.499919
N101	N	0.810526	0.106961	0.292869
N102	N	1.310526	0.606961	0.792869
N103	N	0.838456	0.079064	-0.292942
N104	N	1.338456	0.579064	0.207058
C105	C	0.894514	0.023019	0.529534
C106	C	1.394514	0.523019	1.029534
C107	C	0.888888	0.028650	0.647874
C108	C	1.388888	0.528650	1.147874
C109	C	0.793645	0.123850	0.647894
C110	C	1.293645	0.623850	1.147894
C111	C	0.799271	0.118219	0.529553
C112	C	1.299271	0.618219	1.029553
C113	C	0.849708	0.067802	0.470377
C114	C	1.349708	0.567802	0.970377
C115	C	0.855337	0.062175	0.352034
C116	C	1.355337	0.562175	0.852034
C117	C	0.760092	0.157371	0.352055
C118	C	1.260092	0.657371	0.852055
C119	C	0.754466	0.163002	0.470396
C120	C	1.254466	0.663002	0.970396
H121	H	0.464980	0.210763	-0.000035
H122	H	0.964980	0.710763	0.499965
H123	H	0.706743	-0.547481	-0.000063
H124	H	1.206743	-0.047481	0.499937
C125	C	0.910816	0.006725	0.286936
C126	C	1.410816	0.506725	0.786936
H127	H	0.907757	0.009790	0.207984
H128	H	1.407757	0.509790	0.707984
H129	H	0.902458	-0.038932	0.306338
H130	H	1.402458	0.461068	0.806338
H131	H	0.956468	0.015120	0.306317
H132	H	1.456468	0.515120	0.806317
H133	H	0.752577	0.164893	0.696090
H134	H	1.252577	0.664893	1.196090
C135	C	0.605066	0.231041	-0.000055
C136	C	1.105066	0.731041	0.499945
H137	H	0.654872	0.222645	-0.000068
H138	H	1.154872	0.722645	0.499932
H139	H	0.586507	0.260129	0.065504
H140	H	1.086507	0.760129	0.565504
H141	H	0.592756	0.253889	-0.065627
H142	H	1.092756	0.753889	0.434373
C143	C	0.196834	-0.042758	-0.000024
C144	C	0.696834	0.457242	0.499976
H145	H	0.244198	-0.032928	-0.000009
H146	H	0.744198	0.467072	0.499991
H147	H	0.191531	-0.072200	-0.065583
H148	H	0.691531	0.427800	0.434417
H149	H	0.185269	-0.065957	0.065549
H150	H	0.685269	0.434043	0.565549
C151	C	0.043909	-0.045017	-0.000049
C152	C	0.543909	0.454983	0.499951
H153	H	-0.005896	-0.036621	-0.000060
H154	H	0.494104	0.463379	0.499940
H155	H	0.056217	-0.067871	0.065512
H156	H	0.556217	0.432129	0.565512
H157	H	0.062470	-0.074102	-0.065619
H158	H	0.562470	0.425898	0.434381
C159	C	0.710803	0.206638	0.286986
C160	C	1.210803	0.706638	0.786986
H161	H	0.679965	0.237472	0.339182
H162	H	1.179965	0.737472	0.839182
H163	H	0.684011	0.179404	0.240831
H164	H	1.184011	0.679404	0.740831
H165	H	0.738032	0.233444	0.240814
H166	H	1.238032	0.733444	0.740814
C167	C	0.695260	-0.090620	-0.000022
C168	C	1.195260	0.409380	0.499978
H169	H	0.705090	-0.043255	-0.000023
H170	H	1.205090	0.456745	0.499977
H171	H	0.665809	-0.095940	0.065534
H172	H	1.165809	0.404060	0.565534
H173	H	0.672071	-0.102167	-0.065598
H174	H	1.172071	0.397833	0.434402
H175	H	0.628011	-0.018179	-0.000023
H176	H	1.128011	0.481821	0.499977
C177	C	0.487924	-0.038462	-0.000007
C178	C	0.987924	0.461538	0.499993
H179	H	0.525113	-0.075883	0.000011
H180	H	1.025113	0.424117	0.500011
H181	H	0.462997	-0.044649	-0.065567
H182	H	0.962997	0.455351	0.434433
H183	H	0.456744	-0.038403	0.065564
H184	H	0.956744	0.461597	0.565564
H185	H	0.020971	0.204209	-0.000052
H186	H	0.520971	0.704209	0.499948
H187	H	0.153080	0.206158	-0.000043
H188	H	0.653080	0.706158	0.499957
H189	H	0.944178	-0.134378	0.000015
H190	H	1.444178	0.365622	0.500015
C191	C	0.960255	-0.279330	-0.000001
C192	C	1.460255	0.220670	0.499999
H193	H	0.998626	-0.252290	0.000018
H194	H	1.498626	0.247710	0.500018
H195	H	0.965612	-0.311209	-0.065561
H196	H	1.465612	0.188791	0.434439
H197	H	0.959346	-0.304973	0.065571
H198	H	1.459346	0.195027	0.565571
H199	H	0.935586	-0.018028	0.481352
H200	H	1.435586	0.481972	0.981352
H201	H	0.925372	-0.007818	0.696037
H202	H	1.425372	0.492182	1.196037
H203	H	0.937637	-0.578392	-0.000044
H204	H	1.437637	-0.078392	0.499956
C205	C	0.953714	-0.723343	-0.000071
C206	C	1.453714	-0.223343	0.499929
H207	H	0.992083	-0.696301	-0.000049
H208	H	1.492083	-0.196301	0.499951
H209	H	0.959074	-0.755220	-0.065636
H210	H	1.459074	-0.255220	0.434364
H211	H	0.952808	-0.748991	0.065496
H212	H	1.452808	-0.248991	0.565496
H213	H	0.711344	-0.235582	-0.000029
H214	H	1.211344	0.264418	0.499971
C215	C	0.686462	-0.687560	-0.000083
C216	C	1.186462	-0.187560	0.499917
H217	H	0.694857	-0.737365	-0.000082
H218	H	1.194857	-0.237365	0.499918
H219	H	0.663619	-0.675237	-0.065643
H220	H	1.163619	-0.175237	0.434357
H221	H	0.657367	-0.669013	0.065488
H222	H	1.157367	-0.169013	0.565488
H223	H	0.713399	0.204049	0.518591
H224	H	1.213399	0.704049	1.018591
