data_functionalizedCrystal
_audit_creation_method	'MofGen! by Chris Wilmer'
_symmetry_space_group_name_H-M	'P1'
_symmetry_Int_Tables_number	1
_symmetry_cell_setting	triclinic
loop_
_symmetry_equiv_pos_as_xyz
  x,y,z
_cell_length_a	13.101039
_cell_length_b	14.044220
_cell_length_c	14.044220
_cell_angle_alpha	93.188878
_cell_angle_beta	93.667477
_cell_angle_gamma	86.340132
loop_
_atom_site_label
_atom_site_type_symbol
_atom_site_fract_x
_atom_site_fract_y
_atom_site_fract_z
O1	O	0.085109	-1.281968	-0.225348
O2	O	0.335109	-1.031968	0.024652
O3	O	0.585109	-0.781968	0.274652
O4	O	0.835109	-0.531968	0.524652
O5	O	0.085135	-1.005298	-0.217041
O6	O	0.335135	-0.755298	0.032959
O7	O	0.585135	-0.505298	0.282959
O8	O	0.835135	-0.255298	0.532959
O9	O	0.085112	-1.139480	-0.082860
O10	O	0.335112	-0.889480	0.167140
O11	O	0.585112	-0.639480	0.417140
O12	O	0.835112	-0.389480	0.667140
O13	O	0.085132	-1.147787	-0.359530
O14	O	0.335132	-0.897787	-0.109530
O15	O	0.585132	-0.647787	0.140470
O16	O	0.835132	-0.397787	0.390470
O17	O	-0.085316	-1.129854	-0.092504
O18	O	0.164684	-0.879854	0.157496
O19	O	0.414684	-0.629854	0.407496
O20	O	0.664684	-0.379854	0.657496
O21	O	-0.085293	-0.995673	-0.226686
O22	O	0.164707	-0.745673	0.023314
O23	O	0.414707	-0.495673	0.273314
O24	O	0.664707	-0.245673	0.523314
O25	O	-0.085319	-1.272343	-0.234993
O26	O	0.164681	-1.022343	0.015007
O27	O	0.414681	-0.772343	0.265007
O28	O	0.664681	-0.522343	0.515007
Zn29	Zn	-0.112365	-1.132479	-0.232371
Zn30	Zn	0.137635	-0.882479	0.017629
Zn31	Zn	0.387635	-0.632479	0.267629
Zn32	Zn	0.637635	-0.382479	0.517629
Zn33	Zn	0.112181	-1.145162	-0.219663
Zn34	Zn	0.362181	-0.895162	0.030337
Zn35	Zn	0.612181	-0.645162	0.280337
Zn36	Zn	0.862181	-0.395162	0.530337
O37	O	-0.085296	-1.138161	-0.369175
O38	O	0.164704	-0.888161	-0.119175
O39	O	0.414704	-0.638161	0.130825
O40	O	0.664704	-0.388161	0.380825
C41	C	-0.000076	-0.964864	-0.218228
C42	C	0.249924	-0.714864	0.031772
C43	C	0.499924	-0.464864	0.281772
C44	C	0.749924	-0.214864	0.531772
C45	C	-0.000066	-0.858722	-0.207383
C46	C	0.249934	-0.608722	0.042617
C47	C	0.499934	-0.358722	0.292617
C48	C	0.749934	-0.108722	0.542617
C49	C	-0.000102	-1.131031	-0.052060
C50	C	0.249898	-0.881031	0.197940
C51	C	0.499898	-0.631031	0.447940
C52	C	0.749898	-0.381031	0.697940
C53	C	-0.000102	-1.120187	0.054083
C54	C	0.249898	-0.870187	0.304083
C55	C	0.499898	-0.620187	0.554083
C56	C	0.749898	-0.370187	0.804083
N57	N	-0.265612	-1.123831	-0.241043
N58	N	-0.015612	-0.873831	0.008957
N59	N	0.234388	-0.623831	0.258957
N60	N	0.484388	-0.373831	0.508957
C61	C	-0.474653	-1.112065	-0.252851
C62	C	-0.224653	-0.862065	-0.002851
C63	C	0.025347	-0.612065	0.247149
C64	C	0.275347	-0.362065	0.497149
C65	C	-0.525538	-1.165580	-0.199179
C66	C	-0.275538	-0.915580	0.050821
C67	C	-0.025538	-0.665580	0.300821
C68	C	0.224462	-0.415580	0.550821
C69	C	-0.641855	-1.159034	-0.205749
C70	C	-0.391855	-0.909034	0.044251
C71	C	-0.141855	-0.659034	0.294251
C72	C	0.108145	-0.409034	0.544251
C73	C	-0.358325	-1.118610	-0.246282
C74	C	-0.108325	-0.868610	0.003718
C75	C	0.141675	-0.618610	0.253718
C76	C	0.391675	-0.368610	0.503718
N77	N	0.265428	-1.153817	-0.210984
N78	N	0.515428	-0.903817	0.039016
N79	N	0.765428	-0.653817	0.289016
N80	N	1.015428	-0.403817	0.539016
C81	C	-0.000106	-1.312777	-0.233806
C82	C	0.249894	-1.062777	0.016194
C83	C	0.499894	-0.812777	0.266194
C84	C	0.749894	-0.562777	0.516194
C85	C	-0.000109	-1.418920	-0.244651
C86	C	0.249891	-1.168920	0.005349
C87	C	0.499891	-0.918920	0.255349
C88	C	0.749891	-0.668920	0.505349
C89	C	-0.000088	-0.664383	-0.187558
C90	C	0.249912	-0.414383	0.062442
C91	C	0.499912	-0.164383	0.312442
C92	C	0.749912	0.085617	0.562442
C93	C	-0.000087	-0.613253	-0.264472
C94	C	0.249913	-0.363253	-0.014472
C95	C	0.499913	-0.113253	0.235528
C96	C	0.749913	0.136747	0.485528
C97	C	-0.000099	-0.505116	-0.253441
C98	C	0.249901	-0.255116	-0.003441
C99	C	0.499901	-0.005116	0.246559
C100	C	0.749901	0.244884	0.496559
C101	C	-0.000076	-0.772529	-0.198587
C102	C	0.249924	-0.522529	0.051413
C103	C	0.499924	-0.272529	0.301413
C104	C	0.749924	-0.022529	0.551413
C105	C	-0.000080	-1.146610	-0.399974
C106	C	0.249920	-0.896610	-0.149974
C107	C	0.499920	-0.646610	0.100026
C108	C	0.749920	-0.396610	0.350026
C109	C	-0.000073	-1.157455	-0.506116
C110	C	0.249927	-0.907455	-0.256116
C111	C	0.499927	-0.657455	-0.006116
C112	C	0.749927	-0.407455	0.243884
C113	C	-0.000086	-1.100362	0.248421
C114	C	0.249914	-0.850362	0.498421
C115	C	0.499914	-0.600362	0.748421
C116	C	0.749914	-0.350362	0.998421
C117	C	-0.000090	-1.177276	0.299551
C118	C	0.249910	-0.927276	0.549551
C119	C	0.499910	-0.677276	0.799551
C120	C	0.749910	-0.427276	1.049551
C121	C	-0.000080	-1.166245	0.407688
C122	C	0.249920	-0.916245	0.657688
C123	C	0.499920	-0.666245	0.907688
C124	C	0.749920	-0.416245	1.157688
C125	C	-0.000095	-1.111391	0.140275
C126	C	0.249905	-0.861391	0.390275
C127	C	0.499905	-0.611391	0.640275
C128	C	0.749905	-0.361391	0.890275
H129	H	-0.481744	-1.216314	-0.148295
H130	H	-0.231744	-0.966314	0.101705
H131	H	0.018256	-0.716314	0.351705
H132	H	0.268256	-0.466314	0.601705
C133	C	-0.000057	-0.663825	-0.364618
C134	C	0.249943	-0.413825	-0.114618
C135	C	0.499943	-0.163825	0.135382
C136	C	0.749943	0.086175	0.385382
H137	H	-0.000038	-0.730926	-0.358993
H138	H	0.249962	-0.480926	-0.108993
H139	H	0.499962	-0.230926	0.141007
H140	H	0.749962	0.019074	0.391007
H141	H	-0.059481	-0.642539	-0.401697
H142	H	0.190519	-0.392539	-0.151697
H143	H	0.440519	-0.142539	0.098303
H144	H	0.690519	0.107461	0.348303
H145	H	0.059391	-0.649224	-0.394941
H146	H	0.309391	-0.399224	-0.144941
H147	H	0.559391	-0.149224	0.105059
H148	H	0.809391	0.100776	0.355059
H149	H	-0.000099	-0.626945	-0.113431
H150	H	0.249901	-0.376945	0.136569
H151	H	0.499901	-0.126945	0.386569
H152	H	0.749901	0.123055	0.636569
C153	C	-0.533802	-1.043511	-0.321568
C154	C	-0.283802	-0.793511	-0.071568
C155	C	-0.033802	-0.543511	0.178432
C156	C	0.216198	-0.293511	0.428432
H157	H	-0.486582	-1.010781	-0.354372
H158	H	-0.236582	-0.760781	-0.104372
H159	H	0.013418	-0.510781	0.145628
H160	H	0.263418	-0.260781	0.395628
H161	H	-0.575668	-1.078945	-0.366503
H162	H	-0.325668	-0.828945	-0.116503
H163	H	-0.075668	-0.578945	0.133497
H164	H	0.174332	-0.328945	0.383497
H165	H	-0.575645	-0.998493	-0.286208
H166	H	-0.325645	-0.748493	-0.036208
H167	H	-0.075645	-0.498493	0.213792
H168	H	0.174355	-0.248493	0.463792
H169	H	-0.000028	-1.251413	0.262115
H170	H	0.249972	-1.001413	0.512115
H171	H	0.499972	-0.751413	0.762115
H172	H	0.749972	-0.501413	1.012115
C173	C	-0.000075	-1.000219	0.298988
C174	C	0.249925	-0.750219	0.548988
C175	C	0.499925	-0.500219	0.798988
C176	C	0.749925	-0.250219	1.048988
H177	H	-0.000067	-0.953407	0.252690
H178	H	0.249933	-0.703407	0.502690
H179	H	0.499933	-0.453407	0.752690
H180	H	0.749933	-0.203407	1.002690
H181	H	-0.059502	-0.989376	0.334380
H182	H	0.190498	-0.739376	0.584380
H183	H	0.440498	-0.489376	0.834380
H184	H	0.690498	-0.239376	1.084380
H185	H	0.059370	-0.996089	0.341088
H186	H	0.309370	-0.746089	0.591088
H187	H	0.559370	-0.496089	0.841088
H188	H	0.809370	-0.246089	1.091088
