data_functionalizedCrystal
_audit_creation_method	'MofGen! by Chris Wilmer'
_symmetry_space_group_name_H-M	'P1'
_symmetry_Int_Tables_number	1
_symmetry_cell_setting	triclinic
loop_
_symmetry_equiv_pos_as_xyz
  x,y,z
_cell_length_a	13.635800
_cell_length_b	10.912902
_cell_length_c	17.078481
_cell_angle_alpha	79.039081
_cell_angle_beta	99.306161
_cell_angle_gamma	107.495303
loop_
_atom_site_label
_atom_site_type_symbol
_atom_site_fract_x
_atom_site_fract_y
_atom_site_fract_z
V1	V	1.914551	-0.177463	0.247355
O2	O	1.987770	0.008836	0.242653
O3	O	1.816370	-0.352176	0.245656
O4	O	1.881289	-0.174598	0.355238
O5	O	1.922402	-0.169971	0.132313
V6	V	2.167125	-0.155195	0.233596
O7	O	2.021461	-0.226308	0.277536
O8	O	2.285313	-0.106350	0.203414
O9	O	2.153703	0.019518	0.235294
O10	O	2.152604	-0.341494	0.238297
O11	O	2.217972	-0.162687	0.348637
O12	O	2.088784	-0.158060	0.125713
V13	V	2.414551	-0.177463	0.247355
O14	O	2.487770	0.008836	0.242653
O15	O	2.316370	-0.352176	0.245656
O16	O	2.381289	-0.174598	0.355238
O17	O	2.422402	-0.169971	0.132313
V18	V	2.667125	-0.155195	0.233596
O19	O	2.521461	-0.226308	0.277536
O20	O	2.785313	-0.106350	0.203414
O21	O	2.653703	0.019518	0.235294
O22	O	2.652604	-0.341494	0.238297
O23	O	2.717972	-0.162687	0.348637
O24	O	2.588784	-0.158060	0.125713
C25	C	2.221166	-0.394771	0.241752
C26	C	2.181474	-0.537600	0.241082
C27	C	2.231204	-0.748537	0.244610
C28	C	2.272587	-0.600056	0.245613
C29	C	2.119450	-0.606723	0.314564
C30	C	2.078827	-0.755397	0.313958
C31	C	2.065207	-0.717307	0.162291
C32	C	2.108438	-0.568586	0.162075
C33	C	1.721166	-0.394771	0.241752
C34	C	1.681474	-0.537600	0.241082
C35	C	1.803977	-0.168251	0.381533
C36	C	1.816934	-0.167064	0.469728
C37	C	2.080575	0.062106	0.239196
C38	C	2.109884	0.204934	0.239871
C39	C	1.997765	-0.164411	0.099413
C40	C	1.974430	-0.165591	0.011217
C41	C	2.303977	-0.168251	0.381533
C42	C	2.316934	-0.167064	0.469728
C43	C	1.910971	-0.172921	0.515204
C44	C	1.923140	-0.171805	0.598072
C45	C	1.841268	-0.164842	0.635464
C46	C	1.747224	-0.158982	0.589982
C47	C	1.735058	-0.160088	0.507115
C48	C	1.868221	-0.160837	0.882867
C49	C	1.880393	-0.159735	0.965741
C50	C	2.056310	-0.172556	0.973826
C51	C	2.044134	-0.173670	0.890957
C52	C	1.950093	-0.167802	0.845481
N53	N	1.853703	-0.163706	0.720169
N54	N	1.937662	-0.168929	0.760777
C55	C	2.580575	0.062106	0.239196
C56	C	2.609884	0.204934	0.239871
C57	C	2.497765	-0.164411	0.099413
C58	C	2.474430	-0.165591	0.011217
C59	C	2.410982	-0.172908	0.515189
C60	C	2.423175	-0.171776	0.598057
C61	C	2.341316	-0.164810	0.635462
C62	C	2.247260	-0.158962	0.589995
C63	C	2.235071	-0.160085	0.507128
C64	C	2.374064	-0.172543	-0.026168
C65	C	2.352127	-0.173636	-0.109039
C66	C	2.430557	-0.167787	-0.154521
C67	C	2.530933	-0.160831	-0.117130
C68	C	2.552869	-0.159729	-0.034263
C69	C	1.518857	-0.732896	0.235662
C70	C	1.560042	-0.584250	0.236044
C71	C	1.713529	-0.576326	0.167098
C72	C	1.671558	-0.724872	0.166318
C73	C	1.685091	-0.763270	0.317984
C74	C	1.724460	-0.614753	0.319586
H75	H	2.320017	-0.552970	0.193092
N76	N	2.524626	-0.178085	0.647079
H77	H	2.539951	-0.261093	0.642123
H78	H	2.519877	-0.176254	0.705229
N79	N	2.158972	-0.151466	0.630350
H80	H	2.097535	-0.147935	0.588982
H81	H	2.181195	-0.070717	0.656854
H82	H	2.351255	-0.163898	0.702939
N83	N	2.133619	-0.153801	0.458109
H84	H	2.103643	-0.233990	0.431257
H85	H	2.145697	-0.073928	0.415883
H86	H	1.999715	-0.176566	0.635094
N87	N	1.962735	-0.796888	0.314002
H88	H	1.928999	-0.837528	0.264400
H89	H	1.938006	-0.718595	0.314410
N90	N	2.267853	-0.781801	0.174572
H91	H	2.206173	-0.827362	0.139090
H92	H	2.313965	-0.840831	0.195193
H93	H	1.524157	-0.531875	0.179679
N94	N	2.157735	-0.178879	1.022872
H95	H	2.153023	-0.177121	1.081043
H96	H	2.215014	-0.101861	1.002452
H97	H	1.658493	-0.155288	0.470086
N98	N	2.615520	-0.154515	-0.166192
H99	H	2.586382	-0.156272	-0.224359
H100	H	2.644009	-0.231536	-0.145780
H101	H	2.270391	-0.179300	-0.139470
H102	H	2.634598	-0.154076	-0.003830
N103	N	1.603471	-0.748179	0.088510
H104	H	1.601328	-0.662041	0.054883
H105	H	1.531177	-0.800203	0.100431
H106	H	1.645012	-0.812719	0.373968
H107	H	1.532882	-0.558421	0.288908
N108	N	1.673047	-0.504591	0.090109
H109	H	1.732921	-0.449465	0.059760
H110	H	1.633927	-0.447046	0.103046
H111	H	2.170692	-0.586467	0.373029
H112	H	2.310190	-0.177305	0.010853
H113	H	2.412678	-0.168702	-0.221995
H114	H	1.471332	-0.779253	0.288200
N115	N	1.444749	-0.760201	0.161063
H116	H	1.469936	-0.812676	0.129998
H117	H	1.440923	-0.675343	0.126494
N118	N	1.761215	-0.779040	0.166166
H119	H	1.827801	-0.706405	0.166601
H120	H	1.750984	-0.820807	0.116410
H121	H	1.801275	-0.546089	0.167951
N122	N	1.692078	-0.583038	0.392096
H123	H	1.649743	-0.518960	0.374177
H124	H	1.755673	-0.543810	0.428217
N125	N	1.841288	-0.574733	0.330539
H126	H	1.868127	-0.505720	0.284560
H127	H	1.866988	-0.652789	0.331638
N128	N	1.775874	-0.817705	0.323122
H129	H	1.768421	-0.862758	0.275131
H130	H	1.777761	-0.882100	0.373963
H131	H	2.110959	-0.807148	0.372377
H132	H	2.051343	-0.566286	0.314041
H133	H	2.266392	-0.802606	0.300580
N134	N	2.090689	-0.751107	0.087668
H135	H	2.131456	-0.817178	0.103398
H136	H	2.133157	-0.670076	0.056083
H137	H	2.152469	-0.522057	0.107667
N138	N	2.346284	-0.575250	0.320714
H139	H	2.351979	-0.660839	0.353298
H140	H	2.319451	-0.527059	0.353585
H141	H	2.040886	-0.524516	0.154155
H142	H	1.977138	-0.746506	0.158090
H143	H	1.977640	-0.178599	0.484767
N144	N	2.132441	-0.181170	0.850627
H145	H	2.152018	-0.263783	0.874516
H146	H	2.193947	-0.103712	0.859126
N147	N	1.792096	-0.152194	1.006075
H148	H	1.772544	-0.069565	0.982189
H149	H	1.814152	-0.152437	1.065465
N150	N	1.766799	-0.154505	0.833825
H151	H	1.716782	-0.149930	0.870090
H152	H	1.736916	-0.234688	0.806962
H153	H	2.477647	-0.178584	0.484745
N154	N	1.658912	-0.151469	0.630302
H155	H	1.681035	-0.070721	0.656806
H156	H	1.639073	-0.230790	0.672163
