data_functionalizedCrystal
_audit_creation_method	'MofGen! by Chris Wilmer'
_symmetry_space_group_name_H-M	'P1'
_symmetry_Int_Tables_number	1
_symmetry_cell_setting	triclinic
loop_
_symmetry_equiv_pos_as_xyz
  x,y,z
_cell_length_a	10.654541
_cell_length_b	15.186229
_cell_length_c	16.109301
_cell_angle_alpha	89.988022
_cell_angle_beta	96.027295
_cell_angle_gamma	90.003747
loop_
_atom_site_label
_atom_site_type_symbol
_atom_site_fract_x
_atom_site_fract_y
_atom_site_fract_z
O1	O	1.666260	0.073205	-0.116771
O2	O	2.166260	0.573205	0.383229
O3	O	1.300630	0.073213	-0.127899
O4	O	1.800630	0.573213	0.372101
O5	O	1.493489	0.073200	-0.001364
O6	O	1.993489	0.573200	0.498636
O7	O	1.473401	0.073218	-0.243307
O8	O	1.973401	0.573218	0.256693
O9	O	1.493472	-0.073258	-0.001346
O10	O	1.993472	0.426742	0.498654
O11	O	1.300613	-0.073245	-0.127881
O12	O	1.800613	0.426755	0.372119
O13	O	1.666243	-0.073253	-0.116753
O14	O	2.166243	0.426747	0.383247
Zn15	Zn	1.483426	-0.096502	-0.122314
Zn16	Zn	1.983426	0.403498	0.377686
Zn17	Zn	1.483447	0.096462	-0.122338
Zn18	Zn	1.983447	0.596462	0.377662
O19	O	1.473384	-0.073239	-0.243288
O20	O	1.973384	0.426761	0.256712
C21	C	1.253835	-0.000015	-0.127073
C22	C	1.753835	0.499985	0.372927
C23	C	1.114424	-0.000012	-0.124630
C24	C	1.614424	0.499988	0.375370
N25	N	1.483420	-0.228194	-0.122298
N26	N	1.983420	0.271806	0.377702
C27	C	1.492667	-0.000030	0.029625
C28	C	1.992667	0.499970	0.529625
C29	C	1.490227	-0.000031	0.121935
C30	C	1.990227	0.499969	0.621935
C31	C	1.084401	0.000010	-0.275937
C32	C	1.584401	0.500010	0.224063
C33	C	1.003896	0.000025	-0.350439
C34	C	1.503896	0.500025	0.149561
C35	C	0.872909	0.000026	-0.348139
C36	C	1.372909	0.500026	0.151861
C37	C	0.822426	0.000009	-0.271327
C38	C	1.322426	0.500009	0.228673
C39	C	0.902931	-0.000006	-0.196825
C40	C	1.402931	0.499994	0.303175
C41	C	1.033919	-0.000004	-0.199134
C42	C	1.533919	0.499996	0.300866
C43	C	0.932954	-0.000035	-0.045520
C44	C	1.432954	0.499965	0.454480
C45	C	1.063941	-0.000029	-0.047819
C46	C	1.563941	0.499971	0.452181
C47	C	0.882471	-0.000051	0.031291
C48	C	1.382471	0.499949	0.531291
C49	C	0.962976	-0.000060	0.105795
C50	C	1.462976	0.499940	0.605795
C51	C	1.093970	-0.000059	0.103491
C52	C	1.593970	0.499941	0.603491
C53	C	1.144446	-0.000044	0.026683
C54	C	1.644446	0.499956	0.526683
C55	C	1.713038	-0.000023	-0.117579
C56	C	2.213038	0.499977	0.382421
C57	C	1.852449	-0.000020	-0.120022
C58	C	2.352449	0.499980	0.379978
N59	N	1.483463	0.228155	-0.122348
N60	N	1.983463	0.728155	0.377652
C61	C	1.569003	0.546067	-0.066409
C62	C	2.069003	1.046067	0.433591
C63	C	1.569008	0.453878	-0.066416
C64	C	2.069008	0.953878	0.433584
C65	C	1.397871	0.453899	-0.178239
C66	C	1.897871	0.953899	0.321761
C67	C	1.397860	0.546087	-0.178228
C68	C	1.897860	1.046087	0.321772
C69	C	1.483433	0.592169	-0.122314
C70	C	1.983433	1.092169	0.377686
C71	C	1.483450	0.407791	-0.122332
C72	C	1.983450	0.907791	0.377668
C73	C	1.483456	0.307835	-0.122339
C74	C	1.983456	0.807835	0.377661
C75	C	1.483426	0.692131	-0.122305
C76	C	1.983426	1.192131	0.377695
C77	C	1.474206	-0.000008	-0.274277
C78	C	1.974206	0.499992	0.225723
C79	C	1.476646	-0.000001	-0.366587
C80	C	1.976646	0.499999	0.133413
C81	C	1.598994	-0.000019	0.343561
C82	C	2.098994	0.499981	0.843561
C83	C	1.596692	-0.000012	0.430295
C84	C	2.096692	0.499988	0.930295
C85	C	1.367871	-0.000010	0.411780
C86	C	1.867871	0.499990	0.911780
C87	C	1.370174	-0.000011	0.325047
C88	C	1.870174	0.499989	0.825047
C89	C	1.485739	-0.000020	0.290941
C90	C	1.985739	0.499980	0.790941
C91	C	1.481134	-0.000012	0.464407
C92	C	1.981134	0.499988	0.964407
C93	C	1.478637	-0.000004	0.558448
C94	C	1.978637	0.499996	1.058448
C95	C	1.488237	-0.000026	0.196894
C96	C	1.988237	0.499974	0.696894
H97	H	1.191055	0.000029	-0.277818
H98	H	1.691055	0.500029	0.222182
Cl99	Cl	1.227785	-0.000005	0.258891
Cl100	Cl	1.727785	0.499995	0.758891
H101	H	1.328202	0.416371	-0.223765
H102	H	1.828202	0.916371	0.276235
H103	H	1.328173	0.583626	-0.223753
H104	H	1.828173	1.083626	0.276247
Cl105	Cl	1.744275	-0.000028	0.300687
Cl106	Cl	2.244275	0.499972	0.800687
H107	H	1.251100	-0.000033	0.024800
H108	H	1.751100	0.499967	0.524800
H109	H	1.688915	-0.000009	0.473136
H110	H	2.188915	0.499991	0.973136
H111	H	1.273781	-0.000005	0.439561
H112	H	1.773781	0.499995	0.939561
H113	H	0.921861	-0.000073	0.168329
H114	H	1.421861	0.499927	0.668329
Cl115	Cl	0.771699	0.000036	-0.441799
Cl116	Cl	1.271699	0.500036	0.058201
H117	H	0.715768	-0.000001	-0.269461
H118	H	1.215768	0.499999	0.230539
Cl119	Cl	0.717800	-0.000055	0.034184
Cl120	Cl	1.217800	0.499945	0.534184
Cl121	Cl	1.067366	0.000047	-0.446997
Cl122	Cl	1.567366	0.500047	0.053003
H123	H	1.159511	-0.000075	0.164161
H124	H	1.659511	0.499925	0.664161
H125	H	1.638685	0.416344	-0.020892
H126	H	2.138685	0.916344	0.479108
H127	H	1.638679	0.583585	-0.020879
H128	H	2.138679	1.083585	0.479121
