data_functionalizedCrystal
_audit_creation_method	'MofGen! by Chris Wilmer'
_symmetry_space_group_name_H-M	'P1'
_symmetry_Int_Tables_number	1
_symmetry_cell_setting	triclinic
loop_
_symmetry_equiv_pos_as_xyz
  x,y,z
_cell_length_a	13.032721
_cell_length_b	19.805407
_cell_length_c	19.805399
_cell_angle_alpha	89.980427
_cell_angle_beta	82.844098
_cell_angle_gamma	82.795335
loop_
_atom_site_label
_atom_site_type_symbol
_atom_site_fract_x
_atom_site_fract_y
_atom_site_fract_z
Zn1	Zn	-0.416068	-1.000535	0.416943
Zn2	Zn	0.083932	-0.500535	0.916943
Zn3	Zn	-0.590828	-0.986084	0.318130
Zn4	Zn	-0.090828	-0.486084	0.818130
Zn5	Zn	-0.416097	-0.887347	0.303770
Zn6	Zn	0.083903	-0.387347	0.803770
Zn7	Zn	-0.590772	-0.872952	0.431272
Zn8	Zn	-0.090772	-0.372952	0.931272
O9	O	-0.503441	-0.936729	0.367529
O10	O	-0.003441	-0.436729	0.867529
O11	O	-0.439261	-1.093333	0.403849
O12	O	0.060739	-0.593333	0.903849
O13	O	-0.567684	-0.972963	0.221512
O14	O	-0.067684	-0.472963	0.721512
O15	O	-0.269853	-0.914433	0.306777
O16	O	0.230147	-0.414433	0.806777
O17	O	-0.567656	-1.082717	0.331251
O18	O	-0.067656	-0.582717	0.831251
O19	O	-0.269832	-0.997592	0.389925
O20	O	0.230168	-0.497592	0.889925
O21	O	-0.439310	-0.900421	0.210962
O22	O	0.060690	-0.400421	0.710962
O23	O	-0.439257	-0.790722	0.320671
O24	O	0.060743	-0.290722	0.820671
O25	O	-0.567562	-0.889899	0.524085
O26	O	-0.067562	-0.389899	1.024085
O27	O	-0.567590	-0.780146	0.414346
O28	O	-0.067590	-0.280146	0.914346
O29	O	-0.439207	-0.983634	0.513558
O30	O	0.060793	-0.483634	1.013558
O31	O	-0.737060	-0.959005	0.345145
O32	O	-0.237060	-0.459005	0.845145
O33	O	-0.737019	-0.875887	0.428270
O34	O	-0.237019	-0.375887	0.928270
C35	C	-0.774958	-0.914334	0.389835
C36	C	-0.274958	-0.414334	0.889835
C37	C	-0.891114	-0.904816	0.399401
C38	C	-0.391114	-0.404816	0.899401
C39	C	-0.503421	-0.760875	0.367506
C40	C	-0.003421	-0.260875	0.867506
C41	C	-0.503438	-0.685642	0.367514
C42	C	-0.003438	-0.185642	0.867514
C43	C	-0.503375	-0.936773	0.544066
C44	C	-0.003375	-0.436773	1.044066
C45	C	-0.503347	-0.936791	0.619296
C46	C	-0.003347	-0.436791	1.119296
C47	C	-0.942886	-0.941733	0.362567
C48	C	-0.442886	-0.441733	0.862567
C49	C	-1.062939	-0.931896	0.372453
C50	C	-0.562939	-0.431896	0.872453
C51	C	-0.230864	-0.959230	0.345151
C52	C	0.269136	-0.459230	0.845151
C53	C	-0.114708	-0.968819	0.335614
C54	C	0.385292	-0.468819	0.835614
C55	C	-0.503462	-1.113270	0.367553
C56	C	-0.003462	-0.613270	0.867553
C57	C	-0.503471	-1.188502	0.367563
C58	C	-0.003471	-0.688502	0.867563
C59	C	-0.570361	-0.644800	0.416228
C60	C	-0.070361	-0.144800	0.916228
C61	C	-0.570363	-0.574112	0.416238
C62	C	-0.070363	-0.074112	0.916238
C63	C	-0.503446	-0.544265	0.367529
C64	C	-0.003446	-0.044265	0.867529
C65	C	-0.436515	-0.585113	0.318812
C66	C	0.063485	-0.085113	0.818812
C67	C	-0.436508	-0.655800	0.318806
C68	C	0.063492	-0.155800	0.818806
C69	C	-0.436538	-0.300037	0.318836
C70	C	0.063462	0.199963	0.818836
C71	C	-0.436551	-0.229344	0.318845
C72	C	0.063449	0.270656	0.818845
C73	C	-0.570393	-0.218349	0.416269
C74	C	-0.070393	0.281651	0.916269
C75	C	-0.570386	-0.289036	0.416262
C76	C	-0.070386	0.210964	0.916262
C77	C	-0.503452	-0.329878	0.367548
C78	C	-0.003452	0.170122	0.867548
C79	C	-0.503449	-0.406526	0.367538
C80	C	-0.003449	0.093474	0.867538
C81	C	-0.503453	-0.467618	0.367535
C82	C	-0.003453	0.032382	0.867535
C83	C	-0.503431	-0.936731	0.191672
C84	C	-0.003431	-0.436731	0.691672
C85	C	-0.503165	-0.936868	0.116419
C86	C	-0.003165	-0.436868	0.616419
C87	C	-0.436510	-0.985600	0.649160
C88	C	0.063490	-0.485600	1.149160
C89	C	-0.436479	-0.985609	0.719846
C90	C	0.063521	-0.485609	1.219846
C91	C	-0.503293	-0.936813	0.760667
C92	C	-0.003293	-0.436813	1.260667
C93	C	-0.570133	-0.887999	0.730799
C94	C	-0.070133	-0.387999	1.230799
C95	C	-0.570157	-0.887987	0.660114
C96	C	-0.070157	-0.387987	1.160114
C97	C	-0.570036	-0.888045	1.015865
C98	C	-0.070036	-0.388045	1.515865
C99	C	-0.570008	-0.888062	1.086555
C100	C	-0.070008	-0.388062	1.586555
C101	C	-0.436358	-0.985668	1.075596
C102	C	0.063642	-0.485668	1.575596
C103	C	-0.436382	-0.985656	1.004911
C104	C	0.063618	-0.485656	1.504911
C105	C	-0.503218	-0.936840	0.975049
C106	C	-0.003218	-0.436840	1.475049
C107	C	-0.503249	-0.936830	0.898403
C108	C	-0.003249	-0.436830	1.398403
C109	C	-0.503268	-0.936825	0.837312
C110	C	-0.003268	-0.436825	1.337312
H111	H	-1.107490	-0.893007	0.411311
H112	H	-0.607490	-0.393007	0.911311
C113	C	-0.642613	-0.835030	0.627557
C114	C	-0.142613	-0.335030	1.127557
C115	C	-0.628314	-0.845451	0.556916
C116	C	-0.128314	-0.345451	1.056916
C117	C	-0.695030	-0.796672	0.526902
C118	C	-0.195030	-0.296672	1.026902
H119	H	-0.712869	-0.839093	0.644828
H120	H	-0.212869	-0.339093	1.144828
H121	H	-0.627297	-0.790805	0.637837
H122	H	-0.127297	-0.290805	1.137837
H123	H	-0.643638	-0.889666	0.546641
H124	H	-0.143638	-0.389666	1.046641
H125	H	-0.558071	-0.841382	0.539626
H126	H	-0.058071	-0.341382	1.039626
H127	H	-0.679714	-0.752446	0.537182
H128	H	-0.179714	-0.252446	1.037182
H129	H	-0.765282	-0.800739	0.544178
H130	H	-0.265282	-0.300739	1.044178
H131	H	-0.685330	-0.803732	0.478968
H132	H	-0.185330	-0.303732	0.978968
H133	H	-0.898333	-0.980626	0.323717
H134	H	-0.398333	-0.480626	0.823717
H135	H	-0.624857	-0.669095	0.455891
H136	H	-0.124857	-0.169095	0.955891
H137	H	-0.382053	-0.205047	0.279180
H138	H	0.117947	0.294953	0.779180
H139	H	-0.382025	-0.560807	0.279155
H140	H	0.117975	-0.060807	0.779155
H141	H	-0.624860	-0.540861	0.455906
H142	H	-0.124860	-0.040861	0.955906
C143	C	-0.642944	-0.173893	0.469131
C144	C	-0.142944	0.326107	0.969131
C145	C	-0.628611	-0.105601	0.458729
C146	C	-0.128611	0.394399	0.958729
C147	C	-0.695417	-0.064632	0.507415
C148	C	-0.195417	0.435368	1.007415
H149	H	-0.713181	-0.179600	0.464961
H150	H	-0.213181	0.320400	0.964961
H151	H	-0.627733	-0.186715	0.513388
H152	H	-0.127733	0.313285	1.013388
H153	H	-0.643830	-0.092783	0.414482
H154	H	-0.143830	0.407217	0.914482
H155	H	-0.558388	-0.099873	0.462905
H156	H	-0.058388	0.400127	0.962905
H157	H	-0.680206	-0.077454	0.551672
H158	H	-0.180206	0.422546	1.051672
H159	H	-0.765649	-0.070345	0.503241
H160	H	-0.265649	0.429655	1.003241
H161	H	-0.685694	-0.018292	0.500367
H162	H	-0.185694	0.481708	1.000367
C163	C	-0.364077	-1.038621	0.752374
C164	C	0.135923	-0.538621	1.252374
C165	C	-0.423230	-1.077111	0.797842
C166	C	0.076770	-0.577111	1.297842
C167	C	-0.356561	-1.125943	0.827828
C168	C	0.143439	-0.625943	1.327828
H169	H	-0.324262	-1.067751	0.718019
H170	H	0.175738	-0.567751	1.218019
H171	H	-0.318550	-1.016502	0.776241
H172	H	0.181450	-0.516502	1.276241
H173	H	-0.468739	-1.099229	0.773976
H174	H	0.031261	-0.599229	1.273976
H175	H	-0.463043	-1.048000	0.832210
H176	H	0.036957	-0.548000	1.332210
H177	H	-0.311034	-1.103824	0.851695
H178	H	0.188966	-0.603824	1.351695
H179	H	-0.316749	-1.155068	0.793469
H180	H	0.183251	-0.655068	1.293469
H181	H	-0.396686	-1.152060	0.858686
H182	H	0.103314	-0.652060	1.358686
C183	C	-0.950645	-0.853058	0.451260
C184	C	-0.450645	-0.353058	0.951260
C185	C	-1.013235	-0.886265	0.499784
C186	C	-0.513235	-0.386265	0.999784
C187	C	-1.068097	-0.838606	0.547563
C188	C	-0.568097	-0.338606	1.047563
H189	H	-0.902716	-0.831147	0.473161
H190	H	-0.402716	-0.331147	0.973161
H191	H	-0.993351	-0.820120	0.428850
H192	H	-0.493351	-0.320120	0.928850
H193	H	-0.970532	-0.919191	0.522191
H194	H	-0.470532	-0.419191	1.022191
H195	H	-1.061183	-0.908174	0.477903
H196	H	-0.561183	-0.408174	0.977903
H197	H	-1.110803	-0.805667	0.525154
H198	H	-0.610803	-0.305667	1.025154
H199	H	-1.020160	-0.816697	0.569459
H200	H	-0.520160	-0.316697	1.069459
H201	H	-1.110577	-0.861129	0.580489
H202	H	-0.610577	-0.361129	1.080489
H203	H	-0.381979	-1.025393	0.971677
H204	H	0.118021	-0.525393	1.471677
H205	H	-0.382044	-0.333282	0.279165
H206	H	0.117956	0.166718	0.779165
H207	H	-1.070157	-1.007714	0.296761
H208	H	-0.570157	-0.507714	0.796761
H209	H	-0.382007	-0.689054	0.279140
H210	H	0.117993	-0.189054	0.779140
C211	C	-0.643079	-0.321315	0.469225
C212	C	-0.143079	0.178685	0.969225
C213	C	-0.701669	-0.270418	0.511902
C214	C	-0.201669	0.229582	1.011902
C215	C	-0.768632	-0.300127	0.560707
C216	C	-0.268632	0.199873	1.060707
H217	H	-0.688650	-0.345125	0.447103
H218	H	-0.188650	0.154875	0.947103
H219	H	-0.603179	-0.352177	0.495513
H220	H	-0.103179	0.147823	0.995513
H221	H	-0.741566	-0.239568	0.485617
H222	H	-0.241566	0.260432	0.985617
H223	H	-0.656126	-0.246605	0.534040
H224	H	-0.156126	0.253395	1.034040
H225	H	-0.728733	-0.330990	0.586996
H226	H	-0.228733	0.169010	1.086996
H227	H	-0.814197	-0.323937	0.538579
H228	H	-0.314197	0.176063	1.038579
H229	H	-0.808387	-0.265600	0.589673
H230	H	-0.308387	0.234400	1.089673
H231	H	-0.382106	-1.025338	0.615927
H232	H	0.117894	-0.525338	1.115927
H233	H	-0.381933	-1.025414	1.099918
H234	H	0.118067	-0.525414	1.599918
H235	H	-0.624418	-0.848322	1.119791
H236	H	-0.124418	-0.348322	1.619791
H237	H	-0.624530	-0.848265	0.764042
H238	H	-0.124530	-0.348265	1.264042
C239	C	-0.642698	-0.835003	0.983579
C240	C	-0.142698	-0.335003	1.483579
C241	C	-0.701214	-0.792281	1.034461
C242	C	-0.201214	-0.292281	1.534461
C243	C	-0.768165	-0.743410	1.004743
C244	C	-0.268165	-0.243410	1.504743
H245	H	-0.602826	-0.808742	0.952731
H246	H	-0.102826	-0.308742	1.452731
H247	H	-0.688309	-0.857096	0.959759
H248	H	-0.188309	-0.357096	1.459759
H249	H	-0.655609	-0.770190	1.058270
H250	H	-0.155609	-0.270190	1.558270
H251	H	-0.741108	-0.818523	1.065312
H252	H	-0.241108	-0.318523	1.565312
H253	H	-0.813776	-0.765503	0.980923
H254	H	-0.313776	-0.265503	1.480923
H255	H	-0.728285	-0.717154	0.973895
H256	H	-0.228285	-0.217154	1.473895
H257	H	-0.807884	-0.714421	1.039262
H258	H	-0.307884	-0.214421	1.539262
