data_functionalizedCrystal
_audit_creation_method	'MofGen! by Chris Wilmer'
_symmetry_space_group_name_H-M	'P1'
_symmetry_Int_Tables_number	1
_symmetry_cell_setting	triclinic
loop_
_symmetry_equiv_pos_as_xyz
  x,y,z
_cell_length_a	11.169417
_cell_length_b	14.908520
_cell_length_c	11.169409
_cell_angle_alpha	86.739668
_cell_angle_beta	90.019824
_cell_angle_gamma	93.321403
loop_
_atom_site_label
_atom_site_type_symbol
_atom_site_fract_x
_atom_site_fract_y
_atom_site_fract_z
Zn1	Zn	1.807298	-0.359063	0.706060
Zn2	Zn	2.307298	0.140937	1.206060
Zn3	Zn	1.795562	-0.509955	0.516941
Zn4	Zn	2.295562	-0.009955	1.016941
Zn5	Zn	1.606580	-0.359118	0.505398
Zn6	Zn	2.106580	0.140882	1.005398
Zn7	Zn	1.594972	-0.509881	0.717580
Zn8	Zn	2.094972	-0.009881	1.217580
O9	O	1.701103	-0.434504	0.611495
O10	O	2.201103	0.065496	1.111495
O11	O	1.973691	-0.379086	0.680982
O12	O	2.473691	0.120914	1.180982
O13	O	1.770440	-0.489999	0.347464
O14	O	2.270440	0.010001	0.847464
O15	O	1.642975	-0.232866	0.522365
O16	O	2.142975	0.267134	1.022365
O17	O	1.965068	-0.489946	0.542037
O18	O	2.465068	0.010054	1.042037
O19	O	1.790442	-0.232826	0.669790
O20	O	2.290442	0.267174	1.169790
O21	O	1.631595	-0.379180	0.338984
O22	O	2.131595	0.120820	0.838984
O23	O	1.437091	-0.379109	0.533535
O24	O	1.937091	0.120891	1.033535
O25	O	1.623191	-0.489821	0.883997
O26	O	2.123191	0.010179	1.383997
O27	O	1.428563	-0.489874	0.689424
O28	O	1.928563	0.010126	1.189424
O29	O	1.779186	-0.379015	0.875534
O30	O	2.279186	0.120985	1.375534
O31	O	1.759184	-0.636189	0.553207
O32	O	2.259184	-0.136189	1.053207
O33	O	1.611811	-0.636135	0.700616
O34	O	2.111811	-0.136135	1.200616
C35	C	1.389279	-0.434490	0.611478
C36	C	1.889279	0.065510	1.111478
C37	C	1.255878	-0.434506	0.611501
C38	C	1.755878	0.065494	1.111501
C39	C	1.682997	-0.668895	0.629440
C40	C	2.182997	-0.168895	1.129440
C41	C	1.675361	-0.769169	0.637158
C42	C	2.175361	-0.269169	1.137158
C43	C	1.814629	-0.957589	0.498287
C44	C	2.314629	-0.457589	0.998287
C45	C	1.807458	-1.051805	0.505534
C46	C	2.307458	-0.551805	1.005534
C47	C	1.653855	-1.051819	0.658905
C48	C	2.153855	-0.551819	1.158905
C49	C	1.661026	-0.957603	0.651658
C50	C	2.161026	-0.457603	1.151658
C51	C	1.741414	-0.910491	0.571344
C52	C	2.241414	-0.410491	1.071344
C53	C	1.748578	-0.816274	0.564092
C54	C	2.248578	-0.316274	1.064092
C55	C	1.594982	-0.816289	0.717468
C56	C	2.094982	-0.316289	1.217468
C57	C	1.587811	-0.910505	0.724716
C58	C	2.087811	-0.410505	1.224716
C59	C	2.014144	-0.434518	0.611512
C60	C	2.514144	0.065482	1.111512
C61	C	2.147544	-0.434524	0.611519
C62	C	2.647544	0.065476	1.111519
C63	C	1.701203	-0.434404	0.924530
C64	C	2.201203	0.065596	1.424530
C65	C	1.701245	-0.434361	1.057926
C66	C	2.201245	0.065639	1.557926
C67	C	1.719313	-0.199197	0.593505
C68	C	2.219313	0.300803	1.093505
C69	C	1.727073	-0.098923	0.585839
C70	C	2.227073	0.401077	1.085839
C71	C	1.701078	-0.434539	0.299673
C72	C	2.201078	0.065461	0.799673
C73	C	1.701287	-0.434327	0.166257
C74	C	2.201287	0.065673	0.666257
H75	H	1.814031	-0.777916	0.498694
H76	H	2.314031	-0.277916	0.998694
H77	H	1.588415	-1.090194	0.724300
H78	H	2.088415	-0.590194	1.224300
Br79	Br	1.906831	-1.115722	0.406386
Br80	Br	2.406831	-0.615722	0.906386
H81	H	1.522365	-0.948876	0.790107
H82	H	2.022365	-0.448876	1.290107
Br83	Br	1.495592	-0.752366	0.816604
Br84	Br	1.995592	-0.252366	1.316604
Br85	Br	1.923700	-0.893647	0.389272
Br86	Br	2.423700	-0.393647	0.889272
