data_functionalizedCrystal
_audit_creation_method	'MofGen! by Chris Wilmer'
_symmetry_space_group_name_H-M	'P1'
_symmetry_Int_Tables_number	1
_symmetry_cell_setting	triclinic
loop_
_symmetry_equiv_pos_as_xyz
  x,y,z
_cell_length_a	19.288865
_cell_length_b	19.288864
_cell_length_c	18.366186
_cell_angle_alpha	89.977106
_cell_angle_beta	89.988521
_cell_angle_gamma	83.136245
loop_
_atom_site_label
_atom_site_type_symbol
_atom_site_fract_x
_atom_site_fract_y
_atom_site_fract_z
O1	O	-0.086649	-0.921353	0.060791
O2	O	0.413351	-0.421353	0.560791
O3	O	-0.098337	-0.719092	0.060743
O4	O	0.401663	-0.219092	0.560743
O5	O	0.008637	-0.826067	0.060754
O6	O	0.508637	-0.326067	0.560754
O7	O	-0.193623	-0.814378	0.060780
O8	O	0.306377	-0.314378	0.560780
O9	O	0.008643	-0.826049	-0.060345
O10	O	0.508643	-0.326049	0.439655
O11	O	-0.098332	-0.719074	-0.060357
O12	O	0.401668	-0.219074	0.439643
O13	O	-0.086643	-0.921335	-0.060308
O14	O	0.413357	-0.421335	0.439692
Zn15	Zn	-0.092487	-0.820201	-0.079559
Zn16	Zn	0.407513	-0.320201	0.420441
Zn17	Zn	-0.092494	-0.820225	0.079994
Zn18	Zn	0.407506	-0.320225	0.579994
O19	O	-0.193618	-0.814360	-0.060319
O20	O	0.306382	-0.314360	0.439681
C21	C	0.034516	-0.825682	0.000202
C22	C	0.534516	-0.325682	0.500202
C23	C	0.111620	-0.824553	0.000195
C24	C	0.611620	-0.324553	0.500195
C25	C	-0.097959	-0.693207	0.000187
C26	C	0.402041	-0.193207	0.500187
C27	C	-0.096830	-0.616103	0.000167
C28	C	0.403170	-0.116103	0.500167
C29	C	-0.087022	-0.947220	0.000250
C30	C	0.412978	-0.447220	0.500250
C31	C	-0.088151	-1.024324	0.000274
C32	C	0.411849	-0.524324	0.500274
C33	C	-0.219497	-0.814745	0.000234
C34	C	0.280503	-0.314745	0.500234
C35	C	-0.296601	-0.815874	0.000246
C36	C	0.203399	-0.315874	0.500246
C37	C	0.156316	-0.887321	0.000207
C38	C	0.656316	-0.387321	0.500207
C39	C	0.228763	-0.886260	0.000218
C40	C	0.728763	-0.386260	0.500218
C41	C	0.256511	-0.822428	0.000203
C42	C	0.756511	-0.322428	0.500203
C43	C	0.211805	-0.759652	0.000196
C44	C	0.711805	-0.259652	0.500196
C45	C	0.139359	-0.760714	0.000192
C46	C	0.639359	-0.260714	0.500192
C47	C	0.364800	-0.772242	-0.042227
C48	C	0.864800	-0.272242	0.457773
C49	C	0.437245	-0.771182	-0.042228
C50	C	0.937245	-0.271182	0.457772
C51	C	0.479956	-0.819148	0.000219
C52	C	0.979956	-0.319148	0.500219
C53	C	0.450216	-0.868186	0.042657
C54	C	0.950216	-0.368186	0.542657
C55	C	0.377771	-0.869248	0.042653
C56	C	0.877771	-0.369248	0.542653
C57	C	0.335065	-0.821269	0.000208
C58	C	0.835065	-0.321269	0.500208
C59	C	0.603209	-0.880770	0.000244
C60	C	1.103209	-0.380770	0.500244
C61	C	0.675657	-0.879707	0.000259
C62	C	1.175657	-0.379707	0.500259
C63	C	0.658697	-0.753097	0.000230
C64	C	1.158697	-0.253097	0.500230
C65	C	0.586250	-0.754162	0.000221
C66	C	1.086250	-0.254162	0.500221
C67	C	0.558511	-0.818001	0.000225
C68	C	1.058511	-0.318001	0.500225
N69	N	-0.092482	-0.820190	-0.188451
N70	N	0.407518	-0.320190	0.311549
C71	C	-0.159598	-0.571407	0.000187
C72	C	0.340402	-0.071407	0.500187
C73	C	-0.158537	-0.498960	0.000195
C74	C	0.341463	0.001040	0.500195
C75	C	-0.094705	-0.471212	0.000198
C76	C	0.405295	0.028788	0.500198
C77	C	-0.031929	-0.515918	0.000174
C78	C	0.468071	-0.015918	0.500174
C79	C	-0.032991	-0.588364	0.000159
C80	C	0.467009	-0.088364	0.500159
C81	C	-0.044527	-0.362956	0.042642
C82	C	0.455473	0.137044	0.542642
C83	C	-0.043468	-0.290512	0.042662
C84	C	0.456532	0.209488	0.542662
C85	C	-0.091425	-0.247767	0.000241
C86	C	0.408575	0.252233	0.500241
C87	C	-0.140454	-0.277473	-0.042189
C88	C	0.359546	0.222527	0.457811
C89	C	-0.141517	-0.349918	-0.042205
C90	C	0.358483	0.150082	0.457795
C91	C	-0.093546	-0.392658	0.000214
C92	C	0.406454	0.107342	0.500214
C93	C	-0.153047	-0.124514	0.000269
C94	C	0.346953	0.375486	0.500269
C95	C	-0.151984	-0.052066	0.000272
C96	C	0.348016	0.447934	0.500272
C97	C	-0.025374	-0.069026	0.000259
C98	C	0.474626	0.430974	0.500259
C99	C	-0.026439	-0.141473	0.000248
C100	C	0.473561	0.358527	0.500248
C101	C	-0.090278	-0.169212	0.000256
C102	C	0.409722	0.330788	0.500256
C103	C	-0.045137	-0.867574	-0.226546
C104	C	0.454863	-0.367574	0.273454
C105	C	-0.045134	-0.867578	-0.302774
C106	C	0.454866	-0.367578	0.197226
C107	C	-0.092488	-0.820206	-0.340903
C108	C	0.407512	-0.320206	0.159097
C109	C	-0.139836	-0.772813	-0.302799
C110	C	0.360164	-0.272813	0.197201
C111	C	-0.139834	-0.772805	-0.226572
C112	C	0.360166	-0.272805	0.273428
C113	C	-0.155775	-0.810907	-0.461657
C114	C	0.344225	-0.310907	0.038343
C115	C	-0.155779	-0.810920	-0.537882
C116	C	0.344221	-0.310920	-0.037882
C117	C	-0.092496	-0.820225	-0.576011
C118	C	0.407504	-0.320225	-0.076011
C119	C	-0.029207	-0.829533	-0.537905
C120	C	0.470793	-0.329533	-0.037905
C121	C	-0.029204	-0.829525	-0.461679
C122	C	0.470796	-0.329525	0.038321
C123	C	-0.092496	-0.820208	-0.423558
C124	C	0.407504	-0.320208	0.076442
C125	C	-0.045144	-0.867617	-0.696761
C126	C	0.454856	-0.367617	-0.196761
C127	C	-0.045140	-0.867616	-0.772990
C128	C	0.454860	-0.367616	-0.272990
C129	C	-0.139849	-0.772854	-0.773014
C130	C	0.360151	-0.272854	-0.273014
C131	C	-0.139847	-0.772851	-0.696786
C132	C	0.360153	-0.272851	-0.196786
C133	C	-0.092495	-0.820236	-0.658664
C134	C	0.407505	-0.320236	-0.158664
N135	N	-0.092493	-0.820242	0.188885
N136	N	0.407507	-0.320242	0.688885
H137	H	0.133736	-0.939303	0.000212
H138	H	0.633736	-0.439303	0.500212
H139	H	0.234401	-0.707679	0.000185
H140	H	0.734401	-0.207679	0.500185
H141	H	-0.003548	-0.266331	0.077215
H142	H	0.496452	0.233669	0.577215
H143	H	-0.178388	-0.734219	-0.195554
H144	H	0.321612	-0.234219	0.304446
H145	H	0.549857	-0.703049	0.000208
H146	H	1.049857	-0.203049	0.500208
H147	H	0.102967	-0.709599	0.000182
H148	H	0.602967	-0.209599	0.500182
H149	H	0.022328	-0.837102	-0.430657
H150	H	0.522328	-0.337102	0.069343
C151	C	-0.223265	-0.155031	0.000270
C152	C	0.276735	0.344969	0.500270
H153	H	-0.260497	-0.118032	0.000273
H154	H	0.239503	0.381968	0.500273
H155	H	-0.226314	-0.182961	0.042496
H156	H	0.273686	0.317039	0.542496
H157	H	-0.226308	-0.182917	-0.041969
H158	H	0.273692	0.317083	0.458031
H159	H	-0.006578	-0.906165	-0.333797
H160	H	0.493422	-0.406165	0.166203
H161	H	0.265162	-0.937375	0.000231
H162	H	0.765162	-0.437375	0.500231
C163	C	0.044840	-0.038513	0.000266
C164	C	0.544840	0.461487	0.500266
H165	H	0.036485	0.011035	0.000283
H166	H	0.536485	0.511035	0.500283
H167	H	0.070682	-0.053845	-0.041966
H168	H	0.570682	0.446155	0.458034
H169	H	0.070669	-0.053893	0.042499
H170	H	0.570669	0.446107	0.542499
C171	C	0.572688	-0.950986	0.000257
C172	C	1.072688	-0.450986	0.500257
H173	H	0.523141	-0.942630	0.000243
H174	H	1.023141	-0.442630	0.500243
H175	H	0.588033	-0.976829	0.042494
H176	H	1.088033	-0.476829	0.542494
H177	H	0.588057	-0.976815	-0.041971
H178	H	1.088057	-0.476815	0.458029
C179	C	0.724823	-0.948755	0.000271
C180	C	1.224823	-0.448755	0.500271
H181	H	0.697924	-0.986924	0.000265
H182	H	1.197924	-0.486924	0.500265
H183	H	0.753428	-0.950985	0.042503
H184	H	1.253428	-0.450985	0.542503
H185	H	0.753446	-0.950960	-0.041962
H186	H	1.253446	-0.450960	0.458038
H187	H	0.353560	-0.909175	0.077208
H188	H	0.853560	-0.409175	0.577208
H189	H	-0.178402	-0.734269	-0.665767
H190	H	0.321598	-0.234269	-0.165767
C191	C	0.469952	-0.717244	-0.088907
C192	C	0.969952	-0.217244	0.411093
H193	H	0.434140	-0.688821	-0.114177
H194	H	0.934140	-0.188821	0.385823
H195	H	0.501436	-0.740834	-0.123018
H196	H	1.001436	-0.240834	0.376982
H197	H	0.494450	-0.688790	-0.058318
H198	H	0.994450	-0.188790	0.441682
H199	H	0.681288	-0.701123	0.000221
H200	H	1.181288	-0.201123	0.500221
C201	C	-0.225393	-0.800687	-0.579791
C202	C	0.274607	-0.300687	-0.079791
H203	H	-0.263082	-0.795133	-0.546167
H204	H	0.236918	-0.295133	-0.046167
H205	H	-0.229150	-0.840365	-0.609502
H206	H	0.270850	-0.340365	-0.109502
H207	H	-0.226900	-0.760240	-0.609550
H208	H	0.273100	-0.260240	-0.109550
H209	H	0.484991	-0.907244	0.077221
H210	H	0.984991	-0.407244	0.577221
H211	H	0.330029	-0.733180	-0.076796
H212	H	0.830029	-0.233180	0.423204
C213	C	-0.229817	-0.601917	0.000183
C214	C	0.270183	-0.101917	0.500183
H215	H	-0.267048	-0.564917	0.000188
H216	H	0.232952	-0.064917	0.500188
H217	H	-0.232869	-0.629852	0.042404
H218	H	0.267131	-0.129852	0.542404
H219	H	-0.232859	-0.629797	-0.042061
H220	H	0.267141	-0.129797	0.457939
C221	C	0.006955	-0.919688	-0.184616
C222	C	0.506955	-0.419688	0.315384
H223	H	0.035157	-0.947905	-0.218226
H224	H	0.535157	-0.447905	0.281774
H225	H	-0.017953	-0.948518	-0.154855
H226	H	0.482047	-0.448518	0.345145
H227	H	0.035811	-0.894786	-0.154905
H228	H	0.535811	-0.394786	0.345095
C229	C	-0.227584	-0.449785	0.000227
C230	C	0.272416	0.050215	0.500227
H231	H	-0.265755	-0.476682	0.000236
H232	H	0.234245	0.023318	0.500236
H233	H	-0.229807	-0.421141	-0.041992
H234	H	0.270193	0.078859	0.458008
H235	H	-0.229791	-0.421202	0.042473
H236	H	0.270209	0.078798	0.542473
C237	C	-0.195438	-0.382598	-0.088878
C238	C	0.304562	0.117402	0.411122
H239	H	-0.189202	-0.431864	-0.082806
H240	H	0.310798	0.068136	0.417194
H241	H	-0.189158	-0.371516	-0.138662
H242	H	0.310842	0.128484	0.361338
H243	H	-0.241223	-0.364581	-0.073950
H244	H	0.258777	0.135419	0.426050
H245	H	-0.179506	-0.242671	-0.076733
H246	H	0.320494	0.257329	0.423267
C247	C	0.036055	-0.637535	0.000143
C248	C	0.536055	-0.137535	0.500143
H249	H	0.026279	-0.684654	0.000131
H250	H	0.526279	-0.184654	0.500131
H251	H	0.062239	-0.629168	0.042371
H252	H	0.562239	-0.129168	0.542371
H253	H	0.062239	-0.629125	-0.042094
H254	H	0.562239	-0.129125	0.457906
H255	H	-0.203099	-0.015674	0.000284
H256	H	0.296901	0.484326	0.500284
H257	H	-0.005473	-0.397755	0.077191
H258	H	0.494527	0.102245	0.577191
H259	H	0.024674	-0.177866	0.000236
H260	H	0.524674	0.322134	0.500236
C261	C	-0.225391	-0.800676	-0.419722
C262	C	0.274609	-0.300676	0.080278
H263	H	-0.263083	-0.795146	-0.453331
H264	H	0.236917	-0.295146	0.046669
H265	H	-0.226904	-0.760227	-0.390005
H266	H	0.273096	-0.260227	0.109995
H267	H	-0.229138	-0.840355	-0.389967
H268	H	0.270862	-0.340355	0.110033
C269	C	0.038285	-0.485399	0.000182
C270	C	0.538285	0.014601	0.500182
H271	H	0.029928	-0.435851	0.000202
H272	H	0.529928	0.064149	0.500202
H273	H	0.064125	-0.500729	-0.042053
H274	H	0.564125	-0.000729	0.457947
H275	H	0.064116	-0.500781	0.042412
H276	H	0.564116	-0.000781	0.542412
C277	C	-0.191926	-0.720706	-0.344738
C278	C	0.308074	-0.220706	0.155262
H279	H	-0.185153	-0.727502	-0.395592
H280	H	0.314847	-0.227502	0.104408
H281	H	-0.184501	-0.674374	-0.332275
H282	H	0.315499	-0.174374	0.167725
H283	H	-0.238266	-0.728105	-0.332227
H284	H	0.261734	-0.228105	0.167773
C285	C	0.040408	-0.839764	-0.579837
C286	C	0.540408	-0.339764	-0.079837
H287	H	0.031345	-0.838426	-0.630691
H288	H	0.531345	-0.338426	-0.130691
H289	H	0.065292	-0.883646	-0.567331
H290	H	0.565292	-0.383646	-0.067331
H291	H	0.067530	-0.803519	-0.567365
H292	H	0.567530	-0.303519	-0.067365
C293	C	0.006947	-0.919730	-0.654824
C294	C	0.506947	-0.419730	-0.154824
H295	H	0.035153	-0.947944	-0.688433
H296	H	0.535153	-0.447944	-0.188433
H297	H	-0.017964	-0.948561	-0.625067
H298	H	0.482036	-0.448561	-0.125067
H299	H	0.035799	-0.894828	-0.625109
H300	H	0.535799	-0.394828	-0.125109
C301	C	0.006941	-0.919742	-0.814896
C302	C	0.506941	-0.419742	-0.314896
H303	H	0.035136	-0.947964	-0.781271
H304	H	0.535136	-0.447964	-0.281271
H305	H	0.035796	-0.894858	-0.844652
H306	H	0.535796	-0.394858	-0.344652
H307	H	-0.017982	-0.948576	-0.844609
H308	H	0.482018	-0.448576	-0.344609
H309	H	-0.178402	-0.734279	-0.804058
H310	H	0.321598	-0.234279	-0.304058
