data_functionalizedCrystal
_audit_creation_method	'MofGen! by Chris Wilmer'
_symmetry_space_group_name_H-M	'P1'
_symmetry_Int_Tables_number	1
_symmetry_cell_setting	triclinic
loop_
_symmetry_equiv_pos_as_xyz
  x,y,z
_cell_length_a	14.853567
_cell_length_b	14.519709
_cell_length_c	13.930277
_cell_angle_alpha	89.994503
_cell_angle_beta	89.995755
_cell_angle_gamma	83.657538
loop_
_atom_site_label
_atom_site_type_symbol
_atom_site_fract_x
_atom_site_fract_y
_atom_site_fract_z
O1	O	1.196415	0.120405	-0.079767
O2	O	1.696415	0.620405	0.420233
O3	O	0.933961	0.134748	-0.079783
O4	O	1.433961	0.634748	0.420217
O5	O	1.072147	-0.006665	-0.079766
O6	O	1.572147	0.493335	0.420234
O7	O	1.058230	0.261817	-0.079784
O8	O	1.558230	0.761817	0.420216
O9	O	1.072128	-0.006668	0.079896
O10	O	1.572128	0.493332	0.579896
O11	O	0.933942	0.134745	0.079878
O12	O	1.433942	0.634745	0.579878
O13	O	1.196396	0.120402	0.079895
O14	O	1.696396	0.620402	0.579895
Zn15	Zn	1.065166	0.127573	0.105236
Zn16	Zn	1.565166	0.627573	0.605236
Zn17	Zn	1.065191	0.127577	-0.105125
Zn18	Zn	1.565191	0.627577	0.394875
O19	O	1.058210	0.261814	0.079878
O20	O	1.558210	0.761814	0.579878
C21	C	0.900363	0.134096	0.000045
C22	C	1.400363	0.634096	0.500045
C23	C	0.800278	0.132149	0.000039
C24	C	1.300278	0.632149	0.500039
C25	C	0.387709	0.039914	0.000067
C26	C	0.887709	0.539914	0.500067
C27	C	0.366493	0.207916	0.000055
C28	C	0.866493	0.707916	0.500055
C29	C	0.460527	0.209747	0.000052
C30	C	0.960527	0.709747	0.500052
C31	C	0.518157	0.126660	0.000055
C32	C	1.018157	0.626660	0.500055
C33	C	0.481752	0.041743	0.000061
C34	C	0.981752	0.541743	0.500061
C35	C	0.496939	0.294663	0.000035
C36	C	0.996939	0.794663	0.500035
C37	C	0.590979	0.296498	0.000031
C38	C	1.090979	0.796498	0.500031
C39	C	0.648610	0.213410	0.000041
C40	C	1.148610	0.713410	0.500041
C41	C	0.612200	0.128489	0.000049
C42	C	1.112200	0.628489	0.500049
C43	C	0.669830	0.045403	0.000052
C44	C	1.169830	0.545403	0.500052
C45	C	0.633422	-0.039520	0.000066
C46	C	1.133422	0.460480	0.500066
C47	C	0.539383	-0.041345	0.000071
C48	C	1.039383	0.458655	0.500071
C49	C	0.742649	0.215235	0.000036
C50	C	1.242649	0.715235	0.500036
C51	C	0.763873	0.047231	0.000046
C52	C	1.263873	0.547231	0.500046
C53	C	1.071488	-0.041026	0.000065
C54	C	1.571488	0.458974	0.500065
C55	C	1.069545	-0.143407	0.000065
C56	C	1.569545	0.356593	0.500065
C57	C	1.062390	-0.518299	0.000040
C58	C	1.562390	-0.018299	0.500040
C59	C	1.064377	-0.413992	0.000047
C60	C	1.564377	0.086008	0.500047
C61	C	1.065967	-0.330856	0.000054
C62	C	1.565967	0.169144	0.500054
C63	C	1.067955	-0.226543	0.000059
C64	C	1.567955	0.273457	0.500059
C65	C	1.229994	0.121053	0.000064
C66	C	1.729994	0.621053	0.500064
C67	C	1.330079	0.123001	0.000064
C68	C	1.830079	0.623001	0.500064
C69	C	1.058869	0.296175	0.000044
C70	C	1.558869	0.796175	0.500044
C71	C	1.060812	0.398556	0.000038
C72	C	1.560812	0.898556	0.500038
N73	N	1.065155	0.127569	0.248803
N74	N	1.565155	0.627569	0.748803
N75	N	1.065209	0.127573	-0.248691
N76	N	1.565209	0.627573	0.251309
C77	C	1.004000	0.190170	0.701064
C78	C	1.504000	0.690170	1.201064
C79	C	1.126407	0.064977	0.701049
C80	C	1.626407	0.564977	1.201049
C81	C	1.126396	0.064974	0.600553
C82	C	1.626396	0.564974	1.100553
C83	C	1.065188	0.127571	0.550308
C84	C	1.565188	0.627571	1.050308
C85	C	1.003989	0.190171	0.600559
C86	C	1.503989	0.690171	1.100559
C87	C	1.187599	0.002381	0.550295
C88	C	1.687599	0.502381	1.050295
C89	C	1.187592	0.002376	0.449793
C90	C	1.687592	0.502376	0.949793
C91	C	1.126378	0.064970	0.399546
C92	C	1.626378	0.564970	0.899546
C93	C	1.065177	0.127571	0.449803
C94	C	1.565177	0.627571	0.949803
C95	C	1.003968	0.190168	0.399558
C96	C	1.503968	0.690168	0.899558
C97	C	0.942762	0.252767	0.449814
C98	C	1.442762	0.752767	0.949814
C99	C	0.942776	0.252764	0.550312
C100	C	1.442776	0.752764	1.050312
C101	C	1.126364	0.064972	0.299047
C102	C	1.626364	0.564972	0.799047
C103	C	1.003957	0.190169	0.299053
C104	C	1.503957	0.690169	0.799053
H105	H	0.319566	0.275561	0.000044
H106	H	0.819566	0.775561	0.500044
H107	H	0.509731	-0.110484	0.000105
H108	H	1.009731	0.389516	0.500105
C109	C	0.877381	0.292633	0.000017
C110	C	1.377381	0.792633	0.500017
C111	C	0.782671	0.308571	0.000019
C112	C	1.282671	0.808571	0.500019
H113	H	0.902086	0.350259	0.000002
H114	H	1.402086	0.850259	0.500002
H115	H	0.897142	0.258427	0.055696
H116	H	1.397142	0.758427	0.555696
H117	H	0.897146	0.258414	-0.055660
H118	H	1.397146	0.758414	0.444340
H119	H	0.762906	0.342784	0.055700
H120	H	1.262906	0.842784	0.555700
H121	H	0.762902	0.342791	-0.055666
H122	H	1.262902	0.842791	0.444334
C123	C	0.984576	0.315651	0.186029
C124	C	1.484576	0.815651	0.686029
C125	C	0.936675	0.258980	0.243826
C126	C	1.436675	0.758980	0.743826
H127	H	0.943037	0.358127	0.151930
H128	H	1.443037	0.858127	0.651930
H129	H	1.022146	0.348892	0.225228
H130	H	1.522146	0.848892	0.725228
H131	H	1.021019	0.278364	0.141718
H132	H	1.521019	0.778364	0.641718
H133	H	0.900236	0.296266	0.288141
H134	H	1.400236	0.796266	0.788141
H135	H	0.899089	0.225736	0.204623
H136	H	1.399089	0.725736	0.704623
H137	H	1.176246	0.014016	0.741962
H138	H	1.676246	0.514016	1.241962
C139	C	1.249029	0.045230	0.186037
C140	C	1.749029	0.545230	0.686037
C141	C	1.193660	-0.003815	0.243822
C142	C	1.693660	0.496185	0.743822
H143	H	1.290587	0.002763	0.151953
H144	H	1.790587	0.502763	0.651953
H145	H	1.212573	0.082484	0.141723
H146	H	1.712573	0.582484	0.641723
H147	H	1.281491	0.083695	0.225250
H148	H	1.781491	0.583695	0.725250
H149	H	1.161193	-0.042274	0.204607
H150	H	1.661193	0.457726	0.704607
H151	H	1.230121	-0.041084	0.288141
H152	H	1.730121	0.458916	0.788141
H153	H	1.237428	-0.048595	0.408882
H154	H	1.737428	0.451405	0.908882
H155	H	0.358060	-0.029228	0.000082
H156	H	0.858060	0.470772	0.500082
H157	H	0.450011	0.362307	0.000023
H158	H	0.950011	0.862307	0.500023
C159	C	0.560551	0.462380	0.000029
C160	C	1.060551	0.962380	0.500029
C161	C	0.630995	0.389841	0.000029
C162	C	1.130995	0.889841	0.500029
H163	H	0.585259	0.520005	0.000036
H164	H	1.085259	1.020005	0.500036
H165	H	0.524322	0.458177	-0.055646
H166	H	1.024322	0.958177	0.444354
H167	H	0.524308	0.458161	0.055709
H168	H	1.024308	0.958161	0.555709
H169	H	0.667234	0.394057	-0.055656
H170	H	1.167234	0.894057	0.444344
H171	H	0.667239	0.394046	0.055710
H172	H	1.167239	0.894046	0.555710
C173	C	0.923391	0.378238	0.336779
C174	C	1.423391	0.878238	0.836779
C175	C	0.875484	0.321573	0.394575
C176	C	1.375484	0.821573	0.894575
H177	H	0.881857	0.420710	0.302671
H178	H	1.381857	0.920710	0.802671
H179	H	0.960956	0.411484	0.375980
H180	H	1.460956	0.911484	0.875980
H181	H	0.959841	0.340947	0.292477
H182	H	1.459841	0.840947	0.792477
H183	H	0.839039	0.358864	0.438882
H184	H	1.339039	0.858864	0.938882
H185	H	0.837903	0.288325	0.355371
H186	H	1.337903	0.788325	0.855371
C187	C	0.888456	0.308361	0.704375
C188	C	1.388456	0.808361	1.204375
C189	C	0.875511	0.321576	0.605554
C190	C	1.375511	0.821576	1.105554
H191	H	0.846935	0.350848	0.738480
H192	H	1.346935	0.850848	1.238480
H193	H	0.878565	0.246801	0.720851
H194	H	1.378565	0.746801	1.220851
H195	H	0.948644	0.318487	0.720815
H196	H	1.448644	0.818487	1.220815
H197	H	0.815324	0.311443	0.589113
H198	H	1.315324	0.811443	1.089113
H199	H	0.885394	0.383150	0.589072
H200	H	1.385394	0.883150	1.089072
H201	H	0.810790	-0.020429	0.000052
H202	H	1.310790	0.479571	0.500052
H203	H	1.237438	-0.048579	0.591208
H204	H	1.737438	0.451421	1.091208
C205	C	0.787000	-0.111300	0.000058
C206	C	1.287000	0.388700	0.500058
C207	C	0.696775	-0.130847	0.000070
C208	C	1.196775	0.369153	0.500070
H209	H	0.826112	-0.167681	0.000066
H210	H	1.326112	0.332319	0.500066
H211	H	0.798040	-0.076492	-0.055623
H212	H	1.298040	0.423508	0.444377
H213	H	0.798041	-0.076482	0.055733
H214	H	1.298041	0.423518	0.555733
H215	H	0.685732	-0.165660	-0.055609
H216	H	1.185732	0.334340	0.444391
H217	H	0.685731	-0.165670	0.055756
H218	H	1.185731	0.334330	0.555756
H219	H	0.954164	0.241134	0.741984
H220	H	1.454164	0.741134	1.241984
