data_functionalizedCrystal
_audit_creation_method	'MofGen! by Chris Wilmer'
_symmetry_space_group_name_H-M	'P1'
_symmetry_Int_Tables_number	1
_symmetry_cell_setting	triclinic
loop_
_symmetry_equiv_pos_as_xyz
  x,y,z
_cell_length_a	13.897449
_cell_length_b	13.031981
_cell_length_c	13.032268
_cell_angle_alpha	90.931652
_cell_angle_beta	82.836706
_cell_angle_gamma	97.192993
loop_
_atom_site_label
_atom_site_type_symbol
_atom_site_fract_x
_atom_site_fract_y
_atom_site_fract_z
Zn1	Zn	1.355981	-0.483291	0.529405
Zn2	Zn	1.855981	0.016709	1.029405
Zn3	Zn	1.361018	-0.633478	0.335576
Zn4	Zn	1.861018	-0.133478	0.835576
Zn5	Zn	1.217395	-0.461500	0.357453
Zn6	Zn	1.717395	0.038500	0.857453
Zn7	Zn	1.177077	-0.655247	0.507500
Zn8	Zn	1.677077	-0.155247	1.007500
O9	O	1.277868	-0.558379	0.432483
O10	O	1.777868	-0.058379	0.932483
O11	O	1.491629	-0.503223	0.503705
O12	O	1.991629	-0.003223	1.003705
O13	O	1.360947	-0.592435	0.194565
O14	O	1.860947	-0.092435	0.694565
O15	O	1.250544	-0.320452	0.398585
O16	O	1.750544	0.179548	0.898585
O17	O	1.495329	-0.613565	0.361300
O18	O	1.995329	-0.113565	0.861300
O19	O	1.352363	-0.336462	0.524918
O20	O	1.852363	0.163538	1.024918
O21	O	1.255428	-0.466083	0.210637
O22	O	1.755428	0.033917	0.710637
O23	O	1.077067	-0.487191	0.377345
O24	O	1.577067	0.012809	0.877345
O25	O	1.181828	-0.650666	0.654319
O26	O	1.681828	-0.150666	1.154319
O27	O	1.047446	-0.629536	0.487584
O28	O	1.547446	-0.129536	0.987584
O29	O	1.313268	-0.524331	0.670413
O30	O	1.813268	-0.024331	1.170413
O31	O	1.321853	-0.780304	0.340059
O32	O	1.821853	-0.280304	0.840059
O33	O	1.186712	-0.796297	0.466371
O34	O	1.686712	-0.296297	0.966371
C35	C	1.250477	-0.825625	0.398487
C36	C	1.750477	-0.325625	0.898487
C37	C	1.238843	-0.939958	0.383977
C38	C	1.738843	-0.439958	0.883977
C39	C	1.027258	-0.558362	0.432462
C40	C	1.527258	-0.058362	0.932462
C41	C	0.920040	-0.558383	0.432474
C42	C	1.420040	-0.058383	0.932474
C43	C	1.283988	-0.998777	0.440077
C44	C	1.783988	-0.498777	0.940077
C45	C	1.271965	-1.116947	0.425082
C46	C	1.771965	-0.616947	0.925082
C47	C	0.723741	-0.558390	0.432500
C48	C	1.223741	-0.058390	0.932500
C49	C	0.832977	-0.558382	0.432483
C50	C	1.332977	-0.058382	0.932483
C51	C	1.529456	-0.558396	0.432506
C52	C	2.029456	-0.058396	0.932506
C53	C	1.636668	-0.558404	0.432515
C54	C	2.136668	-0.058404	0.932515
C55	C	1.242489	-0.592358	0.700724
C56	C	1.742489	-0.092358	1.200724
C57	C	1.227413	-0.606838	0.815032
C58	C	1.727413	-0.106838	1.315032
C59	C	1.305389	-0.290092	0.466635
C60	C	1.805389	0.209908	0.966635
C61	C	1.317116	-0.175764	0.481189
C62	C	1.817116	0.324236	0.981189
C63	C	1.313172	-0.524458	0.165295
C64	C	1.813172	-0.024458	0.665295
C65	C	1.328465	-0.509688	0.051025
C66	C	1.828465	-0.009688	0.551025
C67	C	1.285725	-0.550785	0.873958
C68	C	1.785725	-0.050785	1.373958
C69	C	1.270144	-0.565749	0.992101
C70	C	1.770144	-0.065749	1.492101
H71	H	1.224405	-1.154070	0.365952
H72	H	1.724405	-0.654070	0.865952
H73	H	1.165949	-0.665898	0.852051
H74	H	1.665949	-0.165898	1.352051
C75	C	1.211585	-0.951291	0.205583
C76	C	1.711585	-0.451291	0.705583
C77	C	1.174646	-0.990065	0.304151
C78	C	1.674646	-0.490065	0.804151
H79	H	1.171946	-0.982220	0.156304
H80	H	1.671946	-0.482220	0.656304
H81	H	1.276605	-0.966904	0.188397
H82	H	1.776605	-0.466904	0.688397
H83	H	1.211241	-0.878452	0.205199
H84	H	1.711241	-0.378452	0.705199
H85	H	1.174997	-1.062904	0.304537
H86	H	1.674997	-0.562904	0.804537
H87	H	1.109609	-0.974460	0.321342
H88	H	1.609609	-0.474460	0.821342
H89	H	1.208676	-0.624814	1.029115
H90	H	1.708676	-0.124814	1.529115
H91	H	1.347180	-0.491714	0.836941
H92	H	1.847180	0.008286	1.336941
C93	C	1.371872	-0.356105	0.947729
C94	C	1.871872	0.143895	1.447729
C95	C	1.411430	-0.429923	1.001083
C96	C	1.911430	0.070077	1.501083
H97	H	1.423090	-0.306861	0.916897
H98	H	1.923090	0.193139	1.416897
H99	H	1.328393	-0.322050	0.994650
H100	H	1.828393	0.177950	1.494650
H101	H	1.337320	-0.389341	0.895445
H102	H	1.837320	0.110659	1.395445
H103	H	1.445977	-0.396688	1.053373
H104	H	1.945977	0.103312	1.553373
H105	H	1.454926	-0.463981	0.954158
H106	H	1.954926	0.036019	1.454158
C107	C	1.347673	-0.841303	0.519303
C108	C	1.847673	-0.341303	1.019303
C109	C	1.348186	-0.948668	0.519901
C110	C	1.848186	-0.448668	1.019901
H111	H	1.387312	-0.810372	0.568580
H112	H	1.887312	-0.310372	1.068580
H113	H	1.282649	-0.825706	0.536500
H114	H	1.782649	-0.325706	1.036500
H115	H	1.372725	-0.815018	0.452423
H116	H	1.872725	-0.315018	0.952423
H117	H	1.323127	-0.974955	0.586779
H118	H	1.823127	-0.474955	1.086779
H119	H	1.413223	-0.964273	0.502710
H120	H	1.913223	-0.464273	1.002710
H121	H	1.364667	-1.138643	0.540327
H122	H	1.864667	-0.638643	1.040327
