data_functionalizedCrystal
_audit_creation_method	'MofGen! by Chris Wilmer'
_symmetry_space_group_name_H-M	'P1'
_symmetry_Int_Tables_number	1
_symmetry_cell_setting	triclinic
loop_
_symmetry_equiv_pos_as_xyz
  x,y,z
_cell_length_a	14.044220
_cell_length_b	11.792254
_cell_length_c	10.268362
_cell_angle_alpha	89.998485
_cell_angle_beta	90.000071
_cell_angle_gamma	88.693738
loop_
_atom_site_label
_atom_site_type_symbol
_atom_site_fract_x
_atom_site_fract_y
_atom_site_fract_z
O1	O	-1.259125	-0.273764	0.108163
O2	O	-1.009125	-0.023764	0.358163
O3	O	-0.759125	0.226236	0.608163
O4	O	-0.509125	0.476236	0.858163
O5	O	-0.983104	-0.263885	0.108196
O6	O	-0.733104	-0.013885	0.358196
O7	O	-0.483104	0.236115	0.608196
O8	O	-0.233104	0.486115	0.858196
O9	O	-1.127806	-0.104283	0.108169
O10	O	-0.877806	0.145717	0.358169
O11	O	-0.627806	0.395717	0.608169
O12	O	-0.377806	0.645717	0.858169
O13	O	-1.114423	-0.433366	0.108189
O14	O	-0.864423	-0.183366	0.358189
O15	O	-0.614423	0.066634	0.608189
O16	O	-0.364423	0.316634	0.858189
O17	O	-1.127793	-0.104287	-0.108431
O18	O	-0.877793	0.145713	0.141569
O19	O	-0.627793	0.395713	0.391569
O20	O	-0.377793	0.645713	0.641569
O21	O	-0.983090	-0.263889	-0.108405
O22	O	-0.733090	-0.013889	0.141595
O23	O	-0.483090	0.236111	0.391595
O24	O	-0.233090	0.486111	0.641595
O25	O	-1.259111	-0.273768	-0.108438
O26	O	-1.009111	-0.023768	0.141562
O27	O	-0.759111	0.226232	0.391562
O28	O	-0.509111	0.476232	0.641562
Cu29	Cu	-1.121099	-0.268829	-0.128199
Cu30	Cu	-0.871099	-0.018829	0.121801
Cu31	Cu	-0.621099	0.231171	0.371801
Cu32	Cu	-0.371099	0.481171	0.621801
Cu33	Cu	-1.121116	-0.268824	0.127957
Cu34	Cu	-0.871116	-0.018824	0.377957
Cu35	Cu	-0.621116	0.231176	0.627957
Cu36	Cu	-0.371116	0.481176	0.877957
O37	O	-1.114409	-0.433370	-0.108411
O38	O	-0.864409	-0.183370	0.141589
O39	O	-0.614409	0.066630	0.391589
O40	O	-0.364409	0.316630	0.641589
C41	C	-0.947761	-0.259563	-0.000100
C42	C	-0.697761	-0.009563	0.249900
C43	C	-0.447761	0.240437	0.499900
C44	C	-0.197761	0.490437	0.749900
C45	C	-0.842468	-0.246664	-0.000088
C46	C	-0.592468	0.003336	0.249912
C47	C	-0.342468	0.253336	0.499912
C48	C	-0.092468	0.503336	0.749912
C49	C	-1.294455	-0.278090	-0.000139
C50	C	-1.044455	-0.028090	0.249861
C51	C	-0.794455	0.221910	0.499861
C52	C	-0.544455	0.471910	0.749861
C53	C	-1.399747	-0.290989	-0.000142
C54	C	-1.149747	-0.040989	0.249858
C55	C	-0.899747	0.209011	0.499858
C56	C	-0.649747	0.459011	0.749858
C57	C	-1.126956	-0.061915	-0.000130
C58	C	-0.876956	0.188085	0.249870
C59	C	-0.626956	0.438085	0.499870
C60	C	-0.376956	0.688085	0.749870
C61	C	-1.124433	0.064335	-0.000129
C62	C	-0.874433	0.314335	0.249871
C63	C	-0.624433	0.564335	0.499871
C64	C	-0.374433	0.814335	0.749871
C65	C	-0.649685	-0.223082	-0.000115
C66	C	-0.399685	0.026918	0.249885
C67	C	-0.149685	0.276918	0.499885
C68	C	0.100315	0.526918	0.749885
C69	C	-0.592525	-0.314566	-0.000115
C70	C	-0.342525	-0.064566	0.249885
C71	C	-0.092525	0.185434	0.499885
C72	C	0.157475	0.435434	0.749885
C73	C	-0.485254	-0.301445	-0.000130
C74	C	-0.235254	-0.051445	0.249870
C75	C	0.014746	0.198555	0.499870
C76	C	0.264746	0.448555	0.749870
C77	C	-0.756966	-0.236201	-0.000100
C78	C	-0.506966	0.013799	0.249900
C79	C	-0.256966	0.263799	0.499900
C80	C	-0.006966	0.513799	0.749900
C81	C	-1.115259	-0.475738	-0.000108
C82	C	-0.865259	-0.225738	0.249892
C83	C	-0.615259	0.024262	0.499892
C84	C	-0.365259	0.274262	0.749892
C85	C	-1.117782	-0.601988	-0.000101
C86	C	-0.867782	-0.351988	0.249899
C87	C	-0.617782	-0.101988	0.499899
C88	C	-0.367782	0.148012	0.749899
C89	C	-1.122383	0.166864	-0.000124
C90	C	-0.872383	0.416864	0.249876
C91	C	-0.622383	0.666864	0.499876
C92	C	-0.372383	0.916864	0.749876
C93	C	-1.119819	0.295491	-0.000112
C94	C	-0.869819	0.545491	0.249888
C95	C	-0.619819	0.795491	0.499888
C96	C	-0.369819	1.045491	0.749888
N97	N	-1.121095	-0.268833	-0.308364
N98	N	-0.871095	-0.018833	-0.058364
N99	N	-0.621095	0.231167	0.191636
N100	N	-0.371095	0.481167	0.441636
C101	C	-1.121102	-0.268834	-0.426207
C102	C	-0.871102	-0.018834	-0.176207
C103	C	-0.621102	0.231166	0.073793
C104	C	-0.371102	0.481166	0.323793
C105	C	-1.121113	-0.268825	-0.574045
C106	C	-0.871113	-0.018825	-0.324045
C107	C	-0.621113	0.231175	-0.074045
C108	C	-0.371113	0.481175	0.175955
N109	N	-1.121128	-0.268812	0.308123
N110	N	-0.871128	-0.018812	0.558123
N111	N	-0.621128	0.231188	0.808123
N112	N	-0.371128	0.481188	1.058123
H113	H	-0.624152	-0.402743	-0.000103
H114	H	-0.374152	-0.152743	0.249897
H115	H	-0.124152	0.097257	0.499897
H116	H	0.125848	0.347257	0.749897
Br117	Br	-0.596973	-0.076122	-0.000131
Br118	Br	-0.346973	0.173878	0.249869
Br119	Br	-0.096973	0.423878	0.499869
Br120	Br	0.153027	0.673878	0.749869
