data_functionalizedCrystal
_audit_creation_method	'MofGen! by Chris Wilmer'
_symmetry_space_group_name_H-M	'P1'
_symmetry_Int_Tables_number	1
_symmetry_cell_setting	triclinic
loop_
_symmetry_equiv_pos_as_xyz
  x,y,z
_cell_length_a	16.704494
_cell_length_b	16.704486
_cell_length_c	18.878441
_cell_angle_alpha	122.344255
_cell_angle_beta	90.000093
_cell_angle_gamma	54.477068
loop_
_atom_site_label
_atom_site_type_symbol
_atom_site_fract_x
_atom_site_fract_y
_atom_site_fract_z
Zr1	Zr	0.748868	0.864411	0.114474
O2	O	0.598612	1.061695	0.247083
O3	O	0.804622	0.677621	0.065267
O4	O	0.790644	0.859776	0.225385
O5	O	0.612590	0.879537	-0.029607
O6	O	0.931098	0.844182	0.218002
O7	O	0.612590	0.879540	0.086965
O8	O	0.956102	0.518340	-0.068420
O9	O	0.587586	1.205378	0.256815
O10	O	0.921509	0.738926	0.049108
O11	O	0.816691	0.750561	-0.032378
O12	O	0.800234	0.965025	0.156140
O13	O	0.695416	0.976660	0.074654
Zr14	Zr	0.972876	0.839535	-0.083218
Zr15	Zr	0.972875	0.839541	0.102700
Zr16	Zr	0.748869	0.864405	-0.071444
Zr17	Zr	0.731284	1.093569	0.129996
Zr18	Zr	0.990460	0.610377	-0.098741
O19	O	0.917122	1.026325	-0.034011
O20	O	0.917120	1.026333	0.230340
O21	O	0.598613	1.061687	-0.017269
O22	O	1.123132	0.642251	-0.215827
O23	O	1.123131	0.642259	0.048525
O24	O	0.804624	0.677613	-0.199084
O25	O	1.109154	0.824409	0.060863
O26	O	0.931100	0.844170	-0.194129
O27	O	0.790647	0.859764	-0.186746
O28	O	1.109154	0.824406	-0.055709
O29	O	0.765642	1.185610	0.247456
O30	O	0.956102	0.518336	-0.216200
O31	O	1.134158	0.498568	-0.225559
O32	O	1.134157	0.498572	-0.077779
O33	O	0.587587	1.205374	0.109035
O34	O	0.765642	1.185606	0.099676
O35	O	0.921510	0.738921	-0.124884
O36	O	1.026328	0.727286	-0.043398
O37	O	0.905053	0.953385	0.063634
O38	O	0.800235	0.965020	-0.017852
C39	C	0.882867	0.565330	-0.003788
C40	C	0.890332	0.468047	-0.010377
C41	C	0.737448	0.460760	0.124567
C42	C	0.744457	0.369358	0.118381
C43	C	0.911364	0.193841	-0.028932
C44	C	0.904355	0.285243	-0.022746
C45	C	0.817393	0.418702	0.054006
C46	C	0.810380	0.510105	0.060188
C47	C	0.977290	0.334587	-0.087121
C48	C	0.984300	0.243185	-0.093307
C49	C	0.580674	0.883082	0.030356
C50	C	0.485577	0.893640	0.035355
C51	C	0.433502	0.677411	-0.067016
C52	C	0.344153	0.687325	-0.062322
C53	C	0.217531	0.923381	0.049431
C54	C	0.306879	0.913467	0.044737
C55	C	0.414864	0.790478	-0.013487
C56	C	0.504213	0.780565	-0.018175
C57	C	0.377590	1.016619	0.093572
C58	C	0.288241	1.026533	0.098266
C59	C	1.141070	0.820864	0.000899
C60	C	1.236167	0.810306	-0.004099
C61	C	0.860871	0.851980	0.248183
C62	C	0.860870	0.851982	0.327110
C63	C	0.838877	1.138616	0.035044
C64	C	0.831412	1.235899	0.041633
C65	C	0.938246	0.843394	0.360123
C66	C	0.938249	0.843385	0.434278
C67	C	0.860871	0.851973	0.475423
C68	C	0.783491	0.860558	0.442404
C69	C	0.783494	0.860558	0.368246
C70	C	0.783489	0.860562	0.596974
C71	C	0.783484	0.860565	0.671139
C72	C	0.938245	0.843388	0.663007
C73	C	0.938247	0.843388	0.588848
C74	C	0.860866	0.851975	0.555835
C75	C	0.860870	0.851969	0.783074
C76	C	0.860860	0.851976	0.704152
C77	C	1.163066	0.534222	-0.018516
C78	C	1.265627	0.426380	-0.030105
C79	C	0.882869	0.565324	-0.236343
C80	C	0.890334	0.468038	-0.321860
C81	C	1.163067	0.534215	-0.251071
C82	C	1.265629	0.426371	-0.341587
C83	C	0.558677	1.169731	0.282327
C84	C	0.456115	1.277575	0.372843
C85	C	0.558678	1.169724	0.049772
C86	C	0.456117	1.277566	0.061360
C87	C	0.838875	1.138622	0.267599
C88	C	0.831410	1.235908	0.353116
C89	C	1.259077	0.381812	0.012748
C90	C	1.355435	0.280497	0.001879
C91	C	1.458343	0.223745	-0.051850
C92	C	1.464891	0.268322	-0.094703
C93	C	1.368533	0.369641	-0.083828
C94	C	0.948554	0.416275	-0.410314
C95	C	0.955564	0.324878	-0.490672
C96	C	0.904359	0.285238	-0.482574
C97	C	0.846131	0.337010	-0.394110
C98	C	0.839116	0.428412	-0.313754
C99	C	1.368517	0.369652	-0.341559
C100	C	1.464892	0.268332	-0.426600
C101	C	1.458378	0.223728	-0.511669
C102	C	1.355479	0.280457	-0.511693
C103	C	1.259106	0.381781	-0.426653
C104	C	0.353226	1.334305	0.372816
C105	C	0.256849	1.435653	0.457859
C106	C	0.263362	1.480262	0.542928
C107	C	0.366262	1.423527	0.542952
C108	C	0.462637	1.322188	0.457910
C109	C	0.462666	1.322144	0.018516
C110	C	0.366306	1.423484	0.029408
C111	C	0.263398	1.480239	0.083139
C112	C	0.256851	1.435658	0.125989
C113	C	0.353209	1.334325	0.115102
C114	C	0.882628	1.275518	0.344988
C115	C	0.875634	1.366915	0.425330
C116	C	0.817416	1.418706	0.513801
C117	C	0.766198	1.379087	0.521927
C118	C	0.773198	1.287686	0.441584
H119	H	1.055104	0.134514	-0.155794
C120	C	1.145932	0.444159	-0.426699
N121	N	1.060691	0.491139	-0.426740
C122	C	1.065234	0.288324	-0.164745
N123	N	1.131469	0.253482	-0.223212
C124	C	1.578101	0.205871	-0.153810
N125	N	1.663375	0.158823	-0.198336
C126	C	1.348209	0.231470	0.049016
N127	N	1.342763	0.194544	0.084517
C128	C	0.575813	1.259780	0.457954
N129	N	0.661056	1.212777	0.457994
C130	C	1.375758	0.418642	-0.130985
N131	N	1.381208	0.455542	-0.166508
C132	C	0.098739	1.058657	0.113475
N133	N	0.009263	1.160549	0.161715
H134	H	1.175292	0.428018	0.056510
C135	C	0.714723	0.656909	0.144618
N136	N	0.642674	0.767483	0.208215
H137	H	1.002982	0.282734	-0.562695
C138	C	0.157337	1.591731	0.636468
N139	N	0.077475	1.675684	0.706920
H140	H	0.910080	0.210811	-0.548013
C141	C	0.143642	1.498086	0.185076
N142	N	0.058371	1.545100	0.229572
H143	H	0.804443	0.304721	-0.387531
C144	C	0.931977	1.410484	0.416372
N145	N	0.974413	1.443299	0.409622
C146	C	0.346034	1.285263	0.279250
N147	N	0.340607	1.248338	0.208780
H148	H	0.990253	0.448539	-0.416925
H149	H	0.791711	0.470546	-0.241734
H150	H	0.666623	0.569428	0.187049
C151	C	0.809724	1.519252	0.602173
N152	N	0.803932	1.594986	0.668731
H153	H	0.359337	0.595255	-0.105912
C154	C	1.007019	0.047029	-0.113348
N155	N	1.079067	-0.063551	-0.176931
H156	H	1.373842	0.405953	-0.272301
C157	C	0.698370	0.870001	0.716392
N158	N	0.634262	0.877106	0.750475
H159	H	0.592137	0.680421	-0.065590
C160	C	1.023371	0.833944	0.314869
N161	N	1.087493	0.826820	0.280783
C162	C	1.578071	0.205937	-0.426553
N163	N	1.663314	0.158940	-0.426515
H164	H	0.718797	1.421270	0.593971
C165	C	0.656506	0.415632	0.196000
N166	N	0.590255	0.450489	0.254465
H167	H	0.521426	0.577269	-0.114430
H168	H	0.371659	1.459765	-0.005491
H169	H	0.731485	1.255447	0.448216
H170	H	1.536861	0.141223	-0.580908
H171	H	0.173074	1.481831	0.457821
C172	C	0.169452	1.161814	0.162315
N173	N	0.079980	1.263710	0.210563
H174	H	0.362419	1.108687	0.137162
H175	H	0.371552	1.459861	0.612225
C176	C	1.023394	0.833890	0.470567
N177	N	1.087539	0.826720	0.497890
H178	H	1.001250	0.836404	0.555352
H179	H	1.001251	0.836396	0.689890
C180	C	1.348333	0.231367	-0.605279
N181	N	1.342955	0.194381	-0.675771
H182	H	0.546451	1.275941	-0.025243
C183	C	0.698375	0.869989	0.560652
N184	N	0.634269	0.877089	0.533294
H185	H	0.720491	0.867543	0.475905
H186	H	0.720487	0.867549	0.341367
H187	H	1.536795	0.141243	-0.060699
H188	H	0.184945	1.562750	0.091996
H189	H	0.347862	1.298035	0.149990
H190	H	0.930034	1.233363	0.272958
