data_functionalizedCrystal
_audit_creation_method	'MofGen! by Chris Wilmer'
_symmetry_space_group_name_H-M	'P1'
_symmetry_Int_Tables_number	1
_symmetry_cell_setting	triclinic
loop_
_symmetry_equiv_pos_as_xyz
  x,y,z
_cell_length_a	14.971487
_cell_length_b	16.098538
_cell_length_c	14.971486
_cell_angle_alpha	92.725922
_cell_angle_beta	83.614266
_cell_angle_gamma	87.264203
loop_
_atom_site_label
_atom_site_type_symbol
_atom_site_fract_x
_atom_site_fract_y
_atom_site_fract_z
O1	O	-1.190938	0.069137	-0.112579
O2	O	-0.930540	0.069165	-0.126536
O3	O	-1.067718	0.069144	0.010642
O4	O	-1.053760	0.069158	-0.249757
O5	O	-1.059705	-0.069367	0.002660
O6	O	-0.922526	-0.069347	-0.134518
O7	O	-1.182925	-0.069375	-0.120561
Zn8	Zn	-1.051453	-0.091353	-0.128807
Zn9	Zn	-1.062011	0.091143	-0.118290
O10	O	-1.045747	-0.069354	-0.257739
C11	C	-0.893209	-0.000087	-0.129902
C12	C	-0.793912	-0.000077	-0.128031
C13	C	-0.736687	-0.000073	-0.208620
C14	C	-0.643387	-0.000084	-0.206857
C15	C	-0.607314	-0.000092	-0.124504
C16	C	-0.664546	-0.000099	-0.043909
C17	C	-0.757844	-0.000094	-0.045673
C18	C	-0.470084	-0.000107	-0.040238
C19	C	-0.376779	-0.000110	-0.038474
C20	C	-0.355626	-0.000096	-0.201422
C21	C	-0.448924	-0.000091	-0.203186
C22	C	-0.506150	-0.000096	-0.122590
N23	N	-1.044254	-0.215901	-0.135983
C24	C	-1.102500	-0.259494	-0.077780
C25	C	-1.097472	-0.346683	-0.082809
C26	C	-1.034203	-0.390275	-0.146046
C27	C	-0.975951	-0.346676	-0.204252
C28	C	-0.980975	-0.259489	-0.199218
C29	C	-1.015990	-0.653523	-0.164279
C30	C	-1.010972	-0.740715	-0.169310
C31	C	-1.132492	-0.740717	-0.047865
C32	C	-1.137514	-0.653528	-0.042841
C33	C	-1.079260	-0.609936	-0.101043
C34	C	-1.029064	-0.479396	-0.151190
C35	C	-1.084395	-0.520817	-0.095895
C36	C	-0.220256	-0.000116	-0.117194
C37	C	-0.319554	-0.000106	-0.119062
C38	C	-1.063087	-0.000111	0.039976
C39	C	-1.061216	-0.000110	0.139273
N40	N	-1.069217	0.215691	-0.111107
C41	C	-1.050378	-0.000097	-0.287073
C42	C	-1.052249	-0.000092	-0.386370
C43	C	-1.141805	-0.000120	0.196498
C44	C	-1.140042	-0.000111	0.289798
C45	C	-1.057690	-0.000099	0.325871
C46	C	-0.977095	-0.000087	0.268639
C47	C	-0.978859	-0.000090	0.175341
C48	C	-0.973424	-0.000084	0.463102
C49	C	-0.971660	-0.000083	0.556406
C50	C	-1.134608	-0.000105	0.577558
C51	C	-1.136372	-0.000108	0.484260
C52	C	-1.055776	-0.000097	0.427035
H53	H	-0.347412	-0.000118	0.028585
F54	F	-0.626152	-0.000114	0.043737
F55	F	-0.818748	-0.000101	0.040100
H56	H	-1.203430	-0.000123	0.454893
H57	H	-1.205666	-0.000120	0.336387
H58	H	-0.516675	-0.000112	0.025391
H59	H	-1.154024	-0.224007	-0.026290
H60	H	-1.135906	-0.485321	-0.044404
H61	H	-0.766050	-0.000065	-0.275681
F62	F	-1.194485	-0.787116	0.014076
F63	F	-1.220384	-0.000112	0.638463
H64	H	-0.596797	-0.000079	-0.272481
F65	F	-0.943629	-0.787105	-0.236621
F66	F	-1.159462	-0.393079	-0.020862
H67	H	-0.478292	-0.000076	-0.270244
F68	F	-0.953994	-0.607135	-0.226224
F69	F	-1.204853	-0.607135	0.024462
F70	F	-0.918979	-0.213094	-0.261164
F71	F	-0.908610	-0.393071	-0.271550
F72	F	-0.961730	-0.525795	-0.218492
F73	F	-0.884011	-0.000071	0.594795
F74	F	-0.294721	-0.000093	-0.287198
H75	H	-1.208866	-0.000134	0.167134
F76	F	-0.887645	-0.000071	0.402200
H77	H	-0.910043	-0.000073	0.298017
H78	H	-0.913235	-0.000082	0.128749
