data_functionalizedCrystal
_audit_creation_method	'MofGen! by Chris Wilmer'
_symmetry_space_group_name_H-M	'P1'
_symmetry_Int_Tables_number	1
_symmetry_cell_setting	triclinic
loop_
_symmetry_equiv_pos_as_xyz
  x,y,z
_cell_length_a	14.853569
_cell_length_b	19.188930
_cell_length_c	13.330367
_cell_angle_alpha	89.990231
_cell_angle_beta	89.994419
_cell_angle_gamma	83.390173
loop_
_atom_site_label
_atom_site_type_symbol
_atom_site_fract_x
_atom_site_fract_y
_atom_site_fract_z
O1	O	1.195861	0.091160	-0.083389
O2	O	0.933341	0.102018	-0.083403
O3	O	1.072177	-0.005041	-0.083376
O4	O	1.057025	0.198219	-0.083416
O5	O	1.072157	-0.005044	0.083471
O6	O	0.933321	0.102016	0.083444
O7	O	1.195841	0.091158	0.083458
Cu8	Cu	1.064579	0.096586	0.098686
Cu9	Cu	1.064603	0.096589	-0.098631
O10	O	1.057005	0.198217	0.083431
C11	C	0.899745	0.101525	0.000019
C12	C	0.799670	0.100050	0.000015
C13	C	1.071676	-0.031055	0.000050
C14	C	1.070203	-0.108565	0.000059
C15	C	0.763651	0.035762	0.000024
C16	C	0.741654	0.162952	0.000010
C17	C	0.647628	0.161568	0.000012
C18	C	0.611609	0.097281	0.000021
C19	C	0.669616	0.034377	0.000029
C20	C	0.589614	0.224471	0.000014
C21	C	0.495581	0.223090	0.000017
C22	C	0.459560	0.158802	0.000019
C23	C	0.517574	0.095895	0.000025
C24	C	0.481555	0.031608	0.000034
C25	C	0.539567	-0.031300	0.000034
C26	C	0.633595	-0.029912	0.000031
C27	C	0.365532	0.157413	0.000022
C28	C	0.387520	0.030222	0.000039
C29	C	1.151668	-0.153216	0.000068
C30	C	1.150284	-0.226045	0.000052
C31	C	1.067431	-0.254218	0.000047
C32	C	0.985956	-0.209556	0.000032
C33	C	0.987342	-0.136730	0.000038
N34	N	1.004094	-0.362435	0.056825
N35	N	1.002782	-0.431618	0.056821
C36	C	1.063250	-0.473641	0.000026
N37	N	1.125092	-0.443868	-0.056752
N38	N	1.126406	-0.374679	-0.056744
C39	C	1.065919	-0.333186	0.000040
C40	C	1.143220	-0.597262	0.000016
C41	C	1.141832	-0.670092	-0.000006
C42	C	0.977503	-0.653601	-0.000016
C43	C	0.978892	-0.580774	-0.000003
C44	C	1.061753	-0.552609	0.000017
C45	C	1.229437	0.091651	0.000034
C46	C	1.329512	0.093126	0.000031
C47	C	1.057506	0.224231	0.000002
C48	C	1.058979	0.301740	-0.000013
N49	N	1.064569	0.096584	0.237467
N50	N	1.064620	0.096586	-0.237412
C51	C	1.003124	0.143976	0.710078
C52	C	1.126106	0.049197	0.710070
C53	C	1.126096	0.049195	0.605051
C54	C	1.064600	0.096585	0.552542
C55	C	1.003114	0.143977	0.605050
C56	C	1.187587	0.001808	0.552535
C57	C	1.187580	0.001804	0.447510
C58	C	1.126079	0.049192	0.394999
C59	C	1.064590	0.096585	0.447513
C60	C	1.003093	0.143976	0.395004
C61	C	0.941599	0.191367	0.447517
C62	C	0.941613	0.191365	0.552538
C63	C	1.126066	0.049194	0.289977
C64	C	1.003083	0.143976	0.289976
H65	H	0.358201	-0.022129	0.000041
Br66	Br	0.286806	0.242780	0.000039
Br67	Br	1.255670	-0.559033	0.000055
H68	H	1.176137	0.010612	0.247226
H69	H	0.912555	-0.544417	-0.000005
Br70	Br	1.264121	-0.114995	0.000068
Br71	Br	1.271052	-0.062499	0.623794
H72	H	1.208173	-0.706447	-0.000004
Br73	Br	0.858164	0.255677	0.623807
Br74	Br	0.919665	0.208286	0.781338
H75	H	1.216624	-0.262407	0.000055
H76	H	0.680836	-0.081127	0.000032
H77	H	0.770987	0.215292	0.000010
H78	H	0.910042	-0.676539	-0.000025
Br79	Br	0.638500	0.311713	0.000000
H80	H	1.176179	0.010616	0.752827
Br81	Br	0.919612	0.208290	0.218720
Br82	Br	0.490672	-0.118544	0.000060
Br83	Br	1.271032	-0.062510	0.376249
H84	H	0.810888	-0.015455	0.000020
Br85	Br	0.416859	0.308461	0.000012
H86	H	0.918497	-0.232500	0.000026
Br87	Br	0.876775	-0.076126	0.000023
H88	H	0.891532	0.229955	0.404751
