data_functionalizedCrystal
_audit_creation_method	'MofGen! by Chris Wilmer'
_symmetry_space_group_name_H-M	'P1'
_symmetry_Int_Tables_number	1
_symmetry_cell_setting	triclinic
loop_
_symmetry_equiv_pos_as_xyz
  x,y,z
_cell_length_a	8.965430
_cell_length_b	14.971486
_cell_length_c	14.971486
_cell_angle_alpha	96.385871
_cell_angle_beta	89.999789
_cell_angle_gamma	90.001143
loop_
_atom_site_label
_atom_site_type_symbol
_atom_site_fract_x
_atom_site_fract_y
_atom_site_fract_z
O1	O	0.123869	-1.186945	0.116556
O2	O	0.623869	-0.686945	0.616556
O3	O	0.123909	-0.926544	0.130515
O4	O	0.623909	-0.426544	0.630515
O5	O	0.123877	-1.063724	-0.006665
O6	O	0.623877	-0.563724	0.493335
O7	O	0.123901	-1.049765	0.253735
O8	O	0.623901	-0.549765	0.753735
O9	O	-0.124202	-1.063712	-0.006656
O10	O	0.375798	-0.563712	0.493344
O11	O	-0.124170	-0.926533	0.130524
O12	O	0.375830	-0.426533	0.630524
O13	O	-0.124210	-1.186933	0.116565
O14	O	0.375790	-0.686933	0.616565
Cu15	Cu	-0.146842	-1.056732	0.123545
Cu16	Cu	0.353158	-0.556732	0.623545
Cu17	Cu	0.146540	-1.056746	0.123535
Cu18	Cu	0.646540	-0.556746	0.623535
O19	O	-0.124178	-1.049753	0.253745
O20	O	0.375822	-0.549753	0.753745
C21	C	-0.000125	-0.893214	0.129895
C22	C	0.499875	-0.393214	0.629895
C23	C	-0.000110	-0.793917	0.128024
C24	C	0.499890	-0.293917	0.628024
N25	N	-0.353191	-1.056729	0.123552
N26	N	0.146809	-0.556729	0.623552
C27	C	-0.000162	-1.063094	-0.039985
C28	C	0.499838	-0.563094	0.460015
C29	C	-0.000160	-1.061223	-0.139282
C30	C	0.499840	-0.561223	0.360718
C31	C	-0.450482	-0.993268	0.186973
C32	C	0.049518	-0.493268	0.686973
C33	C	-0.549907	-1.074114	0.204415
C34	C	-0.049907	-0.574114	0.704415
C35	C	-0.549893	-0.975917	0.106117
C36	C	-0.049893	-0.475917	0.606117
C37	C	-0.450426	-1.137615	0.141035
C38	C	0.049574	-0.637615	0.641035
C39	C	-0.450405	-1.039365	0.042702
C40	C	0.049595	-0.539365	0.542702
C41	C	-0.549785	-1.120269	0.060111
C42	C	-0.049785	-0.620269	0.560111
N43	N	0.352890	-1.056756	0.123520
N44	N	0.852890	-0.556756	0.623520
C45	C	-0.000173	-1.220263	0.117185
C46	C	0.499827	-0.720263	0.617185
C47	C	-0.000178	-1.319561	0.119056
C48	C	0.499822	-0.819561	0.619056
C49	C	-0.000105	-0.736692	0.208614
C50	C	0.499895	-0.236692	0.708614
C51	C	-0.000127	-0.643392	0.206850
C52	C	0.499873	-0.143392	0.706850
C53	C	-0.000144	-0.607320	0.124497
C54	C	0.499856	-0.107320	0.624497
C55	C	-0.000154	-0.664552	0.043902
C56	C	0.499846	-0.164552	0.543902
C57	C	-0.000142	-0.757850	0.045666
C58	C	0.499858	-0.257850	0.545666
C59	C	-0.000174	-0.470090	0.040231
C60	C	0.499826	0.029910	0.540231
C61	C	-0.000183	-0.376786	0.038466
C62	C	0.499817	0.123214	0.538466
C63	C	-0.000160	-0.355632	0.201415
C64	C	0.499840	0.144368	0.701415
C65	C	-0.000148	-0.448930	0.203179
C66	C	0.499852	0.051070	0.703179
C67	C	-0.000155	-0.506156	0.122584
C68	C	0.499845	-0.006156	0.622584
C69	C	-0.000174	-1.141812	-0.196507
C70	C	0.499826	-0.641812	0.303493
C71	C	-0.000158	-1.140049	-0.289807
C72	C	0.499842	-0.640049	0.210193
C73	C	-0.000140	-1.057696	-0.325879
C74	C	0.499860	-0.557696	0.174121
C75	C	-0.000122	-0.977101	-0.268646
C76	C	0.499878	-0.477101	0.231354
C77	C	-0.000127	-0.978865	-0.175349
C78	C	0.499873	-0.478865	0.324651
C79	C	-0.000116	-0.973430	-0.463109
C80	C	0.499884	-0.473430	0.036891
C81	C	-0.000114	-0.971665	-0.556413
C82	C	0.499886	-0.471665	-0.056413
C83	C	-0.000148	-1.134614	-0.577567
C84	C	0.499852	-0.634614	-0.077567
C85	C	-0.000152	-1.136378	-0.484269
C86	C	0.499848	-0.636378	0.015731
C87	C	-0.000137	-1.055782	-0.427043
C88	C	0.499863	-0.555782	0.072957
C89	C	-0.000136	-1.050384	0.287065
C90	C	0.499864	-0.550384	0.787065
C91	C	-0.000128	-1.052254	0.386362
C92	C	0.499872	-0.552254	0.886362
H93	H	-0.406881	-0.939651	0.240654
H94	H	0.093119	-0.439651	0.740654
Cl95	Cl	-0.000254	-0.331439	-0.065065
Cl96	Cl	0.499746	0.168561	0.434935
H97	H	-0.000121	-0.596802	0.272474
H98	H	0.499879	-0.096802	0.772474
Cl99	Cl	-0.000168	-1.239909	-0.438922
Cl100	Cl	0.499832	-0.739909	0.061078
Cl101	Cl	-0.000154	-0.283691	0.302736
Cl102	Cl	0.499846	0.216309	0.802736
H103	H	-0.593589	-0.907565	0.091385
H104	H	-0.093589	-0.407565	0.591385
H105	H	-0.000120	-0.478296	0.270239
H106	H	0.499880	0.021704	0.770239
H107	H	-0.593612	-1.088820	0.272774
H108	H	-0.093612	-0.588820	0.772774
Cl109	Cl	-0.000186	-0.542030	-0.061092
Cl110	Cl	0.499814	-0.042030	0.438908
Cl111	Cl	-0.000184	-0.619204	-0.059629
Cl112	Cl	0.499816	-0.119204	0.440371
Cl113	Cl	-0.000155	-0.829791	-0.055651
Cl114	Cl	0.499845	-0.329791	0.444349
Cl115	Cl	-0.000093	-0.868134	-0.601760
Cl116	Cl	0.499907	-0.368134	-0.101760
H117	H	-0.000090	-0.766054	0.275675
H118	H	0.499910	-0.266054	0.775675
Cl119	Cl	-0.383263	-1.243172	0.163906
Cl120	Cl	0.116737	-0.743172	0.663906
Cl121	Cl	-0.000212	-1.245348	-0.151169
Cl122	Cl	0.499788	-0.745348	0.348831
H123	H	-0.000100	-0.907800	-0.416517
H124	H	0.499900	-0.407800	0.083483
H125	H	-0.000173	-1.205673	-0.336396
H126	H	0.499827	-0.705673	0.163604
H127	H	-0.000156	-1.200238	-0.624165
H128	H	0.499844	-0.700238	-0.124165
H129	H	-0.593112	-1.174006	0.006461
H130	H	-0.093112	-0.674006	0.506461
H131	H	-0.000098	-0.910047	-0.298024
H132	H	0.499902	-0.410047	0.201976
H133	H	-0.406665	-1.024634	-0.025635
H134	H	0.093335	-0.524634	0.474365
H135	H	-0.000115	-0.913240	-0.128756
H136	H	0.499885	-0.413240	0.371244
