data_functionalizedCrystal
_audit_creation_method	'MofGen! by Chris Wilmer'
_symmetry_space_group_name_H-M	'P1'
_symmetry_Int_Tables_number	1
_symmetry_cell_setting	triclinic
loop_
_symmetry_equiv_pos_as_xyz
  x,y,z
_cell_length_a	27.440280
_cell_length_b	18.760492
_cell_length_c	27.440280
_cell_angle_alpha	60.005042
_cell_angle_beta	90.008003
_cell_angle_gamma	59.997169
loop_
_atom_site_label
_atom_site_type_symbol
_atom_site_fract_x
_atom_site_fract_y
_atom_site_fract_z
Zr1	Zr	0.469481	0.780161	-0.063911
O2	O	0.391658	0.928874	-0.141734
O3	O	0.493341	0.631449	-0.040051
O4	O	0.493336	0.780144	-0.141717
O5	O	0.391664	0.780193	0.040126
O6	O	0.573539	0.780130	-0.141707
O7	O	0.391663	0.780179	-0.040067
O8	O	0.573548	0.514142	0.040156
O9	O	0.391655	1.046181	-0.141737
O10	O	0.563368	0.692606	-0.029871
O11	O	0.503515	0.692627	0.029969
O12	O	0.503509	0.867696	-0.089730
O13	O	0.443655	0.867717	-0.029890
Zr14	Zr	0.597397	0.780161	0.064005
Zr15	Zr	0.597396	0.780139	-0.063895
Zr16	Zr	0.469483	0.780183	0.063989
Zr17	Zr	0.469477	0.967253	-0.063915
Zr18	Zr	0.597402	0.593070	0.064009
O19	O	0.573538	0.928874	0.040145
O20	O	0.573535	0.928843	-0.141711
O21	O	0.391660	0.928905	0.040122
O22	O	0.675221	0.631449	0.141828
O23	O	0.675219	0.631418	-0.040028
O24	O	0.493344	0.631480	0.141805
O25	O	0.675215	0.780130	-0.040032
O26	O	0.573543	0.780179	0.141812
O27	O	0.493340	0.780193	0.141802
O28	O	0.675216	0.780144	0.040161
O29	O	0.493329	1.046164	-0.141724
O30	O	0.573549	0.514159	0.141818
O31	O	0.675224	0.514142	0.141831
O32	O	0.675223	0.514124	0.040168
O33	O	0.391656	1.046198	-0.040074
O34	O	0.493331	1.046181	-0.040061
O35	O	0.563370	0.692627	0.089824
O36	O	0.623224	0.692606	0.029984
O37	O	0.563364	0.867696	-0.029875
O38	O	0.503511	0.867717	0.029965
C39	C	0.533445	0.546139	0.000053
C40	C	0.533447	0.466714	0.000055
C41	C	0.373438	0.780189	0.000027
C42	C	0.319135	0.780198	0.000020
C43	C	0.502189	0.130930	0.031278
C44	C	0.564677	0.130913	-0.031196
C45	C	0.564681	0.205528	-0.031193
C46	C	0.533438	0.242849	0.000046
C47	C	0.502191	0.205554	0.031281
C48	C	0.595923	0.242836	-0.062432
C49	C	0.595929	0.317457	-0.062431
C50	C	0.564689	0.354774	-0.031188
C51	C	0.533440	0.317474	0.000049
C52	C	0.502197	0.354794	0.031287
C53	C	0.470952	0.317490	0.062528
C54	C	0.470951	0.242871	0.062523
C55	C	0.564690	0.429393	-0.031184
C56	C	0.502200	0.429419	0.031290
C57	C	0.013684	0.688750	0.031309
C58	C	-0.037335	0.688744	0.031315
O59	O	-0.037149	0.611016	0.057906
N60	N	-0.094097	0.780138	0.000068
C61	C	-0.099841	0.871544	-0.031181
O62	O	-0.152807	0.949281	-0.057757
C63	C	-0.048823	0.871548	-0.031182
C64	C	0.007939	0.780148	0.000061
C65	C	0.070443	0.597357	0.062551
C66	C	0.121458	0.597363	0.062545
C67	C	0.115713	0.688762	0.031297
C68	C	0.058954	0.780154	0.000055
C69	C	-0.054568	0.962953	-0.062427
C70	C	-0.003543	0.962950	-0.062426
C71	C	0.053219	0.871549	-0.031182
C72	C	0.104224	0.871559	-0.031199
N73	N	0.160986	0.780165	0.000047
C74	C	0.166731	0.688766	0.031295
C75	C	-0.206980	0.871527	-0.031174
C76	C	-0.257997	0.871524	-0.031177
C77	C	-0.195487	0.688724	0.031320
C78	C	-0.144469	0.688728	0.031318
C79	C	-0.150217	0.780133	0.000072
C80	C	0.273864	0.688785	0.031279
C81	C	0.324880	0.688800	0.031268
C82	C	0.262366	0.871599	-0.031226
C83	C	0.211354	0.871586	-0.031217
C84	C	0.217107	0.780171	0.000040
O85	O	0.104084	0.949247	-0.057775
O86	O	0.219699	0.611042	0.057874
C87	C	0.693441	0.780134	0.000067
C88	C	0.747743	0.780125	0.000074
C89	C	0.533437	0.780134	-0.159935
C90	C	0.533436	0.780125	-0.214232
C91	C	0.533434	1.014184	0.000041
C92	C	0.533432	1.093609	0.000039
C93	C	0.502199	0.871573	-0.582212
C94	C	0.502200	0.871579	-0.633234
O95	O	0.475645	0.949307	-0.686196
N96	N	0.533445	0.780185	-0.627506
C97	C	0.564696	0.688779	-0.570750
O98	O	0.591272	0.611042	-0.570563
C99	C	0.564697	0.688774	-0.519729
C100	C	0.533445	0.780175	-0.525463
C101	C	0.470950	0.962966	-0.587943
C102	C	0.470947	0.962960	-0.536924
C103	C	0.502194	0.871561	-0.480174
C104	C	0.533442	0.780169	-0.474444
C105	C	0.595950	0.597370	-0.462975
C106	C	0.595949	0.597373	-0.411953
C107	C	0.564697	0.688773	-0.417686
C108	C	0.564686	0.688764	-0.366675
N109	N	0.533441	0.780158	-0.372404
C110	C	0.502195	0.871557	-0.429153
C111	C	0.564691	0.688795	-0.677900
C112	C	0.564687	0.688799	-0.728920
C113	C	0.502192	0.871599	-0.791401
C114	C	0.502194	0.871594	-0.740380
C115	C	0.533446	0.780189	-0.683629
C116	C	0.502192	0.871537	-0.322008
C117	C	0.502190	0.871523	-0.270981
C118	C	0.564687	0.688724	-0.208505
C119	C	0.564686	0.688737	-0.259527
C120	C	0.533437	0.780152	-0.316280
O121	O	0.591230	0.611076	-0.313695
O122	O	0.475629	0.949281	-0.429330
C123	C	0.533442	0.780189	0.160029
C124	C	0.533443	0.780198	0.214326
C125	C	0.693446	0.546111	0.000073
C126	C	0.747751	0.466677	0.000082
C127	C	0.533447	0.546166	0.160035
C128	C	0.533450	0.466750	0.214334
C129	C	0.693449	0.546139	0.160055
C130	C	0.747754	0.466714	0.214361
C131	C	0.373430	1.014184	-0.159961
C132	C	0.319125	1.093609	-0.214267
C133	C	0.373433	1.014211	0.000021
C134	C	0.319128	1.093646	0.000012
C135	C	0.533431	1.014156	-0.159941
C136	C	0.533429	1.093572	-0.214240
C137	C	0.742009	0.429374	-0.031163
C138	C	0.793030	0.354747	-0.031167
C139	C	0.849791	0.317420	0.000078
C140	C	0.855532	0.354730	0.031324
C141	C	0.804512	0.429361	0.031324
C142	C	0.564695	0.429456	0.271082
C143	C	0.564696	0.354847	0.322106
C144	C	0.533454	0.317528	0.316381
C145	C	0.502205	0.354830	0.259627
C146	C	0.502202	0.429443	0.208604
C147	C	0.804505	0.429404	0.208627
C148	C	0.855536	0.354786	0.259648
C149	C	0.849815	0.317474	0.316402
C150	C	0.793058	0.354791	0.322134
C151	C	0.742028	0.429413	0.271114
C152	C	0.262374	1.130928	-0.208533
C153	C	0.211343	1.205569	-0.259554
C154	C	0.217064	1.242885	-0.316308
C155	C	0.273821	1.205563	-0.322040
C156	C	0.324851	1.130928	-0.271020
C157	C	0.324869	1.130957	0.031252
C158	C	0.273849	1.205604	0.031241
C159	C	0.217088	1.242934	-0.000005
C160	C	0.211347	1.205620	-0.031249
C161	C	0.262367	1.130979	-0.031242
C162	C	0.564676	1.130867	-0.208495
C163	C	0.564686	1.205477	-0.259510
C164	C	0.533443	1.242795	-0.316268
C165	C	0.502194	1.205493	-0.322011
C166	C	0.502189	1.130880	-0.270998
H167	H	0.476758	0.459799	0.056730
Br168	Br	0.638314	0.192196	-0.104833
Br169	Br	0.785225	0.304125	-0.073573
H170	H	0.621370	0.347824	-0.087868
Br171	Br	0.254564	1.080347	-0.073639
Br172	Br	0.401896	1.080315	0.073661
H173	H	0.278472	1.235955	-0.368255
Br174	Br	0.428519	1.087010	-0.544715
Br175	Br	0.607085	0.480025	-0.073583
H176	H	0.476760	0.459798	0.162399
Br177	Br	0.919027	0.216134	0.000072
Br178	Br	0.428546	0.368158	0.104915
H179	H	0.901754	0.324328	0.056763
Br180	Br	0.932555	0.304155	0.251855
H181	H	0.175508	1.303657	-0.357847
Br182	Br	0.812315	0.479972	0.073736
Br183	Br	0.533455	1.344059	-0.385496
Br184	Br	0.134309	1.256290	-0.073651
Br185	Br	0.281654	1.256226	0.073648
H186	H	0.371099	0.614367	0.056712
H187	H	0.371058	1.100544	-0.275695
H188	H	0.809175	0.459773	0.162420
Br189	Br	0.147852	1.344234	-0.000009
H190	H	0.590118	1.100494	-0.162285
H191	H	0.891371	0.256712	0.357941
H192	H	0.590131	1.235840	-0.254822
Br193	Br	0.459781	0.995641	-0.748167
H194	H	0.278557	0.614347	0.056732
Br195	Br	-0.214790	0.995589	-0.073589
H196	H	0.788408	0.324400	0.368350
Br197	Br	0.254593	1.080298	-0.131517
Br198	Br	0.428539	1.087024	-0.664956
H199	H	0.476757	1.235890	-0.368231
H200	H	0.695821	0.459781	0.275790
Br201	Br	0.134324	1.256202	-0.251760
Br202	Br	0.459772	1.080283	-0.278805
H203	H	0.590136	0.459832	0.275755
Br204	Br	0.607109	0.304237	0.399122
Br205	Br	0.459808	0.304172	0.251867
H206	H	0.476749	0.946021	-0.837617
Br207	Br	0.428559	0.192228	0.104926
Br208	Br	0.607089	0.564751	-0.721131
H209	H	0.533462	0.256774	0.357932
Br210	Br	0.607069	0.080274	-0.073597
Br211	Br	0.459796	0.080292	0.073684
Br212	Br	0.078256	0.473299	0.104968
Br213	Br	-0.067439	0.564681	0.073722
Br214	Br	0.198487	0.473313	0.104953
H215	H	-0.190817	0.614302	0.056762
H216	H	-0.304212	0.945951	-0.056626
Br217	Br	-0.131592	1.087004	-0.104827
H218	H	0.590138	0.614358	-0.631691
H219	H	-0.008230	1.037384	-0.087863
H220	H	0.590125	0.614309	-0.162291
H221	H	0.165134	0.946011	-0.056666
H222	H	0.257698	0.946013	-0.056669
H223	H	0.476738	0.945955	-0.275657
H224	H	0.476747	0.945976	-0.368213
H225	H	0.621400	0.522938	-0.365745
Br226	Br	0.638365	0.473319	-0.455178
Br227	Br	0.664982	0.480018	-0.073574
Br228	Br	0.607092	0.564694	-0.251747
