data_functionalizedCrystal
_audit_creation_method	'MofGen! by Chris Wilmer'
_symmetry_space_group_name_H-M	'P1'
_symmetry_Int_Tables_number	1
_symmetry_cell_setting	triclinic
loop_
_symmetry_equiv_pos_as_xyz
  x,y,z
_cell_length_a	17.699083
_cell_length_b	9.130313
_cell_length_c	17.699083
_cell_angle_alpha	90.002131
_cell_angle_beta	83.283015
_cell_angle_gamma	89.994200
loop_
_atom_site_label
_atom_site_type_symbol
_atom_site_fract_x
_atom_site_fract_y
_atom_site_fract_z
O1	O	1.004072	0.121597	0.095708
O2	O	1.504072	0.621597	0.595708
O3	O	0.783693	0.121645	0.108160
O4	O	1.283693	0.621645	0.608160
O5	O	0.900109	0.121607	-0.008255
O6	O	1.400109	0.621607	0.491745
O7	O	0.887656	0.121635	0.212123
O8	O	1.387656	0.621635	0.712123
O9	O	0.900107	-0.121992	-0.008252
O10	O	1.400107	0.378008	0.491748
O11	O	0.783692	-0.121954	0.108163
O12	O	1.283692	0.378046	0.608163
O13	O	1.004070	-0.122002	0.095711
O14	O	1.504070	0.377998	0.595711
Cu15	Cu	0.893881	-0.144220	0.101937
Cu16	Cu	1.393881	0.355780	0.601937
Cu17	Cu	0.893882	0.143864	0.101934
Cu18	Cu	1.393882	0.643864	0.601934
O19	O	0.887655	-0.121963	0.212126
O20	O	1.387655	0.378037	0.712126
C21	C	0.755495	-0.000148	0.107716
C22	C	1.255495	0.499852	0.607716
C23	C	0.671477	-0.000130	0.106377
C24	C	1.171477	0.499870	0.606377
N25	N	0.893885	-0.346843	0.101940
N26	N	1.393885	0.153157	0.601940
C27	C	0.622856	-0.000122	0.174710
C28	C	1.122856	0.499878	0.674710
C29	C	0.543913	-0.000141	0.173448
C30	C	1.043913	0.499859	0.673448
C31	C	0.513592	-0.000158	0.103852
C32	C	1.013592	0.499842	0.603852
C33	C	0.562219	-0.000171	0.035513
C34	C	1.062219	0.499829	0.535513
C35	C	0.641161	-0.000162	0.036776
C36	C	1.141161	0.499838	0.536776
C37	C	0.243856	-0.000207	0.030418
C38	C	0.743856	0.499793	0.530418
C39	C	0.164908	-0.000212	0.029160
C40	C	0.664908	0.499788	0.529160
C41	C	0.146608	-0.000186	0.167090
C42	C	0.646608	0.499814	0.667090
C43	C	0.225550	-0.000178	0.168353
C44	C	0.725550	0.499822	0.668353
C45	C	0.274170	-0.000198	0.100015
C46	C	0.774170	0.499802	0.600015
C47	C	0.359769	-0.000180	0.101384
C48	C	0.859769	0.499820	0.601384
C49	C	0.427995	-0.000165	0.102481
C50	C	0.927995	0.499835	0.602481
C51	C	0.945447	-0.423512	0.050408
C52	C	1.445447	0.076488	0.550408
C53	C	0.945445	-0.576849	0.050399
C54	C	1.445445	-0.076849	0.550399
C55	C	0.842317	-0.576834	0.153460
C56	C	1.342317	-0.076834	0.653460
C57	C	0.842316	-0.423500	0.153464
C58	C	1.342316	0.076500	0.653464
C59	C	0.997016	-0.346855	-0.001117
C60	C	1.497016	0.153145	0.498883
C61	C	1.048583	-0.423524	-0.052652
C62	C	1.548583	0.076476	0.447348
C63	C	1.048581	-0.576861	-0.052661
C64	C	1.548581	-0.076861	0.447339
C65	C	0.997012	-0.653528	-0.001135
C66	C	1.497012	-0.153528	0.498865
C67	C	1.032268	-0.000205	0.096156
C68	C	1.532268	0.499795	0.596156
C69	C	1.116286	-0.000214	0.097494
C70	C	1.616286	0.499786	0.597494
C71	C	0.899662	-0.000193	-0.036451
C72	C	1.399662	0.499807	0.463549
C73	C	0.898323	-0.000193	-0.120469
C74	C	1.398323	0.499807	0.379531
N75	N	0.893884	0.346486	0.101926
N76	N	1.393884	0.846486	0.601926
C77	C	0.966656	-0.000210	-0.169090
C78	C	1.466656	0.499790	0.330910
C79	C	0.965394	-0.000197	-0.248033
C80	C	1.465394	0.499803	0.251967
C81	C	0.895798	-0.000177	-0.278354
C82	C	1.395798	0.499823	0.221646
C83	C	0.827459	-0.000156	-0.229727
C84	C	1.327459	0.499844	0.270273
C85	C	0.828722	-0.000158	-0.150785
C86	C	1.328722	0.499842	0.349215
C87	C	0.822364	-0.000143	-0.548090
C88	C	1.322364	0.499857	-0.048090
C89	C	0.821106	-0.000144	-0.627038
C90	C	1.321106	0.499856	-0.127038
C91	C	0.959036	-0.000181	-0.645338
C92	C	1.459036	0.499819	-0.145338
C93	C	0.960299	-0.000184	-0.566396
C94	C	1.460299	0.499816	-0.066396
C95	C	0.891961	-0.000155	-0.517776
C96	C	1.391961	0.499845	-0.017776
C97	C	0.893330	-0.000166	-0.432177
C98	C	1.393330	0.499834	0.067823
C99	C	0.894427	-0.000176	-0.363951
C100	C	1.394427	0.499824	0.136049
C101	C	0.888102	-0.000161	0.240322
C102	C	1.388102	0.499839	0.740322
C103	C	0.889440	-0.000151	0.324340
C104	C	1.389440	0.499849	0.824340
H105	H	0.504328	-0.000132	0.229092
H106	H	1.004328	0.499868	0.729092
C107	C	0.694644	-0.000157	-0.038390
C108	C	1.194644	0.499843	0.461610
H109	H	0.665282	-0.000152	-0.080021
H110	H	1.165282	0.499848	0.419979
H111	H	0.725829	-0.085099	-0.040766
H112	H	1.225829	0.414901	0.459234
H113	H	0.725810	0.084808	-0.040763
H114	H	1.225810	0.584808	0.459237
H115	H	1.016971	-0.000207	-0.541714
H116	H	1.516971	0.499793	-0.041714
C117	C	0.997019	-0.178190	-0.001104
C118	C	1.497019	0.321810	0.498896
H119	H	0.958928	-0.143507	0.036970
H120	H	1.458928	0.356493	0.536970
H121	H	0.986760	-0.143484	-0.049465
H122	H	1.486760	0.356516	0.450535
H123	H	1.045373	-0.143526	0.009207
H124	H	1.545373	0.356474	0.509207
C125	C	0.753558	-0.000139	-0.097298
C126	C	1.253558	0.499861	0.402702
H127	H	0.764277	-0.000128	-0.045941
H128	H	1.264277	0.499872	0.454059
H129	H	0.725009	-0.085077	-0.106474
H130	H	1.225009	0.414923	0.393526
H131	H	0.725019	0.084831	-0.106475
H132	H	1.225019	0.584831	0.393525
C133	C	0.131557	-0.000245	-0.047400
C134	C	0.631557	0.499755	0.452600
H135	H	0.171819	-0.000271	-0.087919
H136	H	0.671819	0.499729	0.412081
H137	H	0.101136	0.084699	-0.050764
H138	H	0.601136	0.584699	0.449236
H139	H	0.101148	-0.085208	-0.050749
H140	H	0.601148	0.414792	0.449251
H141	H	1.014680	-0.000197	-0.684934
H142	H	1.514680	0.499803	-0.184934
H143	H	0.647537	-0.000107	0.231384
H144	H	1.147537	0.499893	0.731384
C145	C	0.785599	-0.339152	0.210144
C146	C	1.285599	0.160848	0.710144
H147	H	0.792980	-0.236853	0.202760
H148	H	1.292980	0.263147	0.702760
H149	H	0.793716	-0.364276	0.260650
H150	H	1.293716	0.135724	0.760650
H151	H	0.735104	-0.364272	0.201977
H152	H	1.235104	0.135728	0.701977
H153	H	1.090564	-0.361093	-0.094607
H154	H	1.590564	0.138907	0.405393
C155	C	0.744546	-0.000103	-0.660389
C156	C	1.244546	0.499897	-0.160389
H157	H	0.704027	-0.000070	-0.620127
H158	H	1.204027	0.499930	-0.120127
H159	H	0.741181	-0.085048	-0.690806
H160	H	1.241181	0.414952	-0.190806
H161	H	0.741198	0.084859	-0.690802
H162	H	1.241198	0.584859	-0.190802
C163	C	0.528869	-0.000187	-0.041041
C164	C	1.028869	0.499813	0.458959
H165	H	0.474890	-0.000175	-0.032008
H166	H	0.974890	0.499825	0.467992
H167	H	0.545572	-0.085137	-0.069172
H168	H	1.045572	0.414863	0.430828
H169	H	0.545562	0.084771	-0.069170
H170	H	1.045562	0.584771	0.430830
H171	H	0.766718	-0.000119	-0.508512
H172	H	1.266718	0.499881	-0.008512
C173	C	0.258899	-0.000165	0.244909
C174	C	0.758899	0.499835	0.744909
H175	H	0.218635	-0.000177	0.285426
H176	H	0.718635	0.499823	0.785426
H177	H	0.289309	0.084783	0.248270
H178	H	0.789309	0.584783	0.748270
H179	H	0.289318	-0.085124	0.248265
H180	H	0.789318	0.414876	0.748265
C181	C	0.997005	-0.822196	-0.001145
C182	C	1.497005	-0.322196	0.498855
H183	H	0.958907	-0.856870	0.036919
H184	H	1.458907	-0.356870	0.536919
H185	H	1.045355	-0.856902	0.009150
H186	H	1.545355	-0.356902	0.509150
H187	H	0.986733	-0.856869	-0.049513
H188	H	1.486733	-0.356869	0.450487
H189	H	0.107012	-0.000177	0.222734
H190	H	0.607012	0.499823	0.722734
H191	H	0.800332	-0.639267	0.195411
H192	H	1.300332	-0.139267	0.695411
H193	H	0.283434	-0.000225	-0.025228
H194	H	0.783434	0.499775	0.474772
C195	C	1.105299	-0.661193	-0.109346
C196	C	1.605299	-0.161193	0.390654
H197	H	1.136012	-0.593574	-0.140026
H198	H	1.636012	-0.093574	0.359974
H199	H	1.078138	-0.721002	-0.140825
H200	H	1.578138	-0.221002	0.359175
H201	H	1.136752	-0.721016	-0.082154
H202	H	1.636752	-0.221016	0.417846
C203	C	1.043214	-0.000232	-0.135744
C204	C	1.543214	0.499768	0.364256
H205	H	1.083729	-0.000226	-0.176010
H206	H	1.583729	0.499774	0.323990
H207	H	1.046575	-0.085180	-0.105331
H208	H	1.546575	0.414820	0.394669
H209	H	1.046573	0.084727	-0.105328
H210	H	1.546573	0.584727	0.394672
H211	H	0.770792	-0.000130	-0.254420
H212	H	1.270792	0.499870	0.245580
H213	H	1.021038	-0.000214	-0.287618
H214	H	1.521038	0.499786	0.212382
