data_functionalizedCrystal
_audit_creation_method	'MofGen! by Chris Wilmer'
_symmetry_space_group_name_H-M	'P1'
_symmetry_Int_Tables_number	1
_symmetry_cell_setting	triclinic
loop_
_symmetry_equiv_pos_as_xyz
  x,y,z
_cell_length_a	16.959455
_cell_length_b	16.959447
_cell_length_c	16.959453
_cell_angle_alpha	89.968429
_cell_angle_beta	90.019746
_cell_angle_gamma	89.979626
loop_
_atom_site_label
_atom_site_type_symbol
_atom_site_fract_x
_atom_site_fract_y
_atom_site_fract_z
Zn1	Zn	1.208369	-0.447029	-0.314729
Zn2	Zn	1.208286	-0.314848	-0.446921
Zn3	Zn	1.076198	-0.314853	-0.314754
Zn4	Zn	1.076156	-0.446973	-0.446862
O5	O	1.142252	-0.380926	-0.380816
O6	O	1.318969	-0.429517	-0.332279
O7	O	1.190746	-0.204238	-0.429424
O8	O	1.093783	-0.332412	-0.204140
O9	O	1.318908	-0.332404	-0.429400
O10	O	1.190889	-0.429522	-0.204121
O11	O	1.093702	-0.204241	-0.332321
O12	O	0.965581	-0.332357	-0.332264
O13	O	1.093712	-0.557591	-0.429299
O14	O	0.965551	-0.429425	-0.429324
O15	O	1.190849	-0.557633	-0.332221
O16	O	1.190706	-0.332349	-0.557524
O17	O	1.093631	-0.429420	-0.557481
C18	C	0.936886	-0.380886	-0.380791
C19	C	0.849029	-0.380888	-0.380799
C20	C	0.477511	-0.330333	-0.431337
C21	C	0.477596	-0.431615	-0.330361
C22	C	0.560142	-0.431595	-0.330348
C23	C	0.601376	-0.380945	-0.380831
C24	C	0.560065	-0.330314	-0.431328
C25	C	0.601460	-0.482231	-0.279859
C26	C	0.684011	-0.482215	-0.279844
C27	C	0.725247	-0.431560	-0.330324
C28	C	0.683930	-0.380926	-0.380822
C29	C	0.725164	-0.330276	-0.431305
C30	C	0.683849	-0.279637	-0.481799
C31	C	0.601300	-0.279659	-0.481807
C32	C	0.807795	-0.431538	-0.330315
C33	C	0.807718	-0.330257	-0.431295
C34	C	1.142285	-0.587094	-0.380751
C35	C	1.142299	-0.674951	-0.380723
C36	C	1.091819	-1.046407	-0.431184
C37	C	1.192968	-1.046446	-0.330096
C38	C	1.192947	-0.963900	-0.330113
C39	C	1.142362	-0.922604	-0.380667
C40	C	1.091798	-0.963854	-0.431204
C41	C	1.243516	-0.922644	-0.279582
C42	C	1.243497	-0.840093	-0.279597
C43	C	1.192908	-0.798795	-0.330148
C44	C	1.142341	-0.840050	-0.380687
C45	C	1.091756	-0.798754	-0.431240
C46	C	1.041185	-0.840008	-0.481776
C47	C	1.041209	-0.922556	-0.481754
C48	C	1.192884	-0.716247	-0.330169
C49	C	1.091735	-0.716201	-0.431260
C50	C	1.348420	-0.380966	-0.380843
C51	C	1.436277	-0.380983	-0.380854
C52	C	1.142176	-0.380895	-0.586183
C53	C	1.142216	-0.380908	-0.674039
C54	C	1.142265	-0.175560	-0.380825
C55	C	1.142404	-0.087703	-0.380630
C56	C	1.091719	-0.330312	-0.715391
C57	C	1.192747	-0.431522	-0.715241
C58	C	1.192784	-0.431539	-0.797787
C59	C	1.142287	-0.380943	-0.839139
C60	C	1.091753	-0.330329	-0.797945
C61	C	1.243312	-0.482157	-0.838987
C62	C	1.243350	-0.482177	-0.921538
C63	C	1.192856	-0.431576	-0.962891
C64	C	1.142321	-0.380960	-0.921692
C65	C	1.091824	-0.330364	-0.963044
C66	C	1.041291	-0.279743	-0.921846
C67	C	1.041259	-0.279728	-0.839298
C68	C	1.192889	-0.431591	-1.045440
C69	C	1.091857	-0.330381	-1.045598
C70	C	1.142350	-0.380974	-0.174648
C71	C	1.142391	-0.380995	-0.086792
H72	H	0.567654	-0.238432	-0.522917
H73	H	1.050643	-1.080000	-0.472326
H74	H	1.233857	-0.472720	-0.681570
Cl75	Cl	1.028199	-0.266675	-0.663603
H76	H	0.567881	-0.523473	-0.238763
H77	H	1.234156	-1.080074	-0.288941
H78	H	1.234060	-0.682662	-0.289026
Cl79	Cl	1.307109	-0.974562	-0.216039
H80	H	1.284675	-0.806511	-0.238448
H81	H	0.841285	-0.289008	-0.472402
H82	H	0.717432	-0.238402	-0.522907
H83	H	1.000002	-0.806374	-0.522940
H84	H	1.050738	-0.289176	-1.079260
H85	H	1.284421	-0.523355	-0.805316
H86	H	1.000173	-0.238551	-0.955526
Cl87	Cl	0.977644	-0.974422	-0.545282
H88	H	1.000117	-0.238515	-0.805750
H89	H	1.284498	-0.523394	-0.955074
H90	H	0.443869	-0.289103	-0.472446
Cl91	Cl	0.425759	-0.495294	-0.266909
H92	H	1.234021	-0.472816	-1.078979
H93	H	0.841430	-0.472768	-0.289205
Cl94	Cl	0.735943	-0.545871	-0.216366
H95	H	1.050535	-0.682583	-0.472421
