data_functionalizedCrystal
_audit_creation_method	'MofGen! by Chris Wilmer'
_symmetry_space_group_name_H-M	'P1'
_symmetry_Int_Tables_number	1
_symmetry_cell_setting	triclinic
loop_
_symmetry_equiv_pos_as_xyz
  x,y,z
_cell_length_a	14.971482
_cell_length_b	14.044220
_cell_length_c	13.448316
_cell_angle_alpha	89.992660
_cell_angle_beta	89.993798
_cell_angle_gamma	88.400743
loop_
_atom_site_label
_atom_site_type_symbol
_atom_site_fract_x
_atom_site_fract_y
_atom_site_fract_z
O1	O	1.196680	0.123521	-0.082682
O2	O	0.937445	0.138319	-0.082687
O3	O	1.063172	-0.007069	-0.082675
O4	O	1.070954	0.268909	-0.082694
O5	O	1.063154	-0.007078	0.082709
O6	O	0.937427	0.138310	0.082697
O7	O	1.196662	0.123512	0.082702
Cu8	Cu	1.067043	0.130910	0.097800
Cu9	Cu	1.067064	0.130921	-0.097785
O10	O	1.070936	0.268900	0.082690
C11	C	0.904059	0.137653	0.000004
C12	C	0.804606	0.135672	0.000003
C13	C	0.757878	0.134734	0.090155
C14	C	0.664432	0.132857	0.090156
C15	C	0.617715	0.131925	0.000004
C16	C	0.664450	0.132860	-0.090155
C17	C	0.757894	0.134730	-0.090155
C18	C	0.469681	0.128965	-0.090148
C19	C	0.376229	0.127097	-0.090148
C20	C	0.376218	0.127092	0.090163
C21	C	0.469663	0.128962	0.090163
C22	C	0.516391	0.129899	0.000003
C23	C	1.059756	-0.042392	0.000018
C24	C	1.049595	-0.147629	0.000019
C25	C	1.031018	-0.340311	0.000004
C26	C	1.103085	-0.397864	0.000002
C27	C	1.092749	-0.505079	-0.000006
C28	C	1.041353	-0.233086	0.000012
C29	C	1.230048	0.124178	0.000009
C30	C	1.329501	0.126159	0.000004
C31	C	1.074351	0.304223	-0.000005
C32	C	1.084513	0.409460	-0.000012
N33	N	1.067035	0.130902	0.235365
N34	N	1.067079	0.130921	-0.235349
C35	C	1.122727	0.066551	0.287410
C36	C	1.122733	0.066550	0.391514
C37	C	1.067050	0.130906	0.443569
C38	C	1.011351	0.195260	0.391516
C39	C	1.011341	0.195255	0.287415
C40	C	1.011376	0.195266	0.608496
C41	C	1.011387	0.195272	0.712605
C42	C	1.122768	0.066561	0.712595
C43	C	1.122758	0.066556	0.608494
C44	C	1.067060	0.130912	0.556448
H45	H	0.626391	0.132077	0.163567
F46	F	1.181999	-0.001942	0.232019
H47	H	1.168081	0.014150	0.433889
F48	F	0.940233	-0.381153	-0.000003
F49	F	1.182027	-0.001932	0.553092
F50	F	1.193877	-0.357022	0.000012
F51	F	1.182046	-0.001929	0.767990
H52	H	0.966043	0.247677	0.754983
F53	F	0.952092	0.263759	0.553109
H54	H	0.966008	0.247657	0.433906
H55	H	0.965990	0.247656	0.245040
H56	H	0.507697	0.129726	0.163572
F57	F	0.807589	0.135732	0.186108
F58	F	0.326511	0.126104	-0.186098
H59	H	0.338168	0.126329	0.163574
H60	H	0.626405	0.132095	-0.163558
F61	F	0.519410	0.129959	-0.186106
F62	F	0.807625	0.135725	-0.186107
