data_functionalizedCrystal
_audit_creation_method	'MofGen! by Chris Wilmer'
_symmetry_space_group_name_H-M	'P1'
_symmetry_Int_Tables_number	1
_symmetry_cell_setting	triclinic
loop_
_symmetry_equiv_pos_as_xyz
  x,y,z
_cell_length_a	23.532407
_cell_length_b	16.992695
_cell_length_c	15.455313
_cell_angle_alpha	87.142836
_cell_angle_beta	92.664564
_cell_angle_gamma	86.758489
loop_
_atom_site_label
_atom_site_type_symbol
_atom_site_fract_x
_atom_site_fract_y
_atom_site_fract_z
O1	O	-0.757639	-0.098595	0.072065
O2	O	-0.257639	0.401405	0.572065
O3	O	-0.592458	-0.112363	0.072081
O4	O	-0.092458	0.387637	0.572081
O5	O	-0.674387	0.008659	0.072066
O6	O	-0.174387	0.508659	0.572066
O7	O	-0.675711	-0.219616	0.072080
O8	O	-0.175711	0.280384	0.572080
O9	O	-0.679067	0.015559	-0.072197
O10	O	-0.179067	0.515559	0.427803
O11	O	-0.597139	-0.105463	-0.072182
O12	O	-0.097139	0.394537	0.427818
O13	O	-0.762320	-0.091695	-0.072198
O14	O	-0.262320	0.408305	0.427802
Cu15	Cu	-0.680157	-0.097949	-0.085363
Cu16	Cu	-0.180157	0.402051	0.414637
Cu17	Cu	-0.674621	-0.106109	0.085245
Cu18	Cu	-0.174621	0.393891	0.585245
O19	O	-0.680391	-0.212717	-0.072183
O20	O	-0.180391	0.287283	0.427817
C21	C	-0.573565	-0.108562	-0.000048
C22	C	-0.073565	0.391438	0.499952
C23	C	-0.510296	-0.107508	-0.000042
C24	C	-0.010296	0.392492	0.499958
C25	C	-0.240359	-0.031543	-0.000066
C26	C	0.259641	0.468457	0.499934
C27	C	-0.299808	-0.032522	-0.000066
C28	C	0.200192	0.467478	0.499934
O29	O	-0.333563	0.027742	-0.000101
O30	O	0.166437	0.527742	0.499899
N31	N	-0.326004	-0.104469	-0.000057
N32	N	0.173996	0.395531	0.499943
C33	C	-0.292748	-0.175442	-0.000055
C34	C	0.207252	0.324558	0.499945
O35	O	-0.320489	-0.236729	-0.000048
O36	O	0.179511	0.263271	0.499952
C37	C	-0.233301	-0.174462	-0.000060
C38	C	0.266699	0.325538	0.499940
C39	C	-0.207108	-0.102510	-0.000061
C40	C	0.292892	0.397490	0.499939
C41	C	-0.214166	0.040403	-0.000068
C42	C	0.285834	0.540403	0.499932
C43	C	-0.154721	0.041382	-0.000065
C44	C	0.345279	0.541382	0.499935
C45	C	-0.121470	-0.029585	-0.000061
C46	C	0.378530	0.470415	0.499939
C47	C	-0.147663	-0.101531	-0.000059
C48	C	0.352337	0.398469	0.499941
C49	C	-0.200046	-0.245433	-0.000065
C50	C	0.299954	0.254567	0.499935
C51	C	-0.140595	-0.244447	-0.000071
C52	C	0.359405	0.255553	0.499929
C53	C	-0.114402	-0.172495	-0.000072
C54	C	0.385598	0.327505	0.499928
C55	C	-0.054967	-0.171520	-0.000052
C56	C	0.445033	0.328480	0.499948
N57	N	-0.028771	-0.099572	-0.000062
N58	N	0.471229	0.400428	0.499938
C59	C	-0.062022	-0.028605	-0.000066
C60	C	0.437978	0.471395	0.499934
C61	C	-0.417593	-0.177495	-0.000045
C62	C	0.082407	0.322505	0.499955
C63	C	-0.477039	-0.178476	-0.000033
C64	C	0.022961	0.321524	0.499967
C65	C	-0.484094	-0.035556	-0.000046
C66	C	0.015906	0.464444	0.499954
C67	C	-0.424647	-0.034575	-0.000052
C68	C	0.075353	0.465425	0.499948
C69	C	-0.391396	-0.105547	-0.000055
C70	C	0.108604	0.394453	0.499945
C71	C	0.062817	-0.026555	-0.000061
C72	C	0.562817	0.473445	0.499939
C73	C	0.122267	-0.025583	-0.000055
C74	C	0.622267	0.474417	0.499945
C75	C	0.129317	-0.168503	-0.000046
C76	C	0.629317	0.331497	0.499954
C77	C	0.069872	-0.169476	-0.000048
C78	C	0.569872	0.330524	0.499952
C79	C	0.036623	-0.098495	-0.000058
C80	C	0.536623	0.401505	0.499942
O81	O	-0.021175	-0.231751	-0.000022
O82	O	0.478825	0.268249	0.499978
O83	O	-0.034274	0.032672	-0.000085
O84	O	0.465726	0.532672	0.499915
C85	C	-0.675023	0.041308	-0.000065
C86	C	-0.175023	0.541308	0.499935
C87	C	-0.669940	0.128313	-0.000064
C88	C	-0.169940	0.628313	0.499936
C89	C	0.218787	-0.095495	-0.000063
C90	C	0.718787	0.404505	0.499937
C91	C	0.155518	-0.096550	-0.000051
C92	C	0.655518	0.403450	0.499949
C93	C	-0.679755	-0.245366	-0.000050
C94	C	-0.179755	0.254634	0.499950
C95	C	-0.684838	-0.332371	-0.000045
C96	C	-0.184838	0.167629	0.499955
N97	N	-0.670728	-0.111842	0.205241
N98	N	-0.170728	0.388158	0.705241
C99	C	-0.718987	0.178936	-0.000070
C100	C	-0.218987	0.678936	0.499930
C101	C	-0.714207	0.260685	-0.000062
C102	C	-0.214207	0.760685	0.499938
C103	C	-0.660380	0.291810	-0.000053
C104	C	-0.160380	0.791810	0.499947
C105	C	-0.611330	0.241180	-0.000045
C106	C	-0.111330	0.741180	0.499955
C107	C	-0.616110	0.159433	-0.000047
C108	C	-0.116110	0.659433	0.499953
C109	C	-0.640568	0.535252	-0.000039
C110	C	-0.140568	1.035252	0.499961
C111	C	-0.635791	0.617007	-0.000039
C112	C	-0.135791	1.117007	0.499961
C113	C	-0.738669	0.636505	-0.000055
C114	C	-0.238669	1.136505	0.499945
C115	C	-0.743444	0.554755	-0.000062
C116	C	-0.243444	1.054755	0.499938
C117	C	-0.694394	0.504133	-0.000049
C118	C	-0.194394	1.004133	0.499951
N119	N	-0.655493	0.375370	-0.000047
N120	N	-0.155493	0.875370	0.499953
N121	N	-0.699281	0.420574	-0.000049
N122	N	-0.199281	0.920574	0.499951
N123	N	-0.684054	-0.092209	-0.205359
N124	N	-0.184054	0.407791	0.294641
C125	C	-0.705610	-0.060526	0.250629
C126	C	-0.205610	0.439474	0.750629
C127	C	-0.702664	-0.064860	0.341438
C128	C	-0.202664	0.435140	0.841438
C129	C	-0.664834	-0.120508	0.386857
C130	C	-0.164834	0.379492	0.886857
C131	C	-0.629952	-0.171829	0.341463
C132	C	-0.129952	0.328171	0.841463
C133	C	-0.632900	-0.167498	0.250656
C134	C	-0.132900	0.332502	0.750656
C135	C	-0.652120	-0.139200	0.658440
C136	C	-0.152120	0.360800	1.158440
C137	C	-0.649173	-0.143525	0.749254
C138	C	-0.149173	0.356475	1.249254
C139	C	-0.721886	-0.036557	0.749222
C140	C	-0.221886	0.463443	1.249222
C141	C	-0.724829	-0.032227	0.658414
C142	C	-0.224829	0.467773	1.158414
C143	C	-0.689949	-0.083552	0.613028
C144	C	-0.189949	0.416448	1.113028
N145	N	-0.661821	-0.124938	0.479677
N146	N	-0.161821	0.375062	0.979677
N147	N	-0.692965	-0.079125	0.520208
N148	N	-0.192965	0.420875	1.020208
H149	H	-0.390523	-0.235293	-0.000041
H150	H	0.109477	0.264707	0.499959
H151	H	-0.591957	0.642345	-0.000047
H152	H	-0.091957	1.142345	0.499953
C153	C	-0.747222	0.000688	0.200676
C154	C	-0.247222	0.500688	0.700676
H155	H	-0.767577	0.030624	0.240716
H156	H	-0.267577	0.530624	0.740716
H157	H	-0.726458	0.034925	0.165245
H158	H	-0.226458	0.534925	0.665245
H159	H	-0.773314	-0.025726	0.165259
H160	H	-0.273314	0.474274	0.665259
C161	C	-0.607555	-0.204734	0.799217
C162	C	-0.107555	0.295266	1.299217
H163	H	-0.610790	-0.199952	0.859798
H164	H	-0.110790	0.300048	1.359798
H165	H	-0.616523	-0.256326	0.784357
H166	H	-0.116523	0.243674	1.284357
H167	H	-0.569672	-0.195667	0.784329
H168	H	-0.069672	0.304333	1.284329
C169	C	0.165901	-0.246560	-0.000048
C170	C	0.665901	0.253440	0.499952
H171	H	0.205056	-0.235665	-0.000059
H172	H	0.705056	0.264335	0.499941
H173	H	0.159248	-0.278497	0.050256
H174	H	0.659248	0.221503	0.550256
H175	H	0.155974	-0.273668	-0.050365
H176	H	0.655974	0.226332	0.449635
C177	C	-0.613765	-0.195670	0.608527
C178	C	-0.113765	0.304330	1.108527
H179	H	-0.590814	-0.229430	0.648585
H180	H	-0.090814	0.270570	1.148585
H181	H	-0.636843	-0.226522	0.573123
H182	H	-0.136843	0.273478	1.073123
H183	H	-0.589968	-0.165898	0.573085
H184	H	-0.089968	0.334102	1.073085
H185	H	-0.113525	-0.302242	-0.000078
H186	H	0.386475	0.197758	0.499922
H187	H	0.035752	0.031244	-0.000069
H188	H	0.535752	0.531244	0.499931
H189	H	0.048545	-0.228065	-0.000046
H190	H	0.548545	0.271935	0.499954
H191	H	-0.604497	-0.209286	0.213702
H192	H	-0.104497	0.290714	0.713702
C193	C	-0.586615	0.479579	-0.000040
C194	C	-0.086615	0.979579	0.499960
H195	H	-0.553875	0.509827	-0.000047
H196	H	-0.053875	1.009827	0.499953
H197	H	-0.584703	0.444872	0.050265
H198	H	-0.084703	0.944872	0.550265
H199	H	-0.587975	0.449697	-0.050357
H200	H	-0.087975	0.949697	0.449643
H201	H	-0.599152	-0.217143	0.378448
H202	H	-0.099152	0.282857	0.878448
C203	C	-0.766440	0.028985	0.608455
C204	C	-0.266440	0.528985	1.108455
H205	H	-0.763196	0.024220	0.547873
H206	H	-0.263196	0.524220	1.047873
H207	H	-0.804324	0.019933	0.623334
H208	H	-0.304324	0.519933	1.123334
H209	H	-0.757461	0.080574	0.623327
H210	H	-0.257461	0.580574	1.123327
C211	C	-0.741030	-0.008408	0.391360
C212	C	-0.241030	0.491592	0.891360
H213	H	-0.763977	0.025361	0.351305
H214	H	-0.263977	0.525361	0.851305
H215	H	-0.764822	-0.038191	0.426790
H216	H	-0.264822	0.461809	0.926790
H217	H	-0.717958	0.022449	0.426776
H218	H	-0.217958	0.522449	0.926776
H219	H	0.143590	0.033011	-0.000053
H220	H	0.643590	0.533011	0.499947
C221	C	-0.562159	0.103748	-0.000043
C222	C	-0.062159	0.603748	0.499957
H223	H	-0.529417	0.133992	-0.000045
H224	H	-0.029417	0.633992	0.499955
H225	H	-0.560254	0.069043	0.050264
H226	H	-0.060254	0.569043	0.550264
H227	H	-0.563517	0.073863	-0.050358
H228	H	-0.063517	0.573863	0.449642
H229	H	-0.133400	0.099973	-0.000070
H230	H	0.366600	0.599973	0.499930
H231	H	-0.778602	0.677730	-0.000064
H232	H	-0.278602	1.177730	0.499936
H233	H	-0.221362	-0.304024	-0.000060
H234	H	0.278638	0.195976	0.499940
C235	C	-0.250734	0.118474	-0.000065
C236	C	0.249266	0.618474	0.499935
H237	H	-0.226611	0.161455	-0.000060
H238	H	0.273389	0.661455	0.499940
H239	H	-0.275710	0.123482	-0.050367
H240	H	0.224290	0.623482	0.449633
H241	H	-0.272430	0.118656	0.050255
H242	H	0.227570	0.618656	0.550255
C243	C	-0.778195	0.144702	-0.000082
C244	C	-0.278195	0.644702	0.499918
H245	H	-0.774020	0.088766	-0.000092
H246	H	-0.274020	0.588766	0.499908
H247	H	-0.796916	0.159696	0.050222
H248	H	-0.296916	0.659696	0.550222
H249	H	-0.800176	0.164517	-0.050399
H250	H	-0.300176	0.664517	0.449601
H251	H	-0.403325	0.024014	-0.000053
H252	H	0.096675	0.524014	0.499947
C253	C	-0.768158	0.316367	-0.000077
C254	C	-0.268158	0.816367	0.499923
H255	H	-0.800900	0.286122	-0.000095
H256	H	-0.300900	0.786122	0.499905
H257	H	-0.766806	0.346254	0.050230
H258	H	-0.266806	0.846254	0.550230
H259	H	-0.770060	0.351070	-0.050391
H260	H	-0.270060	0.851070	0.449609
C261	C	-0.520679	0.042508	-0.000059
C262	C	-0.020679	0.542508	0.499941
H263	H	-0.559834	0.031614	-0.000065
H264	H	-0.059834	0.531614	0.499935
H265	H	-0.510756	0.069631	0.050243
H266	H	-0.010756	0.569631	0.550243
H267	H	-0.514023	0.074432	-0.050379
H268	H	-0.014023	0.574432	0.449621
H269	H	-0.787276	0.529420	-0.000069
H270	H	-0.287276	1.029420	0.499931
H271	H	-0.567502	0.266528	-0.000033
H272	H	-0.067502	0.766528	0.499967
C273	C	-0.760258	0.019885	0.799149
C274	C	-0.260258	0.519885	1.299149
H275	H	-0.753090	0.009333	0.859735
H276	H	-0.253090	0.509333	1.359735
H277	H	-0.752257	0.072895	0.784257
H278	H	-0.252257	0.572895	1.284257
H279	H	-0.799108	0.012235	0.784263
H280	H	-0.299108	0.512235	1.284263
C281	C	-0.505847	-0.257621	-0.000018
C282	C	-0.005847	0.242379	0.499982
H283	H	-0.546015	-0.248049	-0.000012
H284	H	-0.046015	0.251951	0.499988
H285	H	-0.496286	-0.284419	-0.050321
H286	H	0.003714	0.215581	0.449679
H287	H	-0.493017	-0.289222	0.050301
H288	H	0.006983	0.210778	0.550301
