data_functionalizedCrystal
_audit_creation_method	'MofGen! by Chris Wilmer'
_symmetry_space_group_name_H-M	'P1'
_symmetry_Int_Tables_number	1
_symmetry_cell_setting	triclinic
loop_
_symmetry_equiv_pos_as_xyz
  x,y,z
_cell_length_a	6.817900
_cell_length_b	12.840933
_cell_length_c	11.020342
_cell_angle_alpha	97.550389
_cell_angle_beta	108.079417
_cell_angle_gamma	88.345099
loop_
_atom_site_label
_atom_site_type_symbol
_atom_site_fract_x
_atom_site_fract_y
_atom_site_fract_z
V1	V	-3.919406	0.283166	-0.178834
O2	O	-3.887653	0.320319	0.005513
O3	O	-3.892153	0.240313	-0.351635
O4	O	-3.814834	0.425332	-0.177435
O5	O	-3.965507	0.134019	-0.169893
V6	V	-4.407573	0.270298	-0.156624
O7	O	-4.170479	0.311395	-0.227553
O8	O	-4.606698	0.242069	-0.107905
O9	O	-4.211620	0.313151	0.016177
O10	O	-4.556723	0.233144	-0.340972
O11	O	-4.478869	0.419444	-0.165566
O12	O	-4.288939	0.128132	-0.158023
C13	C	-3.744115	0.225288	-0.393718
C14	C	-3.802745	0.191198	-0.534994
C15	C	-4.011121	0.178865	-0.607867
C16	C	-4.066239	0.146849	-0.740614
C17	C	-3.912976	0.127159	-0.800485
C18	C	-3.704582	0.139497	-0.727603
C19	C	-3.649468	0.171519	-0.594859
C20	C	-3.645499	0.461298	-0.171502
C21	C	-3.641345	0.579431	-0.171500
C22	C	-4.121615	0.092160	-0.163953
C23	C	-4.104619	-0.025972	-0.163952
V24	V	-3.902356	0.769328	-0.178843
O25	O	-3.937838	0.922637	-0.169900
O26	O	-3.807931	0.622473	-0.177445
O27	O	-3.873563	0.770104	-0.351642
O28	O	-3.871751	0.773985	0.005503
V29	V	-4.388577	0.811994	-0.156640
O30	O	-4.155367	0.742346	-0.227566
O31	O	-4.584971	0.861661	-0.107924
O32	O	-4.260189	0.947602	-0.158035
O33	O	-4.470285	0.664601	-0.165585
O34	O	-4.536372	0.813253	-0.340988
O35	O	-4.194557	0.799971	0.016162
C36	C	-4.023001	0.328171	0.058253
C37	C	-3.943608	0.362268	0.199527
C38	C	-3.725075	0.767746	-0.393715
C39	C	-3.782369	0.771521	-0.534988
C40	C	-4.006977	0.785364	0.058247
C41	C	-3.928959	0.780552	0.199523
C42	C	-3.719039	0.764334	0.259385
C43	C	-3.645741	0.759822	0.392131
C44	C	-3.992306	0.787745	0.405142
C45	C	-4.065598	0.792264	0.272400
C46	C	-3.317655	0.797380	0.577955
C47	C	-3.107729	0.781143	0.637817
C48	C	-2.998277	0.709767	0.576759
C49	C	-3.098750	0.654604	0.455836
C50	C	-3.308678	0.670832	0.395979
C51	C	-3.418117	0.742231	0.457040
C52	C	-4.393677	0.754695	0.086571
C53	C	-4.603610	0.770917	0.026710
C54	C	-4.713082	0.842287	0.087765
C55	C	-4.612631	0.897437	0.208690
C56	C	-4.402697	0.881215	0.268550
C57	C	-4.293229	0.809847	0.207487
C58	C	-4.080218	0.374603	0.272399
C59	C	-4.005642	0.406624	0.405146
C60	C	-3.794458	0.426317	0.465016
C61	C	-3.657839	0.413976	0.392135
C62	C	-3.732413	0.381949	0.259393
H63	H	-3.607771	0.754805	0.200054
N64	N	-3.539288	0.118230	-0.792180
H65	H	-3.605844	0.096060	-0.887326
H66	H	-3.447491	0.060293	-0.753190
N67	N	-3.430066	0.435227	0.456711
H68	H	-3.374891	0.386770	0.524443
H69	H	-3.408051	0.510620	0.498472
N70	N	-3.585056	0.368650	0.180800
H71	H	-3.439965	0.385989	0.238880
H72	H	-3.624891	0.417444	0.112506
H73	H	-3.390476	0.625927	0.297520
N74	N	-3.714032	0.460871	0.608187
H75	H	-3.747876	0.405231	0.655660
H76	H	-3.780866	0.529076	0.629647
H77	H	-3.406757	0.855514	0.627674
N78	N	-4.153024	0.419946	0.483728
H79	H	-4.146290	0.494989	0.526153
H80	H	-4.113314	0.371097	0.551963
N81	N	-4.176446	0.200100	-0.543309
H82	H	-4.316806	0.187430	-0.609634
H83	H	-4.164696	0.275468	-0.501456
N84	N	-4.290985	0.133471	-0.819227
H85	H	-4.325231	0.182246	-0.887551
H86	H	-4.379601	0.150749	-0.761083
N87	N	-3.424703	0.184800	-0.516277
H88	H	-3.390534	0.136000	-0.447982
H89	H	-3.397130	0.259863	-0.473928
N90	N	-3.972436	0.092620	-0.943659
H91	H	-4.127704	0.087794	-0.980729
H92	H	-3.911350	0.021563	-0.960040
H93	H	-3.009614	0.596476	0.406136
N94	N	-2.771853	0.692258	0.641304
H95	H	-2.749370	0.616040	0.655030
H96	H	-2.724952	0.738089	0.727127
N97	N	-4.139660	0.800371	0.483754
H98	H	-4.137870	0.735098	0.526177
H99	H	-4.283691	0.811369	0.425616
N100	N	-4.939521	0.859774	0.023212
H101	H	-4.986562	0.814002	-0.062653
H102	H	-4.961858	0.936013	0.009577
H103	H	-3.025934	0.826065	0.736275
N104	N	-4.294341	0.940695	0.398979
H105	H	-4.395542	0.988371	0.428579
H106	H	-4.177589	0.984195	0.392750
H107	H	-4.701778	0.955543	0.258411
N108	N	-4.275587	0.677726	0.020709
H109	H	-4.371082	0.645246	-0.064974
H110	H	-4.218125	0.620767	0.076610
N111	N	-4.307964	0.353436	0.207601
H112	H	-4.354876	0.295471	0.246304
H113	H	-4.333958	0.331378	0.112482
N114	N	-4.711965	0.711436	-0.103717
H115	H	-4.828705	0.667868	-0.097583
H116	H	-4.610618	0.663825	-0.133248
