data_functionalizedCrystal
_audit_creation_method	'MofGen! by Chris Wilmer'
_symmetry_space_group_name_H-M	'P1'
_symmetry_Int_Tables_number	1
_symmetry_cell_setting	triclinic
loop_
_symmetry_equiv_pos_as_xyz
  x,y,z
_cell_length_a	16.109301
_cell_length_b	17.038272
_cell_length_c	14.586319
_cell_angle_alpha	89.995924
_cell_angle_beta	89.999213
_cell_angle_gamma	87.286518
loop_
_atom_site_label
_atom_site_type_symbol
_atom_site_fract_x
_atom_site_fract_y
_atom_site_fract_z
O1	O	1.110268	0.100495	-0.076183
O2	O	1.610268	0.600495	0.423817
O3	O	0.869094	0.113001	-0.076198
O4	O	1.369094	0.613001	0.423802
O5	O	0.988248	-0.007067	-0.076183
O6	O	1.488248	0.492933	0.423817
O7	O	0.991114	0.220564	-0.076198
O8	O	1.491114	0.720564	0.423802
O9	O	0.988239	-0.007069	0.076298
O10	O	1.488239	0.492931	0.576298
O11	O	0.869085	0.113000	0.076283
O12	O	1.369085	0.613000	0.576283
O13	O	1.110259	0.100493	0.076298
O14	O	1.610259	0.600493	0.576298
Cu15	Cu	0.989671	0.106746	0.090213
Cu16	Cu	1.489671	0.606746	0.590213
Cu17	Cu	0.989682	0.106748	-0.090113
Cu18	Cu	1.489682	0.606748	0.409887
O19	O	0.991105	0.220562	0.076283
O20	O	1.491105	0.720562	0.576283
C21	C	0.838079	0.112494	0.000041
C22	C	1.338079	0.612494	0.500041
C23	C	0.745676	0.110975	0.000035
C24	C	1.245676	0.610975	0.500035
C25	C	0.528212	0.178690	0.000042
C26	C	1.028212	0.678690	0.500042
C27	C	0.441390	0.177257	0.000048
C28	C	0.941390	0.677257	0.500048
C29	C	0.451147	0.034799	0.000053
C30	C	0.951147	0.534799	0.500053
C31	C	0.537968	0.036233	0.000054
C32	C	1.037968	0.536233	0.500054
C33	C	0.576498	0.108181	0.000043
C34	C	1.076498	0.608181	0.500043
C35	C	0.402855	0.105314	0.000049
C36	C	0.902855	0.605314	0.500049
C37	C	0.308719	0.103759	0.000055
C38	C	0.808719	0.603759	0.500055
C39	C	0.670640	0.109736	0.000039
C40	C	1.170640	0.609736	0.500039
C41	C	0.985636	-0.036196	0.000057
C42	C	1.485636	0.463804	0.500057
C43	C	0.977857	-0.122989	0.000056
C44	C	1.477857	0.377011	0.500056
C45	C	1.049277	-0.173104	0.000062
C46	C	1.549277	0.326896	0.500062
C47	C	1.041963	-0.254654	0.000052
C48	C	1.541963	0.245346	0.500052
C49	C	0.963228	-0.286089	0.000044
C50	C	1.463228	0.213911	0.500044
C51	C	0.891802	-0.235967	0.000036
C52	C	1.391802	0.264033	0.500036
C53	C	0.899116	-0.154418	0.000039
C54	C	1.399116	0.345582	0.500039
C55	C	0.937385	-0.531846	0.000030
C56	C	1.437385	-0.031846	0.500030
C57	C	0.930076	-0.613402	0.000031
C58	C	1.430076	-0.113402	0.500031
C59	C	1.080238	-0.632083	0.000045
C60	C	1.580238	-0.132083	0.500045
C61	C	1.087546	-0.550532	0.000053
C62	C	1.587546	-0.050532	0.500053
C63	C	1.016120	-0.500418	0.000040
C64	C	1.516120	-0.000418	0.500040
C65	C	0.955749	-0.369446	0.000038
C66	C	1.455749	0.130554	0.500038
C67	C	1.023599	-0.417062	0.000040
C68	C	1.523599	0.082938	0.500040
C69	C	1.141274	0.101001	0.000057
C70	C	1.641274	0.601001	0.500057
C71	C	1.233677	0.102519	0.000057
C72	C	1.733677	0.602519	0.500057
C73	C	0.993717	0.249691	0.000041
C74	C	1.493717	0.749691	0.500041
C75	C	1.001496	0.336484	0.000036
C76	C	1.501496	0.836484	0.500036
N77	N	0.989670	0.106744	0.217045
N78	N	1.489670	0.606744	0.717045
N79	N	0.989689	0.106744	-0.216945
N80	N	1.489689	0.606744	0.283055
C81	C	1.042451	0.053596	0.452058
C82	C	1.542451	0.553596	0.952058
C83	C	1.042453	0.053594	0.548039
C84	C	1.542453	0.553594	1.048039
C85	C	0.936902	0.159895	0.548036
C86	C	1.436902	0.659895	1.048036
C87	C	0.936896	0.159893	0.452056
C88	C	1.436896	0.659893	0.952056
C89	C	0.989675	0.106744	0.404070
C90	C	1.489675	0.606744	0.904070
C91	C	0.989684	0.106744	0.596030
C92	C	1.489684	0.606744	1.096030
C93	C	0.989686	0.106743	0.700098
C94	C	1.489686	0.606743	1.200098
C95	C	0.989672	0.106744	0.299996
C96	C	1.489672	0.606744	0.799996
H97	H	0.577284	-0.021187	0.000057
H98	H	1.077284	0.478813	0.500057
H99	H	0.891642	-0.395049	0.000034
H100	H	1.391642	0.104951	0.500034
O101	O	1.163967	-0.519869	0.000091
O102	O	1.663967	-0.019869	0.500091
C103	C	1.241783	-0.402519	0.000035
C104	C	1.741783	0.097481	0.500035
C105	C	1.155186	-0.437139	0.000011
C106	C	1.655186	0.062861	0.500011
H107	H	1.234713	-0.335627	-0.000050
H108	H	1.734713	0.164373	0.499950
H109	H	1.277386	-0.423106	0.063862
H110	H	1.777386	0.076894	0.563862
H111	H	1.277365	-0.423202	-0.063764
H112	H	1.777365	0.076798	0.436236
H113	H	1.119535	-0.416471	0.063766
H114	H	1.619535	0.083529	0.563766
H115	H	1.119646	-0.416556	-0.063859
H116	H	1.619646	0.083444	0.436141
H117	H	0.402079	0.234672	0.000048
H118	H	0.902079	0.734672	0.500048
H119	H	0.879224	-0.491053	0.000020
H120	H	1.379224	0.008947	0.500020
H121	H	1.113392	-0.147517	0.000074
H122	H	1.613392	0.352483	0.500074
H123	H	1.100122	-0.295455	0.000059
H124	H	1.600122	0.204545	0.500059
H125	H	0.893916	0.203173	0.412982
H126	H	1.393916	0.703173	0.912982
H127	H	0.827693	-0.261567	0.000024
H128	H	1.327693	0.238433	0.500024
H129	H	0.893932	0.203169	0.587116
H130	H	1.393932	0.703169	1.087116
H131	H	0.559580	0.237274	0.000040
H132	H	1.059580	0.737274	0.500040
O133	O	1.093621	0.001841	0.405505
O134	O	1.593621	0.501841	0.905505
C135	C	1.132728	-0.134112	0.376263
C136	C	1.632728	0.365888	0.876263
C137	C	1.074714	-0.075573	0.429007
C138	C	1.574714	0.424427	0.929007
H139	H	1.117474	-0.196714	0.395260
H140	H	1.617474	0.303286	0.895260
H141	H	1.123673	-0.125077	0.299403
H142	H	1.623673	0.374923	0.799403
H143	H	1.200033	-0.123874	0.395126
H144	H	1.700033	0.376126	0.895126
H145	H	1.007386	-0.085776	0.410220
H146	H	1.507386	0.414224	0.910220
H147	H	1.083840	-0.084622	0.505854
H148	H	1.583840	0.415378	1.005854
H149	H	1.138389	-0.672894	0.000053
H150	H	1.638389	-0.172894	0.500053
O151	O	1.093643	0.001997	0.594796
O152	O	1.593643	0.501997	1.094796
C153	C	1.140467	-0.045085	0.742657
C154	C	1.640467	0.454915	1.242657
C155	C	1.082438	0.013382	0.689820
C156	C	1.582438	0.513382	1.189820
H157	H	1.131441	-0.035889	0.819493
H158	H	1.631441	0.464111	1.319493
H159	H	1.125206	-0.107728	0.723859
H160	H	1.625206	0.392272	1.223859
H161	H	1.207766	-0.034884	0.723725
H162	H	1.707766	0.465116	1.223725
H163	H	1.015120	0.003253	0.708724
H164	H	1.515120	0.503253	1.208724
H165	H	1.097770	0.076005	0.708622
H166	H	1.597770	0.576005	1.208622
O167	O	0.413584	-0.035019	0.000015
O168	O	0.913584	0.464981	0.500015
C169	C	0.284157	-0.100364	0.000066
C170	C	0.784157	0.399636	0.500066
C171	C	0.326587	-0.021240	0.000091
C172	C	0.826587	0.478760	0.500091
H173	H	0.213814	-0.089252	0.000148
H174	H	0.713814	0.410748	0.500148
H175	H	0.303574	-0.135216	-0.063760
H176	H	0.803574	0.364784	0.436240
H177	H	0.303681	-0.135209	0.063866
H178	H	0.803681	0.364791	0.563866
H179	H	0.307084	0.013668	-0.063665
H180	H	0.807084	0.513668	0.436335
H181	H	0.307169	0.013552	0.063960
H182	H	0.807169	0.513552	0.563960
H183	H	0.865956	-0.638991	0.000039
H184	H	1.365956	-0.138991	0.500039
O185	O	0.829654	-0.105846	0.000075
O186	O	1.329654	0.394154	0.500075
C187	C	0.679942	-0.095918	-0.000002
C188	C	1.179942	0.404082	0.499998
C189	C	0.758542	-0.151014	-0.000013
C190	C	1.258542	0.348986	0.499987
H191	H	0.622428	-0.132414	-0.000092
H192	H	1.122428	0.367586	0.499908
H193	H	0.679546	-0.057287	0.063824
H194	H	1.179546	0.442713	0.563824
H195	H	0.679668	-0.057254	-0.063801
H196	H	1.179668	0.442746	0.436199
H197	H	0.758867	-0.189727	0.063743
H198	H	1.258867	0.310273	0.563743
H199	H	0.758908	-0.189591	-0.063882
H200	H	1.258908	0.310409	0.436118
H201	H	1.087705	-0.391465	0.000026
H202	H	1.587705	0.108535	0.500026
