data_functionalizedCrystal
_audit_creation_method	'MofGen! by Chris Wilmer'
_symmetry_space_group_name_H-M	'P1'
_symmetry_Int_Tables_number	1
_symmetry_cell_setting	triclinic
loop_
_symmetry_equiv_pos_as_xyz
  x,y,z
_cell_length_a	19.805407
_cell_length_b	17.077402
_cell_length_c	17.077396
_cell_angle_alpha	89.970216
_cell_angle_beta	90.020543
_cell_angle_gamma	89.977117
loop_
_atom_site_label
_atom_site_type_symbol
_atom_site_fract_x
_atom_site_fract_y
_atom_site_fract_z
Zn1	Zn	1.034759	0.312508	0.443857
Zn2	Zn	1.034679	0.443783	0.312588
Zn3	Zn	0.921571	0.312535	0.312603
Zn4	Zn	0.921544	0.443736	0.443810
O5	O	0.978138	0.378141	0.378215
O6	O	1.129465	0.329930	0.426458
O7	O	1.019653	0.426404	0.202743
O8	O	0.936631	0.202685	0.330040
O9	O	1.129406	0.426377	0.330015
O10	O	1.019789	0.202665	0.426472
O11	O	0.936553	0.329976	0.202754
O12	O	0.826851	0.329931	0.329994
O13	O	0.936584	0.426297	0.553663
O14	O	0.826831	0.426323	0.426391
O15	O	1.019763	0.329885	0.553698
O16	O	1.019626	0.553624	0.329969
O17	O	0.936506	0.553589	0.426377
C18	C	0.802282	0.378126	0.378189
C19	C	0.727050	0.378138	0.378197
C20	C	0.978073	0.582088	0.378183
C21	C	0.978107	0.669338	0.378196
C22	C	0.978222	0.173396	0.378263
C23	C	0.978258	0.086146	0.378284
C24	C	0.691713	0.428405	0.428310
C25	C	0.621025	0.428407	0.428321
C26	C	0.585675	0.378144	0.378215
C27	C	0.621017	0.327871	0.328100
C28	C	0.691704	0.327867	0.328093
C29	C	0.335943	0.327889	0.328126
C30	C	0.265251	0.327899	0.328134
C31	C	0.265264	0.428429	0.428353
C32	C	0.335951	0.428424	0.428347
C33	C	0.371287	0.378149	0.378235
C34	C	0.447936	0.378147	0.378225
C35	C	0.509027	0.378149	0.378220
C36	C	1.154681	0.378156	0.378241
C37	C	1.229913	0.378163	0.378252
C38	C	0.978179	0.378083	0.582959
C39	C	0.978197	0.378058	0.670209
C40	C	1.021431	0.710320	0.328051
C41	C	1.021465	0.792301	0.328071
C42	C	0.978169	0.833298	0.378233
C43	C	0.934843	0.792310	0.428384
C44	C	0.934813	0.710331	0.428367
C45	C	0.934905	0.963180	0.428414
C46	C	0.934933	1.045164	0.428430
C47	C	1.021556	1.045150	0.328117
C48	C	1.021527	0.963171	0.328100
C49	C	0.978200	0.922189	0.378251
C50	C	0.978136	0.378142	0.174267
C51	C	0.978250	0.377945	0.087017
C52	C	1.021509	0.327852	0.711219
C53	C	1.021517	0.327826	0.793199
C54	C	0.978216	0.378010	0.834168
C55	C	0.934898	0.428219	0.793153
C56	C	0.934887	0.428240	0.711174
C57	C	0.934926	0.428172	0.964023
C58	C	0.934937	0.428151	1.046008
C59	C	1.021556	0.327757	1.046048
C60	C	1.021545	0.327779	0.964069
C61	C	0.978228	0.377988	0.923059
H62	H	0.720490	0.469337	0.469109
O63	O	0.726061	0.278956	0.279523
C64	C	0.766993	0.228321	0.324299
H65	H	0.745717	0.223553	0.386134
H66	H	0.820560	0.252590	0.326954
C67	C	0.794218	0.152526	0.210148
C68	C	0.768083	0.146664	0.286094
H69	H	0.794894	0.102156	0.186581
H70	H	0.766644	0.186640	0.179981
H71	H	0.838855	0.172752	0.212371
H72	H	0.723444	0.126447	0.283870
H73	H	0.795650	0.112544	0.316261
O74	O	1.063643	0.279212	0.671388
C75	C	1.107325	0.323914	0.623950
H76	H	1.111489	0.385732	0.648639
H77	H	1.086387	0.326633	0.561814
C78	C	1.172587	0.209638	0.592392
C79	C	1.177705	0.285562	0.622719
H80	H	1.216000	0.185980	0.591629
H81	H	1.143156	0.179520	0.624349
H82	H	1.155136	0.211914	0.540615
H83	H	1.195148	0.283284	0.674498
H84	H	1.207141	0.315679	0.590770
H85	H	0.236471	0.286964	0.287332
O86	O	0.892894	0.477129	0.671365
C87	C	0.907652	0.555359	0.691395
H88	H	0.961724	0.559314	0.713950
H89	H	0.871359	0.575868	0.738960
C90	C	0.833346	0.602906	0.590849
C91	C	0.899759	0.607765	0.618546
H92	H	0.828474	0.635234	0.545915
H93	H	0.823401	0.550201	0.577356
H94	H	0.803109	0.619996	0.630494
H95	H	0.929994	0.590666	0.578905
H96	H	0.909709	0.660468	0.632031
O97	O	1.063658	0.279034	0.832914
C98	C	1.101866	0.234735	0.779175
H99	H	1.104186	0.266905	0.720731
H100	H	1.077108	0.175116	0.770463
C101	C	1.171064	0.183914	0.882971
C102	C	1.173918	0.223429	0.811190
H103	H	1.215508	0.176936	0.902720
H104	H	1.145321	0.213756	0.919177
H105	H	1.150429	0.134235	0.875701
H106	H	1.194544	0.273110	0.818462
H107	H	1.199666	0.193595	0.774986
H108	H	1.056808	0.286918	0.930714
H109	H	1.056778	0.929791	0.287251
O110	O	1.063697	1.085076	0.279559
C111	C	1.054470	1.166224	0.290361
H112	H	1.032184	1.177370	0.350878
H113	H	1.018552	1.189630	0.243704
C114	C	1.150388	1.194500	0.209111
C115	C	1.123021	1.208191	0.283441
H116	H	1.192672	1.220389	0.204840
H117	H	1.156603	1.139830	0.201831
H118	H	1.120450	1.214006	0.170239
H119	H	1.152955	1.188677	0.322311
H120	H	1.116812	1.262859	0.290728
H121	H	0.899535	0.676964	0.469202
O122	O	0.892905	0.477000	1.085726
C123	C	0.907659	0.555249	1.065701
H124	H	0.933662	0.556909	1.006180
H125	H	0.942454	0.581680	1.111839
C126	C	0.809709	0.600742	1.135007
C127	C	0.841641	0.602781	1.061900
H128	H	0.768987	0.630063	1.132666
H129	H	0.799770	0.548025	1.148501
H130	H	0.838712	0.622766	1.173448
H131	H	0.812642	0.580748	1.023463
H132	H	0.851574	0.655496	1.048399
O133	O	0.586803	0.477319	0.477016
C134	C	0.633162	0.521675	0.521245
H135	H	0.683538	0.524337	0.489084
H136	H	0.640708	0.493018	0.580920
C137	C	0.543685	0.601970	0.571892
C138	C	0.605556	0.605246	0.532388
H139	H	0.526656	0.653520	0.578769
H140	H	0.512452	0.572085	0.542096
H141	H	0.549982	0.578086	0.621617
H142	H	0.599257	0.629120	0.482660
H143	H	0.636788	0.635136	0.562175
O144	O	0.892948	0.476985	0.924092
C145	C	0.931468	0.527705	0.876686
H146	H	0.982771	0.500020	0.864435
H147	H	0.938887	0.585870	0.908265
C148	C	0.831212	0.575938	0.813842
C149	C	0.894221	0.541932	0.798789
H150	H	0.808236	0.584717	0.765792
H151	H	0.805260	0.541769	0.845782
H152	H	0.837403	0.624405	0.840159
H153	H	0.888029	0.493461	0.772481
H154	H	0.920172	0.576093	0.766843
H155	H	1.056825	0.286873	1.079442
H156	H	0.364705	0.286957	0.287316
H157	H	1.056685	0.676946	0.287199
H158	H	0.364730	0.469355	0.469146
H159	H	0.899639	0.469077	0.826517
O160	O	1.063505	0.832255	0.279425
C161	C	1.025092	0.879820	0.228678
H162	H	0.973742	0.892076	0.256216
H163	H	1.017774	0.848378	0.170419
C164	C	1.125456	0.942643	0.180922
C165	C	1.062388	0.957701	0.214747
H166	H	1.148462	0.990682	0.172325
H167	H	1.151335	0.910596	0.215108
H168	H	1.119348	0.916440	0.132376
H169	H	1.068497	0.983895	0.263296
H170	H	1.036510	0.989755	0.180568
H171	H	0.899691	1.078542	0.469291
O172	O	0.230833	0.477188	0.477014
C173	C	0.160863	0.466430	0.466269
H174	H	0.151214	0.405818	0.440673
H175	H	0.140772	0.512938	0.424385
C176	C	0.136454	0.548176	0.577122
C177	C	0.124603	0.473729	0.545691
H178	H	0.114086	0.552681	0.626112
H179	H	0.183594	0.555426	0.584361
H180	H	0.119711	0.586924	0.542211
H181	H	0.141353	0.434983	0.580597
H182	H	0.077464	0.466472	0.538461
O183	O	0.586575	0.279116	0.279455
C184	C	0.516607	0.289883	0.290220
H185	H	0.506943	0.350497	0.315815
H186	H	0.496578	0.243380	0.332112
C187	C	0.492155	0.208135	0.179377
C188	C	0.480286	0.282586	0.210807
H189	H	0.469750	0.203630	0.130393
H190	H	0.539294	0.200878	0.172126
H191	H	0.475464	0.169391	0.214294
H192	H	0.496984	0.321328	0.175895
H193	H	0.433149	0.289849	0.218051
H194	H	0.899626	0.929815	0.469254
O195	O	0.892880	0.832219	0.477150
C196	C	0.931407	0.879554	0.527913
H197	H	0.982719	0.891806	0.500286
H198	H	0.938803	0.847913	0.586088
C199	C	0.831163	0.942402	0.576030
C200	C	0.894184	0.957456	0.542095
H201	H	0.808202	0.990454	0.584782
H202	H	0.805206	0.910509	0.541833
H203	H	0.837336	0.916032	0.624505
H204	H	0.888010	0.983815	0.493617
H205	H	0.920139	0.989354	0.576285
