data_functionalizedCrystal
_audit_creation_method	'MofGen! by Chris Wilmer'
_symmetry_space_group_name_H-M	'P1'
_symmetry_Int_Tables_number	1
_symmetry_cell_setting	triclinic
loop_
_symmetry_equiv_pos_as_xyz
  x,y,z
_cell_length_a	19.121102
_cell_length_b	16.625546
_cell_length_c	16.625539
_cell_angle_alpha	90.030397
_cell_angle_beta	87.540653
_cell_angle_gamma	92.423284
loop_
_atom_site_label
_atom_site_type_symbol
_atom_site_fract_x
_atom_site_fract_y
_atom_site_fract_z
Zn1	Zn	1.073748	0.373670	-0.508418
Zn2	Zn	1.323748	0.623670	-0.258418
Zn3	Zn	1.573748	0.873670	-0.008418
Zn4	Zn	1.823748	1.123670	0.241582
Zn5	Zn	1.073664	0.508509	-0.373576
Zn6	Zn	1.323664	0.758509	-0.123576
Zn7	Zn	1.573664	1.008509	0.126424
Zn8	Zn	1.823664	1.258509	0.376424
Zn9	Zn	0.956295	0.367937	-0.367854
Zn10	Zn	1.206295	0.617937	-0.117854
Zn11	Zn	1.456295	0.867937	0.132146
Zn12	Zn	1.706295	1.117937	0.382146
Zn13	Zn	0.956269	0.502702	-0.502624
Zn14	Zn	1.206269	0.752702	-0.252624
Zn15	Zn	1.456269	1.002702	-0.002624
Zn16	Zn	1.706269	1.252702	0.247376
O17	O	1.014994	0.438205	-0.438118
O18	O	1.264994	0.688205	-0.188118
O19	O	1.514994	0.938205	0.061882
O20	O	1.764994	1.188205	0.311882
O21	O	1.172022	0.396387	-0.495351
O22	O	1.422022	0.646387	-0.245351
O23	O	1.672022	0.896387	0.004649
O24	O	1.922022	1.146387	0.254649
O25	O	1.058070	0.489893	-0.259984
O26	O	1.308070	0.739893	-0.009984
O27	O	1.558070	0.989893	0.240016
O28	O	1.808070	1.239893	0.490016
O29	O	0.971922	0.255867	-0.386530
O30	O	1.221922	0.505867	-0.136530
O31	O	1.471922	0.755867	0.113470
O32	O	1.721922	1.005867	0.363470
O33	O	1.171960	0.495452	-0.396283
O34	O	1.421960	0.745452	-0.146283
O35	O	1.671960	0.995452	0.103717
O36	O	1.921960	1.245452	0.353717
O37	O	1.058214	0.260080	-0.489802
O38	O	1.308214	0.510080	-0.239802
O39	O	1.558214	0.760080	0.010198
O40	O	1.808214	1.010080	0.260198
O41	O	0.971840	0.386615	-0.255779
O42	O	1.221840	0.636615	-0.005779
O43	O	1.471840	0.886615	0.244221
O44	O	1.721840	1.136615	0.494221
O45	O	0.858007	0.380984	-0.380912
O46	O	1.108007	0.630984	-0.130912
O47	O	1.358007	0.880984	0.119088
O48	O	1.608007	1.130984	0.369088
O49	O	0.971878	0.485555	-0.616226
O50	O	1.221878	0.735555	-0.366226
O51	O	1.471878	0.985555	-0.116226
O52	O	1.721878	1.235555	0.133774
O53	O	0.857988	0.479995	-0.479927
O54	O	1.107988	0.729995	-0.229927
O55	O	1.357988	0.979995	0.020073
O56	O	1.607988	1.229995	0.270073
O57	O	1.058189	0.390756	-0.620483
O58	O	1.308189	0.640756	-0.370483
O59	O	1.558189	0.890756	-0.120483
O60	O	1.808189	1.140756	0.129517
O61	O	1.058045	0.620569	-0.390665
O62	O	1.308045	0.870569	-0.140665
O63	O	1.558045	1.120569	0.109335
O64	O	1.808045	1.370569	0.359335
O65	O	0.971796	0.616302	-0.485476
O66	O	1.221796	0.866302	-0.235476
O67	O	1.471796	1.116302	0.014524
O68	O	1.721796	1.366302	0.264524
C69	C	0.832514	0.429238	-0.429170
C70	C	1.082514	0.679238	-0.179170
C71	C	1.332514	0.929238	0.070830
C72	C	1.582514	1.179238	0.320830
C73	C	0.754447	0.425422	-0.425361
C74	C	1.004447	0.675422	-0.175361
C75	C	1.254447	0.925422	0.074639
C76	C	1.504447	1.175422	0.324639
C77	C	1.014928	0.647692	-0.438081
C78	C	1.264928	0.897692	-0.188081
C79	C	1.514928	1.147692	0.061919
C80	C	1.764928	1.397692	0.311919
C81	C	1.014964	0.737315	-0.438095
C82	C	1.264964	0.987315	-0.188095
C83	C	1.514964	1.237315	0.061905
C84	C	1.764964	1.487315	0.311905
C85	C	1.015040	0.438147	-0.648429
C86	C	1.265040	0.688147	-0.398429
C87	C	1.515040	0.938147	-0.148429
C88	C	1.765040	1.188147	0.101571
C89	C	1.015059	0.438122	-0.738052
C90	C	1.265059	0.688122	-0.488052
C91	C	1.515059	0.938122	-0.238052
C92	C	1.765059	1.188122	0.011948
C93	C	0.717780	0.475256	-0.475042
C94	C	0.967780	0.725256	-0.225042
C95	C	1.217780	0.975256	0.024958
C96	C	1.467780	1.225256	0.274958
C97	C	0.644429	0.471659	-0.471467
C98	C	0.894429	0.721659	-0.221467
C99	C	1.144429	0.971659	0.028533
C100	C	1.394429	1.221659	0.278533
C101	C	0.607746	0.418232	-0.418206
C102	C	0.857746	0.668232	-0.168206
C103	C	1.107746	0.918232	0.081794
C104	C	1.357746	1.168232	0.331794
C105	C	0.644418	0.368392	-0.368523
C106	C	0.894418	0.618392	-0.118523
C107	C	1.144418	0.868392	0.131477
C108	C	1.394418	1.118392	0.381477
C109	C	0.717768	0.371985	-0.372102
C110	C	0.967768	0.621985	-0.122102
C111	C	1.217768	0.871985	0.127898
C112	C	1.467768	1.121985	0.377898
C113	C	0.386276	0.404796	-0.404826
C114	C	0.636276	0.654796	-0.154826
C115	C	0.886276	0.904796	0.095174
C116	C	1.136276	1.154796	0.345174
C117	C	0.312921	0.401208	-0.401249
C118	C	0.562921	0.651208	-0.151249
C119	C	0.812921	0.901208	0.098751
C120	C	1.062921	1.151208	0.348751
C121	C	0.312937	0.504476	-0.504195
C122	C	0.562937	0.754476	-0.254195
C123	C	0.812937	1.004476	-0.004195
C124	C	1.062937	1.254476	0.245805
C125	C	0.386288	0.508067	-0.507766
C126	C	0.636288	0.758067	-0.257766
C127	C	0.886288	1.008067	-0.007766
C128	C	1.136288	1.258067	0.242234
C129	C	0.422954	0.458224	-0.458086
C130	C	0.672954	0.708224	-0.208086
C131	C	0.922954	0.958224	0.041914
C132	C	1.172954	1.208224	0.291914
C133	C	0.532769	0.414556	-0.414549
C134	C	0.782769	0.664556	-0.164549
C135	C	1.032769	0.914556	0.085451
C136	C	1.282769	1.164556	0.335451
C137	C	0.497929	0.461897	-0.461748
C138	C	0.747929	0.711897	-0.211748
C139	C	0.997929	0.961897	0.038252
C140	C	1.247929	1.211897	0.288252
C141	C	1.198188	0.447207	-0.447102
C142	C	1.448188	0.697207	-0.197102
C143	C	1.698188	0.947207	0.052898
C144	C	1.948188	1.197207	0.302898
C145	C	1.276254	0.451043	-0.450930
C146	C	1.526254	0.701043	-0.200930
C147	C	1.776254	0.951043	0.049070
C148	C	2.026254	1.201043	0.299070
C149	C	1.015080	0.227900	-0.438174
C150	C	1.265080	0.477900	-0.188174
C151	C	1.515080	0.727900	0.061826
C152	C	1.765080	0.977900	0.311826
C153	C	1.015117	0.138281	-0.438198
C154	C	1.265117	0.388281	-0.188198
C155	C	1.515117	0.638281	0.061802
C156	C	1.765117	0.888281	0.311802
C157	C	1.015086	1.065497	-0.438185
C158	C	1.265086	1.315497	-0.188185
C159	C	1.515086	1.565497	0.061815
C160	C	1.765086	1.815497	0.311815
C161	C	1.015050	0.974186	-0.438163
C162	C	1.265050	1.224186	-0.188163
C163	C	1.515050	1.474186	0.061837
C164	C	1.765050	1.724186	0.311837
C165	C	1.015024	0.901409	-0.438140
C166	C	1.265024	1.151409	-0.188140
C167	C	1.515024	1.401409	0.061860
C168	C	1.765024	1.651409	0.311860
C169	C	1.014989	0.810093	-0.438118
C170	C	1.264989	1.060093	-0.188118
C171	C	1.514989	1.310093	0.061882
C172	C	1.764989	1.560093	0.311882
C173	C	1.015092	0.438033	-1.066229
C174	C	1.265092	0.688033	-0.816229
C175	C	1.515092	0.938033	-0.566229
C176	C	1.765092	1.188033	-0.316229
C177	C	1.015081	0.438061	-0.974920
C178	C	1.265081	0.688061	-0.724920
C179	C	1.515081	0.938061	-0.474920
C180	C	1.765081	1.188061	-0.224920
C181	C	1.015076	0.438078	-0.902143
C182	C	1.265076	0.688078	-0.652143
C183	C	1.515076	0.938078	-0.402143
C184	C	1.765076	1.188078	-0.152143
C185	C	1.015064	0.438104	-0.810828
C186	C	1.265064	0.688104	-0.560828
C187	C	1.515064	0.938104	-0.310828
C188	C	1.765064	1.188104	-0.060828
C189	C	1.014989	0.438206	-0.228627
C190	C	1.264989	0.688206	0.021373
C191	C	1.514989	0.938206	0.271373
C192	C	1.764989	1.188206	0.521373
C193	C	1.015106	0.438010	-0.139012
C194	C	1.265106	0.688010	0.110988
C195	C	1.515106	0.938010	0.360988
C196	C	1.765106	1.188010	0.610988
H197	H	0.614578	0.512241	-0.511922
H198	H	0.864578	0.762241	-0.261922
H199	H	1.114578	1.012241	-0.011922
H200	H	1.364578	1.262241	0.238078
H201	H	0.416150	0.551576	-0.551135
H202	H	0.666150	0.801576	-0.301135
H203	H	0.916150	1.051576	-0.051135
H204	H	1.166150	1.301576	0.198865
N205	N	0.537493	0.519527	-0.519185
N206	N	0.787493	0.769527	-0.269185
N207	N	1.037493	1.019527	-0.019185
N208	N	1.287493	1.269527	0.230815
H209	H	0.503137	0.550558	-0.550116
H210	H	0.753137	0.800558	-0.300116
H211	H	1.003137	1.050558	-0.050116
H212	H	1.253137	1.300558	0.199884
H213	H	0.567951	0.488247	-0.558045
H214	H	0.817951	0.738247	-0.308045
H215	H	1.067951	0.988247	-0.058045
H216	H	1.317951	1.238247	0.191955
N217	N	0.425817	0.351027	-0.351258
N218	N	0.675817	0.601027	-0.101258
N219	N	0.925817	0.851027	0.148742
N220	N	1.175817	1.101027	0.398742
H221	H	0.391447	0.316635	-0.316978
H222	H	0.641447	0.566635	-0.066978
H223	H	0.891447	0.816635	0.183022
H224	H	1.141447	1.066635	0.433022
H225	H	0.456235	0.385274	-0.315363
H226	H	0.706235	0.635274	-0.065363
H227	H	0.956235	0.885274	0.184637
H228	H	1.206235	1.135274	0.434637
H229	H	0.283075	0.545054	-0.544643
H230	H	0.533075	0.795054	-0.294643
H231	H	0.783075	1.045054	-0.044643
H232	H	1.033075	1.295054	0.205357
H233	H	0.747622	0.331400	-0.331651
H234	H	0.997622	0.581400	-0.081651
H235	H	1.247622	0.831400	0.168349
H236	H	1.497622	1.081400	0.418349
H237	H	0.614545	0.324886	-0.325160
H238	H	0.864545	0.574886	-0.075160
H239	H	1.114545	0.824886	0.174840
H240	H	1.364545	1.074886	0.424840
H241	H	0.283056	0.357692	-0.357882
H242	H	0.533056	0.607692	-0.107882
H243	H	0.783056	0.857692	0.142118
H244	H	1.033056	1.107692	0.392118
N245	N	0.493201	0.356943	-0.357094
N246	N	0.743201	0.606943	-0.107094
N247	N	0.993201	0.856943	0.142906
N248	N	1.243201	1.106943	0.392906
H249	H	0.527557	0.325918	-0.326157
H250	H	0.777557	0.575918	-0.076157
H251	H	1.027557	0.825918	0.173843
H252	H	1.277557	1.075918	0.423843
H253	H	0.462791	0.318180	-0.388498
H254	H	0.712791	0.568180	-0.138498
H255	H	0.962791	0.818180	0.111502
H256	H	1.212791	1.068180	0.361502
H257	H	0.747642	0.518766	-0.518411
H258	H	0.997642	0.768766	-0.268411
H259	H	1.247642	1.018766	-0.018411
H260	H	1.497642	1.268766	0.231589
