data_functionalizedCrystal
_audit_creation_method	'MofGen! by Chris Wilmer'
_symmetry_space_group_name_H-M	'P1'
_symmetry_Int_Tables_number	1
_symmetry_cell_setting	triclinic
loop_
_symmetry_equiv_pos_as_xyz
  x,y,z
_cell_length_a	14.519709
_cell_length_b	10.654550
_cell_length_c	9.730223
_cell_angle_alpha	90.000043
_cell_angle_beta	90.012822
_cell_angle_gamma	84.082538
loop_
_atom_site_label
_atom_site_type_symbol
_atom_site_fract_x
_atom_site_fract_y
_atom_site_fract_z
O1	O	-0.129532	-1.666594	-0.114216
O2	O	-0.141873	-1.300996	-0.114244
O3	O	-0.001514	-1.493488	-0.114191
O4	O	-0.269891	-1.474102	-0.114269
O5	O	-0.001511	-1.493476	0.114389
O6	O	-0.141869	-1.300984	0.114336
O7	O	-0.129528	-1.666581	0.114364
Zn8	Zn	-0.135698	-1.483781	0.150642
Zn9	Zn	-0.135703	-1.483797	-0.150522
O10	O	-0.269887	-1.474089	0.114311
C11	C	0.032852	-1.492579	0.000106
C12	C	0.135247	-1.489871	0.000127
C13	C	-0.140965	-1.254201	0.000043
C14	C	-0.138254	-1.114784	0.000034
C15	C	-0.130436	-1.713377	0.000074
C16	C	-0.133147	-1.852794	0.000074
C17	C	0.510195	-1.479904	0.000163
C18	C	0.405872	-1.482672	0.000154
C19	C	0.322724	-1.484887	0.000146
C20	C	0.218395	-1.487656	0.000134
C21	C	0.695747	-1.474999	0.000060
C22	C	0.593351	-1.477706	0.000176
N23	N	-0.135694	-1.483779	0.356179
C24	C	-0.220895	-1.034504	0.000014
C25	C	-0.218342	-0.903507	0.000039
C26	C	-0.050500	-0.933084	0.000098
C27	C	-0.053054	-1.064078	0.000083
N28	N	-0.135700	-1.483809	-0.356058
C29	C	-0.073570	-1.569043	0.428128
C30	C	-0.073570	-1.569056	0.572011
C31	C	-0.197827	-1.398535	0.571982
C32	C	-0.197822	-1.398518	0.428102
H33	H	-0.290270	-1.075783	-0.000015
Br34	Br	0.059110	-1.173040	0.000128
Br35	Br	0.010749	-1.684770	0.669654
Br36	Br	0.010748	-1.684751	0.330523
Br37	Br	-0.282142	-1.282831	0.669597
Br38	Br	-0.282132	-1.282785	0.330445
H39	H	-0.285637	-0.838147	0.000025
H40	H	0.018867	-0.891783	0.000146
