data_functionalizedCrystal
_audit_creation_method	'MofGen! by Chris Wilmer'
_symmetry_space_group_name_H-M	'P1'
_symmetry_Int_Tables_number	1
_symmetry_cell_setting	triclinic
loop_
_symmetry_equiv_pos_as_xyz
  x,y,z
_cell_length_a	22.863218
_cell_length_b	22.862586
_cell_length_c	22.858745
_cell_angle_alpha	60.006856
_cell_angle_beta	60.013818
_cell_angle_gamma	59.991795
loop_
_atom_site_label
_atom_site_type_symbol
_atom_site_fract_x
_atom_site_fract_y
_atom_site_fract_z
O1	O	0.081006	-0.854581	0.714630
O2	O	0.581006	-0.354581	1.214630
O3	O	0.030492	-0.665350	0.575795
O4	O	0.530492	-0.165350	1.075795
O5	O	0.150314	-0.785089	0.575706
O6	O	0.650314	-0.285089	1.075706
O7	O	-0.038816	-0.734841	0.714718
O8	O	0.461184	-0.234841	1.214718
O9	O	0.190066	-0.745348	0.615369
O10	O	0.690066	-0.245348	1.115369
O11	O	0.070244	-0.625609	0.615458
O12	O	0.570244	-0.125609	1.115458
O13	O	0.120758	-0.814840	0.754293
O14	O	0.620758	-0.314840	1.254293
Zn15	Zn	0.101812	-0.713914	0.691173
Zn16	Zn	0.601812	-0.213914	1.191173
Zn17	Zn	0.049438	-0.766275	0.638915
Zn18	Zn	0.549438	-0.266275	1.138915
O19	O	0.000936	-0.695100	0.754381
O20	O	0.500936	-0.195100	1.254381
N21	N	0.137558	-0.678184	0.726840
N22	N	0.637558	-0.178184	1.226840
N23	N	0.013698	-0.802011	0.603247
N24	N	0.513698	-0.302011	1.103247
C25	C	0.187224	-0.518558	0.776483
C26	C	0.687224	-0.018558	1.276483
C27	C	0.187235	-0.628552	0.776467
C28	C	0.687235	-0.128552	1.276467
C29	C	0.214753	-0.601061	0.803961
C30	C	0.714753	-0.101061	1.303961
C31	C	0.334724	-0.580392	0.740801
C32	C	0.834724	-0.080392	1.240801
C33	C	0.409718	-0.605392	0.715784
C34	C	0.909718	-0.105392	1.215784
C35	C	0.409746	-0.726732	0.762051
C36	C	0.909746	-0.226732	1.262051
C37	C	0.334754	-0.701730	0.787070
C38	C	0.834754	-0.201730	1.287070
C39	C	0.205297	-0.481049	0.702756
C40	C	0.705297	0.018951	1.202756
C41	C	0.180267	-0.406048	0.677779
C42	C	0.680267	0.093952	1.177779
C43	C	0.119099	-0.406071	0.800259
C44	C	0.619099	0.093929	1.300259
C45	C	0.144128	-0.481071	0.825236
C46	C	0.644128	0.018929	1.325236
C47	C	0.113501	-0.610437	0.794610
C48	C	0.613501	-0.110437	1.294610
C49	C	0.088492	-0.635428	0.769607
C50	C	0.588492	-0.135428	1.269607
C51	C	0.210943	-0.696652	0.708337
C52	C	0.710943	-0.196652	1.208337
C53	C	0.235956	-0.671660	0.733331
C54	C	0.735956	-0.171660	1.233331
C55	C	0.113585	-0.610461	0.923980
C56	C	0.613585	-0.110461	1.423980
C57	C	0.088635	-0.635476	0.998978
C58	C	0.588635	-0.135476	1.498978
C59	C	0.211128	-0.696714	0.998930
C60	C	0.711128	-0.196714	1.498930
C61	C	0.236077	-0.671700	0.923930
C62	C	0.736077	-0.171700	1.423930
C63	C	0.187303	-0.628571	0.886457
C64	C	0.687303	-0.128571	1.386457
C65	C	0.297246	-0.628559	0.776441
C66	C	0.797246	-0.128559	1.276441
C67	C	-0.117796	-0.823430	0.581283
C68	C	0.382204	-0.323430	1.081283
C69	C	-0.007671	-0.823587	0.471446
C70	C	0.492329	-0.323587	0.971446
C71	C	-0.007879	-0.933535	0.581483
C72	C	0.492121	-0.433535	1.081483
C73	C	-0.007861	-0.823583	0.581554
C74	C	0.492139	-0.323583	1.081554
C75	C	-0.035301	-0.851035	0.553942
C76	C	0.464699	-0.351035	1.053942
N77	N	0.446162	-0.678198	0.726752
N78	N	0.946162	-0.178198	1.226752
O79	O	0.691234	-0.690164	0.550341
O80	O	1.191234	-0.190164	1.050341
O81	O	0.691462	-0.829422	0.739388
O82	O	1.191462	-0.329422	1.239388
O83	O	0.691373	-0.829102	0.619485
O84	O	1.191373	-0.329102	1.119485
O85	O	0.691323	-0.690484	0.670244
O86	O	1.191323	-0.190484	1.170244
O87	O	0.572233	-0.789455	0.659278
O88	O	1.072233	-0.289455	1.159278
O89	O	0.572322	-0.789775	0.779181
O90	O	1.072322	-0.289775	1.279181
O91	O	0.572094	-0.650517	0.590134
O92	O	1.072094	-0.150517	1.090134
Zn93	Zn	0.553292	-0.713851	0.690976
Zn94	Zn	1.053292	-0.213851	1.190976
Zn95	Zn	0.710264	-0.766088	0.638547
Zn96	Zn	1.210264	-0.266088	1.138547
O97	O	0.572183	-0.650837	0.710037
O98	O	1.072183	-0.150837	1.210037
N99	N	0.817394	-0.801741	0.602763
N100	N	1.317394	-0.301741	1.102763
N101	N	0.137538	-0.369628	0.726874
N102	N	0.637538	0.130372	1.226874
O103	O	-0.038795	-0.124419	0.714761
O104	O	0.461205	0.375581	1.214761
O105	O	0.150256	-0.124417	0.575522
O106	O	0.650256	0.375583	1.075522
O107	O	0.030331	-0.124432	0.575860
O108	O	0.530331	0.375568	1.075860
O109	O	0.081131	-0.124404	0.714423
O110	O	0.581131	0.375596	1.214423
O111	O	0.070086	-0.243584	0.615573
O112	O	0.570086	0.256416	1.115573
O113	O	0.190011	-0.243569	0.615236
O114	O	0.690011	0.256431	1.115236
O115	O	0.000960	-0.243571	0.754474
O116	O	0.500960	0.256429	1.254474
Zn117	Zn	0.101797	-0.262488	0.691160
Zn118	Zn	0.601797	0.237512	1.191160
Zn119	Zn	0.049419	-0.105500	0.638836
Zn120	Zn	0.549419	0.394500	1.138836
O121	O	0.120885	-0.243556	0.754137
O122	O	0.620885	0.256444	1.254137
N123	N	0.013669	0.001640	0.603123
N124	N	0.513669	0.501640	1.103123
N125	N	0.137749	-0.678230	1.035381
N126	N	0.637749	-0.178230	1.535381
O127	O	0.125655	-0.854547	1.280566
O128	O	0.625655	-0.354547	1.780566
O129	O	-0.013567	-0.665426	1.280590
O130	O	0.486433	-0.165426	1.780590
O131	O	-0.013245	-0.785328	1.280537
O132	O	0.486755	-0.285328	1.780537
O133	O	0.125333	-0.734644	1.280618
O134	O	0.625333	-0.234644	1.780618
O135	O	0.026456	-0.745599	1.161392
O136	O	0.526456	-0.245599	1.661392
O137	O	0.026134	-0.625697	1.161444
O138	O	0.526134	-0.125697	1.661444
O139	O	0.165355	-0.814817	1.161420
O140	O	0.665355	-0.314817	1.661420
Zn141	Zn	0.102048	-0.713949	1.142516
Zn142	Zn	0.602048	-0.213949	1.642516
Zn143	Zn	0.049740	-0.766294	1.299495
Zn144	Zn	0.549740	-0.266294	1.799495
O145	O	0.165033	-0.694915	1.161473
O146	O	0.665033	-0.194915	1.661473
N147	N	0.014038	-0.802020	1.406629
N148	N	0.514038	-0.302020	1.906629
C149	C	0.045634	-0.621635	0.576499
C150	C	0.545634	-0.121635	1.076499
C151	C	0.194019	-0.769918	0.576389
C152	C	0.694019	-0.269918	1.076389
C153	C	0.105616	-0.858555	0.753588
C154	C	0.605616	-0.358555	1.253588
C155	C	-0.042769	-0.710272	0.753698
C156	C	0.457231	-0.210272	1.253698
C157	C	0.631920	-0.828776	0.783102
C158	C	1.131920	-0.328776	1.283102
C159	C	0.631811	-0.828380	0.634616
C160	C	1.131811	-0.328380	1.134616
C161	C	0.631633	-0.651162	0.546422
C162	C	1.131633	-0.151162	1.046422
C163	C	0.631745	-0.651559	0.694907
C164	C	1.131745	-0.151559	1.194907
C165	C	0.193900	-0.183846	0.576155
C166	C	0.693900	0.316154	1.076155
C167	C	0.045437	-0.184012	0.576622
C168	C	0.545437	0.315988	1.076622
C169	C	-0.042734	-0.183994	0.753792
C170	C	0.457266	0.316006	1.253792
C171	C	0.105780	-0.183977	0.753375
C172	C	0.605780	0.316023	1.253375
C173	C	-0.012889	-0.621735	1.221020
C174	C	0.487111	-0.121735	1.721020
C175	C	-0.012483	-0.770211	1.220931
C176	C	0.487517	-0.270211	1.720931
C177	C	0.164678	-0.858508	1.220991
C178	C	0.664678	-0.358508	1.720991
C179	C	0.164280	-0.710023	1.221052
C180	C	0.664280	-0.210023	1.721052
H181	H	0.073862	-0.575336	0.893474
H182	H	0.573862	-0.075336	1.393474
N183	N	-0.114647	-0.184002	0.811700
N184	N	0.385353	0.315998	1.311700
H185	H	-0.107975	-0.228172	0.854994
H186	H	0.392025	0.271828	1.354994
H187	H	-0.146644	-0.183986	0.793277
H188	H	0.353356	0.316014	1.293277
N189	N	0.631727	-0.593878	0.709291
N190	N	1.131727	-0.093878	1.209291
H191	H	0.587531	-0.550559	0.703651
H192	H	1.087531	-0.050559	1.203651
H193	H	0.675890	-0.580021	0.674139
H194	H	1.175890	-0.080021	1.174139
H195	H	0.116656	-0.183968	0.796904
H196	H	0.616656	0.316032	1.296904
N197	N	0.450201	-0.805655	0.773514
N198	N	0.950201	-0.305655	1.273514
H199	H	0.481339	-0.824387	0.802717
H200	H	0.981339	-0.324387	1.302717
H201	H	0.481252	-0.813023	0.725588
H202	H	0.981252	-0.313023	1.225588
N203	N	0.119906	-0.930556	0.811349
N204	N	0.619906	-0.430556	1.311349
H205	H	0.131973	-0.969291	0.793842
H206	H	0.631973	-0.469291	1.293842
H207	H	0.075856	-0.930725	0.855636
H208	H	0.575856	-0.430725	1.355636
H209	H	0.248082	-0.183515	0.532333
H210	H	0.748082	0.316485	1.032333
H211	H	0.034558	-0.184014	0.533090
H212	H	0.534558	0.315986	1.033090
H213	H	-0.056598	-0.567419	1.221026
H214	H	0.443402	-0.067419	1.721026
N215	N	0.632001	-0.886694	0.855017
N216	N	1.132001	-0.386694	1.355017
H217	H	0.587850	-0.869279	0.893811
H218	H	1.087850	-0.369279	1.393811
H219	H	0.676210	-0.898656	0.864250
H220	H	1.176210	-0.398656	1.364250
N221	N	-0.070132	-0.784541	1.220836
N222	N	0.429868	-0.284541	1.720836
H223	H	-0.051543	-0.834966	1.220807
H224	H	0.448457	-0.334966	1.720807
H225	H	-0.083973	-0.749354	1.176649
H226	H	0.416027	-0.249354	1.676649
N227	N	0.222574	-0.930458	1.221000
N228	N	0.722574	-0.430458	1.721000
H229	H	0.204210	-0.962479	1.220984
H230	H	0.704210	-0.462479	1.720984
H231	H	0.236399	-0.953205	1.265184
H232	H	0.736399	-0.453205	1.765184
N233	N	0.221948	-0.695665	1.221079
N234	N	0.721948	-0.195665	1.721079
H235	H	0.233810	-0.654119	1.176921
H236	H	0.733810	-0.154119	1.676921
H237	H	0.266253	-0.739719	1.221105
H238	H	0.766253	-0.239719	1.721105
N239	N	0.009119	-0.615934	1.039443
N240	N	0.509119	-0.115934	1.539443
H241	H	-0.017988	-0.584816	1.004321
H242	H	0.482012	-0.084816	1.504321
H243	H	-0.003900	-0.588916	1.070565
H244	H	0.496100	-0.088916	1.570565
N245	N	-0.114725	-0.696087	0.811521
N246	N	0.385275	-0.196087	1.311521
H247	H	-0.108105	-0.701809	0.854820
H248	H	0.391895	-0.201809	1.354820
H249	H	-0.137538	-0.731280	0.825352
H250	H	0.362462	-0.231280	1.325352
N251	N	0.631535	-0.593242	0.474510
N252	N	1.131535	-0.093242	0.974510
H253	H	0.631523	-0.611610	0.442481
H254	H	1.131523	-0.111610	0.942481
H255	H	0.675678	-0.579374	0.451742
H256	H	1.175678	-0.079374	0.951742
N257	N	0.263734	-0.743208	1.039342
N258	N	0.763734	-0.243208	1.539342
H259	H	0.314220	-0.750879	1.004188
H260	H	0.814220	-0.250879	1.504188
H261	H	0.256064	-0.790987	1.070456
H262	H	0.756064	-0.290987	1.570456
H263	H	0.073825	-0.575337	0.829731
H264	H	0.573825	-0.075337	1.329731
N265	N	0.315591	-0.691232	0.883453
N266	N	0.815591	-0.191232	1.383453
H267	H	0.338029	-0.745032	0.896488
H268	H	0.838029	-0.245032	1.396488
H269	H	0.337964	-0.672862	0.896512
H270	H	0.837964	-0.172862	1.396512
N271	N	0.008965	-0.615897	0.789172
N272	N	0.508965	-0.115897	1.289172
H273	H	-0.018107	-0.584801	0.820296
H274	H	0.481893	-0.084801	1.320296
H275	H	-0.004045	-0.661009	0.816188
H276	H	0.495955	-0.161009	1.316188
H277	H	0.250621	-0.731757	0.673222
H278	H	0.750621	-0.231757	1.173222
H279	H	0.295996	-0.686402	0.718551
H280	H	0.795996	-0.186402	1.218551
N281	N	0.294327	-0.753684	0.825514
N282	N	0.794327	-0.253684	1.325514
H283	H	0.329471	-0.803831	0.828446
H284	H	0.829471	-0.303831	1.328446
H285	H	0.263188	-0.740298	0.798351
H286	H	0.763188	-0.240298	1.298351
H287	H	0.304191	-0.520811	0.732143
H288	H	0.804191	-0.020811	1.232143
N289	N	0.450145	-0.553444	0.677351
N290	N	0.950145	-0.053444	1.177351
H291	H	0.415004	-0.503296	0.674415
H292	H	0.915004	-0.003296	1.174415
H293	H	0.481241	-0.555520	0.627411
H294	H	0.981241	-0.055520	1.127411
N295	N	0.031344	-0.549630	0.518742
N296	N	0.531344	-0.049630	1.018742
H297	H	-0.010195	-0.540356	0.506842
H298	H	0.489805	-0.040356	1.006842
H299	H	0.075412	-0.549441	0.474473
H300	H	0.575412	-0.049441	0.974473
N301	N	0.251773	-0.521481	0.650175
N302	N	0.751773	-0.021481	1.150175
H303	H	0.264889	-0.574685	0.677186
H304	H	0.764889	-0.074685	1.177186
H305	H	0.296820	-0.508363	0.619054
H306	H	0.796820	-0.008363	1.119054
H307	H	0.194981	-0.375507	0.617742
H308	H	0.694981	0.124493	1.117742
H309	H	0.084019	-0.375548	0.839959
H310	H	0.584019	0.124452	1.339959
H311	H	0.248339	-0.780632	0.532734
H312	H	0.748339	-0.280632	1.032734
N313	N	0.124634	-0.521535	0.904760
N314	N	0.624634	-0.021535	1.404760
H315	H	0.093534	-0.486406	0.931854
H316	H	0.593534	0.013594	1.431854
H317	H	0.169753	-0.552654	0.917783
H318	H	0.669753	-0.052654	1.417783
N319	N	0.631844	-0.886069	0.620231
N320	N	1.131844	-0.386069	1.120231
H321	H	0.631796	-0.867482	0.569810
H322	H	1.131796	-0.367482	1.069810
H323	H	0.587711	-0.899971	0.655415
H324	H	1.087711	-0.399971	1.155415
