data_functionalizedCrystal
_audit_creation_method	'MofGen! by Chris Wilmer'
_symmetry_space_group_name_H-M	'P1'
_symmetry_Int_Tables_number	1
_symmetry_cell_setting	triclinic
loop_
_symmetry_equiv_pos_as_xyz
  x,y,z
_cell_length_a	16.625547
_cell_length_b	16.625546
_cell_length_c	19.077174
_cell_angle_alpha	92.270997
_cell_angle_beta	87.680275
_cell_angle_gamma	90.022405
loop_
_atom_site_label
_atom_site_type_symbol
_atom_site_fract_x
_atom_site_fract_y
_atom_site_fract_z
Zn1	Zn	1.250962	-0.339334	-0.398028
Zn2	Zn	1.584295	-0.006001	-0.064695
Zn3	Zn	1.917629	0.327332	0.268639
Zn4	Zn	1.245459	-0.468756	-0.280330
Zn5	Zn	1.578793	-0.135423	0.053004
Zn6	Zn	1.912126	0.197910	0.386337
Zn7	Zn	1.110718	-0.333942	-0.280337
Zn8	Zn	1.444052	-0.000608	0.052997
Zn9	Zn	1.777385	0.332725	0.386330
Zn10	Zn	1.116092	-0.474126	-0.397978
Zn11	Zn	1.449425	-0.140793	-0.064644
Zn12	Zn	1.782759	0.192541	0.268689
O13	O	1.180808	-0.404040	-0.339168
O14	O	1.514141	-0.070706	-0.005835
O15	O	1.847474	0.262627	0.327499
O16	O	1.363065	-0.356512	-0.382433
O17	O	1.696399	-0.023179	-0.049100
O18	O	2.029732	0.310155	0.284233
O19	O	1.223034	-0.446369	-0.181840
O20	O	1.556367	-0.113035	0.151493
O21	O	1.889700	0.220298	0.484826
O22	O	1.129376	-0.221826	-0.295973
O23	O	1.462709	0.111508	0.037360
O24	O	1.796042	0.444841	0.370694
O25	O	1.359022	-0.451598	-0.295961
O26	O	1.692356	-0.118264	0.037373
O27	O	2.025689	0.215069	0.370706
O28	O	1.232412	-0.225788	-0.382440
O29	O	1.565746	0.107546	-0.049107
O30	O	1.899079	0.440879	0.284226
O31	O	1.124040	-0.347321	-0.181846
O32	O	1.457373	-0.013988	0.151488
O33	O	1.790707	0.319346	0.484821
O34	O	0.998598	-0.352528	-0.295924
O35	O	1.331931	-0.019194	0.037409
O36	O	1.665264	0.314139	0.370743
O37	O	1.138534	-0.460750	-0.496474
O38	O	1.471868	-0.127417	-0.163141
O39	O	1.805201	0.205917	0.170192
O40	O	1.002546	-0.455521	-0.382354
O41	O	1.335879	-0.122187	-0.049021
O42	O	1.669212	0.211146	0.284313
O43	O	1.237623	-0.361719	-0.496512
O44	O	1.570956	-0.028386	-0.163178
O45	O	1.904290	0.304948	0.170155
O46	O	1.228244	-0.582300	-0.295912
O47	O	1.561578	-0.248967	0.037422
O48	O	1.894911	0.084367	0.370755
O49	O	1.133199	-0.586245	-0.382347
O50	O	1.466532	-0.252912	-0.049014
O51	O	1.799865	0.080422	0.284320
C52	C	0.971315	-0.404022	-0.339135
C53	C	1.304649	-0.070689	-0.005801
C54	C	1.637982	0.262644	0.327532
C55	C	0.881694	-0.404035	-0.339137
C56	C	1.215028	-0.070702	-0.005804
C57	C	1.548361	0.262631	0.327529
C58	C	0.808912	-0.404037	-0.339146
C59	C	1.142246	-0.070704	-0.005813
C60	C	1.475579	0.262629	0.327521
C61	C	0.717605	-0.404042	-0.339164
C62	C	1.050938	-0.070709	-0.005830
C63	C	1.384271	0.262624	0.327503
C64	C	0.644829	-0.404051	-0.339181
C65	C	0.978162	-0.070717	-0.005848
C66	C	1.311496	0.262616	0.327485
C67	C	0.553516	-0.404057	-0.339198
C68	C	0.886849	-0.070724	-0.005865
C69	C	1.220182	0.262610	0.327468
C70	C	1.180730	-0.613529	-0.339139
C71	C	1.514063	-0.280196	-0.005805
C72	C	1.847397	0.053138	0.327528
C73	C	1.180772	-0.703151	-0.339149
C74	C	1.514105	-0.369817	-0.005816
C75	C	1.847438	-0.036484	0.327517
C76	C	1.180916	-1.031330	-0.339223
C77	C	1.514249	-0.697996	-0.005889
C78	C	1.847582	-0.364663	0.327444
C79	C	1.180873	-0.940020	-0.339204
C80	C	1.514207	-0.606687	-0.005871
C81	C	1.847540	-0.273354	0.327462
C82	C	1.180843	-0.867243	-0.339186
C83	C	1.514176	-0.533910	-0.005852
C84	C	1.847510	-0.200576	0.327481
C85	C	1.180802	-0.775928	-0.339168
C86	C	1.514135	-0.442595	-0.005835
C87	C	1.847469	-0.109261	0.327499
C88	C	1.391118	-0.404057	-0.339202
C89	C	1.724452	-0.070724	-0.005868
C90	C	2.057785	0.262609	0.327465
C91	C	1.480740	-0.404065	-0.339216
C92	C	1.814073	-0.070732	-0.005883
C93	C	2.147407	0.262602	0.327450
C94	C	1.189292	-0.412435	-0.522744
C95	C	1.522625	-0.079102	-0.189411
C96	C	1.855959	0.254232	0.143922
C97	C	1.192907	-0.416012	-0.600974
C98	C	1.526241	-0.082679	-0.267641
C99	C	1.859574	0.250654	0.065693
C100	C	1.180908	-0.193733	-0.339213
C101	C	1.514242	0.139601	-0.005880
C102	C	1.847575	0.472934	0.327454
C103	C	1.180951	-0.104113	-0.339232
C104	C	1.514285	0.229221	-0.005899
C105	C	1.847618	0.562554	0.327434
C106	C	1.143067	-0.366125	-0.637728
C107	C	1.476401	-0.032792	-0.304395
C108	C	1.809734	0.300541	0.028938
C109	C	1.146461	-0.369494	-0.711233
C110	C	1.479795	-0.036160	-0.377900
C111	C	1.813128	0.297173	-0.044567
C112	C	1.199700	-0.422745	-0.747982
C113	C	1.533033	-0.089412	-0.414649
C114	C	1.866367	0.243921	-0.081315
C115	C	1.249542	-0.472638	-0.711222
C116	C	1.582875	-0.139305	-0.377889
C117	C	1.916209	0.194029	-0.044556
C118	C	1.246143	-0.469273	-0.637719
C119	C	1.579477	-0.135940	-0.304386
C120	C	1.912810	0.197393	0.028948
C121	C	1.215387	-0.438342	-0.967814
C122	C	1.548721	-0.105009	-0.634480
C123	C	1.882054	0.228325	-0.301147
C124	C	1.218784	-0.441701	-1.041322
C125	C	1.552117	-0.108368	-0.707989
C126	C	1.885451	0.224965	-0.374656
C127	C	1.115702	-0.338557	-1.041328
C128	C	1.449035	-0.005224	-0.707995
C129	C	1.782369	0.328109	-0.374661
C130	C	1.112311	-0.335194	-0.967823
C131	C	1.445645	-0.001861	-0.634490
C132	C	1.778978	0.331473	-0.301156
C133	C	1.162150	-0.385090	-0.931070
C134	C	1.495484	-0.051756	-0.597736
C135	C	1.828817	0.281577	-0.264403
N136	N	1.203172	-0.426188	-0.823116
N137	N	1.536506	-0.092854	-0.489782
N138	N	1.869839	0.240479	-0.156449
N139	N	1.158673	-0.381651	-0.855937
N140	N	1.492007	-0.048317	-0.522604
N141	N	1.825340	0.285016	-0.189271
C142	C	1.172403	-0.395619	-0.156306
C143	C	1.505736	-0.062285	0.177028
C144	C	1.839070	0.271048	0.510361
C145	C	1.168944	-0.391814	-0.078077
C146	C	1.502277	-0.058481	0.255257
C147	C	1.835611	0.274853	0.588590
H148	H	1.099719	-0.322757	-0.607813
H149	H	1.433053	0.010576	-0.274479
H150	H	1.766386	0.343909	0.058854
H151	H	1.075125	-0.297936	-1.071260
H152	H	1.408458	0.035397	-0.737927
H153	H	1.741792	0.368731	-0.404594
H154	H	1.105873	-0.328873	-0.741155
H155	H	1.439207	0.004460	-0.407822
H156	H	1.772540	0.337793	-0.074489
H157	H	1.068957	-0.291833	-0.937907
H158	H	1.402290	0.041500	-0.604574
H159	H	1.735623	0.374834	-0.271240
O160	O	1.270522	-0.493506	-1.076913
O161	O	1.603855	-0.160173	-0.743579
O162	O	1.937189	0.173161	-0.410246
C163	C	1.313797	-0.536810	-1.028713
C164	C	1.647130	-0.203477	-0.695379
C165	C	1.980464	0.129857	-0.362046
H166	H	1.278348	-0.537206	-0.976311
H167	H	1.611681	-0.203873	-0.642978
H168	H	1.945014	0.129461	-0.309645
H169	H	1.323347	-0.601309	-1.049942
H170	H	1.656680	-0.267975	-0.716609
H171	H	1.990013	0.065358	-0.383275
H172	H	1.374689	-0.506935	-1.020909
H173	H	1.708023	-0.173601	-0.687576
H174	H	2.041356	0.159732	-0.354243
O175	O	1.263689	-0.486889	-0.932089
O176	O	1.597023	-0.153555	-0.598756
O177	O	1.930356	0.179778	-0.265423
C178	C	1.215800	-0.537010	-0.889541
C179	C	1.549134	-0.203677	-0.556208
C180	C	1.882467	0.129657	-0.222874
H181	H	1.153314	-0.542999	-0.911676
H182	H	1.486648	-0.209665	-0.578343
H183	H	1.819981	0.123668	-0.245009
H184	H	1.244898	-0.599024	-0.888705
H185	H	1.578231	-0.265691	-0.555372
H186	H	1.911564	0.067642	-0.222038
H187	H	1.210464	-0.509538	-0.833837
H188	H	1.543798	-0.176204	-0.500503
H189	H	1.877131	0.157129	-0.167170
O190	O	1.294637	-0.517766	-0.602122
O191	O	1.627971	-0.184433	-0.268789
O192	O	1.961304	0.148901	0.064545
C193	C	1.342341	-0.565505	-0.650317
C194	C	1.675674	-0.232172	-0.316984
C195	C	2.009008	0.101162	0.016349
H196	H	1.347578	-0.534875	-0.702720
H197	H	1.680912	-0.201542	-0.369387
H198	H	2.014245	0.131791	-0.036054
H199	H	1.404881	-0.573147	-0.629084
H200	H	1.738214	-0.239814	-0.295751
H201	H	2.071548	0.093519	0.037583
H202	H	1.313140	-0.627094	-0.658119
H203	H	1.646473	-0.293760	-0.324786
H204	H	1.979806	0.039573	0.008548
O205	O	1.301236	-0.524298	-0.747027
O206	O	1.634569	-0.190965	-0.413694
O207	O	1.967902	0.142368	-0.080360
C208	C	1.293536	-0.516585	-0.819785
C209	C	1.626870	-0.183252	-0.486452
C210	C	1.960203	0.150081	-0.153118
H211	H	1.267626	-0.454817	-0.829836
H212	H	1.600959	-0.121484	-0.496502
H213	H	1.934292	0.211850	-0.163169
H214	H	1.355222	-0.523341	-0.847727
H215	H	1.688555	-0.190007	-0.514394
H216	H	2.021888	0.143326	-0.181060
H217	H	1.251538	-0.565361	-0.840626
H218	H	1.584871	-0.232027	-0.507293
H219	H	1.918204	0.101306	-0.173960
