data_functionalizedCrystal
_audit_creation_method	'MofGen! by Chris Wilmer'
_symmetry_space_group_name_H-M	'P1'
_symmetry_Int_Tables_number	1
_symmetry_cell_setting	triclinic
loop_
_symmetry_equiv_pos_as_xyz
  x,y,z
_cell_length_a	10.540539
_cell_length_b	10.489741
_cell_length_c	9.016244
_cell_angle_alpha	89.998079
_cell_angle_beta	89.994699
_cell_angle_gamma	84.532333
loop_
_atom_site_label
_atom_site_type_symbol
_atom_site_fract_x
_atom_site_fract_y
_atom_site_fract_z
O1	O	1.685915	0.179759	-0.123270
O2	O	1.316504	0.196697	-0.123288
O3	O	1.509615	0.002629	-0.123269
O4	O	1.492803	0.373827	-0.123288
O5	O	1.509586	0.002634	0.123411
O6	O	1.316475	0.196701	0.123393
O7	O	1.685886	0.179764	0.123411
Cu8	Cu	1.501178	0.188233	0.145926
Cu9	Cu	1.501212	0.188228	-0.145803
O10	O	1.492775	0.373831	0.123393
C11	C	1.269186	0.195429	0.000050
C12	C	1.128238	0.191629	0.000044
C13	C	0.944793	0.046011	0.000627
C14	C	1.091412	0.049864	0.000055
C15	C	1.066589	0.259849	-0.140821
C16	C	0.920044	0.255011	-0.140924
C17	C	0.919524	0.257900	0.139598
C18	C	1.066506	0.259206	0.141445
C19	C	1.508331	-0.044900	0.000070
C20	C	1.504532	-0.186529	0.000067
C21	C	1.381661	-0.254654	0.000050
C22	C	1.439690	-0.346782	0.121680
C23	C	1.439747	-0.346761	-0.121528
C24	C	1.562612	-0.276791	0.121797
C25	C	1.562652	-0.276760	-0.121520
C26	C	1.620770	-0.368860	0.000139
C27	C	1.733203	0.181032	0.000070
C28	C	1.874152	0.184832	0.000067
C29	C	1.494059	0.421361	0.000050
C30	C	1.497858	0.562990	0.000043
N31	N	1.501164	0.188236	0.351112
N32	N	1.501236	0.188215	-0.350989
C33	C	1.397545	0.291701	0.586135
C34	C	1.397774	0.292088	0.414244
C35	C	1.633890	0.218515	0.413455
C36	C	1.633325	0.219248	0.585400
C37	C	1.473374	0.054153	0.585661
C38	C	1.470329	0.055022	0.413706
H39	H	0.891840	0.204586	-0.246216
C40	C	1.452129	-0.472224	0.344875
C41	C	1.369497	-0.388649	0.260486
H42	H	1.408789	-0.498060	0.430567
H43	H	1.479783	-0.545415	0.287202
H44	H	1.523845	-0.429865	0.374109
H45	H	1.297785	-0.431012	0.231242
H46	H	1.341825	-0.315446	0.318170
C47	C	1.821261	-0.400301	0.127689
C48	C	1.757264	-0.435614	0.000233
H49	H	1.905521	-0.441522	0.127754
H50	H	1.824406	-0.310112	0.128498
H51	H	1.777266	-0.425341	0.213258
H52	H	1.801254	-0.410565	-0.085336
H53	H	1.754125	-0.525823	-0.000589
H54	H	0.872088	0.356966	-0.147322
H55	H	0.887960	0.212023	0.246373
C56	C	0.982894	0.480852	-0.145984
C57	C	1.096783	0.400391	-0.147920
H58	H	1.001540	0.567615	-0.150356
H59	H	0.932314	0.462440	-0.229049
H60	H	0.937601	0.467081	-0.057218
H61	H	1.142072	0.414155	-0.236692
H62	H	1.147384	0.418811	-0.064847
C63	C	1.568284	-0.269782	-0.387583
C64	C	1.632790	-0.234844	-0.260331
H65	H	1.611575	-0.243893	-0.473286
H66	H	1.565709	-0.360038	-0.389077
H67	H	1.483824	-0.229090	-0.386697
H68	H	1.717248	-0.275544	-0.261212
H69	H	1.635379	-0.144572	-0.258838
H70	H	0.916190	-0.009992	0.101649
H71	H	1.387754	-0.377720	-0.224366
C72	C	1.635586	-0.102010	0.259561
C73	C	1.632713	-0.235186	0.260775
H74	H	1.678852	-0.076325	0.345366
H75	H	1.678954	-0.077491	0.173312
H76	H	1.550894	-0.061896	0.259205
H77	H	1.717405	-0.275301	0.261120
H78	H	1.589346	-0.259717	0.347047
C79	C	1.231624	0.400914	0.161598
C80	C	1.099214	0.398739	0.152912
H81	H	1.251813	0.487061	0.168657
H82	H	1.262741	0.354701	0.246781
H83	H	1.270115	0.362471	0.075231
H84	H	1.060723	0.437174	0.239285
H85	H	1.068083	0.444970	0.067720
H86	H	1.134008	-0.003815	0.101034
C87	C	1.235124	0.146222	0.595495
C88	C	1.263995	0.267493	0.642024
H89	H	1.152678	0.131274	0.630017
H90	H	1.236769	0.142380	0.490254
H91	H	1.296338	0.082767	0.634682
H92	H	1.202786	0.330949	0.602827
H93	H	1.262340	0.271347	0.747286
C94	C	1.157633	-0.279860	0.001606
C95	C	1.245286	-0.187604	0.000206
H96	H	1.073445	-0.238463	0.001718
H97	H	1.169684	-0.332405	-0.083985
H98	H	1.170314	-0.331264	0.088054
H99	H	1.232612	-0.136205	-0.086247
H100	H	1.233230	-0.135037	0.085807
C101	C	1.686227	0.428987	0.517066
C102	C	1.666204	0.351286	0.639526
H103	H	1.706515	0.510507	0.550479
H104	H	1.754664	0.390122	0.459255
H105	H	1.611069	0.439046	0.458426
H106	H	1.741365	0.341220	0.698161
H107	H	1.597761	0.390161	0.697361
H108	H	0.872309	0.360296	0.140545
H109	H	1.299155	0.273869	0.372096
H110	H	1.415685	0.391551	0.373093
H111	H	1.415223	0.390600	0.629324
C112	C	1.805230	0.062445	0.520307
C113	C	1.740681	0.121438	0.641558
H114	H	1.871507	0.002066	0.554975
H115	H	1.747265	0.019809	0.461966
H116	H	1.840712	0.125454	0.461763
H117	H	1.705190	0.058430	0.700096
H118	H	1.798655	0.164074	0.699923
H119	H	1.372688	0.032071	0.372961
C120	C	1.639182	-0.108598	0.518649
C121	C	1.575423	-0.049836	0.640555
H122	H	1.702189	-0.172782	0.552548
H123	H	1.579845	-0.146583	0.457433
H124	H	1.678772	-0.046278	0.463305
H125	H	1.535825	-0.112154	0.695893
H126	H	1.634769	-0.011850	0.701796
C127	C	1.011061	-0.066844	-0.222119
C128	C	0.904022	-0.029288	-0.134974
H129	H	0.985886	-0.113332	-0.305829
H130	H	1.048933	0.006917	-0.254516
H131	H	1.070948	-0.119605	-0.165114
H132	H	0.844138	0.023482	-0.191975
H133	H	0.866130	-0.103059	-0.102578
C134	C	1.027282	0.147997	-0.366048
C135	C	1.124080	0.195890	-0.282354
H136	H	1.062777	0.108519	-0.453427
H137	H	0.987722	0.086709	-0.309068
H138	H	0.965712	0.216292	-0.392429
H139	H	1.185646	0.127593	-0.255964
H140	H	1.163660	0.257183	-0.339346
H141	H	1.712937	0.145199	0.372558
C142	C	1.066161	0.252824	0.407644
C143	C	1.121754	0.191919	0.282135
H144	H	1.100270	0.211275	0.494496
H145	H	1.083943	0.339901	0.408528
H146	H	0.976566	0.248579	0.405036
H147	H	1.211348	0.196173	0.284738
H148	H	1.103981	0.104820	0.281252
H149	H	1.658800	0.315217	0.370374
H150	H	1.378633	0.025335	0.629105
H151	H	1.540846	-0.025687	0.370738
H152	H	1.133163	-0.004197	-0.101092
