data_functionalizedCrystal
_audit_creation_method	'MofGen! by Chris Wilmer'
_symmetry_space_group_name_H-M	'P1'
_symmetry_Int_Tables_number	1
_symmetry_cell_setting	triclinic
loop_
_symmetry_equiv_pos_as_xyz
  x,y,z
_cell_length_a	13.032831
_cell_length_b	18.050589
_cell_length_c	13.032268
_cell_angle_alpha	97.149417
_cell_angle_beta	90.886977
_cell_angle_gamma	82.833186
loop_
_atom_site_label
_atom_site_type_symbol
_atom_site_fract_x
_atom_site_fract_y
_atom_site_fract_z
Zn1	Zn	1.498351	-0.501530	-0.780835
Zn2	Zn	1.520065	-0.612177	-0.608855
Zn3	Zn	1.348217	-0.470507	-0.587076
Zn4	Zn	1.326314	-0.608161	-0.758980
O5	O	1.423237	-0.548094	-0.683937
O6	O	1.645148	-0.530872	-0.776283
O7	O	1.515523	-0.582081	-0.462049
O8	O	1.368212	-0.370708	-0.612810
O9	O	1.661101	-0.612163	-0.649930
O10	O	1.478515	-0.393501	-0.755164
O11	O	1.389267	-0.477997	-0.446048
O12	O	1.201395	-0.474104	-0.591619
O13	O	1.330881	-0.605320	-0.905796
O14	O	1.185303	-0.575238	-0.717916
O15	O	1.457276	-0.526978	-0.921853
O16	O	1.494284	-0.715559	-0.628738
O17	O	1.351936	-0.712609	-0.739034
C18	C	1.156033	-0.520869	-0.650033
C19	C	1.041718	-0.509242	-0.635553
C20	C	0.982831	-0.554162	-0.691494
C21	C	0.864681	-0.542146	-0.676530
C22	C	1.423115	-0.741032	-0.683904
C23	C	1.423152	-0.823584	-0.683936
C24	C	1.345814	-1.021463	-0.743900
C25	C	1.332669	-1.060964	-0.646879
C26	C	1.423252	-0.974726	-0.683962
C27	C	1.436446	-1.082312	-0.781001
C28	C	1.423345	-1.120722	-0.683996
C29	C	1.410063	-1.013131	-0.586886
C30	C	1.513876	-1.034484	-0.721076
C31	C	1.500775	-1.073962	-0.623995
C32	C	1.423195	-0.890621	-0.683944
C33	C	1.423402	-1.204825	-0.684003
C34	C	1.691484	-0.575426	-0.717973
C35	C	1.805795	-0.587073	-0.732478
C36	C	1.389213	-0.569162	-0.952184
C37	C	1.374714	-0.578139	-1.066495
C38	C	1.423384	-0.354407	-0.683996
C39	C	1.423447	-0.271869	-0.684021
C40	C	1.430788	-0.543380	-1.125403
C41	C	1.415804	-0.552658	-1.243549
C42	C	1.457187	-0.527061	-0.416741
C43	C	1.471885	-0.517894	-0.302456
H44	H	1.004664	-0.461885	-0.576587
C45	C	1.509460	-0.494408	-1.076069
C46	C	1.483830	-0.420681	-1.099283
C47	C	1.556273	-0.375544	-1.053845
H48	H	1.576385	-0.513587	-1.102346
H49	H	1.509047	-0.494612	-1.003212
H50	H	1.484254	-0.420479	-1.172125
H51	H	1.416918	-0.401479	-1.073005
H52	H	1.555861	-0.375749	-0.980988
H53	H	1.623194	-0.394730	-1.080126
H54	H	1.538888	-0.325514	-1.069582
C55	C	1.337087	-0.601503	-1.293114
C56	C	1.337902	-0.601018	-1.400447
C57	C	1.265415	-0.646013	-1.446142
H58	H	1.270146	-0.582283	-1.266915
H59	H	1.354319	-0.651583	-1.277514
H60	H	1.320663	-0.550948	-1.416039
H61	H	1.404825	-0.620244	-1.426675
H62	H	1.282648	-0.696093	-1.430542
H63	H	1.198479	-0.626789	-1.419936
H64	H	1.265965	-0.645695	-1.518973
H65	H	1.280253	-0.998449	-0.794494
C66	C	1.395063	-0.973024	-0.477513
C67	C	1.395118	-0.895581	-0.478782
C68	C	1.381285	-0.858608	-0.378053
H69	H	1.449772	-0.991312	-0.434777
H70	H	1.330916	-0.982178	-0.451065
H71	H	1.459258	-0.886432	-0.505216
H72	H	1.340411	-0.877272	-0.521497
H73	H	1.317137	-0.867762	-0.351605
H74	H	1.435996	-0.876902	-0.335325
H75	H	1.381311	-0.806059	-0.378901
C76	C	1.550560	-0.468912	-1.253142
C77	C	1.524915	-0.395190	-1.276373
C78	C	1.597356	-0.350043	-1.230957
H79	H	1.617484	-0.488089	-1.279425
H80	H	1.550158	-0.469107	-1.180284
H81	H	1.525328	-0.394998	-1.349217
H82	H	1.458004	-0.375990	-1.250089
H83	H	1.596954	-0.350238	-1.158098
H84	H	1.664275	-0.369227	-1.257244
H85	H	1.579961	-0.300017	-1.246704
H86	H	1.256073	-1.072993	-0.615515
C87	C	1.588043	-1.104386	-0.556164
C88	C	1.573776	-1.068854	-0.454726
C89	C	1.654134	-1.096870	-0.392206
H90	H	1.652317	-1.094807	-0.581790
H91	H	1.587944	-1.157076	-0.556925
H92	H	1.573886	-1.016177	-0.453970
H93	H	1.509519	-1.078430	-0.429069
H94	H	1.654035	-1.149559	-0.392967
H95	H	1.718402	-1.087289	-0.417842
H96	H	1.644460	-1.072771	-0.323372
C97	C	1.615913	-1.018495	-0.763155
C98	C	1.629269	-1.053782	-0.864805
C99	C	1.723245	-1.039061	-0.903619
H100	H	1.671133	-1.037319	-0.721406
H101	H	1.615373	-0.965741	-0.762298
H102	H	1.629819	-1.106525	-0.865656
H103	H	1.574073	-1.034964	-0.906580
H104	H	1.722704	-0.986307	-0.902761
H105	H	1.778456	-1.057885	-0.861862
H106	H	1.732315	-1.062995	-0.972594
C107	C	1.032352	-0.617204	-0.770204
C108	C	1.085712	-0.586644	-0.843965
C109	C	1.131352	-0.644696	-0.916482
H110	H	0.980193	-0.643866	-0.803474
H111	H	1.079295	-0.650646	-0.736088
H112	H	1.038773	-0.553214	-0.878078
H113	H	1.137886	-0.559987	-0.810726
H114	H	1.178294	-0.678139	-0.882366
H115	H	1.079186	-0.671355	-0.949744
H116	H	1.167569	-0.623970	-0.966532
H117	H	1.447571	-1.112369	-0.863052
C118	C	1.295984	-0.627098	-1.115738
C119	C	1.321592	-0.700815	-1.092478
C120	C	1.249080	-0.745936	-1.137807
H121	H	1.296318	-0.626939	-1.188592
H122	H	1.229088	-0.607863	-1.089393
H123	H	1.388470	-0.720045	-1.118828
H124	H	1.321251	-0.700997	-1.019633
H125	H	1.182184	-0.726701	-1.111462
H126	H	1.249419	-0.745771	-1.210659
H127	H	1.266439	-0.795956	-1.122024
H128	H	0.842843	-0.634426	-0.791459
C129	C	0.815101	-0.479073	-0.597894
C130	C	0.707776	-0.479715	-0.598651
C131	C	0.662070	-0.421634	-0.526213
H132	H	0.830640	-0.432105	-0.615177
H133	H	0.841353	-0.486216	-0.530948
H134	H	0.681533	-0.472565	-0.665582
H135	H	0.692208	-0.526669	-0.581357
H136	H	0.688321	-0.428778	-0.459267
H137	H	0.677616	-0.374670	-0.543503
H138	H	0.589246	-0.422066	-0.526710
