data_functionalizedCrystal
_audit_creation_method	'MofGen! by Chris Wilmer'
_symmetry_space_group_name_H-M	'P1'
_symmetry_Int_Tables_number	1
_symmetry_cell_setting	triclinic
loop_
_symmetry_equiv_pos_as_xyz
  x,y,z
_cell_length_a	14.044191
_cell_length_b	16.109301
_cell_length_c	14.586319
_cell_angle_alpha	89.998390
_cell_angle_beta	89.996225
_cell_angle_gamma	88.326629
loop_
_atom_site_label
_atom_site_type_symbol
_atom_site_fract_x
_atom_site_fract_y
_atom_site_fract_z
O1	O	-1.257649	-0.200459	0.076201
O2	O	-0.981682	-0.193220	0.076213
O3	O	-1.127246	-0.076373	0.076197
O4	O	-1.112084	-0.317306	0.076217
O5	O	-1.127229	-0.076379	-0.076283
O6	O	-0.981664	-0.193226	-0.076268
O7	O	-1.257631	-0.200465	-0.076279
Cu8	Cu	-1.119646	-0.196846	-0.090196
Cu9	Cu	-1.119667	-0.196839	0.090130
O10	O	-1.112067	-0.317313	-0.076264
C11	C	-0.946359	-0.190056	-0.000026
C12	C	-0.841136	-0.180610	-0.000022
C13	C	-1.292954	-0.203629	-0.000038
C14	C	-1.398177	-0.213075	-0.000036
C15	C	-1.126623	-0.045355	-0.000043
C16	C	-1.124782	0.047077	-0.000045
C17	C	-0.590834	-0.230335	-0.000027
C18	C	-0.648484	-0.163354	-0.000031
C19	C	-0.755686	-0.172958	-0.000026
C20	C	-0.483623	-0.220733	-0.000032
N21	N	-1.119638	-0.196852	-0.217028
C22	C	-1.112690	-0.348330	-0.000021
C23	C	-1.114531	-0.440762	-0.000014
C24	C	-1.206876	0.263240	-0.000034
C25	C	-1.205138	0.350089	-0.000026
C26	C	-1.032431	0.343068	-0.000022
C27	C	-1.034169	0.256220	-0.000023
C28	C	-1.121395	0.216308	-0.000034
C29	C	-1.117918	0.390006	-0.000025
C30	C	-1.116034	0.484173	-0.000017
C31	C	-1.123280	0.122136	-0.000040
C32	C	-1.177124	-0.251558	-0.452033
C33	C	-1.177134	-0.251553	-0.548014
C34	C	-1.062195	-0.142115	-0.548027
C35	C	-1.062190	-0.142117	-0.452048
C36	C	-1.119653	-0.196843	-0.404053
C37	C	-1.119667	-0.196836	-0.596014
C38	C	-1.119678	-0.196831	-0.700081
C39	C	-1.119645	-0.196848	-0.299979
N40	N	-1.119682	-0.196828	0.216962
H41	H	-0.617329	-0.098797	0.000028
C42	C	-0.632922	-0.317543	-0.000011
N43	N	-0.664634	-0.383227	0.000005
C44	C	-0.998964	-0.081923	-0.399267
N45	N	-0.951345	-0.036586	-0.359512
H46	H	-1.277900	0.230746	-0.000040
C47	C	-0.936488	0.386980	-0.000029
N48	N	-0.864221	0.420053	-0.000041
C49	C	-0.940128	0.204593	-0.000019
N50	N	-0.869299	0.165707	-0.000012
C51	C	-1.299175	0.401710	-0.000034
N52	N	-1.370007	0.440591	-0.000042
H53	H	-1.223914	-0.296120	-0.412958
C54	C	-1.240339	-0.311758	-0.600788
N55	N	-1.287943	-0.357111	-0.640536
C56	C	-0.998979	-0.081927	-0.600830
N57	N	-0.951359	-0.036596	-0.640601
