data_functionalizedCrystal
_audit_creation_method	'MofGen! by Chris Wilmer'
_symmetry_space_group_name_H-M	'P1'
_symmetry_Int_Tables_number	1
_symmetry_cell_setting	triclinic
loop_
_symmetry_equiv_pos_as_xyz
  x,y,z
_cell_length_a	12.837943
_cell_length_b	14.044220
_cell_length_c	11.295483
_cell_angle_alpha	94.468632
_cell_angle_beta	85.461227
_cell_angle_gamma	94.008909
loop_
_atom_site_label
_atom_site_type_symbol
_atom_site_fract_x
_atom_site_fract_y
_atom_site_fract_z
O1	O	1.404877	0.242691	-0.099010
O2	O	1.101936	0.230415	-0.099017
O3	O	1.248859	0.098158	-0.099002
O4	O	1.257954	0.374947	-0.099025
O5	O	1.235952	0.109755	0.099047
O6	O	1.089030	0.242012	0.099032
O7	O	1.391970	0.254287	0.099039
Cu8	Cu	1.239322	0.249208	0.117119
Cu9	Cu	1.254585	0.235494	-0.117097
O10	O	1.245048	0.386544	0.099024
C11	C	1.056479	0.232067	0.000007
C12	C	0.940259	0.219699	0.000005
C13	C	0.713048	0.368378	0.000009
C14	C	0.603848	0.356763	0.000008
C15	C	0.612656	0.184853	0.000010
C16	C	0.721856	0.196469	0.000011
C17	C	0.772048	0.288234	0.000009
C18	C	0.881251	0.299849	0.000002
C19	C	0.890056	0.127940	0.000012
C20	C	0.780856	0.116324	0.000011
C21	C	1.238424	0.068282	0.000023
C22	C	1.226550	-0.038016	0.000024
C23	C	1.204843	-0.232639	0.000007
C24	C	1.289060	-0.282665	0.000005
C25	C	1.276982	-0.390961	-0.000005
C26	C	1.216919	-0.124334	0.000016
C27	C	1.437428	0.252635	0.000012
C28	C	1.553649	0.265002	0.000007
C29	C	1.255482	0.416420	-0.000004
C30	C	1.267357	0.522717	-0.000013
N31	N	1.228594	0.258854	0.281854
N32	N	1.265320	0.225841	-0.281832
C33	C	1.342540	0.156351	0.531156
C34	C	1.334441	0.163648	0.655818
C35	C	1.204292	0.280740	0.655845
C36	C	1.212391	0.273443	0.531182
C37	C	1.281518	0.211247	0.468842
C38	C	1.289622	0.203956	0.344177
C39	C	1.159469	0.321042	0.344206
C40	C	1.151370	0.328339	0.468869
H41	H	0.753915	0.443098	0.000006
O42	O	1.385943	-0.236835	0.000181
C43	C	1.543591	-0.204771	0.102854
C44	C	1.433910	-0.256748	0.102782
H45	H	1.582396	-0.220835	0.185810
H46	H	1.593359	-0.230576	0.020032
H47	H	1.536184	-0.124355	0.102806
H48	H	1.441218	-0.337171	0.102871
H49	H	1.384183	-0.230865	0.185596
H50	H	0.739974	0.041612	0.000026
H51	H	1.123677	-0.271140	0.000002
H52	H	0.555814	0.422025	0.000012
H53	H	1.109784	0.365746	0.293456
O54	O	0.563727	0.095784	-0.000027
C55	C	0.399388	0.001719	0.000079
C56	C	0.454668	0.102641	0.000088
H57	H	0.311204	0.007230	0.000198
H58	H	0.428341	-0.043266	-0.082820
H59	H	0.417698	-0.033522	0.082947
H60	H	0.436383	0.137965	-0.082723
H61	H	0.425710	0.147556	0.083043
O62	O	0.947490	0.050144	-0.000149
C63	C	1.082522	-0.042549	-0.102805
C64	C	1.017570	0.045597	-0.102748
H65	H	1.139181	-0.046265	-0.185760
H66	H	1.128547	-0.036575	-0.019982
H67	H	1.027860	-0.110109	-0.102747
H68	H	1.072157	0.113200	-0.102848
H69	H	0.971533	0.039539	-0.185564
H70	H	1.345912	0.153316	0.293420
O71	O	1.409709	0.095864	0.470776
C72	C	1.538003	-0.019451	0.483900
C73	C	1.461957	0.048995	0.552426
H74	H	1.580282	-0.057348	0.549885
H75	H	1.492296	-0.074779	0.425582
H76	H	1.597785	0.023161	0.425489
H77	H	1.402159	0.006463	0.610902
H78	H	1.507734	0.104324	0.610669
H79	H	0.922115	0.374569	0.000002
O80	O	1.136989	0.341029	0.716367
C81	C	0.957920	0.382773	0.754514
C82	C	1.034026	0.314420	0.685917
H83	H	0.874661	0.361298	0.729902
H84	H	0.962524	0.378537	0.854329
H85	H	0.980252	0.459141	0.730033
H86	H	1.011745	0.238023	0.710299
H87	H	1.029409	0.318740	0.586118
H88	H	1.384129	0.118944	0.706551
H89	H	1.095084	0.378975	0.519641
