data_functionalizedCrystal
_audit_creation_method	'MofGen! by Chris Wilmer'
_symmetry_space_group_name_H-M	'P1'
_symmetry_Int_Tables_number	1
_symmetry_cell_setting	triclinic
loop_
_symmetry_equiv_pos_as_xyz
  x,y,z
_cell_length_a	12.827892
_cell_length_b	17.077404
_cell_length_c	17.077395
_cell_angle_alpha	89.984161
_cell_angle_beta	90.023617
_cell_angle_gamma	89.987540
loop_
_atom_site_label
_atom_site_type_symbol
_atom_site_fract_x
_atom_site_fract_y
_atom_site_fract_z
Zn1	Zn	-0.416128	-1.200066	0.443867
Zn2	Zn	-0.590886	-1.199999	0.312609
Zn3	Zn	-0.416151	-1.068806	0.312614
Zn4	Zn	-0.590819	-1.068783	0.443832
O5	O	-0.503496	-1.134413	0.378230
O6	O	-0.439329	-1.309904	0.426467
O7	O	-0.567745	-1.182578	0.202762
O8	O	-0.269912	-1.086256	0.330042
O9	O	-0.567723	-1.309854	0.330033
O10	O	-0.269895	-1.182692	0.426472
O11	O	-0.439368	-1.086191	0.202766
O12	O	-0.439302	-0.958956	0.330008
O13	O	-0.567607	-1.086216	0.553683
O14	O	-0.567630	-0.958939	0.426413
O15	O	-0.439263	-1.182669	0.553709
O16	O	-0.737113	-1.182555	0.329999
O17	O	-0.737064	-1.086151	0.426408
C18	C	-0.503462	-0.930465	0.378208
C19	C	-0.503473	-0.843216	0.378217
C20	C	-0.436736	-0.802252	0.428506
C21	C	-0.436741	-0.720271	0.428508
C22	C	-0.503489	-0.679256	0.378224
C23	C	-0.570229	-0.720226	0.327929
C24	C	-0.570218	-0.802205	0.327924
C25	C	-0.570249	-0.549356	0.327945
C26	C	-0.570262	-0.467371	0.327950
C27	C	-0.436772	-0.467422	0.428528
C28	C	-0.436761	-0.549401	0.428523
C29	C	-0.503502	-0.590365	0.378229
C30	C	-0.775006	-1.134364	0.378216
C31	C	-0.891159	-1.134415	0.378237
C32	C	-0.942934	-1.182175	0.330583
C33	C	-1.062984	-1.182229	0.330603
C34	C	-0.230926	-1.134484	0.378261
C35	C	-0.114773	-1.134514	0.378275
C36	C	-0.503425	-1.134447	0.582975
C37	C	-0.503395	-1.134461	0.670224
C38	C	-0.503525	-0.339158	0.378247
C39	C	-0.503525	-0.426407	0.378240
C40	C	-0.503491	-1.134425	0.174282
C41	C	-0.503227	-1.134563	0.087033
C42	C	-0.436424	-1.184771	1.046054
C43	C	-0.436460	-1.184755	0.964073
C44	C	-0.503296	-1.134526	0.923074
C45	C	-0.570106	-1.084315	0.964059
C46	C	-0.570074	-1.084335	1.046038
C47	C	-0.570167	-1.084274	0.793189
C48	C	-0.570198	-1.084252	0.711204
C49	C	-0.436553	-1.184694	0.711224
C50	C	-0.436521	-1.184715	0.793203
C51	C	-0.503330	-1.134502	0.834182
H52	H	-0.382399	-0.686922	0.469460
O53	O	-0.634918	-1.035458	0.833083
C54	C	-0.575385	-0.984776	0.880490
H55	H	-0.496195	-1.012491	0.892779
H56	H	-0.563898	-0.926601	0.848893
C57	C	-0.730109	-0.936520	0.943262
C58	C	-0.632849	-0.970563	0.958362
H59	H	-0.765557	-0.927749	0.991296
H60	H	-0.770219	-0.970663	0.911321
H61	H	-0.720522	-0.888044	0.916930
H62	H	-0.642438	-1.019042	0.984684
H63	H	-0.592743	-0.936428	0.990309
O64	O	-1.061784	-1.085769	0.427061
C65	C	-1.088273	-1.102883	0.505336
H66	H	-1.167514	-1.133038	0.507057
H67	H	-1.026801	-1.143239	0.531758
C68	C	-0.995881	-0.989290	0.550707
C69	C	-1.093211	-1.026322	0.552822
H70	H	-0.998923	-0.942065	0.580000
H71	H	-0.978031	-0.977761	0.497972
H72	H	-0.944665	-1.022929	0.572724
H73	H	-1.144422	-0.992687	0.530796
H74	H	-1.111069	-1.037843	0.605554
O75	O	-0.371899	-0.427756	0.477454
C76	C	-0.312969	-0.481536	0.521824
H77	H	-0.355774	-0.539968	0.524484
H78	H	-0.233552	-0.490256	0.493181
C79	C	-0.245481	-0.377802	0.602122
C80	C	-0.298060	-0.449568	0.605395
H81	H	-0.236279	-0.358081	0.653671
H82	H	-0.285180	-0.341568	0.572228
H83	H	-0.179306	-0.385078	0.578249
H84	H	-0.364238	-0.442288	0.629258
H85	H	-0.258372	-0.485799	0.635295
H86	H	-0.382384	-0.835640	0.469455
O87	O	-0.371642	-1.233603	1.085964
C88	C	-0.431131	-1.284310	1.133366
H89	H	-0.510314	-1.256604	1.145641
H90	H	-0.442640	-1.342470	1.101773
C91	C	-0.276351	-1.332587	1.196166
C92	C	-0.373601	-1.298556	1.211248
H93	H	-0.240863	-1.341378	1.244206
H94	H	-0.236271	-1.298427	1.164228
H95	H	-0.285955	-1.381050	1.169836
H96	H	-0.363995	-1.250089	1.237568
H97	H	-0.413678	-1.332708	1.243192
O98	O	-0.635104	-0.680507	0.279010
C99	C	-0.694025	-0.734246	0.234636
H100	H	-0.651206	-0.792685	0.231966
H101	H	-0.773437	-0.742971	0.263282
C102	C	-0.761545	-0.630443	0.154356
C103	C	-0.708949	-0.702217	0.151071
H104	H	-0.770756	-0.610686	0.102810
H105	H	-0.721852	-0.594238	0.184253
H106	H	-0.827716	-0.637724	0.178231
H107	H	-0.642775	-0.694934	0.127205
H108	H	-0.748631	-0.738421	0.121168
H109	H	-0.624561	-0.835556	0.286973
O110	O	-0.889747	-1.230798	0.281808
C111	C	-0.826681	-1.186068	0.231115
H112	H	-0.859711	-1.124284	0.226192
H113	H	-0.743985	-1.183254	0.255428
C114	C	-0.784313	-1.300351	0.155594
C115	C	-0.824886	-1.224469	0.149543
H116	H	-0.783202	-1.324039	0.105277
H117	H	-0.826799	-1.330488	0.189749
H118	H	-0.715404	-1.297996	0.175858
H119	H	-0.893799	-1.226826	0.129289
H120	H	-0.782412	-1.194333	0.115383
O121	O	-0.635077	-1.035673	1.085883
C122	C	-0.702546	-1.080359	1.133310
H123	H	-0.709022	-1.142174	1.108605
H124	H	-0.670214	-1.083088	1.195444
C125	C	-0.803221	-0.966057	1.164902
C126	C	-0.811181	-1.041978	1.134554
H127	H	-0.870231	-0.942381	1.165673
H128	H	-0.757764	-0.935951	1.132951
H129	H	-0.776273	-0.968342	1.216677
H130	H	-0.838116	-1.039692	1.082777
H131	H	-0.856646	-1.072084	1.166496
O132	O	-0.371466	-1.233551	0.924387
C133	C	-0.312483	-1.277899	0.978154
H134	H	-0.308836	-1.245760	1.036589
H135	H	-0.350756	-1.337509	0.986873
C136	C	-0.205756	-1.328708	0.874397
C137	C	-0.201269	-1.289230	0.946167
H138	H	-0.137155	-1.335701	0.854666
H139	H	-0.245496	-1.298833	0.838173
H140	H	-0.237655	-1.378378	0.881674
H141	H	-0.169383	-1.239558	0.938888
H142	H	-0.161521	-1.319098	0.982389
H143	H	-0.935709	-1.093568	0.419052
O144	O	-0.371875	-0.589332	0.477260
C145	C	-0.304283	-0.636729	0.432650
H146	H	-0.341035	-0.648980	0.373112
H147	H	-0.226826	-0.605143	0.424130
C148	C	-0.240297	-0.699575	0.548978
C149	C	-0.285440	-0.714627	0.475855
H150	H	-0.228668	-0.747625	0.575630
H151	H	-0.285831	-0.667641	0.579034
H152	H	-0.175754	-0.673251	0.541868
H153	H	-0.349986	-0.740941	0.482966
H154	H	-0.239915	-0.746568	0.445801
O155	O	-0.635258	-1.035465	0.671497
C156	C	-0.694227	-0.991156	0.725243
H157	H	-0.697785	-1.023306	0.783691
H158	H	-0.655998	-0.931528	0.733941
C159	C	-0.801106	-0.940385	0.621462
C160	C	-0.805483	-0.979876	0.693248
H161	H	-0.869733	-0.933423	0.601726
H162	H	-0.761376	-0.970234	0.585252
H163	H	-0.769244	-0.890700	0.628720
H164	H	-0.837332	-1.029564	0.685987
H165	H	-0.845221	-0.950035	0.729457
H166	H	-0.382093	-1.225613	0.826583
O167	O	-0.635189	-1.035617	0.924263
C168	C	-0.739333	-1.052747	0.944301
H169	H	-0.744599	-1.115458	0.966848
H170	H	-0.766635	-1.010662	0.991875
C171	C	-0.802635	-0.966575	0.843773
C172	C	-0.809103	-1.043600	0.871460
H173	H	-0.845674	-0.960929	0.798843
H174	H	-0.732471	-0.955031	0.830274
H175	H	-0.825385	-0.931513	0.883425
H176	H	-0.786341	-1.078659	0.831812
H177	H	-0.879265	-1.055149	0.884951
H178	H	-0.624614	-0.433979	0.287005
H179	H	-0.624594	-0.582706	0.286988
H180	H	-1.107509	-1.223116	0.289803
H181	H	-0.382152	-1.225577	0.677854
