data_functionalizedCrystal
_audit_creation_method	'MofGen! by Chris Wilmer'
_symmetry_space_group_name_H-M	'P1'
_symmetry_Int_Tables_number	1
_symmetry_cell_setting	triclinic
loop_
_symmetry_equiv_pos_as_xyz
  x,y,z
_cell_length_a	27.731993
_cell_length_b	27.731996
_cell_length_c	14.185569
_cell_angle_alpha	76.953602
_cell_angle_beta	103.051260
_cell_angle_gamma	82.620891
loop_
_atom_site_label
_atom_site_type_symbol
_atom_site_fract_x
_atom_site_fract_y
_atom_site_fract_z
O1	O	0.629917	0.068404	-0.083168
O2	O	0.489110	0.077186	-0.083231
O3	O	0.563903	0.002392	-0.083176
O4	O	0.555125	0.143197	-0.083223
O5	O	0.585997	-0.019700	0.083675
O6	O	0.511205	0.055093	0.083619
O7	O	0.652012	0.046312	0.083683
Cu8	Cu	0.583626	0.048685	0.098886
Cu9	Cu	0.557496	0.074812	-0.098435
O10	O	0.577219	0.121105	0.083627
C11	C	0.482149	0.065960	0.000186
C12	C	0.428490	0.065421	0.000163
C13	C	0.574770	-0.026662	0.000253
C14	C	0.574229	-0.080319	0.000263
C15	C	0.033293	0.073526	-0.090737
C16	C	0.234947	0.075597	-0.090765
O17	O	0.250777	0.086087	-0.168117
N18	N	0.272210	0.063813	0.000183
C19	C	0.259059	0.051508	0.091145
O20	O	0.295381	0.041528	0.168501
C21	C	0.057407	0.049434	0.091172
C22	C	0.020144	0.061223	0.000218
C23	C	-0.003968	0.085314	-0.181684
C24	C	-0.054379	0.084799	-0.181676
C25	C	-0.067528	0.072496	-0.090721
C26	C	-0.030266	0.060708	0.000225
C27	C	0.044256	0.037125	0.182132
C28	C	-0.006161	0.036607	0.182131
C29	C	-0.043423	0.048396	0.091177
C30	C	-0.093826	0.047890	0.091188
N31	N	-0.131090	0.059674	0.000240
C32	C	-0.117941	0.071977	-0.090715
C33	C	0.364928	0.052599	0.091124
C34	C	0.415341	0.053118	0.091118
C35	C	0.391225	0.077206	-0.090792
C36	C	0.340811	0.076690	-0.090785
C37	C	0.327664	0.064382	0.000176
C38	C	-0.223806	0.070894	-0.090692
C39	C	-0.274220	0.070380	-0.090676
C40	C	-0.250100	0.046290	0.091234
C41	C	-0.199690	0.046806	0.091219
C42	C	-0.186545	0.059108	0.000248
O43	O	-0.109692	0.037400	0.168499
O44	O	-0.154269	0.081944	-0.168060
C45	C	0.083704	0.074041	-0.090745
C46	C	0.120965	0.062254	0.000202
C47	C	0.107816	0.049951	0.091156
C48	C	0.171378	0.062773	0.000195
C49	C	0.184527	0.075076	-0.090759
C50	C	0.147263	0.086859	-0.181708
C51	C	0.096853	0.086344	-0.181700
C52	C	0.145080	0.038167	0.182105
C53	C	0.195489	0.038684	0.182089
C54	C	0.208638	0.050987	0.091135
C55	C	0.558764	-0.400986	-0.090738
C56	C	0.556700	-0.602641	-0.090757
O57	O	0.546170	-0.618470	-0.168107
N58	N	0.568488	-0.639900	0.000193
C59	C	0.580789	-0.626743	0.091153
O60	O	0.590763	-0.663061	0.168511
C61	C	0.582849	-0.425088	0.091171
C62	C	0.571065	-0.387831	0.000215
C63	C	0.546981	-0.363730	-0.181686
C64	C	0.547499	-0.313319	-0.181681
C65	C	0.559801	-0.300165	-0.090727
C66	C	0.571584	-0.337421	0.000221
C67	C	0.595146	-0.411932	0.182130
C68	C	0.595659	-0.361513	0.182126
C69	C	0.583876	-0.324256	0.091171
C70	C	0.584404	-0.273856	0.091180
N71	N	0.572617	-0.236597	0.000230
C72	C	0.560315	-0.249751	-0.090723
C73	C	0.579708	-0.732615	0.091137
C74	C	0.579193	-0.783028	0.091133
C75	C	0.555104	-0.758922	-0.090777
C76	C	0.555622	-0.708508	-0.090772
C77	C	0.567920	-0.695355	0.000188
C78	C	0.561406	-0.143887	-0.090705
C79	C	0.561927	-0.093474	-0.090691
C80	C	0.586014	-0.117583	0.091219
C81	C	0.585495	-0.167993	0.091206
C82	C	0.573188	-0.181142	0.000236
O83	O	0.594924	-0.257990	0.168490
O84	O	0.550332	-0.213425	-0.168069
C85	C	0.558245	-0.451396	-0.090744
C86	C	0.570028	-0.488652	0.000204
C87	C	0.582330	-0.475498	0.091158
C88	C	0.569514	-0.539066	0.000200
C89	C	0.557212	-0.552220	-0.090754
C90	C	0.545425	-0.514961	-0.181703
C91	C	0.545944	-0.464550	-0.181697
C92	C	0.594117	-0.512757	0.182107
C93	C	0.593598	-0.563167	0.182094
C94	C	0.581297	-0.576321	0.091141
C95	C	0.658973	0.057537	0.000263
C96	C	0.712631	0.058077	0.000279
C97	C	0.566351	0.150159	0.000196
C98	C	0.566892	0.203818	0.000180
N99	N	0.602007	0.030309	0.237670
N100	N	0.539119	0.093184	-0.237219
C101	C	0.485114	0.147153	0.605234
C102	C	0.499041	0.133237	0.710266
C103	C	0.565283	0.067031	0.710276
C104	C	0.551360	0.080941	0.605242
C105	C	0.511276	0.121003	0.552729
C106	C	0.577522	0.054790	0.552737
C107	C	0.563602	0.068701	0.447712
C108	C	0.523520	0.108762	0.395192
C109	C	0.497356	0.134913	0.447704
C110	C	0.617609	0.014731	0.605252
C111	C	0.643770	-0.011420	0.552747
C112	C	0.629848	0.002488	0.447720
C113	C	0.589766	0.042549	0.395200
C114	C	0.656012	-0.023663	0.395208
C115	C	0.642091	-0.009753	0.290183
C116	C	0.575845	0.056460	0.290175
H117	H	-0.304559	0.079982	-0.164745
F118	F	0.599107	-0.103574	0.188013
F119	F	0.301158	0.089237	-0.187590
H120	H	0.597922	0.034414	0.753044
F121	F	0.549387	-0.053824	-0.187502
F122	F	0.010017	0.098408	-0.278499
H123	H	0.537902	-0.282988	-0.255746
H124	H	0.605667	-0.350807	0.256199
H125	H	0.628943	0.003409	0.690770
F126	F	0.533401	-0.424904	-0.278506
H127	H	-0.213110	0.080912	-0.164769
H128	H	0.401939	0.087225	-0.164851
H129	H	0.535411	-0.525679	-0.255761
H130	H	0.452470	0.179772	0.562476
H131	H	0.551382	-0.154586	-0.164781
H132	H	0.477734	0.154536	0.753010
F133	F	0.350943	0.039504	0.187944
F134	F	0.606144	-0.602815	0.278909
F135	F	0.598045	-0.207647	0.188010
H136	H	-0.084714	0.094397	-0.255740
H137	H	-0.260815	0.036275	0.165287
H138	H	0.074588	0.027524	0.256197
F139	F	0.454992	0.040580	0.187924
H140	H	0.663396	-0.031047	0.247433
F141	F	-0.020148	0.023504	0.278947
H142	H	0.512188	0.120088	0.309674
F143	F	0.607207	-0.498765	0.278918
F144	F	0.533886	-0.377720	-0.278500
F145	F	0.454688	0.177547	0.391814
H146	H	0.604742	-0.442259	0.256196
H147	H	0.676409	-0.044037	0.595515
H148	H	-0.169350	0.037216	0.165281
H149	H	0.066517	0.095944	-0.255764
H150	H	0.225826	0.029087	0.256161
F151	F	0.161266	0.099955	-0.278509
F152	F	0.698676	-0.066294	0.451107
H153	H	0.546026	-0.678176	-0.164836
F154	F	0.131093	0.025075	0.278917
H155	H	0.588796	-0.813361	0.165198
F156	F	0.542010	-0.772930	-0.187577
H157	H	0.543201	0.089078	0.247417
F158	F	0.592796	-0.718623	0.187956
