data_functionalizedCrystal
_audit_creation_method	'MofGen! by Chris Wilmer'
_symmetry_space_group_name_H-M	'P1'
_symmetry_Int_Tables_number	1
_symmetry_cell_setting	triclinic
loop_
_symmetry_equiv_pos_as_xyz
  x,y,z
_cell_length_a	21.295418
_cell_length_b	16.625547
_cell_length_c	16.625539
_cell_angle_alpha	90.017150
_cell_angle_beta	90.039782
_cell_angle_gamma	90.016959
loop_
_atom_site_label
_atom_site_type_symbol
_atom_site_fract_x
_atom_site_fract_y
_atom_site_fract_z
Zn1	Zn	0.962460	-0.320660	0.456385
Zn2	Zn	1.295793	0.012674	0.789719
Zn3	Zn	1.629126	0.346007	1.123052
Zn4	Zn	0.962423	-0.455503	0.321579
Zn5	Zn	1.295757	-0.122169	0.654912
Zn6	Zn	1.629090	0.211164	0.988246
Zn7	Zn	0.857190	-0.320725	0.321521
Zn8	Zn	1.190523	0.012608	0.654854
Zn9	Zn	1.523857	0.345942	0.988187
Zn10	Zn	0.857206	-0.455491	0.456324
Zn11	Zn	1.190539	-0.122158	0.789657
Zn12	Zn	1.523873	0.211176	1.122990
O13	O	0.909820	-0.388095	0.388952
O14	O	1.243153	-0.054761	0.722285
O15	O	1.576486	0.278572	1.055619
O16	O	1.050544	-0.338524	0.438553
O17	O	1.383877	-0.005191	0.771887
O18	O	1.717211	0.328142	1.105220
O19	O	0.948442	-0.437656	0.208739
O20	O	1.281775	-0.104323	0.542072
O21	O	1.615109	0.229010	0.875405
O22	O	0.871163	-0.207884	0.339412
O23	O	1.204496	0.125449	0.672746
O24	O	1.537829	0.458783	1.006079
O25	O	1.050517	-0.437593	0.339511
O26	O	1.383851	-0.104260	0.672845
O27	O	1.717184	0.229074	1.006178
O28	O	0.948504	-0.207836	0.438497
O29	O	1.281837	0.125497	0.771830
O30	O	1.615171	0.458831	1.105164
O31	O	0.871127	-0.338636	0.208696
O32	O	1.204461	-0.005303	0.542029
O33	O	1.537794	0.328031	0.875363
O34	O	0.769103	-0.338625	0.339352
O35	O	1.102436	-0.005291	0.672686
O36	O	1.435769	0.328042	1.006019
O37	O	0.871190	-0.437573	0.569164
O38	O	1.204523	-0.104240	0.902497
O39	O	1.537857	0.229093	1.235831
O40	O	0.769115	-0.437637	0.438391
O41	O	1.102448	-0.104303	0.771725
O42	O	1.435781	0.229030	1.105058
O43	O	0.948519	-0.338513	0.569210
O44	O	1.281853	-0.005180	0.902543
O45	O	1.615186	0.328154	1.235876
O46	O	0.948457	-0.568334	0.339451
O47	O	1.281791	-0.235000	0.672785
O48	O	1.615124	0.098333	1.006118
O49	O	0.871155	-0.568325	0.438448
O50	O	1.204488	-0.234992	0.771781
O51	O	1.537822	0.098342	1.105114
C52	C	0.746268	-0.388137	0.388859
C53	C	1.079601	-0.054804	0.722193
C54	C	1.412935	0.278530	1.055526
C55	C	0.676300	-0.388175	0.388839
C56	C	1.009633	-0.054841	0.722172
C57	C	1.342967	0.278492	1.055505
C58	C	0.909836	-0.177786	0.388955
C59	C	1.243169	0.155548	0.722288
C60	C	1.576502	0.488881	1.055622
C61	C	0.909842	-0.088165	0.388956
C62	C	1.243176	0.245169	0.722290
C63	C	1.576509	0.578502	1.055623
C64	C	0.909821	-0.597585	0.388967
C65	C	1.243154	-0.264252	0.722300
C66	C	1.576488	0.069081	1.055633
C67	C	0.909879	-0.687207	0.389000
C68	C	1.243213	-0.353873	0.722333
C69	C	1.576546	-0.020540	1.055667
C70	C	0.643456	-0.439798	0.440331
C71	C	0.976789	-0.106465	0.773665
C72	C	1.310123	0.226868	1.106998
C73	C	0.577713	-0.439779	0.440367
C74	C	0.911047	-0.106445	0.773701
C75	C	1.244380	0.226888	1.107034
C76	C	0.544817	-0.388143	0.388897
C77	C	0.878151	-0.054810	0.722230
C78	C	1.211484	0.278523	1.055563
C79	C	0.577669	-0.336509	0.337401
C80	C	0.911003	-0.003176	0.670734
C81	C	1.244336	0.330157	1.004067
C82	C	0.643411	-0.336525	0.337372
C83	C	0.976744	-0.003192	0.670705
C84	C	1.310077	0.330142	1.004038
N85	N	0.441543	-0.381847	0.318372
N86	N	0.774876	-0.048513	0.651706
N87	N	1.108209	0.284820	0.985039
N88	N	0.379091	-0.381837	0.318402
N89	N	0.712425	-0.048503	0.651736
N90	N	1.045758	0.284830	0.985069
C91	C	0.346743	-0.388092	0.388982
C92	C	0.680076	-0.054759	0.722316
C93	C	1.013409	0.278575	1.055649
N94	N	0.379205	-0.394373	0.459533
N95	N	0.712538	-0.061040	0.792866
N96	N	1.045872	0.272293	1.126199
N97	N	0.441662	-0.394388	0.459502
N98	N	0.774995	-0.061054	0.792835
N99	N	1.108329	0.272279	1.126169
C100	C	0.473532	-0.388120	0.388923
C101	C	0.806865	-0.054787	0.722256
C102	C	1.140199	0.278546	1.055589
C103	C	0.242613	-0.439697	0.440518
C104	C	0.575947	-0.106364	0.773852
C105	C	0.909280	0.226970	1.107185
C106	C	0.176870	-0.439671	0.440556
C107	C	0.510203	-0.106338	0.773889
C108	C	0.843536	0.226995	1.107223
C109	C	0.176827	-0.336407	0.337582
C110	C	0.510160	-0.003073	0.670915
C111	C	0.843493	0.330260	1.004248
C112	C	0.242569	-0.336428	0.337551
C113	C	0.575903	-0.003095	0.670885
C114	C	0.909236	0.330239	1.004218
C115	C	0.275459	-0.388077	0.389019
C116	C	0.608792	-0.054744	0.722352
C117	C	0.942125	0.278589	1.055685
C118	C	1.074010	-0.388053	0.389046
C119	C	1.407343	-0.054719	0.722379
C120	C	1.740677	0.278614	1.055712
C121	C	1.143978	-0.388035	0.389086
C122	C	1.477311	-0.054701	0.722419
C123	C	1.810645	0.278632	1.055752
C124	C	0.909861	-0.388035	0.599261
C125	C	1.243194	-0.054701	0.932594
C126	C	1.576527	0.278632	1.265928
C127	C	0.909878	-0.388009	0.688882
C128	C	1.243211	-0.054676	1.022216
C129	C	1.576545	0.278658	1.355549
C130	C	0.909875	0.240011	0.388999
C131	C	1.243208	0.573344	0.722332
C132	C	1.576542	0.906678	1.055665
C133	C	0.909868	0.148703	0.388989
C134	C	1.243201	0.482036	0.722322
C135	C	1.576535	0.815369	1.055656
C136	C	0.909859	0.075926	0.388977
C137	C	1.243192	0.409259	0.722310
C138	C	1.576526	0.742593	1.055644
C139	C	0.909851	-0.015388	0.388968
C140	C	1.243184	0.317945	0.722302
C141	C	1.576518	0.651278	1.055635
C142	C	0.909815	-0.388096	0.179461
C143	C	1.243149	-0.054763	0.512795
C144	C	1.576482	0.278570	0.846128
C145	C	0.909920	-0.387895	0.089841
C146	C	1.243253	-0.054561	0.423174
C147	C	1.576586	0.278772	0.756507
C148	C	0.909907	-0.387919	1.017058
C149	C	1.243240	-0.054585	1.350391
C150	C	1.576574	0.278748	1.683725
C151	C	0.909897	-0.387946	0.925750
C152	C	1.243231	-0.054613	1.259083
C153	C	1.576564	0.278720	1.592416
C154	C	0.909893	-0.387964	0.852973
C155	C	1.243226	-0.054631	1.186306
C156	C	1.576560	0.278702	1.519640
C157	C	0.909882	-0.387991	0.761659
C158	C	1.243216	-0.054658	1.094992
C159	C	1.576549	0.278676	1.428325
H160	H	0.670230	-0.481854	0.482241
H161	H	1.003564	-0.148521	0.815574
H162	H	1.336897	0.184812	1.148908
H163	H	0.269393	-0.481749	0.482430
H164	H	0.602727	-0.148416	0.815764
H165	H	0.936060	0.184918	1.149097
C166	C	0.663556	-0.297085	0.200890
C167	C	0.996889	0.036249	0.534224
C168	C	1.330223	0.369582	0.867557
C169	C	0.679518	-0.279783	0.280761
C170	C	1.012852	0.053550	0.614094
C171	C	1.346185	0.386883	0.947428
H172	H	0.685852	-0.262058	0.165941
H173	H	1.019186	0.071275	0.499275
H174	H	1.352519	0.404608	0.832608
H175	H	0.619701	-0.289677	0.193548
H176	H	0.953035	0.043656	0.526882
H177	H	1.286368	0.376989	0.860215
H178	H	0.674300	-0.351251	0.189012
H179	H	1.007633	-0.017918	0.522345
H180	H	1.340966	0.315416	0.855679
H181	H	0.668771	-0.225619	0.292641
H182	H	1.002104	0.107715	0.625975
H183	H	1.335437	0.441048	0.959308
H184	H	0.723383	-0.287184	0.288107
H185	H	1.056716	0.046149	0.621440
H186	H	1.390050	0.379482	0.954773
H187	H	0.150129	-0.481708	0.482492
H188	H	0.483462	-0.148375	0.815826
H189	H	0.816796	0.184958	1.149159
H190	H	0.150044	-0.294360	0.295677
H191	H	0.483377	0.038973	0.629010
H192	H	0.816710	0.372306	0.962344
C193	C	0.235921	-0.234363	0.235767
C194	C	0.569255	0.098971	0.569100
C195	C	0.902588	0.432304	0.902434
C196	C	0.278676	-0.279689	0.280940
C197	C	0.612009	0.053645	0.614273
C198	C	0.945342	0.386978	0.947607
H199	H	0.258213	-0.199335	0.200814
H200	H	0.591547	0.133998	0.534148
H201	H	0.924880	0.467331	0.867481
H202	H	0.210322	-0.203559	0.270956
H203	H	0.543656	0.129774	0.604290
H204	H	0.876989	0.463108	0.937623
H205	H	0.210240	-0.269457	0.204883
H206	H	0.543573	0.063877	0.538217
H207	H	0.876906	0.397210	0.871550
H208	H	0.304354	-0.244595	0.311828
H209	H	0.637688	0.088739	0.645161
H210	H	0.971021	0.422072	0.978495
H211	H	0.304286	-0.310494	0.245746
H212	H	0.637619	0.022839	0.579079
H213	H	0.970952	0.356172	0.912413
H214	H	0.550881	-0.294466	0.295494
H215	H	0.884215	0.038867	0.628828
H216	H	1.217548	0.372200	0.962161
C217	C	0.584353	-0.541858	0.542145
C218	C	0.917686	-0.208525	0.875478
C219	C	1.251019	0.124808	1.208812
C220	C	0.541601	-0.496525	0.496975
C221	C	0.874934	-0.163191	0.830308
C222	C	1.208268	0.170142	1.163641
H223	H	0.562058	-0.576892	0.577089
H224	H	0.895392	-0.243558	0.910422
H225	H	1.228725	0.089775	1.243756
H226	H	0.610032	-0.506775	0.573030
H227	H	0.943365	-0.173442	0.906363
H228	H	1.276699	0.159891	1.239697
H229	H	0.609954	-0.572663	0.506947
H230	H	0.943287	-0.239330	0.840281
H231	H	1.276621	0.094004	1.173614
H232	H	0.516003	-0.465715	0.532172
H233	H	0.849336	-0.132382	0.865506
H234	H	1.182669	0.200952	1.198839
H235	H	0.515911	-0.531612	0.466088
H236	H	0.849244	-0.198279	0.799421
H237	H	1.182578	0.135055	1.132754
