data_functionalizedCrystal
_audit_creation_method	'MofGen! by Chris Wilmer'
_symmetry_space_group_name_H-M	'P1'
_symmetry_Int_Tables_number	1
_symmetry_cell_setting	triclinic
loop_
_symmetry_equiv_pos_as_xyz
  x,y,z
_cell_length_a	10.654534
_cell_length_b	11.804365
_cell_length_c	10.654550
_cell_angle_alpha	78.050135
_cell_angle_beta	95.518333
_cell_angle_gamma	78.035575
loop_
_atom_site_label
_atom_site_type_symbol
_atom_site_fract_x
_atom_site_fract_y
_atom_site_fract_z
O1	O	-1.693009	0.099042	0.151161
O2	O	-1.327527	0.099039	0.167989
O3	O	-1.518671	0.099042	-0.023165
O4	O	-1.501864	0.099040	0.342315
O5	O	-1.468350	-0.099015	0.027107
O6	O	-1.277205	-0.099018	0.218261
O7	O	-1.642687	-0.099014	0.201433
Cu8	Cu	-1.455352	-0.117100	0.214437
Cu9	Cu	-1.514863	0.117125	0.154984
O10	O	-1.451543	-0.099017	0.392587
C11	C	-1.255568	0.000010	0.191894
C12	C	-1.116123	0.000009	0.188210
N13	N	-1.413504	-0.281841	0.256253
C14	C	-1.023188	-0.107953	0.213880
C15	C	-0.892167	-0.107956	0.210398
C16	C	-0.947031	0.107976	0.155580
C17	C	-1.078050	0.107978	0.159053
C18	C	-1.657211	-0.655787	0.012721
C19	C	-1.688867	-0.531125	-0.018917
C20	C	-1.620029	-0.468798	0.049872
C21	C	-1.519530	-0.531145	0.150306
C22	C	-1.487877	-0.655819	0.181955
C23	C	-1.450695	-0.468830	0.219106
C24	C	-1.350195	-0.531178	0.319540
C25	C	-1.318547	-0.655840	0.351182
C26	C	-1.387386	-0.718167	0.282393
C27	C	-1.482347	-0.344156	0.187457
C28	C	-1.313013	-0.344189	0.356691
C29	C	-1.281357	-0.468851	0.388329
C30	C	-0.714645	0.000012	0.177539
C31	C	-0.854083	0.000005	0.181256
C32	C	-1.492277	0.000016	-0.044828
C33	C	-1.488587	0.000024	-0.184273
N34	N	-1.556720	0.281866	0.113159
C35	C	-1.510798	0.107976	-0.408214
C36	C	-1.514282	0.107983	-0.277196
C37	C	-1.459420	-0.107949	-0.222374
C38	C	-1.455946	-0.107955	-0.353391
C39	C	-1.477938	0.000011	0.414249
C40	C	-1.481630	0.000011	0.553692
H41	H	-0.816502	-0.195870	0.231301
H42	H	-0.916014	0.195880	0.131843
H43	H	-1.153725	0.195899	0.138145
O44	O	-1.064250	-0.224404	0.245321
H45	H	-1.170967	-0.206269	0.243439
O46	O	-1.538491	0.224418	-0.508435
H47	H	-1.559364	0.299493	-0.459929
O48	O	-1.545725	0.224430	-0.236101
H49	H	-1.562986	0.299499	-0.322725
O50	O	-1.431715	-0.224390	-0.122150
H51	H	-1.410862	-0.299467	-0.170656
H52	H	-1.770694	-0.480366	-0.100688
H53	H	-1.564174	-0.293404	0.105684
H54	H	-1.432195	-0.195879	-0.384405
H55	H	-1.645808	-0.367292	0.024108
H56	H	-1.361608	-0.819677	0.308149
O57	O	-1.731456	-0.723005	-0.061465
H58	H	-1.692556	-0.820167	-0.022586
H59	H	-1.236725	-0.706603	0.432971
H60	H	-1.199528	-0.519630	0.470105
H61	H	-1.256960	-0.293443	0.412708
