data_functionalizedCrystal
_audit_creation_method	'MofGen! by Chris Wilmer'
_symmetry_space_group_name_H-M	'P1'
_symmetry_Int_Tables_number	1
_symmetry_cell_setting	triclinic
loop_
_symmetry_equiv_pos_as_xyz
  x,y,z
_cell_length_a	6.394989
_cell_length_b	16.992694
_cell_length_c	16.053802
_cell_angle_alpha	87.249047
_cell_angle_beta	92.643543
_cell_angle_gamma	88.582967
loop_
_atom_site_label
_atom_site_type_symbol
_atom_site_fract_x
_atom_site_fract_y
_atom_site_fract_z
O1	O	0.435392	1.047996	-0.069315
O2	O	0.430522	0.819664	-0.069340
O3	O	0.129434	0.937071	-0.069328
O4	O	0.736481	0.930589	-0.069327
O5	O	0.145934	0.930608	0.069530
O6	O	0.447022	0.813201	0.069519
O7	O	0.451892	1.041533	0.069543
Zn8	Zn	0.452077	0.926341	0.091578
Zn9	Zn	0.430338	0.934856	-0.091374
O10	O	0.752980	0.924126	0.069531
C11	C	0.432511	0.787158	0.000086
C12	C	0.413828	0.699930	0.000077
C13	C	0.594076	0.651470	0.000077
C14	C	0.576512	0.569510	0.000089
C15	C	0.378698	0.536010	0.000094
C16	C	0.198436	0.584476	0.000095
C17	C	0.216003	0.666435	0.000090
C18	C	0.305891	0.291692	0.000116
C19	C	0.288337	0.209727	0.000119
C20	C	0.666415	0.194766	0.000114
C21	C	0.683964	0.276728	0.000104
C22	C	0.503703	0.325186	0.000110
N23	N	0.360739	0.452234	0.000103
N24	N	0.521664	0.408961	0.000106
C25	C	0.822765	0.928639	0.000099
C26	C	1.059654	0.932556	0.000097
C27	C	0.449903	1.074039	0.000116
C28	C	0.468585	1.161268	0.000120
N29	N	0.466913	0.920535	0.216437
N30	N	0.415486	0.940668	-0.216234
C31	C	0.338851	0.970511	0.260136
C32	C	0.349250	0.966457	0.347543
C33	C	0.487723	0.912431	0.391248
C34	C	0.615790	0.862449	0.347543
C35	C	0.605379	0.866500	0.260139
C36	C	0.533141	0.894737	0.652656
C37	C	0.543548	0.890692	0.740067
C38	C	0.277004	0.994700	0.740060
C39	C	0.266614	0.998748	0.652654
C40	C	0.394673	0.948764	0.608957
N41	N	0.498361	0.908288	0.480592
N42	N	0.384023	0.952904	0.519615
H43	H	0.159108	0.331137	0.000121
H44	H	0.755158	0.678739	0.000073
H45	H	0.037372	0.557194	0.000111
C46	C	0.774795	0.516208	0.000085
C47	C	0.806137	0.461149	-0.072016
C48	C	1.004433	0.407849	-0.072019
C49	C	1.171388	0.409608	0.000078
C50	C	1.140052	0.464670	0.072184
C51	C	0.941756	0.517970	0.072188
H52	H	0.682542	0.459844	-0.125391
H53	H	1.027629	0.367089	-0.125397
H54	H	1.318179	0.370152	0.000076
H55	H	1.263646	0.465974	0.125560
H56	H	0.918560	0.558730	0.125566
H57	H	0.709658	0.825803	0.224560
C58	C	0.186526	1.029942	0.212065
C59	C	0.045652	1.084911	0.260138
C60	C	-0.106684	1.144342	0.212069
C61	C	-0.118146	1.148804	0.115927
C62	C	0.022733	1.093833	0.067849
C63	C	0.175068	1.034402	0.115917
H64	H	0.054132	1.081609	0.331312
H65	H	-0.210971	1.185034	0.247660
H66	H	-0.230914	1.192798	0.080344
H67	H	0.014252	1.097135	-0.003326
H68	H	0.279356	0.993710	0.080326
H69	H	0.244971	1.007151	0.383122
C70	C	0.114286	1.058174	0.604575
C71	C	-0.058036	1.028689	0.544494
C72	C	-0.210356	1.088116	0.496412
C73	C	-0.190354	1.177029	0.508410
C74	C	-0.018024	1.206518	0.568494
C75	C	0.134296	1.147091	0.616576
H76	H	-0.072849	0.962867	0.535610
H77	H	-0.337925	1.066285	0.451934
H78	H	-0.303110	1.221020	0.472817
H79	H	-0.003211	1.272340	0.577378
H80	H	0.261865	1.168921	0.661054
C81	C	0.017728	0.719744	0.000087
C82	C	-0.132066	0.711301	0.072194
C83	C	-0.330346	0.764610	0.072196
C84	C	-0.378832	0.826362	0.000090
C85	C	-0.229034	0.834807	-0.072022
C86	C	-0.030754	0.781498	-0.072024
H87	H	-0.096177	0.665587	0.125575
H88	H	-0.441236	0.758358	0.125579
H89	H	-0.525611	0.865824	0.000092
H90	H	-0.264922	0.880522	-0.125404
H91	H	0.080136	0.787750	-0.125407
C92	C	0.136128	1.049674	0.788128
C93	C	-0.021901	1.014624	0.848225
C94	C	-0.162791	1.069599	0.896291
C95	C	-0.145652	1.159624	0.884260
C96	C	0.012384	1.194679	0.824161
C97	C	0.153274	1.139704	0.776095
H98	H	-0.034595	0.947978	0.857133
H99	H	-0.279780	1.043649	0.940780
H100	H	-0.249948	1.200320	0.919842
H101	H	0.025077	1.261325	0.815253
H102	H	0.270263	1.165654	0.731605
H103	H	0.728531	0.818456	0.383134
H104	H	0.845044	0.303997	0.000090
H105	H	0.813173	0.155303	0.000111
H106	H	0.127244	0.182455	0.000122
H107	H	0.656317	0.846695	0.775648
H108	H	0.637416	0.854039	0.617085
