data_functionalizedCrystal
_audit_creation_method	'MofGen! by Chris Wilmer'
_symmetry_space_group_name_H-M	'P1'
_symmetry_Int_Tables_number	1
_symmetry_cell_setting	triclinic
loop_
_symmetry_equiv_pos_as_xyz
  x,y,z
_cell_length_a	30.700809
_cell_length_b	30.711276
_cell_length_c	30.700862
_cell_angle_alpha	59.998386
_cell_angle_beta	89.999414
_cell_angle_gamma	60.000191
loop_
_atom_site_label
_atom_site_type_symbol
_atom_site_fract_x
_atom_site_fract_y
_atom_site_fract_z
O1	O	-0.371254	-0.311651	0.012944
O2	O	-0.307913	-0.222487	-0.012907
O3	O	-0.307911	-0.311650	0.076286
O4	O	-0.371257	-0.222488	-0.076249
O5	O	-0.235466	-0.384070	0.076286
O6	O	-0.235468	-0.294907	-0.012907
O7	O	-0.298809	-0.384071	0.012944
Zn8	Zn	-0.255636	-0.350987	0.000018
Zn9	Zn	-0.351086	-0.255571	0.000019
O10	O	-0.298812	-0.294908	-0.076249
C11	C	-0.234796	-0.137097	-0.018777
C12	C	-0.261674	-0.083360	-0.015076
C13	C	-0.182374	-0.163176	-0.019143
C14	C	-0.234798	-0.215942	-0.018783
C15	C	-0.261678	-0.246507	-0.015089
C16	C	-0.182376	-0.241901	-0.019150
C17	C	-0.155920	-0.215947	-0.018777
C18	C	-0.098463	-0.246515	-0.015075
C19	C	-0.261132	-0.163172	-0.019150
C20	C	-0.574961	-0.535511	0.039265
C21	C	-0.548506	-0.588283	0.039634
C22	C	-0.496086	-0.535509	0.039262
C23	C	-0.469751	-0.588281	0.039632
C24	C	-0.496085	-0.614360	0.039265
C25	C	-0.548507	-0.509552	0.039632
C26	C	-0.765169	-0.393516	0.024987
C27	C	-0.819034	-0.364488	0.020950
C28	C	-0.846055	-0.389406	0.018925
C29	C	-0.904462	-0.357927	0.014538
C30	C	-0.819206	-0.443357	0.020941
C31	C	-0.765344	-0.472385	0.024984
C32	C	-0.738325	-0.447463	0.027007
C33	C	-0.447920	-0.790230	0.024988
C34	C	-0.423094	-0.840041	0.020951
C35	C	-0.371150	-0.865027	0.018921
C36	C	-0.344230	-0.919028	0.014536
C37	C	-0.344030	-0.840201	0.020935
C38	C	-0.368852	-0.790399	0.024981
C39	C	-0.420803	-0.765414	0.027004
C40	C	-0.447922	-0.393510	0.024977
C41	C	-0.423099	-0.364475	0.020931
C42	C	-0.371152	-0.389391	0.018903
C43	C	-0.344235	-0.357911	0.014513
C44	C	-0.344034	-0.443338	0.020916
C45	C	-0.368860	-0.472368	0.024960
C46	C	-0.420804	-0.447452	0.026995
C47	C	-0.679920	-0.478941	0.031387
C48	C	-0.633366	-0.504032	0.034880
C49	C	-0.469171	-0.504029	0.034875
C50	C	-0.447717	-0.478936	0.031380
C51	C	-0.469170	-0.668361	0.034880
C52	C	-0.447716	-0.711408	0.031386
C53	C	-0.496432	-0.071057	-0.503890
C54	C	-0.548853	-0.018285	-0.530226
C55	C	-0.496432	-0.071056	-0.425015
C56	C	-0.548854	-0.018284	-0.451470
C57	C	-0.575308	0.007793	-0.503892
C58	C	-0.470097	-0.097014	-0.451469
C59	C	-0.368666	-0.213054	-0.552051
C60	C	-0.343664	-0.242084	-0.576877
C61	C	-0.370616	-0.217167	-0.628824
C62	C	-0.343513	-0.248647	-0.655741
C63	C	-0.422570	-0.163216	-0.655945
C64	C	-0.447565	-0.134187	-0.631122
C65	C	-0.420611	-0.159108	-0.579173
C66	C	-0.765518	0.183662	-0.631659
C67	C	-0.819384	0.233473	-0.656662
C68	C	-0.846408	0.258459	-0.629712
C69	C	-0.904813	0.312461	-0.656813
C70	C	-0.819559	0.233635	-0.577758
C71	C	-0.765694	0.183833	-0.552761
C72	C	-0.738677	0.158847	-0.579717
C73	C	-0.368668	-0.213052	-0.234803
C74	C	-0.343669	-0.242086	-0.180935
C75	C	-0.370621	-0.217169	-0.153914
C76	C	-0.343519	-0.248648	-0.095506
C77	C	-0.422573	-0.163222	-0.180762
C78	C	-0.447570	-0.134193	-0.234627
C79	C	-0.420610	-0.159111	-0.261646
C80	C	-0.447720	-0.127629	-0.552258
C81	C	-0.469327	-0.102536	-0.530805
C82	C	-0.469328	-0.102535	-0.366609
C83	C	-0.447721	-0.127627	-0.320054
C84	C	-0.633714	0.061794	-0.530997
C85	C	-0.680269	0.104841	-0.552605
O86	O	0.076277	-0.384081	0.012960
O87	O	-0.076257	-0.294916	-0.012894
O88	O	0.012931	-0.384083	0.076300
O89	O	-0.012910	-0.294914	-0.076234
O90	O	0.012933	-0.311666	0.076306
O91	O	-0.076254	-0.222499	-0.012888
O92	O	0.076280	-0.311664	0.012966
Zn93	Zn	0.000013	-0.255584	0.000040
Zn94	Zn	0.000010	-0.350996	0.000032
O95	O	-0.012908	-0.222497	-0.076228
O96	O	-0.298805	0.063292	0.012964
O97	O	-0.235462	-0.063346	-0.012888
O98	O	-0.235465	-0.063353	0.076305
O99	O	-0.298803	0.063300	-0.076229
O100	O	-0.307912	-0.063350	0.076299
O101	O	-0.307909	-0.063342	-0.012895
O102	O	-0.371252	0.063295	0.012958
Zn103	Zn	-0.351083	-0.000023	0.000031
Zn104	Zn	-0.255631	-0.000027	0.000039
O105	O	-0.371250	0.063303	-0.076236
O106	O	-1.076607	0.456783	-0.692421
O107	O	-0.924074	0.330140	-0.629074
O108	O	-1.013262	0.330138	-0.629073
O109	O	-0.987418	0.456785	-0.692422
O110	O	-1.013261	0.330136	-0.701518
O111	O	-0.924072	0.330138	-0.701518
O112	O	-1.076605	0.456781	-0.764865
Zn113	Zn	-1.000338	0.393459	-0.744694
Zn114	Zn	-1.000340	0.393461	-0.649245
O115	O	-0.987417	0.456783	-0.764866
O116	O	-0.307911	-0.311650	-0.764507
O117	O	-0.371254	-0.222491	-0.701165
O118	O	-0.371252	-0.311652	-0.701162
O119	O	-0.307912	-0.222489	-0.764510
O120	O	-0.298806	-0.384074	-0.628716
O121	O	-0.298807	-0.294912	-0.628719
O122	O	-0.235464	-0.384072	-0.692061
Zn123	Zn	-0.255634	-0.350991	-0.648887
Zn124	Zn	-0.351085	-0.255572	-0.744338
O125	O	-0.235466	-0.294910	-0.692064
C126	C	-0.155920	-0.469469	0.234827
C127	C	-0.098464	-0.523208	0.261706
C128	C	-0.182375	-0.443392	0.261162
C129	C	-0.234797	-0.390619	0.155950
C130	C	-0.261676	-0.360052	0.098494
C131	C	-0.261132	-0.364662	0.182405
C132	C	-0.234797	-0.390620	0.234826
C133	C	-0.261675	-0.360052	0.261704
C134	C	-0.182375	-0.443391	0.182406
C135	C	0.018810	-0.390643	0.234846
C136	C	0.015111	-0.360079	0.261727
C137	C	0.019176	-0.443414	0.261179
C138	C	0.018812	-0.390637	0.155967
C139	C	0.015115	-0.360067	0.098511
C140	C	0.019178	-0.443408	0.182420
C141	C	0.018807	-0.469488	0.234841
C142	C	0.015106	-0.523226	0.261717
C143	C	0.019180	-0.364683	0.182425
C144	C	-0.234799	-0.215977	0.234834
C145	C	-0.261678	-0.246545	0.261708
C146	C	-0.182376	-0.241940	0.261172
C147	C	-0.234798	-0.137119	0.155964
C148	C	-0.261676	-0.083372	0.098509
C149	C	-0.182375	-0.163202	0.182421
C150	C	-0.155921	-0.215981	0.234841
C151	C	-0.098464	-0.246554	0.261721
C152	C	-0.261134	-0.163198	0.182415
C153	C	-0.039199	0.007461	-0.503869
C154	C	-0.039568	-0.018614	-0.530207
C155	C	-0.039203	-0.071390	-0.424995
C156	C	-0.039572	-0.097344	-0.451452
C157	C	-0.039201	-0.071385	-0.503874
C158	C	-0.039570	-0.018618	-0.451448
C159	C	-0.024912	0.183325	-0.552025
C160	C	-0.020873	0.233135	-0.576849
C161	C	-0.018844	0.258123	-0.628796
C162	C	-0.014454	0.312124	-0.655711
C163	C	-0.020859	0.233301	-0.655918
C164	C	-0.024906	0.183500	-0.631097
C165	C	-0.026932	0.158512	-0.579148
C166	C	-0.024920	-0.133799	-0.631644
C167	C	-0.020882	-0.162650	-0.656647
C168	C	-0.018855	-0.216605	-0.629699
C169	C	-0.014470	-0.247897	-0.656801
C170	C	-0.020872	-0.241704	-0.577746
C171	C	-0.024919	-0.212847	-0.552747
C172	C	-0.026939	-0.158893	-0.579702
C173	C	-0.024929	-0.133823	-0.234783
C174	C	-0.020887	-0.162684	-0.180915
C175	C	-0.018862	-0.216639	-0.153896
C176	C	-0.014477	-0.247936	-0.095488
C177	C	-0.020875	-0.241733	-0.180745
C178	C	-0.024915	-0.212872	-0.234610
C179	C	-0.026947	-0.158912	-0.261627
C180	C	-0.031316	0.104507	-0.552235
C181	C	-0.034811	0.061462	-0.530782
C182	C	-0.034820	-0.102682	-0.366590
C183	C	-0.031328	-0.127624	-0.320035
C184	C	-0.034816	-0.102672	-0.530980
C185	C	-0.031322	-0.127610	-0.552588
O186	O	-0.012940	-0.294936	0.371303
O187	O	0.012923	-0.384099	0.307961
O188	O	-0.076273	-0.294935	0.307950
O189	O	0.076257	-0.384100	0.371315
O190	O	-0.076265	-0.222515	0.235508
O191	O	0.012932	-0.311679	0.235520
O192	O	-0.012931	-0.222517	0.298862
Zn193	Zn	0.000002	-0.255600	0.255689
Zn194	Zn	-0.000010	-0.351016	0.351134
O195	O	0.076266	-0.311681	0.298873
C196	C	-0.574962	0.464558	-0.503864
C197	C	-0.548506	0.490518	-0.530195
C198	C	-0.496085	0.385697	-0.424987
C199	C	-0.469749	0.411776	-0.451438
C200	C	-0.496084	0.464555	-0.503857
C201	C	-0.548507	0.411779	-0.451444
C202	C	-0.765173	0.526994	-0.552039
C203	C	-0.819039	0.555852	-0.576867
C204	C	-0.846061	0.609814	-0.628812
C205	C	-0.904469	0.641114	-0.655732
C206	C	-0.819211	0.634913	-0.655928
C207	C	-0.765348	0.606050	-0.631102
C208	C	-0.738329	0.552088	-0.579155
C209	C	-0.447916	0.606561	-0.631604
C210	C	-0.423088	0.635592	-0.656601
C211	C	-0.371143	0.610674	-0.629648
C212	C	-0.344222	0.642150	-0.656742
C213	C	-0.344023	0.556716	-0.577696
C214	C	-0.368845	0.527681	-0.552704
C215	C	-0.420798	0.552613	-0.579664
C216	C	-0.447920	0.209802	-0.234786
C217	C	-0.423096	0.159988	-0.180919
C218	C	-0.371148	0.134996	-0.153895
C219	C	-0.344230	0.080987	-0.095489
C220	C	-0.344029	0.159823	-0.180737
C221	C	-0.368856	0.209637	-0.234602
C222	C	-0.420801	0.234620	-0.261624
C223	C	-0.679923	0.520797	-0.552238
C224	C	-0.633367	0.495853	-0.530781
C225	C	-0.469169	0.331687	-0.366583
C226	C	-0.447714	0.288634	-0.320030
C227	C	-0.469167	0.496035	-0.530956
C228	C	-0.447712	0.521128	-0.552558
H229	H	-0.426680	-0.610102	0.040221
H230	H	-0.304205	-0.141373	0.161175
C231	C	-0.040375	-0.154709	-0.422768
C232	C	0.005295	-0.214669	-0.371067
C233	C	0.004492	-0.272031	-0.342386
C234	C	-0.041982	-0.269434	-0.365405
C235	C	-0.087656	-0.209472	-0.417109
C236	C	-0.086853	-0.152110	-0.445790
H237	H	0.039701	-0.216593	-0.354023
H238	H	0.038303	-0.316419	-0.304111
H239	H	-0.042577	-0.311897	-0.344174
H240	H	-0.122062	-0.207547	-0.434152
H241	H	-0.120664	-0.107722	-0.484065
H242	H	-0.026556	-0.233307	-0.256467
C243	C	-0.040368	0.010871	-0.588393
C244	C	-0.040762	0.069032	-0.617485
C245	C	-0.041563	0.098515	-0.675670
C246	C	-0.041971	0.069836	-0.704763
C247	C	-0.041578	0.011671	-0.675671
C248	C	-0.040776	-0.017811	-0.617486
H249	H	-0.040460	0.090265	-0.595949
H250	H	-0.041854	0.141572	-0.697206
H251	H	-0.042564	0.091660	-0.747834
H252	H	-0.041880	-0.009561	-0.697207
H253	H	-0.040485	-0.060868	-0.595950
C254	C	-0.040370	0.010859	-0.422750
C255	C	-0.040762	0.069020	-0.451835
C256	C	-0.041563	0.098495	-0.423137
C257	C	-0.041971	0.069809	-0.365355
C258	C	-0.041580	0.011646	-0.336267
C259	C	-0.040779	-0.017829	-0.364965
H260	H	-0.040460	0.090257	-0.494612
H261	H	-0.041853	0.141551	-0.444670
H262	H	-0.042564	0.091629	-0.344111
H263	H	-0.041882	-0.009591	-0.293490
H264	H	-0.040489	-0.060885	-0.343432
C265	C	-0.286890	-0.470754	0.018690
C266	C	-0.274578	-0.478225	-0.026710
C267	C	-0.217436	-0.505643	-0.028935
C268	C	-0.172607	-0.525590	0.014241
C269	C	-0.184918	-0.518119	0.059645
C270	C	-0.242060	-0.490702	0.061870
H271	H	-0.307764	-0.463459	-0.058674
H272	H	-0.208323	-0.511173	-0.062546
H273	H	-0.130307	-0.545886	0.012594
H274	H	-0.151731	-0.532886	0.091609
H275	H	-0.251173	-0.485172	0.095481
C276	C	-0.286523	-0.301424	-0.151402
C277	C	-0.241605	-0.303163	-0.126569
C278	C	-0.184458	-0.362500	-0.097037
C279	C	-0.172227	-0.420098	-0.092337
C280	C	-0.217145	-0.418361	-0.117171
C281	C	-0.274293	-0.359024	-0.146703
H282	H	-0.250658	-0.260524	-0.130048
H283	H	-0.151206	-0.363785	-0.078653
H284	H	-0.129923	-0.464022	-0.070475
H285	H	-0.208092	-0.461000	-0.113692
H286	H	-0.307545	-0.357739	-0.165087
C287	C	-0.319319	-0.307297	0.153717
C288	C	-0.363203	-0.309880	0.133290
C289	C	-0.421387	-0.252518	0.104606
C290	C	-0.435688	-0.192572	0.096349
C291	C	-0.391803	-0.189986	0.116777
C292	C	-0.333618	-0.247348	0.145461
H293	H	-0.352617	-0.354258	0.139402
H294	H	-0.453873	-0.254432	0.089485
H295	H	-0.478759	-0.150108	0.075116
H296	H	-0.402388	-0.145608	0.110665
H297	H	-0.301132	-0.245434	0.160582
C298	C	-0.153662	-0.299281	-0.019929
C299	C	-0.133217	-0.296715	-0.066385
C300	C	-0.104493	-0.354100	-0.067153
C301	C	-0.096215	-0.414052	-0.021466
C302	C	-0.116660	-0.416620	0.024994
C303	C	-0.145384	-0.359235	0.025762
H304	H	-0.139345	-0.252333	-0.100209
H305	H	-0.089358	-0.352198	-0.101546
H306	H	-0.074952	-0.456532	-0.022034
H307	H	-0.110533	-0.461002	0.058818
H308	H	-0.160519	-0.361137	0.060155
H309	H	-0.161137	-0.141349	-0.019737
C310	C	0.019976	-0.307313	0.153742
C311	C	0.066446	-0.309886	0.133322
C312	C	0.067239	-0.252516	0.104643
C313	C	0.021561	-0.192573	0.096383
C314	C	-0.024912	-0.189999	0.116803
C315	C	-0.025704	-0.247368	0.145482
H316	H	0.100262	-0.354261	0.139436
H317	H	0.101641	-0.254422	0.089527
H318	H	0.022148	-0.150105	0.075153
H319	H	-0.058728	-0.145624	0.110689
H320	H	-0.060107	-0.245462	0.160598
C321	C	-0.153679	-0.299314	0.319356
C322	C	-0.145404	-0.359266	0.333651
C323	C	-0.116705	-0.416637	0.391833
C324	C	-0.096280	-0.414056	0.435719
C325	C	-0.104554	-0.354101	0.421425
C326	C	-0.133253	-0.296730	0.363243
H327	H	-0.160524	-0.361179	0.301163
H328	H	-0.110580	-0.461020	0.402414
H329	H	-0.075035	-0.456525	0.478789
H330	H	-0.089434	-0.352188	0.453914
H331	H	-0.139378	-0.252347	0.352662
H332	H	-0.841239	0.253681	-0.698962
C333	C	-0.452925	0.132679	-0.151394
C334	C	-0.472059	0.105829	-0.171053
C335	C	-0.501888	0.078518	-0.141528
C336	C	-0.512584	0.078057	-0.092344
C337	C	-0.493450	0.104907	-0.072682
C338	C	-0.463621	0.132218	-0.102207
H339	H	-0.464142	0.106170	-0.207465
H340	H	-0.516053	0.058642	-0.156084
H341	H	-0.534666	0.057839	-0.070488
H342	H	-0.501368	0.104566	-0.036270
H343	H	-0.449457	0.152095	-0.087651
H344	H	-0.840890	-0.320560	0.019306
H345	H	-0.301733	-0.860548	0.019286
H346	H	-0.346776	-0.516292	0.026600
C347	C	-0.319320	-0.133692	-0.019955
C348	C	-0.333628	-0.127669	0.025717
C349	C	-0.391813	-0.098193	0.024912
C350	C	-0.435690	-0.074740	-0.021566
C351	C	-0.421383	-0.080762	-0.067242
C352	C	-0.363197	-0.110238	-0.066437
H353	H	-0.301147	-0.145032	0.060126
H354	H	-0.402404	-0.093735	0.058724
H355	H	-0.478762	-0.052920	-0.022163
H356	H	-0.453864	-0.063399	-0.101651
H357	H	-0.352607	-0.114696	-0.100249
H358	H	-0.161134	-0.465220	0.304234
C359	C	-0.577546	0.011199	-0.422778
C360	C	-0.597967	0.078070	-0.445789
C361	C	-0.626658	0.107551	-0.417098
C362	C	-0.634929	0.070161	-0.365395
C363	C	-0.614507	0.003286	-0.342381
C364	C	-0.585816	-0.026196	-0.371072
H365	H	-0.591846	0.105752	-0.484065
H366	H	-0.641776	0.157057	-0.434134
H367	H	-0.656168	0.091985	-0.344155
H368	H	-0.620629	-0.024396	-0.304105
H369	H	-0.570699	-0.075701	-0.354035
C370	C	-0.339017	-0.240465	-0.264522
C371	C	-0.366510	-0.208533	-0.323772
C372	C	-0.336863	-0.235944	-0.353493
C373	C	-0.279723	-0.295287	-0.323964
C374	C	-0.252226	-0.327222	-0.264710
C375	C	-0.281873	-0.299811	-0.234989
H376	H	-0.408812	-0.164601	-0.345635
H377	H	-0.357218	-0.212303	-0.397357
H378	H	-0.257777	-0.315578	-0.345965
H379	H	-0.209925	-0.371154	-0.242847
H380	H	-0.261518	-0.323452	-0.191126
C381	C	0.019980	-0.472895	0.153730
C382	C	0.066450	-0.496343	0.133304
C383	C	0.067253	-0.525831	0.104618
C384	C	0.021586	-0.531870	0.096358
C385	C	-0.024886	-0.508422	0.116785
C386	C	-0.025689	-0.478934	0.145471
H387	H	0.100258	-0.491872	0.139418
H388	H	0.101655	-0.543189	0.089497
H389	H	0.022181	-0.553699	0.075123
H390	H	-0.058694	-0.512892	0.110671
H391	H	-0.060092	-0.461576	0.160592
H392	H	-0.743837	0.163627	-0.510462
C393	C	-0.577195	-0.617771	0.040438
C394	C	-0.634981	-0.589090	0.040834
C395	C	-0.663667	-0.618578	0.041639
C396	C	-0.634568	-0.676748	0.042047
C397	C	-0.576779	-0.705433	0.041651
C398	C	-0.548092	-0.675944	0.040846
H399	H	-0.656525	-0.546026	0.040532
H400	H	-0.706446	-0.597343	0.041932
H401	H	-0.655803	-0.698577	0.042643
H402	H	-0.555235	-0.748497	0.041953
H403	H	-0.505313	-0.697179	0.040553
H404	H	-0.743487	-0.516312	0.026628
H405	H	-0.019235	-0.142256	-0.159055
H406	H	-0.026581	-0.089888	-0.256777
C407	C	-0.577194	-0.452190	0.040438
C408	C	-0.634979	-0.423504	0.040837
C409	C	-0.663663	-0.366146	0.041646
C410	C	-0.634563	-0.337474	0.042055
C411	C	-0.576776	-0.366161	0.041655
C412	C	-0.548091	-0.423518	0.040847
H413	H	-0.656523	-0.444728	0.040534
H414	H	-0.706442	-0.344911	0.041941
H415	H	-0.655797	-0.295015	0.042653
H416	H	-0.555231	-0.344936	0.041958
H417	H	-0.505313	-0.444754	0.040551
H418	H	0.019760	-0.465234	0.304248
C419	C	-0.452928	-0.305136	0.018716
C420	C	-0.472057	-0.305658	0.065236
C421	C	-0.501885	-0.246321	0.063025
C422	C	-0.512584	-0.186461	0.014295
C423	C	-0.493455	-0.185937	-0.032228
C424	C	-0.463626	-0.245274	-0.030018
H425	H	-0.464137	-0.349972	0.101312
H426	H	-0.516046	-0.246709	0.097465
H427	H	-0.534665	-0.142536	0.012658
H428	H	-0.501375	-0.141624	-0.068305
H429	H	-0.449466	-0.244886	-0.064457
C430	C	-0.848928	-0.470765	0.018715
C431	C	-0.829421	-0.536340	0.065223
C432	C	-0.859142	-0.563751	0.062997
C433	C	-0.908371	-0.525587	0.014264
C434	C	-0.927881	-0.460008	-0.032247
C435	C	-0.898160	-0.432597	-0.030021
H436	H	-0.792976	-0.564594	0.101301
H437	H	-0.844699	-0.612297	0.097428
H438	H	-0.930372	-0.545878	0.012617
H439	H	-0.964325	-0.431754	-0.068325
H440	H	-0.912603	-0.384052	-0.064452
H441	H	-0.161136	-0.141377	0.161182
H442	H	-0.301723	0.536422	-0.555753
C443	C	-0.018648	0.260431	-0.547014
C444	C	0.026748	0.219740	-0.494098
C445	C	0.028975	0.247034	-0.464261
C446	C	-0.014196	0.315020	-0.487340
C447	C	-0.059596	0.355716	-0.540258
C448	C	-0.061822	0.328421	-0.570095
H449	H	0.058708	0.169409	-0.477011
H450	H	0.062583	0.216909	-0.425088
H451	H	-0.012548	0.335225	-0.465253
H452	H	-0.091556	0.406046	-0.557345
H453	H	-0.095430	0.358547	-0.609269
H454	H	-0.026563	0.162985	-0.509727
H455	H	-0.019210	0.253653	-0.698214
H456	H	-0.026547	0.163294	-0.653183
C457	C	-0.452926	-0.867342	0.018729
C458	C	-0.429847	-0.935328	0.061902
C459	C	-0.459681	-0.962627	0.059677
C460	C	-0.512594	-0.921939	0.014280
C461	C	-0.535677	-0.853948	-0.028897
C462	C	-0.505843	-0.826650	-0.026672
H463	H	-0.390675	-0.965451	0.095511
H464	H	-0.442593	-1.012958	0.091640
H465	H	-0.534679	-0.942147	0.012633
H466	H	-0.574849	-0.823825	-0.062506
H467	H	-0.522930	-0.776319	-0.058635
H468	H	-0.026568	-0.089866	-0.653596
H469	H	-0.490220	-0.373215	0.026628
C470	C	-0.339023	-0.763092	0.027195
C471	C	-0.281886	-0.790569	0.024963
C472	C	-0.252058	-0.763260	0.027174
C473	C	-0.279366	-0.708474	0.031617
C474	C	-0.336506	-0.680994	0.033850
C475	C	-0.366334	-0.708303	0.031639
H476	H	-0.261668	-0.831127	0.021673
H477	H	-0.209759	-0.783603	0.025521
H478	H	-0.257286	-0.688258	0.033254
H479	H	-0.356724	-0.640435	0.037140
H480	H	-0.408633	-0.687960	0.033291
C481	C	-0.577550	0.011199	-0.588412
C482	C	-0.548463	-0.017486	-0.617504
C483	C	-0.577160	0.011997	-0.675686
C484	C	-0.634944	0.070164	-0.704776
C485	C	-0.664033	0.098852	-0.675684
C486	C	-0.635336	0.069370	-0.617502
H487	H	-0.505686	-0.060548	-0.595970
H488	H	-0.555626	-0.009241	-0.697222
H489	H	-0.656187	0.091989	-0.747846
H490	H	-0.706811	0.141914	-0.697218
H491	H	-0.656871	0.090607	-0.595966
H492	H	-0.743175	-0.373219	0.026636
C493	C	-0.018656	-0.135048	-0.713789
C494	C	-0.065162	-0.069416	-0.759794
C495	C	-0.062935	-0.041814	-0.816936
C496	C	-0.014201	-0.079845	-0.828072
C497	C	0.032309	-0.145481	-0.782065
C498	C	0.030081	-0.173083	-0.724923
H499	H	-0.101241	-0.041260	-0.751552
H500	H	-0.097365	0.006774	-0.850993
H501	H	-0.012552	-0.059412	-0.870371
H502	H	0.068387	-0.173637	-0.790307
H503	H	0.064511	-0.221671	-0.690866
H504	H	-0.019230	-0.285631	-0.555806
C505	C	-0.411560	0.382286	-0.422747
C506	C	-0.382465	0.324116	-0.364964
C507	C	-0.324279	0.294627	-0.336276
C508	C	-0.295187	0.323310	-0.365371
C509	C	-0.324282	0.381484	-0.423158
C510	C	-0.382469	0.410972	-0.451845
H511	H	-0.404001	0.302880	-0.343422
H512	H	-0.302741	0.251563	-0.293498
H513	H	-0.252114	0.301481	-0.344135
H514	H	-0.302746	0.402719	-0.444699
H515	H	-0.404006	0.454037	-0.494623
C516	C	-0.577207	0.547913	-0.588369
C517	C	-0.635002	0.576624	-0.617458
C518	C	-0.663705	0.634027	-0.675624
C519	C	-0.634613	0.662719	-0.704702
C520	C	-0.576815	0.634007	-0.675613
C521	C	-0.548111	0.576604	-0.617446
H522	H	-0.656540	0.555385	-0.595933
H523	H	-0.706492	0.655281	-0.697158
H524	H	-0.655861	0.705212	-0.747760
H525	H	-0.555276	0.655246	-0.697138
H526	H	-0.505325	0.555350	-0.595913
C527	C	-0.577197	0.382290	-0.422755
C528	C	-0.634984	0.410978	-0.451845
C529	C	-0.663671	0.381488	-0.423155
C530	C	-0.634572	0.323310	-0.365376
C531	C	-0.576781	0.294619	-0.336282
C532	C	-0.548094	0.324109	-0.364972
H533	H	-0.656528	0.454047	-0.494620
H534	H	-0.706451	0.402727	-0.444693
H535	H	-0.655808	0.301480	-0.344138
H536	H	-0.555237	0.251549	-0.293507
H537	H	-0.505314	0.302870	-0.343435
C538	C	-0.286522	-0.301429	-0.547043
C539	C	-0.240518	-0.300926	-0.527900
C540	C	-0.183376	-0.360273	-0.498065
C541	C	-0.172238	-0.420124	-0.487373
C542	C	-0.218244	-0.420630	-0.506516
C543	C	-0.275386	-0.361283	-0.536351
H544	H	-0.248761	-0.256618	-0.535814
H545	H	-0.149320	-0.359898	-0.483894
H546	H	-0.129939	-0.464056	-0.465287
H547	H	-0.210001	-0.464937	-0.498602
H548	H	-0.309442	-0.361658	-0.550523
H549	H	-0.026564	-0.233284	-0.510448
C550	C	-0.848573	0.528250	-0.547039
C551	C	-0.828927	0.462623	-0.527904
C552	C	-0.858460	0.435021	-0.498075
C553	C	-0.907639	0.473045	-0.487380
C554	C	-0.927287	0.538676	-0.506515
C555	C	-0.897754	0.566278	-0.536345
H556	H	-0.792520	0.434472	-0.535821
H557	H	-0.843915	0.386437	-0.483910
H558	H	-0.929502	0.452612	-0.465299
H559	H	-0.963695	0.566827	-0.498599
H560	H	-0.912299	0.614863	-0.550510
C561	C	-0.452921	0.694945	-0.713740
C562	C	-0.505833	0.752533	-0.725946
C563	C	-0.535667	0.811888	-0.783084
C564	C	-0.512590	0.813655	-0.828017
C565	C	-0.459676	0.756065	-0.815812
C566	C	-0.429841	0.696710	-0.758673
H567	H	-0.522918	0.751226	-0.692683
H568	H	-0.574837	0.854520	-0.792119
H569	H	-0.534675	0.857593	-0.870315
H570	H	-0.442590	0.757372	-0.849075
H571	H	-0.390671	0.654078	-0.749639
H572	H	-0.019226	-0.285667	-0.158742
C573	C	-0.848935	0.694267	-0.713065
C574	C	-0.853773	0.751958	-0.725370
C575	C	-0.883496	0.811314	-0.782508
C576	C	-0.908381	0.812980	-0.827341
C577	C	-0.903544	0.755287	-0.815038
C578	C	-0.873821	0.695931	-0.757899
H579	H	-0.835350	0.750727	-0.692180
H580	H	-0.887076	0.854022	-0.791616
H581	H	-0.930384	0.856919	-0.869639
H582	H	-0.921966	0.756518	-0.848227
H583	H	-0.870240	0.653223	-0.748792
C584	C	-0.286884	0.132335	-0.151016
C585	C	-0.242056	0.064307	-0.126146
C586	C	-0.184913	0.036820	-0.096427
C587	C	-0.172599	0.077361	-0.091579
C588	C	-0.217428	0.145393	-0.116449
C589	C	-0.274570	0.172880	-0.146168
H590	H	-0.251171	0.034292	-0.129735
H591	H	-0.151728	-0.013542	-0.078016
H592	H	-0.130298	0.057014	-0.069579
H593	H	-0.208313	0.175408	-0.112861
H594	H	-0.307756	0.223242	-0.164579
H595	H	-0.490218	-0.769893	0.026639
H596	H	-0.427024	-0.139478	-0.430231
H597	H	-0.346713	-0.233351	-0.509753
H598	H	-0.444508	-0.142931	-0.698242
C599	C	-0.849280	0.261119	-0.548112
C600	C	-0.898506	0.261610	-0.537554
C601	C	-0.928229	0.289093	-0.507906
C602	C	-0.908724	0.316084	-0.488817
C603	C	-0.859495	0.315594	-0.499374
C604	C	-0.829773	0.288111	-0.529022
H605	H	-0.912947	0.241629	-0.551686
H606	H	-0.964672	0.289456	-0.500091
H607	H	-0.930726	0.336429	-0.466870
H608	H	-0.845054	0.335575	-0.485242
H609	H	-0.793330	0.287748	-0.536837
H610	H	-0.489864	-0.090259	-0.653209
H611	H	-0.743523	0.163324	-0.653612
H612	H	-0.489870	-0.090268	-0.256484
H613	H	-0.161128	-0.465208	0.161163
H614	H	-0.444519	-0.142934	-0.158758
H615	H	-0.490217	0.230142	-0.256784
H616	H	-0.743179	0.483055	-0.509743
H617	H	-0.743490	0.626486	-0.653184
H618	H	-0.490215	0.626864	-0.653559
H619	H	-0.346761	0.483749	-0.510407
H620	H	-0.346770	0.229846	-0.256454
