data_functionalizedCrystal
_audit_creation_method	'MofGen! by Chris Wilmer'
_symmetry_space_group_name_H-M	'P1'
_symmetry_Int_Tables_number	1
_symmetry_cell_setting	triclinic
loop_
_symmetry_equiv_pos_as_xyz
  x,y,z
_cell_length_a	13.033291
_cell_length_b	18.101397
_cell_length_c	18.101375
_cell_angle_alpha	89.899245
_cell_angle_beta	82.758447
_cell_angle_gamma	97.189668
loop_
_atom_site_label
_atom_site_type_symbol
_atom_site_fract_x
_atom_site_fract_y
_atom_site_fract_z
Zn1	Zn	1.598324	-0.150446	-0.562825
Zn2	Zn	1.598081	-0.274466	-0.438956
Zn3	Zn	1.423413	-0.166366	-0.423228
Zn4	Zn	1.423505	-0.289987	-0.547017
O5	O	1.510831	-0.220316	-0.493006
O6	O	1.744553	-0.153739	-0.559592
O7	O	1.574770	-0.260293	-0.333224
O8	O	1.446679	-0.060615	-0.441780
O9	O	1.744374	-0.244856	-0.468586
O10	O	1.575185	-0.048919	-0.544341
O11	O	1.446442	-0.180872	-0.321668
O12	O	1.277164	-0.195923	-0.426450
O13	O	1.446836	-0.271310	-0.652760
O14	O	1.277231	-0.286747	-0.517398
O15	O	1.575275	-0.168789	-0.664374
O16	O	1.574859	-0.380163	-0.453257
O17	O	1.446599	-0.391567	-0.532648
C18	C	1.239274	-0.244747	-0.468502
C19	C	1.123100	-0.255217	-0.458037
C20	C	0.951327	-0.225684	-0.487658
C21	C	1.071398	-0.214865	-0.498474
C22	C	1.510741	-0.412735	-0.492963
C23	C	1.510799	-0.495044	-0.492977
C24	C	1.510932	-0.794122	-0.493057
C25	C	1.591404	-0.755612	-0.442932
C26	C	1.591683	-0.669968	-0.443106
C27	C	1.510866	-0.645746	-0.493017
C28	C	1.540806	-0.673962	-0.573777
C29	C	1.541429	-0.759552	-0.573520
C30	C	1.400306	-0.772614	-0.463078
C31	C	1.400850	-0.686918	-0.461384
C32	C	1.510827	-0.561890	-0.492999
C33	C	1.510974	-0.877978	-0.493080
C34	C	1.783448	-0.195790	-0.517607
C35	C	1.899622	-0.185339	-0.528090
C36	C	1.511093	-0.220005	-0.686193
C37	C	1.511204	-0.219872	-0.768517
C38	C	1.510949	-0.027143	-0.493069
C39	C	1.510999	0.055175	-0.493096
C40	C	1.510630	-0.220567	-0.300577
C41	C	1.510721	-0.220473	-0.218272
C42	C	1.510883	-0.220271	-0.067578
C43	C	1.592236	-0.269730	-0.043507
C44	C	1.592643	-0.269417	0.042074
C45	C	1.511042	-0.220074	0.080790
C46	C	1.539794	-0.139271	0.046845
C47	C	1.540292	-0.139660	-0.038845
C48	C	1.400601	-0.250911	-0.025871
C49	C	1.401301	-0.252461	0.059721
C50	C	1.511131	-0.219958	0.164641
C51	C	1.510797	-0.220382	-0.151430
H52	H	1.572943	-0.650765	-0.383535
H53	H	1.078480	-0.297771	-0.415411
H54	H	0.944247	-0.142784	-0.570709
H55	H	1.340347	-0.798226	-0.499464
H56	H	0.906701	-0.268232	-0.445032
H57	H	1.572889	-0.777993	-0.383208
H58	H	1.373084	-0.796794	-0.404688
H59	H	1.672900	-0.769728	-0.463364
H60	H	1.340005	-0.215013	-0.040720
H61	H	1.379596	-0.311982	0.082192
H62	H	1.337661	-0.671173	-0.494419
H63	H	1.620876	-0.114940	-0.066237
H64	H	1.619533	-0.114285	0.060954
H65	H	1.574837	-0.329003	0.064890
H66	H	1.673504	-0.248809	-0.072500
H67	H	1.374164	-0.309439	-0.044891
H68	H	1.673627	-0.642032	-0.463730
H69	H	1.337580	-0.219873	0.086828
H70	H	1.116019	-0.172308	-0.541097
H71	H	1.485388	-0.785269	-0.612694
H72	H	1.622294	-0.772171	-0.597757
H73	H	1.483989	-0.658664	-0.612557
H74	H	1.620766	-0.645236	-0.598218
H75	H	1.378277	-0.668762	-0.401902
H76	H	1.674422	-0.248233	0.055047
H77	H	1.574541	-0.329530	-0.062307
H78	H	1.483561	-0.100967	-0.054521
H79	H	1.482371	-0.100898	0.072319
