data_functionalizedCrystal
_audit_creation_method	'MofGen! by Chris Wilmer'
_symmetry_space_group_name_H-M	'P1'
_symmetry_Int_Tables_number	1
_symmetry_cell_setting	triclinic
loop_
_symmetry_equiv_pos_as_xyz
  x,y,z
_cell_length_a	9.065218
_cell_length_b	10.654550
_cell_length_c	7.540329
_cell_angle_alpha	89.996554
_cell_angle_beta	89.996962
_cell_angle_gamma	84.750408
loop_
_atom_site_label
_atom_site_type_symbol
_atom_site_fract_x
_atom_site_fract_y
_atom_site_fract_z
O1	O	1.959392	0.184158	-0.147487
O2	O	2.459392	0.684158	0.352513
O3	O	1.530024	0.199263	-0.147489
O4	O	2.030024	0.699263	0.352511
O5	O	1.754580	0.009010	-0.147477
O6	O	2.254580	0.509010	0.352523
O7	O	1.734836	0.374410	-0.147499
O8	O	2.234836	0.874410	0.352501
O9	O	1.754567	0.009008	0.147488
O10	O	2.254567	0.509008	0.647488
O11	O	1.530011	0.199261	0.147476
O12	O	2.030011	0.699261	0.647476
O13	O	1.959378	0.184155	0.147478
O14	O	2.459378	0.684155	0.647478
Cu15	Cu	1.744693	0.191708	0.174410
Cu16	Cu	2.244693	0.691708	0.674410
Cu17	Cu	1.744709	0.191711	-0.174421
Cu18	Cu	2.244709	0.691711	0.325579
O19	O	1.734823	0.374408	0.147466
O20	O	2.234823	0.874408	0.647466
C21	C	1.475039	0.197810	-0.000007
C22	C	1.975039	0.697810	0.499993
C23	C	1.311220	0.193469	-0.000008
C24	C	1.811220	0.693469	0.499992
C25	C	1.753124	-0.037795	0.000005
C26	C	2.253124	0.462205	0.500005
C27	C	1.748786	-0.177255	0.000002
C28	C	2.248786	0.322745	0.500002
C29	C	1.881001	-0.256217	0.000002
C30	C	2.381001	0.243783	0.500002
C31	C	1.876917	-0.387254	-0.000019
C32	C	2.376917	0.112746	0.499981
C33	C	1.608391	-0.360354	-0.000034
C34	C	2.108391	0.139646	0.499966
C35	C	1.612477	-0.229320	-0.000025
C36	C	2.112477	0.270680	0.499975
C37	C	2.032639	-0.582481	-0.103368
C38	C	2.532639	-0.082481	0.396632
C39	C	2.164861	-0.661449	-0.103337
C40	C	2.664861	-0.161449	0.396663
C41	C	2.284719	-0.630803	0.000031
C42	C	2.784719	-0.130803	0.500031
C43	C	2.272361	-0.521192	0.103411
C44	C	2.772361	-0.021192	0.603411
C45	C	2.140137	-0.442232	0.103397
C46	C	2.640137	0.057768	0.603397
C47	C	2.020284	-0.472876	-0.000013
C48	C	2.520284	0.027124	0.499987
C49	C	1.456764	-0.034091	0.103338
C50	C	1.956764	0.465909	0.603338
C51	C	1.324539	0.044872	0.103336
C52	C	1.824539	0.544872	0.603336
C53	C	1.204668	0.014230	-0.000021
C54	C	1.704668	0.514230	0.499979
C55	C	1.217012	-0.095383	-0.103375
C56	C	1.717012	0.404617	0.396625
C57	C	1.349237	-0.174347	-0.103373
C58	C	1.849237	0.325653	0.396627
C59	C	1.469109	-0.143695	-0.000019
C60	C	1.969109	0.356305	0.499981
C61	C	2.014364	0.185608	-0.000008
C62	C	2.514364	0.685608	0.499992
C63	C	2.178183	0.189949	-0.000019
C64	C	2.678183	0.689949	0.499981
C65	C	1.736279	0.421213	-0.000020
C66	C	2.236279	0.921213	0.499980
C67	C	1.740616	0.560673	-0.000028
C68	C	2.240616	1.060673	0.499972
N69	N	1.744693	0.191705	0.419758
N70	N	2.244693	0.691705	0.919758
N71	N	1.744721	0.191703	-0.419769
N72	N	2.244721	0.691703	0.080231
H73	H	1.991993	-0.213831	0.000020
H74	H	2.491993	0.286169	0.500020
H75	H	2.130073	-0.352992	0.187573
H76	H	2.630073	0.147008	0.687573
H77	H	1.359288	-0.263590	-0.187556
H78	H	1.859288	0.236410	0.312444
F79	F	2.178009	-0.778099	-0.213365
F80	F	2.678009	-0.278099	0.286635
F81	F	1.089429	-0.128004	-0.213372
F82	F	1.589429	0.371996	0.286628
F83	F	1.905087	-0.615094	-0.213419
F84	F	2.405087	-0.115094	0.286581
H85	H	1.314490	0.134117	0.187515
H86	H	1.814490	0.634117	0.687515
F87	F	1.584347	-0.001466	0.213340
F88	F	2.084347	0.498534	0.713340
F89	F	1.463329	-0.415777	-0.000064
F90	F	1.963329	0.084223	0.499936
H91	H	2.369960	-0.496258	0.187596
H92	H	2.869960	0.003742	0.687596
H93	H	2.392377	-0.695107	0.000053
H94	H	2.892377	-0.195107	0.500053
H95	H	1.096996	0.078524	0.000009
H96	H	1.596996	0.578524	0.500009
