data_functionalizedCrystal
_audit_creation_method	'MofGen! by Chris Wilmer'
_symmetry_space_group_name_H-M	'P1'
_symmetry_Int_Tables_number	1
_symmetry_cell_setting	triclinic
loop_
_symmetry_equiv_pos_as_xyz
  x,y,z
_cell_length_a	12.837942
_cell_length_b	10.654547
_cell_length_c	11.892095
_cell_angle_alpha	86.062459
_cell_angle_beta	94.302569
_cell_angle_gamma	89.657498
loop_
_atom_site_label
_atom_site_type_symbol
_atom_site_fract_x
_atom_site_fract_y
_atom_site_fract_z
O1	O	0.139161	1.690988	-0.094023
O2	O	0.153041	1.327024	-0.094021
O3	O	-0.004860	1.500935	-0.094015
O4	O	0.297061	1.517077	-0.094029
O5	O	0.008285	1.486432	0.093992
O6	O	0.166186	1.312521	0.093986
O7	O	0.152306	1.676485	0.093984
Zn8	Zn	0.161333	1.492201	0.123836
Zn9	Zn	0.144014	1.511309	-0.123872
O10	O	0.310206	1.502574	0.093978
C11	C	0.158594	1.272863	-0.000017
C12	C	0.155543	1.133087	-0.000016
C13	C	0.135460	0.886252	-0.205001
C14	C	0.129729	0.959833	-0.307484
C15	C	0.132604	1.091163	-0.307481
C16	C	0.141207	1.148917	-0.204984
C17	C	0.146938	1.075336	-0.102502
C18	C	0.144065	0.944003	-0.102516
C19	C	0.161273	1.059507	0.102467
C20	C	0.158406	0.928176	0.102467
C21	C	0.169877	1.117260	0.204964
C22	C	0.175615	1.043680	0.307449
C23	C	0.172740	0.912341	0.307442
C24	C	0.164137	0.854596	0.204949
C25	C	-0.036947	1.488231	-0.000012
C26	C	-0.152141	1.471969	-0.000013
C27	C	-0.391694	1.667475	-0.000038
C28	C	-0.499930	1.652201	-0.000040
C29	C	-0.476851	1.426148	-0.000027
C30	C	-0.368616	1.441422	-0.000025
C31	C	-0.326041	1.562089	-0.000029
C32	C	-0.217802	1.577362	-0.000019
C33	C	-0.194727	1.351311	-0.000014
C34	C	-0.302963	1.336037	-0.000016
C35	C	0.342293	1.515278	-0.000027
C36	C	0.457487	1.531541	-0.000033
C37	C	0.146753	1.730646	-0.000022
C38	C	0.149803	1.870423	-0.000030
N39	N	0.173152	1.479169	0.292889
N40	N	0.132186	1.524349	-0.292925
C41	C	0.049883	1.615022	0.529542
C42	C	0.058152	1.605923	0.647883
C43	C	0.197954	1.451866	0.647916
C44	C	0.189685	1.460965	0.529575
C45	C	0.115648	1.542547	0.470392
C46	C	0.107385	1.551652	0.352048
C47	C	0.247181	1.397589	0.352083
C48	C	0.255450	1.388490	0.470424
H49	H	0.133132	0.779316	-0.205014
H50	H	-0.183140	1.675614	-0.000018
H51	H	-0.357029	1.765726	-0.000030
F52	F	0.317181	1.320459	0.289119
H53	H	0.127936	1.151073	-0.390932
F54	F	0.161083	0.714822	0.204933
F55	F	0.028592	1.638482	0.289063
F56	F	0.184764	1.105152	0.416521
F57	F	0.172931	1.257035	0.204965
H58	H	0.004599	1.664938	0.696040
F59	F	-0.028902	1.701859	0.466554
F60	F	0.120542	0.898360	-0.416563
H61	H	0.177411	0.852439	0.390896
H62	H	-0.553382	1.738018	-0.000051
F63	F	-0.522183	1.297738	-0.000051
H64	H	-0.337642	1.237793	-0.000017
H65	H	0.143534	1.255854	-0.204991
F66	F	-0.124845	1.239144	0.000007
H67	H	0.315727	1.322064	0.518625
H68	H	0.258226	1.385435	0.696118
