data_functionalizedCrystal
_audit_creation_method	'MofGen! by Chris Wilmer'
_symmetry_space_group_name_H-M	'P1'
_symmetry_Int_Tables_number	1
_symmetry_cell_setting	triclinic
loop_
_symmetry_equiv_pos_as_xyz
  x,y,z
_cell_length_a	13.032831
_cell_length_b	13.897448
_cell_length_c	13.033109
_cell_angle_alpha	97.153140
_cell_angle_beta	76.665514
_cell_angle_gamma	82.822399
loop_
_atom_site_label
_atom_site_type_symbol
_atom_site_fract_x
_atom_site_fract_y
_atom_site_fract_z
Zn1	Zn	1.700113	-0.678106	-0.806401
Zn2	Zn	1.677445	-0.815943	-0.628782
Zn3	Zn	1.499937	-0.631189	-0.606295
Zn4	Zn	1.522460	-0.815858	-0.783826
O5	O	1.599989	-0.735274	-0.706326
O6	O	1.845742	-0.716060	-0.801698
O7	O	1.634986	-0.771836	-0.477168
O8	O	1.526552	-0.502443	-0.632875
O9	O	1.829088	-0.817329	-0.671203
O10	O	1.673620	-0.536912	-0.779893
O11	O	1.504572	-0.636098	-0.460646
O12	O	1.354289	-0.636016	-0.610986
O13	O	1.564938	-0.817184	-0.935453
O14	O	1.370836	-0.771691	-0.741418
O15	O	1.695459	-0.715978	-0.952038
O16	O	1.656825	-0.950902	-0.649313
O17	O	1.542958	-0.950840	-0.763223
C18	C	1.324023	-0.698754	-0.671313
C19	C	1.205967	-0.683157	-0.656359
C20	C	1.599907	-0.985874	-0.706286
C21	C	1.599974	-1.093100	-0.706316
C22	C	1.161536	-0.743414	-0.714130
C23	C	1.039519	-0.727296	-0.698676
C24	C	1.600094	-1.289418	-0.706397
C25	C	1.600025	-1.180173	-0.706355
C26	C	1.877032	-0.771938	-0.741477
C27	C	1.995092	-0.787562	-0.756456
C28	C	1.635240	-0.771805	-0.983361
C29	C	1.650262	-0.787373	-1.101417
C30	C	1.600102	-0.483702	-0.706394
C31	C	1.600151	-0.376498	-0.706423
C32	C	1.592433	-0.727152	-1.145876
C33	C	1.607957	-0.743241	-1.267892
C34	C	1.564936	-0.698824	-0.430376
C35	C	1.550120	-0.683012	-0.312347
H36	H	1.213830	-0.806933	-0.775036
H37	H	1.047382	-0.851083	-0.817368
C38	C	1.731763	-0.871952	-1.170987
C39	C	1.833460	-0.861345	-1.157400
C40	C	1.908565	-0.939249	-1.221455
H41	H	1.731534	-0.871602	-1.243769
H42	H	1.713961	-0.932348	-1.150855
H43	H	1.851258	-0.800965	-1.177538
H44	H	1.833723	-0.861706	-1.084631
H45	H	1.890763	-0.999645	-1.201323
H46	H	1.908327	-0.938892	-1.294234
H47	H	1.977573	-0.932068	-1.212238
H48	H	1.668963	-0.806713	-1.320159
H49	H	1.531426	-0.663689	-1.093605
C50	C	0.969738	-0.642730	-0.617313
C51	C	0.897381	-0.679914	-0.541106
C52	C	0.833093	-0.602047	-0.466127
H53	H	0.931554	-0.600397	-0.652436
H54	H	1.013400	-0.607026	-0.583005
H55	H	0.853724	-0.715602	-0.575410
H56	H	0.935535	-0.722238	-0.505956
H57	H	0.876756	-0.566344	-0.431819
H58	H	0.794917	-0.559719	-0.501259
H59	H	0.783999	-0.627266	-0.414406
C60	C	1.136182	-0.598596	-0.574999
C61	C	1.063825	-0.635780	-0.498793
C62	C	0.999538	-0.557913	-0.423813
H63	H	1.097998	-0.556263	-0.610122
H64	H	1.179844	-0.562892	-0.540692
H65	H	1.020168	-0.671467	-0.533097
H66	H	1.101979	-0.678103	-0.463643
H67	H	1.043200	-0.522209	-0.389506
H68	H	0.961362	-0.515585	-0.458946
H69	H	0.950443	-0.583132	-0.372093
C70	C	1.468861	-0.598405	-1.242491
C71	C	1.469638	-0.599247	-1.135359
C72	C	1.394808	-0.521317	-1.070978
H73	H	1.399720	-0.605367	-1.251427
H74	H	1.486728	-0.538003	-1.262545
H75	H	1.451765	-0.659634	-1.115311
H76	H	1.538761	-0.592272	-1.126389
H77	H	1.412675	-0.460915	-1.091033
H78	H	1.325673	-0.528285	-1.079924
H79	H	1.395333	-0.521872	-0.998284
