data_functionalizedCrystal
_audit_creation_method	'MofGen! by Chris Wilmer'
_symmetry_space_group_name_H-M	'P1'
_symmetry_Int_Tables_number	1
_symmetry_cell_setting	triclinic
loop_
_symmetry_equiv_pos_as_xyz
  x,y,z
_cell_length_a	6.817900
_cell_length_b	17.110477
_cell_length_c	17.110486
_cell_angle_alpha	96.939211
_cell_angle_beta	99.060439
_cell_angle_gamma	99.060298
loop_
_atom_site_label
_atom_site_type_symbol
_atom_site_fract_x
_atom_site_fract_y
_atom_site_fract_z
V1	V	-3.954938	-0.109247	-0.246618
O2	O	-3.966477	0.005492	-0.242029
O3	O	-3.885154	-0.216852	-0.244831
O4	O	-3.885155	-0.107460	-0.354223
O5	O	-3.966476	-0.104657	-0.131879
V6	V	-4.444108	-0.095536	-0.232907
O7	O	-4.203810	-0.139325	-0.276696
O8	O	-4.645433	-0.065458	-0.202830
O9	O	-4.290685	0.012069	-0.234695
O10	O	-4.549965	-0.210275	-0.237496
O11	O	-4.549966	-0.100126	-0.347646
O12	O	-4.290684	-0.097322	-0.125302
C13	C	-3.725645	-0.243087	-0.240914
C14	C	-3.749732	-0.331054	-0.240170
C15	C	-3.941549	-0.376408	-0.243763
C16	C	-3.964171	-0.459064	-0.243069
C17	C	-3.794973	-0.496363	-0.238775
C18	C	-3.603142	-0.451003	-0.235183
C19	C	-3.580524	-0.368350	-0.235884
C20	C	-3.854236	-0.745721	-0.236467
C21	C	-3.876869	-0.828379	-0.235765
C22	C	-4.237899	-0.836434	-0.243652
C23	C	-4.215261	-0.753779	-0.244347
C24	C	-4.023435	-0.708427	-0.240760
C25	C	-3.818092	-0.580849	-0.238062
C26	C	-4.000321	-0.623943	-0.241478
C27	C	-3.725645	-0.103546	-0.380454
C28	C	-3.749732	-0.102797	-0.468421
C29	C	-3.941550	-0.106395	-0.513775
C30	C	-3.964170	-0.105690	-0.596429
C31	C	-3.794972	-0.101394	-0.633728
C32	C	-3.603137	-0.097794	-0.588367
C33	C	-3.580518	-0.098493	-0.505714
C34	C	-3.854235	-0.099083	-0.883085
C35	C	-3.876871	-0.098387	-0.965745
C36	C	-4.237903	-0.106281	-0.973801
C37	C	-4.215268	-0.106984	-0.891147
C38	C	-4.023435	-0.103380	-0.845792
C39	C	-3.818089	-0.100677	-0.718214
C40	C	-4.000318	-0.104092	-0.761307
C41	C	-4.113536	0.038300	-0.238609
C42	C	-4.068686	0.126267	-0.239358
C43	C	-4.113536	-0.101239	-0.099067
C44	C	-4.068689	-0.101984	-0.011099
H45	H	-3.465381	-0.481379	-0.231692
O46	O	-4.150594	-0.109321	-0.640467
C47	C	-4.488328	-0.184675	-0.683269
C48	C	-4.277270	-0.180681	-0.633385
H49	H	-4.590816	-0.242357	-0.677546
H50	H	-4.475595	-0.183484	-0.748771
H51	H	-4.554860	-0.131102	-0.660373
H52	H	-4.210617	-0.234243	-0.656211
H53	H	-4.290133	-0.181834	-0.567890
H54	H	-4.353051	-0.110482	-0.860784
O55	O	-4.150368	-0.503177	-0.246430
C56	C	-4.363249	-0.590426	-0.181292
C57	C	-4.152267	-0.540523	-0.177403
H58	H	-4.364866	-0.620621	-0.125483
H59	H	-4.400889	-0.638001	-0.236746
H60	H	-4.480240	-0.549548	-0.184507
H61	H	-4.035138	-0.581337	-0.174158
H62	H	-4.114799	-0.492941	-0.121957
H63	H	-3.424329	-0.331424	-0.232961
H64	H	-4.138081	-0.593571	-0.244979
H65	H	-3.739083	-0.858748	-0.232287
O66	O	-4.424163	-0.109880	-1.017962
C67	C	-4.681457	-0.182560	-1.126602
C68	C	-4.470468	-0.178574	-1.076664
H69	H	-4.718978	-0.238103	-1.174064
H70	H	-4.683203	-0.126841	-1.156939
H71	H	-4.798459	-0.185710	-1.085728
H72	H	-4.353346	-0.175450	-1.117483
H73	H	-4.468891	-0.234291	-1.046319
O74	O	-3.394322	-0.095115	-0.461590
C75	C	-3.181408	-0.160215	-0.374312
C76	C	-3.392385	-0.164134	-0.424232
H77	H	-3.179760	-0.216017	-0.344108
H78	H	-3.143827	-0.104756	-0.326743
H79	H	-3.064393	-0.156990	-0.415179
H80	H	-3.509537	-0.167390	-0.383429
H81	H	-3.429794	-0.219584	-0.471808
H82	H	-3.739078	-0.094886	-0.996110
H83	H	-4.394077	-0.873368	-0.246572
O84	O	-3.667972	-0.095533	-0.838954
C85	C	-3.410754	-0.023101	-0.730159
C86	C	-3.621663	-0.026956	-0.780108
H87	H	-3.373265	0.032330	-0.682560
H88	H	-3.293510	-0.019897	-0.770929
H89	H	-3.409410	-0.078925	-0.699974
H90	H	-3.623205	0.028854	-0.810300
H91	H	-3.738815	-0.030200	-0.739300
H92	H	-3.698041	-0.708804	-0.233542
O93	O	-3.438894	-0.093516	-0.624671
C94	C	-3.232657	-0.019263	-0.702601
C95	C	-3.418744	-0.024016	-0.661540
H96	H	-3.216281	0.036932	-0.732405
H97	H	-3.252118	-0.074328	-0.749763
H98	H	-3.091710	-0.016850	-0.655978
H99	H	-3.559778	-0.026404	-0.708104
H100	H	-3.399107	0.031047	-0.614363
H101	H	-3.680333	-0.611227	-0.234563
H102	H	-4.138076	-0.107587	-0.730935
H103	H	-4.079330	-0.346045	-0.247252
H104	H	-4.353047	-0.723417	-0.247849
H105	H	-4.079336	-0.109898	-0.483414
H106	H	-3.680332	-0.097182	-0.748592
