data_functionalizedCrystal
_audit_creation_method	'MofGen! by Chris Wilmer'
_symmetry_space_group_name_H-M	'P1'
_symmetry_Int_Tables_number	1
_symmetry_cell_setting	triclinic
loop_
_symmetry_equiv_pos_as_xyz
  x,y,z
_cell_length_a	15.298114
_cell_length_b	18.215405
_cell_length_c	18.215399
_cell_angle_alpha	90.030551
_cell_angle_beta	99.672562
_cell_angle_gamma	99.636644
loop_
_atom_site_label
_atom_site_type_symbol
_atom_site_fract_x
_atom_site_fract_y
_atom_site_fract_z
Zn1	Zn	1.378987	0.487456	-0.221023
Zn2	Zn	1.712320	0.820789	0.112311
Zn3	Zn	2.045654	1.154122	0.445644
Zn4	Zn	1.378875	0.610511	-0.097967
Zn5	Zn	1.712208	0.943844	0.235367
Zn6	Zn	2.045541	1.277178	0.568700
Zn7	Zn	1.228145	0.466207	-0.119309
Zn8	Zn	1.561478	0.799540	0.214024
Zn9	Zn	1.894811	1.132874	0.547358
Zn10	Zn	1.228103	0.589207	-0.242321
Zn11	Zn	1.561436	0.922541	0.091013
Zn12	Zn	1.894770	1.255874	0.424346
O13	O	1.303527	0.538345	-0.170155
O14	O	1.636861	0.871679	0.163179
O15	O	1.970194	1.205012	0.496512
O16	O	1.505199	0.521587	-0.186854
O17	O	1.838532	0.854921	0.146480
O18	O	2.171865	1.188254	0.479813
O19	O	1.358851	0.591392	0.002182
O20	O	1.692184	0.924725	0.335516
O21	O	2.025517	1.258058	0.668849
O22	O	1.248219	0.366050	-0.132820
O23	O	1.581552	0.699384	0.200513
O24	O	1.914885	1.032717	0.533847
O25	O	1.505116	0.611996	-0.096445
O26	O	1.838449	0.945329	0.236888
O27	O	2.171783	1.278662	0.570222
O28	O	1.359042	0.381662	-0.207549
O29	O	1.692375	0.714995	0.125785
O30	O	2.025709	1.048328	0.459118
O31	O	1.248110	0.485372	-0.013498
O32	O	1.581443	0.818706	0.319836
O33	O	1.914777	1.152039	0.653169
O34	O	1.101913	0.464715	-0.153472
O35	O	1.435246	0.798048	0.179861
O36	O	1.768579	1.131382	0.513195
O37	O	1.248147	0.575687	-0.342476
O38	O	1.581481	0.909020	-0.009142
O39	O	1.914814	1.242353	0.324191
O40	O	1.101882	0.555083	-0.243848
O41	O	1.435215	0.888416	0.089485
O42	O	1.768549	1.221749	0.422819
O43	O	1.359001	0.500930	-0.326828
O44	O	1.692335	0.834263	0.006505
O45	O	2.025668	1.167597	0.339839
O46	O	1.358810	0.710660	-0.117097
O47	O	1.692143	1.043994	0.216236
O48	O	2.025477	1.377327	0.549570
O49	O	1.248039	0.695008	-0.223153
O50	O	1.581372	1.028342	0.110180
O51	O	1.914705	1.361675	0.443514
C52	C	1.069168	0.505282	-0.203287
C53	C	1.402501	0.838615	0.130046
C54	C	1.735835	1.171949	0.463379
C55	C	0.968908	0.491155	-0.217479
C56	C	1.302242	0.824488	0.115854
C57	C	1.635575	1.157822	0.449187
C58	C	0.686117	0.639318	-0.068905
C59	C	1.019451	0.972651	0.264429
C60	C	1.352784	1.305984	0.597762
C61	C	0.780316	0.652590	-0.055565
C62	C	1.113650	0.985923	0.277768
C63	C	1.446983	1.319256	0.611101
C64	C	0.827469	0.612232	-0.096043
C65	C	1.160802	0.945566	0.237290
C66	C	1.494136	1.278899	0.570624
C67	C	0.780413	0.558600	-0.149862
C68	C	1.113747	0.891934	0.183472
C69	C	1.447080	1.225267	0.516805
C70	C	0.686205	0.545323	-0.163198
C71	C	1.019538	0.878656	0.170135
C72	C	1.352871	1.211989	0.503468
C73	C	0.827557	0.518238	-0.190336
C74	C	1.160890	0.851571	0.142997
C75	C	1.494223	1.184904	0.476330
C76	C	0.780501	0.464606	-0.244155
C77	C	1.113834	0.797939	0.089178
C78	C	1.447167	1.131272	0.422511
C79	C	0.686302	0.451331	-0.257490
C80	C	1.019635	0.784664	0.075844
C81	C	1.352968	1.117998	0.409177
C82	C	0.639149	0.491688	-0.217012
C83	C	0.972482	0.825021	0.116321
C84	C	1.305816	1.158355	0.449654
C85	C	0.921765	0.531515	-0.177000
C86	C	1.255098	0.864849	0.156334
C87	C	1.588432	1.198182	0.489667
C88	C	0.921852	0.437520	-0.271293
C89	C	1.255186	0.770854	0.062040
C90	C	1.588519	1.104187	0.395373
C91	C	0.827653	0.424248	-0.284633
C92	C	1.160987	0.757582	0.048701
C93	C	1.494320	1.090915	0.382034
C94	C	1.303432	0.729538	-0.170133
C95	C	1.636765	1.062871	0.163201
C96	C	1.970099	1.396205	0.496534
C97	C	1.303474	0.811343	-0.170136
C98	C	1.636807	1.144676	0.163197
C99	C	1.970141	1.478010	0.496530
C100	C	1.303582	0.538302	-0.362100
C101	C	1.636916	0.871636	-0.028767
C102	C	1.970249	1.204969	0.304567
C103	C	1.303606	0.538284	-0.443896
C104	C	1.636939	0.871617	-0.110562
C105	C	1.970272	1.204951	0.222771
C106	C	1.538802	0.571538	-0.136893
C107	C	1.872135	0.904871	0.196440
C108	C	2.205468	1.238205	0.529774
C109	C	1.639062	0.585683	-0.122719
C110	C	1.972395	0.919016	0.210615
C111	C	2.305728	1.252350	0.543948
C112	C	1.303648	0.346409	-0.170189
C113	C	1.636981	0.679743	0.163144
C114	C	1.970314	1.013076	0.496477
C115	C	1.303699	0.264618	-0.170204
C116	C	1.637032	0.597951	0.163129
C117	C	1.970365	0.931284	0.496463
C118	C	1.361288	1.007681	-0.114980
C119	C	1.694621	1.341015	0.218353
C120	C	2.027955	1.674348	0.551686
C121	C	1.361328	1.084546	-0.114992
C122	C	1.694662	1.417879	0.218341
C123	C	2.027995	1.751212	0.551674
C124	C	1.245882	1.068273	-0.225366
C125	C	1.579215	1.401607	0.107968
C126	C	1.912549	1.734940	0.441301
C127	C	1.245847	0.991411	-0.225356
C128	C	1.579180	1.324744	0.107977
C129	C	1.912514	1.658078	0.441311
C130	C	1.303549	0.961117	-0.170159
C131	C	1.636882	1.294450	0.163174
C132	C	1.970215	1.627784	0.496507
C133	C	1.303624	1.114844	-0.170181
C134	C	1.636957	1.448177	0.163152
C135	C	1.970291	1.781510	0.496486
C136	C	1.303667	1.198183	-0.170195
C137	C	1.637001	1.531517	0.163139
C138	C	1.970334	1.864850	0.496472
C139	C	1.303507	0.877772	-0.170146
C140	C	1.636840	1.211105	0.163187
C141	C	1.970173	1.544439	0.496520
C142	C	1.361348	0.499317	-0.623940
C143	C	1.694681	0.832650	-0.290607
C144	C	2.028015	1.165984	0.042727
C145	C	1.361359	0.499297	-0.700797
C146	C	1.694692	0.832630	-0.367464
C147	C	2.028025	1.165964	-0.034131
C148	C	1.245927	0.577146	-0.717080
C149	C	1.579260	0.910479	-0.383747
C150	C	1.912594	1.243813	-0.050413
C151	C	1.245912	0.577161	-0.640225
C152	C	1.579246	0.910494	-0.306891
C153	C	1.912579	1.243828	0.026442
C154	C	1.303628	0.538248	-0.593656
C155	C	1.636961	0.871582	-0.260323
C156	C	1.970295	1.204915	0.073011
C157	C	1.303653	0.538213	-0.747369
C158	C	1.636987	0.871547	-0.414035
C159	C	1.970320	1.204880	-0.080702
C160	C	1.303665	0.538192	-0.830701
C161	C	1.636998	0.871525	-0.497367
C162	C	1.970331	1.204859	-0.164034
C163	C	1.303616	0.538268	-0.510319
C164	C	1.636949	0.871602	-0.176985
C165	C	1.970283	1.204935	0.156348
C166	C	1.303524	0.538342	0.021051
C167	C	1.636858	0.871676	0.354384
C168	C	1.970191	1.205009	0.687718
C169	C	1.303676	0.538178	0.102871
C170	C	1.637009	0.871511	0.436204
C171	C	1.970343	1.204845	0.769538
H172	H	0.647717	0.672166	-0.035949
H173	H	0.981051	1.005499	0.297384
H174	H	1.314384	1.338832	0.630717
C175	C	1.182410	0.619988	-0.606911
C176	C	1.515743	0.953322	-0.273578
C177	C	1.849077	1.286655	0.059756
N178	N	1.134579	0.652242	-0.581819
N179	N	1.467913	0.985575	-0.248486
N180	N	1.801246	1.318909	0.084847
H181	H	0.960069	0.575183	-0.133180
H182	H	1.293402	0.908516	0.200153
H183	H	1.626735	1.241850	0.533487
C184	C	1.182344	0.940189	-0.286073
C185	C	1.515678	1.273523	0.047260
C186	C	1.849011	1.606856	0.380594
N187	N	1.134524	0.901610	-0.331808
N188	N	1.467858	1.234944	0.001525
N189	N	1.801191	1.568277	0.334858
C190	C	1.424858	0.456471	-0.734106
C191	C	1.758191	0.789805	-0.400772
C192	C	2.091524	1.123138	-0.067439
N193	N	1.472688	0.424213	-0.759192
N194	N	1.806021	0.757547	-0.425859
N195	N	2.139354	1.090880	-0.092526
H196	H	0.904170	0.623042	-0.085179
H197	H	1.237504	0.956375	0.248155
H198	H	1.570837	1.289709	0.581488
C199	C	0.832071	0.711584	0.003633
C200	C	1.165404	1.044917	0.336966
C201	C	1.498738	1.378251	0.670299
N202	N	0.871053	0.756023	0.048223
N203	N	1.204386	1.089356	0.381556
N204	N	1.537720	1.422689	0.714890
H205	H	0.647991	0.407655	-0.301308
H206	H	0.981325	0.740988	0.032026
H207	H	1.314658	1.074322	0.365359
H208	H	0.562444	0.480887	-0.227873
H209	H	0.895778	0.814220	0.105461
H210	H	1.229111	1.147554	0.438794
H211	H	0.789327	0.380580	-0.328452
H212	H	1.122660	0.713913	0.004881
H213	H	1.455994	1.047247	0.338215
H214	H	0.960244	0.404656	-0.304251
H215	H	1.293577	0.737989	0.029082
H216	H	1.626910	1.071323	0.362415
H217	H	1.408341	0.467630	-0.586026
H218	H	1.741675	0.800963	-0.252693
H219	H	2.075008	1.134296	0.080641
C220	C	1.182404	1.101603	-0.286072
C221	C	1.515737	1.434937	0.047261
C222	C	1.849070	1.768270	0.380595
N223	N	1.134586	1.126706	-0.331795
N224	N	1.467920	1.460039	0.001539
N225	N	1.801253	1.793373	0.334872
H226	H	1.408273	0.983018	-0.070037
H227	H	1.741607	1.316351	0.263297
H228	H	2.074940	1.649685	0.596630
H229	H	1.408347	1.122456	-0.070061
H230	H	1.741680	1.455789	0.263272
H231	H	2.075013	1.789123	0.596606
H232	H	1.198939	0.608829	-0.755005
H233	H	1.532272	0.942162	-0.421672
H234	H	1.865606	1.275496	-0.088338
