data_functionalizedCrystal
_audit_creation_method	'MofGen! by Chris Wilmer'
_symmetry_space_group_name_H-M	'P1'
_symmetry_Int_Tables_number	1
_symmetry_cell_setting	triclinic
loop_
_symmetry_equiv_pos_as_xyz
  x,y,z
_cell_length_a	27.732048
_cell_length_b	27.732048
_cell_length_c	14.048226
_cell_angle_alpha	90.007623
_cell_angle_beta	89.999178
_cell_angle_gamma	82.642655
loop_
_atom_site_label
_atom_site_type_symbol
_atom_site_fract_x
_atom_site_fract_y
_atom_site_fract_z
O1	O	0.640927	0.057515	0.079048
O2	O	0.500134	0.066261	0.079078
O3	O	0.574903	-0.008508	0.079044
O4	O	0.566158	0.132285	0.079082
O5	O	0.574896	-0.008508	-0.079277
O6	O	0.500127	0.066262	-0.079243
O7	O	0.640920	0.057516	-0.079273
Zn8	Zn	0.570523	0.061889	-0.104395
Zn9	Zn	0.570532	0.061888	0.104200
O10	O	0.566151	0.132286	-0.079239
C11	C	0.482124	0.066078	-0.000079
C12	C	0.428469	0.065525	-0.000068
C13	C	0.574716	-0.026515	-0.000119
C14	C	0.574164	-0.080170	-0.000127
C15	C	0.614867	-0.418985	-0.000087
C16	C	0.612816	-0.620645	-0.000073
O17	O	0.650037	-0.651900	-0.000039
N18	N	0.568481	-0.639768	-0.000064
C19	C	0.524656	-0.608474	-0.000053
O20	O	0.486899	-0.629367	-0.000035
C21	C	0.526707	-0.406815	-0.000060
C22	C	0.571045	-0.387694	-0.000078
C23	C	0.659202	-0.399864	-0.000104
C24	C	0.659714	-0.349452	-0.000113
C25	C	0.615892	-0.318161	-0.000104
C26	C	0.571557	-0.337282	-0.000087
C27	C	0.482882	-0.375521	-0.000042
C28	C	0.483399	-0.325104	-0.000041
C29	C	0.527737	-0.305983	-0.000059
C30	C	0.528247	-0.255580	-0.000087
N31	N	0.572583	-0.236456	-0.000095
C32	C	0.616405	-0.267747	-0.000104
C33	C	0.523582	-0.714348	-0.000051
C34	C	0.523069	-0.764762	-0.000051
C35	C	0.611230	-0.776930	-0.000069
C36	C	0.611742	-0.726514	-0.000076
C37	C	0.567917	-0.695224	-0.000060
C38	C	0.617477	-0.161878	-0.000123
C39	C	0.617986	-0.111461	-0.000135
C40	C	0.529825	-0.099298	-0.000112
C41	C	0.529316	-0.149710	-0.000105
C42	C	0.573147	-0.180999	-0.000107
O43	O	0.491047	-0.224296	-0.000110
O44	O	0.654156	-0.246844	-0.000100
C45	C	0.614355	-0.469397	-0.000078
C46	C	0.570021	-0.488518	-0.000061
C47	C	0.526198	-0.457228	-0.000052
C48	C	0.569508	-0.538933	-0.000061
C49	C	0.613330	-0.570223	-0.000069
C50	C	0.657665	-0.551100	-0.000078
C51	C	0.658177	-0.500688	-0.000087
C52	C	0.481863	-0.476351	-0.000044
C53	C	0.481355	-0.526764	-0.000036
C54	C	0.525177	-0.558054	-0.000045
C55	C	0.089654	0.106229	-0.000098
C56	C	-0.112006	0.104178	-0.000107
O57	O	-0.143262	0.141398	-0.000138
N58	N	-0.131130	0.059843	-0.000118
C59	C	-0.099835	0.016017	-0.000132
O60	O	-0.120728	-0.021740	-0.000151
C61	C	0.101824	0.018068	-0.000130
C62	C	0.120944	0.062407	-0.000110
C63	C	0.108775	0.150563	-0.000079
C64	C	0.159187	0.151075	-0.000072
C65	C	0.190477	0.107253	-0.000083
C66	C	0.171356	0.062919	-0.000102
C67	C	0.133117	-0.025757	-0.000151
C68	C	0.183535	-0.025240	-0.000153
C69	C	0.202655	0.019098	-0.000133
C70	C	0.253059	0.019609	-0.000106
N71	N	0.272183	0.063944	-0.000096
C72	C	0.240892	0.107766	-0.000084
C73	C	-0.205709	0.014943	-0.000131
C74	C	-0.256124	0.014430	-0.000130
C75	C	-0.268291	0.102591	-0.000107
C76	C	-0.217876	0.103104	-0.000102
C77	C	-0.186585	0.059278	-0.000121
C78	C	0.346761	0.108839	-0.000068
C79	C	0.397178	0.109347	-0.000057
C80	C	0.409341	0.021186	-0.000084
C81	C	0.358929	0.020678	-0.000091
C82	C	0.327639	0.064508	-0.000086
O83	O	0.284343	-0.017592	-0.000086
O84	O	0.261794	0.145518	-0.000087
C85	C	0.039242	0.105716	-0.000106
C86	C	0.020120	0.061382	-0.000125
C87	C	0.051411	0.017560	-0.000136
C88	C	-0.030294	0.060869	-0.000123
C89	C	-0.061585	0.104691	-0.000112
C90	C	-0.042461	0.149026	-0.000102
C91	C	0.007951	0.149539	-0.000094
C92	C	0.032287	-0.026775	-0.000146
C93	C	-0.018125	-0.027284	-0.000153
C94	C	-0.049416	0.016538	-0.000141
C95	C	0.658931	0.057699	-0.000114
C96	C	0.712586	0.058252	-0.000119
C97	C	0.566338	0.150292	-0.000074
C98	C	0.566891	0.203947	-0.000060
N99	N	0.570520	0.061889	-0.246756
C100	C	0.541442	0.032767	-0.703625
C101	C	0.541441	0.032766	-0.603967
C102	C	0.570533	0.061884	-0.554126
C103	C	0.599632	0.091002	-0.603947
C104	C	0.599636	0.091000	-0.703603
C105	C	0.599621	0.091004	-0.396233
C106	C	0.599616	0.091006	-0.296570
C107	C	0.541425	0.032769	-0.296597
C108	C	0.541429	0.032768	-0.396253
C109	C	0.570528	0.061886	-0.446067
N110	N	0.570538	0.061884	0.246561
H111	H	0.653168	-0.187348	-0.000121
O112	O	0.510069	0.001346	-0.450017
H113	H	0.489844	-0.018912	-0.398638
O114	O	0.510051	0.001368	-0.550239
H115	H	0.533414	-0.024776	-0.504842
H116	H	-0.180236	-0.020747	-0.000147
O117	O	0.436127	-0.291358	-0.000034
H118	H	0.434250	-0.268093	0.064496
H119	H	0.117558	-0.061861	-0.000168
H120	H	0.623304	0.114719	-0.255992
O121	O	0.704932	-0.584853	-0.000088
H122	H	0.697122	-0.623120	-0.000073
O123	O	-0.276744	-0.033392	-0.000138
H124	H	-0.299424	-0.035733	-0.064666
H125	H	0.445246	-0.542327	-0.000030
H126	H	0.623329	0.114710	-0.744160
H127	H	0.517731	0.009061	-0.256033
O128	O	0.434596	-0.442604	-0.000052
H129	H	0.403684	-0.464377	-0.000055
H130	H	0.623317	0.114714	-0.436789
H131	H	0.695819	-0.333889	-0.000124
H132	H	0.694889	-0.425336	-0.000107
H133	H	0.654093	-0.095896	-0.000153
H134	H	0.647846	-0.710950	-0.000090
O135	O	0.631006	0.122412	-0.550191
H136	H	0.657155	0.099064	-0.504778
O137	O	0.417802	0.157171	-0.000036
H138	H	0.440485	0.159511	-0.064558
H139	H	0.493213	-0.165279	-0.000116
H140	H	0.646911	-0.802415	-0.000077
H141	H	0.486964	-0.780325	-0.000053
H142	H	0.487892	-0.688875	-0.000038
H143	H	-0.067947	0.184708	-0.000088
H144	H	0.517750	0.009058	-0.744199
H145	H	0.494146	-0.073812	-0.000108
O146	O	0.435060	-0.396138	-0.000019
H147	H	0.404679	-0.365902	-0.000001
O148	O	0.217285	-0.072509	-0.000170
H149	H	0.195515	-0.103423	-0.000177
H150	H	0.694282	-0.485125	-0.000101
O151	O	0.313017	0.156111	-0.000054
H152	H	0.334790	0.187022	-0.000031
H153	H	0.434827	-0.014492	-0.000090
H154	H	0.174750	0.187180	-0.000055
H155	H	0.083302	0.186251	-0.000073
H156	H	-0.033688	-0.063392	-0.000161
O157	O	-0.197253	0.150924	-0.000098
H158	H	-0.227486	0.181307	-0.000098
H159	H	0.057760	-0.062462	-0.000158
O160	O	-0.302044	0.149859	-0.000109
H161	H	-0.340311	0.142048	-0.000122
O162	O	0.338300	-0.027142	-0.000109
H163	H	0.368531	-0.057528	-0.000120
H164	H	0.023514	0.185643	-0.000079
