data_functionalizedCrystal
_audit_creation_method	'MofGen! by Chris Wilmer'
_symmetry_space_group_name_H-M	'P1'
_symmetry_Int_Tables_number	1
_symmetry_cell_setting	triclinic
loop_
_symmetry_equiv_pos_as_xyz
  x,y,z
_cell_length_a	14.908520
_cell_length_b	11.169417
_cell_length_c	14.908308
_cell_angle_alpha	86.718701
_cell_angle_beta	96.360765
_cell_angle_gamma	86.678597
loop_
_atom_site_label
_atom_site_type_symbol
_atom_site_fract_x
_atom_site_fract_y
_atom_site_fract_z
Zn1	Zn	-0.389851	-1.763991	-0.532495
Zn2	Zn	-0.532497	-1.763855	-0.389865
Zn3	Zn	-0.381156	-1.575581	-0.381160
Zn4	Zn	-0.541172	-1.550958	-0.541183
O5	O	-0.461169	-1.663596	-0.461176
O6	O	-0.408782	-1.931922	-0.513582
O7	O	-0.505151	-1.749128	-0.262050
O8	O	-0.255645	-1.610935	-0.393956
O9	O	-0.513582	-1.931822	-0.408792
O10	O	-0.262033	-1.749360	-0.505141
O11	O	-0.393962	-1.610803	-0.255654
O12	O	-0.402374	-1.404366	-0.402381
O13	O	-0.528369	-1.568970	-0.666691
O14	O	-0.519938	-1.386276	-0.519949
O15	O	-0.417194	-1.725485	-0.660308
O16	O	-0.660312	-1.725252	-0.417217
O17	O	-0.666686	-1.568838	-0.528389
C18	C	-0.461155	-1.351774	-0.461163
C19	C	-0.461172	-1.218371	-0.461181
C20	C	-0.696343	-1.644389	-0.474710
C21	C	-0.796953	-1.636280	-0.480530
C22	C	-0.474719	-1.644496	-0.697260
C23	C	-0.480493	-1.636356	-0.797865
C24	C	-0.979318	-1.784066	-0.375797
C25	C	-1.073850	-1.776451	-0.381263
C26	C	-1.080552	-1.613441	-0.496932
C27	C	-0.986019	-1.621056	-0.491466
C28	C	-0.935406	-1.706370	-0.430895
C29	C	-0.840872	-1.713979	-0.425426
C30	C	-0.847575	-1.550975	-0.541099
C31	C	-0.942107	-1.543360	-0.546565
C32	C	-0.225078	-1.682909	-0.447609
C33	C	-0.124470	-1.691140	-0.441827
C34	C	-0.461184	-1.976637	-0.461189
C35	C	-0.461191	-2.110036	-0.461194
C36	C	-0.375556	-1.784038	-0.980266
C37	C	-0.380979	-1.776394	-1.074793
C38	C	-0.496755	-1.613420	-1.081448
C39	C	-0.491333	-1.621064	-0.986921
C40	C	-0.430732	-1.706377	-0.936333
C41	C	-0.425315	-1.714026	-0.841804
C42	C	-0.541087	-1.551047	-0.848460
C43	C	-0.546509	-1.543403	-0.942988
C44	C	-0.447606	-1.682697	-0.226006
C45	C	-0.441577	-1.691090	-0.125387
H46	H	-0.799662	-1.783443	-0.376104
O47	O	-0.930099	-1.866768	-0.316860
C48	C	-0.816344	-1.901518	-0.188537
C49	C	-0.872039	-1.807731	-0.255210
H50	H	-0.769375	-1.853824	-0.138687
H51	H	-0.863921	-1.955728	-0.150020
H52	H	-0.774457	-1.964451	-0.227592
H53	H	-0.913931	-1.744719	-0.216224
H54	H	-0.824413	-1.753609	-0.293727
O55	O	-0.991174	-1.460335	-0.605349
C56	C	-1.022773	-1.250243	-0.650784
C57	C	-0.967135	-1.344147	-0.584165
H58	H	-1.003371	-1.156283	-0.633669
H59	H	-1.008315	-1.266727	-0.722720
H60	H	-1.097878	-1.258206	-0.645246
H61	H	-0.892014	-1.336240	-0.589622
H62	H	-0.981669	-1.327635	-0.512257
H63	H	-0.375973	-1.783493	-0.800617
H64	H	-0.595846	-1.473942	-0.984189
O65	O	-1.116621	-1.851767	-0.327729
C66	C	-1.216377	-1.869408	-0.211722
C67	C	-1.167998	-1.783959	-0.272292
H68	H	-1.257912	-1.814621	-0.166873
H69	H	-1.263010	-1.925140	-0.255870
H70	H	-1.163964	-1.931741	-0.167536
H71	H	-1.220347	-1.721553	-0.316488
H72	H	-1.121348	-1.728312	-0.228091
O73	O	-0.805027	-1.475533	-0.594757
C74	C	-0.784881	-1.407005	-0.747002
C75	C	-0.833143	-1.492488	-0.686348
H76	H	-0.807579	-1.420701	-0.821066
H77	H	-0.802652	-1.310013	-0.732189
H78	H	-0.708623	-1.427075	-0.732646
H79	H	-0.909410	-1.472526	-0.700670
H80	H	-0.815298	-1.589454	-0.701172
H81	H	-0.326218	-1.853509	-0.939077
O82	O	-0.555583	-1.530641	-1.130734
C83	C	-0.615165	-1.446557	-1.279309
C84	C	-0.548526	-1.540387	-1.223604
H85	H	-0.609469	-1.454388	-1.354403
H86	H	-0.687119	-1.463142	-1.265006
H87	H	-0.598195	-1.352610	-1.259743
H88	H	-0.565413	-1.634372	-1.243137
H89	H	-0.476592	-1.523698	-1.237912
H90	H	-1.121778	-1.543989	-0.546251
O91	O	-0.594644	-1.475426	-0.805877
C92	C	-0.636874	-1.270025	-0.779423
C93	C	-0.576185	-1.355521	-0.827721
H94	H	-0.621958	-1.173065	-0.797052
H95	H	-0.710944	-1.283525	-0.802223
H96	H	-0.622603	-1.290205	-0.703178
H97	H	-0.590376	-1.335393	-0.903973
H98	H	-0.502134	-1.342005	-0.804848
H99	H	-0.336046	-1.839631	-1.110560
