data_functionalizedCrystal
_audit_creation_method	'MofGen! by Chris Wilmer'
_symmetry_space_group_name_H-M	'P1'
_symmetry_Int_Tables_number	1
_symmetry_cell_setting	triclinic
loop_
_symmetry_equiv_pos_as_xyz
  x,y,z
_cell_length_a	12.594516
_cell_length_b	21.395362
_cell_length_c	21.395355
_cell_angle_alpha	90.048039
_cell_angle_beta	89.988593
_cell_angle_gamma	89.965683
loop_
_atom_site_label
_atom_site_type_symbol
_atom_site_fract_x
_atom_site_fract_y
_atom_site_fract_z
Zn1	Zn	-0.423347	-0.957923	-0.354685
Zn2	Zn	0.076653	-0.457923	0.145315
Zn3	Zn	-0.601311	-0.957853	-0.249921
Zn4	Zn	-0.101311	-0.457853	0.250079
Zn5	Zn	-0.423403	-0.853138	-0.249879
Zn6	Zn	0.076597	-0.353138	0.250121
Zn7	Zn	-0.601340	-0.853134	-0.354618
Zn8	Zn	-0.101340	-0.353134	0.145382
O9	O	-0.512350	-0.905512	-0.302276
O10	O	-0.012350	-0.405512	0.197724
O11	O	-0.446918	-1.045592	-0.340834
O12	O	0.053082	-0.545592	0.159166
O13	O	-0.577723	-0.943934	-0.162237
O14	O	-0.077723	-0.443934	0.337763
O15	O	-0.274450	-0.867070	-0.263792
O16	O	0.225550	-0.367070	0.236208
O17	O	-0.577667	-1.045540	-0.263863
O18	O	-0.077667	-0.545540	0.236137
O19	O	-0.274408	-0.944055	-0.340793
O20	O	0.225592	-0.444055	0.159207
O21	O	-0.447015	-0.867001	-0.162207
O22	O	0.052985	-0.367001	0.337793
O23	O	-0.447043	-0.765460	-0.263727
O24	O	0.052957	-0.265460	0.236273
O25	O	-0.577717	-0.867063	-0.442305
O26	O	-0.077717	-0.367063	0.057695
O27	O	-0.577773	-0.765457	-0.340678
O28	O	-0.077773	-0.265457	0.159322
O29	O	-0.446946	-0.944051	-0.442354
O30	O	0.053054	-0.444051	0.057646
O31	O	-0.750261	-0.943930	-0.263798
O32	O	-0.250261	-0.443930	0.236202
O33	O	-0.750282	-0.866994	-0.340719
O34	O	-0.250282	-0.366994	0.159281
C35	C	-0.512418	-0.742724	-0.302191
C36	C	-0.012418	-0.242724	0.197809
C37	C	-0.512473	-0.673083	-0.302170
C38	C	-0.012473	-0.173083	0.197830
C39	C	-0.580636	-0.640385	-0.342176
C40	C	-0.080636	-0.140385	0.157824
C41	C	-0.580614	-0.574950	-0.342200
C42	C	-0.080614	-0.074950	0.157800
C43	C	-0.512441	-0.542215	-0.302205
C44	C	-0.012441	-0.042215	0.197795
C45	C	-0.444264	-0.574921	-0.262196
C46	C	0.055736	-0.074921	0.237804
C47	C	-0.444280	-0.640355	-0.262179
C48	C	0.055720	-0.140355	0.237821
C49	C	-0.503874	-0.438489	-0.245792
C50	C	-0.003874	0.061511	0.254208
C51	C	-0.503865	-0.373056	-0.245809
C52	C	-0.003865	0.126944	0.254191
C53	C	-0.512386	-0.340394	-0.302260
C54	C	-0.012386	0.159606	0.197740
C55	C	-0.520937	-0.373173	-0.358697
C56	C	-0.020937	0.126827	0.141303
C57	C	-0.520953	-0.438608	-0.358679
C58	C	-0.020953	0.061392	0.141321
C59	C	-0.512416	-0.471263	-0.302220
C60	C	-0.012416	0.028737	0.197780
C61	C	-0.580529	-0.236743	-0.342295
C62	C	-0.080529	0.263257	0.157705
C63	C	-0.580500	-0.171307	-0.342319
C64	C	-0.080500	0.328693	0.157681
C65	C	-0.444156	-0.171280	-0.262310
C66	C	0.055844	0.328720	0.237690
C67	C	-0.444179	-0.236715	-0.262292
C68	C	0.055821	0.263285	0.237708
C69	C	-0.512372	-0.269443	-0.302283
C70	C	-0.012372	0.230557	0.197717
C71	C	-0.788891	-0.905471	-0.302269
C72	C	-0.288891	-0.405471	0.197731
C73	C	-0.907197	-0.905511	-0.302288
C74	C	-0.407197	-0.405511	0.197712
C75	C	-0.976500	-0.863661	-0.344096
C76	C	-0.476500	-0.363661	0.155904
C77	C	-1.047349	-0.848392	-0.286917
C78	C	-0.547349	-0.348392	0.213083
C79	C	-1.047147	-0.920837	-0.359476
C80	C	-0.547147	-0.420837	0.140524
C81	C	-0.976487	-0.890211	-0.245079
C82	C	-0.476487	-0.390211	0.254921
C83	C	-0.976279	-0.962683	-0.317677
C84	C	-0.476279	-0.462683	0.182323
C85	C	-1.047096	-0.947436	-0.260459
C86	C	-0.547096	-0.447436	0.239541
C87	C	-0.234729	-0.905570	-0.302296
C88	C	0.265271	-0.405570	0.197704
C89	C	-0.116424	-0.905595	-0.302304
C90	C	0.383576	-0.405595	0.197696
C91	C	-0.512329	-0.905564	-0.465699
C92	C	-0.012329	-0.405564	0.034301
C93	C	-0.512319	-0.905586	-0.535340
C94	C	-0.012319	-0.405586	-0.035340
C95	C	-0.512301	-0.068935	-0.302343
C96	C	-0.012301	0.431065	0.197657
C97	C	-0.512325	-0.138577	-0.302325
C98	C	-0.012325	0.361423	0.197675
C99	C	-0.444224	-0.945672	-0.568080
C100	C	0.055776	-0.445672	-0.068080
C101	C	-0.444178	-0.945671	-0.633516
C102	C	0.055822	-0.445671	-0.133516
C103	C	-0.512247	-0.905591	-0.666209
C104	C	-0.012247	-0.405591	-0.166209
C105	C	-0.580347	-0.865497	-0.633461
C106	C	-0.080347	-0.365497	-0.133461
C107	C	-0.580383	-0.865495	-0.568027
C108	C	-0.080383	-0.365495	-0.068027
C109	C	-0.608087	-0.900630	-0.769879
C110	C	-0.108087	-0.400630	-0.269879
C111	C	-0.608053	-0.900636	-0.835312
C112	C	-0.108053	-0.400636	-0.335312
C113	C	-0.512134	-0.905595	-0.868030
C114	C	-0.012134	-0.405595	-0.368030
C115	C	-0.416248	-0.910560	-0.835306
C116	C	0.083752	-0.410560	-0.335306
C117	C	-0.416284	-0.910557	-0.769872
C118	C	0.083716	-0.410557	-0.269872
C119	C	-0.512215	-0.905589	-0.737161
C120	C	-0.012215	-0.405589	-0.237161
C121	C	-0.443984	-0.945682	-0.971722
C122	C	0.056016	-0.445682	-0.471722
C123	C	-0.443936	-0.945677	-1.037159
C124	C	0.056064	-0.445677	-0.537159
C125	C	-0.580114	-0.865506	-1.037103
C126	C	-0.080114	-0.365506	-0.537103
C127	C	-0.580153	-0.865508	-0.971667
C128	C	-0.080153	-0.365508	-0.471667
C129	C	-0.512089	-0.905600	-0.938981
C130	C	-0.012089	-0.405600	-0.438981
C131	C	-0.512295	-0.905496	-0.139488
C132	C	-0.012295	-0.405496	0.360512
C133	C	-0.512004	-0.905596	-0.069847
C134	C	-0.012004	-0.405596	0.430153
H135	H	-0.527873	-0.346582	-0.404665
H136	H	-0.027873	0.153418	0.095335
O137	O	-0.935417	-0.816701	-0.390855
O138	O	-0.435417	-0.316701	0.109145
H139	H	-1.003451	-0.793046	-0.413826
H140	H	-0.503451	-0.293046	0.086174
O141	O	-0.654176	-0.675679	-0.385317
O142	O	-0.154176	-0.175679	0.114683
H143	H	-0.708273	-0.705434	-0.357215
H144	H	-0.208273	-0.205434	0.142785
O145	O	-0.934897	-1.026661	-0.334936
O146	O	-0.434897	-0.526661	0.165064
H147	H	-0.886415	-1.045360	-0.295870
H148	H	-0.386415	-0.545360	0.204130
H149	H	-0.388755	-0.548264	-0.229634
H150	H	0.111245	-0.048264	0.270366
H151	H	-0.388643	-0.144628	-0.229749
H152	H	0.111357	0.355372	0.270251
O153	O	-0.370681	-0.271981	-0.219124
O154	O	0.129319	0.228019	0.280876
H155	H	-0.287165	-0.259469	-0.229944
H156	H	0.212835	0.240531	0.270056
H157	H	-1.078185	-0.933766	-0.407833
H158	H	-0.578185	-0.433766	0.092167
O159	O	-0.653584	-0.822254	-0.936360
O160	O	-0.153584	-0.322254	-0.436360
H161	H	-0.737118	-0.832969	-0.948926
H162	H	-0.237118	-0.332969	-0.448926
H163	H	-0.388800	-0.978317	-0.541471
H164	H	0.111200	-0.478317	-0.041471
O165	O	-0.653832	-0.822249	-0.532720
O166	O	-0.153832	-0.322249	-0.032720
H167	H	-0.707997	-0.850269	-0.502930
H168	H	-0.207997	-0.350269	-0.002930
H169	H	-0.388721	-0.978313	-0.660178
H170	H	0.111279	-0.478313	-0.160178
O171	O	-0.370485	-0.988911	-1.072479
O172	O	0.129515	-0.488911	-0.572479
H173	H	-0.388739	-1.038082	-1.059970
H174	H	0.111261	-0.538082	-0.559970
O175	O	-0.654022	-0.136039	-0.385475
O176	O	-0.154022	0.363961	0.114525
H177	H	-0.642546	-0.085040	-0.378777
H178	H	-0.142546	0.414960	0.121223
H179	H	-1.077899	-0.982863	-0.225069
H180	H	-0.577899	-0.482863	0.274931
H181	H	-0.338210	-0.914598	-0.743231
H182	H	0.161790	-0.414598	-0.243231
H183	H	-0.635766	-0.832862	-0.660084
H184	H	-0.135766	-0.332862	-0.160084
H185	H	-1.078588	-0.800081	-0.273914
H186	H	-0.578588	-0.300081	0.226086
H187	H	-0.945577	-0.877226	-0.196709
H188	H	-0.445577	-0.377226	0.303291
O189	O	-0.654060	-0.272051	-0.385433
O190	O	-0.154060	0.227949	0.114567
H191	H	-0.701443	-0.238317	-0.413266
H192	H	-0.201443	0.261683	0.086734
H193	H	-0.338142	-0.914599	-0.861943
H194	H	0.161858	-0.414599	-0.361943
O195	O	-0.370565	-0.988913	-0.936460
O196	O	0.129435	-0.488913	-0.436460
H197	H	-0.323191	-1.016781	-0.970222
H198	H	0.176809	-0.516781	-0.470222
H199	H	-0.496931	-0.465077	-0.199819
H200	H	0.003069	0.034923	0.300181
H201	H	-0.686129	-0.896598	-0.861951
H202	H	-0.186129	-0.396598	-0.361951
O203	O	-0.653534	-0.822274	-1.072354
O204	O	-0.153534	-0.322274	-0.572354
H205	H	-0.642074	-0.829011	-1.123355
H206	H	-0.142074	-0.329011	-0.623355
O207	O	-0.711546	-0.895273	-0.734592
O208	O	-0.211546	-0.395273	-0.234592
H209	H	-0.778214	-0.891828	-0.768338
H210	H	-0.278214	-0.391828	-0.268338
O211	O	-0.494637	-0.337702	-0.184942
O212	O	0.005363	0.162298	0.315058
H213	H	-0.488691	-0.371405	-0.145686
H214	H	0.011309	0.128595	0.354314
H215	H	-0.636121	-0.548321	-0.374780
H216	H	-0.136121	-0.048321	0.125220
O217	O	-0.370773	-0.675622	-0.219014
O218	O	0.129227	-0.175622	0.280986
H219	H	-0.287257	-0.663112	-0.229837
H220	H	0.212743	-0.163112	0.270163
O221	O	-0.530153	-0.473965	-0.419545
O222	O	-0.030153	0.026035	0.080455
H223	H	-0.536066	-0.440266	-0.458805
H224	H	-0.036066	0.059734	0.041195
