data_functionalizedCrystal
_audit_creation_method	'MofGen! by Chris Wilmer'
_symmetry_space_group_name_H-M	'P1'
_symmetry_Int_Tables_number	1
_symmetry_cell_setting	triclinic
loop_
_symmetry_equiv_pos_as_xyz
  x,y,z
_cell_length_a	19.188879
_cell_length_b	19.188930
_cell_length_c	16.098538
_cell_angle_alpha	87.256730
_cell_angle_beta	87.296763
_cell_angle_gamma	96.865574
loop_
_atom_site_label
_atom_site_type_symbol
_atom_site_fract_x
_atom_site_fract_y
_atom_site_fract_z
O1	O	-0.084027	0.929278	-0.069542
O2	O	-0.095764	0.725962	-0.069487
O3	O	0.011762	0.833505	-0.069490
O4	O	-0.191552	0.821736	-0.069539
O5	O	0.005505	0.827223	0.069023
O6	O	-0.102021	0.719680	0.069026
O7	O	-0.090283	0.922996	0.068971
Zn8	Zn	-0.097145	0.820341	0.090990
Zn9	Zn	-0.088902	0.828618	-0.091507
O10	O	-0.197809	0.815454	0.068974
C11	C	-0.098513	0.696810	-0.000223
C12	C	-0.097373	0.619305	-0.000201
C13	C	-0.160464	0.574371	-0.000230
C14	C	-0.159392	0.501547	-0.000238
C15	C	-0.095224	0.473662	-0.000236
C16	C	-0.032125	0.518606	-0.000203
C17	C	-0.033199	0.591427	-0.000185
N18	N	-0.044046	0.367830	-0.047399
N19	N	-0.043029	0.298653	-0.047418
C20	C	-0.091984	0.254257	-0.000286
N21	N	-0.142003	0.281651	0.046854
N22	N	-0.143021	0.350835	0.046869
C23	C	-0.094052	0.394701	-0.000254
C24	C	-0.153917	0.130359	-0.000323
C25	C	-0.152842	0.057534	-0.000326
C26	C	-0.025573	0.074595	-0.000299
C27	C	-0.026650	0.147417	-0.000287
C28	C	-0.090824	0.175295	-0.000303
C29	C	-0.220692	0.818970	-0.000290
C30	C	-0.298198	0.820098	-0.000310
C31	C	-0.337991	0.817220	0.075198
C32	C	-0.410814	0.818297	0.075212
C33	C	-0.443840	0.822266	-0.000286
C34	C	-0.404038	0.825140	-0.075804
C35	C	-0.331217	0.824056	-0.075816
N36	N	-0.550322	0.866251	-0.056477
N37	N	-0.619499	0.867282	-0.056461
C38	C	-0.663246	0.825531	-0.000254
N39	N	-0.635202	0.782719	0.055948
N40	N	-0.566019	0.781690	0.055934
C41	C	-0.522802	0.823442	-0.000281
C42	C	-0.782003	0.823820	0.075274
C43	C	-0.854829	0.824893	0.075285
C44	C	-0.848050	0.831744	-0.075732
C45	C	-0.775227	0.830664	-0.075741
C46	C	-0.742208	0.826705	-0.000236
C47	C	0.034645	0.829988	-0.000229
C48	C	0.112150	0.828861	-0.000213
C49	C	-0.087535	0.952149	-0.000295
C50	C	-0.088674	1.029654	-0.000322
N51	N	-0.102771	0.814697	0.215540
N52	N	-0.083271	0.834267	-0.216056
C53	C	-0.057149	0.860359	0.259124
C54	C	-0.061090	0.856418	0.346313
C55	C	-0.110658	0.806817	0.389916
C56	C	-0.156282	0.761150	0.346326
C57	C	-0.152337	0.765089	0.259139
C58	C	-0.124950	0.792539	0.653167
C59	C	-0.128893	0.788605	0.740360
C60	C	-0.033700	0.883872	0.740341
C61	C	-0.029762	0.887809	0.653151
C62	C	-0.075383	0.842140	0.609569
C63	C	-0.114690	0.802788	0.479038
C64	C	-0.071348	0.846166	0.520449
H65	H	0.026675	0.051894	-0.000348
H66	H	-0.155050	0.762404	0.514547
Br67	Br	0.054960	0.480764	-0.000190
H68	H	-0.212719	0.597063	-0.000244
H69	H	-0.210770	0.464955	-0.000259
Br70	Br	-0.238474	-0.003451	-0.000357
Br71	Br	-0.196173	0.721287	0.799531
H72	H	-0.311111	0.813996	0.136680
H73	H	-0.443222	0.815941	0.136701
Br74	Br	0.058979	0.208404	-0.000251
Br75	Br	-0.892867	0.837096	-0.178196
Br76	Br	-0.448856	0.830528	-0.178266
Br77	Br	0.000828	0.918386	0.405465
H78	H	0.018179	0.628014	-0.000163
Br79	Br	-0.277208	0.827961	-0.178298
H80	H	-0.206171	0.153057	-0.000323
H81	H	-0.196639	0.720761	0.381833
Br82	Br	0.028213	0.945847	0.799491
Br83	Br	-0.908838	0.820971	0.177769
H84	H	-0.755118	0.820591	0.136755
Br85	Br	-0.721218	0.834574	-0.178222
H86	H	-0.016788	0.900752	0.223627
Br87	Br	0.037506	0.955127	0.593974
H88	H	-0.162098	0.755354	0.617689
H89	H	-0.030987	0.886548	0.484945
Br90	Br	-0.214251	0.703112	0.199989
