data_functionalizedCrystal
_audit_creation_method	'MofGen! by Chris Wilmer'
_symmetry_space_group_name_H-M	'P1'
_symmetry_Int_Tables_number	1
_symmetry_cell_setting	triclinic
loop_
_symmetry_equiv_pos_as_xyz
  x,y,z
_cell_length_a	16.120484
_cell_length_b	21.395362
_cell_length_c	21.395364
_cell_angle_alpha	89.974112
_cell_angle_beta	87.117689
_cell_angle_gamma	87.057600
loop_
_atom_site_label
_atom_site_type_symbol
_atom_site_fract_x
_atom_site_fract_y
_atom_site_fract_z
Zn1	Zn	-0.331680	-0.945128	0.367216
Zn2	Zn	0.168320	-0.445128	0.867216
Zn3	Zn	-0.471073	-0.939760	0.267746
Zn4	Zn	0.028927	-0.439760	0.767746
Zn5	Zn	-0.331713	-0.840375	0.262418
Zn6	Zn	0.168287	-0.340375	0.762418
Zn7	Zn	-0.471096	-0.835008	0.372452
Zn8	Zn	0.028904	-0.335008	0.872452
O9	O	-0.401391	-0.890067	0.317458
O10	O	0.098609	-0.390067	0.817458
O11	O	-0.350148	-1.032095	0.354059
O12	O	0.149852	-0.532095	0.854059
O13	O	-0.452591	-0.926576	0.179362
O14	O	0.047409	-0.426576	0.679362
O15	O	-0.215040	-0.858763	0.271899
O16	O	0.284960	-0.358763	0.771899
O17	O	-0.452559	-1.028151	0.280980
O18	O	0.047441	-0.528151	0.780980
O19	O	-0.215016	-0.935725	0.348893
O20	O	0.284984	-0.435725	0.848893
O21	O	-0.350203	-0.853558	0.175447
O22	O	0.149797	-0.353558	0.675447
O23	O	-0.350226	-0.751984	0.276976
O24	O	0.149774	-0.251984	0.776976
O25	O	-0.452599	-0.849616	0.459435
O26	O	0.047401	-0.349616	0.959435
O27	O	-0.452630	-0.748041	0.357817
O28	O	0.047370	-0.248041	0.857817
O29	O	-0.350170	-0.930521	0.455588
O30	O	0.149830	-0.430521	0.955588
O31	O	-0.587745	-0.921371	0.286057
O32	O	-0.087745	-0.421371	0.786057
O33	O	-0.587762	-0.844410	0.362984
O34	O	-0.087762	-0.344410	0.862984
C35	C	-0.401435	-0.727278	0.317387
C36	C	0.098565	-0.227278	0.817387
C37	C	-0.401474	-0.657635	0.317372
C38	C	0.098526	-0.157635	0.817372
C39	C	-0.618005	-0.881743	0.325680
C40	C	-0.118005	-0.381743	0.825680
C41	C	-0.710673	-0.878239	0.329219
C42	C	-0.210673	-0.378239	0.829219
C43	C	-0.401383	-0.890068	0.480881
C44	C	0.098617	-0.390068	0.980881
C45	C	-0.401380	-0.890069	0.550522
C46	C	0.098620	-0.390069	1.050522
C47	C	-0.880339	-0.871845	0.335692
C48	C	-0.380339	-0.371845	0.835692
C49	C	-0.921602	-0.908402	0.299234
C50	C	-0.421602	-0.408402	0.799234
C51	C	-1.016010	-0.904844	0.302836
C52	C	-0.516010	-0.404844	0.802836
C53	C	-0.785923	-0.875402	0.332091
C54	C	-0.285923	-0.375402	0.832091
C55	C	-0.183931	-0.898442	0.309217
C56	C	0.316069	-0.398442	0.809217
C57	C	-0.091262	-0.902010	0.305706
C58	C	0.408738	-0.402010	0.805706
C59	C	-0.401347	-1.053492	0.317530
C60	C	0.098653	-0.553492	0.817530
C61	C	-0.401328	-1.123134	0.317560
C62	C	0.098672	-0.623134	0.817560
C63	C	-0.454866	-0.622883	0.359409
C64	C	0.045134	-0.122883	0.859409
C65	C	-0.454846	-0.557448	0.359436
C66	C	0.045154	-0.057448	0.859436
C67	C	-0.401442	-0.526768	0.317416
C68	C	0.098558	-0.026768	0.817416
C69	C	-0.348039	-0.561529	0.275376
C70	C	0.151961	-0.061529	0.775376
C71	C	-0.348055	-0.626963	0.275354
C72	C	0.151945	-0.126963	0.775354
C73	C	-0.394722	-0.423317	0.260755
C74	C	0.105278	0.076683	0.760755
C75	C	-0.394712	-0.357884	0.260776
C76	C	0.105288	0.142116	0.760776
C77	C	-0.401387	-0.324950	0.317483
C78	C	0.098613	0.175050	0.817483
C79	C	-0.408091	-0.357455	0.374172
C80	C	0.091909	0.142545	0.874172
C81	C	-0.408107	-0.422888	0.374150
C82	C	0.091893	0.077112	0.874150
C83	C	-0.401418	-0.455817	0.317435
C84	C	0.098582	0.044183	0.817435
C85	C	-0.454761	-0.219245	0.359553
C86	C	0.045239	0.280755	0.859553
C87	C	-0.454734	-0.153810	0.359581
C88	C	0.045266	0.346190	0.859581
C89	C	-0.347931	-0.157892	0.275515
C90	C	0.152069	0.342108	0.775515
C91	C	-0.347953	-0.223326	0.275492
C92	C	0.152047	0.276674	0.775492
C93	C	-0.401372	-0.253999	0.317510
C94	C	0.098628	0.246001	0.817510
C95	C	-0.348055	-0.932167	1.050317
C96	C	0.151945	-0.432167	1.550317
C97	C	-0.348056	-0.932173	0.984881
C98	C	0.151944	-0.432173	1.484881
C99	C	-0.401383	-0.890052	0.954161
C100	C	0.098617	-0.390052	1.454161
C101	C	-0.454728	-0.847931	0.988882
C102	C	0.045272	-0.347931	1.488882
C103	C	-0.454731	-0.847930	1.054316
C104	C	0.045269	-0.347930	1.554316
C105	C	-0.407977	-0.833350	0.850717
C106	C	0.092023	-0.333350	1.350717
C107	C	-0.407969	-0.833350	0.785283
C108	C	0.092031	-0.333350	1.285283
C109	C	-0.401380	-0.890055	0.752340
C110	C	0.098620	-0.390055	1.252340
C111	C	-0.394782	-0.946762	0.784837
C112	C	0.105218	-0.446762	1.284837
C113	C	-0.394784	-0.946761	0.850271
C114	C	0.105216	-0.446761	1.350271
C115	C	-0.401387	-0.890048	0.883208
C116	C	0.098613	-0.390048	1.383208
C117	C	-0.348044	-0.932183	0.646675
C118	C	0.151956	-0.432183	1.146675
C119	C	-0.348052	-0.932190	0.581238
C120	C	0.151948	-0.432190	1.081238
C121	C	-0.454719	-0.847943	0.585240
C122	C	0.045281	-0.347943	1.085240
C123	C	-0.454716	-0.847941	0.650675
C124	C	0.045284	-0.347941	1.150675
C125	C	-0.401374	-0.890060	0.681388
C126	C	0.098626	-0.390060	1.181388
C127	C	-0.401409	-0.890058	1.154671
C128	C	0.098591	-0.390058	1.654671
C129	C	-0.401389	-0.890050	1.085029
C130	C	0.098611	-0.390050	1.585029
H131	H	-0.886024	-0.942370	0.265317
H132	H	-0.386024	-0.442370	0.765317
H133	H	-0.389282	-0.450127	0.214574
H134	H	0.110718	0.049873	0.714574
H135	H	-0.304555	-0.536546	0.241164
H136	H	0.195445	-0.036546	0.741164
N137	N	-0.509403	-0.521939	0.402366
N138	N	-0.009403	-0.021939	0.902366
N139	N	-0.562473	-0.483352	0.382273
N140	N	-0.062473	0.016648	0.882273
H141	H	-0.601006	-0.458275	0.412590
H142	H	-0.101006	0.041725	0.912590
N143	N	-0.293568	-0.975200	0.678064
N144	N	0.206432	-0.475200	1.178064
N145	N	-0.240450	-0.955195	0.712555
N146	N	0.259550	-0.455195	1.212555
H147	H	-0.201976	-0.985576	0.734725
H148	H	0.298024	-0.485576	1.234725
H149	H	-0.304624	-0.966466	1.075319
H150	H	0.195376	-0.466466	1.575319
N151	N	-0.414954	-0.456082	0.432057
N152	N	0.085046	0.043918	0.932057
N153	N	-0.420917	-0.426676	0.482687
N154	N	0.079083	0.073324	0.982687
H155	H	-0.425751	-0.450118	0.523585
H156	H	0.074249	0.049882	1.023585
N157	N	-0.509195	-0.804894	1.089777
N158	N	-0.009195	-0.304894	1.589777
N159	N	-0.479869	-0.766095	1.125157
N160	N	0.020131	-0.266095	1.625157
H161	H	-0.518332	-0.735699	1.150203
H162	H	-0.018332	-0.235699	1.650203
H163	H	-0.304573	-0.655258	0.241123
H164	H	0.195427	-0.155258	0.741123
N165	N	-0.924977	-0.829230	0.378227
N166	N	-0.424977	-0.329230	0.878227
N167	N	-0.973667	-0.787529	0.357943
N168	N	-0.473667	-0.287529	0.857943
H169	H	-1.005202	-0.757431	0.387980
H170	H	-0.505202	-0.257431	0.887980
H171	H	-0.498363	-0.647852	0.393625
H172	H	0.001637	-0.147852	0.893625
N173	N	-0.509328	-0.250583	0.402466
N174	N	-0.009328	0.249417	0.902466
N175	N	-0.586249	-0.240287	0.401138
N176	N	-0.086249	0.259713	0.901138
H177	H	-0.624788	-0.262418	0.431445
H178	H	-0.124788	0.237582	0.931445
H179	H	-0.413525	-0.330641	0.420348
H180	H	0.086475	0.169359	0.920348
N181	N	-0.293569	-0.975201	0.949423
N182	N	0.206431	-0.475201	1.449423
N183	N	-0.245950	-1.012803	0.976854
N184	N	0.254050	-0.512803	1.476854
H185	H	-0.207466	-1.043191	0.951813
H186	H	0.292534	-0.543191	1.451813
N187	N	-0.509274	-0.118318	0.402532
N188	N	-0.009274	0.381682	0.902532
N189	N	-0.556960	-0.145716	0.440044
N190	N	-0.056960	0.354284	0.940044
H191	H	-0.595480	-0.120650	0.470380
H192	H	-0.095480	0.379350	0.970380
H193	H	-0.304445	-0.132913	0.241304
H194	H	0.195555	0.367087	0.741304
H195	H	-0.304479	-0.251622	0.241258
H196	H	0.195521	0.248378	0.741258
N197	N	-0.387877	-0.324694	0.202867
N198	N	0.112123	0.175306	0.702867
N199	N	-0.381908	-0.354105	0.152240
N200	N	0.118092	0.145895	0.652240
H201	H	-0.377082	-0.330666	0.111339
H202	H	0.122918	0.169334	0.611339
N203	N	-0.388064	-1.004696	0.751205
N204	N	0.111936	-0.504696	1.251205
N205	N	-0.382181	-1.055320	0.780227
N206	N	0.117819	-0.555320	1.280227
H207	H	-0.377436	-1.096235	0.756473
H208	H	0.122564	-0.596235	1.256473
N209	N	-0.388045	-1.004686	0.883456
N210	N	0.111955	-0.504686	1.383456
N211	N	-0.382158	-1.055314	0.854042
N212	N	0.117842	-0.555314	1.354042
H213	H	-0.377400	-1.096226	0.877479
H214	H	0.122600	-0.596226	1.377479
N215	N	-0.293572	-0.975224	0.545788
N216	N	0.206428	-0.475224	1.045788
N217	N	-0.245956	-1.012826	0.573222
N218	N	0.254044	-0.512826	1.073222
H219	H	-0.207479	-1.043221	0.548184
H220	H	0.292521	-0.543221	1.048184
H221	H	-0.498142	-0.813649	0.560228
H222	H	0.001858	-0.313649	1.060228
N223	N	-0.509205	-0.804917	0.686128
N224	N	-0.009205	-0.304917	1.186128
N225	N	-0.556822	-0.767315	0.658694
N226	N	-0.056822	-0.267315	1.158694
H227	H	-0.595312	-0.736930	0.683732
H228	H	-0.095312	-0.236930	1.183732
N229	N	-0.414701	-0.775423	0.752101
N230	N	0.085299	-0.275423	1.252101
N231	N	-0.420595	-0.724798	0.781520
N232	N	0.079405	-0.224798	1.281520
H233	H	-0.425350	-0.683884	0.758087
H234	H	0.074650	-0.183884	1.258087
H235	H	-0.413344	-0.787171	0.877534
H236	H	0.086656	-0.287171	1.377534
N237	N	-0.509200	-0.804913	0.957495
N238	N	-0.009200	-0.304913	1.457495
N239	N	-0.509190	-0.804918	0.899072
N240	N	-0.009190	-0.304918	1.399072
H241	H	-0.547664	-0.774537	0.876904
H242	H	-0.047664	-0.274537	1.376904
