data_functionalizedCrystal
_audit_creation_method	'MofGen! by Chris Wilmer'
_symmetry_space_group_name_H-M	'P1'
_symmetry_Int_Tables_number	1
_symmetry_cell_setting	triclinic
loop_
_symmetry_equiv_pos_as_xyz
  x,y,z
_cell_length_a	10.540539
_cell_length_b	10.540535
_cell_length_c	7.540329
_cell_angle_alpha	89.999421
_cell_angle_beta	89.998539
_cell_angle_gamma	84.524567
loop_
_atom_site_label
_atom_site_type_symbol
_atom_site_fract_x
_atom_site_fract_y
_atom_site_fract_z
O1	O	0.178871	1.685888	-0.147376
O2	O	0.195733	1.316474	-0.147400
O3	O	0.002596	1.509609	-0.147386
O4	O	0.372009	1.492753	-0.147391
O5	O	0.002593	1.509597	0.147580
O6	O	0.195731	1.316463	0.147565
O7	O	0.178869	1.685876	0.147589
Cu8	Cu	0.187300	1.501168	0.174509
Cu9	Cu	0.187302	1.501182	-0.174321
O10	O	0.372006	1.492742	0.147574
C11	C	0.194469	1.269165	0.000079
C12	C	0.190689	1.128217	0.000070
C13	C	0.049675	1.091546	0.000079
C14	C	0.045698	0.944946	0.000766
C15	C	0.255058	0.918874	0.168202
C16	C	0.258058	1.065640	0.168325
C17	C	0.260113	1.065537	-0.167117
C18	C	0.253591	0.919191	-0.169309
C19	C	-0.044709	1.508339	0.000094
C20	C	-0.185657	1.504557	0.000084
C21	C	-0.369081	1.359640	-0.000587
C22	C	-0.222463	1.363474	0.000077
C23	C	-0.247317	1.572446	0.168528
C24	C	-0.393861	1.567631	0.168669
C25	C	-0.394377	1.570514	-0.166761
C26	C	-0.247395	1.571814	-0.168988
C27	C	0.419311	1.494011	0.000091
C28	C	0.560259	1.497793	0.000089
C29	C	0.180133	1.733185	0.000105
C30	C	0.183913	1.874134	0.000103
N31	N	0.187297	1.501168	0.419858
N32	N	0.187295	1.501193	-0.419669
H33	H	0.354465	0.870143	-0.179984
Br34	Br	-0.047036	0.896048	-0.200038
H35	H	-0.180707	1.309670	0.121019
H36	H	0.210009	1.105806	0.294465
H37	H	-0.425928	1.524857	-0.294430
Br38	Br	0.424677	0.839951	0.177838
Br39	Br	-0.046562	0.897500	0.202822
Br40	Br	-0.040588	1.161502	-0.200815
H41	H	-0.399289	1.304130	0.119523
Br42	Br	-0.151444	1.274439	-0.201178
Br43	Br	-0.416739	1.266749	-0.201925
Br44	Br	0.173704	0.867366	0.377522
H45	H	-0.422061	1.517448	0.294578
Br46	Br	-0.210070	1.745136	0.178988
Br47	Br	0.186775	1.136310	-0.379557
H48	H	-0.223175	1.674675	-0.179153
Br49	Br	-0.039079	1.163966	0.200703
Br50	Br	0.430351	1.104034	0.180271
Br51	Br	-0.176321	1.493833	0.377451
H52	H	0.201817	0.890593	-0.293671
H53	H	-0.206535	1.522140	-0.293598
Br54	Br	-0.473822	1.736740	0.181439
Br55	Br	0.433058	1.102445	-0.169775
H56	H	-0.441604	1.672418	-0.167887
