data_functionalizedCrystal
_audit_creation_method	'MofGen! by Chris Wilmer'
_symmetry_space_group_name_H-M	'P1'
_symmetry_Int_Tables_number	1
_symmetry_cell_setting	triclinic
loop_
_symmetry_equiv_pos_as_xyz
  x,y,z
_cell_length_a	21.295418
_cell_length_b	21.295417
_cell_length_c	13.897441
_cell_angle_alpha	90.036423
_cell_angle_beta	90.041083
_cell_angle_gamma	90.046319
loop_
_atom_site_label
_atom_site_type_symbol
_atom_site_fract_x
_atom_site_fract_y
_atom_site_fract_z
Zn1	Zn	0.962339	-0.250323	0.545866
Zn2	Zn	1.462339	0.249677	1.045866
Zn3	Zn	0.962247	-0.355602	0.384551
Zn4	Zn	1.462247	0.144398	0.884551
Zn5	Zn	0.857067	-0.250380	0.384527
Zn6	Zn	1.357067	0.249620	0.884527
Zn7	Zn	0.857032	-0.355588	0.545746
Zn8	Zn	1.357032	0.144412	1.045746
O9	O	0.909671	-0.302973	0.465173
O10	O	1.409671	0.197027	0.965173
O11	O	1.050416	-0.264271	0.524527
O12	O	1.550416	0.235729	1.024527
O13	O	0.948270	-0.341674	0.249566
O14	O	1.448270	0.158326	0.749566
O15	O	0.871086	-0.162283	0.405969
O16	O	1.371086	0.337717	0.905969
O17	O	1.050348	-0.341619	0.406010
O18	O	1.550348	0.158381	0.906010
O19	O	0.948428	-0.162241	0.524504
O20	O	1.448428	0.337759	1.024504
O21	O	0.870996	-0.264368	0.249549
O22	O	1.370996	0.235632	0.749549
O23	O	0.768973	-0.264354	0.405853
O24	O	1.268973	0.235646	0.905853
O25	O	0.871025	-0.341594	0.680744
O26	O	1.371025	0.158406	1.180744
O27	O	0.768947	-0.341649	0.524300
O28	O	1.268947	0.158351	1.024300
O29	O	0.948394	-0.264257	0.680832
O30	O	1.448394	0.235743	1.180832
O31	O	0.948236	-0.443690	0.405894
O32	O	1.448236	0.056310	0.905894
O33	O	0.870935	-0.443679	0.524323
O34	O	1.370935	0.056321	1.024323
C35	C	0.746120	-0.303006	0.465062
C36	C	1.246120	0.196994	0.965062
C37	C	0.676152	-0.303036	0.465037
C38	C	1.176152	0.196964	0.965037
C39	C	0.643288	-0.343337	0.526620
C40	C	1.143288	0.156663	1.026620
C41	C	0.577545	-0.343321	0.526663
C42	C	1.077545	0.156679	1.026663
C43	C	0.544669	-0.303011	0.465106
C44	C	1.044669	0.196989	0.965106
C45	C	0.577541	-0.262702	0.403519
C46	C	1.077541	0.237298	0.903519
C47	C	0.643282	-0.262715	0.403484
C48	C	1.143282	0.237285	0.903484
N49	N	0.441396	-0.298099	0.380740
N50	N	0.941396	0.201901	0.880740
N51	N	0.378944	-0.298091	0.380776
N52	N	0.878944	0.201909	0.880776
C53	C	0.346594	-0.302971	0.465209
C54	C	0.846594	0.197029	0.965209
N55	N	0.379055	-0.307872	0.549606
N56	N	0.879055	0.192128	1.049606
N57	N	0.441512	-0.307884	0.549570
N58	N	0.941512	0.192116	1.049570
C59	C	0.473384	-0.302993	0.465138
C60	C	0.973384	0.197007	0.965138
C61	C	0.242445	-0.343258	0.526844
C62	C	0.742445	0.156742	1.026844
C63	C	0.176701	-0.343238	0.526889
C64	C	0.676701	0.156762	1.026889
C65	C	0.176698	-0.262622	0.403736
C66	C	0.676698	0.237378	0.903736
C67	C	0.242441	-0.262639	0.403699
C68	C	0.742441	0.237361	0.903699
C69	C	0.275310	-0.302960	0.465252
C70	C	0.775310	0.197040	0.965252
C71	C	0.909589	-0.466525	0.465119
C72	C	1.409589	0.033475	0.965119
C73	C	0.909611	-0.536493	0.465129
C74	C	1.409611	-0.036493	0.965129
C75	C	0.949897	-0.569344	0.403526
C76	C	1.449897	-0.069344	0.903526
C77	C	0.949927	-0.635087	0.403547
C78	C	1.449927	-0.135087	0.903547
C79	C	0.909659	-0.667976	0.465162
C80	C	1.409659	-0.167976	0.965162
C81	C	0.869370	-0.635116	0.526777
C82	C	1.369370	-0.135116	1.026777
C83	C	0.869346	-0.569375	0.526760
C84	C	1.369346	-0.069375	1.026760
N85	N	0.854592	-0.771256	0.472478
N86	N	1.354592	-0.271256	0.972478
N87	N	0.854616	-0.833708	0.472488
N88	N	1.354616	-0.333708	0.972488
C89	C	0.909729	-0.866050	0.465217
C90	C	1.409729	-0.366050	0.965217
N91	N	0.964818	-0.833582	0.457917
N92	N	1.464818	-0.333582	0.957917
N93	N	0.964793	-0.771125	0.457902
N94	N	1.464793	-0.271125	0.957902
C95	C	0.909681	-0.739261	0.465187
C96	C	1.409681	-0.239261	0.965187
C97	C	0.950051	-0.970187	0.403634
C98	C	1.450051	-0.470187	0.903634
C99	C	0.950082	-1.035931	0.403663
C100	C	1.450082	-0.535931	0.903663
C101	C	0.869519	-1.035959	0.526887
C102	C	1.369519	-0.535959	1.026887
C103	C	0.869494	-0.970216	0.526864
C104	C	1.369494	-0.470216	1.026864
C105	C	0.909759	-0.937335	0.465232
C106	C	1.409759	-0.437335	0.965232
C107	C	1.073862	-0.302941	0.465285
C108	C	1.573862	0.197059	0.965285
C109	C	1.143830	-0.302927	0.465332
C110	C	1.643830	0.197073	0.965332
C111	C	0.909716	-0.302918	0.716766
C112	C	1.409716	0.197082	1.216766
C113	C	0.909735	-0.302894	0.823980
C114	C	1.409735	0.197106	1.323980
C115	C	0.909771	-0.138783	0.465247
C116	C	1.409771	0.361217	0.965247
C117	C	0.909814	-0.068815	0.465279
C118	C	1.409814	0.431185	0.965279
C119	C	0.909663	-0.302983	0.214558
C120	C	1.409663	0.197017	0.714558
C121	C	0.909766	-0.302830	0.107345
C122	C	1.409766	0.197170	0.607345
C123	C	0.909752	-0.302851	1.020275
C124	C	1.409752	0.197149	1.520275
C125	C	0.909741	-0.302877	0.911043
C126	C	1.409741	0.197123	1.411043
H127	H	0.550769	-0.229881	0.353400
H128	H	1.050769	0.270119	0.853400
H129	H	0.982735	-0.661840	0.353383
H130	H	1.482735	-0.161840	0.853383
H131	H	0.836539	-0.542627	0.576926
H132	H	1.336539	-0.042627	1.076926
Cl133	Cl	0.536222	-0.393990	0.604088
Cl134	Cl	1.036222	0.106010	1.104088
H135	H	0.269199	-0.229824	0.353547
H136	H	0.769199	0.270176	0.853547
H137	H	0.670039	-0.229895	0.353336
H138	H	1.170039	0.270105	0.853336
Cl139	Cl	0.818900	-1.077298	0.604354
Cl140	Cl	1.318900	-0.577298	1.104354
Cl141	Cl	0.135386	-0.393903	0.604321
Cl142	Cl	0.635386	0.106097	1.104321
Cl143	Cl	1.000669	-0.928847	0.326156
Cl144	Cl	1.500669	-0.428847	0.826156
H145	H	0.982685	-0.542574	0.353344
H146	H	1.482685	-0.042574	0.853344
H147	H	0.149931	-0.229798	0.353619
H148	H	0.649931	0.270202	0.853619
Cl149	Cl	0.818750	-0.676461	0.604240
Cl150	Cl	1.318750	-0.176461	1.104240
H151	H	0.982891	-1.062677	0.353500
H152	H	1.482891	-0.562677	0.853500
H153	H	0.836686	-0.943467	0.577023
H154	H	1.336686	-0.443467	1.077023
H155	H	0.670046	-0.376169	0.576743
H156	H	1.170046	0.123831	1.076743
H157	H	0.269209	-0.376086	0.576969
H158	H	0.769209	0.123914	1.076969
