data_functionalizedCrystal
_audit_creation_method	'MofGen! by Chris Wilmer'
_symmetry_space_group_name_H-M	'P1'
_symmetry_Int_Tables_number	1
_symmetry_cell_setting	triclinic
loop_
_symmetry_equiv_pos_as_xyz
  x,y,z
_cell_length_a	10.967926
_cell_length_b	10.654551
_cell_length_c	9.482900
_cell_angle_alpha	99.428019
_cell_angle_beta	92.549900
_cell_angle_gamma	84.600089
loop_
_atom_site_label
_atom_site_type_symbol
_atom_site_fract_x
_atom_site_fract_y
_atom_site_fract_z
O1	O	1.612052	0.221773	0.282989
O2	O	1.262861	0.224528	0.195502
O3	O	1.445484	0.040734	0.241256
O4	O	1.429428	0.405566	0.237235
O5	O	1.408391	0.078224	0.473755
O6	O	1.225767	0.262017	0.428002
O7	O	1.574958	0.259263	0.515488
Cu8	Cu	1.396976	0.264063	0.492974
Cu9	Cu	1.440843	0.219727	0.218016
O10	O	1.392335	0.443056	0.469734
C11	C	1.199602	0.240239	0.300550
C12	C	1.066373	0.231186	0.267170
C13	C	0.987760	0.246571	0.372730
C14	C	0.850060	0.237215	0.338233
C15	C	1.425759	0.012633	0.357207
C16	C	1.422232	-0.126954	0.356314
C17	C	1.440797	-0.212968	0.229166
C18	C	1.437471	-0.344121	0.228340
C19	C	1.397019	-0.303233	0.481821
C20	C	1.400337	-0.172082	0.482644
C21	C	1.462692	-0.167839	0.102837
C22	C	1.481260	-0.253855	-0.024321
C23	C	1.477933	-0.385008	-0.025148
C24	C	1.456040	-0.430146	0.101183
C25	C	1.638218	0.243550	0.410438
C26	C	1.771448	0.252602	0.443808
C27	C	1.412061	0.471157	0.353780
C28	C	1.415589	0.610742	0.354664
N29	N	1.366130	0.295246	0.686366
N30	N	1.471698	0.188534	0.024627
C31	C	1.431737	0.228918	0.775002
C32	C	1.406082	0.254873	0.935992
H33	H	1.022400	0.266662	0.488642
C34	C	1.379916	-0.077453	0.622502
C35	C	1.258761	-0.069490	0.700880
C36	C	1.238330	0.025143	0.840738
C37	C	1.339055	0.111812	0.902218
C38	C	1.460219	0.103852	0.823839
C39	C	1.480649	0.009220	0.683981
H40	H	1.184191	-0.133651	0.655370
H41	H	1.148637	0.031035	0.898759
H42	H	1.323932	0.181865	1.005750
H43	H	1.534789	0.168013	0.869350
H44	H	1.570343	0.003328	0.625961
H45	H	1.330911	0.330875	0.979283
H46	H	1.546860	0.112523	0.981333
H47	H	0.815428	0.217112	0.222313
C48	C	0.818207	0.279748	0.600419
C49	C	0.886042	0.399549	0.653557
C50	C	0.932795	0.426691	0.810167
C51	C	0.911715	0.334031	0.913639
C52	C	0.843877	0.214222	0.860502
C53	C	0.797123	0.187080	0.703892
H54	H	0.901650	0.468148	0.576960
H55	H	0.983014	0.515382	0.849502
H56	H	0.946325	0.354123	1.029571
H57	H	0.828269	0.145623	0.937099
H58	H	0.746905	0.098389	0.664557
H59	H	1.465406	-0.061051	0.103496
C60	C	1.019593	0.204034	0.110573
C61	C	0.951754	0.084231	0.057461
C62	C	0.904978	0.057079	-0.099139
C63	C	0.926041	0.149729	-0.202628
C64	C	0.993884	0.269540	-0.149517
C65	C	1.040660	0.296692	0.007083
H66	H	0.936158	0.015639	0.134071
H67	H	0.854756	-0.031613	-0.138455
H68	H	0.891415	0.129629	-0.318553
H69	H	1.009479	0.338132	-0.226127
H70	H	1.090881	0.385385	0.046399
H71	H	1.290965	0.371244	0.729664
H72	H	1.499073	-0.217094	-0.127177
H73	H	1.493039	-0.455039	-0.128688
H74	H	1.453316	-0.536940	0.100495
H75	H	1.379195	-0.339995	0.584673
H76	H	1.506894	0.152910	0.731704
