data_functionalizedCrystal
_audit_creation_method	'MofGen! by Chris Wilmer'
_symmetry_space_group_name_H-M	'P1'
_symmetry_Int_Tables_number	1
_symmetry_cell_setting	triclinic
loop_
_symmetry_equiv_pos_as_xyz
  x,y,z
_cell_length_a	9.065218
_cell_length_b	10.654550
_cell_length_c	9.130313
_cell_angle_alpha	90.003780
_cell_angle_beta	90.000552
_cell_angle_gamma	95.249606
loop_
_atom_site_label
_atom_site_type_symbol
_atom_site_fract_x
_atom_site_fract_y
_atom_site_fract_z
O1	O	0.207228	-1.668655	-0.121914
O2	O	0.226972	-1.303255	-0.121889
O3	O	0.002416	-1.493507	-0.121899
O4	O	0.431784	-1.478402	-0.121904
O5	O	0.002422	-1.493505	0.121700
O6	O	0.226978	-1.303252	0.121709
O7	O	0.207234	-1.668653	0.121685
Cu8	Cu	0.217107	-1.485952	0.143940
Cu9	Cu	0.217100	-1.485955	-0.144144
O10	O	0.431790	-1.478400	0.121695
C11	C	-0.052559	-1.492055	-0.000102
C12	C	-0.216378	-1.487714	-0.000109
C13	C	0.225525	-1.256450	-0.000087
C14	C	0.221188	-1.116989	-0.000078
C15	C	0.208681	-1.715457	-0.000120
C16	C	0.213018	-1.854918	-0.000139
C17	C	0.486766	-1.479852	-0.000106
C18	C	0.650585	-1.484193	-0.000108
N19	N	0.217111	-1.485959	0.346563
C20	C	0.353403	-1.038027	-0.000101
C21	C	0.349319	-0.906990	-0.000126
C22	C	0.080793	-0.933890	-0.000112
C23	C	0.084879	-1.064925	-0.000076
C24	C	0.508434	-1.022496	-0.000115
C25	C	0.504350	-0.891459	-0.000141
N26	N	0.217084	-1.485957	-0.346767
C27	C	0.117712	-1.570225	0.423210
C28	C	0.117694	-1.570222	0.576547
C29	C	0.316488	-1.401682	0.576575
C30	C	0.316497	-1.401681	0.423241
C31	C	0.002944	-1.667534	0.423195
C32	C	0.002926	-1.667531	0.576532
H33	H	-0.022783	-1.129212	-0.000036
H34	H	0.038879	-1.758860	0.375630
C35	C	0.425804	-1.308979	0.660935
N36	N	0.508144	-1.239153	0.724474
C37	C	0.567679	-0.829998	0.141918
N38	N	0.615387	-0.783704	0.248911
C39	C	0.583246	-0.835389	-0.137880
N40	N	0.642664	-0.793159	-0.241623
H41	H	0.557796	-1.058348	-0.105288
C42	C	-0.069139	-0.876606	-0.000117
N43	N	-0.182072	-0.833461	-0.000125
C44	C	0.425957	-1.309079	0.338934
N45	N	0.508453	-1.239367	0.275434
H46	H	-0.110463	-1.645642	0.381578
C47	C	0.590344	-1.062450	0.137615
N48	N	0.652034	-1.092545	0.241353
C49	C	-0.141843	-1.625721	0.640778
N50	N	-0.250877	-1.594222	0.689171
H51	H	0.028206	-1.764142	0.618142
