data_functionalizedCrystal
_audit_creation_method	'MofGen! by Chris Wilmer'
_symmetry_space_group_name_H-M	'P1'
_symmetry_Int_Tables_number	1
_symmetry_cell_setting	triclinic
loop_
_symmetry_equiv_pos_as_xyz
  x,y,z
_cell_length_a	12.759395
_cell_length_b	19.121063
_cell_length_c	12.759387
_cell_angle_alpha	92.402374
_cell_angle_beta	89.981185
_cell_angle_gamma	92.470426
loop_
_atom_site_label
_atom_site_type_symbol
_atom_site_fract_x
_atom_site_fract_y
_atom_site_fract_z
Zn1	Zn	1.588319	-0.279539	-0.611792
Zn2	Zn	1.580679	-0.397009	-0.443587
Zn3	Zn	1.412620	-0.279580	-0.436132
Zn4	Zn	1.405077	-0.396957	-0.619223
O5	O	1.496674	-0.338271	-0.527683
O6	O	1.734326	-0.295127	-0.589490
O7	O	1.558345	-0.381471	-0.295579
O8	O	1.442280	-0.181290	-0.453203
O9	O	1.728713	-0.381431	-0.465910
O10	O	1.571366	-0.181260	-0.582260
O11	O	1.434872	-0.295196	-0.290102
O12	O	1.264598	-0.295145	-0.460409
O13	O	1.429425	-0.381342	-0.765256
O14	O	1.259057	-0.381381	-0.594925
O15	O	1.564052	-0.295076	-0.759796
O16	O	1.551031	-0.495286	-0.473116
O17	O	1.422017	-0.495248	-0.602154
C18	C	1.223707	-0.338263	-0.527665
C19	C	1.106929	-0.338276	-0.527683
C20	C	1.484905	-0.520751	-0.539273
C21	C	1.479967	-0.598817	-0.544267
C22	C	1.101188	-0.428219	-0.667547
C23	C	1.043456	-0.473196	-0.737482
C24	C	0.933734	-0.473205	-0.737495
C25	C	0.881742	-0.428230	-0.667568
C26	C	0.939473	-0.383253	-0.597633
C27	C	1.049197	-0.383250	-0.597625
C28	C	0.945214	-0.293307	-0.457776
C29	C	1.054936	-0.293301	-0.457755
C30	C	0.893222	-0.248332	-0.387848
C31	C	0.950953	-0.203357	-0.317906
C32	C	1.060682	-0.203351	-0.317895
C33	C	1.112668	-0.248324	-0.387820
C34	C	1.544869	-0.635489	-0.479484
C35	C	1.540231	-0.708840	-0.484187
C36	C	1.470684	-0.745517	-0.553667
C37	C	1.405778	-0.708840	-0.618456
C38	C	1.410423	-0.635490	-0.613758
C39	C	1.453302	-0.966986	-0.571214
C40	C	1.448661	-1.040341	-0.575905
C41	C	1.583115	-1.040335	-0.441637
C42	C	1.587749	-0.966984	-0.436941
C43	C	1.522848	-0.930313	-0.501734
C44	C	1.465939	-0.820494	-0.558473
C45	C	1.527599	-0.855338	-0.496932
C46	C	1.770706	-0.338280	-0.527703
C47	C	1.887483	-0.338284	-0.527711
C48	C	1.496749	-0.338199	-0.801712
C49	C	1.496782	-0.338168	-0.918487
C50	C	1.508517	-0.155079	-0.516071
C51	C	1.513563	-0.077013	-0.511123
C52	C	1.368219	-0.248324	-0.912802
C53	C	1.303958	-0.203388	-0.964819
C54	C	1.303991	-0.203362	-1.074539
C55	C	1.368290	-0.248279	-1.132245
C56	C	1.432551	-0.293215	-1.080228
C57	C	1.432513	-0.293234	-0.970505
C58	C	1.561107	-0.383062	-1.085913
C59	C	1.561081	-0.383085	-0.976193
C60	C	1.625406	-0.427978	-1.143619
C61	C	1.689674	-0.472912	-1.091601
C62	C	1.689639	-0.472935	-0.981874
C63	C	1.625342	-0.428020	-0.924176
C64	C	1.496662	-0.338293	-0.254717
C65	C	1.496845	-0.338126	-0.137930
H66	H	1.085801	-0.509812	-0.794417
O67	O	1.603315	-0.744354	-0.421148
C68	C	1.665707	-0.696253	-0.358830
H69	H	1.625981	-0.643994	-0.351810
H70	H	1.675611	-0.717486	-0.277421
H71	H	1.745979	-0.688383	-0.396864
H72	H	1.635956	-1.070201	-0.388888
H73	H	1.202009	-0.248325	-0.387815
H74	H	1.644380	-0.937123	-0.380365
H75	H	1.409311	-0.850365	-0.615041
H76	H	1.601497	-0.605631	-0.422902
O77	O	1.241600	-0.159778	-0.908603
C78	C	1.255328	-0.169444	-0.800607
H79	H	1.334910	-0.192460	-0.787078
H80	H	1.251600	-0.116843	-0.755580
H81	H	1.190575	-0.206845	-0.771833
O82	O	1.347327	-0.599789	-0.676537
C83	C	1.282164	-0.557443	-0.613956
H84	H	1.319952	-0.546475	-0.533665
H85	H	1.271330	-0.505849	-0.653438
H86	H	1.202518	-0.585761	-0.604159
H87	H	1.107681	-0.166720	-0.260952
O88	O	1.368415	-0.248143	-1.238819
C89	C	1.399735	-0.180819	-1.271220
H90	H	1.447403	-0.151800	-1.206158
H91	H	1.449804	-0.185835	-1.344948
H92	H	1.327328	-0.150382	-1.288754
H93	H	1.190529	-0.428222	-0.667535
O94	O	1.381079	-1.075862	-0.643501
C95	C	1.324774	-1.027768	-0.699667
H96	H	1.371114	-0.975454	-0.699992
H97	H	1.312195	-1.048925	-0.783789
H98	H	1.245487	-1.020034	-0.660640
H99	H	0.792400	-0.428235	-0.667594
O100	O	0.786639	-0.248340	-0.388051
C101	C	0.751171	-0.230378	-0.487643
H102	H	0.813647	-0.242421	-0.548892
H103	H	0.675733	-0.262083	-0.508249
H104	H	0.735450	-0.172106	-0.486324
O105	O	1.625539	-0.427839	-1.250193
C106	C	1.656871	-0.360515	-1.282583
H107	H	1.704535	-0.331502	-1.217513
H108	H	1.706947	-0.365530	-1.356306
H109	H	1.584470	-0.330073	-1.300122
H110	H	0.908612	-0.166739	-0.260982
H111	H	1.368194	-0.248334	-0.823461
O112	O	1.390207	-0.931289	-0.633990
C113	C	1.325051	-0.888945	-0.571399
H114	H	1.362847	-0.877980	-0.491111
H115	H	1.314213	-0.837349	-0.610875
H116	H	1.245406	-0.917263	-0.561596
O117	O	1.338361	-0.744544	-0.686006
C118	C	1.395458	-0.786890	-0.756643
H119	H	1.474404	-0.797854	-0.720361
H120	H	1.349388	-0.838486	-0.773986
H121	H	1.408752	-0.758574	-0.832700
O122	O	1.595005	-0.819682	-0.429326
C123	C	1.537898	-0.777311	-0.358732
H124	H	1.453754	-0.799470	-0.353594
H125	H	1.575985	-0.776494	-0.277856
H126	H	1.537777	-0.721707	-0.387661
O127	O	1.241539	-0.159647	-1.124908
C128	C	1.184756	-0.120023	-1.050456
H129	H	1.227916	-0.117608	-0.972087
H130	H	1.177145	-0.064679	-1.078662
H131	H	1.103294	-0.145738	-1.040416
H132	H	1.742017	-0.509482	-1.138594
H133	H	1.625311	-0.428032	-0.834835
O134	O	0.877807	-0.516956	-0.805473
C135	C	0.947218	-0.556633	-0.867214
H136	H	1.025260	-0.559033	-0.824323
H137	H	0.911946	-0.611979	-0.881806
H138	H	0.960576	-0.530974	-0.945438
O139	O	1.752158	-0.516612	-0.931512
C140	C	1.808887	-0.556261	-1.005978
H141	H	1.814415	-0.527476	-1.082369
H142	H	1.891168	-0.563775	-0.974757
H143	H	1.766952	-0.609594	-1.021021
