data_functionalizedCrystal
_audit_creation_method	'MofGen! by Chris Wilmer'
_symmetry_space_group_name_H-M	'P1'
_symmetry_Int_Tables_number	1
_symmetry_cell_setting	triclinic
loop_
_symmetry_equiv_pos_as_xyz
  x,y,z
_cell_length_a	16.109301
_cell_length_b	26.210047
_cell_length_c	16.109301
_cell_angle_alpha	89.996922
_cell_angle_beta	83.461481
_cell_angle_gamma	90.006315
loop_
_atom_site_label
_atom_site_type_symbol
_atom_site_fract_x
_atom_site_fract_y
_atom_site_fract_z
O1	O	1.103139	0.042398	0.106855
O2	O	0.861077	0.042407	0.120155
O3	O	0.988757	0.042397	-0.007526
O4	O	0.975458	0.042408	0.234536
O5	O	0.988733	-0.042461	-0.007506
O6	O	0.861052	-0.042451	0.120174
O7	O	1.103114	-0.042460	0.106875
Cu8	Cu	0.982081	-0.050204	0.113527
Cu9	Cu	0.982110	0.050151	0.113503
O10	O	0.975433	-0.042450	0.234556
C11	C	0.830090	-0.000021	0.119626
C12	C	0.737794	-0.000018	0.118011
N13	N	0.982066	-0.120788	0.113543
C14	C	0.515522	-0.000021	0.190018
C15	C	0.428801	-0.000024	0.188494
C16	C	0.448676	-0.000029	0.037006
C17	C	0.535394	-0.000029	0.038530
C18	C	0.568815	-0.000023	0.115039
C19	C	0.395376	-0.000026	0.111990
C20	C	0.301350	-0.000029	0.110337
C21	C	0.662847	-0.000020	0.116693
C22	C	1.038641	-0.473306	0.056979
C23	C	1.038659	-0.686965	0.056967
O24	O	1.086729	-0.714590	0.008878
N25	N	0.982114	-0.713682	0.113485
C26	C	0.925557	-0.686981	0.170006
O27	O	0.877457	-0.714608	0.218071
C28	C	0.925535	-0.473323	0.170012
C29	C	0.982090	-0.446609	0.113497
C30	C	1.095190	-0.446592	0.000467
C31	C	1.095188	-0.393180	0.000474
C32	C	1.038637	-0.366483	0.056992
C33	C	0.982088	-0.393197	0.113503
C34	C	0.868975	-0.446623	0.226529
C35	C	0.868973	-0.393205	0.226524
C36	C	0.925527	-0.366491	0.170008
C37	C	0.925534	-0.313089	0.170028
N38	N	0.982079	-0.286372	0.113510
C39	C	1.038631	-0.313069	0.056992
C40	C	0.925573	-0.799154	0.169999
C41	C	0.925580	-0.852568	0.169998
C42	C	1.038681	-0.852548	0.056959
C43	C	1.038678	-0.799133	0.056964
C44	C	0.982119	-0.772437	0.113482
C45	C	1.038623	-0.200901	0.057011
C46	C	1.038618	-0.147485	0.057025
C47	C	0.925513	-0.147509	0.170061
C48	C	0.925521	-0.200921	0.170050
C49	C	0.982079	-0.227615	0.113518
O50	O	0.877483	-0.285430	0.218085
O51	O	1.086712	-0.285433	0.008922
C52	C	1.038643	-0.526717	0.056972
C53	C	0.982094	-0.553432	0.113484
C54	C	0.925543	-0.526735	0.170002
C55	C	0.982100	-0.606846	0.113483
C56	C	1.038652	-0.633543	0.056965
C57	C	1.095197	-0.606826	0.000448
C58	C	1.095195	-0.553415	0.000454
C59	C	0.868998	-0.553452	0.226519
C60	C	0.869005	-0.606863	0.226509
C61	C	0.925556	-0.633560	0.169991
C62	C	1.134101	-0.000031	0.107404
C63	C	1.226397	-0.000030	0.109019
C64	C	0.988206	-0.000032	-0.038491
C65	C	0.986591	-0.000033	-0.130786
N66	N	0.982131	0.120735	0.113480
C67	C	1.058599	-0.000027	-0.353059
C68	C	1.057075	-0.000023	-0.439779
C69	C	0.905586	-0.000020	-0.419905
C70	C	0.907111	-0.000020	-0.333186
C71	C	0.983620	-0.000027	-0.299766
C72	C	0.980571	-0.000022	-0.473205
C73	C	0.978918	-0.000017	-0.567231
C74	C	0.985273	-0.000030	-0.205734
C75	C	0.975984	-0.000020	0.265521
C76	C	0.977600	-0.000016	0.357816
H77	H	0.542730	-0.000020	0.252317
C78	C	1.143259	0.043602	-0.548823
C79	C	1.139496	-0.000023	-0.498357
H80	H	1.194148	0.043604	-0.584982
H81	H	1.097486	0.043601	-0.581139
H82	H	1.140710	0.073189	-0.514570
H83	H	1.142039	-0.029610	-0.532610
H84	H	1.185281	-0.000026	-0.466038
C85	C	1.148201	0.043593	-0.267065
C86	C	1.142694	-0.000028	-0.316318
H87	H	1.200117	0.043591	-0.244381
H88	H	1.144466	0.073179	-0.300486
H89	H	1.103760	0.043586	-0.222916
H90	H	1.187132	-0.000019	-0.360471
H91	H	1.146437	-0.029622	-0.282896
C92	C	0.417873	-0.000012	0.338385
C93	C	0.370221	-0.000019	0.270914
H94	H	0.381706	-0.000006	0.389269
H95	H	0.452103	-0.029602	0.335837
H96	H	0.452118	0.029582	0.335813
H97	H	0.335981	-0.029615	0.273482
H98	H	0.335978	0.029574	0.273463
H99	H	0.578788	-0.000032	-0.022530
H100	H	0.843295	-0.000016	-0.447127
C101	C	0.757211	-0.000022	-0.322244
C102	C	0.824687	-0.000022	-0.274599
H103	H	0.706330	-0.000025	-0.286073
H104	H	0.759771	0.029568	-0.356482
H105	H	0.759764	-0.029616	-0.356480
H106	H	0.822138	0.029575	-0.240367
H107	H	0.822126	-0.029615	-0.240346
H108	H	0.421454	-0.000037	-0.025285
C109	C	1.087423	-0.131111	-0.086915
C110	C	1.100781	-0.118159	-0.005160
H111	H	1.125795	-0.113016	-0.125320
H112	H	1.095478	-0.166747	-0.094942
H113	H	1.031939	-0.122345	-0.095933
H114	H	1.156264	-0.126928	0.003859
H115	H	1.092734	-0.082515	0.002870
C116	C	1.056722	-0.260950	-0.056160
C117	C	1.100792	-0.230239	-0.005127
H118	H	1.095106	-0.279060	-0.094521
H119	H	1.023056	-0.284507	-0.022509
H120	H	1.022126	-0.240108	-0.086072
H121	H	1.135384	-0.251081	0.024790
H122	H	1.134473	-0.206679	-0.038782
C123	C	0.755807	-0.333153	0.244541
C124	C	0.806800	-0.363862	0.288654
H125	H	0.717424	-0.315042	0.282900
H126	H	0.789484	-0.309597	0.210897
H127	H	0.725921	-0.353996	0.209920
H128	H	0.836691	-0.343019	0.323270
H129	H	0.773120	-0.387421	0.322313
C130	C	0.813785	-0.804551	0.281740
C131	C	0.863404	-0.769814	0.232136
H132	H	0.775410	-0.786438	0.320105
H133	H	0.783896	-0.825384	0.247119
H134	H	0.848399	-0.825383	0.311646
H135	H	0.828789	-0.748984	0.202224
H136	H	0.893295	-0.748972	0.266761
H137	H	1.141241	-0.468324	-0.045560
C138	C	1.206972	-0.398542	-0.111267
C139	C	1.157346	-0.363820	-0.061660
H140	H	1.245341	-0.380418	-0.149632
H141	H	1.236867	-0.419371	-0.076648
H142	H	1.172361	-0.419380	-0.141173
H143	H	1.191956	-0.342985	-0.031749
H144	H	1.127449	-0.342983	-0.096284
H145	H	1.084729	-0.777386	0.010944
C146	C	1.150476	-0.847177	-0.054787
C147	C	1.100842	-0.881900	-0.005171
H148	H	1.188849	-0.865300	-0.093141
H149	H	1.115878	-0.826346	-0.084701
H150	H	1.180376	-0.826341	-0.020168
H151	H	1.070938	-0.902733	-0.039790
H152	H	1.135445	-0.902739	0.024744
C153	C	0.757168	-0.441255	0.338244
C154	C	0.806803	-0.475978	0.288650
H155	H	0.718780	-0.459378	0.376593
H156	H	0.791764	-0.420422	0.368162
H157	H	0.727286	-0.420421	0.303609
H158	H	0.836690	-0.496810	0.323284
H159	H	0.772202	-0.496819	0.258730
C160	C	0.813715	-0.195572	0.281776
C161	C	0.863353	-0.230288	0.232169
H162	H	0.775326	-0.213701	0.320115
H163	H	0.848309	-0.174745	0.311704
H164	H	0.783835	-0.174732	0.247148
H165	H	0.893238	-0.251126	0.266796
H166	H	0.828754	-0.251124	0.202238
H167	H	0.879537	-0.874315	0.216027
C168	C	1.206983	-0.558777	-0.111281
C169	C	1.157356	-0.524055	-0.061676
H170	H	1.245356	-0.540653	-0.149644
H171	H	1.236875	-0.579607	-0.076661
H172	H	1.172374	-0.579614	-0.141191
H173	H	1.191964	-0.503220	-0.031762
H174	H	1.127462	-0.503216	-0.096301
C175	C	1.145405	-0.688702	-0.049745
C176	C	1.157356	-0.636179	-0.061682
H177	H	1.183772	-0.706824	-0.088105
H178	H	1.154421	-0.697453	0.005740
H179	H	1.089917	-0.697450	-0.058788
H180	H	1.212842	-0.627430	-0.052632
H181	H	1.148347	-0.627424	-0.117179
C182	C	0.757196	-0.601504	0.338236
C183	C	0.806832	-0.636224	0.288636
H184	H	0.718808	-0.619630	0.376581
H185	H	0.791791	-0.580674	0.368159
H186	H	0.727314	-0.580667	0.303605
H187	H	0.836719	-0.657058	0.323266
H188	H	0.772232	-0.657062	0.258711
H189	H	0.879472	-0.125764	0.216080
H190	H	0.822946	-0.531719	0.272542
