data_functionalizedCrystal
_audit_creation_method	'MofGen! by Chris Wilmer'
_symmetry_space_group_name_H-M	'P1'
_symmetry_Int_Tables_number	1
_symmetry_cell_setting	triclinic
loop_
_symmetry_equiv_pos_as_xyz
  x,y,z
_cell_length_a	10.686220
_cell_length_b	12.594516
_cell_length_c	10.686551
_cell_angle_alpha	94.405296
_cell_angle_beta	89.691918
_cell_angle_gamma	94.393406
loop_
_atom_site_label
_atom_site_type_symbol
_atom_site_fract_x
_atom_site_fract_y
_atom_site_fract_z
Zn1	Zn	1.972305	-0.259490	0.562388
Zn2	Zn	2.472305	0.240510	1.062388
Zn3	Zn	1.956088	-0.452139	0.352631
Zn4	Zn	2.456088	0.047861	0.852631
Zn5	Zn	1.746425	-0.286718	0.368706
Zn6	Zn	2.246425	0.213282	0.868706
Zn7	Zn	1.762518	-0.449982	0.578409
Zn8	Zn	2.262518	0.050018	1.078409
O9	O	1.859334	-0.362082	0.465533
O10	O	2.359334	0.137918	0.965533
O11	O	2.145695	-0.274553	0.521131
O12	O	2.645695	0.225447	1.021131
O13	O	1.914754	-0.442493	0.179218
O14	O	2.414754	0.057507	0.679218
O15	O	1.776440	-0.134155	0.394421
O16	O	2.276440	0.365845	0.894421
O17	O	2.133780	-0.416091	0.367024
O18	O	2.633780	0.083909	0.867024
O19	O	1.942393	-0.114151	0.536718
O20	O	2.442393	0.385849	1.036718
O21	O	1.760715	-0.320959	0.191028
O22	O	2.260715	0.179041	0.691028
O23	O	1.573019	-0.318867	0.409955
O24	O	2.073019	0.181133	0.909955
O25	O	1.803868	-0.412415	0.751829
O26	O	2.303868	0.087585	1.251829
O27	O	1.584842	-0.438817	0.564023
O28	O	2.084842	0.061183	1.064023
O29	O	1.957998	-0.272462	0.740059
O30	O	2.457998	0.227538	1.240059
O31	O	1.930359	-0.600803	0.382558
O32	O	2.430359	-0.100803	0.882558
O33	O	1.788144	-0.599219	0.548436
O34	O	2.288144	-0.099219	1.048436
C35	C	1.533414	-0.381563	0.490473
C36	C	2.033414	0.118437	0.990473
C37	C	1.393987	-0.389921	0.501172
C38	C	1.893987	0.110079	1.001172
C39	C	1.859274	-0.638628	0.465516
C40	C	2.359274	-0.138628	0.965516
C41	C	1.859367	-0.756926	0.465542
C42	C	2.359367	-0.256926	0.965542
C43	C	1.936821	-0.826990	0.375403
C44	C	2.436821	-0.326990	0.875403
C45	C	1.976266	-0.887866	0.487555
C46	C	2.476266	-0.387866	0.987555
C47	C	1.820084	-0.906834	0.353451
C48	C	2.320084	-0.406834	0.853451
C49	C	1.898875	-0.816236	0.577749
C50	C	2.398875	-0.316236	1.077749
C51	C	1.742633	-0.835207	0.443572
C52	C	2.242633	-0.335207	0.943572
C53	C	1.782041	-0.896048	0.555806
C54	C	2.282041	-0.396048	1.055806
C55	C	2.186526	-0.342526	0.440497
C56	C	2.686526	0.157474	0.940497
C57	C	2.325956	-0.334192	0.429829
C58	C	2.825956	0.165808	0.929829
C59	C	1.884537	-0.339161	0.792733
C60	C	2.384537	0.160839	1.292733
C61	C	1.895277	-0.329393	0.932167
C62	C	2.395277	0.170607	1.432167
C63	C	1.859430	-0.084452	0.465576
C64	C	2.359430	0.415548	0.965576
C65	C	1.859471	0.033857	0.465594
C66	C	2.359471	0.533857	0.965594
C67	C	1.834301	-0.384833	0.139601
C68	C	2.334301	0.115167	0.639601
C69	C	1.823804	-0.394287	0.000150
C70	C	2.323804	0.105713	0.500150
H71	H	1.374378	-0.280087	0.360563
H72	H	1.874378	0.219913	0.860563
H73	H	1.345559	-0.444037	0.570434
H74	H	1.845559	0.055963	1.070434
Br75	Br	2.046012	-0.776383	0.248453
Br76	Br	2.546012	-0.276383	0.748453
H77	H	2.075031	-0.911296	0.506168
H78	H	2.575031	-0.411296	1.006168
H79	H	1.932052	-0.776900	0.672655
H80	H	2.432052	-0.276900	1.172655
Br81	Br	1.708123	-0.499354	0.919372
Br82	Br	2.208123	0.000646	1.419372
H83	H	1.786817	-0.946302	0.258635
H84	H	2.286817	-0.446302	0.758635
Br85	Br	2.010985	-0.224337	1.012946
Br86	Br	2.510985	0.275663	1.512946
H87	H	1.716591	-0.926198	0.632138
H88	H	2.216591	-0.426198	1.132138
Br89	Br	1.578052	-0.796125	0.412496
Br90	Br	2.078052	-0.296125	0.912496
