data_functionalizedCrystal
_audit_creation_method	'MofGen! by Chris Wilmer'
_symmetry_space_group_name_H-M	'P1'
_symmetry_Int_Tables_number	1
_symmetry_cell_setting	triclinic
loop_
_symmetry_equiv_pos_as_xyz
  x,y,z
_cell_length_a	16.974800
_cell_length_b	11.026607
_cell_length_c	10.065907
_cell_angle_alpha	100.715461
_cell_angle_beta	84.844020
_cell_angle_gamma	95.962169
loop_
_atom_site_label
_atom_site_type_symbol
_atom_site_fract_x
_atom_site_fract_y
_atom_site_fract_z
O1	O	1.070761	0.155299	0.004821
O2	O	1.570761	0.655299	0.504821
O3	O	0.845348	0.171102	-0.020088
O4	O	1.345348	0.671102	0.479912
O5	O	0.939372	-0.013743	-0.009693
O6	O	1.439372	0.486257	0.490307
O7	O	0.976737	0.340144	-0.005574
O8	O	1.476737	0.840144	0.494426
O9	O	0.921407	0.021579	0.215310
O10	O	1.421407	0.521579	0.715310
O11	O	0.827383	0.206424	0.204915
O12	O	1.327383	0.706424	0.704915
O13	O	1.052796	0.190621	0.229824
O14	O	1.552796	0.690621	0.729824
Zn15	Zn	0.937237	0.204131	0.253093
Zn16	Zn	1.437237	0.704131	0.753093
Zn17	Zn	0.960906	0.157592	-0.043357
Zn18	Zn	1.460906	0.657592	0.456643
O19	O	0.958772	0.375466	0.219429
O20	O	1.458772	0.875466	0.719429
C21	C	0.807059	0.187508	0.089175
C22	C	1.307059	0.687508	0.589175
C23	C	0.719733	0.183753	0.079525
C24	C	1.219733	0.683753	0.579525
C25	C	0.668919	0.201241	0.197644
C26	C	1.168919	0.701241	0.697644
C27	C	0.586866	0.197694	0.188581
C28	C	1.086866	0.697694	0.688581
C29	C	0.555629	0.176668	0.061398
C30	C	1.055629	0.676668	0.561398
C31	C	0.606450	0.159175	-0.056730
C32	C	1.106450	0.659175	0.443270
C33	C	0.688501	0.162714	-0.047665
C34	C	1.188501	0.662714	0.452335
C35	C	0.311283	0.164013	0.021136
C36	C	0.811283	0.664013	0.521136
C37	C	0.229226	0.160480	0.012080
C38	C	0.729226	0.660480	0.512080
C39	C	0.209647	0.198997	0.257392
C40	C	0.709647	0.698997	0.757392
C41	C	0.291701	0.202541	0.266445
C42	C	0.791701	0.702541	0.766445
C43	C	0.342514	0.185041	0.148318
C44	C	0.842514	0.685041	0.648318
N45	N	0.471758	0.173046	0.052130
N46	N	0.971758	0.673046	0.552130
N47	N	0.426383	0.188655	0.157586
N48	N	0.926383	0.688655	0.657586
C49	C	0.923497	-0.041400	0.102045
C50	C	1.423497	0.458600	0.602045
C51	C	0.902949	-0.176435	0.099770
C52	C	1.402949	0.323565	0.599770
C53	C	0.959686	-0.249357	0.106037
C54	C	1.459686	0.250643	0.606037
C55	C	0.938450	-0.388923	0.103686
C56	C	1.438450	0.111077	0.603686
C57	C	1.091085	0.174215	0.120558
C58	C	1.591085	0.674215	0.620558
C59	C	1.178411	0.177968	0.130199
C60	C	1.678411	0.677968	0.630199
C61	C	0.974647	0.403123	0.107688
C62	C	1.474647	0.903123	0.607688
C63	C	0.995196	0.538157	0.109954
C64	C	1.495196	1.038157	0.609954
N65	N	0.921089	0.235892	0.455414
N66	N	1.421089	0.735892	0.955414
C67	C	0.942864	0.193083	0.682764
C68	C	1.442864	0.693083	1.182764
C69	C	0.955285	0.168630	0.526969
C70	C	1.455285	0.668630	1.026969
N71	N	0.977054	0.125831	0.754322
N72	N	1.477054	0.625831	1.254322
H73	H	0.317127	0.219657	0.370011
H74	H	0.817127	0.719657	0.870011
H75	H	0.581010	0.142047	-0.160285
H76	H	1.081010	0.642047	0.339715
H77	H	0.874150	-0.429812	0.096571
H78	H	1.374150	0.070188	0.596571
H79	H	0.168267	0.213242	0.353564
H80	H	0.668267	0.713242	0.853564
C81	C	0.869122	0.338142	0.528436
C82	C	1.369122	0.838142	1.028436
H83	H	0.849279	0.377158	0.463335
H84	H	1.349279	0.877158	0.963335
H85	H	0.900073	0.397826	0.587590
H86	H	1.400073	0.897826	1.087590
H87	H	0.825942	0.302511	0.579418
H88	H	1.325942	0.802511	1.079418
H89	H	0.694346	0.218373	0.301210
H90	H	1.194346	0.718373	0.801210
H91	H	0.203797	0.143361	-0.091493
H92	H	0.703797	0.643361	0.408507
H93	H	0.545495	0.211915	0.284765
H94	H	1.045495	0.711915	0.784765
C95	C	0.367167	0.144779	-0.108799
C96	C	0.867167	0.644779	0.391201
H97	H	0.336810	0.131765	-0.185839
H98	H	0.836810	0.631765	0.314161
H99	H	0.395586	0.074575	-0.110811
H100	H	0.895586	0.574575	0.389189
H101	H	0.403579	0.216150	-0.109923
H102	H	0.903579	0.716150	0.390077
H103	H	1.059505	-0.420973	0.116958
H104	H	1.559505	0.079027	0.616958
C105	C	0.890868	0.295287	0.755791
C106	C	1.390868	0.795287	1.255791
H107	H	0.871015	0.334293	0.690691
H108	H	1.371015	0.834293	1.190691
H109	H	0.921794	0.354990	0.814967
H110	H	1.421794	0.854990	1.314967
H111	H	0.847696	0.259610	0.806749
H112	H	1.347696	0.759610	1.306749
C113	C	1.046547	-0.194132	0.115641
C114	C	1.546547	0.305868	0.615641
H115	H	1.079391	-0.257982	0.119260
H116	H	1.579391	0.242018	0.619260
H117	H	1.050657	-0.132864	0.195251
H118	H	1.550657	0.367136	0.695251
H119	H	1.063188	-0.157498	0.038314
H120	H	1.563188	0.342502	0.538314
C121	C	1.007253	0.066382	0.453944
C122	C	1.507253	0.566382	0.953944
H123	H	1.027088	0.027353	0.519042
H124	H	1.527088	0.527353	1.019042
H125	H	1.050426	0.102004	0.402955
H126	H	1.550426	0.602004	0.902955
H127	H	0.976294	0.006691	0.394797
H128	H	1.476294	0.506691	0.894797
C129	C	1.029020	0.023588	0.681291
C130	C	1.529020	0.523588	1.181291
H131	H	1.048855	-0.015440	0.746389
H132	H	1.548855	0.484560	1.246389
H133	H	1.072193	0.059211	0.630302
H134	H	1.572193	0.559211	1.130302
H135	H	0.998061	-0.036102	0.622144
H136	H	1.498061	0.463898	1.122144
C137	C	0.744397	0.143485	-0.177595
C138	C	1.244397	0.643485	0.322405
H139	H	0.714044	0.130468	-0.254640
H140	H	1.214044	0.630468	0.245360
H141	H	0.772816	0.073283	-0.179600
H142	H	1.272816	0.573283	0.320400
H143	H	0.780808	0.214858	-0.178716
H144	H	1.280808	0.714858	0.321284
C145	C	0.816088	-0.231667	0.090170
C146	C	1.316088	0.268333	0.590170
H147	H	0.813210	-0.318224	0.089858
H148	H	1.313210	0.181776	0.589858
H149	H	0.796997	-0.217742	0.008908
H150	H	1.296997	0.282258	0.508908
H151	H	0.784470	-0.193115	0.165845
H152	H	1.284470	0.306885	0.665845
