data_functionalizedCrystal
_audit_creation_method	'MofGen! by Chris Wilmer'
_symmetry_space_group_name_H-M	'P1'
_symmetry_Int_Tables_number	1
_symmetry_cell_setting	triclinic
loop_
_symmetry_equiv_pos_as_xyz
  x,y,z
_cell_length_a	23.532407
_cell_length_b	16.109301
_cell_length_c	15.186229
_cell_angle_alpha	89.994833
_cell_angle_beta	90.001988
_cell_angle_gamma	83.155079
loop_
_atom_site_label
_atom_site_type_symbol
_atom_site_fract_x
_atom_site_fract_y
_atom_site_fract_z
O1	O	0.755631	0.100924	-0.073122
O2	O	1.255631	0.600924	0.426878
O3	O	0.589822	0.115528	-0.073148
O4	O	1.089822	0.615528	0.426852
O5	O	0.677281	-0.012841	-0.073125
O6	O	1.177281	0.487159	0.426875
O7	O	0.668171	0.229293	-0.073144
O8	O	1.168171	0.729293	0.426856
O9	O	0.677275	-0.012843	0.073332
O10	O	1.177275	0.487157	0.573332
O11	O	0.589816	0.115526	0.073310
O12	O	1.089816	0.615526	0.573310
O13	O	0.755625	0.100923	0.073336
O14	O	1.255625	0.600923	0.573336
Zn15	Zn	0.672720	0.108224	0.096576
Zn16	Zn	1.172720	0.608224	0.596576
Zn17	Zn	0.672727	0.108226	-0.096388
Zn18	Zn	1.172727	0.608226	0.403612
O19	O	0.668165	0.229291	0.073313
O20	O	1.168165	0.729291	0.573313
C21	C	0.568601	0.115155	0.000078
C22	C	1.068601	0.615155	0.500078
C23	C	0.505380	0.114037	0.000068
C24	C	1.005380	0.614037	0.500068
C25	C	0.676909	-0.043814	0.000104
C26	C	1.176909	0.456186	0.500104
C27	C	0.675803	-0.136100	0.000105
C28	C	1.175803	0.363900	0.500105
C29	C	0.725127	-0.358760	0.000099
C30	C	1.225127	0.141240	0.500099
C31	C	0.724083	-0.445473	0.000092
C32	C	1.224083	0.054527	0.500092
C33	C	0.620315	-0.424782	0.000079
C34	C	1.120315	0.075218	0.500079
C35	C	0.621360	-0.338072	0.000080
C36	C	1.121360	0.161928	0.500080
C37	C	0.673768	-0.305063	0.000094
C38	C	1.173768	0.194937	0.500094
C39	C	0.671679	-0.478486	0.000086
C40	C	1.171679	0.021514	0.500086
C41	C	0.670547	-0.572503	0.000078
C42	C	1.170547	-0.072503	0.500078
C43	C	0.674900	-0.211040	0.000101
C44	C	1.174900	0.288960	0.500101
C45	C	0.106531	0.182990	0.000102
C46	C	0.606531	0.682990	0.500102
C47	C	0.047127	0.181951	0.000108
C48	C	0.547127	0.681951	0.500108
O49	O	0.010619	0.245872	0.000135
O50	O	0.510619	0.745872	0.500135
N51	N	0.024220	0.105636	0.000112
N52	N	0.524220	0.605636	0.500112
C53	C	0.060719	0.030355	0.000121
C54	C	0.560719	0.530355	0.500121
O55	O	0.035780	-0.034652	0.000126
O56	O	0.535780	0.465348	0.500126
C57	C	0.120122	0.031395	0.000121
C58	C	0.620122	0.531395	0.500121
C59	C	0.143027	0.107715	0.000108
C60	C	0.643027	0.607715	0.500108
C61	C	0.129436	0.259304	0.000090
C62	C	0.629436	0.759304	0.500090
C63	C	0.188836	0.260342	0.000083
C64	C	0.688836	0.760342	0.500083
C65	C	0.225331	0.185066	0.000088
C66	C	0.725331	0.685066	0.500088
C67	C	0.202427	0.108753	0.000101
C68	C	0.702427	0.608753	0.500101
C69	C	0.156621	-0.043886	0.000136
C70	C	0.656621	0.456114	0.500136
C71	C	0.216027	-0.042840	0.000137
C72	C	0.716027	0.457160	0.500137
C73	C	0.238932	0.033480	0.000124
C74	C	0.738932	0.533480	0.500124
C75	C	0.298322	0.034516	0.000099
C76	C	0.798322	0.534516	0.500099
N77	N	0.321229	0.110831	0.000094
N78	N	0.821229	0.610831	0.500094
C79	C	0.284734	0.186106	0.000089
C80	C	0.784734	0.686106	0.500089
C81	C	-0.064031	0.028178	0.000120
C82	C	0.435969	0.528178	0.500120
C83	C	-0.123433	0.027138	0.000113
C84	C	0.376567	0.527138	0.500113
C85	C	-0.137021	0.178734	0.000102
C86	C	0.362979	0.678734	0.500102
C87	C	-0.077618	0.179774	0.000103
C88	C	0.422382	0.679774	0.500103
C89	C	-0.041123	0.104493	0.000116
C90	C	0.458877	0.604493	0.500116
C91	C	0.409479	0.188281	0.000073
C92	C	0.909479	0.688281	0.500073
C93	C	0.468885	0.189312	0.000062
C94	C	0.968885	0.689312	0.500062
C95	C	0.482468	0.037716	0.000078
C96	C	0.982468	0.537716	0.500078
C97	C	0.423067	0.036684	0.000084
C98	C	0.923067	0.536684	0.500084
C99	C	0.386574	0.111973	0.000085
C100	C	0.886574	0.611973	0.500085
O101	O	0.334865	-0.029371	0.000076
O102	O	0.834865	0.470629	0.500076
O103	O	0.309682	0.251102	0.000095
O104	O	0.809682	0.751102	0.500095
C105	C	0.776846	0.101295	0.000108
C106	C	1.276846	0.601295	0.500108
C107	C	0.840067	0.102414	0.000112
C108	C	1.340067	0.602414	0.500112
C109	C	0.668537	0.260264	0.000082
C110	C	1.168537	0.760264	0.500082
C111	C	0.669644	0.352551	0.000075
C112	C	1.169644	0.852551	0.500075
N113	N	0.672718	0.108222	0.228269
N114	N	1.172718	0.608222	0.728269
N115	N	0.672733	0.108222	-0.228081
N116	N	1.172733	0.608222	0.271919
C117	C	0.711459	0.051399	0.454002
C118	C	1.211459	0.551399	0.954002
C119	C	0.711461	0.051397	0.546191
C120	C	1.211461	0.551397	1.046191
C121	C	0.633988	0.165047	0.546180
C122	C	1.133988	0.665047	1.046180
C123	C	0.633984	0.165044	0.453992
C124	C	1.133984	0.665044	0.953992
C125	C	0.672723	0.108222	0.407905
C126	C	1.172723	0.608222	0.907905
C127	C	0.672729	0.108222	0.592283
C128	C	1.172729	0.608222	1.092283
C129	C	0.672730	0.108220	0.692239
C130	C	1.172730	0.608220	1.192239
C131	C	0.672720	0.108222	0.307943
C132	C	1.172720	0.608222	0.807943
H133	H	0.767801	-0.331888	0.000109
H134	H	1.267801	0.168112	0.500109
N135	N	-0.024670	-0.053023	0.000130
N136	N	0.475330	0.446977	0.500130
H137	H	-0.048201	-0.101520	0.000132
H138	H	0.451799	0.398480	0.500132
H139	H	0.000272	-0.055898	-0.054163
H140	H	0.500272	0.444102	0.445837
H141	H	0.765906	-0.489190	0.000093
H142	H	1.265906	0.010810	0.500093
N143	N	0.131925	-0.126201	0.000159
N144	N	0.631925	0.373799	0.500159
H145	H	0.145235	-0.159164	-0.054125
H146	H	0.645235	0.340836	0.445875
H147	H	0.145248	-0.159079	0.054495
H148	H	0.645248	0.340921	0.554495
H149	H	0.577647	-0.451669	0.000068
H150	H	1.077647	0.048331	0.500068
N151	N	0.565962	-0.280148	0.000069
N152	N	1.065962	0.219852	0.500069
H153	H	0.532604	-0.314214	0.000065
H154	H	1.032604	0.185786	0.500065
H155	H	0.564135	-0.243723	0.054361
H156	H	1.064135	0.256277	0.554361
N157	N	0.493588	0.271631	0.000039
N158	N	0.993588	0.771631	0.500039
H159	H	0.461451	0.319158	0.000038
H160	H	0.961451	0.819158	0.500038
H161	H	0.517944	0.275370	0.054327
H162	H	1.017944	0.775370	0.554327
N163	N	0.255389	-0.124037	0.000157
N164	N	0.755389	0.375963	0.500157
H165	H	0.231861	-0.172537	0.000166
H166	H	0.731861	0.327463	0.500166
H167	H	0.280330	-0.126915	-0.054138
H168	H	0.780330	0.373085	0.445862
H169	H	0.379772	0.249588	0.000076
H170	H	0.879772	0.749588	0.500076
N171	N	-0.148134	-0.055178	0.000112
N172	N	0.351866	0.444822	0.500112
H173	H	-0.115995	-0.102703	0.000114
H174	H	0.384005	0.397297	0.500114
H175	H	-0.172480	-0.058916	0.054408
H176	H	0.327520	0.441084	0.554408
H177	H	0.512193	-0.023571	0.000079
H178	H	1.012193	0.476429	0.500079
N179	N	-0.052913	0.262086	0.000100
N180	N	0.447087	0.762086	0.500100
H181	H	-0.028570	0.265900	-0.054191
H182	H	0.471430	0.765900	0.445809
H183	H	-0.085082	0.309565	0.000128
H184	H	0.414918	0.809565	0.500128
H185	H	0.743001	0.005129	0.416480
H186	H	1.243001	0.505129	0.916480
N187	N	0.592197	0.226333	0.404274
N188	N	1.092197	0.726333	0.904274
H189	H	0.598742	0.285295	0.420305
H190	H	1.098742	0.785295	0.920305
H191	H	0.598090	0.217634	0.338896
H192	H	1.098090	0.717634	0.838896
H193	H	0.207479	0.322489	0.000071
H194	H	0.707479	0.822489	0.500071
N195	N	-0.176390	0.259927	0.000097
N196	N	0.323610	0.759927	0.500097
H197	H	-0.217495	0.247682	0.000101
H198	H	0.282505	0.747682	0.500101
H199	H	-0.168974	0.293208	0.054388
H200	H	0.331026	0.793208	0.554388
N201	N	0.090079	0.340500	0.000134
N202	N	0.590079	0.840500	0.500134
H203	H	0.113612	0.388995	0.000142
H204	H	0.613612	0.888995	0.500142
H205	H	0.065121	0.343407	-0.054146
H206	H	0.565121	0.843407	0.445854
N207	N	0.398359	-0.045629	0.000082
N208	N	0.898359	0.454371	0.500082
H209	H	0.430494	-0.093157	0.000080
H210	H	0.930494	0.406843	0.500080
H211	H	0.374014	-0.049365	0.054381
H212	H	0.874014	0.450635	0.554381
H213	H	0.743002	0.005127	0.583720
H214	H	1.243002	0.505127	1.083720
N215	N	0.592208	0.226333	0.595888
N216	N	1.092208	0.726333	1.095888
H217	H	0.598089	0.217714	0.661284
H218	H	1.098089	0.717714	1.161284
H219	H	0.598773	0.285265	0.579765
H220	H	1.098773	0.785265	1.079765
