data_functionalizedCrystal
_audit_creation_method	'MofGen! by Chris Wilmer'
_symmetry_space_group_name_H-M	'P1'
_symmetry_Int_Tables_number	1
_symmetry_cell_setting	triclinic
loop_
_symmetry_equiv_pos_as_xyz
  x,y,z
_cell_length_a	18.050591
_cell_length_b	29.839131
_cell_length_c	18.050582
_cell_angle_alpha	90.025477
_cell_angle_beta	90.020922
_cell_angle_gamma	90.037426
loop_
_atom_site_label
_atom_site_type_symbol
_atom_site_fract_x
_atom_site_fract_y
_atom_site_fract_z
Zn1	Zn	1.135224	-0.178930	0.420016
Zn2	Zn	1.135106	-0.254052	0.295820
Zn3	Zn	1.011044	-0.178932	0.295827
Zn4	Zn	1.010963	-0.254028	0.419956
O5	O	1.073084	-0.216485	0.357905
O6	O	1.239133	-0.188904	0.403564
O7	O	1.118634	-0.244098	0.191896
O8	O	1.027600	-0.116064	0.312330
O9	O	1.239047	-0.244096	0.312317
O10	O	1.118835	-0.116063	0.403571
O11	O	1.027485	-0.188907	0.191902
O12	O	0.907108	-0.188884	0.312271
O13	O	1.027462	-0.244056	0.523888
O14	O	0.907049	-0.244057	0.403467
O15	O	1.118756	-0.188881	0.523933
O16	O	1.118555	-0.316916	0.312258
O17	O	1.027348	-0.316898	0.403460
C18	C	0.880132	-0.216469	0.357864
C19	C	0.797586	-0.216472	0.357864
C20	C	0.598146	-0.186434	0.308386
C21	C	0.548711	-0.227410	0.290106
C22	C	0.646456	-0.216486	0.357897
C23	C	0.548810	-0.175525	0.376175
C24	C	0.500471	-0.216495	0.357928
C25	C	0.598108	-0.257483	0.339583
C26	C	0.598211	-0.205570	0.425683
C27	C	0.548798	-0.246574	0.407429
C28	C	0.730554	-0.216480	0.357878
C29	C	0.416374	-0.216506	0.357948
C30	C	1.072950	-0.333208	0.357868
C31	C	1.072961	-0.383142	0.357877
C32	C	1.120663	-0.692782	0.310485
C33	C	1.120754	-0.880455	0.310514
O34	O	1.161206	-0.904717	0.270192
N35	N	1.073238	-0.903927	0.357961
C36	C	1.025700	-0.880478	0.405407
O37	O	0.985292	-0.904749	0.445769
C38	C	1.025612	-0.692806	0.405381
C39	C	1.073126	-0.669337	0.357926
C40	C	1.168173	-0.669312	0.263035
C41	C	1.168147	-0.622397	0.263025
C42	C	1.120610	-0.598951	0.310466
C43	C	1.073100	-0.622421	0.357917
C44	C	0.978078	-0.669358	0.452831
C45	C	0.978062	-0.622437	0.452822
C46	C	1.025575	-0.598967	0.405367
C47	C	1.025537	-0.552060	0.405348
N48	N	1.073053	-0.528588	0.357902
C49	C	1.120589	-0.552033	0.310461
C50	C	1.025748	-0.979009	0.405416
C51	C	1.025769	-1.025927	0.405422
C52	C	1.120824	-1.025900	0.310530
C53	C	1.120799	-0.978982	0.310521
C54	C	1.073264	-0.955537	0.357970
C55	C	1.120530	-0.453508	0.310444
C56	C	1.120497	-0.406588	0.310436
C57	C	1.025445	-0.406619	0.405331
C58	C	1.025474	-0.453534	0.405336
C59	C	1.073023	-0.476977	0.357890
O60	O	0.985113	-0.527769	0.445655
O61	O	1.161002	-0.527755	0.270116
C62	C	1.120689	-0.739698	0.310495
C63	C	1.073178	-0.763167	0.357946
C64	C	1.025642	-0.739722	0.405387
C65	C	1.073199	-0.810085	0.357951
C66	C	1.120736	-0.833531	0.310510
C67	C	1.168252	-0.810059	0.263064
C68	C	1.168225	-0.763143	0.263054
C69	C	0.978126	-0.763194	0.452833
C70	C	0.978155	-0.810109	0.452838
C71	C	1.025692	-0.833555	0.405397
C72	C	1.266790	-0.216502	0.357947
C73	C	1.349336	-0.216510	0.357964
C74	C	1.073113	-0.216465	0.551611
C75	C	1.073126	-0.216457	0.634156
C76	C	1.073239	-0.099307	0.357958
C77	C	1.073305	-0.049373	0.357981
C78	C	1.073098	-0.216473	0.164953
C79	C	1.073230	-0.216355	0.082407
C80	C	1.023518	-0.246420	0.833583
C81	C	1.091269	-0.257404	0.882980
C82	C	1.073162	-0.216423	0.785287
C83	C	1.005449	-0.205426	0.882971
C84	C	1.073192	-0.216390	0.931272
C85	C	1.140949	-0.227429	0.833597
C86	C	1.055083	-0.175431	0.833584
C87	C	1.122881	-0.186400	0.882959
C88	C	1.073145	-0.216442	0.701189
C89	C	1.073218	-0.216371	1.015369
H90	H	0.619673	-0.292138	0.324073
C91	C	1.035268	-0.129095	0.726695
C92	C	1.034393	-0.128666	0.804260
H93	H	1.022493	-0.100224	0.708592
H94	H	1.000483	-0.150487	0.709060
H95	H	1.083427	-0.136859	0.709830
H96	H	0.986233	-0.120906	0.821125
H97	H	1.069179	-0.107268	0.821901
C98	C	0.986029	-0.323596	0.829246
C99	C	0.966897	-0.280707	0.804308
H100	H	0.951078	-0.344763	0.811168
H101	H	0.985962	-0.324006	0.881861
H102	H	1.034021	-0.331107	0.811610
H103	H	0.918907	-0.273195	0.821949
H104	H	0.966957	-0.280295	0.751682
C105	C	1.178525	-0.569668	0.163118
C106	C	1.220383	-0.596605	0.210865
H107	H	1.210778	-0.553750	0.130913
H108	H	1.150222	-0.548985	0.191364
H109	H	1.146195	-0.588003	0.134684
H110	H	1.252709	-0.578270	0.239303
H111	H	1.248698	-0.617290	0.182616
C112	C	0.545827	-0.269847	0.534712
C113	C	0.519727	-0.280925	0.463971
H114	H	0.527882	-0.291057	0.569614
H115	H	0.528851	-0.240780	0.547793
H116	H	0.598450	-0.270201	0.534705
H117	H	0.467103	-0.280568	0.463977
H118	H	0.536699	-0.310000	0.450887
C119	C	1.268166	-0.721977	0.252875
C120	C	1.220483	-0.695060	0.210909
H121	H	1.300477	-0.737862	0.220696
H122	H	1.239879	-0.742688	0.281095
H123	H	1.296488	-0.703632	0.285286
H124	H	1.192156	-0.713405	0.178501
H125	H	1.248772	-0.674347	0.182676
C126	C	0.876225	-0.224362	0.887320
C127	C	0.928129	-0.192884	0.912249
H128	H	0.828490	-0.216619	0.905390
H129	H	0.889421	-0.253260	0.904962
H130	H	0.875556	-0.224548	0.834698
H131	H	0.928802	-0.192700	0.964871
H132	H	0.914930	-0.163978	0.894610
C133	C	1.143202	-0.119747	0.954735
C134	C	1.179631	-0.152131	0.912038
H135	H	1.178238	-0.098590	0.972680
H136	H	1.119277	-0.133845	0.995385
H137	H	1.107392	-0.104838	0.925090
H138	H	1.215437	-0.167042	0.941685
H139	H	1.203568	-0.138031	0.871381
H140	H	0.619814	-0.161048	0.266470
H141	H	1.159489	-0.959875	0.271880
H142	H	1.106579	-0.292056	0.904678
H143	H	1.198243	-0.236756	0.812000
C144	C	0.878127	-0.569732	0.463044
C145	C	0.925807	-0.596667	0.504979
H146	H	0.845870	-0.553822	0.495245
H147	H	0.849752	-0.588062	0.430669
H148	H	0.906424	-0.549038	0.434788
H149	H	0.897509	-0.617364	0.533232
H150	H	0.954184	-0.578335	0.537368
C151	C	1.220493	-0.506195	0.300238
C152	C	1.172807	-0.479267	0.258295
H153	H	1.252770	-0.522093	0.268042
H154	H	1.192206	-0.526894	0.328480
H155	H	1.248851	-0.487857	0.332627
H156	H	1.144444	-0.497605	0.225910
H157	H	1.201097	-0.458565	0.230040
C158	C	0.544257	-0.208366	0.160960
C159	C	0.519352	-0.239883	0.212741
H160	H	0.526129	-0.216064	0.113199
H161	H	0.596871	-0.208188	0.160278
H162	H	0.526648	-0.179473	0.174282
H163	H	0.536966	-0.268777	0.199422
H164	H	0.466727	-0.240067	0.213421
H165	H	0.619970	-0.196318	0.482978
C166	C	1.163138	-1.097814	0.268495
C167	C	1.173134	-1.051678	0.258438
H168	H	1.195452	-1.113728	0.236359
H169	H	1.113274	-1.105547	0.257519
H170	H	1.173920	-1.105457	0.318429
H171	H	1.162347	-1.044035	0.208505
H172	H	1.223009	-1.043942	0.269409
H173	H	0.527115	-0.140885	0.391596
H174	H	1.159189	-0.387480	0.271790
C175	C	1.015404	-1.078661	0.505317
C176	C	0.973536	-1.051723	0.457580
H177	H	0.983157	-1.094586	0.537517
H178	H	1.047729	-1.060329	0.533749
H179	H	1.043711	-1.099341	0.477057
H180	H	0.945232	-1.031040	0.485840
H181	H	0.941197	-1.070055	0.429145
C182	C	1.210522	-0.881973	0.220988
C183	C	1.220529	-0.835837	0.210940
H184	H	1.242807	-0.897887	0.188822
H185	H	1.160648	-0.889697	0.210045
H186	H	1.221337	-0.889623	0.270911
H187	H	1.209709	-0.828185	0.161018
H188	H	1.270415	-0.828109	0.221878
C189	C	0.931782	-0.983758	0.499204
C190	C	0.973483	-0.953242	0.457568
H191	H	0.899511	-0.967851	0.531393
H192	H	0.964130	-1.002028	0.527647
H193	H	0.903416	-1.002086	0.466805
H194	H	1.001853	-0.934917	0.489967
H195	H	0.941131	-0.934965	0.429122
H196	H	0.939383	-0.688459	0.491470
H197	H	0.986787	-0.472644	0.443980
H198	H	0.986739	-0.387522	0.443954
H199	H	1.206916	-0.744038	0.224412
H200	H	0.939458	-0.829214	0.491481
C201	C	0.884164	-0.767942	0.546617
C202	C	0.925862	-0.737427	0.504978
H203	H	0.851891	-0.752035	0.578805
H204	H	0.916513	-0.786209	0.575063
H205	H	0.855800	-0.786273	0.514221
H206	H	0.954231	-0.719099	0.537374
H207	H	0.893509	-0.719152	0.476530
