data_functionalizedCrystal
_audit_creation_method	'MofGen! by Chris Wilmer'
_symmetry_space_group_name_H-M	'P1'
_symmetry_Int_Tables_number	1
_symmetry_cell_setting	triclinic
loop_
_symmetry_equiv_pos_as_xyz
  x,y,z
_cell_length_a	10.540535
_cell_length_b	10.540510
_cell_length_c	9.130313
_cell_angle_alpha	90.001199
_cell_angle_beta	90.002127
_cell_angle_gamma	84.518476
loop_
_atom_site_label
_atom_site_type_symbol
_atom_site_fract_x
_atom_site_fract_y
_atom_site_fract_z
O1	O	1.685864	0.178870	-0.121710
O2	O	1.316449	0.195732	-0.121730
O3	O	1.509604	0.002592	-0.121719
O4	O	1.492709	0.372010	-0.121721
O5	O	1.509602	0.002597	0.121880
O6	O	1.316446	0.195737	0.121869
O7	O	1.685862	0.178875	0.121888
Cu8	Cu	1.501154	0.187306	0.144121
Cu9	Cu	1.501157	0.187300	-0.143963
O10	O	1.492706	0.372015	0.121878
C11	C	1.269145	0.194471	0.000067
C12	C	1.128197	0.190691	0.000059
C13	C	1.091541	0.049676	0.000066
C14	C	0.944941	0.045698	0.000633
C15	C	0.918852	0.255066	0.138912
C16	C	1.065618	0.258066	0.139014
C17	C	1.065504	0.260112	-0.138013
C18	C	0.919158	0.253590	-0.139823
C19	C	1.508344	-0.044709	0.000077
C20	C	1.504577	-0.185659	0.000068
C21	C	1.638761	-0.403117	0.000633
C22	C	1.642779	-0.256521	0.000077
C23	C	1.433832	-0.230420	-0.139040
C24	C	1.430793	-0.377180	-0.139149
C25	C	1.427912	-0.376983	0.137869
C26	C	1.434467	-0.230642	0.139700
C27	C	1.733166	0.180136	0.000088
C28	C	1.874114	0.183915	0.000087
C29	C	1.493967	0.419316	0.000078
C30	C	1.497733	0.560266	0.000077
N31	N	1.501161	0.187310	0.346744
N32	N	1.501159	0.187287	-0.346585
C33	C	1.586713	0.101817	0.423400
C34	C	1.586709	0.101802	0.576737
C35	C	1.415599	0.272784	0.576747
C36	C	1.415597	0.272792	0.423413
C37	C	1.685506	0.003105	0.423396
C38	C	1.685502	0.003090	0.576733
H39	H	0.887955	0.206255	0.242625
C40	C	1.321484	0.366826	0.339095
H41	H	1.270536	0.417739	0.406721
H42	H	1.268241	0.320647	0.279271
H43	H	1.367618	0.420127	0.279289
H44	H	1.663807	-0.094477	0.381775
H45	H	1.105793	0.210020	0.243187
H46	H	1.698456	-0.228119	-0.099807
H47	H	1.087678	0.363865	-0.139356
C48	C	1.817285	0.032521	0.632972
H49	H	1.871480	0.044648	0.552048
H50	H	1.853392	-0.036686	0.690764
H51	H	1.808277	0.107781	0.690783
C52	C	1.810017	0.044913	0.359136
H53	H	1.805766	0.043504	0.255219
H54	H	1.879937	-0.011803	0.391258
H55	H	1.821148	0.128854	0.391271
C56	C	1.503964	-0.191944	0.278733
H57	H	1.461094	-0.219412	0.362827
H58	H	1.504532	-0.101905	0.281265
H59	H	1.589136	-0.230650	0.277889
C60	C	1.321464	0.366789	0.661081
H61	H	1.270499	0.417694	0.593462
H62	H	1.367567	0.420081	0.720925
H63	H	1.268222	0.320571	0.720867
C64	C	0.905313	-0.029489	-0.133759
H65	H	0.978872	-0.057877	-0.189192
H66	H	0.848531	0.023987	-0.192832
H67	H	0.864109	-0.100994	-0.102154
C68	C	1.148240	-0.023494	-0.134399
H69	H	1.125015	-0.108374	-0.132349
H70	H	1.238465	-0.024827	-0.132550
H71	H	1.116201	0.017570	-0.221265
C72	C	1.150241	-0.022254	0.134359
H73	H	1.196987	0.033281	0.190427
H74	H	1.205705	-0.093276	0.102656
H75	H	1.084234	-0.051123	0.192867
H76	H	1.654637	-0.089128	0.624278
C77	C	1.717571	-0.216873	0.134769
H78	H	1.745772	-0.290422	0.190318
H79	H	1.663930	-0.160061	0.193624
H80	H	1.789184	-0.175698	0.103451
C81	C	1.298157	-0.164370	0.151049
H82	H	1.258111	-0.193332	0.236348
H83	H	1.250787	-0.184124	0.066929
H84	H	1.301480	-0.074762	0.156891
H85	H	0.916493	-0.009669	0.100738
C86	C	0.852883	0.389860	-0.151754
H87	H	0.881869	0.429635	-0.237222
H88	H	0.872592	0.437510	-0.067837
H89	H	0.763280	0.386498	-0.157593
C90	C	1.711513	-0.459796	0.135389
H91	H	1.796407	-0.436596	0.133678
H92	H	1.712827	-0.550020	0.133545
H93	H	1.670196	-0.427723	0.222092
C94	C	1.096724	0.397712	0.147008
H95	H	1.019691	0.452358	0.150191
H96	H	1.144444	0.417156	0.063049
H97	H	1.145209	0.409774	0.232744
C98	C	1.287740	-0.406900	0.139134
H99	H	1.271793	-0.457384	0.056147
H100	H	1.233601	-0.329544	0.136073
H101	H	1.271359	-0.452259	0.225950
H102	H	0.871485	0.356833	0.143683
C103	C	1.496045	-0.431512	-0.279649
H104	H	1.524171	-0.363861	-0.336115
H105	H	1.437124	-0.474514	-0.335223
H106	H	1.567101	-0.489662	-0.254297
C107	C	1.711082	-0.461876	-0.133369
H108	H	1.655702	-0.508623	-0.189657
H109	H	1.781994	-0.517348	-0.101379
H110	H	1.740146	-0.395896	-0.191764
H111	H	1.107969	0.216107	-0.243275
H112	H	0.890562	0.201812	-0.242528
C113	C	1.486913	-0.434305	0.280312
H114	H	1.443405	-0.395134	0.362123
H115	H	1.574402	-0.419777	0.284590
H116	H	1.479318	-0.523377	0.282106
H117	H	1.327426	-0.400174	-0.145457
H118	H	1.332090	-0.183029	-0.144218
H119	H	1.482964	-0.199566	-0.242558
