data_functionalizedCrystal
_audit_creation_method	'MofGen! by Chris Wilmer'
_symmetry_space_group_name_H-M	'P1'
_symmetry_Int_Tables_number	1
_symmetry_cell_setting	triclinic
loop_
_symmetry_equiv_pos_as_xyz
  x,y,z
_cell_length_a	17.699083
_cell_length_b	12.996460
_cell_length_c	17.699083
_cell_angle_alpha	89.992964
_cell_angle_beta	96.716985
_cell_angle_gamma	89.999557
loop_
_atom_site_label
_atom_site_type_symbol
_atom_site_fract_x
_atom_site_fract_y
_atom_site_fract_z
O1	O	1.004077	0.085425	-0.095713
O2	O	1.504077	0.585425	0.404287
O3	O	0.783698	0.085459	-0.108165
O4	O	1.283698	0.585459	0.391835
O5	O	0.900114	0.085432	0.008250
O6	O	1.400114	0.585432	0.508250
O7	O	0.887661	0.085452	-0.212128
O8	O	1.387661	0.585452	0.287872
O9	O	0.900102	-0.085702	0.008257
O10	O	1.400102	0.414298	0.508257
O11	O	0.783686	-0.085675	-0.108159
O12	O	1.283686	0.414325	0.391841
O13	O	1.004065	-0.085709	-0.095706
O14	O	1.504065	0.414291	0.404294
Cu15	Cu	0.893874	-0.101318	-0.101932
Cu16	Cu	1.393874	0.398682	0.398068
Cu17	Cu	0.893889	0.101067	-0.101939
Cu18	Cu	1.393889	0.601067	0.398061
O19	O	0.887649	-0.085682	-0.212122
O20	O	1.387649	0.414318	0.287878
C21	C	0.755495	-0.000104	-0.107716
C22	C	1.255495	0.499896	0.392284
C23	C	0.671477	-0.000091	-0.106377
C24	C	1.171477	0.499909	0.393623
N25	N	0.893870	-0.243665	-0.101926
N26	N	1.393870	0.256335	0.398074
C27	C	0.622856	-0.000085	-0.174710
C28	C	1.122856	0.499915	0.325290
C29	C	0.543913	-0.000099	-0.173448
C30	C	1.043913	0.499901	0.326552
C31	C	0.513592	-0.000111	-0.103852
C32	C	1.013592	0.499889	0.396148
C33	C	0.562219	-0.000120	-0.035513
C34	C	1.062219	0.499880	0.464487
C35	C	0.641161	-0.000114	-0.036776
C36	C	1.141161	0.499886	0.463224
C37	C	0.243856	-0.000146	-0.030418
C38	C	0.743856	0.499854	0.469582
C39	C	0.164908	-0.000149	-0.029160
C40	C	0.664908	0.499851	0.470840
C41	C	0.146608	-0.000131	-0.167090
C42	C	0.646608	0.499869	0.332910
C43	C	0.225550	-0.000125	-0.168353
C44	C	0.725550	0.499875	0.331647
C45	C	0.274170	-0.000139	-0.100015
C46	C	0.774170	0.499861	0.399985
C47	C	0.359769	-0.000127	-0.101384
C48	C	0.859769	0.499873	0.398616
C49	C	0.427995	-0.000116	-0.102481
C50	C	0.927995	0.499884	0.397519
C51	C	0.893888	-0.663479	-0.101940
C52	C	1.393888	-0.163479	0.398060
C53	C	0.893880	-0.546674	-0.101939
C54	C	1.393880	-0.046674	0.398061
C55	C	0.893879	-0.453576	-0.101934
C56	C	1.393879	0.046424	0.398066
C57	C	0.893871	-0.336763	-0.101931
C58	C	1.393871	0.163237	0.398069
C59	C	1.032268	-0.000144	-0.096156
C60	C	1.532268	0.499856	0.403844
C61	C	1.116286	-0.000150	-0.097494
C62	C	1.616286	0.499850	0.402506
C63	C	0.899662	-0.000135	0.036451
C64	C	1.399662	0.499865	0.536451
C65	C	0.898323	-0.000136	0.120469
C66	C	1.398323	0.499864	0.620469
N67	N	0.893899	0.243415	-0.101939
N68	N	1.393899	0.743415	0.398061
C69	C	0.888102	-0.000113	-0.240322
C70	C	1.388102	0.499887	0.259678
C71	C	0.889440	-0.000106	-0.324340
C72	C	1.389440	0.499894	0.175660
C73	C	0.966656	-0.000148	0.169090
C74	C	1.466656	0.499852	0.669090
C75	C	0.965394	-0.000138	0.248033
C76	C	1.465394	0.499862	0.748033
C77	C	0.895798	-0.000124	0.278354
C78	C	1.395798	0.499876	0.778354
C79	C	0.827459	-0.000109	0.229727
C80	C	1.327459	0.499891	0.729727
C81	C	0.828722	-0.000111	0.150785
C82	C	1.328722	0.499889	0.650785
C83	C	0.822364	-0.000100	0.548090
C84	C	1.322364	0.499900	1.048090
C85	C	0.821106	-0.000101	0.627038
C86	C	1.321106	0.499899	1.127038
C87	C	0.959036	-0.000127	0.645338
C88	C	1.459036	0.499873	1.145338
C89	C	0.960299	-0.000129	0.566396
C90	C	1.460299	0.499871	1.066396
C91	C	0.891961	-0.000109	0.517776
C92	C	1.391961	0.499891	1.017776
C93	C	0.893330	-0.000117	0.432177
C94	C	1.393330	0.499883	0.932177
C95	C	0.894427	-0.000124	0.363951
C96	C	1.394427	0.499876	0.863951
H97	H	0.647537	-0.000075	-0.231384
H98	H	1.147537	0.499925	0.268616
F99	F	1.034373	-0.000143	0.534131
F100	F	1.534373	0.499857	1.034131
H101	H	0.107012	-0.000125	-0.222734
H102	H	0.607012	0.499875	0.277266
H103	H	1.021038	-0.000150	0.287618
H104	H	1.521038	0.499850	0.787618
F105	F	1.031768	-0.000145	0.697089
F106	F	1.531768	0.499855	1.197089
H107	H	0.764429	-0.000092	0.651721
H108	H	1.264429	0.499908	1.151721
F109	F	0.132641	-0.000162	0.044918
F110	F	0.632641	0.499838	0.544918
H111	H	0.766718	-0.000084	0.508512
H112	H	1.266718	0.499916	1.008512
F113	F	1.040732	-0.000172	0.136828
F114	F	1.540732	0.499828	0.636828
H115	H	0.504328	-0.000093	-0.229092
H116	H	1.004328	0.499907	0.270908
H117	H	0.283434	-0.000158	0.025228
H118	H	0.783434	0.499842	0.525228
F119	F	0.257815	-0.000106	-0.242427
F120	F	0.757815	0.499894	0.257573
F121	F	0.692907	-0.000124	0.035954
F122	F	1.192907	0.499876	0.535954
H123	H	0.770792	-0.000091	0.254420
H124	H	1.270792	0.499909	0.754420
H125	H	0.773078	-0.000101	0.111198
H126	H	1.273078	0.499899	0.611198
H127	H	0.537526	-0.000144	0.021154
H128	H	1.037526	0.499856	0.521154
