data_functionalizedCrystal
_audit_creation_method	'MofGen! by Chris Wilmer'
_symmetry_space_group_name_H-M	'P1'
_symmetry_Int_Tables_number	1
_symmetry_cell_setting	triclinic
loop_
_symmetry_equiv_pos_as_xyz
  x,y,z
_cell_length_a	12.759401
_cell_length_b	10.686285
_cell_length_c	10.685986
_cell_angle_alpha	81.587410
_cell_angle_beta	94.351106
_cell_angle_gamma	85.631983
loop_
_atom_site_label
_atom_site_type_symbol
_atom_site_fract_x
_atom_site_fract_y
_atom_site_fract_z
Zn1	Zn	1.591747	-0.450156	-0.678939
Zn2	Zn	1.620843	-0.678740	-0.450437
Zn3	Zn	1.430634	-0.466513	-0.466709
Zn4	Zn	1.430654	-0.662354	-0.662647
O5	O	1.518470	-0.564441	-0.564683
O6	O	1.742628	-0.480491	-0.648637
O7	O	1.607780	-0.664290	-0.274966
O8	O	1.439821	-0.286720	-0.508490
O9	O	1.764005	-0.648430	-0.480757
O10	O	1.558190	-0.274703	-0.664415
O11	O	1.468034	-0.508368	-0.286921
O12	O	1.283616	-0.492479	-0.492692
O13	O	1.439855	-0.620502	-0.842438
O14	O	1.283630	-0.636363	-0.636647
O15	O	1.558209	-0.464602	-0.854408
O16	O	1.607800	-0.854189	-0.464959
O17	O	1.468068	-0.842150	-0.620869
C18	C	1.245502	-0.564419	-0.564668
C19	C	1.128725	-0.564437	-0.564689
C20	C	1.073916	-0.639498	-0.639502
C21	C	0.964192	-0.639513	-0.639515
C22	C	0.964096	-0.489405	-0.489890
C23	C	1.073817	-0.489384	-0.489886
C24	C	1.073972	-0.726166	-0.725882
C25	C	0.964248	-0.726181	-0.725895
C26	C	1.541120	-0.894223	-0.539408
C27	C	1.550903	-1.035302	-0.528638
C28	C	1.792503	-0.564464	-0.564699
C29	C	1.909280	-0.564473	-0.564706
C30	C	1.495789	-0.538900	-0.895768
C31	C	1.486123	-0.528016	-1.036857
C32	C	1.495758	-0.233369	-0.590085
C33	C	1.486079	-0.092285	-0.600909
C34	C	1.541117	-0.589791	-0.234894
C35	C	1.550961	-0.600317	-0.093833
H36	H	1.118437	-0.428253	-0.428975
H37	H	1.116844	-0.822212	-0.683357
F38	F	1.633223	-1.112611	-0.436971
F39	F	1.403907	-0.436224	-1.114176
F40	F	0.908254	-0.670942	-0.851553
F41	F	1.403754	-1.014983	-0.692558
H42	H	1.613872	-0.670537	-1.034670
H43	H	1.095217	-0.692401	-0.826241
F44	F	0.936525	-0.857289	-0.681394
F45	F	0.905650	-0.409530	-0.410286
