data_functionalizedCrystal
_audit_creation_method	'MofGen! by Chris Wilmer'
_symmetry_space_group_name_H-M	'P1'
_symmetry_Int_Tables_number	1
_symmetry_cell_setting	triclinic
loop_
_symmetry_equiv_pos_as_xyz
  x,y,z
_cell_length_a	13.262402
_cell_length_b	26.809956
_cell_length_c	13.339070
_cell_angle_alpha	89.991729
_cell_angle_beta	99.431904
_cell_angle_gamma	74.090536
loop_
_atom_site_label
_atom_site_type_symbol
_atom_site_fract_x
_atom_site_fract_y
_atom_site_fract_z
O1	O	1.432365	-0.152858	0.136509
O2	O	1.131110	-0.111985	0.151323
O3	O	1.247164	-0.127732	-0.003496
O4	O	1.316312	-0.137111	0.291327
O5	O	1.247140	-0.210688	-0.003472
O6	O	1.131087	-0.194941	0.151346
O7	O	1.432342	-0.235814	0.136533
Zn8	Zn	1.281711	-0.228548	0.143943
Zn9	Zn	1.281742	-0.119250	0.143912
O10	O	1.316289	-0.220067	0.291351
C11	C	1.091754	-0.148124	0.150500
C12	C	0.974514	-0.132218	0.148003
C13	C	0.919447	-0.079524	0.146816
C14	C	0.809296	-0.064580	0.144479
C15	C	0.754201	-0.102328	0.143322
C16	C	0.809268	-0.155022	0.144502
C17	C	0.919430	-0.169968	0.146847
C18	C	0.754185	-0.192772	0.143353
C19	C	0.809251	-0.245467	0.144533
C20	C	0.919403	-0.260410	0.146877
C21	C	0.974498	-0.222662	0.148034
C22	C	0.644022	-0.177826	0.141008
C23	C	0.644005	-0.268271	0.141040
C24	C	0.754156	-0.283215	0.143376
N25	N	1.281697	-0.303143	0.143964
C26	C	1.333126	-0.654747	0.075376
C27	C	1.333146	-0.863627	0.075360
O28	O	1.376832	-0.896559	0.017050
N29	N	1.281741	-0.882776	0.143890
C30	C	1.230321	-0.849699	0.212424
O31	O	1.186589	-0.870777	0.270705
C32	C	1.230295	-0.640819	0.212433
C33	C	1.281712	-0.621675	0.143906
C34	C	1.384538	-0.635603	0.006853
C35	C	1.384538	-0.583386	0.006861
C36	C	1.333124	-0.550314	0.075392
C37	C	1.281712	-0.569459	0.143914
C38	C	1.178869	-0.607743	0.280961
C39	C	1.178864	-0.555519	0.280956
C40	C	1.230282	-0.536376	0.212429
C41	C	1.230298	-0.484170	0.212453
N42	N	1.281703	-0.465022	0.143923
C43	C	1.333116	-0.498094	0.075393
C44	C	1.230340	-0.959365	0.212415
C45	C	1.230348	-1.011585	0.212414
C46	C	1.333172	-1.025510	0.075349
C47	C	1.333170	-0.973289	0.075356
C48	C	1.281745	-0.940217	0.143885
C49	C	1.333112	-0.388436	0.075416
C50	C	1.333110	-0.336214	0.075433
C51	C	1.230282	-0.322294	0.212494
C52	C	1.230288	-0.374511	0.212481
C53	C	1.281704	-0.407581	0.143933
O54	O	1.186625	-0.451208	0.270725
O55	O	1.376822	-0.477003	0.017105
C56	C	1.333126	-0.706963	0.075367
C57	C	1.281714	-0.726108	0.143890
C58	C	1.230300	-0.693036	0.212420
C59	C	1.281722	-0.778328	0.143889
C60	C	1.333135	-0.811400	0.075358
C61	C	1.384541	-0.792252	0.006829
C62	C	1.384540	-0.740035	0.006837
C63	C	1.178895	-0.712184	0.280950
C64	C	1.178901	-0.764401	0.280937
C65	C	1.230314	-0.797473	0.212406
C66	C	1.471699	-0.199673	0.137355
C67	C	1.588938	-0.215577	0.139852
C68	C	1.235471	-0.167624	-0.041223
C69	C	1.200654	-0.162899	-0.153674
N70	N	1.281761	-0.044657	0.143883
C71	C	1.471373	-0.199629	-0.517309
C72	C	1.504088	-0.204073	-0.411656
C73	C	1.428233	-0.193779	-0.347155
C74	C	1.319656	-0.179042	-0.388318
C75	C	1.286937	-0.174602	-0.493981
C76	C	1.243797	-0.168752	-0.323827
C77	C	1.135220	-0.154015	-0.364990
C78	C	1.102506	-0.149575	-0.470642
C79	C	1.178362	-0.159869	-0.535143
C80	C	1.276515	-0.173192	-0.218164
C81	C	1.092079	-0.148165	-0.194836
C82	C	1.059364	-0.143722	-0.300489
C83	C	1.327981	-0.180173	0.329078
C84	C	1.362798	-0.184896	0.441529
H85	H	0.799007	-0.326120	0.144338
Cl86	Cl	0.922871	-0.125195	-0.352249
Cl87	Cl	0.574752	-0.315728	0.139590
Cl88	Cl	1.114210	-0.513946	0.367112
Cl89	Cl	1.165660	-0.398578	0.298643
Cl90	Cl	1.137238	-0.154224	-0.667970
Cl91	Cl	0.740078	0.001662	0.142995
H92	H	0.599198	-0.134922	0.140049
H93	H	1.188425	-0.295359	0.268294
H94	H	1.374984	-0.320631	0.019630
Cl95	Cl	1.114257	-0.670614	0.367112
H96	H	1.426409	-0.724453	-0.048965
H97	H	0.664512	-0.090157	0.141419
H98	H	1.375037	-1.052446	0.019550
Cl99	Cl	0.988714	-0.032076	0.148275
Cl100	Cl	0.996711	-0.135228	-0.113757
Cl101	Cl	1.397753	-0.430001	-0.010758
H102	H	1.014096	-0.137579	-0.504153
Cl103	Cl	1.114223	-0.631798	0.367111
H104	H	1.533122	-0.208013	-0.569833
Cl105	Cl	0.988630	-0.326655	0.148381
Cl106	Cl	1.112979	-0.241447	0.150971
H107	H	1.426408	-0.819188	-0.048969
Cl108	Cl	1.449181	-0.677171	-0.079310
Cl109	Cl	1.449171	-0.559324	-0.079297
H110	H	1.137035	-0.779984	0.336748
H111	H	1.375038	-0.957706	0.019555
H112	H	1.188493	-1.027170	0.268226
H113	H	1.188463	-0.932440	0.268223
Cl114	Cl	1.413007	-0.191718	-0.166430
Cl115	Cl	1.469363	-0.199363	-0.214333
H116	H	1.592491	-0.216072	-0.378149
