data_functionalizedCrystal
_audit_creation_method	'MofGen! by Chris Wilmer'
_symmetry_space_group_name_H-M	'P1'
_symmetry_Int_Tables_number	1
_symmetry_cell_setting	triclinic
loop_
_symmetry_equiv_pos_as_xyz
  x,y,z
_cell_length_a	12.759401
_cell_length_b	25.639239
_cell_length_c	12.759393
_cell_angle_alpha	90.037257
_cell_angle_beta	90.017380
_cell_angle_gamma	90.038847
loop_
_atom_site_label
_atom_site_type_symbol
_atom_site_fract_x
_atom_site_fract_y
_atom_site_fract_z
Zn1	Zn	1.606069	-0.208117	0.593941
Zn2	Zn	1.605893	-0.295564	0.418245
Zn3	Zn	1.430374	-0.208144	0.418281
Zn4	Zn	1.430286	-0.295523	0.593886
O5	O	1.518155	-0.251837	0.506088
O6	O	1.753066	-0.219722	0.570643
O7	O	1.582573	-0.283996	0.271228
O8	O	1.453791	-0.134975	0.441621
O9	O	1.752937	-0.283969	0.441559
O10	O	1.582873	-0.134955	0.570678
O11	O	1.453620	-0.219769	0.271255
O12	O	1.283341	-0.219730	0.441567
O13	O	1.453640	-0.283900	0.740914
O14	O	1.283277	-0.283927	0.570584
O15	O	1.582787	-0.219683	0.740955
O16	O	1.582488	-0.368724	0.441505
O17	O	1.453470	-0.368694	0.570549
C18	C	1.245188	-0.251827	0.506074
C19	C	1.128411	-0.251836	0.506093
C20	C	1.073543	-0.285317	0.573160
C21	C	0.963819	-0.285323	0.573172
C22	C	0.963841	-0.218367	0.439039
C23	C	1.073563	-0.218358	0.439033
C24	C	1.073529	-0.323975	0.650598
C25	C	0.963805	-0.323982	0.650609
C26	C	1.517979	-0.387680	0.506040
C27	C	1.517999	-0.445794	0.506055
C28	C	1.585510	-0.806160	0.439010
C29	C	1.585551	-0.860764	0.439024
O30	O	1.642768	-0.889003	0.381967
N31	N	1.518340	-0.888076	0.506158
C32	C	1.451092	-0.860781	0.573289
O33	O	1.393928	-0.889026	0.630394
C34	C	1.451057	-0.806178	0.573280
C35	C	1.518265	-0.778868	0.506134
C36	C	1.652713	-0.778850	0.371870
C37	C	1.652671	-0.724250	0.371855
C38	C	1.585426	-0.696958	0.438980
C39	C	1.518222	-0.724268	0.506119
C40	C	1.383814	-0.778884	0.640416
C41	C	1.383786	-0.724277	0.640401
C42	C	1.450994	-0.696967	0.573256
C43	C	1.450934	-0.642376	0.573228
N44	N	1.518145	-0.615064	0.506094
C45	C	1.585391	-0.642355	0.438970
C46	C	1.451171	-0.975452	0.573306
C47	C	1.451199	-1.030054	0.573311
C48	C	1.585660	-1.030033	0.439046
C49	C	1.585626	-0.975430	0.439037
C50	C	1.518382	-0.948139	0.506172
C51	C	1.585296	-0.527690	0.438943
C52	C	1.585245	-0.473085	0.438930
C53	C	1.450788	-0.473110	0.573198
C54	C	1.450835	-0.527711	0.573207
C55	C	1.518098	-0.555000	0.506076
O56	O	1.393750	-0.614102	0.630258
O57	O	1.642555	-0.614103	0.381885
C58	C	1.792189	-0.251847	0.506103
C59	C	1.908965	-0.251851	0.506109
C60	C	1.518224	-0.251784	0.780122
C61	C	1.518253	-0.251761	0.896898
C62	C	1.518361	-0.115464	0.506159
C63	C	1.518449	-0.057350	0.506190
C64	C	1.518148	-0.251852	0.233121
C65	C	1.518322	-0.251728	0.116345
C66	C	1.451135	-0.218312	0.951780
C67	C	1.451167	-0.218296	1.061504
C68	C	1.585443	-0.285180	1.061455
C69	C	1.585405	-0.285198	0.951733
C70	C	1.373616	-0.179696	0.951810
C71	C	1.373647	-0.179680	1.061534
H72	H	0.933976	-0.364465	0.628669
H73	H	1.640419	-1.052263	0.384394
O74	O	1.650822	-0.317632	1.114607
C75	C	1.755544	-0.306205	1.087822
H76	H	1.757727	-0.286118	1.008171
H77	H	1.790993	-0.279318	1.149594
C78	C	1.816422	-0.381852	1.180541
C79	C	1.819104	-0.357184	1.082708
H80	H	1.855630	-0.413297	1.177391
H81	H	1.745869	-0.389549	1.198591
H82	H	1.845960	-0.359440	1.232007
H83	H	1.789554	-0.379593	1.031246
H84	H	1.889653	-0.349491	1.064650
O85	O	1.650967	-0.948846	0.373963
C86	C	1.718797	-0.917218	0.433827
H87	H	1.681696	-0.909022	0.513413
H88	H	1.796657	-0.938223	0.445444
C89	C	1.783399	-0.875432	0.278273
C90	C	1.737827	-0.865362	0.376019
H91	H	1.795143	-0.843445	0.242613
H92	H	1.737704	-0.896741	0.237940
H93	H	1.848278	-0.892937	0.287968
H94	H	1.672944	-0.847862	0.366323
H95	H	1.783511	-0.844047	0.416349
H96	H	1.402812	-0.141238	0.917801
H97	H	1.396112	-0.549947	0.627886
H98	H	1.118233	-0.191091	0.384427
O99	O	1.718214	-0.805281	0.306711
C100	C	1.822884	-0.791860	0.329810
H101	H	1.824954	-0.752207	0.370233
H102	H	1.858290	-0.822556	0.383837
C103	C	1.884053	-0.837998	0.177809
C104	C	1.886596	-0.789294	0.227449
H105	H	1.923356	-0.836418	0.114669
H106	H	1.813536	-0.847042	0.162248
H107	H	1.913556	-0.863573	0.222842
H108	H	1.857082	-0.763722	0.182421
H109	H	1.957111	-0.780246	0.243000
H110	H	0.919171	-0.191110	0.384442
O111	O	1.399617	-0.131331	1.096977
C112	C	1.325891	-0.094740	1.060103
H113	H	1.286133	-0.110635	0.986700
H114	H	1.264424	-0.087389	1.123226
C115	C	1.430927	-0.023706	1.123868
C116	C	1.382102	-0.043227	1.033706
H117	H	1.465598	0.008071	1.107589
H118	H	1.480597	-0.048357	1.148714
H119	H	1.379696	-0.017584	1.176462
H120	H	1.433334	-0.049354	0.981119
H121	H	1.332442	-0.018575	1.008850
H122	H	1.639973	-0.450851	0.384249
H123	H	1.103345	-0.313176	0.732007
H124	H	1.107512	-0.362420	0.621306
O125	O	0.923075	-0.306733	0.742807
C126	C	0.812724	-0.307773	0.737367
H127	H	0.787037	-0.306218	0.651847
H128	H	0.782431	-0.345233	0.774760
C129	C	0.799351	-0.262319	0.901476
C130	C	0.767802	-0.260404	0.796439
H131	H	0.771640	-0.233101	0.937918
H132	H	0.873697	-0.261620	0.905144
H133	H	0.774105	-0.293538	0.932623
H134	H	0.793060	-0.229188	0.765291
H135	H	0.693459	-0.261097	0.792767
O136	O	1.650663	-0.554112	0.373630
C137	C	1.709979	-0.518290	0.314393
H138	H	1.666911	-0.479393	0.310722
H139	H	1.789748	-0.512425	0.352930
C140	C	1.778095	-0.587402	0.207095
C141	C	1.725193	-0.539629	0.202579
H142	H	1.787484	-0.600565	0.138124
H143	H	1.738136	-0.611536	0.247006
H144	H	1.844563	-0.582508	0.239214
H145	H	1.658721	-0.544525	0.170473
H146	H	1.765141	-0.515495	0.162660
O147	O	1.650446	-0.317750	0.898376
C148	C	1.590551	-0.351516	0.834870
H149	H	1.507809	-0.354731	0.867935
H150	H	1.586935	-0.335365	0.751723
C151	C	1.743406	-0.401927	0.792542
C152	C	1.641783	-0.405878	0.833158
H153	H	1.775009	-0.435459	0.791482
H154	H	1.783760	-0.379177	0.835324
H155	H	1.740378	-0.388466	0.723257
H156	H	1.644812	-0.419333	0.902447
H157	H	1.601430	-0.428632	0.790388
O158	O	1.385872	-1.056498	0.638627
C159	C	1.326495	-1.020694	0.697843
H160	H	1.369503	-0.981749	0.701501
H161	H	1.246721	-1.014943	0.659297
C162	C	1.258478	-1.089797	0.805165
C163	C	1.311305	-1.041965	0.809665
H164	H	1.249103	-1.102918	0.874140
H165	H	1.298477	-1.113919	0.765268
H166	H	1.192005	-1.084997	0.773038
H167	H	1.377782	-1.046766	0.841778
H168	H	1.271317	-1.017844	0.849570
H169	H	1.396034	-0.450882	0.627847
H170	H	1.292217	-0.190539	0.922030
O171	O	1.281507	-0.197058	1.102174
C172	C	1.300191	-0.241547	1.164311
H173	H	1.376527	-0.260777	1.138656
H174	H	1.306409	-0.229524	1.250126
C175	C	1.115326	-0.256789	1.182430
C176	C	1.209079	-0.280411	1.150914
H177	H	1.059122	-0.280762	1.174171
H178	H	1.102737	-0.226816	1.140571
H179	H	1.120522	-0.246771	1.253941
H180	H	1.203886	-0.290422	1.079402
H181	H	1.221664	-0.310387	1.192762
O182	O	1.318498	-0.805322	0.705745
C183	C	1.259134	-0.769515	0.764965
H184	H	1.302148	-0.730571	0.768612
H185	H	1.179356	-0.763762	0.726429
C186	C	1.191122	-0.838612	0.872305
C187	C	1.243957	-0.790781	0.876791
H188	H	1.181755	-0.851730	0.941283
H189	H	1.231113	-0.862737	0.832405
H190	H	1.124645	-0.833811	0.840187
H191	H	1.310436	-0.795584	0.908897
H192	H	1.203976	-0.766658	0.916699
O193	O	1.318613	-0.697743	0.705728
C194	C	1.378368	-0.666091	0.773610
H195	H	1.461124	-0.682500	0.780170
H196	H	1.381970	-0.624719	0.741120
C197	C	1.225341	-0.645086	0.874730
C198	C	1.326981	-0.665241	0.882794
H199	H	1.193642	-0.644559	0.942079
H200	H	1.185081	-0.666408	0.828995
H201	H	1.228357	-0.610610	0.847651
H202	H	1.323963	-0.699718	0.909860
H203	H	1.367239	-0.643924	0.928537
H204	H	1.707400	-0.702018	0.317183
H205	H	1.396404	-0.953235	0.627972
