data_functionalizedCrystal
_audit_creation_method	'MofGen! by Chris Wilmer'
_symmetry_space_group_name_H-M	'P1'
_symmetry_Int_Tables_number	1
_symmetry_cell_setting	triclinic
loop_
_symmetry_equiv_pos_as_xyz
  x,y,z
_cell_length_a	27.440280
_cell_length_b	12.970454
_cell_length_c	27.440280
_cell_angle_alpha	59.999212
_cell_angle_beta	90.008670
_cell_angle_gamma	59.998424
loop_
_atom_site_label
_atom_site_type_symbol
_atom_site_fract_x
_atom_site_fract_y
_atom_site_fract_z
Zr1	Zr	0.469493	1.128418	-0.063900
O2	O	0.391663	1.343545	-0.141729
O3	O	0.493352	0.913316	-0.040041
O4	O	0.493338	1.128429	-0.141716
O5	O	0.391688	1.128415	0.040147
O6	O	0.573541	1.128409	-0.141706
O7	O	0.391677	1.128432	-0.040055
O8	O	0.573565	0.743612	0.040171
O9	O	0.391663	1.513212	-0.141730
O10	O	0.563382	1.001767	-0.029859
O11	O	0.503535	1.001769	0.029988
O12	O	0.503519	1.255036	-0.089721
O13	O	0.443673	1.255038	-0.029874
Zr14	Zr	0.597424	1.128359	0.064029
Zr15	Zr	0.597407	1.128386	-0.063884
Zr16	Zr	0.469510	1.128391	0.064013
Zr17	Zr	0.469493	1.399018	-0.063901
Zr18	Zr	0.597424	0.857759	0.064029
O19	O	0.573565	1.343461	0.040170
O20	O	0.573541	1.343500	-0.141706
O21	O	0.391688	1.343506	0.040147
O22	O	0.675254	0.913232	0.141857
O23	O	0.675229	0.913271	-0.040019
O24	O	0.493376	0.913278	0.141835
O25	O	0.675229	1.128362	-0.040019
O26	O	0.573579	1.128349	0.141844
O27	O	0.493376	1.128368	0.141834
O28	O	0.675240	1.128345	0.040183
O29	O	0.493338	1.513187	-0.141717
O30	O	0.573579	0.743590	0.141845
O31	O	0.675254	0.743565	0.141858
O32	O	0.675240	0.743587	0.040184
O33	O	0.391677	1.513191	-0.040056
O34	O	0.493352	1.513165	-0.040043
O35	O	0.563398	1.001741	0.089849
O36	O	0.623244	1.001739	0.030003
O37	O	0.563382	1.255008	-0.029859
O38	O	0.503535	1.255011	0.029987
C39	C	0.533459	0.789909	0.000065
C40	C	0.533459	0.675033	0.000065
C41	C	0.373457	1.128428	0.000044
C42	C	0.319155	1.128442	0.000037
C43	C	0.013704	0.996161	0.031328
C44	C	-0.037314	0.996153	0.031333
O45	O	-0.037127	0.883718	0.057926
N46	N	-0.094078	1.128355	0.000085
C47	C	-0.099824	1.260574	-0.031165
O48	O	-0.152791	1.373022	-0.057743
C49	C	-0.048806	1.260581	-0.031167
C50	C	0.007958	1.128370	0.000079
C51	C	0.070466	0.863960	0.062571
C52	C	0.121480	0.863969	0.062565
C53	C	0.115734	0.996178	0.031315
C54	C	0.058973	1.128378	0.000072
C55	C	-0.054551	1.392798	-0.062413
C56	C	-0.003527	1.392794	-0.062411
C57	C	0.053236	1.260582	-0.031166
C58	C	0.104241	1.260596	-0.031184
N59	N	0.161006	1.128393	0.000064
C60	C	0.166752	0.996184	0.031314
C61	C	-0.206962	1.260550	-0.031159
C62	C	-0.257979	1.260546	-0.031161
C63	C	-0.195466	0.996123	0.031338
C64	C	-0.144448	0.996130	0.031337
C65	C	-0.150198	1.128348	0.000089
C66	C	0.273884	0.996212	0.031298
C67	C	0.324901	0.996233	0.031287
C68	C	0.262384	1.260654	-0.031210
C69	C	0.211371	1.260635	-0.031202
C70	C	0.217126	1.128402	0.000057
O71	O	0.104100	1.372973	-0.057761
O72	O	0.219721	0.883755	0.057894
C73	C	0.693460	1.128349	0.000084
C74	C	0.747763	1.128336	0.000091
C75	C	0.533437	1.128423	-0.159936
C76	C	0.533430	1.128434	-0.214238
C77	C	0.533459	1.466868	0.000063
C78	C	0.533459	1.581745	0.000063
C79	C	0.577659	1.128345	-0.550930
C80	C	0.577665	1.128334	-0.601948
O81	O	0.615255	1.128270	-0.628318
N82	N	0.533480	1.128348	-0.627471
C83	C	0.489290	1.128357	-0.601970
O84	O	0.451708	1.128366	-0.628364
C85	C	0.489288	1.128357	-0.550951
C86	C	0.533472	1.128359	-0.525434
C87	C	0.621840	1.128345	-0.525412
C88	C	0.621834	1.128358	-0.474399
C89	C	0.577647	1.128372	-0.448903
C90	C	0.533466	1.128372	-0.474420
C91	C	0.445101	1.128356	-0.525449
C92	C	0.445103	1.128355	-0.474426
C93	C	0.489287	1.128357	-0.448908
C94	C	0.489273	1.128399	-0.397910
N95	N	0.533458	1.128386	-0.372387
C96	C	0.577645	1.128372	-0.397883
C97	C	0.489299	1.128354	-0.709114
C98	C	0.489298	1.128364	-0.760135
C99	C	0.577674	1.128339	-0.760108
C100	C	0.577671	1.128339	-0.709089
C101	C	0.533484	1.128341	-0.683591
C102	C	0.577628	1.128401	-0.290751
C103	C	0.577617	1.128421	-0.239734
C104	C	0.489244	1.128439	-0.239764
C105	C	0.489253	1.128427	-0.290778
C106	C	0.533450	1.128403	-0.316269
O107	O	0.451703	1.128457	-0.371506
O108	O	0.615225	1.128344	-0.371479
C109	C	0.533480	1.128355	0.160064
C110	C	0.533488	1.128343	0.214366
C111	C	0.693460	0.789870	0.000085
C112	C	0.747763	0.674980	0.000092
C113	C	0.533480	0.789875	0.160065
C114	C	0.533488	0.674987	0.214367
C115	C	0.693481	0.789836	0.160085
C116	C	0.747792	0.674934	0.214394
C117	C	0.373436	1.466942	-0.159957
C118	C	0.319126	1.581843	-0.214266
C119	C	0.373458	1.466908	0.000043
C120	C	0.319155	1.581798	0.000036
C121	C	0.533437	1.466902	-0.159937
C122	C	0.533430	1.581790	-0.214239
C123	C	0.742016	0.621040	-0.031157
C124	C	0.793035	0.513104	-0.031162
C125	C	0.849799	0.459101	0.000085
C126	C	0.855544	0.513051	0.031335
C127	C	0.804526	0.620993	0.031337
C128	C	0.564739	0.621020	0.271121
C129	C	0.564743	0.513085	0.322149
C130	C	0.533500	0.459112	0.316422
C131	C	0.502245	0.513090	0.259663
C132	C	0.502237	0.621030	0.208636
C133	C	0.804541	0.620974	0.208659
C134	C	0.855576	0.513026	0.259684
C135	C	0.849861	0.459034	0.316443
C136	C	0.793105	0.513004	0.322177
C137	C	0.742072	0.620957	0.271153
C138	C	0.262376	1.635817	-0.208531
C139	C	0.211341	1.743798	-0.259556
C140	C	0.217057	1.797796	-0.316315
C141	C	0.273812	1.743818	-0.322049
C142	C	0.324846	1.635847	-0.271025
C143	C	0.324901	1.635748	0.031280
C144	C	0.273883	1.743715	0.031271
C145	C	0.217118	1.797721	0.000022
C146	C	0.211373	1.743766	-0.031226
C147	C	0.262391	1.635809	-0.031220
C148	C	0.564679	1.635729	-0.208493
C149	C	0.564684	1.743664	-0.259512
C150	C	0.533435	1.797667	-0.316275
C151	C	0.502185	1.743717	-0.322020
C152	C	0.502184	1.635776	-0.271002
H153	H	0.278579	0.888536	0.056752
H154	H	0.533441	1.885559	-0.357812
C155	C	0.467866	0.680375	0.146209
H156	H	0.472329	0.752397	0.116635
H157	H	0.483298	0.602866	0.141747
H158	H	0.426758	0.722499	0.141730
H159	H	0.175581	1.885627	0.000022
H160	H	0.257715	1.368295	-0.056654
H161	H	0.590181	0.664953	0.275795
H162	H	0.788345	0.469191	-0.056610
H163	H	0.891420	0.371131	0.357985
C164	C	0.810839	0.680351	0.146231
H165	H	0.851950	0.632752	0.150132
H166	H	0.792236	0.662666	0.125024
H167	H	0.792230	0.782271	0.125028
H168	H	0.613597	1.128425	-0.218961
H169	H	0.613654	1.128325	-0.780876
C170	C	0.467888	0.453694	0.253371
H171	H	0.472379	0.381667	0.291892
H172	H	0.426778	0.531173	0.232167
H173	H	0.483325	0.411562	0.232181
H174	H	0.476743	1.787703	-0.368244
C175	C	0.467799	1.576473	-0.277330
H176	H	0.449186	1.624112	-0.318444
H177	H	0.494759	1.474556	-0.258725
H178	H	0.438228	1.594195	-0.258735
C179	C	0.917999	0.453664	0.253367
H180	H	0.914089	0.501267	0.212254
H181	H	0.939210	0.471351	0.271964
H182	H	0.939204	0.351743	0.271975
C183	C	0.160916	1.916542	-0.372436
H184	H	0.126302	1.940931	-0.360886
H185	H	0.160899	2.000777	-0.395526
H186	H	0.160908	1.881152	-0.395514
H187	H	0.257704	1.591886	-0.056661
C188	C	0.148919	1.803141	-0.253238
H189	H	0.152829	1.755493	-0.212126
H190	H	0.127709	1.905051	-0.271836
H191	H	0.127712	1.785458	-0.271847
H192	H	-0.211652	1.368225	-0.056607
C193	C	0.917985	0.453619	0.065717
H194	H	0.914107	0.501197	0.084330
H195	H	0.939180	0.351703	0.095277
H196	H	0.939188	0.471310	0.038751
H197	H	0.788461	0.469028	0.368397
H198	H	0.613619	1.128379	-0.311500
C199	C	0.679651	0.680286	0.277468
H200	H	0.683562	0.632650	0.318581
H201	H	0.658434	0.782200	0.258864
H202	H	0.658450	0.662575	0.258868
H203	H	0.371052	1.591902	-0.275701
C204	C	0.387335	1.576359	0.065658
H205	H	0.383442	1.623975	0.084257
H206	H	0.408542	1.474445	0.095229
H207	H	0.408535	1.594054	0.038690
C208	C	0.396493	1.128373	-0.553511
H209	H	0.370183	1.128372	-0.531010
H210	H	0.374664	1.212952	-0.593406
H211	H	0.414644	1.043789	-0.553420
C212	C	0.599055	1.803005	-0.253185
H213	H	0.594589	1.875014	-0.291696
H214	H	0.583622	1.845114	-0.231989
H215	H	0.640163	1.725486	-0.231973
C216	C	0.599131	0.453716	0.384577
H217	H	0.617744	0.501307	0.380675
H218	H	0.572172	0.471416	0.405781
H219	H	0.628702	0.351793	0.405784
C220	C	0.679582	0.680432	-0.065536
H221	H	0.683475	0.632849	-0.084151
H222	H	0.658379	0.662740	-0.038575
H223	H	0.658379	0.782355	-0.095105
H224	H	0.278458	1.787798	-0.368268
H225	H	0.371121	0.888566	0.056732
H226	H	0.257711	1.591857	-0.162320
C227	C	0.148931	1.803173	-0.065592
H228	H	0.119374	1.875181	-0.061111
H229	H	0.144438	1.845298	-0.106700
H230	H	0.144454	1.725680	-0.050155
C231	C	0.670443	1.128334	-0.446330
H232	H	0.696761	1.128308	-0.468824
H233	H	0.652298	1.212906	-0.446417
H234	H	0.692273	1.043743	-0.406434
C235	C	0.396493	1.128368	-0.446383
H236	H	0.370179	1.128379	-0.468893
H237	H	0.414642	1.043799	-0.406487
H238	H	0.374659	1.212962	-0.446481
C239	C	0.183914	0.718535	0.096941
H240	H	0.180021	0.639807	0.115556
H241	H	0.205115	0.713028	0.069979
H242	H	0.205120	0.713035	0.126511
H243	H	0.453269	1.128447	-0.311559
H244	H	0.657826	1.128328	-0.546166
C245	C	0.599057	1.576341	-0.146060
H246	H	0.617672	1.623925	-0.149953
H247	H	0.572096	1.594036	-0.124858
H248	H	0.628627	1.474418	-0.124856
H249	H	0.533511	0.371221	0.357977
C250	C	0.076797	0.718517	0.096944
H251	H	0.117913	0.639798	0.115545
H252	H	0.058204	0.712986	0.126515
H253	H	0.058193	0.713024	0.069972
C254	C	-0.082013	0.850699	0.065713
H255	H	-0.085904	0.771967	0.084326
H256	H	-0.060812	0.845198	0.038750
H257	H	-0.060810	0.845200	0.095284
H258	H	-0.190795	0.888471	0.056781
H259	H	-0.304195	1.368205	-0.056612
H260	H	0.278572	1.787627	0.056719
H261	H	-0.100763	1.500459	-0.087855
C262	C	0.440645	1.128438	-0.211708
H263	H	0.446978	1.128426	-0.177666
H264	H	0.402495	1.213008	-0.240060
H265	H	0.442491	1.043845	-0.200075
H266	H	-0.008216	1.500464	-0.087850
H267	H	0.165151	1.368292	-0.056652
H268	H	0.613650	1.128339	-0.688315
C269	C	0.440695	1.128365	-0.788199
H270	H	0.414384	1.128361	-0.765700
H271	H	0.418865	1.212931	-0.828096
H272	H	0.458856	1.043767	-0.788099
H273	H	0.453312	1.128367	-0.688359
C274	C	0.905915	0.340356	0.000086
H275	H	0.940548	0.315917	0.023169
H276	H	0.905912	0.256149	0.016811
H277	H	0.905908	0.375761	-0.039725
C278	C	0.810852	0.680319	0.065712
H279	H	0.772341	0.752350	0.061238
H280	H	0.832063	0.602806	0.106818
H281	H	0.832050	0.722428	0.050278
