data_functionalizedCrystal
_audit_creation_method	'MofGen! by Chris Wilmer'
_symmetry_space_group_name_H-M	'P1'
_symmetry_Int_Tables_number	1
_symmetry_cell_setting	triclinic
loop_
_symmetry_equiv_pos_as_xyz
  x,y,z
_cell_length_a	16.974800
_cell_length_b	10.654541
_cell_length_c	9.730217
_cell_angle_alpha	89.997617
_cell_angle_beta	93.653130
_cell_angle_gamma	83.935819
loop_
_atom_site_label
_atom_site_type_symbol
_atom_site_fract_x
_atom_site_fract_y
_atom_site_fract_z
O1	O	1.050025	0.159969	0.002544
O2	O	0.819930	0.180374	-0.023060
O3	O	0.940269	-0.012651	-0.009661
O4	O	0.929686	0.352994	-0.010855
O5	O	0.940259	-0.012649	0.218918
O6	O	0.819920	0.180376	0.205519
O7	O	1.050016	0.159970	0.231123
Zn8	Zn	0.934967	0.170173	0.254613
Zn9	Zn	0.934979	0.170171	-0.046550
O10	O	0.929677	0.352995	0.217724
C11	C	0.790462	0.179602	0.087951
C12	C	0.702673	0.177284	0.078182
C13	C	0.661429	0.176192	0.198194
C14	C	0.578943	0.173993	0.189019
C15	C	0.537701	0.172895	0.059830
C16	C	0.578951	0.173983	-0.060191
C17	C	0.661437	0.176173	-0.051015
C18	C	0.291008	0.166338	0.019025
C19	C	0.208516	0.164152	0.009857
C20	C	0.208514	0.164160	0.259068
C21	C	0.291000	0.166358	0.268233
C22	C	0.332243	0.167439	0.148212
N23	N	0.453387	0.170652	0.050449
N24	N	0.416557	0.169673	0.157595
C25	C	0.939487	-0.059436	0.104542
C26	C	0.937164	-0.198843	0.104281
C27	C	1.081062	-0.229065	0.120311
C28	C	1.151916	-0.309668	0.128207
C29	C	1.149728	-0.440652	0.127959
C30	C	1.076678	-0.491034	0.119810
C31	C	1.005824	-0.410431	0.111914
C32	C	1.008020	-0.279446	0.112167
C33	C	0.861928	-0.380210	0.095874
C34	C	0.864114	-0.249225	0.096132
C35	C	0.788878	-0.430592	0.087725
C36	C	0.718022	-0.349989	0.079839
C37	C	0.720213	-0.218998	0.080089
C38	C	0.793260	-0.168623	0.088236
C39	C	1.079483	0.160742	0.120109
C40	C	1.167273	0.163061	0.129869
C41	C	0.930458	0.399781	0.103519
C42	C	0.932782	0.539188	0.103770
N43	N	0.934964	0.170174	0.460149
C44	C	1.041587	-0.000709	0.759746
C45	C	1.094881	-0.086150	0.693721
C46	C	1.094872	-0.086154	0.549840
C47	C	1.041563	-0.000705	0.471980
C48	C	0.988268	0.084737	0.538005
C49	C	0.988282	0.084729	0.681890
C50	C	0.881669	0.255615	0.526174
C51	C	0.881674	0.255615	0.670054
C52	C	0.828361	0.341064	0.448314
C53	C	0.775061	0.426502	0.514338
C54	C	0.775072	0.426501	0.658228
C55	C	0.828379	0.341056	0.736079
N56	N	0.934982	0.170166	0.747914
H57	H	1.082850	-0.122413	0.120532
H58	H	1.211392	-0.268632	0.134854
C59	C	0.669696	0.595407	0.632067
C60	C	0.716484	0.520418	0.730797
H61	H	0.633522	0.653380	0.676867
H62	H	0.702850	0.640553	0.579633
H63	H	0.640974	0.543140	0.572757
H64	H	0.745211	0.572684	0.790101
H65	H	0.683326	0.475268	0.783254
H66	H	1.207423	-0.506280	0.134378
C67	C	0.886438	0.248015	0.948624
C68	C	0.828394	0.341054	0.894235
H69	H	0.886451	0.248019	1.046265
H70	H	0.875172	0.167772	0.914834
H71	H	0.937058	0.265170	0.921677
H72	H	0.777772	0.323894	0.921175
H73	H	0.839654	0.421315	0.928039
H74	H	1.074902	-0.597689	0.119592
C75	C	0.707391	-0.601767	0.078616
C76	C	0.786468	-0.574571	0.087442
H77	H	0.705904	-0.690654	0.078434
H78	H	0.681313	-0.566567	0.155417
H79	H	0.681331	-0.566541	-0.004004
H80	H	0.812527	-0.609790	0.170067
H81	H	0.812558	-0.609786	0.010634
H82	H	0.658550	-0.391022	0.073196
H83	H	1.041593	-0.000724	0.876901
H84	H	0.662515	-0.153377	0.073653
C85	C	0.417446	0.169690	-0.077578
C86	C	0.336335	0.167543	-0.112900
H87	H	0.445430	0.170429	-0.159029
H88	H	0.425328	0.243238	-0.025515
H89	H	0.436589	0.096844	-0.024254
H90	H	0.317191	0.240394	-0.166216
H91	H	0.328448	0.093987	-0.164986
H92	H	1.138272	-0.155723	0.496083
H93	H	0.795051	-0.061971	0.088448
C94	C	0.082070	0.160794	0.355662
C95	C	0.163178	0.162954	0.390989
H96	H	0.054085	0.160037	0.437111
H97	H	0.062924	0.233630	0.302348
H98	H	0.074194	0.087235	0.303587
H99	H	0.171055	0.236517	0.443057
H100	H	0.182331	0.090110	0.444326
H101	H	0.828359	0.341063	0.331159
H102	H	1.138286	-0.155720	0.757127
C103	C	0.727720	0.502377	0.288525
C104	C	0.716469	0.520417	0.428755
H105	H	0.691542	0.560353	0.235689
H106	H	0.780554	0.515980	0.270823
H107	H	0.718679	0.418565	0.263958
H108	H	0.725516	0.604227	0.453324
H109	H	0.663623	0.506824	0.446465
C110	C	0.477895	0.279430	-0.216010
C111	C	0.533620	0.172781	-0.202199
H112	H	0.449914	0.278693	-0.303685
H113	H	0.441531	0.278457	-0.145856
H114	H	0.504454	0.353470	-0.207878
H115	H	0.507061	0.098741	-0.210321
H116	H	0.569990	0.173743	-0.272373
H117	H	0.695001	0.177097	0.303393
H118	H	0.324574	0.167246	0.373432
C119	C	0.587223	0.174248	0.436270
C120	C	0.533607	0.172806	0.320940
H121	H	0.559232	0.173523	0.517714
H122	H	0.625026	0.101910	0.435304
H123	H	0.613764	0.248304	0.434014
H124	H	0.507070	0.098745	0.323191
H125	H	0.495790	0.245152	0.321907
H126	H	0.174940	0.163262	-0.095349
H127	H	0.695016	0.177064	-0.148741
H128	H	1.041565	-0.000703	0.354826
