data_functionalizedCrystal
_audit_creation_method	'MofGen! by Chris Wilmer'
_symmetry_space_group_name_H-M	'P1'
_symmetry_Int_Tables_number	1
_symmetry_cell_setting	triclinic
loop_
_symmetry_equiv_pos_as_xyz
  x,y,z
_cell_length_a	17.077404
_cell_length_b	21.295417
_cell_length_c	17.077396
_cell_angle_alpha	90.033192
_cell_angle_beta	90.018362
_cell_angle_gamma	90.028477
loop_
_atom_site_label
_atom_site_type_symbol
_atom_site_fract_x
_atom_site_fract_y
_atom_site_fract_z
Zn1	Zn	1.200013	-0.250643	0.443793
Zn2	Zn	1.450013	-0.000643	0.693793
Zn3	Zn	1.700013	0.249357	0.943793
Zn4	Zn	1.950013	0.499357	1.193793
Zn5	Zn	1.199903	-0.355916	0.312516
Zn6	Zn	1.449903	-0.105916	0.562516
Zn7	Zn	1.699903	0.144084	0.812516
Zn8	Zn	1.949903	0.394084	1.062516
Zn9	Zn	1.068745	-0.250661	0.312544
Zn10	Zn	1.318745	-0.000661	0.562544
Zn11	Zn	1.568745	0.249339	0.812544
Zn12	Zn	1.818745	0.499339	1.062544
Zn13	Zn	1.068695	-0.355875	0.443743
Zn14	Zn	1.318695	-0.105875	0.693743
Zn15	Zn	1.568695	0.144125	0.943743
Zn16	Zn	1.818695	0.394125	1.193743
O17	O	1.134339	-0.303274	0.378149
O18	O	1.384339	-0.053274	0.628149
O19	O	1.634339	0.196726	0.878149
O20	O	1.884339	0.446726	1.128149
O21	O	1.309845	-0.264618	0.426389
O22	O	1.559845	-0.014618	0.676389
O23	O	1.809845	0.235382	0.926389
O24	O	2.059845	0.485382	1.176389
O25	O	1.182479	-0.341979	0.202673
O26	O	1.432479	-0.091979	0.452673
O27	O	1.682479	0.158021	0.702673
O28	O	1.932479	0.408021	0.952673
O29	O	1.086225	-0.162569	0.329987
O30	O	1.336225	0.087431	0.579987
O31	O	1.586225	0.337431	0.829987
O32	O	1.836225	0.587431	1.079987
O33	O	1.309764	-0.341962	0.329940
O34	O	1.559764	-0.091962	0.579940
O35	O	1.809764	0.158038	0.829940
O36	O	2.059764	0.408038	1.079940
O37	O	1.182667	-0.162556	0.426415
O38	O	1.432667	0.087444	0.676415
O39	O	1.682667	0.337444	0.926415
O40	O	1.932667	0.587444	1.176415
O41	O	1.086118	-0.264648	0.202693
O42	O	1.336118	-0.014648	0.452693
O43	O	1.586118	0.235352	0.702693
O44	O	1.836118	0.485352	0.952693
O45	O	0.958891	-0.264608	0.329938
O46	O	1.208891	-0.014608	0.579938
O47	O	1.458891	0.235392	0.829938
O48	O	1.708891	0.485392	1.079938
O49	O	1.086140	-0.341891	0.553596
O50	O	1.336140	-0.091891	0.803596
O51	O	1.586140	0.158109	1.053596
O52	O	1.836140	0.408109	1.303596
O53	O	0.958855	-0.341908	0.426329
O54	O	1.208855	-0.091908	0.676329
O55	O	1.458855	0.158092	0.926329
O56	O	1.708855	0.408092	1.176329
O57	O	1.182619	-0.264578	0.553633
O58	O	1.432619	-0.014578	0.803633
O59	O	1.682619	0.235422	1.053633
O60	O	1.932619	0.485422	1.303633
O61	O	1.182431	-0.444000	0.329891
O62	O	1.432431	-0.194000	0.579891
O63	O	1.682431	0.056000	0.829891
O64	O	1.932431	0.306000	1.079891
O65	O	1.086033	-0.443970	0.426302
O66	O	1.336033	-0.193970	0.676302
O67	O	1.586033	0.056030	0.926302
O68	O	1.836033	0.306030	1.176302
C69	C	0.930391	-0.303256	0.378131
C70	C	1.180391	-0.053256	0.628131
C71	C	1.430391	0.196744	0.878131
C72	C	1.680391	0.446744	1.128131
C73	C	0.843141	-0.303264	0.378142
C74	C	1.093141	-0.053264	0.628142
C75	C	1.343141	0.196736	0.878142
C76	C	1.593141	0.446736	1.128142
C77	C	0.802194	-0.263062	0.428440
C78	C	1.052194	-0.013062	0.678440
C79	C	1.302194	0.236938	0.928440
C80	C	1.552194	0.486938	1.178440
C81	C	0.720214	-0.263066	0.428443
C82	C	0.970214	-0.013066	0.678443
C83	C	1.220214	0.236934	0.928443
C84	C	1.470214	0.486934	1.178443
C85	C	0.679182	-0.303275	0.378153
C86	C	0.929182	-0.053275	0.628153
C87	C	1.179182	0.196725	0.878153
C88	C	1.429182	0.446725	1.128153
C89	C	0.720135	-0.343478	0.327850
C90	C	0.970135	-0.093478	0.577850
C91	C	1.220135	0.156522	0.827850
C92	C	1.470135	0.406522	1.077850
C93	C	0.802114	-0.343471	0.327843
C94	C	1.052114	-0.093471	0.577843
C95	C	1.302114	0.156529	0.827843
C96	C	1.552114	0.406529	1.077843
C97	C	0.549265	-0.343493	0.327870
C98	C	0.799265	-0.093493	0.577870
C99	C	1.049265	0.156507	0.827870
C100	C	1.299265	0.406507	1.077870
C101	C	0.467280	-0.343501	0.327877
C102	C	0.717280	-0.093501	0.577877
C103	C	0.967280	0.156499	0.827877
C104	C	1.217280	0.406499	1.077877
C105	C	0.467365	-0.263088	0.428470
C106	C	0.717365	-0.013088	0.678470
C107	C	0.967365	0.236912	0.928470
C108	C	1.217365	0.486912	1.178470
C109	C	0.549344	-0.263081	0.428463
C110	C	0.799344	-0.013081	0.678463
C111	C	1.049344	0.236919	0.928463
C112	C	1.299344	0.486919	1.178463
C113	C	0.590291	-0.303285	0.378161
C114	C	0.840291	-0.053285	0.628161
C115	C	1.090291	0.196715	0.878161
C116	C	1.340291	0.446715	1.128161
C117	C	1.134236	-0.466826	0.378105
C118	C	1.384236	-0.216826	0.628105
C119	C	1.634236	0.033174	0.878105
C120	C	1.884236	0.283174	1.128105
C121	C	1.134264	-0.536794	0.378113
C122	C	1.384264	-0.286794	0.628113
C123	C	1.634264	-0.036794	0.878113
C124	C	1.884264	0.213206	1.128113
C125	C	1.184503	-0.569655	0.327963
C126	C	1.434503	-0.319655	0.577963
C127	C	1.684503	-0.069655	0.827963
C128	C	1.934503	0.180345	1.077963
C129	C	1.184539	-0.635398	0.327981
C130	C	1.434539	-0.385398	0.577981
C131	C	1.684539	-0.135398	0.827981
C132	C	1.934539	0.114602	1.077981
C133	C	1.134323	-0.668276	0.378140
C134	C	1.384323	-0.418276	0.628140
C135	C	1.634323	-0.168276	0.878140
C136	C	1.884323	0.081724	1.128140
C137	C	1.084081	-0.635407	0.428300
C138	C	1.334081	-0.385407	0.678300
C139	C	1.584081	-0.135407	0.928300
C140	C	1.834081	0.114593	1.178300
C141	C	1.084051	-0.569665	0.428286
C142	C	1.334051	-0.319665	0.678286
C143	C	1.584051	-0.069665	0.928286
C144	C	1.834051	0.180335	1.178286
N145	N	1.065655	-0.771540	0.384118
N146	N	1.315655	-0.521540	0.634118
N147	N	1.565655	-0.271540	0.884118
N148	N	1.815655	-0.021540	1.134118
N149	N	1.065685	-0.833991	0.384127
N150	N	1.315685	-0.583991	0.634127
N151	N	1.565685	-0.333991	0.884127
N152	N	1.815685	-0.083991	1.134127
C153	C	1.134411	-0.866351	0.378185
C154	C	1.384411	-0.616351	0.628185
C155	C	1.634411	-0.366351	0.878185
C156	C	1.884411	-0.116351	1.128185
N157	N	1.203107	-0.833900	0.372220
N158	N	1.453107	-0.583900	0.622220
N159	N	1.703107	-0.333900	0.872220
N160	N	1.953107	-0.083900	1.122220
N161	N	1.203076	-0.771443	0.372207
N162	N	1.453076	-0.521443	0.622207
N163	N	1.703076	-0.271443	0.872207
N164	N	1.953076	-0.021443	1.122207
C165	C	1.134350	-0.739562	0.378161
C166	C	1.384350	-0.489562	0.628161
C167	C	1.634350	-0.239562	0.878161
C168	C	1.884350	0.010438	1.128161
C169	C	1.184694	-0.970498	0.328052
C170	C	1.434694	-0.720498	0.578052
C171	C	1.684694	-0.470498	0.828052
C172	C	1.934694	-0.220498	1.078052
C173	C	1.184732	-1.036242	0.328075
C174	C	1.434732	-0.786242	0.578075
C175	C	1.684732	-0.536242	0.828075
C176	C	1.934732	-0.286242	1.078075
C177	C	1.084267	-1.036249	0.428390
C178	C	1.334267	-0.786249	0.678390
C179	C	1.584267	-0.536249	0.928390
C180	C	1.834267	-0.286249	1.178390
C181	C	1.084236	-0.970507	0.428371
C182	C	1.334236	-0.720507	0.678371
C183	C	1.584236	-0.470507	0.928371
C184	C	1.834236	-0.220507	1.178371
C185	C	1.134448	-0.937635	0.378198
C186	C	1.384448	-0.687635	0.628198
C187	C	1.634448	-0.437635	0.878198
C188	C	1.884448	-0.187635	1.128198
C189	C	1.339083	-0.303292	0.378167
C190	C	1.589083	-0.053292	0.628167
C191	C	1.839083	0.196708	0.878167
C192	C	2.089083	0.446708	1.128167
C193	C	1.426333	-0.303300	0.378175
C194	C	1.676333	-0.053300	0.628175
C195	C	1.926333	0.196700	0.878175
C196	C	2.176333	0.446700	1.128175
C197	C	1.134386	-0.303228	0.582893
C198	C	1.384386	-0.053228	0.832893
C199	C	1.634386	0.196772	1.082893
C200	C	1.884386	0.446772	1.332893
C201	C	1.134407	-0.303208	0.670143
C202	C	1.384407	-0.053208	0.920143
C203	C	1.634407	0.196792	1.170143
C204	C	1.884407	0.446792	1.420143
C205	C	1.134464	-0.139084	0.378210
C206	C	1.384464	0.110916	0.628210
C207	C	1.634464	0.360916	0.878210
C208	C	1.884464	0.610916	1.128210
C209	C	1.134517	-0.069116	0.378236
C210	C	1.384517	0.180884	0.628236
C211	C	1.634517	0.430884	0.878236
C212	C	1.884517	0.680884	1.128236
C213	C	1.134337	-0.303275	0.174201
C214	C	1.384337	-0.053275	0.424201
C215	C	1.634337	0.196725	0.674201
C216	C	1.884337	0.446725	0.924201
C217	C	1.134469	-0.303117	0.086952
C218	C	1.384469	-0.053117	0.336952
C219	C	1.634469	0.196883	0.586952
C220	C	1.884469	0.446883	0.836952
C221	C	1.184645	-0.262948	0.711154
C222	C	1.434645	-0.012948	0.961154
C223	C	1.684645	0.237052	1.211154
C224	C	1.934645	0.487052	1.461154
C225	C	1.184654	-0.262927	0.793134
C226	C	1.434654	-0.012927	1.043134
C227	C	1.684654	0.237073	1.293134
C228	C	1.934654	0.487073	1.543134
C229	C	1.134429	-0.303170	0.834103
C230	C	1.384429	-0.053170	1.084103
C231	C	1.634429	0.196830	1.334103
C232	C	1.884429	0.446830	1.584103
C233	C	1.084185	-0.343432	0.793086
C234	C	1.334185	-0.093432	1.043086
C235	C	1.584185	0.156568	1.293086
C236	C	1.834185	0.406568	1.543086
C237	C	1.084172	-0.343449	0.711107
C238	C	1.334172	-0.093449	0.961107
C239	C	1.584172	0.156551	1.211107
C240	C	1.834172	0.406551	1.461107
C241	C	1.084217	-0.343394	0.963956
C242	C	1.334217	-0.093394	1.213956
C243	C	1.584217	0.156606	1.463956
C244	C	1.834217	0.406606	1.713956
C245	C	1.084231	-0.343377	1.045941
C246	C	1.334231	-0.093377	1.295941
C247	C	1.584231	0.156623	1.545941
C248	C	1.834231	0.406623	1.795941
C249	C	1.184699	-0.262871	1.045984
C250	C	1.434699	-0.012871	1.295984
C251	C	1.684699	0.237129	1.545984
C252	C	1.934699	0.487129	1.795984
C253	C	1.184686	-0.262889	0.964005
C254	C	1.434686	-0.012889	1.214005
C255	C	1.684686	0.237111	1.464005
C256	C	1.934686	0.487111	1.714005
C257	C	1.134443	-0.303152	0.922994
C258	C	1.384443	-0.053152	1.172994
C259	C	1.634443	0.196848	1.422994
C260	C	1.884443	0.446848	1.672994
H261	H	0.835596	-0.230321	0.469394
H262	H	1.085596	0.019679	0.719394
H263	H	1.335596	0.269679	0.969394
H264	H	1.585596	0.519679	1.219394
F265	F	1.238107	-0.220118	0.667560
F266	F	1.488107	0.029882	0.917560
F267	F	1.738107	0.279882	1.167560
F268	F	1.988107	0.529882	1.417560
F269	F	1.238152	-0.220098	0.836778
F270	F	1.488152	0.029902	1.086778
F271	F	1.738152	0.279902	1.336778
F272	F	1.988152	0.529902	1.586778
H273	H	1.043324	-0.943749	0.469204
H274	H	1.293324	-0.693749	0.719204
H275	H	1.543324	-0.443749	0.969204
H276	H	1.793324	-0.193749	1.219204
F277	F	0.676638	-0.220280	0.481978
F278	F	0.926638	0.029720	0.731978
F279	F	1.176638	0.279720	0.981978
F280	F	1.426638	0.529720	1.231978
H281	H	0.582750	-0.230343	0.469418
H282	H	0.832750	0.019657	0.719418
H283	H	1.082750	0.269657	0.969418
H284	H	1.332750	0.519657	1.219418
F285	F	0.423785	-0.220299	0.482004
F286	F	0.673785	0.029701	0.732004
F287	F	0.923785	0.279701	0.982004
F288	F	1.173785	0.529701	1.232004
H289	H	1.225588	-0.230123	0.930650
H290	H	1.475588	0.019877	1.180650
H291	H	1.725588	0.269877	1.430650
H292	H	1.975588	0.519877	1.680650
H293	H	1.043288	-0.376196	0.826449
H294	H	1.293288	-0.126196	1.076449
H295	H	1.543288	0.123804	1.326449
H296	H	1.793288	0.373804	1.576449
F297	F	1.238172	-0.220021	1.089631
F298	F	1.488172	0.029979	1.339631
F299	F	1.738172	0.279979	1.589631
F300	F	1.988172	0.529979	1.839631
F301	F	0.423613	-0.386308	0.274368
F302	F	0.673613	-0.136308	0.524368
F303	F	0.923613	0.113692	0.774368
F304	F	1.173613	0.363692	1.024368
F305	F	0.676464	-0.386269	0.274323
F306	F	0.926464	-0.136269	0.524323
F307	F	1.176464	0.113731	0.774323
F308	F	1.426464	0.363731	1.024323
F309	F	1.030769	-0.386203	1.089541
F310	F	1.280769	-0.136203	1.339541
F311	F	1.530769	0.113797	1.589541
F312	F	1.780769	0.363797	1.839541
H313	H	1.043255	-0.376227	0.677717
H314	H	1.293255	-0.126227	0.927717
H315	H	1.543255	0.123773	1.177717
H316	H	1.793255	0.373773	1.427717
F317	F	1.238012	-0.670379	0.274602
F318	F	1.488012	-0.420379	0.524602
F319	F	1.738012	-0.170379	0.774602
F320	F	1.988012	0.079621	1.024602
H321	H	1.043291	-0.376170	0.930568
H322	H	1.293291	-0.126170	1.180568
H323	H	1.543291	0.123830	1.430568
H324	H	1.793291	0.373830	1.680568
H325	H	0.582602	-0.376229	0.286906
H326	H	0.832602	-0.126229	0.536906
H327	H	1.082602	0.123771	0.786906
H328	H	1.332602	0.373771	1.036906
H329	H	1.225390	-0.542893	0.287111
H330	H	1.475390	-0.292893	0.537111
H331	H	1.725390	-0.042893	0.787111
H332	H	1.975390	0.207107	1.037111
F333	F	0.845692	-0.386259	0.274310
F334	F	1.095692	-0.136259	0.524310
F335	F	1.345692	0.113741	0.774310
F336	F	1.595692	0.363741	1.024310
H337	H	1.043196	-0.662180	0.469141
H338	H	1.293196	-0.412180	0.719141
H339	H	1.543196	-0.162180	0.969141
H340	H	1.793196	0.087820	1.219141
F341	F	1.030578	-0.534691	0.481665
F342	F	1.280578	-0.284691	0.731665
F343	F	1.530578	-0.034691	0.981665
F344	F	1.780578	0.215309	1.231665
H345	H	1.225583	-0.943733	0.287200
H346	H	1.475583	-0.693733	0.537200
H347	H	1.725583	-0.443733	0.787200
H348	H	1.975583	-0.193733	1.037200
H349	H	1.225648	-1.062997	0.287238
H350	H	1.475648	-0.812997	0.537238
H351	H	1.725648	-0.562997	0.787238
H352	H	1.975648	-0.312997	1.037238
H353	H	1.043384	-1.063018	0.469234
H354	H	1.293384	-0.813018	0.719234
H355	H	1.543384	-0.563018	0.969234
H356	H	1.793384	-0.313018	1.219234
