data_functionalizedCrystal
_audit_creation_method	'MofGen! by Chris Wilmer'
_symmetry_space_group_name_H-M	'P1'
_symmetry_Int_Tables_number	1
_symmetry_cell_setting	triclinic
loop_
_symmetry_equiv_pos_as_xyz
  x,y,z
_cell_length_a	14.519709
_cell_length_b	14.519709
_cell_length_c	7.681481
_cell_angle_alpha	84.246308
_cell_angle_beta	95.739713
_cell_angle_gamma	83.680145
loop_
_atom_site_label
_atom_site_type_symbol
_atom_site_fract_x
_atom_site_fract_y
_atom_site_fract_z
O1	O	1.215175	0.129595	-0.146206
O2	O	1.548509	0.462928	0.187127
O3	O	1.881842	0.796261	0.520461
O4	O	0.946695	0.143835	-0.146260
O5	O	1.280029	0.477168	0.187073
O6	O	1.613362	0.810501	0.520406
O7	O	1.088055	0.002475	-0.146216
O8	O	1.421388	0.335809	0.187117
O9	O	1.754721	0.669142	0.520451
O10	O	1.073816	0.270954	-0.146250
O11	O	1.407149	0.604287	0.187083
O12	O	1.740483	0.937621	0.520416
O13	O	1.105453	-0.014963	0.146647
O14	O	1.438787	0.318370	0.479981
O15	O	1.772120	0.651703	0.813314
O16	O	0.964094	0.126396	0.146603
O17	O	1.297427	0.459729	0.479936
O18	O	1.630761	0.793063	0.813270
O19	O	1.232574	0.112156	0.146657
O20	O	1.565908	0.445490	0.479990
O21	O	1.899241	0.778823	0.813324
Zn22	Zn	1.101097	0.116508	0.193128
Zn23	Zn	1.434430	0.449841	0.526462
Zn24	Zn	1.767763	0.783174	0.859795
Zn25	Zn	1.078173	0.139483	-0.192732
Zn26	Zn	1.411506	0.472817	0.140602
Zn27	Zn	1.744839	0.806150	0.473935
O28	O	1.091215	0.253516	0.146613
O29	O	1.424548	0.586849	0.479946
O30	O	1.757882	0.920182	0.813279
C31	C	0.921034	0.134452	0.000164
C32	C	1.254368	0.467786	0.333498
C33	C	1.587701	0.801119	0.666831
C34	C	0.818652	0.132465	0.000144
C35	C	1.151985	0.465799	0.333478
C36	C	1.485319	0.799132	0.666811
C37	C	0.443761	0.125141	0.000225
C38	C	0.777094	0.458474	0.333559
C39	C	1.110428	0.791808	0.666892
C40	C	0.548068	0.127175	0.000202
C41	C	0.881401	0.460508	0.333536
C42	C	1.214734	0.793842	0.666869
C43	C	0.631203	0.128803	0.000183
C44	C	0.964536	0.462136	0.333516
C45	C	1.297870	0.795470	0.666850
C46	C	0.735516	0.130837	0.000163
C47	C	1.068850	0.464171	0.333497
C48	C	1.402183	0.797504	0.666830
C49	C	1.096091	-0.040604	0.000216
C50	C	1.429424	0.292730	0.333549
C51	C	1.762757	0.626063	0.666883
C52	C	1.094102	-0.142985	0.000216
C53	C	1.427436	0.190348	0.333550
C54	C	1.760769	0.523682	0.666883
C55	C	1.086780	-0.517878	0.000169
C56	C	1.420113	-0.184545	0.333503
C57	C	1.753447	0.148789	0.666836
C58	C	1.088813	-0.413571	0.000183
C59	C	1.422147	-0.080238	0.333516
C60	C	1.755480	0.253096	0.666850
C61	C	1.090441	-0.330435	0.000194
C62	C	1.423774	0.002898	0.333528
C63	C	1.757108	0.336232	0.666861
C64	C	1.092475	-0.226121	0.000205
C65	C	1.425808	0.107212	0.333538
C66	C	1.759141	0.440546	0.666872
C67	C	1.258235	0.121539	0.000228
C68	C	1.591568	0.454872	0.333562
C69	C	1.924901	0.788206	0.666895
C70	C	1.360616	0.123527	0.000237
C71	C	1.693950	0.456860	0.333570
C72	C	2.027283	0.790193	0.666904
C73	C	1.083179	0.296595	0.000177
C74	C	1.416512	0.629928	0.333510
C75	C	1.749845	0.963262	0.666844
C76	C	1.085166	0.398977	0.000165
C77	C	1.418499	0.732310	0.333498
C78	C	1.751833	1.065644	0.666832
N79	N	1.116748	0.100827	0.456468
N80	N	1.450082	0.434160	0.789801
N81	N	1.783415	0.767493	1.123134
N82	N	1.062528	0.155157	-0.456071
N83	N	1.395862	0.488490	-0.122737
N84	N	1.729195	0.821824	0.210596
H85	H	1.007181	0.210612	0.468715
H86	H	1.340514	0.543946	0.802048
H87	H	1.673848	0.877279	1.135382
H88	H	1.172106	0.045374	0.531691
H89	H	1.505439	0.378708	0.865024
H90	H	1.838773	0.712041	1.198357
