data_functionalizedCrystal
_audit_creation_method	'MofGen! by Chris Wilmer'
_symmetry_space_group_name_H-M	'P1'
_symmetry_Int_Tables_number	1
_symmetry_cell_setting	triclinic
loop_
_symmetry_equiv_pos_as_xyz
  x,y,z
_cell_length_a	23.096457
_cell_length_b	20.875650
_cell_length_c	20.875641
_cell_angle_alpha	60.100828
_cell_angle_beta	89.999757
_cell_angle_gamma	62.448870
loop_
_atom_site_label
_atom_site_type_symbol
_atom_site_fract_x
_atom_site_fract_y
_atom_site_fract_z
Zr1	Zr	0.584442	0.694162	-0.105581
O2	O	0.499625	0.820365	-0.208803
O3	O	0.607245	0.562944	-0.070691
O4	O	0.615802	0.686932	-0.204125
O5	O	0.487954	0.703828	0.026193
O6	O	0.711083	0.686934	-0.204129
O7	O	0.491067	0.696377	-0.075369
O8	O	0.695775	0.465141	0.034561
O9	O	0.503262	0.925621	-0.212497
O10	O	0.691941	0.618774	-0.059736
O11	O	0.618511	0.624334	0.016061
O12	O	0.628586	0.770314	-0.141041
O13	O	0.555156	0.775874	-0.065244
Zr14	Zr	0.731439	0.706048	0.056392
Zr15	Zr	0.736403	0.694164	-0.105587
Zr16	Zr	0.579477	0.706046	0.056398
Zr17	Zr	0.590243	0.862032	-0.111472
Zr18	Zr	0.725637	0.538177	0.062283
O19	O	0.708635	0.837266	0.021501
O20	O	0.715694	0.820369	-0.208812
O21	O	0.492566	0.837263	0.021510
O22	O	0.816256	0.579844	0.159614
O23	O	0.823315	0.562947	-0.070699
O24	O	0.600186	0.579841	0.159623
O25	O	0.827926	0.696382	-0.075382
O26	O	0.700078	0.713277	0.154936
O27	O	0.604797	0.713276	0.154940
O28	O	0.824813	0.703833	0.026179
O29	O	0.624051	0.925623	-0.212502
O30	O	0.691829	0.474587	0.163313
O31	O	0.812618	0.474589	0.163308
O32	O	0.816565	0.465143	0.034556
O33	O	0.499316	0.935067	-0.083746
O34	O	0.620105	0.935069	-0.083750
O35	O	0.687294	0.629895	0.091852
O36	O	0.760724	0.624336	0.016055
O37	O	0.697370	0.775876	-0.065250
O38	O	0.623940	0.781436	0.010547
C39	C	0.650684	0.490124	-0.017225
C40	C	0.648221	0.418859	-0.014724
C41	C	0.630470	0.017756	0.003902
C42	C	0.632750	0.084759	0.001504
C43	C	0.672216	0.115359	-0.039265
C44	C	0.709410	0.078947	-0.077633
C45	C	0.707134	0.011942	-0.075230
C46	C	0.683138	0.315441	-0.050690
C47	C	0.685411	0.382454	-0.053091
C48	C	0.608751	0.388259	0.026048
C49	C	0.606475	0.321256	0.028443
C50	C	0.643671	0.284847	-0.009922
N51	N	0.674546	0.183848	-0.041719
N52	N	0.641345	0.216355	-0.007463
C53	C	0.467859	0.700102	-0.024587
C54	C	0.403348	0.700101	-0.024585
C55	C	0.406113	0.621000	0.017848
C56	C	0.345497	0.620999	0.017852
C57	C	0.282118	0.700102	-0.024593
C58	C	0.279355	0.779214	-0.067028
C59	C	0.339971	0.779213	-0.067024
N60	N	0.163405	0.756420	-0.091128
N61	N	0.105825	0.756415	-0.091130
C62	C	0.099486	0.700109	-0.024607
N63	N	0.152906	0.643795	0.041919
N64	N	0.210492	0.643797	0.041920
C65	C	0.216387	0.700112	-0.024602
C66	C	0.036526	0.621002	0.017834
C67	C	-0.024092	0.621005	0.017839
C68	C	-0.090233	0.779221	-0.067048
C69	C	-0.029615	0.779217	-0.067046
C70	C	0.033762	0.700105	-0.024607
C71	C	0.848021	0.700108	-0.024602
C72	C	0.912532	0.700109	-0.024605
C73	C	0.664150	0.685240	-0.227206
C74	C	0.666258	0.680195	-0.295970
C75	C	0.665197	0.910086	-0.031964
C76	C	0.667659	0.981351	-0.034465
C77	C	0.634179	0.756925	-0.370716
C78	C	0.636168	0.752180	-0.435324
C79	C	0.670232	0.670703	-0.425185
C80	C	0.702316	0.593967	-0.350432
C81	C	0.700330	0.598713	-0.285825
C82	C	0.679721	0.648025	-0.613859
C83	C	0.681702	0.643285	-0.678474
C84	C	0.615555	0.801498	-0.763362
C85	C	0.613569	0.806237	-0.698750
C86	C	0.645655	0.729501	-0.624002
N87	N	0.672265	0.665850	-0.491225
N88	N	0.643627	0.734355	-0.557964
C89	C	0.651730	0.714970	0.178016
C90	C	0.649623	0.720015	0.246781
C91	C	0.840764	0.490127	-0.017233
C92	C	0.902813	0.418863	-0.014735
C93	C	0.644474	0.504989	0.185386
C94	C	0.639903	0.438769	0.256651
C95	C	0.834554	0.504992	0.185378
C96	C	0.894496	0.438773	0.256641
C97	C	0.481326	0.895218	-0.234567
C98	C	0.421385	0.961437	-0.305830
C99	C	0.475116	0.910083	-0.031956
C100	C	0.413067	0.981347	-0.034455
C101	C	0.671407	0.895221	-0.234575
C102	C	0.675977	0.961441	-0.305840
C103	C	0.896048	0.382492	-0.053130
C104	C	0.954344	0.315540	-0.050798
C105	C	1.019405	0.284955	-0.010065
C106	C	1.026169	0.321332	0.028331
C107	C	0.967874	0.388287	0.025994
C108	C	0.673661	0.410575	0.329687
C109	C	0.669364	0.348363	0.396654
C110	C	0.631313	0.314343	0.390584
C111	C	0.597551	0.342543	0.317540
C112	C	0.601844	0.404757	0.250574
C113	C	0.960981	0.404773	0.250541
C114	C	1.017308	0.342562	0.317494
C115	C	1.007149	0.314347	0.390545
C116	C	0.940657	0.348353	0.396643
C117	C	0.884331	0.410567	0.329691
C118	C	0.354900	0.995445	-0.299731
C119	C	0.298573	1.057677	-0.366684
C120	C	0.308732	1.085896	-0.439736
C121	C	0.375224	1.051885	-0.445833
C122	C	0.431550	0.989659	-0.378881
C123	C	0.419833	1.017724	0.003934
C124	C	0.361538	1.084693	0.001583
C125	C	0.296477	1.115281	-0.039152
C126	C	0.289712	1.078901	-0.077545
C127	C	0.348007	1.011937	-0.075199
C128	C	0.714034	0.995442	-0.299745
C129	C	0.718342	1.057655	-0.366700
C130	C	0.684588	1.085870	-0.439749
C131	C	0.646530	1.051862	-0.445843
C132	C	0.642226	0.989646	-0.378889
H133	H	0.578468	0.417910	0.057283
H134	H	0.611234	0.961969	-0.383863
H135	H	0.696861	0.325410	0.456123
O136	O	0.750454	0.965009	-0.220961
H137	H	0.730759	1.021698	-0.216360
O138	O	0.580960	0.884254	-0.843984
H139	H	0.525470	0.923097	-0.851945
H140	H	0.602470	0.114392	0.032752
H141	H	0.709441	0.576933	-0.670209
O142	O	0.348473	0.535678	0.063617
H143	H	0.323717	0.528842	0.023800
O144	O	0.747238	-0.027317	-0.116622
H145	H	0.784510	-0.098239	-0.074069
O146	O	0.597433	0.844804	-0.381651
H147	H	0.621208	0.881824	-0.414398
O148	O	0.490003	0.984753	0.047859
H149	H	0.484904	1.021318	0.074143
H150	H	0.688097	1.136531	-0.494262
O151	O	1.089012	0.305921	0.310884
H152	H	1.117993	0.320825	0.337948
H153	H	0.457714	0.556581	0.052401
H154	H	0.843078	0.407393	-0.086309
O155	O	0.219537	1.111899	-0.121482
H156	H	0.188484	1.101976	-0.081079
H157	H	0.730056	0.527627	-0.342181
O158	O	0.211000	0.864535	-0.112817
H159	H	0.169314	0.851246	-0.105701
H160	H	0.337714	0.843628	-0.101576
O161	O	0.759392	1.094325	-0.360113
H162	H	0.725323	1.166171	-0.390254
O163	O	1.082281	0.212736	-0.007544
H164	H	1.079368	0.153542	0.019356
H165	H	0.088131	0.556586	0.052406
O166	O	0.610117	1.082306	-0.524634
H167	H	0.619500	1.131289	-0.570161
H168	H	0.627823	0.263684	0.445118
O169	O	0.503259	0.952968	-0.385463
H170	H	0.500852	0.983042	-0.447509
H171	H	0.566570	0.314834	0.312609
O172	O	0.343934	0.965020	-0.220944
H173	H	0.288237	0.999139	-0.227964
H174	H	0.598328	-0.007149	0.037097
O175	O	0.727986	0.415456	-0.097059
H176	H	0.753475	0.378875	-0.123326
H177	H	0.367059	1.114303	0.032852
O178	O	0.565542	0.435039	0.171803
H179	H	0.538407	0.400876	0.178843
O180	O	0.576830	0.894116	-0.709686
H181	H	0.535092	0.900058	-0.682286
H182	H	0.705848	0.585541	-0.553004
H183	H	-0.021834	0.556589	0.052399
H184	H	-0.141837	0.843628	-0.101608
O185	O	0.734925	0.515956	-0.205202
H186	H	0.758940	0.458501	-0.209004
H187	H	1.053019	0.263687	0.445055
O188	O	0.233601	1.187483	-0.041655
H189	H	0.249242	1.207621	-0.008100
O190	O	0.226861	1.094348	-0.360099
H191	H	0.197865	1.079489	-0.387202
O192	O	0.563859	0.288304	0.072358
H193	H	0.538367	0.324892	0.098618
O194	O	0.971947	0.435209	0.171754
H195	H	1.027645	0.401118	0.178773
O196	O	0.947041	0.276305	-0.092207
H197	H	0.892005	0.308814	-0.120908
H198	H	0.713424	0.285804	-0.081929
O199	O	0.751971	0.111958	-0.121614
H200	H	0.791309	0.102103	-0.081253
O201	O	0.601566	0.834938	-0.515945
H202	H	0.577537	0.892390	-0.512141
O203	O	1.096343	0.288334	0.072272
H204	H	1.135736	0.235657	0.067450
O205	O	0.386176	1.082326	-0.524628
H206	H	0.413863	1.025639	-0.529235
H207	H	0.932395	0.325370	0.456130
H208	H	0.704646	0.438268	0.334644
H209	H	-0.031870	0.843629	-0.101605
O210	O	0.975173	0.427501	0.067423
H211	H	1.030209	0.394972	0.096145
O212	O	0.812621	0.447218	0.336274
H213	H	0.815027	0.417131	0.398321
O214	O	0.247979	1.153021	-0.511947
H215	H	0.200043	1.171922	-0.495425
H216	H	0.342489	0.982320	-0.106458
