data_functionalizedCrystal
_audit_creation_method	'MofGen! by Chris Wilmer'
_symmetry_space_group_name_H-M	'P1'
_symmetry_Int_Tables_number	1
_symmetry_cell_setting	triclinic
loop_
_symmetry_equiv_pos_as_xyz
  x,y,z
_cell_length_a	11.169417
_cell_length_b	12.594516
_cell_length_c	11.169409
_cell_angle_alpha	90.031354
_cell_angle_beta	90.019824
_cell_angle_gamma	90.016931
loop_
_atom_site_label
_atom_site_type_symbol
_atom_site_fract_x
_atom_site_fract_y
_atom_site_fract_z
Zn1	Zn	1.834915	-0.423631	0.678551
Zn2	Zn	1.834784	-0.601657	0.477871
Zn3	Zn	1.634201	-0.423696	0.477885
Zn4	Zn	1.634188	-0.601571	0.678516
O5	O	1.734522	-0.512639	0.578206
O6	O	2.002847	-0.447256	0.651939
O7	O	1.808127	-0.578114	0.309923
O8	O	1.660886	-0.274741	0.504524
O9	O	2.002751	-0.578051	0.504501
O10	O	1.808349	-0.274694	0.651953
O11	O	1.660759	-0.447366	0.309934
O12	O	1.466249	-0.447282	0.504491
O13	O	1.660864	-0.577903	0.846471
O14	O	1.466240	-0.577966	0.651893
O15	O	1.808337	-0.447172	0.846496
O16	O	1.808115	-0.750592	0.504467
O17	O	1.660738	-0.750528	0.651880
C18	C	1.422697	-0.512623	0.578190
C19	C	1.289297	-0.512641	0.578212
C20	C	1.734443	-0.789180	0.578194
C21	C	1.734519	-0.907485	0.578229
C22	C	1.654353	-0.976742	0.658351
C23	C	1.625107	-1.047617	0.548838
C24	C	1.763875	-1.047410	0.687761
C25	C	1.705215	-0.976801	0.468658
C26	C	1.844034	-0.976588	0.607656
C27	C	1.814829	-1.047430	0.498067
C28	C	2.047564	-0.512656	0.578222
C29	C	2.180964	-0.512663	0.578229
C30	C	1.734614	-0.512520	0.891249
C31	C	1.734653	-0.512470	1.024649
C32	C	1.734634	-0.235018	0.578244
C33	C	1.734681	-0.116712	0.578260
C34	C	1.734499	-0.512680	0.266381
C35	C	1.734692	-0.512430	0.132982
H36	H	1.532568	-1.078839	0.523974
H37	H	1.882693	-1.078273	0.430246
C38	C	1.563613	-0.935403	0.748407
C39	C	1.449197	-0.971378	0.717046
C40	C	1.365575	-0.933305	0.799962
H41	H	1.583485	-0.960593	0.826054
H42	H	1.564615	-0.859974	0.748261
H43	H	1.448198	-1.046792	0.717205
H44	H	1.429287	-0.946191	0.639413
H45	H	1.366577	-0.857876	0.799816
H46	H	1.385458	-0.958498	0.877604
H47	H	1.287933	-0.957700	0.778689
C48	C	1.967354	-0.935007	0.641120
C49	C	1.997543	-0.970694	0.755921
C50	C	2.111129	-0.932397	0.786809
H51	H	2.024682	-0.960236	0.585127
H52	H	1.966590	-0.859580	0.640211
H53	H	1.998317	-1.046105	0.756820
H54	H	1.940246	-0.945467	0.811940
H55	H	2.110365	-0.856971	0.785901
H56	H	2.168447	-0.957630	0.730809
H57	H	2.131622	-0.956598	0.864708
C58	C	1.672082	-0.935835	0.345029
C59	C	1.651641	-1.021901	0.268296
C60	C	1.621129	-0.984202	0.154401
H61	H	1.601587	-0.893929	0.350331
H62	H	1.735764	-0.893797	0.314507
H63	H	1.587965	-1.063921	0.298811
H64	H	1.722122	-1.063815	0.262959
H65	H	1.684811	-0.942164	0.123879
H66	H	1.550636	-0.942296	0.159715
H67	H	1.607266	-1.042591	0.102321
H68	H	1.788639	-1.078426	0.780379
