data_functionalizedCrystal
_audit_creation_method	'MofGen! by Chris Wilmer'
_symmetry_space_group_name_H-M	'P1'
_symmetry_Int_Tables_number	1
_symmetry_cell_setting	triclinic
loop_
_symmetry_equiv_pos_as_xyz
  x,y,z
_cell_length_a	16.176319
_cell_length_b	10.489711
_cell_length_c	17.699103
_cell_angle_alpha	83.909034
_cell_angle_beta	90.012529
_cell_angle_gamma	90.002756
loop_
_atom_site_label
_atom_site_type_symbol
_atom_site_fract_x
_atom_site_fract_y
_atom_site_fract_z
O1	O	0.068787	1.692100	0.106676
O2	O	0.068783	1.320714	0.116722
O3	O	0.068769	1.516886	0.001579
O4	O	0.068800	1.495927	0.221819
O5	O	-0.068724	1.516883	0.001568
O6	O	-0.068711	1.320710	0.116711
O7	O	-0.068707	1.692096	0.106665
Cu8	Cu	-0.081263	1.506403	0.111687
Cu9	Cu	0.081339	1.506407	0.111700
O10	O	-0.068693	1.495924	0.221808
C11	C	0.000035	1.273194	0.115963
C12	C	0.000033	1.131604	0.113707
N13	N	-0.195628	1.506409	0.111678
C14	C	0.000052	0.947939	0.182951
C15	C	0.067838	1.040725	0.148368
C16	C	-0.067720	1.040695	0.148339
C17	C	0.067891	0.972127	0.075067
C18	C	-0.067727	0.972087	0.075048
C19	C	0.000075	1.064847	0.040412
N20	N	0.195704	1.506411	0.111703
C21	C	0.238962	1.593437	0.060820
C22	C	0.325509	1.593442	0.060818
C23	C	0.368797	1.506414	0.111697
C24	C	0.325532	1.419383	0.162586
C25	C	0.238987	1.419385	0.162590
C26	C	0.674561	1.419374	0.162568
C27	C	0.761112	1.419376	0.162558
C28	C	0.761083	1.593430	0.060796
C29	C	0.674538	1.593433	0.060801
C30	C	0.631281	1.506407	0.111692
C31	C	0.537437	1.506405	0.111694
C32	C	0.462639	1.506409	0.111692
C33	C	0.000020	1.516129	-0.026628
C34	C	0.000013	1.513863	-0.110660
C35	C	0.000043	1.739616	0.107424
C36	C	0.000050	1.881206	0.109680
C37	C	0.075015	1.500006	-0.626456
C38	C	0.075007	1.502133	-0.547499
C39	C	0.000055	1.503192	-0.508039
C40	C	-0.074895	1.502137	-0.547542
C41	C	-0.074887	1.500019	-0.626498
C42	C	-0.074930	1.510681	-0.229120
C43	C	-0.074932	1.512795	-0.150158
C44	C	0.074965	1.512795	-0.150121
C45	C	0.074973	1.510677	-0.229077
C46	C	0.000023	1.509628	-0.268573
C47	C	0.000032	1.507324	-0.354188
C48	C	0.000045	1.505487	-0.422426
C49	C	0.000058	1.496681	0.250015
C50	C	0.000070	1.498947	0.334047
H51	H	0.000128	0.897137	0.243174
H52	H	0.203723	1.664300	0.019386
H53	H	0.360782	1.348527	0.204016
H54	H	-0.135971	1.513651	-0.118032
O55	O	0.147798	1.513593	-0.111776
C56	C	0.193393	1.402663	-0.123109
H57	H	0.149531	1.324908	-0.139248
H58	H	0.227394	1.366987	-0.068504
H59	H	0.240124	1.426392	-0.170736
O60	O	0.632398	1.678024	0.011482
C61	C	0.582369	1.756457	0.052569
H62	H	0.569422	1.705297	0.111457
H63	H	0.521500	1.776828	0.021116
H64	H	0.615728	1.850666	0.058357
H65	H	-0.135923	1.503007	-0.515408
H66	H	0.203767	1.348521	0.204025
H67	H	0.136050	1.499131	-0.658577
O68	O	0.136105	1.077052	0.185503
C69	C	0.135862	1.016971	0.260642
H70	H	0.069903	0.989068	0.278001
H71	H	0.161362	1.085928	0.300516
H72	H	0.176125	0.927339	0.264168
H73	H	-0.135958	1.509829	-0.261269
H74	H	0.125265	0.941892	0.044098
O75	O	0.000250	1.125138	-0.031509
C76	C	0.071804	1.090160	-0.069844
H77	H	0.121543	1.056741	-0.026574
H78	H	0.095455	1.176387	-0.108417
H79	H	0.056274	1.009073	-0.105539
H80	H	-0.135915	1.499156	-0.658655
O81	O	0.632677	1.334716	0.212028
C82	C	0.689445	1.257927	0.256943
H83	H	0.751124	1.256676	0.225887
H84	H	0.664439	1.156022	0.267801
H85	H	0.698675	1.298985	0.313459
O86	O	-0.136190	0.935781	0.038197
C87	C	-0.207524	0.970336	0.077005
H88	H	-0.191274	0.980375	0.138771
H89	H	-0.256716	0.893014	0.074717
H90	H	-0.232264	1.065558	0.048909
O91	O	0.803253	1.335014	0.212022
C92	C	0.853318	1.403025	0.259193
H93	H	0.866275	1.502989	0.229718
H94	H	0.914180	1.349731	0.270801
H95	H	0.819985	1.411350	0.315203
H96	H	0.136034	1.502998	-0.515344
O97	O	-0.136066	1.076768	0.185430
C98	C	-0.135783	1.016664	0.260563
H99	H	-0.096093	0.926459	0.263688
H100	H	-0.201708	0.989704	0.278550
H101	H	-0.109320	1.085227	0.300204
H102	H	0.360730	1.664306	0.019386
H103	H	0.136007	1.509808	-0.261200
O104	O	0.803177	1.677781	0.011303
C105	C	0.853182	1.609739	-0.035878
H106	H	0.866174	1.509797	-0.006385
H107	H	0.914031	1.663040	-0.047541
H108	H	0.819780	1.601360	-0.091861
