data_functionalizedCrystal
_audit_creation_method	'MofGen! by Chris Wilmer'
_symmetry_space_group_name_H-M	'P1'
_symmetry_Int_Tables_number	1
_symmetry_cell_setting	triclinic
loop_
_symmetry_equiv_pos_as_xyz
  x,y,z
_cell_length_a	9.065215
_cell_length_b	8.559649
_cell_length_c	8.140239
_cell_angle_alpha	89.998339
_cell_angle_beta	89.997810
_cell_angle_gamma	77.396681
loop_
_atom_site_label
_atom_site_type_symbol
_atom_site_fract_x
_atom_site_fract_y
_atom_site_fract_z
O1	O	1.931011	0.233881	-0.136586
O2	O	2.264344	0.567214	0.196748
O3	O	2.597678	0.900547	0.530081
O4	O	1.499314	0.253072	-0.136593
O5	O	1.832647	0.586405	0.196741
O6	O	2.165981	0.919738	0.530074
O7	O	1.753195	0.011424	-0.136587
O8	O	2.086529	0.344758	0.196746
O9	O	2.419862	0.678091	0.530080
O10	O	1.677130	0.475528	-0.136591
O11	O	2.010463	0.808861	0.196742
O12	O	2.343796	1.142195	0.530075
O13	O	1.753183	0.011421	0.136640
O14	O	2.086517	0.344755	0.469974
O15	O	2.419850	0.678088	0.803307
O16	O	1.499302	0.253069	0.136635
O17	O	1.832635	0.586402	0.469968
O18	O	2.165969	0.919735	0.803301
O19	O	1.930999	0.233878	0.136641
O20	O	2.264332	0.567211	0.469975
O21	O	2.597665	0.900545	0.803308
Zn22	Zn	1.715148	0.243473	0.180019
Zn23	Zn	2.048482	0.576806	0.513352
Zn24	Zn	2.381815	0.910139	0.846685
Zn25	Zn	1.715164	0.243477	-0.179970
Zn26	Zn	2.048498	0.576810	0.153363
Zn27	Zn	2.381831	0.910143	0.486697
O28	O	1.677118	0.475525	0.136636
O29	O	2.010451	0.808859	0.469969
O30	O	2.343784	1.142192	0.803302
C31	C	1.444553	0.251227	0.000020
C32	C	1.777886	0.584560	0.333353
C33	C	2.111220	0.917893	0.666687
C34	C	1.281402	0.245715	0.000017
C35	C	1.614736	0.579049	0.333351
C36	C	1.948069	0.912382	0.666684
C37	C	1.758954	-0.048024	0.000024
C38	C	2.092287	0.285310	0.333357
C39	C	2.425620	0.618643	0.666690
C40	C	1.776112	-0.225156	0.000015
C41	C	2.109446	0.108178	0.333348
C42	C	2.442779	0.441511	0.666681
C43	C	1.985760	0.235723	0.000025
C44	C	2.319093	0.569056	0.333358
C45	C	2.652427	0.902389	0.666692
C46	C	2.148910	0.241234	0.000017
C47	C	2.482244	0.574567	0.333350
C48	C	2.815577	0.907901	0.666684
C49	C	1.671359	0.534973	0.000021
C50	C	2.004692	0.868307	0.333355
C51	C	2.338026	1.201640	0.666688
C52	C	1.654200	0.712105	0.000020
C53	C	1.987534	1.045439	0.333353
C54	C	2.320867	1.378772	0.666686
N55	N	1.715148	0.243469	0.425701
N56	N	2.048482	0.576803	0.759035
N57	N	2.381815	0.910136	1.092368
N58	N	1.715178	0.243468	-0.425652
N59	N	2.048511	0.576801	-0.092319
N60	N	2.381844	0.910134	0.241014
H61	H	1.536699	-0.206097	0.000023
H62	H	1.870033	0.127236	0.333356
H63	H	2.203366	0.460569	0.666690
H64	H	1.893621	-0.306962	0.000030
H65	H	2.226955	0.026371	0.333363
H66	H	2.560288	0.359704	0.666696
