data_functionalizedCrystal
_audit_creation_method	'MofGen! by Chris Wilmer'
_symmetry_space_group_name_H-M	'P1'
_symmetry_Int_Tables_number	1
_symmetry_cell_setting	triclinic
loop_
_symmetry_equiv_pos_as_xyz
  x,y,z
_cell_length_a	27.731993
_cell_length_b	27.732048
_cell_length_c	14.750779
_cell_angle_alpha	77.459753
_cell_angle_beta	102.543346
_cell_angle_gamma	82.631525
loop_
_atom_site_label
_atom_site_type_symbol
_atom_site_fract_x
_atom_site_fract_y
_atom_site_fract_z
O1	O	0.630405	0.067928	-0.079584
O2	O	0.489600	0.076709	-0.079644
O3	O	0.564378	0.001918	-0.079594
O4	O	0.555627	0.142718	-0.079634
O5	O	0.585516	-0.019222	0.080070
O6	O	0.510738	0.055568	0.080020
O7	O	0.651544	0.046787	0.080080
Zn8	Zn	0.584497	0.047821	0.105401
Zn9	Zn	0.556646	0.075674	-0.104964
O10	O	0.576765	0.121578	0.080030
C11	C	0.482161	0.065959	0.000181
C12	C	0.428501	0.065420	0.000159
C13	C	0.033825	0.073007	-0.086827
C14	C	0.235479	0.075077	-0.086854
O15	O	0.251752	0.085126	-0.160874
N16	N	0.272221	0.063813	0.000178
C17	C	0.258549	0.052026	0.087222
O18	O	0.294429	0.042488	0.161246
C19	C	0.056896	0.049952	0.087247
C20	C	0.020155	0.061223	0.000210
C21	C	-0.002916	0.084275	-0.173857
C22	C	-0.053327	0.083760	-0.173849
C23	C	-0.066997	0.071976	-0.086812
C24	C	-0.030256	0.060708	0.000218
C25	C	0.043225	0.038163	0.174290
C26	C	-0.007192	0.037644	0.174289
C27	C	-0.043934	0.048914	0.087252
C28	C	-0.094337	0.048409	0.087263
N29	N	-0.131080	0.059673	0.000232
C30	C	-0.117410	0.071457	-0.086806
C31	C	0.364418	0.053117	0.087202
C32	C	0.414831	0.053636	0.087196
C33	C	0.391758	0.076686	-0.086880
C34	C	0.341343	0.076170	-0.086872
C35	C	0.327676	0.064381	0.000171
C36	C	-0.223275	0.070375	-0.086783
C37	C	-0.273689	0.069861	-0.086768
C38	C	-0.250611	0.046808	0.087307
C39	C	-0.200201	0.047325	0.087292
C40	C	-0.186535	0.059108	0.000239
O41	O	-0.110646	0.038360	0.161244
O42	O	-0.153295	0.080984	-0.160819
C43	C	0.084235	0.073522	-0.086834
C44	C	0.120976	0.062253	0.000195
C45	C	0.107306	0.050469	0.087232
C46	C	0.171389	0.062772	0.000189
C47	C	0.185059	0.074556	-0.086848
C48	C	0.148316	0.085821	-0.173879
C49	C	0.097905	0.085306	-0.173872
C50	C	0.144049	0.039204	0.174264
C51	C	0.194458	0.039721	0.174249
C52	C	0.208129	0.051505	0.087212
C53	C	0.574764	-0.026660	0.000241
C54	C	0.574212	-0.080315	0.000248
C55	C	0.614913	-0.419134	0.000217
C56	C	0.612860	-0.620791	0.000202
O57	O	0.650078	-0.652051	0.000176
N58	N	0.568521	-0.639904	0.000184
C59	C	0.524691	-0.608598	0.000164
O60	O	0.486930	-0.629480	0.000138
C61	C	0.526744	-0.406941	0.000171
C62	C	0.571087	-0.387833	0.000199
C63	C	0.659252	-0.400025	0.000243
C64	C	0.659765	-0.349614	0.000252
C65	C	0.615940	-0.318313	0.000234
C66	C	0.571600	-0.337422	0.000207
C67	C	0.482914	-0.375635	0.000143
C68	C	0.483431	-0.325218	0.000143
C69	C	0.527774	-0.306109	0.000170
C70	C	0.528288	-0.255710	0.000198
N71	N	0.572627	-0.236597	0.000216
C72	C	0.616453	-0.267898	0.000234
C73	C	0.523617	-0.714472	0.000162
C74	C	0.523104	-0.764886	0.000161
C75	C	0.611272	-0.777076	0.000198
C76	C	0.611786	-0.726661	0.000205
C77	C	0.567956	-0.695359	0.000180
C78	C	0.617528	-0.162032	0.000254
C79	C	0.618038	-0.111617	0.000266
C80	C	0.529869	-0.099431	0.000224
C81	C	0.529359	-0.149842	0.000217
C82	C	0.573192	-0.181142	0.000228
O83	O	0.491088	-0.224420	0.000214
O84	O	0.654206	-0.247004	0.000238
C85	C	0.614399	-0.469545	0.000208
C86	C	0.570060	-0.488654	0.000181
C87	C	0.526234	-0.457352	0.000163
C88	C	0.569547	-0.539068	0.000181
C89	C	0.613373	-0.570370	0.000199
C90	C	0.657712	-0.551257	0.000217
C91	C	0.658225	-0.500846	0.000226
C92	C	0.481895	-0.476465	0.000145
C93	C	0.481386	-0.526876	0.000137
C94	C	0.525212	-0.558178	0.000155
C95	C	0.658982	0.057537	0.000253
C96	C	0.712641	0.058077	0.000269
C97	C	0.566379	0.150156	0.000193
C98	C	0.566930	0.203812	0.000179
N99	N	0.603509	0.028812	0.248969
N100	N	0.537638	0.094680	-0.248533
C101	C	0.484543	0.147749	0.600707
C102	C	0.497868	0.134431	0.701215
C103	C	0.564097	0.068228	0.701223
C104	C	0.550776	0.081539	0.600712
C105	C	0.510998	0.121300	0.550463
C106	C	0.577232	0.055089	0.550468
C107	C	0.563913	0.068400	0.449967
C108	C	0.524138	0.108161	0.399710
C109	C	0.497680	0.134611	0.449961
C110	C	0.617011	0.015331	0.600719
C111	C	0.643467	-0.011118	0.550475
C112	C	0.630146	0.002190	0.449972
C113	C	0.590371	0.041950	0.399715
C114	C	0.656605	-0.024260	0.399720
C115	C	0.643286	-0.010949	0.299219
C116	C	0.577053	0.055261	0.299214
H117	H	0.224371	0.030546	0.245130
H118	H	0.476321	0.155974	0.742120
N119	N	0.663329	-0.092090	0.000282
N120	N	0.663786	-0.047078	0.000288
H121	H	0.695771	-0.033286	0.000297
N122	N	0.436090	-0.546394	0.000130
N123	N	0.415539	-0.545598	0.067418
H124	H	0.383549	-0.559381	0.067408
N125	N	0.536421	0.095880	0.247889
N126	N	0.538232	0.139071	0.259105
H127	H	0.509538	0.167758	0.222856
N128	N	0.080745	0.026650	0.263201
N129	N	0.078121	0.052954	0.321484
H130	H	0.104620	0.044820	0.384284
N131	N	-0.090850	0.095255	-0.262758
N132	N	-0.116832	0.063446	-0.282169
H133	H	-0.143330	0.071562	-0.344967
H134	H	0.647894	-0.711107	0.000227
N135	N	-0.162658	0.035828	0.176180
N136	N	-0.136666	0.067634	0.195569
H137	H	-0.110151	0.059512	0.258345
H138	H	0.653220	-0.187510	0.000259
H139	H	0.694334	-0.485293	0.000248
N140	N	0.510520	0.121762	0.297050
N141	N	0.475004	0.157262	0.252197
H142	H	0.465385	0.166868	0.179693
N143	N	0.457042	0.175223	0.398638
N144	N	0.433420	0.198834	0.443508
H145	H	0.404721	0.227516	0.407262
N146	N	0.060381	0.096803	-0.262779
N147	N	0.034396	0.064997	-0.282194
H148	H	0.007897	0.073116	-0.344990
N149	N	0.405719	0.088716	-0.175796
N150	N	0.372915	0.098768	-0.253503
H151	H	0.382777	0.107259	-0.316298
H152	H	0.695873	-0.334061	0.000271
H153	H	0.452148	0.180123	0.559792
N154	N	0.604720	0.027608	0.752559
N155	N	0.602903	-0.015583	0.741348
H156	H	0.631592	-0.044273	0.777605
H157	H	0.688995	-0.056630	0.440646
H158	H	0.627856	0.004496	0.682554
N159	N	0.684102	-0.051725	0.601822
N160	N	0.695993	-0.063602	0.691555
H161	H	0.724692	-0.092280	0.727819
N162	N	0.130099	0.027163	0.263184
N163	N	0.162915	0.017105	0.340877
H164	H	0.153066	0.008602	0.403683
H165	H	0.694942	-0.425506	0.000254
H166	H	0.311431	0.085347	-0.157746
N167	N	0.452351	0.042135	0.176110
N168	N	0.440132	0.031615	0.253811
H169	H	0.466628	0.023490	0.316611
H170	H	-0.018317	0.028048	0.245172
N171	N	-0.311214	0.081378	-0.175687
N172	N	-0.298997	0.091898	-0.253390
H173	H	-0.325497	0.100032	-0.316188
N174	N	-0.209319	0.082403	-0.175704
N175	N	-0.217963	0.055975	-0.233971
H176	H	-0.208107	0.064471	-0.296772
N177	N	0.011033	0.096311	-0.262780
N178	N	-0.021784	0.106369	-0.340470
H179	H	-0.011937	0.114873	-0.403279
N180	N	0.350471	0.041072	0.176130
N181	N	0.383286	0.031016	0.253822
H182	H	0.373438	0.022510	0.316629
N183	N	0.656037	-0.809062	0.000224
N184	N	0.655567	-0.854073	0.000225
H185	H	0.687179	-0.876666	0.000239
N186	N	-0.264589	0.034775	0.176201
N187	N	-0.309603	0.034316	0.176184
H188	H	-0.319477	0.025814	0.238965
N189	N	0.670254	-0.038029	0.247903
N190	N	0.705726	-0.073570	0.292779
H191	H	0.724752	-0.092718	0.256539
N192	N	0.438664	-0.293239	0.000131
N193	N	0.439125	-0.248228	0.000141
H194	H	0.407510	-0.225644	0.000135
N195	N	0.162293	0.097859	-0.262778
N196	N	0.207308	0.098315	-0.262758
H197	H	0.217183	0.106814	-0.325539
H198	H	0.487924	-0.688989	0.000141
N199	N	0.477808	-0.784396	0.000155
N200	N	0.438683	-0.756437	0.000140
H201	H	0.406690	-0.770214	0.000133
N202	N	0.437613	-0.395137	0.000113
N203	N	0.398490	-0.367173	0.000086
H204	H	0.366493	-0.380944	0.000061
N205	N	0.484065	-0.169360	0.000218
N206	N	0.444940	-0.141406	0.000217
H207	H	0.412950	-0.155186	0.000215
H208	H	0.693397	-0.576752	0.000236
N209	N	0.485110	-0.067446	0.000214
N210	N	0.485580	-0.022436	0.000219
H211	H	0.453968	0.000156	0.000207
N212	N	0.437121	-0.444502	0.000124
N213	N	0.397539	-0.461578	0.000106
H214	H	0.365915	-0.439007	0.000096
