data_functionalizedCrystal
_audit_creation_method	'MofGen! by Chris Wilmer'
_symmetry_space_group_name_H-M	'P1'
_symmetry_Int_Tables_number	1
_symmetry_cell_setting	triclinic
loop_
_symmetry_equiv_pos_as_xyz
  x,y,z
_cell_length_a	13.032831
_cell_length_b	25.639239
_cell_length_c	13.033245
_cell_angle_alpha	97.202010
_cell_angle_beta	90.890961
_cell_angle_gamma	82.842759
loop_
_atom_site_label
_atom_site_type_symbol
_atom_site_fract_x
_atom_site_fract_y
_atom_site_fract_z
Zn1	Zn	1.498170	-0.253975	0.780786
Zn2	Zn	1.519873	-0.353702	0.608775
Zn3	Zn	1.348060	-0.256728	0.587022
Zn4	Zn	1.326110	-0.331820	0.758910
O5	O	1.423053	-0.299056	0.683873
O6	O	1.644961	-0.275210	0.776228
O7	O	1.515350	-0.351148	0.461967
O8	O	1.368076	-0.183201	0.612776
O9	O	1.660906	-0.348479	0.649852
O10	O	1.478361	-0.181179	0.755134
O11	O	1.389119	-0.279902	0.445984
O12	O	1.201236	-0.258684	0.591564
O13	O	1.330666	-0.311183	0.905735
O14	O	1.185110	-0.313853	0.717849
O15	O	1.457078	-0.253992	0.921807
O16	O	1.494066	-0.423961	0.628640
O17	O	1.351710	-0.407884	0.738943
C18	C	1.155858	-0.284193	0.649973
C19	C	1.041548	-0.277845	0.635494
C20	C	0.982645	-0.302369	0.691429
C21	C	0.864500	-0.295809	0.676467
C22	C	1.422886	-0.434893	0.683804
C23	C	1.422905	-0.493007	0.683821
C24	C	1.497335	-0.861736	0.626572
C25	C	1.497374	-0.916342	0.626591
O26	O	1.560485	-0.951685	0.577842
N27	N	1.423225	-0.935300	0.683964
C28	C	1.349041	-0.899650	0.741331
O29	O	1.285976	-0.920790	0.790134
C30	C	1.349008	-0.845046	0.741317
C31	C	1.423155	-0.826090	0.683932
C32	C	1.571477	-0.842780	0.569192
C33	C	1.571437	-0.788178	0.569172
C34	C	1.497256	-0.752532	0.626532
C35	C	1.423115	-0.771489	0.683912
C36	C	1.274828	-0.809397	0.798689
C37	C	1.274803	-0.754789	0.798671
C38	C	1.348949	-0.735834	0.741286
C39	C	1.348894	-0.681241	0.741251
N40	N	1.423043	-0.662282	0.683878
C41	C	1.497224	-0.697928	0.626518
C42	C	1.349116	-1.014324	0.741356
C43	C	1.349143	-1.068928	0.741365
C44	C	1.497478	-1.085615	0.626626
C45	C	1.497445	-1.031011	0.626613
C46	C	1.423264	-0.995365	0.683983
C47	C	1.497134	-0.583260	0.626480
C48	C	1.497086	-0.528652	0.626461
C49	C	1.348755	-0.511970	0.741204
C50	C	1.348800	-0.566572	0.741218
C51	C	1.422998	-0.602217	0.683854
O52	O	1.285818	-0.645866	0.789979
O53	O	1.560286	-0.676780	0.577734
C54	C	1.691292	-0.313978	0.717907
C55	C	1.805599	-0.320337	0.732410
C56	C	1.389003	-0.279839	0.952132
C57	C	1.374493	-0.271650	1.066448
C58	C	1.423246	-0.162689	0.683969
C59	C	1.423328	-0.104578	0.684009
C60	C	1.415489	-0.294795	1.243469
C61	C	1.430487	-0.303256	1.125318
C62	C	1.456964	-0.318209	1.416657
C63	C	1.471476	-0.326396	1.302341
H64	H	1.004509	-0.251990	0.576533
H65	H	1.557556	-0.612276	0.579771
H66	H	1.530515	-0.359713	1.265274
H67	H	0.842630	-0.346188	0.791386
H68	H	1.288426	-0.582006	0.787950
H69	H	1.214446	-0.824820	0.845413
C70	C	1.652998	-0.767335	0.506034
N71	N	1.714432	-0.751640	0.458472
H72	H	1.019683	-0.328220	0.750398
C73	C	1.335736	-0.249780	1.293542
N74	N	1.275663	-0.215874	1.331255
H75	H	0.827465	-0.269952	0.617501
H76	H	1.557465	-0.513222	0.579728
H77	H	1.631890	-0.871798	0.522484
C78	C	1.294731	-0.226635	1.116513
N79	N	1.234654	-0.192730	1.154223
H80	H	1.214396	-0.725768	0.845392
C81	C	1.579014	-1.010165	0.563489
N82	N	1.640457	-0.994468	0.515942
H83	H	1.489530	-0.336575	1.088255
H84	H	1.288757	-1.084356	0.788083
H85	H	1.288355	-0.482939	0.787902
C86	C	1.579086	-1.124836	0.563538
N87	N	1.640551	-1.154378	0.516025
C88	C	1.267510	-0.975118	0.804478
N89	N	1.206048	-0.945590	0.852027
