data_functionalizedCrystal
_audit_creation_method	'MofGen! by Chris Wilmer'
_symmetry_space_group_name_H-M	'P1'
_symmetry_Int_Tables_number	1
_symmetry_cell_setting	triclinic
loop_
_symmetry_equiv_pos_as_xyz
  x,y,z
_cell_length_a	27.435584
_cell_length_b	27.434948
_cell_length_c	27.431174
_cell_angle_alpha	60.005483
_cell_angle_beta	60.011353
_cell_angle_gamma	59.993028
loop_
_atom_site_label
_atom_site_type_symbol
_atom_site_fract_x
_atom_site_fract_y
_atom_site_fract_z
O1	O	0.067437	-0.712144	0.595551
O2	O	0.025356	-0.554453	0.479848
O3	O	0.125206	-0.654236	0.479781
O4	O	-0.032412	-0.612361	0.595618
O5	O	0.158328	-0.621117	0.512835
O6	O	0.058479	-0.521333	0.512902
O7	O	0.100560	-0.679025	0.628605
Zn8	Zn	0.084778	-0.594921	0.576001
Zn9	Zn	0.041138	-0.638557	0.532452
O10	O	0.000710	-0.579241	0.628672
N11	N	0.114563	-0.565144	0.605726
N12	N	0.011358	-0.668338	0.502727
C13	C	0.156385	-0.523520	0.904506
C14	C	0.413419	-0.523497	0.647322
C15	C	0.156253	-0.523488	0.647384
C16	C	0.156238	-0.266354	0.647407
C17	C	0.197637	-0.390463	0.688753
C18	C	0.197646	-0.482126	0.688741
C19	C	0.220575	-0.459215	0.711654
C20	C	0.320555	-0.441991	0.659023
C21	C	0.383051	-0.462825	0.638179
C22	C	0.383069	-0.563942	0.676737
C23	C	0.320575	-0.543107	0.697583
C24	C	0.212704	-0.359206	0.627313
C25	C	0.191849	-0.296705	0.606496
C26	C	0.140866	-0.296722	0.708562
C27	C	0.161721	-0.359223	0.729379
C28	C	0.136200	-0.467030	0.703858
C29	C	0.115361	-0.487857	0.683021
C30	C	0.217408	-0.538877	0.631968
C31	C	0.238249	-0.518050	0.652796
C32	C	0.136259	-0.467047	0.811668
C33	C	0.115461	-0.487892	0.874167
C34	C	0.217537	-0.538923	0.874131
C35	C	0.238333	-0.518080	0.811631
C36	C	0.197693	-0.482140	0.780401
C37	C	0.289320	-0.482131	0.688723
C38	C	0.132699	-0.546027	0.973247
C39	C	0.482158	-0.545613	0.624075
C40	C	0.132521	-0.546006	0.624886
C41	C	0.132917	-0.197607	0.625310
C42	C	-0.098217	-0.686189	0.484419
C43	C	-0.006438	-0.686322	0.392891
C44	C	-0.006621	-0.777944	0.484592
C45	C	-0.006606	-0.686315	0.484649
C46	C	-0.029470	-0.709193	0.461638
N47	N	0.538410	-0.565162	0.605628
O48	O	0.742647	-0.575135	0.458625
O49	O	0.742821	-0.691181	0.616169
O50	O	0.742757	-0.690917	0.516248
O51	O	0.742711	-0.575399	0.558546
O52	O	0.643472	-0.657878	0.549405
O53	O	0.643536	-0.658142	0.649326
O54	O	0.643362	-0.542096	0.491782
Zn55	Zn	0.627685	-0.594873	0.575818
Zn56	Zn	0.758498	-0.638404	0.532133
O57	O	0.643426	-0.542360	0.591702
N58	N	0.847774	-0.668115	0.502317
N59	N	0.114542	-0.141354	0.605766
O60	O	-0.032397	0.062987	0.595660
O61	O	0.125155	0.062987	0.479633
O62	O	0.025219	0.062974	0.479910
O63	O	0.067539	0.063001	0.595383
O64	O	0.058343	-0.036320	0.513009
O65	O	0.158279	-0.036306	0.512732
O66	O	0.000728	-0.036306	0.628759
Zn67	Zn	0.084763	-0.052071	0.576000
Zn68	Zn	0.041120	0.078752	0.532392
O69	O	0.100664	-0.036292	0.628482
N70	N	0.011333	0.168036	0.502628
N71	N	0.114782	-0.565197	1.029501
O72	O	0.104681	-0.712124	1.233827
O73	O	-0.011334	-0.554523	1.233839
O74	O	-0.011066	-0.654443	1.233797
O75	O	0.104414	-0.612204	1.233869
O76	O	0.022028	-0.621336	1.134509
O77	O	0.021760	-0.521417	1.134551
O78	O	0.137775	-0.679018	1.134539
Zn79	Zn	0.085022	-0.594961	1.118780
Zn80	Zn	0.041420	-0.638580	1.249597
O81	O	0.137508	-0.579098	1.134580
N82	N	0.011658	-0.668350	1.338876
C83	C	0.037974	-0.518023	0.480435
C84	C	0.161625	-0.641592	0.480351
C85	C	0.087941	-0.715455	0.628017
C86	C	-0.035710	-0.591885	0.628101
C87	C	0.693199	-0.690642	0.652596
C88	C	0.693122	-0.690315	0.528855
C89	C	0.692981	-0.542634	0.455356
C90	C	0.693062	-0.542961	0.579095
C91	C	0.161524	0.013463	0.480164
C92	C	0.037807	0.013324	0.480547
C93	C	-0.035683	0.013341	0.628188
C94	C	0.088076	0.013357	0.627845
C95	C	-0.010764	-0.518114	1.184196
C96	C	-0.010426	-0.641846	1.184125
C97	C	0.137205	-0.715426	1.184182
C98	C	0.136875	-0.591687	1.184231
H99	H	0.103160	-0.437777	0.786243
H100	H	0.206679	0.013739	0.443646
O101	O	-0.095673	-0.580068	0.676292
H102	H	-0.124905	-0.533891	0.659339
O103	O	0.025810	0.013322	0.432489
H104	H	0.014752	-0.027151	0.448641
O105	O	0.184937	-0.579726	1.184250
H106	H	0.167860	-0.533530	1.184256
H107	H	0.096930	-0.760753	0.664356
H108	H	0.206895	-0.650521	0.443974
H109	H	0.693053	-0.506675	0.588146
O110	O	0.026073	-0.458020	0.432300
H111	H	0.066437	-0.457870	0.391758
H112	H	0.693242	-0.727072	0.697844
O113	O	-0.095620	0.013355	0.676440
H114	H	-0.124911	0.013356	0.659564
O115	O	0.100072	0.013356	0.675906
H116	H	0.146264	0.013352	0.658826
H117	H	-0.047187	-0.472851	1.184199
H118	H	0.693140	-0.726605	0.519802
H119	H	0.692924	-0.506199	0.410112
O120	O	-0.058463	-0.653783	1.184031
H121	H	-0.041377	-0.699970	1.183998
O122	O	0.185449	-0.775386	1.184190
H123	H	0.196395	-0.783865	1.143716
O124	O	0.049195	-0.471597	0.907887
H125	H	0.024433	-0.443097	0.875668
H126	H	0.288361	-0.530376	0.786177
O127	O	0.261393	-0.577715	0.907787
H128	H	0.289880	-0.552934	0.895786
O129	O	0.092403	-0.428293	0.742633
H130	H	0.063915	-0.387006	0.717844
O131	O	0.049088	-0.471584	0.699323
H132	H	0.024353	-0.443112	0.727825
H133	H	0.288283	-0.530335	0.640482
O134	O	0.261202	-0.577624	0.593201
H135	H	0.307428	-0.584617	0.586192
H136	H	0.295144	-0.575796	0.721768
H137	H	0.408481	-0.430137	0.613993
O138	O	0.416785	-0.629711	0.686294
H139	H	0.404776	-0.644780	0.664222
O140	O	0.286844	-0.376225	0.649474
H141	H	0.319067	-0.351816	0.625323
H142	H	0.204115	-0.271255	0.556464
O143	O	0.251443	-0.392907	0.583502
H144	H	0.226615	-0.380915	0.555049
O145	O	0.102135	-0.263015	0.752370
H146	H	0.060866	-0.275008	0.780850
O147	O	0.145444	-0.392943	0.795650
H148	H	0.116957	-0.360720	0.820402
