data_functionalizedCrystal
_audit_creation_method	'MofGen! by Chris Wilmer'
_symmetry_space_group_name_H-M	'P1'
_symmetry_Int_Tables_number	1
_symmetry_cell_setting	triclinic
loop_
_symmetry_equiv_pos_as_xyz
  x,y,z
_cell_length_a	6.817900
_cell_length_b	17.982959
_cell_length_c	19.453114
_cell_angle_alpha	96.125663
_cell_angle_beta	101.709288
_cell_angle_gamma	102.451857
loop_
_atom_site_label
_atom_site_type_symbol
_atom_site_fract_x
_atom_site_fract_y
_atom_site_fract_z
V1	V	-4.001683	-0.106207	-0.219294
O2	O	-3.994949	0.004287	-0.214818
O3	O	-3.948298	-0.209805	-0.218085
O4	O	-3.944659	-0.104931	-0.314804
O5	O	-3.998613	-0.101313	-0.117430
V6	V	-4.487074	-0.092948	-0.207075
O7	O	-4.258843	-0.135291	-0.246098
O8	O	-4.680111	-0.063864	-0.180272
O9	O	-4.317253	0.010650	-0.208285
O10	O	-4.611205	-0.203442	-0.211552
O11	O	-4.607541	-0.097842	-0.308940
O12	O	-4.320891	-0.094224	-0.111566
C13	C	-3.792365	-0.235049	-0.214700
C14	C	-3.829945	-0.319745	-0.214348
C15	C	-4.029200	-0.363428	-0.217697
C16	C	-4.064502	-0.443009	-0.217370
C17	C	-3.900543	-0.478904	-0.213689
C18	C	-3.701272	-0.435215	-0.210342
C19	C	-3.665976	-0.355636	-0.210674
C20	C	-3.843613	-0.756146	-0.209004
C21	C	-3.878925	-0.835730	-0.208670
C22	C	-4.242139	-0.843518	-0.215700
C23	C	-4.206843	-0.763939	-0.216032
C24	C	-4.007579	-0.720258	-0.212689
C25	C	-3.969304	-0.633968	-0.213045
C26	C	-3.938812	-0.565192	-0.213328
C27	C	-3.787723	-0.101271	-0.338074
C28	C	-3.822350	-0.100914	-0.416156
C29	C	-4.020216	-0.104570	-0.456423
C30	C	-4.052753	-0.104234	-0.529789
C31	C	-3.887420	-0.100258	-0.562886
C32	C	-3.689524	-0.096596	-0.522609
C33	C	-3.656989	-0.096924	-0.449244
N34	N	-3.825741	-0.140493	-0.681788
N35	N	-3.856661	-0.140184	-0.751482
C36	C	-3.985434	-0.099267	-0.783932
N37	N	-4.082155	-0.058682	-0.744056
N38	N	-4.051239	-0.058996	-0.674356
C39	C	-3.922678	-0.099901	-0.642439
C40	C	-4.218592	-0.102559	-0.903751
C41	C	-4.251119	-0.102218	-0.977117
C42	C	-3.887888	-0.094588	-0.969938
C43	C	-3.855363	-0.094921	-0.896572
C44	C	-4.020724	-0.098910	-0.863483
C45	C	-4.136528	0.035890	-0.211668
C46	C	-4.078185	0.120585	-0.212024
C47	C	-4.141170	-0.097886	-0.088292
C48	C	-4.085781	-0.098240	-0.010210
H49	H	-4.226752	-0.478573	-0.220098
C50	C	-4.406172	-0.176508	-0.568152
C51	C	-4.270267	-0.108274	-0.574073
H52	H	-4.540450	-0.179008	-0.595496
H53	H	-4.410481	-0.177262	-0.519729
H54	H	-4.359767	-0.219531	-0.585228
H55	H	-4.316665	-0.065250	-0.556992
H56	H	-4.265965	-0.107513	-0.622506
C57	C	-3.594091	-0.553742	-0.206705
C58	C	-3.521041	-0.474669	-0.206295
H59	H	-3.482814	-0.578095	-0.204200
H60	H	-3.696138	-0.575491	-0.249262
H61	H	-3.652834	-0.561265	-0.166923
H62	H	-3.462311	-0.467146	-0.246080
H63	H	-3.418957	-0.452913	-0.163733
C64	C	-4.604571	-0.174463	-1.015467
C65	C	-4.468631	-0.106235	-1.021382
H66	H	-4.738851	-0.176942	-1.042798
H67	H	-4.608851	-0.175227	-0.967042
H68	H	-4.558216	-0.217492	-1.032560
H69	H	-4.514978	-0.063206	-1.004284
H70	H	-4.464358	-0.105464	-1.069816
C71	C	-3.443595	-0.158746	-0.372251
C72	C	-3.439482	-0.092941	-0.404994
H73	H	-3.309316	-0.156292	-0.344934
H74	H	-3.486855	-0.203417	-0.407570
H75	H	-3.537384	-0.161147	-0.342032
H76	H	-3.345704	-0.090542	-0.435217
H77	H	-3.396196	-0.048258	-0.369670
C78	C	-4.426586	-0.173193	-0.835052
C79	C	-4.400341	-0.106934	-0.867373
H80	H	-4.538799	-0.175894	-0.812599
H81	H	-4.304097	-0.171063	-0.800572
H82	H	-4.454696	-0.217558	-0.870071
H83	H	-4.372216	-0.062568	-0.832353
H84	H	-4.522859	-0.109057	-0.901856
H85	H	-4.340357	-0.734717	-0.219026
H86	H	-3.753266	-0.091343	-0.996884
H87	H	-3.694244	-0.091951	-0.863786
H88	H	-4.162716	-0.334207	-0.220687
C89	C	-3.447493	-0.272108	-0.267660
C90	C	-3.446946	-0.307617	-0.206992
H91	H	-3.312266	-0.242469	-0.265389
H92	H	-3.540074	-0.239345	-0.269894
H93	H	-3.490478	-0.310433	-0.308840
H94	H	-3.403975	-0.269292	-0.165811
H95	H	-3.354334	-0.340383	-0.204750
C96	C	-4.460634	-0.927053	-0.158718
C97	C	-4.461184	-0.891536	-0.219382
H98	H	-4.595857	-0.956699	-0.160993
H99	H	-4.417656	-0.888738	-0.117539
H100	H	-4.368037	-0.959819	-0.156489
H101	H	-4.553770	-0.858765	-0.221608
H102	H	-4.504189	-0.929856	-0.260572
H103	H	-3.681363	-0.720589	-0.206278
H104	H	-3.745400	-0.864953	-0.205678
H105	H	-3.554909	-0.093356	-0.549562
H106	H	-4.154868	-0.107815	-0.429487
