data_functionalizedCrystal
_audit_creation_method	'MofGen! by Chris Wilmer'
_symmetry_space_group_name_H-M	'P1'
_symmetry_Int_Tables_number	1
_symmetry_cell_setting	triclinic
loop_
_symmetry_equiv_pos_as_xyz
  x,y,z
_cell_length_a	14.853566
_cell_length_b	17.019294
_cell_length_c	13.330367
_cell_angle_alpha	86.116384
_cell_angle_beta	89.995295
_cell_angle_gamma	83.514243
loop_
_atom_site_label
_atom_site_type_symbol
_atom_site_fract_x
_atom_site_fract_y
_atom_site_fract_z
O1	O	1.196090	0.102985	-0.092252
O2	O	0.933597	0.115254	-0.093328
O3	O	1.072166	-0.005705	-0.082866
O4	O	1.057522	0.223944	-0.102715
O5	O	1.072146	-0.005708	0.083982
O6	O	0.933577	0.115252	0.073519
O7	O	1.196070	0.102982	0.074595
Cu8	Cu	1.064822	0.109117	0.089292
Cu9	Cu	1.064846	0.109120	-0.108025
O10	O	1.057502	0.223942	0.064133
C11	C	0.900000	0.114697	-0.009859
C12	C	0.799921	0.113032	-0.009721
C13	C	0.376766	0.105989	-0.100043
C14	C	0.376765	0.105987	0.081860
C15	C	0.470795	0.107550	0.081722
C16	C	0.517815	0.108335	-0.009300
C17	C	0.470804	0.107555	-0.100184
C18	C	0.517812	0.108338	0.172604
C19	C	0.611847	0.109903	0.172469
C20	C	0.658869	0.110682	0.081446
C21	C	0.611853	0.109901	-0.009441
C22	C	0.658872	0.110686	-0.100464
C23	C	0.611859	0.109900	-0.191352
C24	C	0.517826	0.108334	-0.191207
C25	C	0.752901	0.112247	0.081301
C26	C	0.752910	0.112252	-0.100605
C27	C	1.071600	-0.035096	0.003096
C28	C	1.069934	-0.122669	0.010658
C29	C	1.069164	-0.163804	-0.076737
C30	C	1.067593	-0.246087	-0.069629
C31	C	1.066797	-0.287233	0.024876
C32	C	1.067565	-0.246092	0.112278
C33	C	1.069130	-0.163810	0.105168
C34	C	1.062066	-0.535671	0.050892
C35	C	1.060503	-0.617959	0.057995
C36	C	1.060530	-0.617949	-0.123912
C37	C	1.062100	-0.535666	-0.131013
C38	C	1.062862	-0.494531	-0.043611
C39	C	1.065194	-0.371340	0.032144
C40	C	1.064459	-0.410425	-0.050881
C41	C	1.229667	0.103539	-0.008876
C42	C	1.329747	0.105205	-0.009021
C43	C	1.058067	0.253333	-0.021831
C44	C	1.059733	0.340905	-0.029400
N45	N	1.064812	0.109114	0.228073
N46	N	1.064863	0.109116	-0.246806
C47	C	1.003485	0.162660	0.696065
C48	C	1.126231	0.055574	0.705295
C49	C	1.126220	0.055571	0.600277
C50	C	1.064842	0.109115	0.543148
C51	C	1.003474	0.162660	0.591037
C52	C	1.187593	0.002032	0.552380
C53	C	1.187586	0.002028	0.447356
C54	C	1.126203	0.055568	0.390225
C55	C	1.064832	0.109115	0.438120
C56	C	1.003454	0.162659	0.380990
C57	C	0.942078	0.216203	0.428884
C58	C	0.942091	0.216201	0.533906
C59	C	1.126190	0.055571	0.285203
C60	C	1.003444	0.162660	0.275962
H61	H	0.338484	0.105346	-0.174042
C62	C	0.804612	0.113113	0.181272
N63	N	0.843560	0.113762	0.256576
C64	C	1.059681	-0.663203	-0.220047
N65	N	1.059037	-0.697288	-0.292460
H66	H	0.953511	0.206253	0.735063
C67	C	0.935944	0.221583	0.213126
N68	N	0.885113	0.265972	0.165798
C69	C	1.255094	-0.056877	0.394683
N70	N	1.305937	-0.101248	0.355009
C71	C	0.874565	0.275099	0.366028
N72	N	0.823715	0.319458	0.318681
H73	H	0.892122	0.259795	0.572907
H74	H	1.069744	-0.130317	0.176335
C75	C	0.466104	0.107475	-0.291176
N76	N	0.427142	0.106830	-0.366471
H77	H	1.064550	-0.404851	0.109091
C78	C	1.255104	-0.056861	0.615228
N79	N	1.305954	-0.101224	0.662570
C80	C	1.193743	-0.003320	0.768141
N81	N	1.244594	-0.047683	0.815481
C82	C	1.065339	-0.365162	-0.154833
N83	N	1.066008	-0.331064	-0.233130
C84	C	1.193700	-0.003324	0.232525
N85	N	1.244550	-0.047688	0.192849
C86	C	0.325041	0.105127	0.181979
N87	N	0.286078	0.104477	0.257392
C88	C	1.062908	-0.490434	0.147038
N89	N	1.063544	-0.456358	0.219459
H90	H	0.650118	0.110541	0.246476
C91	C	0.804624	0.113112	-0.200739
N92	N	0.843575	0.113760	-0.276160
H93	H	0.479521	0.107705	0.246709
C94	C	0.663592	0.110763	-0.291474
N95	N	0.702561	0.111412	-0.366883
H96	H	1.069816	-0.130309	-0.153693
H97	H	1.066970	-0.279576	-0.140795
H98	H	1.059851	-0.651458	0.134956
C99	C	1.062975	-0.490411	-0.234975
N100	N	1.063637	-0.456326	-0.313282
H101	H	1.066912	-0.279599	0.189226
