data_functionalizedCrystal
_audit_creation_method	'MofGen! by Chris Wilmer'
_symmetry_space_group_name_H-M	'P1'
_symmetry_Int_Tables_number	1
_symmetry_cell_setting	triclinic
loop_
_symmetry_equiv_pos_as_xyz
  x,y,z
_cell_length_a	10.686220
_cell_length_b	12.594516
_cell_length_c	10.685880
_cell_angle_alpha	94.341733
_cell_angle_beta	89.641569
_cell_angle_gamma	94.397503
loop_
_atom_site_label
_atom_site_type_symbol
_atom_site_fract_x
_atom_site_fract_y
_atom_site_fract_z
Zn1	Zn	1.972249	-0.332254	-0.562388
Zn2	Zn	1.956029	-0.497766	-0.352643
Zn3	Zn	1.746379	-0.334424	-0.368710
Zn4	Zn	1.762446	-0.524820	-0.578416
O5	O	1.859276	-0.422316	-0.465539
O6	O	2.145641	-0.341980	-0.521133
O7	O	1.914706	-0.465684	-0.179233
O8	O	1.776405	-0.185187	-0.394419
O9	O	2.133723	-0.463580	-0.367034
O10	O	1.942351	-0.183593	-0.536713
O11	O	1.760677	-0.345677	-0.191038
O12	O	1.572967	-0.371910	-0.409961
O13	O	1.803789	-0.509690	-0.751831
O14	O	1.584772	-0.511794	-0.564030
O15	O	1.957931	-0.368213	-0.740056
O16	O	1.930285	-0.650304	-0.382576
O17	O	1.788061	-0.670180	-0.548450
C18	C	1.533353	-0.445024	-0.490479
C19	C	1.393924	-0.454766	-0.501178
C20	C	1.859193	-0.698862	-0.465533
C21	C	1.859275	-0.817164	-0.465564
C22	C	1.781906	-0.897264	-0.555725
C23	C	1.742561	-0.963435	-0.443599
C24	C	1.898736	-0.961785	-0.577700
C25	C	1.819864	-0.881778	-0.353383
C26	C	1.976099	-0.880122	-0.487556
C27	C	1.936791	-0.946254	-0.375349
C28	C	2.186471	-0.399520	-0.440503
C29	C	2.325902	-0.389806	-0.429834
C30	C	1.884462	-0.441728	-0.792732
C31	C	1.895194	-0.450000	-0.932162
C32	C	1.859395	-0.144689	-0.465570
C33	C	1.859447	-0.026381	-0.465583
C34	C	1.834260	-0.402898	-0.139614
C35	C	1.823770	-0.394309	-0.000166
H36	H	1.643845	-0.999850	-0.425017
H37	H	1.374333	-0.326739	-0.360567
O38	O	1.335955	-0.529927	-0.583791
C39	C	1.204976	-0.523268	-0.576426
H40	H	1.184054	-0.439874	-0.536850
H41	H	1.162620	-0.584916	-0.512321
C42	C	1.173076	-0.647799	-0.757045
C43	C	1.147379	-0.545369	-0.708447
H44	H	1.137545	-0.661436	-0.838480
H45	H	1.261318	-0.652288	-0.762005
H46	H	1.137778	-0.699160	-0.703613
H47	H	1.182690	-0.494010	-0.761871
H48	H	1.059141	-0.540872	-0.703500
H49	H	1.786444	-0.846921	-0.258540
H50	H	1.716344	-0.875397	-0.631878
H51	H	2.002286	-0.967918	-0.299029
O52	O	1.740909	-0.329863	-0.942582
C53	C	1.676682	-0.279723	-1.033797
H54	H	1.679436	-0.329099	-1.127560
H55	H	1.723711	-0.196497	-1.044176
C56	C	1.535892	-0.210036	-0.877596
C57	C	1.539266	-0.270686	-0.992755
H58	H	1.451129	-0.204456	-0.852279
H59	H	1.579166	-0.243812	-0.816141
H60	H	1.575090	-0.140687	-0.886260
H61	H	1.500083	-0.340036	-0.984086
H62	H	1.495982	-0.236921	-1.054208
O63	O	1.978098	-0.514276	-0.989997
C64	C	2.064897	-0.452477	-1.059617
H65	H	2.069661	-0.365785	-1.019474
H66	H	2.033675	-0.457338	-1.161845
C67	C	2.189599	-0.601989	-1.101103
C68	C	2.195458	-0.495514	-1.051792
H69	H	2.270135	-0.628538	-1.096282
H70	H	2.131119	-0.643626	-1.054203
H71	H	2.163575	-0.606026	-1.186289
H72	H	2.221466	-0.491480	-0.966604
H73	H	2.253946	-0.453877	-1.098677
O74	O	2.093907	-0.836858	-0.509859
C75	C	2.176470	-0.918900	-0.526602
H76	H	2.120885	-0.997420	-0.556918
H77	H	2.226813	-0.927149	-0.434492
C78	C	2.342010	-0.794867	-0.591132
C79	C	2.273740	-0.891305	-0.628377
H80	H	2.402014	-0.777844	-0.653907
H81	H	2.286388	-0.739592	-0.579847
H82	H	2.383951	-0.801754	-0.514373
H83	H	2.231787	-0.884412	-0.705126
H84	H	2.329357	-0.946577	-0.639677
H85	H	1.932043	-0.996776	-0.672524
