data_functionalizedCrystal
_audit_creation_method	'MofGen! by Chris Wilmer'
_symmetry_space_group_name_H-M	'P1'
_symmetry_Int_Tables_number	1
_symmetry_cell_setting	triclinic
loop_
_symmetry_equiv_pos_as_xyz
  x,y,z
_cell_length_a	10.654541
_cell_length_b	14.750779
_cell_length_c	15.712078
_cell_angle_alpha	73.497420
_cell_angle_beta	77.967461
_cell_angle_gamma	77.232485
loop_
_atom_site_label
_atom_site_type_symbol
_atom_site_fract_x
_atom_site_fract_y
_atom_site_fract_z
O1	O	1.703529	0.079794	-0.140363
O2	O	1.343230	0.079802	-0.151966
O3	O	1.475448	0.079794	-0.020049
O4	O	1.571310	0.079802	-0.272280
O5	O	1.512827	-0.079858	0.017239
O6	O	1.380608	-0.079850	-0.114678
O7	O	1.740907	-0.079858	-0.103076
Zn8	Zn	1.566692	-0.105203	-0.102957
Zn9	Zn	1.517445	0.105147	-0.152085
O10	O	1.608688	-0.079850	-0.234993
C11	C	1.314740	-0.000023	-0.132471
C12	C	1.174158	-0.000020	-0.129925
N13	N	1.600311	-0.248760	-0.069428
C14	C	1.216645	-0.000003	-0.287669
C15	C	1.171843	0.000009	-0.365342
C16	C	1.039753	0.000010	-0.362943
C17	C	0.952461	-0.000004	-0.282863
C18	C	0.997264	-0.000016	-0.205190
C19	C	1.129358	-0.000014	-0.207598
C20	C	0.954779	-0.000040	-0.047446
C21	C	1.086866	-0.000034	-0.049844
C22	C	0.867487	-0.000054	0.032634
C23	C	0.912287	-0.000060	0.110307
C24	C	1.044385	-0.000059	0.107905
C25	C	1.131669	-0.000046	0.027829
C26	C	1.389921	-0.600566	-0.279209
C27	C	1.413491	-0.701066	-0.255720
C28	C	1.530626	-0.701036	-0.138951
C29	C	1.507060	-0.600534	-0.162427
C30	C	1.436708	-0.550306	-0.232558
C31	C	1.553847	-0.550274	-0.115776
C32	C	1.530289	-0.449780	-0.139254
C33	C	1.459943	-0.399546	-0.209383
C34	C	1.413150	-0.449813	-0.256036
C35	C	1.624207	-0.600503	-0.045650
C36	C	1.670994	-0.550243	0.001001
C37	C	1.647428	-0.449748	-0.022473
C38	C	1.577082	-0.399514	-0.092602
C39	C	1.694221	-0.399481	0.024180
C40	C	1.670663	-0.298987	0.000702
C41	C	1.553524	-0.299020	-0.116079
C42	C	1.769396	-0.000031	-0.122571
C43	C	1.909976	-0.000028	-0.125119
C44	C	1.478476	-0.000031	0.030892
C45	C	1.431796	-0.000027	0.127125
N46	N	1.483832	0.248704	-0.185606
C47	C	1.605660	-0.000023	-0.285934
C48	C	1.652339	-0.000020	-0.382169
C49	C	1.828116	-0.000027	0.491848
C50	C	1.784224	-0.000026	0.582273
C51	C	1.564294	-0.000021	0.562972
C52	C	1.608168	-0.000026	0.472546
C53	C	1.740080	-0.000028	0.436991
C54	C	1.520133	-0.000027	0.417688
C55	C	1.564003	-0.000027	0.327268
C56	C	1.695909	-0.000026	0.291706
C57	C	1.783951	-0.000028	0.346571
C58	C	1.388220	-0.000018	0.453243
C59	C	1.300184	-0.000019	0.398386
C60	C	1.344056	-0.000027	0.307966
C61	C	1.475961	-0.000026	0.272403
C62	C	1.256014	-0.000025	0.253100
C63	C	1.299884	-0.000025	0.162680
C64	C	1.519832	-0.000026	0.181983
H65	H	1.324197	0.000017	-0.289635
H66	H	1.935534	-0.000038	0.462900
H67	H	1.855923	-0.000019	0.626935
C68	C	1.155087	-0.000028	0.437510
N69	N	1.045798	-0.000042	0.466978
H70	H	1.456889	-0.000015	0.591933
H71	H	1.242931	0.000018	-0.430541
H72	H	1.375386	-0.741983	-0.293716
H73	H	1.228197	-0.000028	0.118014
H74	H	1.440768	-0.317717	-0.228501
H75	H	1.355851	-0.408916	-0.313136
H76	H	1.003279	0.000013	-0.426190
H77	H	1.239223	-0.000035	0.025863
H78	H	1.751513	-0.440389	0.081275
C79	C	1.722127	-0.243699	0.052023
N80	N	1.760894	-0.202055	0.090678
H81	H	0.844912	-0.000015	-0.280914
C82	C	1.608006	-0.756297	-0.061807
N83	N	1.666284	-0.797919	-0.003697
H84	H	1.080854	-0.000073	0.171158
H85	H	0.841205	-0.000070	0.175502
C86	C	1.748374	-0.605505	0.078145
N87	N	1.806653	-0.647127	0.136254
H88	H	1.496225	-0.258123	-0.173180
C89	C	1.339964	-0.000016	0.552709
N90	N	1.303620	-0.000015	0.627626
C91	C	1.744168	-0.000028	0.192240
N92	N	1.780516	-0.000032	0.117323
C93	C	1.929062	-0.000035	0.307457
N94	N	2.038355	-0.000036	0.277995
H95	H	1.627250	-0.000038	0.153035
H96	H	1.148608	-0.000014	0.282061
H97	H	0.759935	-0.000059	0.034583
H98	H	1.332621	-0.559669	-0.336310
H99	H	1.643390	-0.682332	-0.026541
