data_functionalizedCrystal
_audit_creation_method	'MofGen! by Chris Wilmer'
_symmetry_space_group_name_H-M	'P1'
_symmetry_Int_Tables_number	1
_symmetry_cell_setting	triclinic
loop_
_symmetry_equiv_pos_as_xyz
  x,y,z
_cell_length_a	17.038272
_cell_length_b	17.000371
_cell_length_c	16.098524
_cell_angle_alpha	93.245923
_cell_angle_beta	92.870584
_cell_angle_gamma	83.355402
loop_
_atom_site_label
_atom_site_type_symbol
_atom_site_fract_x
_atom_site_fract_y
_atom_site_fract_z
O1	O	1.028469	0.175408	0.069154
O2	O	1.528469	0.675408	0.569154
O3	O	0.801026	0.172677	0.069179
O4	O	1.301026	0.672677	0.569179
O5	O	0.928869	0.059132	0.069159
O6	O	1.428869	0.559132	0.569159
O7	O	0.900625	0.288953	0.069174
O8	O	1.400625	0.788953	0.569174
O9	O	0.923081	0.052383	-0.069354
O10	O	1.423081	0.552383	0.430646
O11	O	0.795238	0.165928	-0.069334
O12	O	1.295238	0.665928	0.430666
O13	O	1.022680	0.168659	-0.069359
O14	O	1.522680	0.668659	0.430641
Zn15	Zn	0.908040	0.166222	-0.091338
Zn16	Zn	1.408040	0.666222	0.408662
Zn17	Zn	0.915666	0.175114	0.091159
Zn18	Zn	1.415666	0.675114	0.591159
O19	O	0.894837	0.282204	-0.069339
O20	O	1.394837	0.782204	0.430661
C21	C	0.769174	0.166818	-0.000075
C22	C	1.269174	0.666818	0.499925
C23	C	0.682889	0.159406	-0.000065
C24	C	1.182889	0.659406	0.499935
C25	C	0.927492	0.026206	-0.000097
C26	C	1.427492	0.526206	0.499903
C27	C	0.932004	-0.061847	-0.000097
C28	C	1.432004	0.438153	0.499903
C29	C	0.862582	-0.098572	-0.000086
C30	C	1.362582	0.401428	0.499914
C31	C	0.866826	-0.181308	-0.000088
C32	C	1.366826	0.318692	0.499912
C33	C	0.940491	-0.227316	-0.000096
C34	C	1.440491	0.272684	0.499904
C35	C	1.009918	-0.190585	-0.000110
C36	C	1.509918	0.309415	0.499890
C37	C	1.005673	-0.107851	-0.000113
C38	C	1.505673	0.392149	0.499887
C39	C	0.956885	-0.477352	-0.000092
C40	C	1.456885	0.022648	0.499908
C41	C	0.961124	-0.560091	-0.000087
C42	C	1.461124	-0.060091	0.499913
C43	C	0.818032	-0.550809	-0.000067
C44	C	1.318032	-0.050809	0.499933
C45	C	0.813794	-0.468073	-0.000065
C46	C	1.313794	0.031927	0.499935
C47	C	0.883220	-0.431350	-0.000083
C48	C	1.383220	0.068650	0.499917
C49	C	0.944830	-0.311886	-0.000096
C50	C	1.444830	0.188114	0.499904
C51	C	0.878880	-0.346782	-0.000089
C52	C	1.378880	0.153218	0.499911
C53	C	0.628114	0.227464	-0.000062
C54	C	1.128114	0.727464	0.499938
C55	C	0.547040	0.220494	-0.000074
C56	C	1.047040	0.720494	0.499926
C57	C	0.520744	0.145464	-0.000083
C58	C	1.020744	0.645464	0.499917
C59	C	0.575526	0.077401	-0.000090
C60	C	1.075526	0.577401	0.499910
C61	C	0.656597	0.084371	-0.000084
C62	C	1.156597	0.584371	0.499916
C63	C	0.276671	0.120837	-0.000107
C64	C	0.776671	0.620837	0.499893
C65	C	0.195593	0.113872	-0.000111
C66	C	0.695593	0.613872	0.499889
C67	C	0.167113	0.256966	-0.000096
C68	C	0.667113	0.756966	0.499904
C69	C	0.248188	0.263930	-0.000085
C70	C	0.748188	0.763930	0.499915
C71	C	0.302962	0.195866	-0.000096
C72	C	0.802962	0.695866	0.499904
C73	C	0.437874	0.138338	-0.000093
C74	C	0.937874	0.638338	0.499907
C75	C	0.385830	0.202993	-0.000092
C76	C	0.885830	0.702993	0.499908
C77	C	1.054532	0.174518	-0.000103
C78	C	1.554532	0.674518	0.499897
C79	C	1.140818	0.181930	-0.000107
C80	C	1.640818	0.681930	0.499893
C81	C	0.896214	0.315129	-0.000081
C82	C	1.396214	0.815129	0.499919
C83	C	0.891703	0.403183	-0.000076
C84	C	1.391703	0.903183	0.499924
N85	N	0.902841	0.160153	-0.215888
N86	N	1.402841	0.660153	0.284112
C87	C	0.944914	0.209306	-0.259471
C88	C	1.444914	0.709306	0.240529
C89	C	0.941288	0.205056	-0.346660
C90	C	1.441288	0.705056	0.153340
C91	C	0.895584	0.151656	-0.390264
C92	C	1.395584	0.651656	0.109736
C93	C	0.853510	0.102498	-0.346675
C94	C	1.353510	0.602498	0.153325
C95	C	0.857141	0.106744	-0.259487
C96	C	1.357141	0.606744	0.240513
C97	C	0.882429	0.136265	-0.653515
C98	C	1.382429	0.636265	-0.153515
C99	C	0.878799	0.132024	-0.740708
C100	C	1.378799	0.632024	-0.240708
C101	C	0.966578	0.234582	-0.740688
C102	C	1.466578	0.734582	-0.240688
C103	C	0.970202	0.238827	-0.653499
C104	C	1.470202	0.738827	-0.153499
C105	C	0.928131	0.189666	-0.609917
C106	C	1.428131	0.689666	-0.109917
C107	C	0.891874	0.147312	-0.479386
C108	C	1.391874	0.647312	0.020614
C109	C	0.931845	0.194006	-0.520797
C110	C	1.431845	0.694006	-0.020797
N111	N	0.920872	0.181177	0.215708
N112	N	1.420872	0.681177	0.715708
H113	H	0.802596	-0.061118	-0.000075
H114	H	1.302596	0.438882	0.499925
H115	H	0.753808	-0.430618	-0.000056
H116	H	1.253808	0.069382	0.499944
H117	H	0.848172	0.096234	-0.618041
H118	H	1.348172	0.596234	-0.118041
H119	H	0.174187	0.052771	-0.000118
H120	H	0.674187	0.552771	0.499882
F121	F	0.993556	0.266143	-0.213073
F122	F	1.493556	0.766143	0.286927
F123	F	0.986066	0.257373	-0.393042
F124	F	1.486066	0.757373	0.106958
F125	F	0.744149	-0.589899	-0.000048
F126	F	1.244149	-0.089899	0.499952
F127	F	1.088318	-0.239553	-0.000127
F128	F	1.588318	0.260447	0.499873
H129	H	0.841578	0.088539	-0.776208
H130	H	1.341578	0.588539	-0.276208
F131	F	0.792937	-0.220391	-0.000075
F132	F	1.292937	0.279609	0.499925
H133	H	0.816301	0.059015	-0.382184
H134	H	1.316301	0.559015	0.117816
F135	F	1.018818	0.295687	-0.607099
F136	F	1.518818	0.795687	-0.107099
H137	H	0.701196	0.028951	-0.000086
H138	H	1.201196	0.528951	0.499914
F139	F	1.030776	-0.438277	-0.000089
F140	F	1.530776	0.061723	0.499911
H141	H	1.021115	-0.597550	-0.000088
H142	H	1.521115	-0.097550	0.499912
F143	F	1.079561	-0.068766	-0.000132
F144	F	1.579561	0.431234	0.499868
F145	F	0.812368	0.054423	-0.213103
F146	F	1.312368	0.554423	0.286897
H147	H	0.818902	-0.309319	-0.000087
H148	H	1.318902	0.190681	0.499913
F149	F	0.334957	0.048397	-0.000118
F150	F	0.834957	0.548397	0.499882
H151	H	0.854662	0.103834	-0.514898
H152	H	1.354662	0.603834	-0.014898
H153	H	1.000830	0.274605	-0.776182
H154	H	1.500830	0.774605	-0.276182
H155	H	0.649517	0.288561	-0.000053
H156	H	1.149517	0.788561	0.499947
F157	F	1.023229	-0.360858	-0.000108
F158	F	1.523229	0.139142	0.499892
F159	F	0.488747	0.292932	-0.000066
F160	F	0.988747	0.792932	0.499934
F161	F	0.409880	0.058488	-0.000100
F162	F	0.909880	0.558488	0.499900
H163	H	0.969060	0.237481	-0.485291
H164	H	1.469060	0.737481	0.014709
H165	H	0.269591	0.325028	-0.000068
H166	H	0.769591	0.825028	0.499932
F167	F	0.108813	0.329399	-0.000087
F168	F	0.608813	0.829399	0.499913
F169	F	0.547537	-0.002452	-0.000105
F170	F	1.047537	0.497548	0.499895
F171	F	0.413819	0.282842	-0.000085
F172	F	0.913819	0.782842	0.499915
