data_functionalizedCrystal
_audit_creation_method	'MofGen! by Chris Wilmer'
_symmetry_space_group_name_H-M	'P1'
_symmetry_Int_Tables_number	1
_symmetry_cell_setting	triclinic
loop_
_symmetry_equiv_pos_as_xyz
  x,y,z
_cell_length_a	6.817900
_cell_length_b	15.301126
_cell_length_c	17.982968
_cell_angle_alpha	95.457424
_cell_angle_beta	102.451960
_cell_angle_gamma	104.177575
loop_
_atom_site_label
_atom_site_type_symbol
_atom_site_fract_x
_atom_site_fract_y
_atom_site_fract_z
V1	V	-4.018572	-0.125604	-0.237782
O2	O	-4.002678	0.005167	-0.233017
O3	O	-3.973572	-0.248216	-0.236384
O4	O	-3.965036	-0.124054	-0.341382
O5	O	-4.011273	-0.119856	-0.127293
V6	V	-4.502425	-0.109917	-0.224538
O7	O	-4.279107	-0.160014	-0.266832
O8	O	-4.692088	-0.075507	-0.195488
O9	O	-4.324219	0.012694	-0.225935
O10	O	-4.635716	-0.240688	-0.229303
O11	O	-4.627121	-0.115666	-0.335027
O12	O	-4.332754	-0.111468	-0.120938
C13	C	-3.819566	-0.278094	-0.232693
C14	C	-3.864025	-0.378334	-0.232241
C15	C	-3.808677	-0.119712	-0.366626
C16	C	-3.846212	-0.119255	-0.451321
C17	C	-4.066961	-0.430033	-0.235837
C18	C	-4.108726	-0.524219	-0.235417
C19	C	-3.947550	-0.566703	-0.231395
C20	C	-3.744598	-0.514998	-0.227801
C21	C	-3.702839	-0.420814	-0.228226
C22	C	-3.831649	-0.711305	-0.226912
C23	C	-3.873410	-0.805495	-0.226485
C24	C	-4.237536	-0.814710	-0.234104
C25	C	-4.195777	-0.720526	-0.234529
C26	C	-3.992827	-0.668827	-0.230933
C27	C	-4.045891	-0.123559	-0.495001
C28	C	-4.081147	-0.123129	-0.574581
C29	C	-3.916724	-0.118402	-0.610480
C30	C	-3.717027	-0.114095	-0.566794
C31	C	-3.681770	-0.114518	-0.487215
C32	C	-3.859207	-0.112388	-0.887728
C33	C	-3.894481	-0.111968	-0.967314
C34	C	-4.258583	-0.120999	-0.975094
C35	C	-4.223327	-0.121422	-0.895515
C36	C	-4.023632	-0.117110	-0.851835
C37	C	-3.985405	-0.117574	-0.765545
C38	C	-3.954951	-0.117945	-0.696769
C39	C	-4.141567	0.042568	-0.229625
C40	C	-4.076345	0.142806	-0.230082
C41	C	-4.152456	-0.115813	-0.095690
C42	C	-4.094160	-0.116265	-0.010994
H43	H	-4.198211	-0.395448	-0.239105
H44	H	-3.613371	-0.549597	-0.224531
Br45	Br	-3.427420	-0.350652	-0.223353
H46	H	-3.583150	-0.110241	-0.596029
H47	H	-4.273973	-0.566308	-0.238347
Br48	Br	-4.414507	-0.662865	-0.239965
Br49	Br	-4.269059	-0.129984	-0.446289
H50	H	-3.519162	-0.110991	-0.451649
H51	H	-4.243740	-0.126629	-0.610141
Br52	Br	-4.512970	-0.884872	-0.238988
H53	H	-3.742175	-0.840087	-0.223233
H54	H	-3.666393	-0.669215	-0.223990
H55	H	-4.357223	-0.125276	-0.866290
Br56	Br	-4.529605	-0.126849	-1.034377
Br57	Br	-3.671319	-0.105553	-1.016034
H58	H	-3.696624	-0.108909	-0.852178
