data_functionalizedCrystal
_audit_creation_method	'MofGen! by Chris Wilmer'
_symmetry_space_group_name_H-M	'P1'
_symmetry_Int_Tables_number	1
_symmetry_cell_setting	triclinic
loop_
_symmetry_equiv_pos_as_xyz
  x,y,z
_cell_length_a	10.686220
_cell_length_b	18.215405
_cell_length_c	18.215399
_cell_angle_alpha	90.030551
_cell_angle_beta	85.648888
_cell_angle_gamma	94.406955
loop_
_atom_site_label
_atom_site_type_symbol
_atom_site_fract_x
_atom_site_fract_y
_atom_site_fract_z
Zn1	Zn	1.929037	-0.206568	0.329900
Zn2	Zn	2.429037	0.293432	0.829900
Zn3	Zn	1.928880	-0.329646	0.206835
Zn4	Zn	2.428880	0.170354	0.706835
Zn5	Zn	1.718027	-0.216044	0.216277
Zn6	Zn	2.218027	0.283956	0.716277
Zn7	Zn	1.717968	-0.339053	0.339285
Zn8	Zn	2.217968	0.160947	0.839285
O9	O	1.823478	-0.272828	0.273074
O10	O	2.323478	0.227172	0.773074
O11	O	2.105592	-0.214991	0.305696
O12	O	2.605592	0.285009	0.805696
O13	O	1.900868	-0.314606	0.105105
O14	O	2.400868	0.185394	0.605105
O15	O	1.746108	-0.111799	0.231373
O16	O	2.246108	0.388201	0.731373
O17	O	2.105476	-0.305416	0.215281
O18	O	2.605476	0.194584	0.715281
O19	O	1.901136	-0.104836	0.314851
O20	O	2.401136	0.395164	0.814851
O21	O	1.745956	-0.231143	0.112042
O22	O	2.245956	0.268857	0.612042
O23	O	1.541443	-0.240265	0.240473
O24	O	2.041443	0.259735	0.740473
O25	O	1.746008	-0.321450	0.441023
O26	O	2.246008	0.178550	0.941023
O27	O	1.541400	-0.330639	0.330847
O28	O	2.041400	0.169361	0.830847
O29	O	1.901079	-0.224113	0.434128
O30	O	2.401079	0.275887	0.934128
O31	O	1.900812	-0.433882	0.224381
O32	O	2.400812	0.066118	0.724381
O33	O	1.745856	-0.440794	0.321692
O34	O	2.245856	0.059206	0.821692
C35	C	1.823345	-0.464040	0.273045
C36	C	2.323345	0.035960	0.773045
C37	C	1.823403	-0.545836	0.273052
C38	C	2.323403	-0.045836	0.773052
C39	C	1.495638	-0.287502	0.287703
C40	C	1.995638	0.212498	0.787703
C41	C	1.355386	-0.293797	0.293979
C42	C	1.855386	0.206203	0.793979
C43	C	1.904278	-0.730398	0.222460
C44	C	2.404278	-0.230398	0.722460
C45	C	1.904334	-0.807255	0.222476
C46	C	2.404334	-0.307255	0.722476
C47	C	1.742839	-0.814498	0.323734
C48	C	2.242839	-0.314498	0.823734
C49	C	1.742790	-0.737643	0.323722
C50	C	2.242790	-0.237643	0.823722
C51	C	1.823508	-0.695595	0.273081
C52	C	2.323508	-0.195595	0.773081
C53	C	1.823613	-0.849306	0.273108
C54	C	2.323613	-0.349306	0.773108
C55	C	1.823674	-0.932637	0.273125
C56	C	2.323674	-0.432637	0.773125
C57	C	1.823449	-0.612259	0.273064
C58	C	2.323449	-0.112259	0.773064
C59	C	2.152598	-0.258097	0.258389
C60	C	2.652598	0.241903	0.758389
C61	C	2.292850	-0.251820	0.252130
C62	C	2.792850	0.248180	0.752130
C63	C	1.823555	-0.272774	0.465024
C64	C	2.323555	0.227226	0.965024
C65	C	1.823588	-0.272751	0.546821
C66	C	2.323588	0.227249	1.046821
C67	C	1.823646	-0.080867	0.273119
C68	C	2.323646	0.419133	0.773119
C69	C	1.823718	0.000935	0.273137
C70	C	2.323718	0.500935	0.773137
C71	C	1.823474	-0.272825	0.081868
C72	C	2.323474	0.227175	0.581868
C73	C	1.823686	-0.272630	0.000060
C74	C	2.323686	0.227370	0.500060
C75	C	1.904362	-0.222022	0.731425
C76	C	2.404362	0.277978	1.231425
C77	C	1.904377	-0.222000	0.808283
C78	C	2.404377	0.278000	1.308283
C79	C	1.742902	-0.323361	0.815452
C80	C	2.242902	0.176639	1.315452
C81	C	1.742882	-0.323379	0.738595
C82	C	2.242882	0.176621	1.238595
C83	C	1.823619	-0.272711	0.696584
C84	C	2.323619	0.227289	1.196584
C85	C	1.823654	-0.272670	0.850298
C86	C	2.323654	0.227330	1.350298
C87	C	1.823670	-0.272647	0.933631
C88	C	2.323670	0.227353	1.433631
C89	C	1.823602	-0.272733	0.613245
C90	C	2.323602	0.227267	1.113245
H91	H	1.970005	-0.696165	0.181227
H92	H	2.470005	-0.196165	0.681227
H93	H	1.677017	-0.709304	0.364946
H94	H	2.177017	-0.209304	0.864946
C95	C	1.441142	-0.234889	0.146603
C96	C	1.941142	0.265111	0.646603
C97	C	1.365415	-0.196799	0.197282
C98	C	1.865415	0.303201	0.697282
H99	H	1.485951	-0.200919	0.112745
H100	H	1.985951	0.299081	0.612745
H101	H	1.389690	-0.269191	0.120671
H102	H	1.889690	0.230809	0.620671
H103	H	1.499157	-0.260378	0.172026
H104	H	1.999157	0.239622	0.672026
H105	H	1.307393	-0.171314	0.171860
H106	H	1.807393	0.328686	0.671860
H107	H	1.416871	-0.162484	0.223217
H108	H	1.916871	0.337516	0.723217
C109	C	2.063944	-0.792371	0.122379
C110	C	2.563944	-0.292371	0.622379
C111	C	1.993114	-0.845511	0.166829
C112	C	2.493114	-0.345511	0.666829
H113	H	2.118750	-0.815990	0.088022
H114	H	2.618750	-0.315990	0.588022
H115	H	2.112156	-0.760189	0.152309
H116	H	2.612156	-0.260189	0.652309
H117	H	2.008959	-0.764903	0.096653
H118	H	2.508959	-0.264903	0.596653
H119	H	2.048099	-0.872975	0.192559
H120	H	2.548099	-0.372975	0.692559
H121	H	1.944898	-0.877706	0.136896
H122	H	2.444898	-0.377706	0.636896
C123	C	1.671195	-0.935529	0.368708
C124	C	2.171195	-0.435529	0.868708
C125	C	1.654104	-0.860720	0.379389
C126	C	2.154104	-0.360720	0.879389
H127	H	1.616403	-0.964062	0.403065
H128	H	2.116403	-0.464062	0.903065
H129	H	1.755960	-0.944277	0.375745
H130	H	2.255960	-0.444277	0.875745
H131	H	1.652790	-0.948984	0.320073
H132	H	2.152790	-0.448984	0.820073
H133	H	1.672518	-0.847264	0.428024
H134	H	2.172518	-0.347264	0.928024
H135	H	1.569319	-0.851967	0.372359
H136	H	2.069319	-0.351967	0.872359
H137	H	1.970100	-0.180762	0.697221
H138	H	2.470100	0.319238	1.197221
H139	H	1.677122	-0.364656	0.710227
H140	H	2.177122	0.135344	1.210227
H141	H	1.301623	-0.334558	0.334607
H142	H	1.801623	0.165442	0.834607
H143	H	1.970124	-0.180723	0.836647
H144	H	2.470124	0.319277	1.336647
C145	C	1.671241	-0.368344	0.936451
C146	C	2.171241	0.131656	1.436451
C147	C	1.654169	-0.379060	0.861633
C148	C	2.154169	0.120940	1.361633
H149	H	1.616465	-0.402735	0.964958
H150	H	2.116465	0.097265	1.464958
H151	H	1.652814	-0.319726	0.949880
H152	H	2.152814	0.180274	1.449880
H153	H	1.756021	-0.375316	0.945255
H154	H	2.256021	0.124684	1.445255
H155	H	1.569391	-0.372082	0.852828
H156	H	2.069391	0.127918	1.352828
H157	H	1.672587	-0.427690	0.848199
H158	H	2.172587	0.072310	1.348199
