data_functionalizedCrystal
_audit_creation_method	'MofGen! by Chris Wilmer'
_symmetry_space_group_name_H-M	'P1'
_symmetry_Int_Tables_number	1
_symmetry_cell_setting	triclinic
loop_
_symmetry_equiv_pos_as_xyz
  x,y,z
_cell_length_a	16.625548
_cell_length_b	18.101397
_cell_length_c	16.625539
_cell_angle_alpha	89.970010
_cell_angle_beta	89.982945
_cell_angle_gamma	90.021534
loop_
_atom_site_label
_atom_site_type_symbol
_atom_site_fract_x
_atom_site_fract_y
_atom_site_fract_z
Zn1	Zn	1.232664	-0.294821	-0.455889
Zn2	Zn	1.732664	0.205179	0.044111
Zn3	Zn	1.232580	-0.418666	-0.321048
Zn4	Zn	1.732580	0.081334	0.178952
Zn5	Zn	1.097834	-0.294845	-0.321070
Zn6	Zn	1.597834	0.205155	0.178930
Zn7	Zn	1.097801	-0.418627	-0.455838
Zn8	Zn	1.597801	0.081373	0.044162
O9	O	1.165220	-0.356740	-0.388461
O10	O	1.665220	0.143260	0.111539
O11	O	1.345485	-0.311255	-0.438015
O12	O	1.845485	0.188745	0.061985
O13	O	1.214684	-0.402267	-0.208219
O14	O	1.714684	0.097733	0.291781
O15	O	1.115768	-0.191209	-0.338985
O16	O	1.615768	0.308791	0.161015
O17	O	1.345423	-0.402243	-0.338948
O18	O	1.845423	0.097757	0.161052
O19	O	1.214827	-0.191191	-0.438036
O20	O	1.714827	0.308809	0.061964
O21	O	1.115687	-0.311296	-0.208235
O22	O	1.615687	0.188704	0.291765
O23	O	0.984997	-0.311259	-0.338935
O24	O	1.484997	0.188741	0.161065
O25	O	1.115712	-0.402178	-0.568677
O26	O	1.615712	0.097822	-0.068677
O27	O	0.984973	-0.402201	-0.437949
O28	O	1.484973	0.097799	0.062051
O29	O	1.214795	-0.311218	-0.568715
O30	O	1.714795	0.188782	-0.068715
O31	O	1.214652	-0.522294	-0.338898
O32	O	1.714652	-0.022294	0.161102
O33	O	1.115630	-0.522265	-0.437928
O34	O	1.615630	-0.022265	0.062072
C35	C	0.955729	-0.356729	-0.388439
C36	C	1.455729	0.143271	0.111561
C37	C	0.866108	-0.356742	-0.388448
C38	C	1.366108	0.143258	0.111552
C39	C	0.537932	-0.356747	-0.388483
C40	C	1.037932	0.143253	0.111517
C41	C	0.629240	-0.356744	-0.388471
C42	C	1.129240	0.143256	0.111529
C43	C	0.702017	-0.356745	-0.388465
C44	C	1.202017	0.143255	0.111535
C45	C	0.793331	-0.356741	-0.388454
C46	C	1.293331	0.143259	0.111546
C47	C	1.165151	-0.549150	-0.388422
C48	C	1.665151	-0.049150	0.111578
C49	C	1.165195	-0.631464	-0.388433
C50	C	1.665195	-0.131464	0.111567
C51	C	1.165298	-0.930555	-0.388506
C52	C	1.665298	-0.430555	0.111494
C53	C	1.227426	-0.899217	-0.326033
C54	C	1.727426	-0.399217	0.173967
C55	C	1.227641	-0.813598	-0.326194
C56	C	1.727641	-0.313598	0.173806
C57	C	1.165247	-0.782173	-0.388469
C58	C	1.665247	-0.282173	0.111531
C59	C	1.188278	-0.813180	-0.473459
C60	C	1.688278	-0.313180	0.026541
C61	C	1.188759	-0.898825	-0.473119
C62	C	1.688759	-0.398825	0.026881
C63	C	1.079973	-0.899065	-0.366725
C64	C	1.579973	-0.399065	0.133275
C65	C	1.080394	-0.813416	-0.364828
C66	C	1.580394	-0.313416	0.135172
C67	C	1.165216	-0.698313	-0.388453
C68	C	1.665216	-0.198313	0.111547
C69	C	1.165330	-1.014415	-0.388528
C70	C	1.665330	-0.514415	0.111472
C71	C	1.375528	-0.356751	-0.388485
C72	C	1.875528	0.143249	0.111515
C73	C	1.465149	-0.356756	-0.388494
C74	C	1.965149	0.143244	0.111506
C75	C	1.165259	-0.356691	-0.598770
C76	C	1.665259	0.143309	-0.098770
C77	C	1.165276	-0.356670	-0.688392
C78	C	1.665276	0.143330	-0.188392
C79	C	1.165311	-0.163578	-0.388518
C80	C	1.665311	0.336422	0.111482
C81	C	1.165350	-0.081264	-0.388543
C82	C	1.665350	0.418736	0.111457
C83	C	1.165289	-0.356654	-0.761174
C84	C	1.665289	0.143346	-0.261174
C85	C	1.165308	-0.356626	-0.852483
C86	C	1.665308	0.143374	-0.352483
C87	C	1.165327	-0.356600	-0.925259
C88	C	1.665327	0.143400	-0.425259
C89	C	1.165347	-0.356573	-1.016574
C90	C	1.665347	0.143427	-0.516574
C91	C	1.165227	-0.356735	-0.178971
C92	C	1.665227	0.143265	0.321029
C93	C	1.165366	-0.356547	-0.089350
C94	C	1.665366	0.143453	0.410650
H95	H	1.213233	-0.792637	-0.263176
H96	H	1.713233	-0.292637	0.236824
F97	F	1.268886	-0.785070	-0.497984
F98	F	1.768886	-0.285070	0.002016
H99	H	1.213191	-0.919860	-0.262825
H100	H	1.713191	-0.419860	0.237175
F101	F	1.309588	-0.927273	-0.344652
F102	F	1.809588	-0.427273	0.155348
F103	F	1.310252	-0.786742	-0.345035
F104	F	1.810252	-0.286742	0.154965
H105	H	1.145489	-0.919553	-0.521271
H106	H	1.645489	-0.419553	-0.021271
H107	H	1.144410	-0.792822	-0.521259
H108	H	1.644410	-0.292822	-0.021259
F109	F	1.052585	-0.927377	-0.287125
F110	F	1.552585	-0.427377	0.212875
H111	H	1.251127	-0.918743	-0.491569
H112	H	1.751127	-0.418743	0.008431
H113	H	1.063028	-0.793157	-0.302282
H114	H	1.563028	-0.293157	0.197718
F115	F	1.016633	-0.785466	-0.419947
F116	F	1.516633	-0.285466	0.080053
F117	F	1.019468	-0.925557	-0.426198
F118	F	1.519468	-0.425557	0.073802
