data_functionalizedCrystal
_audit_creation_method	'MofGen! by Chris Wilmer'
_symmetry_space_group_name_H-M	'P1'
_symmetry_Int_Tables_number	1
_symmetry_cell_setting	triclinic
loop_
_symmetry_equiv_pos_as_xyz
  x,y,z
_cell_length_a	18.215407
_cell_length_b	18.215405
_cell_length_c	18.215399
_cell_angle_alpha	89.970050
_cell_angle_beta	89.985195
_cell_angle_gamma	90.017245
loop_
_atom_site_label
_atom_site_type_symbol
_atom_site_fract_x
_atom_site_fract_y
_atom_site_fract_z
Zn1	Zn	1.125061	-0.293082	-0.416078
Zn2	Zn	1.625061	0.206918	0.083922
Zn3	Zn	1.124981	-0.416159	-0.293013
Zn4	Zn	1.624981	0.083841	0.206987
Zn5	Zn	1.002000	-0.293099	-0.293030
Zn6	Zn	1.502000	0.206901	0.206970
Zn7	Zn	1.001964	-0.416100	-0.416042
Zn8	Zn	1.501964	0.083900	0.083958
O9	O	1.063501	-0.354610	-0.354541
O10	O	1.563501	0.145390	0.145459
O11	O	1.228035	-0.309426	-0.399761
O12	O	1.728035	0.190574	0.100239
O13	O	1.108648	-0.399866	-0.190031
O14	O	1.608648	0.100134	0.309969
O15	O	1.018373	-0.190112	-0.309375
O16	O	1.518373	0.309888	0.190625
O17	O	1.227975	-0.399850	-0.309346
O18	O	1.727975	0.100150	0.190654
O19	O	1.108786	-0.190100	-0.399778
O20	O	1.608786	0.309900	0.100222
O21	O	1.018295	-0.309454	-0.190043
O22	O	1.518295	0.190546	0.309957
O23	O	0.899011	-0.309397	-0.309340
O24	O	1.399011	0.190603	0.190660
O25	O	1.018312	-0.399750	-0.519031
O26	O	1.518312	0.100250	-0.019031
O27	O	0.898985	-0.399766	-0.399716
O28	O	1.398985	0.100234	0.100284
O29	O	1.108751	-0.309369	-0.519058
O30	O	1.608751	0.190631	-0.019058
O31	O	1.108613	-0.519135	-0.309311
O32	O	1.608613	-0.019135	0.190689
O33	O	1.018234	-0.519092	-0.399700
O34	O	1.518234	-0.019092	0.100300
C35	C	0.872295	-0.354577	-0.354526
C36	C	1.372295	0.145423	0.145474
C37	C	0.790496	-0.354581	-0.354538
C38	C	1.290496	0.145419	0.145462
C39	C	0.525464	-0.307617	-0.401695
C40	C	1.025464	0.192383	0.098305
C41	C	0.602323	-0.307605	-0.401693
C42	C	1.102323	0.192395	0.098307
C43	C	0.602280	-0.401626	-0.307402
C44	C	1.102280	0.098374	0.192598
C45	C	0.525423	-0.401642	-0.307409
C46	C	1.025423	0.098358	0.192591
C47	C	0.487017	-0.354632	-0.354554
C48	C	0.987017	0.145368	0.145446
C49	C	0.640733	-0.354606	-0.354545
C50	C	1.140733	0.145394	0.145455
C51	C	0.724066	-0.354593	-0.354543
C52	C	1.224066	0.145407	0.145457
C53	C	0.403678	-0.354646	-0.354558
C54	C	0.903678	0.145354	0.145442
C55	C	1.063431	-0.545816	-0.354515
C56	C	1.563431	-0.045816	0.145485
C57	C	1.063468	-0.627615	-0.354529
C58	C	1.563468	-0.127615	0.145471
C59	C	1.110568	-0.815741	-0.401666
C60	C	1.610568	-0.315741	0.098334
C61	C	1.110595	-0.892600	-0.401680
C62	C	1.610595	-0.392600	0.098320
C63	C	1.016526	-0.892726	-0.307461
C64	C	1.516526	-0.392726	0.192539
C65	C	1.016496	-0.815869	-0.307452
C66	C	1.516496	-0.315869	0.192548
C67	C	1.063521	-0.777378	-0.354553
C68	C	1.563521	-0.277378	0.145447
C69	C	1.063578	-0.931094	-0.354576
C70	C	1.563578	-0.431094	0.145424
C71	C	1.063606	-1.014428	-0.354591
C72	C	1.563606	-0.514428	0.145409
C73	C	1.063492	-0.694039	-0.354540
C74	C	1.563492	-0.194039	0.145460
C75	C	1.255454	-0.354643	-0.354556
C76	C	1.755454	0.145357	0.145444
C77	C	1.337253	-0.354657	-0.354562
C78	C	1.837253	0.145343	0.145438
C79	C	1.063536	-0.354551	-0.546494
C80	C	1.563536	0.145449	-0.046494
C81	C	1.063551	-0.354526	-0.628293
C82	C	1.563551	0.145474	-0.128293
C83	C	1.063592	-0.162657	-0.354582
C84	C	1.563592	0.337343	0.145418
C85	C	1.063631	-0.080858	-0.354600
C86	C	1.563631	0.419142	0.145400
C87	C	1.016544	-0.307417	-0.816494
C88	C	1.516544	0.192583	-0.316494
C89	C	1.016557	-0.307402	-0.893353
C90	C	1.516557	0.192598	-0.393353
C91	C	1.110646	-0.401547	-0.893329
C92	C	1.610646	0.098453	-0.393329
C93	C	1.110629	-0.401565	-0.816472
C94	C	1.610629	0.098435	-0.316472
C95	C	1.063579	-0.354496	-0.778056
C96	C	1.563579	0.145504	-0.278056
C97	C	1.063609	-0.354463	-0.931772
C98	C	1.563609	0.145537	-0.431772
C99	C	1.063623	-0.354447	-1.015106
C100	C	1.563623	0.145553	-0.515106
C101	C	1.063564	-0.354512	-0.694717
C102	C	1.563564	0.145488	-0.194717
C103	C	1.063509	-0.354615	-0.163335
C104	C	1.563509	0.145385	0.336665
C105	C	1.063637	-0.354433	-0.081536
C106	C	1.563637	0.145567	0.418464
H107	H	0.494118	-0.439932	-0.269021
H108	H	0.994118	0.060068	0.230979
H109	H	1.148858	-0.784404	-0.440019
H110	H	1.648858	-0.284404	0.059981
F111	F	1.160718	-0.451638	-0.934220
F112	F	1.660718	0.048362	-0.434220
H113	H	0.494196	-0.269339	-0.440084
H114	H	0.994196	0.230661	0.059916
H115	H	0.978241	-0.924074	-0.269112
H116	H	1.478241	-0.424074	0.230888
H117	H	0.633623	-0.269321	-0.440080
H118	H	1.133623	0.230679	0.059920
F119	F	0.966487	-0.257302	-0.934258
F120	F	1.466487	0.242698	-0.434258
H121	H	0.633560	-0.439898	-0.269017
H122	H	1.133560	0.060102	0.230983
H123	H	1.148904	-0.923832	-0.440045
H124	H	1.648904	-0.423832	0.059955
H125	H	1.148933	-0.439905	-0.785175
H126	H	1.648933	0.060095	-0.285175
H127	H	0.978181	-0.784631	-0.269087
H128	H	1.478181	-0.284631	0.230913
H129	H	0.978233	-0.269090	-0.785219
H130	H	1.478233	0.230910	-0.285219
