data_functionalizedCrystal
_audit_creation_method	'MofGen! by Chris Wilmer'
_symmetry_space_group_name_H-M	'P1'
_symmetry_Int_Tables_number	1
_symmetry_cell_setting	triclinic
loop_
_symmetry_equiv_pos_as_xyz
  x,y,z
_cell_length_a	10.540539
_cell_length_b	14.044220
_cell_length_c	12.503572
_cell_angle_alpha	93.835250
_cell_angle_beta	93.560877
_cell_angle_gamma	91.142815
loop_
_atom_site_label
_atom_site_type_symbol
_atom_site_fract_x
_atom_site_fract_y
_atom_site_fract_z
O1	O	0.299541	-1.265193	-0.089197
O2	O	0.288487	-0.989150	-0.089224
O3	O	0.109945	-1.133469	-0.089208
O4	O	0.478084	-1.120874	-0.089212
O5	O	0.123396	-1.122616	0.089432
O6	O	0.301939	-0.978297	0.089417
O7	O	0.312993	-1.254339	0.089444
Cu8	Cu	0.308694	-1.115327	0.105742
Cu9	Cu	0.292786	-1.128163	-0.105522
O10	O	0.491536	-1.110020	0.089428
C11	C	0.290375	-0.948377	0.000093
C12	C	0.275945	-0.843054	0.000082
C13	C	0.069272	-1.127098	0.000110
C14	C	-0.071962	-1.124272	0.000104
C15	C	0.311105	-1.295113	0.000125
C16	C	0.325535	-1.400436	0.000129
C17	C	-0.266368	-1.016008	-0.000308
C18	C	-0.119430	-1.018848	0.000095
C19	C	-0.120809	-1.168809	0.102122
C20	C	-0.267711	-1.165206	0.102207
C21	C	-0.283309	-1.179693	-0.100941
C22	C	-0.136331	-1.180746	-0.102289
C23	C	0.532208	-1.116392	0.000108
C24	C	0.673442	-1.119218	0.000107
N25	N	0.319883	-1.106306	0.254333
C26	C	0.249566	-0.650213	0.000104
C27	C	0.351908	-0.593272	0.000107
C28	C	0.337231	-0.485969	0.000119
C29	C	0.264241	-0.757526	0.000092
N30	N	0.281588	-1.137191	-0.254113
C31	C	0.336354	-1.093036	0.473447
C32	C	0.265121	-1.150458	0.526780
C33	C	0.274286	-1.143074	0.648703
C34	C	0.327191	-1.100419	0.351513
H35	H	-0.086369	-0.983371	-0.073036
H36	H	0.197256	-1.205164	0.480873
H37	H	0.150932	-0.618375	0.000110
C38	C	-0.318149	-0.965743	-0.099135
N39	N	-0.357163	-0.927881	-0.173573
C40	C	0.428030	-1.019135	0.535462
N41	N	0.497081	-0.963473	0.582184
H42	H	-0.295291	-0.970113	0.072433
C43	C	-0.061053	-0.958530	0.099048
N44	N	-0.017085	-0.913097	0.173585
C45	C	-0.093803	-1.136838	-0.204250
N46	N	-0.061775	-1.103757	-0.281045
H47	H	-0.293959	-1.123078	0.178460
H48	H	-0.307665	-1.240744	0.106843
H49	H	-0.090342	-1.245999	0.105922
H50	H	-0.076056	-1.128954	0.178033
H51	H	-0.324134	-1.150270	-0.178263
C52	C	0.485169	-0.636284	0.000086
N53	N	0.585537	-0.668685	0.000064
H54	H	-0.104802	-1.257982	-0.108442
H55	H	-0.322888	-1.255882	-0.101619
