data_functionalizedCrystal
_audit_creation_method	'MofGen! by Chris Wilmer'
_symmetry_space_group_name_H-M	'P1'
_symmetry_Int_Tables_number	1
_symmetry_cell_setting	triclinic
loop_
_symmetry_equiv_pos_as_xyz
  x,y,z
_cell_length_a	14.519710
_cell_length_b	14.853567
_cell_length_c	13.930277
_cell_angle_alpha	90.000757
_cell_angle_beta	89.993725
_cell_angle_gamma	96.342463
loop_
_atom_site_label
_atom_site_type_symbol
_atom_site_fract_x
_atom_site_fract_y
_atom_site_fract_z
O1	O	1.223823	-0.118178	-0.079802
O2	O	0.955341	-0.132096	-0.079807
O3	O	1.096754	0.006090	-0.079807
O4	O	1.082410	-0.256364	-0.079802
O5	O	1.096734	0.006093	0.079855
O6	O	0.955321	-0.132093	0.079855
O7	O	1.223804	-0.118176	0.079860
Zn8	Zn	1.089559	-0.125134	0.105207
Zn9	Zn	1.089585	-0.125138	-0.105154
O10	O	1.082391	-0.256361	0.079860
C11	C	0.920971	-0.131446	0.000023
C12	C	0.818591	-0.129502	0.000020
C13	C	1.258173	-0.118826	0.000028
C14	C	1.360553	-0.120769	0.000024
N15	N	1.089548	-0.125130	0.248773
C16	C	1.735446	-0.127924	0.000024
C17	C	1.631139	-0.125937	0.000024
C18	C	1.548003	-0.124347	0.000023
C19	C	1.443689	-0.122360	0.000025
C20	C	1.096094	0.039680	0.000021
C21	C	1.094146	0.139765	0.000013
C22	C	1.083050	-0.289952	0.000030
C23	C	1.084998	-0.390036	0.000032
C24	C	1.001911	0.552334	0.000029
C25	C	1.169913	0.573550	0.000032
C26	C	1.171744	0.479516	0.000027
C27	C	1.088658	0.421886	0.000024
C28	C	1.003740	0.458291	0.000026
C29	C	1.256661	0.443104	0.000034
C30	C	1.258495	0.349064	0.000029
C31	C	1.175408	0.291433	0.000020
C32	C	1.090486	0.327843	0.000021
C33	C	1.007400	0.270213	0.000018
C34	C	0.922478	0.306621	0.000013
C35	C	0.920653	0.400660	0.000016
C36	C	1.177233	0.197394	0.000016
C37	C	1.009229	0.176170	0.000015
N38	N	1.089603	-0.125134	-0.248720
C39	C	1.026965	-0.186302	0.701043
C40	C	1.152231	-0.063966	0.701012
C41	C	1.152220	-0.063963	0.600516
C42	C	1.089581	-0.125132	0.550279
C43	C	1.026954	-0.186303	0.600538
C44	C	1.214852	-0.002799	0.550250
C45	C	1.214844	-0.002795	0.449748
C46	C	1.152201	-0.063959	0.399509
C47	C	1.089570	-0.125132	0.449774
C48	C	1.026932	-0.186301	0.399537
C49	C	0.964296	-0.247470	0.449800
C50	C	0.964310	-0.247468	0.550299
C51	C	1.152186	-0.063962	0.299011
C52	C	1.026921	-0.186302	0.299032
H53	H	0.941568	0.129253	0.000009
H54	H	0.851513	0.430312	0.000013
H55	H	0.932770	0.581982	0.000021
O56	O	0.841855	0.250508	-0.000031
C57	C	0.770234	0.096225	0.000032
C58	C	0.861603	0.159674	0.000059
H59	H	0.786168	0.022773	0.000126
H60	H	0.728447	0.109405	-0.066805
H61	H	0.728438	0.109535	0.066832
H62	H	0.903473	0.146401	-0.066695
H63	H	0.903320	0.146481	0.066940
H64	H	0.913300	-0.297278	0.408885
H65	H	1.265855	0.046998	0.591157
O66	O	1.337450	0.498953	0.000076
C67	C	1.504281	0.510085	0.000016
C68	C	1.412852	0.446727	-0.000004
H69	H	1.565267	0.467886	-0.000069
H70	H	1.507680	0.554630	0.066846
H71	H	1.507576	0.554656	-0.066790
H72	H	1.409496	0.402100	0.066757
H73	H	1.409491	0.402244	-0.066879
O74	O	1.275466	0.056831	0.400922
C75	C	1.294609	0.180237	0.287830
C76	C	1.225915	0.112637	0.342984
H77	H	1.254574	0.225386	0.240989
H78	H	1.340848	0.141515	0.240597
H79	H	1.339269	0.223899	0.341135
H80	H	1.181193	0.068958	0.289748
H81	H	1.179739	0.151414	0.390231
H82	H	1.327644	0.319429	0.000033
O83	O	1.250593	0.629566	-0.000132
C84	C	1.346007	0.748103	-0.082808
C85	C	1.254609	0.684697	-0.082751
H86	H	1.349275	0.792706	-0.149588
H87	H	1.407051	0.705976	-0.082873
H88	H	1.349328	0.792613	-0.015955
H89	H	1.251198	0.640175	-0.149593
H90	H	1.193608	0.726878	-0.082636
O91	O	1.259795	0.162176	-0.000025
C92	C	1.426239	0.193149	0.000040
C93	C	1.332797	0.233151	0.000068
H94	H	1.485286	0.250513	0.000136
H95	H	1.431368	0.149692	-0.066799
H96	H	1.431236	0.149615	0.066838
H97	H	1.327737	0.276726	-0.066684
H98	H	1.327708	0.276556	0.066951
H99	H	1.203188	-0.014163	0.258091
H100	H	0.913316	-0.297271	0.591229
H101	H	0.975910	-0.236110	0.258135
H102	H	0.975965	-0.236103	0.741969
H103	H	1.203233	-0.014169	0.741918
