data_functionalizedCrystal
_audit_creation_method	'MofGen! by Chris Wilmer'
_symmetry_space_group_name_H-M	'P1'
_symmetry_Int_Tables_number	1
_symmetry_cell_setting	triclinic
loop_
_symmetry_equiv_pos_as_xyz
  x,y,z
_cell_length_a	12.759401
_cell_length_b	16.625546
_cell_length_c	16.625539
_cell_angle_alpha	90.030397
_cell_angle_beta	90.017397
_cell_angle_gamma	90.022629
loop_
_atom_site_label
_atom_site_type_symbol
_atom_site_fract_x
_atom_site_fract_y
_atom_site_fract_z
Zn1	Zn	1.606187	-0.320997	0.455829
Zn2	Zn	1.939521	0.012337	0.789163
Zn3	Zn	2.272854	0.345670	1.122496
Zn4	Zn	1.606061	-0.455840	0.320992
Zn5	Zn	1.939394	-0.122507	0.654325
Zn6	Zn	2.272728	0.210827	0.987658
Zn7	Zn	1.430493	-0.321025	0.321017
Zn8	Zn	1.763826	0.012308	0.654351
Zn9	Zn	2.097159	0.345641	0.987684
Zn10	Zn	1.430454	-0.455791	0.455789
Zn11	Zn	1.763787	-0.122458	0.789122
Zn12	Zn	2.097121	0.210875	1.122456
O13	O	1.518299	-0.388413	0.388407
O14	O	1.851632	-0.055080	0.721740
O15	O	2.184965	0.278253	1.055074
O16	O	1.753192	-0.338892	0.437949
O17	O	2.086525	-0.005559	0.771282
O18	O	2.419858	0.327774	1.104616
O19	O	1.582735	-0.437989	0.208163
O20	O	1.916068	-0.104655	0.541496
O21	O	2.249402	0.228678	0.874829
O22	O	1.453868	-0.208189	0.338928
O23	O	1.787201	0.125144	0.672261
O24	O	2.120534	0.458478	1.005595
O25	O	1.753099	-0.437961	0.338884
O26	O	2.086432	-0.104628	0.672218
O27	O	2.419766	0.228706	1.005551
O28	O	1.582950	-0.208168	0.437974
O29	O	1.916283	0.125165	0.771307
O30	O	2.249617	0.458499	1.104641
O31	O	1.453745	-0.338941	0.208182
O32	O	1.787079	-0.005608	0.541515
O33	O	2.120412	0.327726	0.874848
O34	O	1.283466	-0.338894	0.338889
O35	O	1.616800	-0.005561	0.672222
O36	O	1.950133	0.327773	1.005556
O37	O	1.453802	-0.437878	0.568627
O38	O	1.787135	-0.104545	0.901960
O39	O	2.120469	0.228788	1.235293
O40	O	1.283438	-0.437906	0.437905
O41	O	1.616771	-0.104573	0.771238
O42	O	1.950105	0.228761	1.104572
O43	O	1.582913	-0.338845	0.568656
O44	O	1.916246	-0.005512	0.901990
O45	O	2.249579	0.327821	1.235323
O46	O	1.582698	-0.568666	0.338845
O47	O	1.916031	-0.235333	0.672179
O48	O	2.249364	0.098001	1.005512
O49	O	1.453680	-0.568630	0.437880
O50	O	1.787013	-0.235297	0.771214
O51	O	2.120346	0.098036	1.104547
C52	C	1.245331	-0.388399	0.388396
C53	C	1.578665	-0.055065	0.721729
C54	C	1.911998	0.278268	1.055063
C55	C	1.128555	-0.388412	0.388410
C56	C	1.461888	-0.055078	0.721744
C57	C	1.795221	0.278255	1.055077
C58	C	1.073705	-0.440050	0.439883
C59	C	1.407039	-0.106716	0.773216
C60	C	1.740372	0.226617	1.106549
C61	C	0.963981	-0.440060	0.439892
C62	C	1.297315	-0.106727	0.773225
C63	C	1.630648	0.226607	1.106558
C64	C	0.963966	-0.336792	0.336949
C65	C	1.297299	-0.003458	0.670282
C66	C	1.630632	0.329875	1.003615
C67	C	1.073688	-0.336778	0.336944
C68	C	1.407021	-0.003445	0.670278
C69	C	1.740354	0.329889	1.003611
C70	C	1.073714	-0.499673	0.499314
C71	C	1.407047	-0.166340	0.832647
C72	C	1.740380	0.166993	1.165980
C73	C	0.963990	-0.499684	0.499322
C74	C	1.297323	-0.166350	0.832656
C75	C	1.630656	0.166983	1.165989
C76	C	1.518199	-0.597904	0.388373
C77	C	1.851533	-0.264571	0.721706
C78	C	2.184866	0.068762	1.055040
C79	C	1.518253	-0.687525	0.388386
C80	C	1.851586	-0.354192	0.721719
C81	C	2.184920	-0.020859	1.055052
C82	C	1.518436	-1.015701	0.388470
C83	C	1.851770	-0.682368	0.721803
C84	C	2.185103	-0.349034	1.055136
C85	C	1.518382	-0.924392	0.388448
C86	C	1.851715	-0.591059	0.721782
C87	C	2.185048	-0.257726	1.055115
C88	C	1.518344	-0.851616	0.388427
C89	C	1.851677	-0.518283	0.721761
C90	C	2.185010	-0.184949	1.055094
C91	C	1.518291	-0.760302	0.388407
C92	C	1.851624	-0.426968	0.721740
C93	C	2.184958	-0.093635	1.055074
C94	C	1.792332	-0.388429	0.388418
C95	C	2.125665	-0.055096	0.721752
C96	C	2.458999	0.278238	1.055085
C97	C	1.909109	-0.388435	0.388423
C98	C	2.242442	-0.055102	0.721757
C99	C	2.575775	0.278231	1.055090
C100	C	1.518367	-0.388353	0.598716
C101	C	1.851700	-0.055020	0.932049
C102	C	2.185034	0.278313	1.265383
C103	C	1.518396	-0.388328	0.688337
C104	C	1.851730	-0.054994	1.021670
C105	C	2.185063	0.278339	1.355004
C106	C	1.518427	-0.178104	0.388458
C107	C	1.851761	0.155229	0.721792
C108	C	2.185094	0.488562	1.055125
C109	C	1.518482	-0.088483	0.388480
C110	C	1.851815	0.244850	0.721814
C111	C	2.185149	0.578183	1.055147
C112	C	1.518291	-0.388415	0.178916
C113	C	1.851625	-0.055082	0.512249
C114	C	2.184958	0.278252	0.845583
C115	C	1.518466	-0.388213	0.089295
C116	C	1.851799	-0.054880	0.422629
C117	C	2.185132	0.278453	0.755962
C118	C	1.518445	-0.388237	1.016513
C119	C	1.851778	-0.054904	1.349846
C120	C	2.185111	0.278429	1.683180
C121	C	1.518428	-0.388265	0.925204
C122	C	1.851762	-0.054932	1.258538
C123	C	2.185095	0.278402	1.591871
C124	C	1.518421	-0.388283	0.852428
C125	C	1.851754	-0.054950	1.185761
C126	C	2.185088	0.278383	1.519095
C127	C	1.518403	-0.388310	0.761114
C128	C	1.851737	-0.054976	1.094447
C129	C	2.185070	0.278357	1.427780
H130	H	0.919279	-0.294753	0.295048
H131	H	1.252613	0.038581	0.628381
H132	H	1.585946	0.371914	0.961714
H133	H	1.118342	-0.294724	0.295036
H134	H	1.451675	0.038609	0.628369
H135	H	1.785008	0.371943	0.961703
H136	H	0.934183	-0.562114	0.482485
H137	H	1.267517	-0.228781	0.815819
H138	H	1.600850	0.104552	1.149152
H139	H	1.103523	-0.483026	0.561791
H140	H	1.436857	-0.149693	0.895125
H141	H	1.770190	0.183640	1.228458
H142	H	1.107718	-0.558959	0.476834
H143	H	1.441051	-0.225625	0.810168
H144	H	1.774385	0.107708	1.143501
N145	N	0.918946	-0.470096	0.577927
N146	N	1.252279	-0.136763	0.911261
N147	N	1.585612	0.196570	1.244594
H148	H	0.977884	-0.455805	0.615907
H149	H	1.311217	-0.122472	0.949240
H150	H	1.644550	0.210862	1.282573
H151	H	0.874336	-0.513754	0.602659
H152	H	1.207669	-0.180421	0.935992
H153	H	1.541003	0.152912	1.269325
