data_functionalizedCrystal
_audit_creation_method	'MofGen! by Chris Wilmer'
_symmetry_space_group_name_H-M	'P1'
_symmetry_Int_Tables_number	1
_symmetry_cell_setting	triclinic
loop_
_symmetry_equiv_pos_as_xyz
  x,y,z
_cell_length_a	16.120490
_cell_length_b	16.120444
_cell_length_c	19.076919
_cell_angle_alpha	95.047308
_cell_angle_beta	89.501355
_cell_angle_gamma	90.165174
loop_
_atom_site_label
_atom_site_type_symbol
_atom_site_fract_x
_atom_site_fract_y
_atom_site_fract_z
Zn1	Zn	1.231078	-0.416797	-0.468390
Zn2	Zn	1.564411	-0.083464	-0.135057
Zn3	Zn	1.897744	0.249870	0.198277
Zn4	Zn	1.229513	-0.550806	-0.356362
Zn5	Zn	1.562846	-0.217472	-0.023028
Zn6	Zn	1.896180	0.115861	0.310305
Zn7	Zn	1.098205	-0.404170	-0.344490
Zn8	Zn	1.431538	-0.070836	-0.011157
Zn9	Zn	1.764871	0.262497	0.322176
Zn10	Zn	1.084959	-0.548714	-0.467750
Zn11	Zn	1.418293	-0.215380	-0.134417
Zn12	Zn	1.751626	0.117953	0.198917
O13	O	1.160939	-0.480122	-0.409248
O14	O	1.494272	-0.146788	-0.075915
O15	O	1.827605	0.186545	0.257419
O16	O	1.346974	-0.440734	-0.458765
O17	O	1.680308	-0.107400	-0.125432
O18	O	2.013641	0.225933	0.207902
O19	O	1.216983	-0.526945	-0.256318
O20	O	1.550316	-0.193612	0.077015
O21	O	1.883649	0.139722	0.410348
O22	O	1.122029	-0.289270	-0.356226
O23	O	1.455362	0.044064	-0.022892
O24	O	1.788695	0.377397	0.310441
O25	O	1.345825	-0.539189	-0.376459
O26	O	1.679158	-0.205856	-0.043125
O27	O	2.012491	0.127478	0.290208
O28	O	1.219650	-0.298547	-0.447254
O29	O	1.552983	0.034786	-0.113921
O30	O	1.886317	0.368120	0.219413
O31	O	1.120511	-0.419212	-0.247596
O32	O	1.453844	-0.085879	0.085737
O33	O	1.787178	0.247454	0.419070
O34	O	0.980343	-0.417184	-0.355605
O35	O	1.313677	-0.083851	-0.022272
O36	O	1.647010	0.249483	0.311062
O37	O	1.099454	-0.535624	-0.566304
O38	O	1.432787	-0.202290	-0.232970
O39	O	1.766121	0.131043	0.100363
O40	O	0.970612	-0.523380	-0.446163
O41	O	1.303946	-0.190046	-0.112830
O42	O	1.637279	0.143287	0.220503
O43	O	1.206807	-0.438705	-0.566774
O44	O	1.540140	-0.105372	-0.233440
O45	O	1.873473	0.227961	0.099893
O46	O	1.204139	-0.667103	-0.375838
O47	O	1.537473	-0.333770	-0.042505
O48	O	1.870806	-0.000437	0.290829
O49	O	1.097937	-0.665566	-0.457675
O50	O	1.431270	-0.332233	-0.124341
O51	O	1.764603	0.001100	0.208992
C52	C	0.945373	-0.468685	-0.399527
C53	C	1.278707	-0.135352	-0.066194
C54	C	1.612040	0.197982	0.267140
C55	C	0.853152	-0.463813	-0.395386
C56	C	1.186485	-0.130480	-0.062053
C57	C	1.519818	0.202853	0.271281
C58	C	1.149453	-0.696563	-0.417992
C59	C	1.482786	-0.363230	-0.084658
C60	C	1.816119	-0.029897	0.248675
C61	C	1.144614	-0.789163	-0.421759
C62	C	1.477947	-0.455830	-0.088426
C63	C	1.811280	-0.122496	0.244908
C64	C	0.638416	-0.505385	-0.430730
C65	C	0.971749	-0.172052	-0.097397
C66	C	1.305083	0.161281	0.235937
C67	C	0.684306	-0.454927	-0.387825
C68	C	1.017639	-0.121593	-0.054491
C69	C	1.350973	0.211740	0.278842
C70	C	0.778260	-0.459873	-0.392033
C71	C	1.111594	-0.126539	-0.058700
C72	C	1.444927	0.206794	0.274634
C73	C	0.544453	-0.500440	-0.426522
C74	C	0.877786	-0.167107	-0.093189
C75	C	1.211120	0.166226	0.240144
C76	C	1.186237	-1.000701	-0.389865
C77	C	1.519570	-0.667367	-0.056532
C78	C	1.852903	-0.334034	0.276802
C79	C	1.135794	-0.958700	-0.428645
C80	C	1.469127	-0.625366	-0.095312
C81	C	1.802460	-0.292033	0.238021
C82	C	1.140703	-0.864361	-0.424813
C83	C	1.474036	-0.531027	-0.091479
C84	C	1.807369	-0.197694	0.241854
C85	C	1.181329	-1.095048	-0.393697
C86	C	1.514662	-0.761715	-0.060363
C87	C	1.847996	-0.428381	0.272970
C88	C	1.377346	-0.491603	-0.419007
C89	C	1.710679	-0.158270	-0.085674
C90	C	2.044012	0.175064	0.247659
C91	C	1.469565	-0.496496	-0.423166
C92	C	1.802899	-0.163163	-0.089833
C93	C	2.136232	0.170171	0.243500
C94	C	1.151827	-0.488340	-0.592784
C95	C	1.485161	-0.155006	-0.259451
C96	C	1.818494	0.178327	0.073882
C97	C	1.147945	-0.491842	-0.670997
C98	C	1.481278	-0.158508	-0.337663
C99	C	1.814611	0.174825	-0.004330
C100	C	1.172491	-0.262836	-0.400487
C101	C	1.505825	0.070497	-0.067154
C102	C	1.839158	0.403830	0.266180
C103	C	1.177414	-0.170243	-0.396753
C104	C	1.510748	0.163091	-0.063420
C105	C	1.844081	0.496424	0.269913
C106	C	1.202011	-0.443029	-0.707987
C107	C	1.535344	-0.109696	-0.374654
C108	C	1.868677	0.223638	-0.041320
C109	C	1.198352	-0.446316	-0.781475
C110	C	1.531686	-0.112983	-0.448142
C111	C	1.865019	0.220351	-0.114808
C112	C	1.140632	-0.498420	-0.817972
C113	C	1.473965	-0.165087	-0.484639
C114	C	1.807299	0.168246	-0.151305
C115	C	1.086560	-0.547235	-0.780977
C116	C	1.419894	-0.213902	-0.447643
C117	C	1.753227	0.119432	-0.114310
C118	C	1.090215	-0.543943	-0.707489
C119	C	1.423548	-0.210610	-0.374156
C120	C	1.756882	0.122723	-0.040823
C121	C	1.123704	-0.513672	-1.037729
C122	C	1.457038	-0.180339	-0.704395
C123	C	1.790371	0.152994	-0.371062
C124	C	1.120055	-0.516962	-1.111221
C125	C	1.453389	-0.183629	-0.777888
C126	C	1.786722	0.149704	-0.444554
C127	C	1.231847	-0.416042	-1.111714
C128	C	1.565180	-0.082708	-0.778381
C129	C	1.898513	0.250625	-0.445048
C130	C	1.235500	-0.412758	-1.038226
C131	C	1.568833	-0.079425	-0.704893
C132	C	1.902166	0.253909	-0.371559
C133	C	1.181425	-0.461569	-1.001237
C134	C	1.514759	-0.128236	-0.667903
C135	C	1.848092	0.205097	-0.334570
N136	N	1.136893	-0.501783	-0.893089
N137	N	1.470226	-0.168450	-0.559756
N138	N	1.803560	0.164883	-0.226422
N139	N	1.185161	-0.458201	-0.926121
N140	N	1.518494	-0.124868	-0.592787
N141	N	1.851828	0.208465	-0.259454
C142	C	1.170065	-0.471878	-0.226425
C143	C	1.503399	-0.138544	0.106908
C144	C	1.836732	0.194789	0.440241
C145	C	1.174121	-0.468150	-0.148211
C146	C	1.507454	-0.134816	0.185122
C147	C	1.840788	0.198517	0.518455
H148	H	0.653031	-0.408013	-0.347931
H149	H	0.986365	-0.074679	-0.014598
H150	H	1.319698	0.258654	0.318735
H151	H	1.233105	-0.965812	-0.353787
H152	H	1.566439	-0.632478	-0.020454
H153	H	1.899772	-0.299145	0.312880
H154	H	0.669689	-0.552296	-0.470619
H155	H	1.003022	-0.218963	-0.137286
H156	H	1.336355	0.114370	0.196047
Cl157	Cl	1.063422	-1.012568	-0.484347
Cl158	Cl	1.396756	-0.679234	-0.151014
Cl159	Cl	1.730089	-0.345901	0.182319
H160	H	1.249015	-0.400602	-0.678277
H161	H	1.582349	-0.067269	-0.344943
H162	H	1.915682	0.266064	-0.011610
H163	H	1.242380	-0.406569	-0.811589
H164	H	1.575714	-0.073236	-0.478256
H165	H	1.909047	0.260097	-0.144923
H166	H	1.282504	-0.370331	-1.008515
H167	H	1.615837	-0.036998	-0.675182
H168	H	1.949171	0.296335	-0.341849
Cl169	Cl	1.047482	-0.582465	-1.157102
Cl170	Cl	1.380816	-0.249132	-0.823769
Cl171	Cl	1.714149	0.084201	-0.490435
Cl172	Cl	1.299819	-0.354680	-1.158219
Cl173	Cl	1.633152	-0.021346	-0.824886
Cl174	Cl	1.966485	0.311987	-0.491552
Cl175	Cl	1.055725	-0.575036	-0.991237
Cl176	Cl	1.389058	-0.241703	-0.657904
Cl177	Cl	1.722391	0.091631	-0.324571
H178	H	1.039560	-0.589657	-0.810698
H179	H	1.372893	-0.256323	-0.477365
H180	H	1.706227	0.077010	-0.144031
Cl181	Cl	1.022241	-0.605308	-0.660987
Cl182	Cl	1.355574	-0.271974	-0.327654
Cl183	Cl	1.688908	0.061359	0.005680
