data_functionalizedCrystal
_audit_creation_method	'MofGen! by Chris Wilmer'
_symmetry_space_group_name_H-M	'P1'
_symmetry_Int_Tables_number	1
_symmetry_cell_setting	triclinic
loop_
_symmetry_equiv_pos_as_xyz
  x,y,z
_cell_length_a	10.489741
_cell_length_b	10.489716
_cell_length_c	8.965430
_cell_angle_alpha	90.004464
_cell_angle_beta	89.998843
_cell_angle_gamma	84.534155
loop_
_atom_site_label
_atom_site_type_symbol
_atom_site_fract_x
_atom_site_fract_y
_atom_site_fract_z
O1	O	1.694038	0.179960	-0.123932
O2	O	1.322840	0.196853	-0.123954
O3	O	1.516902	0.002807	-0.123948
O4	O	1.499976	0.374007	-0.123938
O5	O	1.516885	0.002820	0.124131
O6	O	1.322824	0.196866	0.124125
O7	O	1.694021	0.179973	0.124146
Cu8	Cu	1.508421	0.188421	0.146787
Cu9	Cu	1.508440	0.188406	-0.146595
O10	O	1.499960	0.374020	0.124140
C11	C	1.275301	0.195584	0.000082
C12	C	1.133672	0.191767	0.000073
C13	C	1.515622	-0.044719	0.000087
C14	C	1.511817	-0.186350	0.000073
C15	C	1.065542	0.068301	0.000084
C16	C	0.973418	0.126618	-0.122227
C17	C	0.973436	0.126661	0.122359
C18	C	1.043413	0.250135	-0.122339
C19	C	1.043440	0.250160	0.122357
C20	C	0.951344	0.308568	0.000016
C21	C	1.630822	-0.284024	0.000093
C22	C	1.567945	-0.361391	-0.122222
C23	C	1.567901	-0.361342	0.122364
C24	C	1.448990	-0.261851	-0.122344
C25	C	1.448964	-0.261797	0.122352
C26	C	1.386000	-0.339115	0.000007
C27	C	1.741561	0.181243	0.000107
C28	C	1.883190	0.185060	0.000106
C29	C	1.501240	0.421545	0.000102
C30	C	1.505044	0.563176	0.000106
N31	N	1.508417	0.188431	0.353136
N32	N	1.508455	0.188386	-0.352944
C33	C	1.418642	0.278141	0.450439
C34	C	1.534136	0.303952	0.549861
C35	C	1.392971	0.162631	0.549842
C36	C	1.623970	0.214300	0.450369
C37	C	1.482728	0.072928	0.450341
C38	C	1.598306	0.098691	0.549718
H39	H	1.115241	-0.033196	-0.000072
H40	H	1.398765	-0.218274	0.225761
N41	N	0.932404	0.057462	0.259347
H42	H	0.836259	0.056113	0.258855
H43	H	0.974439	-0.033254	0.259153
N44	N	1.767934	-0.251335	-0.000043
H45	H	1.812748	-0.287754	-0.092523
H46	H	1.769470	-0.155216	0.000955
N47	N	1.382507	-0.204525	-0.259492
H48	H	1.290328	-0.224911	-0.259916
H49	H	1.385647	-0.108597	-0.258611
H50	H	1.618156	-0.404809	0.225770
N51	N	1.634488	-0.419032	-0.259187
H52	H	1.590494	-0.381422	-0.351577
H53	H	1.726894	-0.399401	-0.258959
N54	N	0.885849	0.443146	-0.000073
H55	H	0.789940	0.439834	0.000808
H56	H	0.912536	0.490100	0.091420
H57	H	1.721638	0.236219	0.406858
N58	N	1.562940	0.433309	0.607776
H59	H	1.563565	0.432080	0.720420
H60	H	1.649475	0.453410	0.569931
N61	N	1.084511	0.319346	0.259334
H62	H	1.059316	0.272645	0.351685
H63	H	1.180473	0.322156	0.257687
N64	N	0.932335	0.057428	-0.259206
H65	H	1.010135	0.027854	-0.320917
H66	H	0.887275	-0.019156	-0.227883
H67	H	1.342793	0.354076	0.406848
N68	N	1.248797	-0.371519	-0.000074
H69	H	1.246970	-0.467609	0.000814
H70	H	1.203583	-0.333603	0.091421
N71	N	1.698990	-0.001833	0.607112
H72	H	1.786123	0.017806	0.570731
H73	H	1.697842	-0.001758	0.719755
H74	H	1.460939	-0.024699	0.406594
N75	N	1.263636	0.133745	0.607737
H76	H	1.195882	0.201589	0.571626
H77	H	1.243631	0.047151	0.569974
H78	H	1.074243	0.302330	-0.225860
