data_functionalizedCrystal
_audit_creation_method	'MofGen! by Chris Wilmer'
_symmetry_space_group_name_H-M	'P1'
_symmetry_Int_Tables_number	1
_symmetry_cell_setting	triclinic
loop_
_symmetry_equiv_pos_as_xyz
  x,y,z
_cell_length_a	10.967829
_cell_length_b	11.026623
_cell_length_c	10.065875
_cell_angle_alpha	100.706105
_cell_angle_beta	110.808508
_cell_angle_gamma	83.619121
loop_
_atom_site_label
_atom_site_type_symbol
_atom_site_fract_x
_atom_site_fract_y
_atom_site_fract_z
O1	O	0.554366	-1.576565	0.243877
O2	O	0.887699	-1.243231	0.577211
O3	O	1.221032	-0.909898	0.910544
O4	O	0.492924	-1.225011	0.229428
O5	O	0.826257	-0.891678	0.562762
O6	O	1.159590	-0.558344	0.896095
O7	O	0.338314	-1.415732	0.193060
O8	O	0.671647	-1.082399	0.526393
O9	O	1.004981	-0.749066	0.859726
O10	O	0.708975	-1.385844	0.280246
O11	O	1.042309	-1.052510	0.613579
O12	O	1.375642	-0.719177	0.946913
O13	O	0.308720	-1.452134	-0.040891
O14	O	0.642053	-1.118800	0.292443
O15	O	0.975386	-0.785467	0.625776
O16	O	0.463329	-1.261412	-0.004522
O17	O	0.796662	-0.928079	0.328811
O18	O	1.129996	-0.594746	0.662145
O19	O	0.524771	-1.612966	0.009927
O20	O	0.858104	-1.279633	0.343261
O21	O	1.191438	-0.946299	0.676594
Zn22	Zn	0.489351	-1.442969	-0.034442
Zn23	Zn	0.822685	-1.109635	0.298891
Zn24	Zn	1.156018	-0.776302	0.632225
Zn25	Zn	0.528343	-1.395008	0.273797
Zn26	Zn	0.861677	-1.061675	0.607131
Zn27	Zn	1.195010	-0.728342	0.940464
O28	O	0.679381	-1.422245	0.046296
O29	O	1.012714	-1.088912	0.379629
O30	O	1.346047	-0.755578	0.712963
C31	C	0.466792	-1.198324	0.109787
C32	C	0.800125	-0.864991	0.443121
C33	C	1.133458	-0.531657	0.776454
C34	C	0.433002	-1.064574	0.101841
C35	C	0.766335	-0.731240	0.435174
C36	C	1.099669	-0.397907	0.768508
C37	C	0.526298	-0.988107	0.123787
C38	C	0.859632	-0.654774	0.457120
C39	C	1.192965	-0.321440	0.790454
C40	C	0.491378	-0.849869	0.115574
C41	C	0.824711	-0.516535	0.448908
C42	C	1.158044	-0.183202	0.782241
C43	C	0.275327	-1.434508	0.064752
C44	C	0.608660	-1.101175	0.398086
C45	C	0.941994	-0.767842	0.731419
C46	C	0.131733	-1.436209	0.030985
C47	C	0.465066	-1.102876	0.364318
C48	C	0.798400	-0.769542	0.697652
C49	C	0.083051	-1.418110	0.137125
C50	C	0.416385	-1.084777	0.470458
C51	C	0.749718	-0.751443	0.803792
C52	C	-0.065360	-1.419867	0.102228
C53	C	0.267973	-1.086534	0.435561
C54	C	0.601306	-0.753201	0.768894
C55	C	0.742368	-1.403468	0.174606
C56	C	1.075702	-1.070135	0.507940
C57	C	1.409035	-0.736802	0.841273
C58	C	0.885963	-1.401766	0.208383
C59	C	1.219297	-1.068433	0.541716
C60	C	1.552630	-0.735099	0.875050
C61	C	0.550902	-0.639653	0.129570
C62	C	0.884235	-0.306320	0.462904
C63	C	1.217569	0.027014	0.796237
C64	C	0.584688	-0.773403	0.137523
C65	C	0.918021	-0.440069	0.470857
C66	C	1.251354	-0.106736	0.804190
N67	N	0.554945	-1.362278	0.484161
N68	N	0.888278	-1.028944	0.817494
N69	N	1.221612	-0.695611	1.150827
N70	N	0.462742	-1.475709	-0.244807
N71	N	0.796075	-1.142376	0.088526
N72	N	1.129408	-0.809043	0.421860
C73	C	0.519070	-1.406399	0.700664
C74	C	0.852403	-1.073066	1.033998
C75	C	1.185737	-0.739732	1.367331
C76	C	0.498609	-1.431598	0.538684
C77	C	0.831942	-1.098265	0.872017
C78	C	1.165275	-0.764932	1.205350
H79	H	0.327279	-1.027693	0.077008
H80	H	0.660612	-0.694359	0.410341
H81	H	0.993946	-0.361026	0.743675
Br82	Br	0.760919	-0.834844	0.178951
Br83	Br	1.094252	-0.501511	0.512284
Br84	Br	1.427585	-0.168178	0.845617
H85	H	0.063537	-1.452997	-0.085721
H86	H	0.396870	-1.119664	0.247612
H87	H	0.730204	-0.786331	0.580946
Br88	Br	0.196705	-1.390142	0.331651
Br89	Br	0.530038	-1.056808	0.664985
Br90	Br	0.863371	-0.723475	0.998318
Br91	Br	-0.179009	-1.447850	-0.092306
Br92	Br	0.154325	-1.114517	0.241027
Br93	Br	0.487658	-0.781184	0.574360
Br94	Br	-0.000398	-1.373712	0.402917
Br95	Br	0.332935	-1.040379	0.736250
Br96	Br	0.666268	-0.707045	1.069583
Br97	Br	0.624713	-1.276406	0.822712
Br98	Br	0.958046	-0.943072	1.156046
Br99	Br	1.291379	-0.609739	1.489379
H100	H	0.435237	-1.509603	0.465456
H101	H	0.768570	-1.176269	0.798789
H102	H	1.101904	-0.842936	1.132123
H103	H	0.618328	-1.284282	0.557391
H104	H	0.951661	-0.950948	0.890724
H105	H	1.284995	-0.617615	1.224058
H106	H	0.399374	-1.553709	0.681961
H107	H	0.732708	-1.220375	1.015294
H108	H	1.066041	-0.887042	1.348628
H109	H	0.632025	-1.024984	0.148648
H110	H	0.965358	-0.691650	0.481981
H111	H	1.298691	-0.358317	0.815315
H112	H	0.385648	-0.812993	0.090740
H113	H	0.718981	-0.479660	0.424073
H114	H	1.052315	-0.146326	0.757406
