data_functionalizedCrystal
_audit_creation_method	'MofGen! by Chris Wilmer'
_symmetry_space_group_name_H-M	'P1'
_symmetry_Int_Tables_number	1
_symmetry_cell_setting	triclinic
loop_
_symmetry_equiv_pos_as_xyz
  x,y,z
_cell_length_a	12.827893
_cell_length_b	12.759394
_cell_length_c	12.827885
_cell_angle_alpha	90.029261
_cell_angle_beta	90.019272
_cell_angle_gamma	90.014802
loop_
_atom_site_label
_atom_site_type_symbol
_atom_site_fract_x
_atom_site_fract_y
_atom_site_fract_z
Zn1	Zn	1.597675	-0.418211	0.590852
Zn2	Zn	1.597571	-0.593927	0.416114
Zn3	Zn	1.422916	-0.418263	0.416126
Zn4	Zn	1.422904	-0.593849	0.590814
O5	O	1.510267	-0.506062	0.503477
O6	O	1.743897	-0.441531	0.567684
O7	O	1.574365	-0.570679	0.269880
O8	O	1.446147	-0.271235	0.439325
O9	O	1.743821	-0.570629	0.439305
O10	O	1.574542	-0.271197	0.567696
O11	O	1.446047	-0.441619	0.269888
O12	O	1.276679	-0.441544	0.439288
O13	O	1.446126	-0.570496	0.737056
O14	O	1.276670	-0.570546	0.567631
O15	O	1.574529	-0.441456	0.737084
O16	O	1.574353	-0.740938	0.439268
O17	O	1.446025	-0.740881	0.567619
C18	C	1.238757	-0.506043	0.503457
C19	C	1.122604	-0.506060	0.503473
C20	C	0.950737	-0.569860	0.439881
C21	C	1.070788	-0.569843	0.439863
C22	C	1.510205	-0.779030	0.503461
C23	C	1.510274	-0.895807	0.503489
C24	C	1.644123	-1.115236	0.369980
C25	C	1.710962	-1.060367	0.303197
C26	C	1.710907	-0.950646	0.303176
C27	C	1.644005	-0.895790	0.369944
C28	C	1.577167	-0.950659	0.436727
C29	C	1.577231	-1.060383	0.436742
C30	C	1.443436	-0.950675	0.570272
C31	C	1.443494	-1.060397	0.570300
C32	C	1.376533	-0.895820	0.637039
C33	C	1.309699	-0.950689	0.703829
C34	C	1.309757	-1.060417	0.703848
C35	C	1.376655	-1.115266	0.637083
C36	C	1.782837	-0.506083	0.503497
C37	C	1.898990	-0.506091	0.503506
C38	C	1.510338	-0.505962	0.776047
C39	C	1.510368	-0.505919	0.892200
C40	C	1.510357	-0.232029	0.503516
C41	C	1.510396	-0.115252	0.503532
C42	C	1.510256	-0.506087	0.231967
C43	C	1.510428	-0.505834	0.115814
C44	C	1.573913	-0.442053	0.943999
C45	C	1.573946	-0.442007	1.064049
H46	H	1.115289	-0.624444	0.385397
H47	H	0.943564	-0.451480	0.557960
H48	H	1.455982	-0.560556	0.936730
H49	H	0.906163	-0.624461	0.385418
H50	H	1.456026	-0.560519	1.071276
O51	O	1.063672	-0.433728	0.575627
H52	H	1.013955	-0.480862	0.628674
O53	O	1.645994	-0.369562	1.123055
H54	H	1.699110	-0.416605	1.172794
H55	H	1.765430	-1.105042	0.248834
O56	O	1.644181	-1.233579	0.370007
H57	H	1.701924	-1.262505	0.312358
O58	O	1.237652	-1.119589	0.775873
H59	H	1.248919	-1.205103	0.764668
O60	O	1.376460	-0.777478	0.637024
H61	H	1.455248	-0.748465	0.658221
O62	O	1.782998	-0.891455	0.231153
H63	H	1.829534	-0.948027	0.184734
O64	O	1.237535	-0.891529	0.775827
H65	H	1.255417	-0.912514	0.857865
O66	O	1.643938	-0.777448	0.369922
H67	H	1.701655	-0.748510	0.312269
H68	H	1.628288	-0.387405	0.899469
O69	O	1.376708	-1.233609	0.637098
H70	H	1.434448	-1.262530	0.579445
