data_functionalizedCrystal
_audit_creation_method	'MofGen! by Chris Wilmer'
_symmetry_space_group_name_H-M	'P1'
_symmetry_Int_Tables_number	1
_symmetry_cell_setting	triclinic
loop_
_symmetry_equiv_pos_as_xyz
  x,y,z
_cell_length_a	10.489741
_cell_length_b	10.723024
_cell_length_c	9.198806
_cell_angle_alpha	89.997988
_cell_angle_beta	89.998741
_cell_angle_gamma	84.503522
loop_
_atom_site_label
_atom_site_type_symbol
_atom_site_fract_x
_atom_site_fract_y
_atom_site_fract_z
O1	O	1.693940	0.176060	-0.120798
O2	O	1.322734	0.192587	-0.120821
O3	O	1.516900	0.002753	-0.120804
O4	O	1.499775	0.365895	-0.120816
O5	O	1.516884	0.002752	0.120981
O6	O	1.322719	0.192586	0.120964
O7	O	1.693925	0.176060	0.120987
Cu8	Cu	1.508320	0.184323	0.143052
Cu9	Cu	1.508339	0.184324	-0.142887
O10	O	1.499759	0.365894	0.120970
C11	C	1.515646	-0.043748	0.000087
C12	C	1.511917	-0.182305	0.000082
C13	C	1.275196	0.191338	0.000069
C14	C	1.133569	0.187604	0.000060
C15	C	1.620562	-0.257221	0.000086
C16	C	1.616711	-0.400426	0.000081
C17	C	1.065506	0.066818	0.000078
C18	C	0.973350	0.123876	-0.119133
C19	C	0.973369	0.123905	0.119248
C20	C	1.043278	0.244712	-0.119250
C21	C	1.043306	0.244723	0.119239
C22	C	0.951178	0.301869	-0.000002
C23	C	1.741464	0.177308	0.000094
C24	C	1.883091	0.181043	0.000093
C25	C	1.501013	0.412395	0.000076
C26	C	1.504742	0.550951	0.000071
N27	N	1.508317	0.184322	0.344166
N28	N	1.508352	0.184315	-0.344000
C29	C	1.589841	0.104264	0.416370
C30	C	1.589861	0.104260	0.583783
H31	H	1.709719	-0.464802	0.000091
H32	H	1.438557	0.252864	0.593916
H33	H	1.411728	-0.384681	0.000077
N34	N	1.391660	-0.234853	0.000087
N35	N	1.363903	-0.304465	0.102002
H36	H	1.278968	-0.341577	0.102008
H37	H	1.074313	0.295788	0.220027
N38	N	0.934474	0.059798	-0.245580
N39	N	0.958229	0.099859	-0.369306
H40	H	0.930776	0.054601	-0.458608
H41	H	1.115259	-0.032476	-0.000068
H42	H	0.942417	0.072775	0.220032
N43	N	1.081924	0.308801	-0.245802
N44	N	1.197671	0.321990	-0.266254
H45	H	1.224968	0.367259	-0.355625
H46	H	1.659619	0.035722	0.354250
H47	H	1.438530	0.252855	0.406288
H48	H	0.901691	0.401268	-0.000070
H49	H	1.716428	-0.215340	0.000101
H50	H	1.659662	0.035724	0.645875
