data_functionalizedCrystal
_audit_creation_method	'MofGen! by Chris Wilmer'
_symmetry_space_group_name_H-M	'P1'
_symmetry_Int_Tables_number	1
_symmetry_cell_setting	triclinic
loop_
_symmetry_equiv_pos_as_xyz
  x,y,z
_cell_length_a	11.792241
_cell_length_b	11.792241
_cell_length_c	16.176319
_cell_angle_alpha	90.007015
_cell_angle_beta	90.000129
_cell_angle_gamma	84.193416
loop_
_atom_site_label
_atom_site_type_symbol
_atom_site_fract_x
_atom_site_fract_y
_atom_site_fract_z
O1	O	1.506910	0.155548	-0.068667
O2	O	1.176569	0.171581	-0.068686
O3	O	1.349756	-0.001606	-0.068670
O4	O	1.333723	0.328735	-0.068683
O5	O	1.349738	-0.001572	0.068823
O6	O	1.176551	0.171615	0.068807
O7	O	1.506892	0.155582	0.068827
Cu8	Cu	1.341720	0.163602	0.081371
Cu9	Cu	1.341741	0.163561	-0.081230
O10	O	1.333705	0.328769	0.068811
C11	C	1.134269	0.170591	0.000058
C12	C	1.008255	0.167576	0.000051
C13	C	0.777543	0.162034	0.000075
C14	C	0.905928	0.165113	0.000062
C15	C	1.348740	-0.043880	0.000076
C16	C	1.345726	-0.169894	0.000075
C17	C	1.340183	-0.400606	0.000061
C18	C	1.343262	-0.272221	0.000069
C19	C	1.549192	0.156572	0.000081
C20	C	1.675206	0.159587	0.000082
C21	C	1.334721	0.371043	0.000063
C22	C	1.337736	0.497057	0.000058
N23	N	1.341714	0.163629	0.195736
C24	C	1.272489	0.094248	0.761125
C25	C	1.272487	0.094255	0.674578
C26	C	1.341740	0.163565	0.631312
C27	C	1.411007	0.232863	0.674597
C28	C	1.411014	0.232849	0.761143
C29	C	1.410983	0.232920	0.325569
C30	C	1.410968	0.232931	0.239017
C31	C	1.272456	0.094327	0.239004
C32	C	1.272462	0.094313	0.325549
C33	C	1.341734	0.163606	0.368827
C34	C	1.341736	0.163595	0.462672
C35	C	1.341732	0.163582	0.537469
N36	N	1.341748	0.163543	0.804404
H37	H	1.216089	0.037814	0.796346
H38	H	1.467387	0.289344	0.360796
O39	O	1.478111	0.300319	0.632534
C40	C	1.409377	0.377292	0.582474
H41	H	1.319142	0.388868	0.608562
H42	H	1.407238	0.342217	0.516876
C43	C	1.569903	0.478901	0.549120
C44	C	1.459077	0.493125	0.581166
H45	H	1.600562	0.550350	0.548310
H46	H	1.616213	0.427040	0.582844
H47	H	1.568106	0.449668	0.494459
H48	H	1.460877	0.522344	0.635830
H49	H	1.412769	0.544993	0.547452
O50	O	1.205099	0.026914	0.632664
C51	C	1.143992	-0.034278	0.689410
H52	H	1.137662	0.012659	0.751110
H53	H	1.190200	-0.123060	0.698601
C54	C	1.031148	-0.102242	0.579855
C55	C	1.023366	-0.044589	0.655633
H56	H	0.956742	-0.108608	0.559019
H57	H	1.072320	-0.061020	0.541623
H58	H	1.069660	-0.176221	0.587524
H59	H	0.984868	0.029393	0.647961
H60	H	0.982185	-0.085799	0.693863
O61	O	1.205161	0.026880	0.367451
C62	C	1.144007	-0.034265	0.310694
H63	H	1.190940	-0.040564	0.248997
H64	H	1.055202	0.011892	0.301504
C65	C	1.076123	-0.147163	0.420233
C66	C	1.133772	-0.154907	0.344457
H67	H	1.069804	-0.221579	0.441060
H68	H	1.117320	-0.105966	0.458472
H69	H	1.002124	-0.108694	0.412564
H70	H	1.207773	-0.193362	0.352129
H71	H	1.092587	-0.196114	0.306220
O72	O	1.205105	0.027166	0.196872
C73	C	1.128063	0.095865	0.146840
H74	H	1.163902	0.180318	0.133882
H75	H	1.042860	0.112670	0.180202
C76	C	1.066569	-0.069602	0.080539
C77	C	1.110593	0.034121	0.064619
H78	H	1.055787	-0.107689	0.029823
H79	H	1.118470	-0.115886	0.114249
H80	H	0.995571	-0.055583	0.108343
H81	H	1.181595	0.020100	0.036825
H82	H	1.058702	0.080403	0.030902
H83	H	1.467366	0.289375	0.203793
H84	H	1.467413	0.289276	0.796380
