data_functionalizedCrystal
_audit_creation_method	'MofGen! by Chris Wilmer'
_symmetry_space_group_name_H-M	'P1'
_symmetry_Int_Tables_number	1
_symmetry_cell_setting	triclinic
loop_
_symmetry_equiv_pos_as_xyz
  x,y,z
_cell_length_a	16.992695
_cell_length_b	14.971482
_cell_length_c	15.455341
_cell_angle_alpha	92.994002
_cell_angle_beta	92.817188
_cell_angle_gamma	87.140416
loop_
_atom_site_label
_atom_site_type_symbol
_atom_site_fract_x
_atom_site_fract_y
_atom_site_fract_z
O1	O	0.099108	1.190405	-0.072120
O2	O	0.599108	1.690405	0.427880
O3	O	0.111348	0.930865	-0.072124
O4	O	0.611348	1.430865	0.427876
O5	O	-0.008915	1.059595	-0.072115
O6	O	0.491085	1.559595	0.427885
O7	O	0.219371	1.061675	-0.072129
O8	O	0.719371	1.561675	0.427871
O9	O	-0.002786	1.067024	0.072146
O10	O	0.497214	1.567024	0.572146
O11	O	0.117478	0.938294	0.072137
O12	O	0.617478	1.438294	0.572137
O13	O	0.105237	1.197835	0.072141
O14	O	0.605237	1.697835	0.572141
Cu15	Cu	0.111917	1.068743	0.085311
Cu16	Cu	0.611917	1.568743	0.585311
Cu17	Cu	0.104668	1.059957	-0.085294
Cu18	Cu	0.604668	1.559957	0.414706
O19	O	0.225501	1.069104	0.072132
O20	O	0.725501	1.569104	0.572132
C21	C	0.113866	0.901216	0.000006
C22	C	0.613866	1.401216	0.500006
C23	C	0.112227	0.801804	0.000004
C24	C	0.612227	1.301804	0.500004
C25	C	0.114796	0.759154	0.078642
C26	C	0.614796	1.259154	0.578642
C27	C	0.113244	0.665747	0.078643
C28	C	0.613244	1.165747	0.578643
C29	C	0.109128	0.614990	0.000005
C30	C	0.609128	1.114990	0.500005
C31	C	0.106556	0.657645	-0.078639
C32	C	0.606556	1.157645	0.421361
C33	C	0.108103	0.751052	-0.078639
C34	C	0.608103	1.251052	0.421361
C35	C	0.103334	0.462957	-0.078633
C36	C	0.603334	0.962957	0.421367
C37	C	0.101789	0.369544	-0.078633
C38	C	0.601789	0.869544	0.421367
C39	C	0.108475	0.377653	0.078649
C40	C	0.608475	0.877653	0.578649
C41	C	0.110022	0.471059	0.078649
C42	C	0.610022	0.971059	0.578649
C43	C	0.107452	0.513708	0.000004
C44	C	0.607452	1.013708	0.500004
C45	C	-0.035066	1.060633	0.000015
C46	C	0.464934	1.560633	0.500015
C47	C	-0.122117	1.052646	0.000015
C48	C	0.377883	1.552646	0.500015
C49	C	-0.172286	1.129710	0.000017
C50	C	0.327714	1.629710	0.500017
C51	C	-0.254080	1.122200	0.000008
C52	C	0.245920	1.622200	0.500008
C53	C	-0.285703	1.037624	0.000004
C54	C	0.214297	1.537624	0.500004
C55	C	-0.235528	0.960554	-0.000001
C56	C	0.264472	1.460554	0.499999
C57	C	-0.153736	0.968065	0.000001
C58	C	0.346264	1.468065	0.500001
C59	C	-0.529330	1.006494	-0.000008
C60	C	-0.029330	1.506494	0.499992
C61	C	-0.611129	0.998989	-0.000008
C62	C	-0.111129	1.498989	0.499992
C63	C	-0.629675	1.160636	-0.000000
C64	C	-0.129675	1.660636	0.500000
C65	C	-0.547881	1.168139	0.000007
C66	C	-0.047881	1.668139	0.500007
C67	C	-0.497713	1.091069	-0.000002
C68	C	0.002287	1.591069	0.499998
N69	N	-0.369309	1.029945	-0.000002
N70	N	0.130691	1.529945	0.499998
N71	N	-0.414108	1.098748	-0.000003
N72	N	0.085892	1.598748	0.499997
C73	C	0.251651	1.068067	-0.000000
C74	C	0.751651	1.568067	0.500000
C75	C	0.338702	1.076053	-0.000006
C76	C	0.838702	1.576053	0.499994
C77	C	0.102719	1.227483	0.000009
C78	C	0.602719	1.727483	0.500009
C79	C	0.104358	1.326895	0.000005
C80	C	0.604358	1.826895	0.500005
N81	N	0.117015	1.074929	0.205305
N82	N	0.617015	1.574929	0.705305
N83	N	0.099564	1.053777	-0.205289
N84	N	0.599564	1.553777	0.294711
C85	C	0.145272	1.109088	0.749308
C86	C	0.645272	1.609088	1.249308
C87	C	0.141411	1.104414	0.658501
C88	C	0.641411	1.604414	1.158501
C89	C	0.091838	1.044434	0.613098
C90	C	0.591838	1.544434	1.113098
C91	C	0.046129	0.989117	0.658507
C92	C	0.546129	1.489117	1.158507
C93	C	0.049994	0.993787	0.749313
C94	C	0.549994	1.493787	1.249313
C95	C	0.075172	1.024282	0.341520
C96	C	0.575172	1.524282	0.841520
C97	C	0.071308	1.019618	0.250708
C98	C	0.571308	1.519618	0.750708
C99	C	0.166591	1.134914	0.250708
C100	C	0.666591	1.634914	0.750708
C101	C	0.170449	1.139583	0.341516
C102	C	0.670449	1.639583	0.841516
C103	C	0.124743	1.084263	0.386917
C104	C	0.624743	1.584263	0.886917
N105	N	0.087888	1.039657	0.520279
N106	N	0.587888	1.539657	1.020279
N107	N	0.128697	1.089036	0.479734
N108	N	0.628697	1.589036	0.979734
H109	H	0.101241	0.497679	-0.142673
H110	H	0.601241	0.997679	0.357327
H111	H	-0.522140	1.237009	0.000011
H112	H	-0.022140	1.737009	0.500011
C113	C	0.182996	0.575562	0.169882
C114	C	0.682996	1.075562	0.669882
C115	C	0.114547	0.526855	0.165087
C116	C	0.614547	1.026855	0.665087
H117	H	0.185788	0.610004	0.223249
H118	H	0.685788	1.110004	0.723249
H119	H	0.181682	0.614324	0.123050
H120	H	0.681682	1.114324	0.623050
H121	H	0.227941	0.535387	0.166615
H122	H	0.727941	1.035387	0.666615
H123	H	0.069601	0.567030	0.168348
H124	H	0.569601	1.067030	0.668348
H125	H	0.115854	0.488090	0.211932
H126	H	0.615854	0.988090	0.711932
C127	C	0.173321	0.846157	-0.169881
C128	C	0.673321	1.346157	0.330119
C129	C	0.105282	0.797939	-0.165077
C130	C	0.605282	1.297939	0.334923
H131	H	0.171572	0.875107	-0.223244
H132	H	0.671572	1.375107	0.276756
H133	H	0.218540	0.806328	-0.166622
H134	H	0.718540	1.306328	0.333378
H135	H	0.175984	0.889747	-0.123041
H136	H	0.675984	1.389747	0.376959
H137	H	0.102621	0.754344	-0.211914
H138	H	0.602621	1.254344	0.288086
H139	H	0.060050	0.837772	-0.168345
H140	H	0.560050	1.337772	0.331655
C141	C	-0.359956	1.203722	-0.074158
C142	C	0.140044	1.703722	0.425842
C143	C	-0.309222	1.206915	0.000008
C144	C	0.190778	1.706915	0.500008
H145	H	-0.393993	1.256028	-0.074162
H146	H	0.106007	1.756028	0.425838
H147	H	-0.390496	1.152288	-0.074157
H148	H	0.109504	1.652288	0.425843
H149	H	-0.329783	1.200698	-0.124455
H150	H	0.170217	1.700698	0.375545
H151	H	-0.339395	1.209932	0.050305
H152	H	0.160605	1.709932	0.550305
H153	H	-0.278679	1.258363	0.000014
H154	H	0.221321	1.758363	0.500014
C155	C	-0.019409	0.909859	0.332399
C156	C	0.480591	1.409859	0.832399
C157	C	0.024926	0.963487	0.391423
C158	C	0.524926	1.463487	0.891423
H159	H	-0.050433	0.872331	0.363213
H160	H	0.449567	1.372331	0.863213
H161	H	0.015114	0.873957	0.296975
H162	H	0.515114	1.373957	0.796975
H163	H	-0.052985	0.946922	0.296988
H164	H	0.447015	1.446922	0.796988
H165	H	0.058507	0.926424	0.426830
H166	H	0.558507	1.426424	0.926830
H167	H	-0.009600	0.999392	0.426861
H168	H	0.490400	1.499392	0.926861
H169	H	0.012776	0.948745	0.786278
H170	H	0.512776	1.448745	1.286278
C171	C	-0.087928	1.235760	0.074183
C172	C	0.412072	1.735760	0.574183
C173	C	-0.137532	1.222680	0.000022
C174	C	0.362468	1.722680	0.500022
H175	H	-0.066479	1.293160	0.074185
H176	H	0.433521	1.793160	0.574185
H177	H	-0.046343	1.190947	0.074178
H178	H	0.453657	1.690947	0.574178
H179	H	-0.117324	1.232058	0.124483
H180	H	0.382676	1.732058	0.624483
H181	H	-0.108134	1.226376	-0.050278
H182	H	0.391866	1.726376	0.449722
H183	H	-0.179123	1.267506	0.000019
H184	H	0.320877	1.767506	0.500019
C185	C	-0.763292	1.220900	-0.000009
C186	C	-0.263292	1.720900	0.499991
C187	C	-0.684822	1.245347	-0.000003
C188	C	-0.184822	1.745347	0.499997
H189	H	-0.797336	1.273201	-0.000019
H190	H	-0.297336	1.773201	0.499981
H191	H	-0.770750	1.189062	0.050295
H192	H	-0.270750	1.689062	0.550295
H193	H	-0.775011	1.183867	-0.050319
H194	H	-0.275011	1.683867	0.449681
H195	H	-0.673102	1.282374	0.050311
H196	H	-0.173102	1.782374	0.550311
H197	H	-0.677361	1.277200	-0.050312
H198	H	-0.177361	1.777200	0.449688
H199	H	0.005769	0.940276	0.621533
H200	H	0.505769	1.440276	1.121533
H201	H	-0.488493	0.943737	-0.000016
H202	H	0.011507	1.443737	0.499984
H203	H	-0.261282	0.891690	-0.000010
H204	H	0.238718	1.391690	0.499990
H205	H	0.203803	1.179951	0.213733
H206	H	0.703803	1.679951	0.713733
H207	H	0.118155	0.800474	0.142678
H208	H	0.618155	1.300474	0.642678
H209	H	0.115323	0.631028	0.142677
H210	H	0.615323	1.131028	0.642677
C211	C	0.264258	1.253066	0.332391
C212	C	0.764258	1.753066	0.832391
C213	C	0.224949	1.205507	0.391420
C214	C	0.724949	1.705507	0.891420
H215	H	0.297906	1.293761	0.363202
H216	H	0.797906	1.793761	0.863202
H217	H	0.226719	1.285327	0.296986
H218	H	0.726719	1.785327	0.796986
H219	H	0.294817	1.212360	0.296962
H220	H	0.794817	1.712360	0.796962
H221	H	0.194385	1.246212	0.426845
H222	H	0.694385	1.746212	0.926845
H223	H	0.262493	1.173244	0.426840
H224	H	0.762493	1.673244	0.926840
H225	H	0.110569	0.342924	0.142684
H226	H	0.610569	0.842924	0.642684
C227	C	0.095331	0.370907	-0.234100
C228	C	0.595331	0.870907	0.265900
C229	C	0.097266	0.313750	-0.165072
C230	C	0.597266	0.813750	0.334928
H231	H	0.092537	0.336460	-0.287463
H232	H	0.592537	0.836460	0.212537
H233	H	0.141759	0.403952	-0.230835
H234	H	0.641759	0.903952	0.269165
H235	H	0.050374	0.411064	-0.230823
H236	H	0.550374	0.911064	0.269177
H237	H	0.142226	0.273597	-0.168345
H238	H	0.642226	0.773597	0.331655
H239	H	0.050833	0.280689	-0.168338
H240	H	0.550833	0.780689	0.331662
C241	C	-0.584585	0.839953	-0.000042
C242	C	-0.084585	1.339953	0.499958
C243	C	-0.645890	0.906016	-0.000027
C244	C	-0.145890	1.406016	0.499973
H245	H	-0.606048	0.782559	-0.000060
H246	H	-0.106048	1.282559	0.499940
H247	H	-0.550936	0.848821	0.050264
H248	H	-0.050936	1.348821	0.550264
H249	H	-0.555203	0.843667	-0.050351
H250	H	-0.055203	1.343667	0.449649
H251	H	-0.675270	0.902306	0.050286
H252	H	-0.175270	1.402306	0.550286
H253	H	-0.679553	0.897144	-0.050337
H254	H	-0.179553	1.397144	0.449663
H255	H	0.185636	1.157933	0.786269
H256	H	0.685636	1.657933	1.286269
H257	H	0.103199	0.616312	-0.142667
H258	H	0.603199	1.116312	0.357333
H259	H	-0.112888	0.905310	-0.000001
H260	H	0.387112	1.405310	0.499999
C261	C	0.271633	1.147486	0.630550
C262	C	0.771633	1.647486	1.130550
C263	C	0.191655	1.165219	0.608602
C264	C	0.691655	1.665219	1.108602
H265	H	0.302653	1.185032	0.599750
H266	H	0.802653	1.685032	1.099750
H267	H	0.285476	1.086567	0.615654
H268	H	0.785476	1.586567	1.115654
H269	H	0.281012	1.158850	0.691131
H270	H	0.781012	1.658850	1.191131
H271	H	0.182275	1.153849	0.548022
H272	H	0.682275	1.653849	1.048022
H273	H	0.177807	1.226153	0.623492
H274	H	0.677807	1.726153	1.123492
H275	H	0.030940	0.970770	0.213743
H276	H	0.530940	1.470770	0.713743
