data_functionalizedCrystal
_audit_creation_method	'MofGen! by Chris Wilmer'
_symmetry_space_group_name_H-M	'P1'
_symmetry_Int_Tables_number	1
_symmetry_cell_setting	triclinic
loop_
_symmetry_equiv_pos_as_xyz
  x,y,z
_cell_length_a	10.967819
_cell_length_b	13.262508
_cell_length_c	10.065875
_cell_angle_alpha	114.496368
_cell_angle_beta	69.228723
_cell_angle_gamma	87.884987
loop_
_atom_site_label
_atom_site_type_symbol
_atom_site_fract_x
_atom_site_fract_y
_atom_site_fract_z
O1	O	1.735215	0.080993	-0.491538
O2	O	1.356069	0.108471	-0.392168
O3	O	1.565113	-0.066682	-0.506344
O4	O	1.526171	0.256146	-0.377362
O5	O	1.525244	-0.033153	-0.257534
O6	O	1.316200	0.142000	-0.143357
O7	O	1.695346	0.114522	-0.242728
Zn8	Zn	1.499443	0.133585	-0.153538
Zn9	Zn	1.551972	0.089408	-0.481357
O10	O	1.486302	0.289675	-0.128551
C11	C	1.287786	0.125768	-0.256194
C12	C	1.143724	0.127343	-0.221727
C13	C	0.951263	0.112312	-0.299654
C14	C	1.100159	0.110677	-0.335271
C15	C	1.546662	-0.091137	-0.397591
C16	C	1.551067	-0.213959	-0.444223
C17	C	1.476543	-0.487077	-0.033146
C18	C	1.472394	-0.371678	0.010671
C19	C	1.492062	-0.332242	-0.103048
C20	C	1.515879	-0.408217	-0.260594
C21	C	1.520018	-0.523626	-0.304413
C22	C	1.535538	-0.368792	-0.374315
C23	C	1.559355	-0.444767	-0.531860
C24	C	1.563494	-0.560164	-0.575672
C25	C	1.543826	-0.599599	-0.461952
C26	C	1.531399	-0.253383	-0.330496
C27	C	1.574874	-0.289932	-0.601762
C28	C	1.579023	-0.405331	-0.645580
C29	C	1.763630	0.097224	-0.378705
C30	C	1.907693	0.095648	-0.413181
C31	C	1.504753	0.314130	-0.237308
C32	C	1.500350	0.436950	-0.190686
N33	N	1.463602	0.163733	0.070187
N34	N	1.587824	0.059251	-0.705088
C35	C	1.539494	0.099891	0.096420
C36	C	1.511920	0.123102	0.268688
H37	H	0.980622	0.080178	-0.536741
H38	H	1.511995	-0.191533	-0.202218
C39	C	1.044747	0.254433	0.059606
C40	C	1.045282	0.148238	-0.054908
H41	H	0.983966	0.267332	0.162587
H42	H	1.131884	0.256067	0.057556
H43	H	1.018007	0.311924	0.036349
H44	H	1.072033	0.090746	-0.031658
H45	H	0.958127	0.146595	-0.052854
H46	H	1.488680	-0.238278	-0.067362
C47	C	1.719667	-0.051692	0.011780
C48	C	1.654768	0.002902	-0.045414
H49	H	1.790828	-0.111575	-0.075784
H50	H	1.754219	0.001246	0.079021
H51	H	1.657968	-0.081790	0.070871
H52	H	1.716464	0.033008	-0.104495
H53	H	1.620217	-0.050046	-0.112683
H54	H	1.453015	-0.309829	0.138941
C55	C	1.606106	-0.584705	-0.839423
C56	C	1.589697	-0.643680	-0.748852
H57	H	1.622299	-0.636268	-0.946341
H58	H	1.527415	-0.528536	-0.794943
H59	H	1.679749	-0.549330	-0.838429
H60	H	1.516047	-0.679048	-0.749837
H61	H	1.668396	-0.699870	-0.793345
C62	C	1.275777	0.200876	0.397407
C63	C	1.396636	0.220090	0.410524
H64	H	1.204608	0.260747	0.484977
H65	H	1.279190	0.198010	0.300261
H66	H	1.261558	0.130845	0.398114
H67	H	1.410860	0.290117	0.409805
H68	H	1.393224	0.222967	0.507695
C69	C	0.892263	0.048443	-0.098608
C70	C	0.852824	0.133206	-0.132841
H71	H	0.831495	0.061349	0.004383
H72	H	0.892624	-0.023586	-0.176299
H73	H	0.979411	0.050095	-0.100665
H74	H	0.765679	0.131549	-0.130795
H75	H	0.852449	0.205253	-0.055128
H76	H	1.673213	-0.012599	0.189840
H77	H	1.547209	-0.693566	-0.497623
H78	H	1.378209	0.235570	0.175260
C79	C	1.343705	-0.580328	0.107011
C80	C	1.454934	-0.530435	0.091830
H81	H	1.330373	-0.607103	0.184165
H82	H	1.266833	-0.525652	0.140262
H83	H	1.358489	-0.642081	0.006901
H84	H	1.440146	-0.468677	0.191938
H85	H	1.531824	-0.585116	0.058587
H86	H	1.173085	0.095206	-0.458839
C87	C	1.587701	-0.129244	-0.655011
C88	C	1.596399	-0.246584	-0.726750
H89	H	1.600964	-0.102477	-0.732162
H90	H	1.501947	-0.092445	-0.570284
H91	H	1.654311	-0.113235	-0.613957
H92	H	1.529782	-0.262593	-0.767794
H93	H	1.682165	-0.283396	-0.811506
H94	H	1.598414	-0.467206	-0.773855
