data_functionalizedCrystal
_audit_creation_method	'MofGen! by Chris Wilmer'
_symmetry_space_group_name_H-M	'P1'
_symmetry_Int_Tables_number	1
_symmetry_cell_setting	triclinic
loop_
_symmetry_equiv_pos_as_xyz
  x,y,z
_cell_length_a	18.215407
_cell_length_b	12.827892
_cell_length_c	18.215399
_cell_angle_alpha	89.973753
_cell_angle_beta	89.983176
_cell_angle_gamma	90.015840
loop_
_atom_site_label
_atom_site_type_symbol
_atom_site_fract_x
_atom_site_fract_y
_atom_site_fract_z
Zn1	Zn	1.125099	-0.416006	-0.416137
Zn2	Zn	1.625099	0.083994	0.083863
Zn3	Zn	1.125034	-0.590773	-0.293079
Zn4	Zn	1.625034	-0.090773	0.206921
Zn5	Zn	1.002038	-0.416048	-0.293084
Zn6	Zn	1.502038	0.083952	0.206916
Zn7	Zn	1.002017	-0.590707	-0.416104
Zn8	Zn	1.502017	-0.090707	0.083896
O9	O	1.063547	-0.503384	-0.354601
O10	O	1.563547	-0.003384	0.145399
O11	O	1.228074	-0.439200	-0.399825
O12	O	1.728074	0.060800	0.100175
O13	O	1.108700	-0.567640	-0.190096
O14	O	1.608700	-0.067640	0.309904
O15	O	1.018398	-0.269806	-0.309423
O16	O	1.518398	0.230194	0.190577
O17	O	1.228027	-0.567600	-0.309415
O18	O	1.728027	-0.067600	0.190585
O19	O	1.108810	-0.269776	-0.399829
O20	O	1.608810	0.230224	0.100171
O21	O	1.018335	-0.439270	-0.190099
O22	O	1.518335	0.060730	0.309901
O23	O	0.899051	-0.439207	-0.309392
O24	O	1.399051	0.060793	0.190608
O25	O	1.018363	-0.567488	-0.519093
O26	O	1.518363	-0.067488	-0.019093
O27	O	0.899036	-0.567528	-0.399774
O28	O	1.399036	-0.067528	0.100226
O29	O	1.108790	-0.439136	-0.519117
O30	O	1.608790	0.060864	-0.019117
O31	O	1.108680	-0.737000	-0.309383
O32	O	1.608680	-0.237000	0.190617
O33	O	1.018300	-0.736952	-0.399769
O34	O	1.518300	-0.236952	0.100231
C35	C	0.872341	-0.503366	-0.354580
C36	C	1.372341	-0.003366	0.145420
C37	C	0.790542	-0.503383	-0.354589
C38	C	1.290542	-0.003383	0.145411
C39	C	0.602359	-0.570305	-0.401592
C40	C	1.102359	-0.070305	0.098408
C41	C	0.525501	-0.570309	-0.401601
C42	C	1.025501	-0.070309	0.098399
C43	C	0.525486	-0.436481	-0.307627
C44	C	1.025486	0.063519	0.192373
C45	C	0.602344	-0.436473	-0.307622
C46	C	1.102344	0.063527	0.192378
C47	C	0.640778	-0.503391	-0.354603
C48	C	1.140778	-0.003391	0.145397
C49	C	0.487062	-0.503402	-0.354617
C50	C	0.987062	-0.003402	0.145383
C51	C	0.403729	-0.503405	-0.354627
C52	C	0.903729	-0.003405	0.145373
C53	C	0.724117	-0.503387	-0.354595
C54	C	1.224117	-0.003387	0.145405
C55	C	1.063501	-0.774894	-0.354588
C56	C	1.563501	-0.274894	0.145412
C57	C	1.063549	-0.891047	-0.354607
C58	C	1.563549	-0.391047	0.145393
C59	C	1.108324	-0.942821	-0.309931
C60	C	1.608324	-0.442821	0.190069
C61	C	1.108375	-1.062871	-0.309950
C62	C	1.608375	-0.562871	0.190050
C63	C	1.255500	-0.503402	-0.354623
C64	C	1.755500	-0.003402	0.145377
C65	C	1.337299	-0.503410	-0.354632
C66	C	1.837299	-0.003410	0.145368
C67	C	1.063582	-0.503300	-0.546554
C68	C	1.563582	-0.003300	-0.046554
C69	C	1.063596	-0.503265	-0.628353
C70	C	1.563596	-0.003265	-0.128353
C71	C	1.063613	-0.230814	-0.354630
C72	C	1.563613	0.269186	0.145370
C73	C	1.063641	-0.114660	-0.354643
C74	C	1.563641	0.385340	0.145357
C75	C	1.016583	-0.436377	-0.816550
C76	C	1.516583	0.063623	-0.316550
C77	C	1.016596	-0.436356	-0.893409
C78	C	1.516596	0.063644	-0.393409
C79	C	1.110698	-0.570027	-0.893394
C80	C	1.610698	-0.070027	-0.393394
C81	C	1.110681	-0.570053	-0.816537
C82	C	1.610681	-0.070053	-0.316537
C83	C	1.063625	-0.503222	-0.778117
C84	C	1.563625	-0.003222	-0.278117
C85	C	1.063654	-0.503175	-0.931833
C86	C	1.563654	-0.003175	-0.431833
C87	C	1.063669	-0.503153	-1.015167
C88	C	1.563669	-0.003153	-0.515167
C89	C	1.063609	-0.503245	-0.694778
C90	C	1.563609	-0.003245	-0.194778
C91	C	1.063555	-0.503391	-0.163395
C92	C	1.563555	-0.003391	0.336605
C93	C	1.063682	-0.503133	-0.081597
C94	C	1.563682	-0.003133	0.418403
H95	H	0.494184	-0.382000	-0.269375
H96	H	0.994184	0.118000	0.230625
C97	C	1.162446	-0.643572	-0.774258
C98	C	1.662446	-0.143572	-0.274258
N99	N	1.201438	-0.698938	-0.742413
N100	N	1.701438	-0.198938	-0.242413
H101	H	0.633650	-0.624792	-0.439849
H102	H	1.133650	-0.124792	0.060151
C103	C	0.483243	-0.643929	-0.453285
C104	C	0.983243	-0.143929	0.046715
N105	N	0.451416	-0.699387	-0.492214
N106	N	0.951416	-0.199387	0.007786
H107	H	1.149010	-0.624438	-0.924685
H108	H	1.649010	-0.124438	-0.424685
C109	C	0.644607	-0.362859	-0.255928
C110	C	1.144607	0.137141	0.244072
N111	N	0.676440	-0.307413	-0.216995
N112	N	1.176440	0.192587	0.283005
H113	H	1.146707	-1.107395	-0.271699
H114	H	1.646707	-0.607395	0.228301
C115	C	1.160063	-0.882639	-0.258237
C116	C	1.660063	-0.382639	0.241763
N117	N	1.199033	-0.837312	-0.219299
N118	N	1.699033	-0.337312	0.280701
C119	C	1.011850	-1.054520	-0.406320
C120	C	1.511850	-0.554520	0.093680
N121	N	0.972841	-1.009214	-0.445244
N122	N	1.472841	-0.509214	0.054756
H123	H	0.978267	-0.381960	-0.785270
H124	H	1.478267	0.118040	-0.285270
H125	H	1.025255	-0.935598	-0.392873
H126	H	1.525255	-0.435598	0.107127
C127	C	0.964851	-0.362816	-0.935682
C128	C	1.464851	0.137184	-0.435682
N129	N	0.925875	-0.307421	-0.967521
N130	N	1.425875	0.192579	-0.467521
