data_functionalizedCrystal
_audit_creation_method	'MofGen! by Chris Wilmer'
_symmetry_space_group_name_H-M	'P1'
_symmetry_Int_Tables_number	1
_symmetry_cell_setting	triclinic
loop_
_symmetry_equiv_pos_as_xyz
  x,y,z
_cell_length_a	10.654543
_cell_length_b	10.654550
_cell_length_c	9.130313
_cell_angle_alpha	89.995631
_cell_angle_beta	89.998857
_cell_angle_gamma	95.516448
loop_
_atom_site_label
_atom_site_type_symbol
_atom_site_fract_x
_atom_site_fract_y
_atom_site_fract_z
O1	O	-1.667844	0.176358	-0.121641
O2	O	-1.167844	0.676358	0.378359
O3	O	-1.302365	0.193173	-0.121679
O4	O	-0.802365	0.693173	0.378321
O5	O	-1.493508	0.002026	-0.121650
O6	O	-0.993508	0.502026	0.378350
O7	O	-1.476702	0.367505	-0.121670
O8	O	-0.976702	0.867505	0.378330
O9	O	-1.493494	0.002021	0.121949
O10	O	-0.993494	0.502021	0.621949
O11	O	-1.302352	0.193168	0.121920
O12	O	-0.802352	0.693168	0.621920
O13	O	-1.667831	0.176353	0.121957
O14	O	-1.167831	0.676353	0.621957
Cu15	Cu	-1.485090	0.184760	0.144181
Cu16	Cu	-0.985090	0.684760	0.644181
Cu17	Cu	-1.485106	0.184766	-0.143903
Cu18	Cu	-0.985106	0.684766	0.356097
O19	O	-1.476688	0.367500	0.121929
O20	O	-0.976688	0.867500	0.621929
C21	C	-1.255560	0.191938	0.000116
C22	C	-0.755560	0.691938	0.500116
C23	C	-1.116116	0.188249	0.000102
C24	C	-0.616116	0.688249	0.500102
C25	C	-1.492267	-0.044774	0.000148
C26	C	-0.992267	0.455226	0.500148
C27	C	-1.488575	-0.184217	0.000146
C28	C	-0.988575	0.315783	0.500146
C29	C	-1.036631	0.300793	0.000098
C30	C	-0.536631	0.800793	0.500098
C31	C	-0.905609	0.297319	0.000120
C32	C	-0.405609	0.797319	0.500120
C33	C	-0.933573	0.068749	0.000144
C34	C	-0.433573	0.568749	0.500144
C35	C	-1.064591	0.072224	0.000132
C36	C	-0.564591	0.572224	0.500132
C37	C	-1.601117	-0.263706	0.000157
C38	C	-1.101117	0.236294	0.500157
C39	C	-1.597641	-0.394726	0.000139
C40	C	-1.097641	0.105274	0.500139
C41	C	-1.369070	-0.366758	0.000105
C42	C	-0.869070	0.133242	0.500105
C43	C	-1.372548	-0.235740	0.000112
C44	C	-0.872548	0.264260	0.500112
C45	C	-0.714635	0.177595	0.000152
C46	C	-0.214635	0.677595	0.500152
C47	C	-0.854077	0.181301	0.000135
C48	C	-0.354077	0.681301	0.500135
C49	C	-1.477929	0.414300	0.000127
C50	C	-0.977929	0.914300	0.500127
C51	C	-1.481621	0.553744	0.000120
C52	C	-0.981621	1.053744	0.500120
N53	N	-1.485088	0.184754	0.346804
N54	N	-0.985088	0.684754	0.846804
N55	N	-1.485117	0.184762	-0.346525
N56	N	-0.985117	0.684762	0.153475
C57	C	-1.569755	0.100150	0.423468
C58	C	-1.069755	0.600150	0.923468
C59	C	-1.569767	0.100151	0.576805
C60	C	-1.069767	0.600151	1.076805
C61	C	-1.400442	0.269370	0.576799
C62	C	-0.900442	0.769370	1.076799
C63	C	-1.400424	0.269363	0.423465
C64	C	-0.900424	0.769363	0.923465
H65	H	-1.078578	0.395268	0.000084
H66	H	-0.578578	0.895268	0.500084
H67	H	-0.891604	-0.025715	0.000177
H68	H	-0.391604	0.474285	0.500177
H69	H	-0.840896	0.388964	0.000119
H70	H	-0.340896	0.888964	0.500119
H71	H	-1.695593	-0.221761	0.000181
H72	H	-1.195593	0.278239	0.500181
F73	F	-1.659878	0.010102	0.658392
F74	F	-1.159878	0.510102	1.158392
H75	H	-1.689284	-0.459442	0.000144
H76	H	-1.189284	0.040558	0.500144
H77	H	-1.331512	0.338258	0.639233
H78	H	-0.831512	0.838258	1.139233
F79	F	-1.245593	-0.421603	0.000068
F80	F	-0.745593	0.078397	0.500068
F81	F	-1.659859	0.010100	0.341885
F82	F	-1.159859	0.510100	0.841885
H83	H	-1.280897	-0.171016	0.000099
H84	H	-0.780897	0.328984	0.500099
H85	H	-1.331472	0.338258	0.361041
H86	H	-0.831472	0.838258	0.861041
H87	H	-1.129313	-0.019428	0.000140
H88	H	-0.629313	0.480572	0.500140
