data_functionalizedCrystal
_audit_creation_method	'MofGen! by Chris Wilmer'
_symmetry_space_group_name_H-M	'P1'
_symmetry_Int_Tables_number	1
_symmetry_cell_setting	triclinic
loop_
_symmetry_equiv_pos_as_xyz
  x,y,z
_cell_length_a	10.489711
_cell_length_b	10.489711
_cell_length_c	15.455313
_cell_angle_alpha	87.304211
_cell_angle_beta	87.290240
_cell_angle_gamma	95.472991
loop_
_atom_site_label
_atom_site_type_symbol
_atom_site_fract_x
_atom_site_fract_y
_atom_site_fract_z
O1	O	1.699599	-0.174259	-0.072155
O2	O	2.199599	0.325741	0.427845
O3	O	1.328396	-0.191192	-0.072149
O4	O	1.828396	0.308808	0.427851
O5	O	1.522464	0.002876	-0.072154
O6	O	2.022464	0.502876	0.427846
O7	O	1.505531	-0.368327	-0.072149
O8	O	2.005531	0.131673	0.427851
O9	O	1.511366	-0.008176	0.072108
O10	O	2.011366	0.491824	0.572108
O11	O	1.317298	-0.202244	0.072114
O12	O	1.817298	0.297756	0.572114
O13	O	1.688501	-0.185310	0.072108
O14	O	2.188501	0.314690	0.572108
Cu15	Cu	1.501886	-0.194786	0.085283
Cu16	Cu	2.001886	0.305214	0.585283
Cu17	Cu	1.515011	-0.181716	-0.085324
Cu18	Cu	2.015011	0.318284	0.414676
O19	O	1.494433	-0.379378	0.072113
O20	O	1.994433	0.120622	0.572113
C21	C	1.275315	-0.195447	-0.000017
C22	C	1.775315	0.304553	0.499983
C23	C	1.133684	-0.191645	-0.000015
C24	C	1.633684	0.308355	0.499985
C25	C	0.951286	-0.308351	-0.000023
C26	C	1.451286	0.191649	0.499977
C27	C	1.048909	-0.244605	-0.071152
C28	C	1.548909	0.255395	0.428848
C29	C	1.037940	-0.255470	0.071080
C30	C	1.537940	0.244530	0.571080
C31	C	0.978977	-0.121056	-0.071221
C32	C	1.478977	0.378944	0.428779
C33	C	0.967993	-0.131942	0.071074
C34	C	1.467993	0.368058	0.571074
C35	C	1.065591	-0.068106	-0.000071
C36	C	1.565591	0.431894	0.499929
C37	C	1.515644	0.044882	-0.000026
C38	C	2.015644	0.544882	0.499974
C39	C	1.511843	0.186514	-0.000033
C40	C	2.011843	0.686514	0.499967
C41	C	1.741582	-0.181055	-0.000026
C42	C	2.241582	0.318945	0.499974
C43	C	1.883214	-0.184857	-0.000034
C44	C	2.383214	0.315143	0.499966
C45	C	1.501253	-0.421385	-0.000018
C46	C	2.001253	0.078615	0.499982
C47	C	1.505055	-0.563016	-0.000016
C48	C	2.005055	-0.063016	0.499984
C49	C	1.628549	0.368912	-0.000026
C50	C	2.128549	0.868912	0.499974
C51	C	1.564780	0.271313	0.071103
C52	C	2.064780	0.771313	0.571103
C53	C	1.575691	0.282233	-0.071128
C54	C	2.075691	0.782233	0.428872
C55	C	1.441231	0.341246	0.071172
C56	C	1.941231	0.841246	0.571172
C57	C	1.452163	0.352180	-0.071123
C58	C	1.952163	0.852180	0.428877
C59	C	1.388304	0.254607	0.000023
C60	C	1.888304	0.754607	0.500023
N61	N	1.492664	-0.203978	0.205279
N62	N	1.992664	0.296022	0.705279
N63	N	1.524243	-0.172515	-0.205320
N64	N	2.024243	0.327485	0.294680
C65	C	1.575140	-0.121562	0.250671
C66	C	2.075140	0.378438	0.750671
C67	C	1.568178	-0.128525	0.341479
C68	C	2.068178	0.371475	0.841479
C69	C	1.478745	-0.217912	0.386893
C70	C	1.978745	0.282088	0.886893
C71	C	1.396260	-0.300331	0.341495
C72	C	1.896260	0.199669	0.841495
C73	C	1.403217	-0.293361	0.250689
C74	C	1.903217	0.206639	0.750689
C75	C	1.448715	-0.247964	0.658475
C76	C	1.948715	0.252036	1.158475
C77	C	1.441767	-0.254931	0.749288
C78	C	1.941767	0.245069	1.249288
C79	C	1.613684	-0.083122	0.749266
C80	C	2.113684	0.416878	1.249266
C81	C	1.620638	-0.076165	0.658457
C82	C	2.120638	0.423835	1.158457
C83	C	1.538149	-0.158580	0.613067
C84	C	2.038149	0.341420	1.113067
N85	N	1.471629	-0.225034	0.479714
N86	N	1.971629	0.274966	0.979714
N87	N	1.545260	-0.151450	0.520248
N88	N	2.045260	0.348550	1.020248
H89	H	1.115062	0.033493	-0.000108
H90	H	1.615062	0.533493	0.499892
Cl91	Cl	1.733071	0.036206	0.601365
Cl92	Cl	2.233071	0.536206	1.101365
H93	H	1.084524	-0.292255	-0.131282
H94	H	1.584524	0.207745	0.368718
Cl95	Cl	1.663539	0.241551	-0.163968
Cl96	Cl	2.163539	0.741551	0.336032
H97	H	1.612408	0.235725	0.131236
H98	H	2.112408	0.735725	0.631236
H99	H	1.680842	-0.016022	0.786231
H100	H	2.180842	0.483978	1.286231
H101	H	1.381551	-0.315072	0.621526
H102	H	1.881551	0.184928	1.121526
Cl103	Cl	1.353477	0.381676	0.164122
Cl104	Cl	1.853477	0.881676	0.664122
H105	H	1.635335	-0.061415	0.378436
H106	H	2.135335	0.438585	0.878436
Cl107	Cl	1.283822	-0.412699	0.398586
Cl108	Cl	1.783822	0.087301	0.898586
Cl109	Cl	1.687583	-0.009190	0.193587
Cl110	Cl	2.187583	0.490810	0.693587
H111	H	0.952805	-0.064240	-0.131425
H112	H	1.452805	0.435760	0.368575
Cl113	Cl	0.912955	-0.058447	0.163920
Cl114	Cl	1.412955	0.441553	0.663920
H115	H	1.064265	-0.312351	0.131214
H116	H	1.564265	0.187649	0.631214
Cl117	Cl	1.785248	0.445646	0.000077
Cl118	Cl	2.285248	0.945646	0.500077
H119	H	1.286708	0.205128	0.000064
H120	H	1.786708	0.705128	0.500064
H121	H	1.404579	0.387801	-0.131259
H122	H	1.904579	0.887801	0.368741
H123	H	1.336055	-0.360471	0.213731
H124	H	1.836055	0.139529	0.713731
Cl125	Cl	0.874552	-0.465050	-0.000127
Cl126	Cl	1.374552	0.034950	0.499873
Cl127	Cl	1.329327	-0.367315	0.806375
Cl128	Cl	1.829327	0.132685	1.306375
