data_functionalizedCrystal
_audit_creation_method	'MofGen! by Chris Wilmer'
_symmetry_space_group_name_H-M	'P1'
_symmetry_Int_Tables_number	1
_symmetry_cell_setting	triclinic
loop_
_symmetry_equiv_pos_as_xyz
  x,y,z
_cell_length_a	17.077404
_cell_length_b	21.395361
_cell_length_c	17.077396
_cell_angle_alpha	89.969211
_cell_angle_beta	90.019501
_cell_angle_gamma	89.969241
loop_
_atom_site_label
_atom_site_type_symbol
_atom_site_fract_x
_atom_site_fract_y
_atom_site_fract_z
Zn1	Zn	1.200013	0.249435	0.443830
Zn2	Zn	1.450013	0.499435	0.693830
Zn3	Zn	1.700013	0.749435	0.943830
Zn4	Zn	1.950013	0.999435	1.193830
Zn5	Zn	1.199902	0.354216	0.312559
Zn6	Zn	1.449902	0.604216	0.562559
Zn7	Zn	1.699902	0.854216	0.812559
Zn8	Zn	1.949902	1.104216	1.062559
Zn9	Zn	1.068745	0.249457	0.312578
Zn10	Zn	1.318745	0.499457	0.562578
Zn11	Zn	1.568745	0.749457	0.812578
Zn12	Zn	1.818745	0.999457	1.062578
Zn13	Zn	1.068695	0.354179	0.443782
Zn14	Zn	1.318695	0.604179	0.693782
Zn15	Zn	1.568695	0.854179	0.943782
Zn16	Zn	1.818695	1.104179	1.193782
O17	O	1.134339	0.301822	0.378187
O18	O	1.384339	0.551822	0.628187
O19	O	1.634339	0.801822	0.878187
O20	O	1.884339	1.051822	1.128187
O21	O	1.309845	0.263341	0.426429
O22	O	1.559845	0.513341	0.676429
O23	O	1.809845	0.763341	0.926429
O24	O	2.059845	1.013341	1.176429
O25	O	1.182479	0.340344	0.202714
O26	O	1.432479	0.590344	0.452714
O27	O	1.682479	0.840344	0.702714
O28	O	1.932479	1.090344	0.952714
O29	O	1.086225	0.161776	0.330017
O30	O	1.336225	0.411776	0.580017
O31	O	1.586225	0.661776	0.830017
O32	O	1.836225	0.911776	1.080017
O33	O	1.309764	0.340323	0.329984
O34	O	1.559764	0.590323	0.579984
O35	O	1.809764	0.840323	0.829984
O36	O	2.059764	1.090323	1.079984
O37	O	1.182667	0.161760	0.426447
O38	O	1.432667	0.411760	0.676447
O39	O	1.682667	0.661760	0.926447
O40	O	1.932667	0.911760	1.176447
O41	O	1.086118	0.263378	0.202729
O42	O	1.336118	0.513378	0.452729
O43	O	1.586118	0.763378	0.702729
O44	O	1.836118	1.013378	0.952729
O45	O	0.958891	0.263342	0.329971
O46	O	1.208891	0.513342	0.579971
O47	O	1.458891	0.763342	0.829971
O48	O	1.708891	1.013342	1.079971
O49	O	1.086140	0.340260	0.553636
O50	O	1.336140	0.590260	0.803636
O51	O	1.586140	0.840260	1.053636
O52	O	1.836140	1.090260	1.303636
O53	O	0.958855	0.340281	0.426366
O54	O	1.208855	0.590281	0.676366
O55	O	1.458855	0.840281	0.926366
O56	O	1.708855	1.090281	1.176366
O57	O	1.182619	0.263305	0.553671
O58	O	1.432619	0.513305	0.803671
O59	O	1.682619	0.763305	1.053671
O60	O	1.932619	1.013305	1.303671
O61	O	1.182431	0.441889	0.329938
O62	O	1.432431	0.691889	0.579938
O63	O	1.682431	0.941889	0.829938
O64	O	1.932431	1.191889	1.079938
O65	O	1.086033	0.441862	0.426347
O66	O	1.336033	0.691862	0.676347
O67	O	1.586033	0.941862	0.926347
O68	O	1.836033	1.191862	1.176347
C69	C	0.930391	0.301810	0.378166
C70	C	1.180391	0.551810	0.628166
C71	C	1.430391	0.801810	0.878166
C72	C	1.680391	1.051810	1.128166
C73	C	0.843141	0.301821	0.378175
C74	C	1.093141	0.551821	0.628175
C75	C	1.343141	0.801821	0.878175
C76	C	1.593141	1.051821	1.128175
C77	C	0.802153	0.341943	0.428288
C78	C	1.052153	0.591943	0.678288
C79	C	1.302153	0.841943	0.928288
C80	C	1.552153	1.091943	1.178288
C81	C	0.720172	0.341944	0.428300
C82	C	0.970172	0.591944	0.678300
C83	C	1.220172	0.841944	0.928300
C84	C	1.470172	1.091944	1.178300
C85	C	0.679182	0.301826	0.378196
C86	C	0.929182	0.551826	0.628196
C87	C	1.179182	0.801826	0.878196
C88	C	1.429182	1.051826	1.128196
C89	C	0.720176	0.261699	0.328081
C90	C	0.970176	0.511699	0.578081
C91	C	1.220176	0.761699	0.828081
C92	C	1.470176	1.011699	1.078081
C93	C	0.802155	0.261695	0.328073
C94	C	1.052155	0.511695	0.578073
C95	C	1.302155	0.761695	0.828073
C96	C	1.552155	1.011695	1.078073
C97	C	0.549306	0.261711	0.328100
C98	C	0.799306	0.511711	0.578100
C99	C	1.049306	0.761711	0.828100
C100	C	1.299306	1.011711	1.078100
C101	C	0.467321	0.261716	0.328107
C102	C	0.717321	0.511716	0.578107
C103	C	0.967321	0.761716	0.828107
C104	C	1.217321	1.011716	1.078107
C105	C	0.467323	0.341961	0.428327
C106	C	0.717323	0.591961	0.678327
C107	C	0.967323	0.841961	0.928327
C108	C	1.217323	1.091961	1.178327
C109	C	0.549302	0.341957	0.428319
C110	C	0.799302	0.591957	0.678319
C111	C	1.049302	0.841957	0.928319
C112	C	1.299302	1.091957	1.178319
C113	C	0.590291	0.301830	0.378203
C114	C	0.840291	0.551830	0.628203
C115	C	1.090291	0.801830	0.878203
C116	C	1.340291	1.051830	1.128203
C117	C	1.134236	0.464609	0.378152
C118	C	1.384236	0.714609	0.628152
C119	C	1.634236	0.964609	0.878152
C120	C	1.884236	1.214609	1.128152
C121	C	1.134264	0.534251	0.378164
C122	C	1.384264	0.784251	0.628164
C123	C	1.634264	1.034251	0.878164
C124	C	1.884264	1.284251	1.128164
C125	C	1.184502	0.566957	0.328017
C126	C	1.434502	0.816957	0.578017
C127	C	1.684502	1.066957	0.828017
C128	C	1.934502	1.316957	1.078017
C129	C	1.184539	0.632392	0.328038
C130	C	1.434539	0.882392	0.578038
C131	C	1.684539	1.132392	0.828038
C132	C	1.934539	1.382392	1.078038
C133	C	1.134323	0.665119	0.378198
C134	C	1.384323	0.915119	0.628198
C135	C	1.634323	1.165119	0.878198
C136	C	1.884323	1.415119	1.128198
C137	C	1.084081	0.632404	0.428355
C138	C	1.334081	0.882404	0.678355
C139	C	1.584081	1.132404	0.928355
C140	C	1.834081	1.382404	1.178355
C141	C	1.084051	0.566970	0.428338
C142	C	1.334051	0.816970	0.678338
C143	C	1.584051	1.066970	0.928338
C144	C	1.834051	1.316970	1.178338
C145	C	1.063644	0.768833	0.384355
C146	C	1.313644	1.018833	0.634355
C147	C	1.563644	1.268833	0.884355
C148	C	1.813644	1.518833	1.134355
C149	C	1.063672	0.834266	0.384366
C150	C	1.313672	1.084266	0.634366
C151	C	1.563672	1.334266	0.884366
C152	C	1.813672	1.584266	1.134366
C153	C	1.134415	0.866940	0.378255
C154	C	1.384415	1.116940	0.628255
C155	C	1.634415	1.366940	0.878255
C156	C	1.884415	1.616940	1.128255
C157	C	1.205132	0.834172	0.372115
C158	C	1.455132	1.084172	0.622115
C159	C	1.705132	1.334172	0.872115
C160	C	1.955132	1.584172	1.122115
C161	C	1.205102	0.768738	0.372098
C162	C	1.455102	1.018738	0.622098
C163	C	1.705102	1.268738	0.872098
C164	C	1.955102	1.518738	1.122098
C165	C	1.134350	0.736071	0.378222
C166	C	1.384350	0.986071	0.628222
C167	C	1.634350	1.236071	0.878222
C168	C	1.884350	1.486071	1.128222
C169	C	1.184698	0.970599	0.328128
C170	C	1.434698	1.220599	0.578128
C171	C	1.684698	1.470599	0.828128
C172	C	1.934698	1.720599	1.078128
C173	C	1.184736	1.036035	0.328154
C174	C	1.434736	1.286035	0.578154
C175	C	1.684736	1.536035	0.828154
C176	C	1.934736	1.786035	1.078154
C177	C	1.084271	1.036046	0.428467
C178	C	1.334271	1.286046	0.678467
C179	C	1.584271	1.536046	0.928467
C180	C	1.834271	1.786046	1.178467
C181	C	1.084240	0.970611	0.428445
C182	C	1.334240	1.220611	0.678445
C183	C	1.584240	1.470611	0.928445
C184	C	1.834240	1.720611	1.178445
C185	C	1.134452	0.937891	0.378271
C186	C	1.384452	1.187891	0.628271
C187	C	1.634452	1.437891	0.878271
C188	C	1.884452	1.687891	1.128271
C189	C	1.339083	0.301833	0.378210
C190	C	1.589083	0.551833	0.628210
C191	C	1.839083	0.801833	0.878210
C192	C	2.089083	1.051833	1.128210
C193	C	1.426333	0.301839	0.378219
C194	C	1.676333	0.551839	0.628219
C195	C	1.926333	0.801839	0.878219
C196	C	2.176333	1.051839	1.128219
C197	C	1.134386	0.301775	0.582932
C198	C	1.384386	0.551775	0.832932
C199	C	1.634386	0.801775	1.082932
C200	C	1.884386	1.051775	1.332932
C201	C	1.134407	0.301756	0.670182
C202	C	1.384407	0.551756	0.920182
C203	C	1.634407	0.801756	1.170182
C204	C	1.884407	1.051756	1.420182
C205	C	1.134465	1.138398	0.378253
C206	C	1.384465	1.388398	0.628253
C207	C	1.634465	1.638398	0.878253
C208	C	1.884465	1.888398	1.128253
C209	C	1.134521	1.068757	0.378316
C210	C	1.384521	1.318757	0.628316
C211	C	1.634521	1.568757	0.878316
C212	C	1.884521	1.818757	1.128316
C213	C	1.134337	0.301822	0.174240
C214	C	1.384337	0.551822	0.424240
C215	C	1.634337	0.801822	0.674240
C216	C	1.884337	1.051822	0.924240
C217	C	1.134469	0.301666	0.086990
C218	C	1.384469	0.551666	0.336990
C219	C	1.634469	0.801666	0.586990
C220	C	1.884469	1.051666	0.836990
C221	C	1.184645	0.261682	0.711191
C222	C	1.434645	0.511682	0.961191
C223	C	1.684645	0.761682	1.211191
C224	C	1.934645	1.011682	1.461191
C225	C	1.184654	0.261661	0.793172
C226	C	1.434654	0.511661	1.043172
C227	C	1.684654	0.761661	1.293172
C228	C	1.934654	1.011661	1.543172
C229	C	1.134429	0.301718	0.834141
C230	C	1.384429	0.551718	1.084141
C231	C	1.634429	0.801718	1.334141
C232	C	1.884429	1.051718	1.584141
C233	C	1.084185	0.341793	0.793126
C234	C	1.334185	0.591793	1.043126
C235	C	1.584185	0.841793	1.293126
C236	C	1.834185	1.091793	1.543126
C237	C	1.084172	0.341811	0.711147
C238	C	1.334172	0.591811	0.961147
C239	C	1.584172	0.841811	1.211147
C240	C	1.834172	1.091811	1.461147
C241	C	1.084217	0.341756	0.963996
C242	C	1.334217	0.591756	1.213996
C243	C	1.584217	0.841756	1.463996
C244	C	1.834217	1.091756	1.713996
C245	C	1.084230	0.341739	1.045980
C246	C	1.334230	0.591739	1.295980
C247	C	1.584230	0.841739	1.545980
C248	C	1.834230	1.091739	1.795980
C249	C	1.184699	0.261606	1.046021
C250	C	1.434699	0.511606	1.296021
C251	C	1.684699	0.761606	1.546021
C252	C	1.934699	1.011606	1.796021
C253	C	1.184686	0.261623	0.964042
C254	C	1.434686	0.511623	1.214042
C255	C	1.684686	0.761623	1.464042
C256	C	1.934686	1.011623	1.714042
C257	C	1.134443	0.301700	0.923032
C258	C	1.384443	0.551700	1.173032
C259	C	1.634443	0.801700	1.423032
C260	C	1.884443	1.051700	1.673032
H261	H	0.686795	0.229031	0.287288
H262	H	0.936795	0.479031	0.537288
H263	H	1.186795	0.729031	0.787288
H264	H	1.436795	0.979031	1.037288
Cl265	Cl	0.853684	0.211251	0.265074
Cl266	Cl	1.103684	0.461251	0.515074
Cl267	Cl	1.353684	0.711251	0.765074
Cl268	Cl	1.603684	0.961251	1.015074
H269	H	1.262738	0.860773	0.367139
H270	H	1.512738	1.110773	0.617139
H271	H	1.762738	1.360773	0.867139
H272	H	2.012738	1.610773	1.117139
H273	H	1.043196	0.659054	0.469197
H274	H	1.293196	0.909054	0.719197
H275	H	1.543196	1.159054	0.969197
H276	H	1.793196	1.409054	1.219197
H277	H	0.686803	0.374617	0.469106
H278	H	0.936803	0.624617	0.719106
H279	H	1.186803	0.874617	0.969106
H280	H	1.436803	1.124617	1.219106
H281	H	0.582674	0.374628	0.469114
H282	H	0.832674	0.624628	0.719114
H283	H	1.082674	0.874628	0.969114
H284	H	1.332674	1.124628	1.219114
H285	H	1.225607	0.228973	1.079415
H286	H	1.475607	0.478973	1.329415
H287	H	1.725607	0.728973	1.579415
H288	H	1.975607	0.978973	1.829415
Cl289	Cl	1.247832	0.211270	0.912538
Cl290	Cl	1.497832	0.461270	1.162538
Cl291	Cl	1.747832	0.711270	1.412538
Cl292	Cl	1.997832	0.961270	1.662538
H293	H	1.225452	0.659027	0.287202
H294	H	1.475452	0.909027	0.537202
H295	H	1.725452	1.159027	0.787202
H296	H	1.975452	1.409027	1.037202
H297	H	1.225547	0.229065	0.677840
H298	H	1.475547	0.479065	0.927840
H299	H	1.725547	0.729065	1.177840
H300	H	1.975547	0.979065	1.427840
Cl301	Cl	0.974701	0.727765	0.392039
Cl302	Cl	1.224701	0.977765	0.642039
Cl303	Cl	1.474701	1.227765	0.892039
Cl304	Cl	1.724701	1.477765	1.142039
Cl305	Cl	1.021010	0.392189	0.659591
Cl306	Cl	1.271010	0.642189	0.909591
Cl307	Cl	1.521010	0.892189	1.159591
Cl308	Cl	1.771010	1.142189	1.409591
H309	H	0.433946	0.374631	0.469136
H310	H	0.683946	0.624631	0.719136
H311	H	0.933946	0.874631	0.969136
H312	H	1.183946	1.124631	1.219136
Cl313	Cl	1.020888	0.525851	0.491385
Cl314	Cl	1.270888	0.775851	0.741385
Cl315	Cl	1.520888	1.025851	0.991385
Cl316	Cl	1.770888	1.275851	1.241385
Cl317	Cl	1.293999	0.727546	0.364388
Cl318	Cl	1.543999	0.977546	0.614388
Cl319	Cl	1.793999	1.227546	0.864388
Cl320	Cl	2.043999	1.477546	1.114388
H321	H	1.043331	0.374356	1.079336
H322	H	1.293331	0.624356	1.329336
H323	H	1.543331	0.874356	1.579336
H324	H	1.793331	1.124356	1.829336
H325	H	1.043291	0.374380	0.930608
H326	H	1.293291	0.624380	1.180608
H327	H	1.543291	0.874380	1.430608
H328	H	1.793291	1.124380	1.680608
Cl329	Cl	1.247849	0.211308	0.844723
Cl330	Cl	1.497849	0.461308	1.094723
Cl331	Cl	1.747849	0.711308	1.344723
Cl332	Cl	1.997849	0.961308	1.594723
H333	H	0.582676	0.229031	0.287297
H334	H	0.832676	0.479031	0.537297
H335	H	1.082676	0.729031	0.787297
H336	H	1.332676	0.979031	1.037297
Cl337	Cl	0.415791	0.211283	0.265114
Cl338	Cl	0.665791	0.461283	0.515114
Cl339	Cl	0.915791	0.711283	0.765114
Cl340	Cl	1.165791	0.961283	1.015114
Cl341	Cl	0.853675	0.392384	0.491276
Cl342	Cl	1.103675	0.642384	0.741276
Cl343	Cl	1.353675	0.892384	0.991276
Cl344	Cl	1.603675	1.142384	1.241276
H345	H	1.043288	0.374406	0.826489
H346	H	1.293288	0.624406	1.076489
H347	H	1.543288	0.874406	1.326489
H348	H	1.793288	1.124406	1.576489
Cl349	Cl	1.247820	0.929462	0.265053
Cl350	Cl	1.497820	1.179462	0.515053
Cl351	Cl	1.747820	1.429462	0.765053
Cl352	Cl	1.997820	1.679462	1.015053
Cl353	Cl	1.247638	0.525827	0.264952
Cl354	Cl	1.497638	0.775827	0.514952
Cl355	Cl	1.747638	1.025827	0.764952
Cl356	Cl	1.997638	1.275827	1.014952
H357	H	1.225651	1.062664	0.287320
H358	H	1.475651	1.312664	0.537320
H359	H	1.725651	1.562664	0.787320
H360	H	1.975651	1.812664	1.037320
H361	H	1.043388	1.062691	0.469312
H362	H	1.293388	1.312691	0.719312
H363	H	1.543388	1.562691	0.969312
H364	H	1.793388	1.812691	1.219312
Cl365	Cl	1.021075	0.929491	0.491487
Cl366	Cl	1.271075	1.179491	0.741487
Cl367	Cl	1.521075	1.429491	0.991487
Cl368	Cl	1.771075	1.679491	1.241487
H369	H	1.006090	0.860941	0.389358
H370	H	1.256090	1.110941	0.639358
H371	H	1.506090	1.360941	0.889358
H372	H	1.756090	1.610941	1.139358
