data_functionalizedCrystal
_audit_creation_method	'MofGen! by Chris Wilmer'
_symmetry_space_group_name_H-M	'P1'
_symmetry_Int_Tables_number	1
_symmetry_cell_setting	triclinic
loop_
_symmetry_equiv_pos_as_xyz
  x,y,z
_cell_length_a	19.805407
_cell_length_b	17.640280
_cell_length_c	19.805399
_cell_angle_alpha	78.776890
_cell_angle_beta	89.982197
_cell_angle_gamma	78.797832
loop_
_atom_site_label
_atom_site_type_symbol
_atom_site_fract_x
_atom_site_fract_y
_atom_site_fract_z
Zn1	Zn	1.089291	-0.314739	-0.328273
Zn2	Zn	1.112116	-0.446914	-0.192234
Zn3	Zn	0.976108	-0.314755	-0.215099
Zn4	Zn	0.998971	-0.446866	-0.305392
O5	O	1.044122	-0.380819	-0.260250
O6	O	1.187038	-0.332286	-0.310234
O7	O	1.094059	-0.429410	-0.100546
O8	O	0.972001	-0.204148	-0.249256
O9	O	1.203807	-0.429395	-0.210286
O10	O	1.055156	-0.204136	-0.332405
O11	O	0.994134	-0.332313	-0.117344
O12	O	0.884422	-0.332266	-0.227070
O13	O	1.010968	-0.429312	-0.403149
O14	O	0.901219	-0.429328	-0.293408
O15	O	1.077325	-0.332239	-0.419959
O16	O	1.116228	-0.557513	-0.188100
O17	O	1.033101	-0.557477	-0.271237
C18	C	0.868261	-0.380794	-0.260237
C19	C	0.793031	-0.380802	-0.260245
C20	C	0.748971	-0.330327	-0.312338
C21	C	0.678283	-0.330331	-0.312340
C22	C	0.651657	-0.380815	-0.260251
C23	C	0.695723	-0.431292	-0.208153
C24	C	0.766408	-0.431284	-0.208149
C25	C	0.410656	-0.431328	-0.208167
C26	C	0.339965	-0.431334	-0.208176
C27	C	0.322530	-0.330376	-0.312359
C28	C	0.393216	-0.330367	-0.312355
C29	C	0.437274	-0.380841	-0.260255
C30	C	0.513922	-0.380835	-0.260252
C31	C	0.575012	-0.380826	-0.260255
C32	C	1.079641	-0.586174	-0.224719
C33	C	1.094898	-0.674025	-0.209541
C34	C	0.928493	-0.963004	-0.375798
C35	C	0.942831	-1.045554	-0.361515
C36	C	1.029445	-1.045525	-0.275031
C37	C	1.015116	-0.962974	-0.289310
C38	C	0.964639	-0.921719	-0.339693
C39	C	1.051263	-0.921689	-0.253205
C40	C	1.036933	-0.839145	-0.267480
C41	C	0.986457	-0.797884	-0.317859
C42	C	0.950310	-0.839175	-0.353968
C43	C	1.101736	-0.962945	-0.202818
C44	C	1.137883	-0.921660	-0.166714
C45	C	1.123557	-0.839114	-0.180992
C46	C	1.073081	-0.797854	-0.231371
C47	C	1.159704	-0.797824	-0.144883
C48	C	1.145375	-0.715280	-0.159158
C49	C	1.058751	-0.715310	-0.245646
C50	C	1.220669	-0.380844	-0.260262
C51	C	1.295903	-0.380855	-0.260267
C52	C	1.044151	-0.380769	-0.436801
C53	C	1.044163	-0.380748	-0.512037
C54	C	1.008482	-0.174662	-0.295934
C55	C	0.993295	-0.086810	-0.311140
C56	C	1.078716	-0.330199	-0.556136
C57	C	1.078719	-0.330176	-0.626828
C58	C	1.044173	-0.380706	-0.653419
C59	C	1.009616	-0.431257	-0.609315
C60	C	1.009609	-0.431275	-0.538625
C61	C	1.009641	-0.431183	-0.894401
C62	C	1.009652	-0.431163	-0.965097
C63	C	1.078751	-0.330084	-0.982605
C64	C	1.078745	-0.330102	-0.911914
C65	C	1.044185	-0.380650	-0.867817
C66	C	1.044181	-0.380673	-0.791164
C67	C	1.044181	-0.380688	-0.730070
C68	C	1.044121	-0.380811	-0.084395
C69	C	1.044201	-0.380610	-0.009198
H70	H	0.414891	-0.289261	-0.354773
O71	O	1.117197	-1.051976	-0.187414
H72	H	1.134628	-1.073708	-0.234716
H73	H	1.070541	-1.079126	-0.234007
O74	O	0.275005	-0.275921	-0.368545
H75	H	0.248937	-0.311350	-0.396800
O76	O	1.214144	-0.842338	-0.090547
H77	H	1.199828	-0.826542	-0.040144
H78	H	0.642412	-0.289231	-0.354761
H79	H	0.981518	-0.472312	-0.986744
H80	H	0.318289	-0.472446	-0.165756
H81	H	0.802282	-0.472385	-0.165729
H82	H	0.446520	-0.472428	-0.165745
H83	H	1.174809	-0.681665	-0.129757
H84	H	0.974786	-0.730671	-0.329476
H85	H	1.178979	-0.955261	-0.125690
O86	O	1.004306	-0.670807	-0.299988
H87	H	1.018624	-0.686614	-0.350387
H88	H	0.770644	-0.289220	-0.354757
H89	H	0.981485	-0.472397	-0.630972
O90	O	0.903837	-1.090088	-0.400451
H91	H	0.940627	-1.127663	-0.428415
H92	H	1.106889	-0.288923	-1.018518
O93	O	0.895866	-0.794668	-0.408310
H94	H	0.873134	-0.837241	-0.431019
O95	O	0.667010	-0.485743	-0.151966
H96	H	0.610457	-0.477275	-0.160723
H97	H	1.106858	-0.289016	-0.662731
O98	O	0.874050	-0.918497	-0.430140
H99	H	0.851317	-0.961070	-0.452849
H100	H	1.106850	-0.289054	-0.534491
H101	H	1.106879	-0.288958	-0.890267
H102	H	0.981464	-0.472429	-0.502721
H103	H	0.981512	-0.472354	-0.858503
