data_functionalizedCrystal
_audit_creation_method	'MofGen! by Chris Wilmer'
_symmetry_space_group_name_H-M	'P1'
_symmetry_Int_Tables_number	1
_symmetry_cell_setting	triclinic
loop_
_symmetry_equiv_pos_as_xyz
  x,y,z
_cell_length_a	11.792241
_cell_length_b	11.792254
_cell_length_c	13.330367
_cell_angle_alpha	89.995204
_cell_angle_beta	89.996651
_cell_angle_gamma	84.196007
loop_
_atom_site_label
_atom_site_type_symbol
_atom_site_fract_x
_atom_site_fract_y
_atom_site_fract_z
O1	O	1.506921	0.155566	-0.083327
O2	O	2.006921	0.655566	0.416673
O3	O	1.176581	0.171599	-0.083350
O4	O	1.676581	0.671599	0.416650
O5	O	1.349760	-0.001587	-0.083331
O6	O	1.849760	0.498413	0.416669
O7	O	1.333742	0.328752	-0.083346
O8	O	1.833742	0.828752	0.416654
O9	O	1.349734	-0.001591	0.083517
O10	O	1.849734	0.498409	0.583517
O11	O	1.176555	0.171595	0.083497
O12	O	1.676555	0.671595	0.583497
O13	O	1.506896	0.155562	0.083521
O14	O	2.006896	0.655562	0.583521
Cu15	Cu	1.341723	0.163578	0.098743
Cu16	Cu	1.841723	0.663578	0.598743
Cu17	Cu	1.341753	0.163583	-0.098573
Cu18	Cu	1.841753	0.663583	0.401427
O19	O	1.333717	0.328748	0.083501
O20	O	1.833717	0.828748	0.583501
C21	C	1.134277	0.170590	0.000071
C22	C	1.634277	0.670590	0.500071
C23	C	1.008263	0.167576	0.000062
C24	C	1.508263	0.667576	0.500062
C25	C	0.777551	0.162033	0.000091
C26	C	1.277551	0.662033	0.500091
C27	C	0.905936	0.165112	0.000075
C28	C	1.405936	0.665112	0.500075
C29	C	1.348738	-0.043880	0.000093
C30	C	1.848738	0.456120	0.500093
C31	C	1.345718	-0.169893	0.000091
C32	C	1.845718	0.330107	0.500091
C33	C	1.343264	-0.272229	0.000088
C34	C	1.843264	0.227771	0.500088
C35	C	1.340196	-0.400616	0.000078
C36	C	1.840196	0.099384	0.500078
C37	C	1.549199	0.156571	0.000098
C38	C	2.049199	0.656571	0.500098
C39	C	1.675213	0.159586	0.000100
C40	C	2.175213	0.659586	0.500100
C41	C	1.334738	0.371041	0.000076
C42	C	1.834738	0.871041	0.500076
C43	C	1.337758	0.497054	0.000070
C44	C	1.837758	0.997054	0.500070
N45	N	1.341710	0.163574	0.237525
N46	N	1.841710	0.663574	0.737525
N47	N	1.341775	0.163578	-0.237354
N48	N	1.841775	0.663578	0.262646
C49	C	1.265066	0.240239	0.710139
C50	C	1.765066	0.740239	1.210139
C51	C	1.418471	0.086918	0.710124
C52	C	1.918471	0.586918	1.210124
C53	C	1.418458	0.086914	0.605106
C54	C	1.918458	0.586914	1.105106
C55	C	1.341749	0.163576	0.552599
C56	C	1.841749	0.663576	1.052599
C57	C	1.265053	0.240241	0.605111
C58	C	1.765053	0.740241	1.105111
C59	C	1.495160	0.010259	0.552586
C60	C	1.995160	0.510259	1.052586
C61	C	1.495151	0.010253	0.447562
C62	C	1.995151	0.510253	0.947562
C63	C	1.418436	0.086910	0.395053
C64	C	1.918436	0.586910	0.895053
C65	C	1.341736	0.163577	0.447571
C66	C	1.841736	0.663577	0.947571
C67	C	1.265027	0.240238	0.395065
C68	C	1.765027	0.740238	0.895065
C69	C	1.188321	0.316901	0.447581
C70	C	1.688321	0.816901	0.947581
C71	C	1.188338	0.316897	0.552603
C72	C	1.688338	0.816897	1.052603
C73	C	1.418419	0.086913	0.290031
C74	C	1.918419	0.586913	0.790031
C75	C	1.265014	0.240239	0.290037
C76	C	1.765014	0.740239	0.790037
H77	H	1.202544	0.302662	0.247292
H78	H	1.702544	0.802662	0.747292
F79	F	1.576803	-0.071319	0.608467
F80	F	2.076803	0.428681	1.108467
H81	H	1.557608	-0.052170	0.404809
H82	H	2.057608	0.447830	0.904809
H83	H	1.125869	0.379324	0.404818
H84	H	1.625869	0.879324	0.904818
F85	F	1.500113	0.005340	0.766005
F86	F	2.000113	0.505340	1.266005
F87	F	1.106710	0.398483	0.608498
F88	F	1.606710	0.898483	1.108498
F89	F	1.183429	0.321822	0.766028
F90	F	1.683429	0.821822	1.266028
F91	F	1.500057	0.005335	0.234146
F92	F	2.000057	0.505335	0.734146
