data_functionalizedCrystal
_audit_creation_method	'MofGen! by Chris Wilmer'
_symmetry_space_group_name_H-M	'P1'
_symmetry_Int_Tables_number	1
_symmetry_cell_setting	triclinic
loop_
_symmetry_equiv_pos_as_xyz
  x,y,z
_cell_length_a	14.519709
_cell_length_b	17.019294
_cell_length_c	12.996460
_cell_angle_alpha	86.114884
_cell_angle_beta	90.000034
_cell_angle_gamma	83.537243
loop_
_atom_site_label
_atom_site_type_symbol
_atom_site_fract_x
_atom_site_fract_y
_atom_site_fract_z
O1	O	1.223534	0.103407	-0.094594
O2	O	0.955017	0.115585	-0.095704
O3	O	1.096766	-0.005327	-0.084969
O4	O	1.081785	0.224318	-0.105328
O5	O	1.096751	-0.005333	0.086165
O6	O	0.955002	0.115578	0.075431
O7	O	1.223519	0.103400	0.076541
Cu8	Cu	1.089259	0.109489	0.091612
Cu9	Cu	1.089277	0.109496	-0.110775
O10	O	1.081770	0.224312	0.065806
C11	C	0.920652	0.115014	-0.010090
C12	C	0.818276	0.113313	-0.009952
C13	C	1.096190	-0.034720	0.003201
C14	C	1.094486	-0.122293	0.010958
C15	C	0.443401	0.107052	-0.009350
C16	C	0.547703	0.108791	-0.009517
C17	C	0.630835	0.110182	-0.009652
C18	C	0.735144	0.111921	-0.009817
C19	C	1.093695	-0.163427	-0.078683
C20	C	1.092088	-0.245710	-0.071392
C21	C	1.091278	-0.286859	0.025541
C22	C	1.092066	-0.245719	0.115188
C23	C	1.093666	-0.163437	0.107896
C24	C	1.086439	-0.535299	0.052226
C25	C	1.084841	-0.617588	0.059511
C26	C	1.084861	-0.617573	-0.127070
C27	C	1.086467	-0.535290	-0.134354
C28	C	1.087250	-0.494156	-0.044706
C29	C	1.089638	-0.370966	0.032996
C30	C	1.088884	-0.410050	-0.052163
C31	C	1.257884	0.103971	-0.009075
C32	C	1.360260	0.105672	-0.009221
C33	C	1.082346	0.253705	-0.022366
C34	C	1.084050	0.341278	-0.030130
N35	N	1.089254	0.109482	0.233959
N36	N	1.089290	0.109496	-0.253122
C37	C	1.089275	0.109497	0.653772
C38	C	1.089267	0.109496	0.536967
C39	C	1.089265	0.109490	0.443869
C40	C	1.089255	0.109488	0.327057
H41	H	1.091448	-0.279198	-0.144387
H42	H	1.087128	-0.501792	-0.213287
H43	H	1.084222	-0.651073	-0.200056
N44	N	1.094554	-0.119019	-0.183215
H45	H	1.151414	-0.139630	-0.222189
H46	H	1.037093	-0.127026	-0.223208
N47	N	1.083975	-0.661977	0.164063
H48	H	1.027107	-0.641360	0.203018
H49	H	1.082885	-0.720333	0.154979
N50	N	1.088781	-0.415351	0.137544
H51	H	1.146202	-0.407346	0.177616
H52	H	1.031882	-0.394701	0.176419
H53	H	1.087094	-0.501821	0.125223
H54	H	1.089537	-0.376542	-0.131085
H55	H	1.091401	-0.279229	0.194113
N56	N	1.094515	-0.119066	0.204579
H57	H	1.093760	-0.157618	0.267093
H58	H	1.152320	-0.091238	0.206186
