data_functionalizedCrystal
_audit_creation_method	'MofGen! by Chris Wilmer'
_symmetry_space_group_name_H-M	'P1'
_symmetry_Int_Tables_number	1
_symmetry_cell_setting	triclinic
loop_
_symmetry_equiv_pos_as_xyz
  x,y,z
_cell_length_a	16.176319
_cell_length_b	17.699097
_cell_length_c	17.699104
_cell_angle_alpha	96.710041
_cell_angle_beta	90.002028
_cell_angle_gamma	89.994463
loop_
_atom_site_label
_atom_site_type_symbol
_atom_site_fract_x
_atom_site_fract_y
_atom_site_fract_z
O1	O	0.068818	-1.004073	0.095761
O2	O	0.068801	-0.783697	0.108203
O3	O	0.068816	-0.900103	-0.008206
O4	O	0.068803	-0.887667	0.212170
O5	O	-0.068677	-0.900101	-0.008216
O6	O	-0.068693	-0.783695	0.108193
O7	O	-0.068675	-1.004071	0.095751
Cu8	Cu	-0.081238	-0.893882	0.101971
Cu9	Cu	0.081364	-0.893885	0.101983
O10	O	-0.068691	-0.887665	0.212159
C11	C	0.000052	-0.755499	0.107750
C12	C	0.000046	-0.671481	0.106408
N13	N	0.195729	-0.893887	0.101987
C14	C	0.000073	-0.899653	-0.036408
C15	C	0.000083	-0.898308	-0.120425
N16	N	-0.195603	-0.893886	0.101961
C17	C	0.239000	-0.945527	0.050542
C18	C	0.325547	-0.945530	0.050540
C19	C	0.368821	-0.893889	0.101980
C20	C	0.325544	-0.842246	0.153430
C21	C	0.238999	-0.842247	0.153435
C22	C	0.674572	-0.842241	0.153413
C23	C	0.761124	-0.842242	0.153403
C24	C	0.761121	-0.945523	0.050518
C25	C	0.674575	-0.945525	0.050523
C26	C	0.631306	-0.893885	0.101975
C27	C	0.537461	-0.893883	0.101978
C28	C	0.462664	-0.893886	0.101975
C29	C	0.075020	-0.155763	0.098184
C30	C	0.075017	-0.234708	0.099441
C31	C	0.000067	-0.274172	0.100064
C32	C	-0.074885	-0.234690	0.099424
C33	C	-0.074881	-0.155748	0.098162
C34	C	-0.074903	-0.553054	0.104511
C35	C	-0.074902	-0.632002	0.105775
C36	C	0.074995	-0.632014	0.105790
C37	C	0.074999	-0.553072	0.104528
C38	C	0.000048	-0.513597	0.103884
C39	C	0.000052	-0.427997	0.102520
C40	C	0.000062	-0.359770	0.101433
C41	C	0.000072	-0.032268	0.096204
C42	C	0.000074	-0.116286	0.097546
C43	C	0.000055	-0.888114	0.240361
C44	C	0.000050	-0.889459	0.324379
C45	C	0.000077	-0.828715	0.849247
C46	C	0.000068	-0.827456	0.770303
C47	C	0.000071	-0.895791	0.721689
C48	C	0.000074	-0.965389	0.752022
C49	C	0.000077	-0.966648	0.830964
C50	C	0.000062	-0.960316	0.433656
C51	C	0.000062	-0.959053	0.354708
C52	C	0.000053	-0.821125	0.372994
C53	C	0.000056	-0.822383	0.451937
C54	C	0.000055	-0.891981	0.482263
C55	C	0.000063	-0.893345	0.567863
C56	C	0.000069	-0.894427	0.636090
H57	H	0.203771	-0.987576	0.008651
H58	H	-0.135911	-0.266829	0.099927
H59	H	0.000058	-0.766738	0.491516
C60	C	-0.157322	-0.112322	0.097464
H61	H	-0.201961	-0.147130	0.098023
H62	H	-0.160434	-0.087376	0.052854
H63	H	-0.160438	-0.075678	0.141096
H64	H	0.000079	-0.773069	0.888824
C65	C	0.000061	-1.036868	0.467009
H66	H	0.000051	-1.027836	0.520986
H67	H	0.048008	-1.065004	0.450317
H68	H	-0.047892	-1.064991	0.450310
H69	H	0.136046	-0.266847	0.099956
C70	C	0.373142	-1.002330	-0.006053
H71	H	0.334974	-1.033078	-0.036694
H72	H	0.406910	-1.033730	0.021194
H73	H	0.406895	-0.975220	-0.037586
C74	C	0.808719	-1.002338	-0.006067
H75	H	0.866461	-0.994952	0.001301
H76	H	0.794533	-0.994313	-0.056598
H77	H	0.794536	-1.052807	0.002199
C78	C	0.157465	-0.112355	0.097500
H79	H	0.146736	-0.059684	0.096665
H80	H	0.188264	-0.131145	0.053592
H81	H	0.188254	-0.119448	0.141834
C82	C	0.000063	-1.034222	0.301230
H83	H	0.000071	-1.023502	0.249872
H84	H	-0.047883	-1.062765	0.310406
H85	H	0.048017	-1.062767	0.310413
H86	H	-0.135934	-0.520925	0.103975
C87	C	0.000064	-0.750904	0.736945
H88	H	0.000073	-0.710387	0.777204
H89	H	-0.047885	-0.747541	0.706532
H90	H	0.048015	-0.747549	0.706529
C91	C	0.000043	-0.744567	0.339634
H92	H	0.000033	-0.753601	0.285656
H93	H	0.047989	-0.716439	0.356326
H94	H	-0.047911	-0.716437	0.356330
C95	C	0.157444	-0.509665	0.103839
H96	H	0.202081	-0.544484	0.104392
H97	H	0.160561	-0.473019	0.147464
H98	H	0.160560	-0.484723	0.059222
C99	C	0.000079	-1.040556	0.698549
H100	H	0.000085	-1.029841	0.647189
H101	H	-0.047865	-1.069100	0.707728
H102	H	0.048035	-1.069097	0.707733
H103	H	0.136025	-0.664164	0.106311
C104	C	-0.157351	-0.675414	0.106445
H105	H	-0.201989	-0.640600	0.105871
H106	H	-0.160481	-0.700363	0.151053
H107	H	-0.160449	-0.712056	0.062811
C108	C	0.000085	-1.043200	0.864325
H109	H	0.000094	-1.083718	0.824068
H110	H	-0.047861	-1.046556	0.894741
H111	H	0.048039	-1.046559	0.894741
H112	H	0.796357	-0.800188	0.195294
C113	C	0.626974	-1.002327	-0.006060
H114	H	0.569233	-0.994927	0.001307
H115	H	0.641163	-1.052796	0.002193
H116	H	0.641150	-0.994291	-0.056593
C117	C	0.626987	-0.785455	0.210023
H118	H	0.665157	-0.754701	0.240656
H119	H	0.593245	-0.812575	0.241551
H120	H	0.593207	-0.754047	0.182788
H121	H	0.203768	-0.800198	0.195327
C122	C	0.373144	-0.785440	0.210011
H123	H	0.430885	-0.792828	0.202635
H124	H	0.358970	-0.793466	0.260543
H125	H	0.358950	-0.734970	0.201748
