data_functionalizedCrystal
_audit_creation_method	'MofGen! by Chris Wilmer'
_symmetry_space_group_name_H-M	'P1'
_symmetry_Int_Tables_number	1
_symmetry_cell_setting	triclinic
loop_
_symmetry_equiv_pos_as_xyz
  x,y,z
_cell_length_a	12.759401
_cell_length_b	29.839125
_cell_length_c	12.759399
_cell_angle_alpha	90.011795
_cell_angle_beta	89.984458
_cell_angle_gamma	89.990815
loop_
_atom_site_label
_atom_site_type_symbol
_atom_site_fract_x
_atom_site_fract_y
_atom_site_fract_z
Zn1	Zn	1.606154	-0.253990	0.418402
Zn2	Zn	1.606076	-0.178868	0.594059
Zn3	Zn	1.430485	-0.178876	0.418396
Zn4	Zn	1.430444	-0.253973	0.594040
O5	O	1.518290	-0.216427	0.506224
O6	O	1.753165	-0.244029	0.441713
O7	O	1.582769	-0.116002	0.570762
O8	O	1.453838	-0.188851	0.271375
O9	O	1.753108	-0.188837	0.570768
O10	O	1.582902	-0.244037	0.271380
O11	O	1.453763	-0.116008	0.441703
O12	O	1.283459	-0.188835	0.441685
O13	O	1.453767	-0.316842	0.570737
O14	O	1.283428	-0.244008	0.570731
O15	O	1.582861	-0.316855	0.441695
O16	O	1.582728	-0.188820	0.741077
O17	O	1.453692	-0.243999	0.741064
C18	C	1.245323	-0.216421	0.506206
C19	C	1.128546	-0.216428	0.506224
C20	C	1.073715	-0.245211	0.439146
C21	C	0.963990	-0.245214	0.439157
C22	C	0.963939	-0.187650	0.573331
C23	C	1.073661	-0.187645	0.573314
C24	C	1.518318	-0.333605	0.506215
C25	C	1.518331	-0.383540	0.506211
C26	C	1.585620	-0.693193	0.438843
C27	C	1.585673	-0.880866	0.438753
O28	O	1.642807	-0.905139	0.381575
N29	N	1.518470	-0.904325	0.505929
C30	C	1.451244	-0.880863	0.573127
O31	O	1.394078	-0.905123	0.630255
C32	C	1.451188	-0.693191	0.573211
C33	C	1.518402	-0.669734	0.506038
C34	C	1.652829	-0.669736	0.371675
C35	C	1.652819	-0.622821	0.371702
C36	C	1.585601	-0.599362	0.438897
C37	C	1.518393	-0.622819	0.506065
C38	C	1.383958	-0.669729	0.640403
C39	C	1.383948	-0.622808	0.640416
C40	C	1.451163	-0.599352	0.573243
C41	C	1.451165	-0.552444	0.573288
N42	N	1.518368	-0.528985	0.506112
C43	C	1.585586	-0.552444	0.438917
C44	C	1.451280	-0.979394	0.573080
C45	C	1.451296	-1.026311	0.573061
C46	C	1.585723	-1.026311	0.438685
C47	C	1.585712	-0.979392	0.438711
C48	C	1.518483	-0.955935	0.505904
C49	C	1.585561	-0.453918	0.438979
C50	C	1.585549	-0.406998	0.439015
C51	C	1.451118	-0.407003	0.573387
C52	C	1.451134	-0.453918	0.573355
C53	C	1.518359	-0.477375	0.506143
O54	O	1.394053	-0.528142	0.630428
O55	O	1.642727	-0.528176	0.381781
C56	C	1.585630	-0.740108	0.438816
C57	C	1.518422	-0.763565	0.505984
C58	C	1.451204	-0.740106	0.573179
C59	C	1.518437	-0.810483	0.505965
C60	C	1.585655	-0.833942	0.438769
C61	C	1.652858	-0.810482	0.371594
C62	C	1.652848	-0.763567	0.371621
C63	C	1.384001	-0.763565	0.640355
C64	C	1.384017	-0.810481	0.640323
C65	C	1.451235	-0.833940	0.573128
C66	C	1.792323	-0.216434	0.506243
C67	C	1.909100	-0.216436	0.506251
C68	C	1.518226	-0.216417	0.779191
C69	C	1.518294	-0.216427	0.895968
C70	C	1.518322	-0.099704	0.506158
C71	C	1.518514	-0.049770	0.505866
C72	C	1.518383	-0.216447	0.232191
C73	C	1.518423	-0.216456	0.115414
C74	C	1.585560	-0.187728	0.950802
C75	C	1.585628	-0.187743	1.060526
C76	C	1.451154	-0.245158	1.060572
C77	C	1.451093	-0.245145	0.950850
H78	H	0.919238	-0.164217	0.627955
H79	H	1.396440	-0.268538	1.105271
Cl80	Cl	1.142709	-0.281393	0.354799
H81	H	1.118306	-0.164205	0.627938
Cl82	Cl	1.366617	-0.377503	0.657853
H83	H	1.640287	-0.387902	0.384314
Cl84	Cl	1.366810	-1.055794	0.657527
H85	H	1.640299	-0.473011	0.384245
H86	H	1.329190	-0.603711	0.695123
H87	H	1.329264	-0.744470	0.695076
Cl88	Cl	1.737315	-0.593339	0.287244
Cl89	Cl	1.670197	-0.151663	1.129456
Cl90	Cl	1.366528	-0.281229	0.881911
H91	H	1.640281	-0.164345	0.906119
H92	H	0.919352	-0.268651	0.384535
Cl93	Cl	1.737357	-0.699219	0.287203
H94	H	1.396535	-0.960298	0.627804
Cl95	Cl	1.737349	-0.734086	0.287168
Cl96	Cl	1.670223	-1.055811	0.354210
Cl97	Cl	1.670211	-0.949909	0.354260
Cl98	Cl	1.299457	-0.699206	0.724858
Cl99	Cl	1.366641	-0.483408	0.657807
Cl100	Cl	1.299516	-0.839963	0.724785
Cl101	Cl	1.737362	-0.839983	0.287123
