data_functionalizedCrystal
_audit_creation_method	'MofGen! by Chris Wilmer'
_symmetry_space_group_name_H-M	'P1'
_symmetry_Int_Tables_number	1
_symmetry_cell_setting	triclinic
loop_
_symmetry_equiv_pos_as_xyz
  x,y,z
_cell_length_a	16.120256
_cell_length_b	10.686220
_cell_length_c	10.686285
_cell_angle_alpha	89.654569
_cell_angle_beta	88.729351
_cell_angle_gamma	82.988389
loop_
_atom_site_label
_atom_site_type_symbol
_atom_site_fract_x
_atom_site_fract_y
_atom_site_fract_z
Zn1	Zn	-0.354352	-1.931206	-0.381236
Zn2	Zn	-0.203616	-1.957822	-0.578626
Zn3	Zn	-0.224835	-1.730560	-0.386738
Zn4	Zn	-0.352698	-1.737648	-0.606922
O5	O	-0.283875	-1.839309	-0.488381
O6	O	-0.326169	-2.110851	-0.393277
O7	O	-0.089836	-1.935847	-0.543633
O8	O	-0.251588	-1.743071	-0.211252
O9	O	-0.215424	-2.130406	-0.538298
O10	O	-0.346744	-1.890485	-0.207210
O11	O	-0.105425	-1.768879	-0.402653
O12	O	-0.249984	-1.555385	-0.430090
O13	O	-0.469512	-1.755151	-0.586523
O14	O	-0.343924	-1.560593	-0.591858
O15	O	-0.470728	-1.897358	-0.420713
O16	O	-0.213819	-1.942720	-0.757136
O17	O	-0.323349	-1.780960	-0.777924
C18	C	-0.299077	-1.512325	-0.514642
C19	C	-0.305599	-1.372440	-0.525909
C20	C	-0.266119	-1.865530	-0.812841
C21	C	-0.258545	-1.876861	-0.951640
C22	C	-0.501197	-1.824076	-0.506161
C23	C	-0.593806	-1.817585	-0.513738
C24	C	-0.805236	-1.873155	-0.448836
C25	C	-0.763365	-1.805688	-0.527523
C26	C	-0.669014	-1.812309	-0.519851
C27	C	-0.899595	-1.866535	-0.456507
C28	C	-0.067400	-1.854547	-0.470573
C29	C	0.025201	-1.861254	-0.462625
C30	C	-0.268614	-2.167570	-0.462017
C31	C	-0.262111	-2.307455	-0.450783
C32	C	-0.301717	-1.813018	-0.162652
C33	C	-0.309321	-1.801815	-0.023845
H34	H	-0.798379	-1.742946	-0.600645
Br35	Br	-0.391436	-1.680273	-0.949903
Br36	Br	-0.746883	-1.977689	-0.326939
Br37	Br	-0.176413	-1.998388	-1.025587
Br38	Br	-0.191731	-1.393086	-0.329215
H39	H	-0.347819	-1.321056	-0.598858
