data_functionalizedCrystal
_audit_creation_method	'MofGen! by Chris Wilmer'
_symmetry_space_group_name_H-M	'P1'
_symmetry_Int_Tables_number	1
_symmetry_cell_setting	triclinic
loop_
_symmetry_equiv_pos_as_xyz
  x,y,z
_cell_length_a	12.759401
_cell_length_b	29.839131
_cell_length_c	12.759393
_cell_angle_alpha	89.954455
_cell_angle_beta	89.981433
_cell_angle_gamma	90.034273
loop_
_atom_site_label
_atom_site_type_symbol
_atom_site_fract_x
_atom_site_fract_y
_atom_site_fract_z
Zn1	Zn	1.606105	-0.178838	-0.593881
Zn2	Zn	1.605937	-0.253977	-0.418158
Zn3	Zn	1.430407	-0.178860	-0.418220
Zn4	Zn	1.430333	-0.253941	-0.593800
O5	O	1.518196	-0.216404	-0.506015
O6	O	1.753104	-0.188811	-0.570579
O7	O	1.582613	-0.244037	-0.271146
O8	O	1.453816	-0.115990	-0.441582
O9	O	1.752980	-0.244015	-0.441477
O10	O	1.582900	-0.115974	-0.570639
O11	O	1.453652	-0.188849	-0.271191
O12	O	1.283377	-0.188814	-0.441503
O13	O	1.453689	-0.243954	-0.740832
O14	O	1.283322	-0.243975	-0.570501
O15	O	1.582828	-0.188776	-0.740892
O16	O	1.582541	-0.316839	-0.441398
O17	O	1.453526	-0.316813	-0.570441
C18	C	1.245228	-0.216394	-0.506000
C19	C	1.128452	-0.216400	-0.506019
C20	C	1.073647	-0.187709	-0.573347
C21	C	0.963923	-0.187718	-0.573354
C22	C	0.963818	-0.245111	-0.438701
C23	C	1.073540	-0.245100	-0.438690
C24	C	1.128559	-0.159009	-0.640676
C25	C	1.073755	-0.130317	-0.708010
C26	C	0.964030	-0.130325	-0.708016
C27	C	0.909111	-0.159026	-0.640689
C28	C	1.518036	-0.333127	-0.505926
C29	C	1.518063	-0.383061	-0.505924
C30	C	1.585395	-0.692661	-0.573311
C31	C	1.585509	-0.880334	-0.573374
O32	O	1.642601	-0.904562	-0.630603
N33	N	1.518374	-0.903846	-0.506132
C34	C	1.451201	-0.880437	-0.438873
O35	O	1.394093	-0.904742	-0.381689
C36	C	1.451082	-0.692765	-0.438816
C37	C	1.518229	-0.669255	-0.506056
C38	C	1.652536	-0.669152	-0.640545
C39	C	1.652511	-0.622236	-0.640525
C40	C	1.585345	-0.598830	-0.573270
C41	C	1.518204	-0.622340	-0.506035
C42	C	1.383904	-0.669356	-0.371564
C43	C	1.383879	-0.622435	-0.371558
C44	C	1.451026	-0.598926	-0.438797
C45	C	1.451013	-0.552018	-0.438760
N46	N	1.518148	-0.528507	-0.506002
C47	C	1.585314	-0.551912	-0.573257
C48	C	1.451269	-0.978968	-0.438907
C49	C	1.451300	-1.025885	-0.438919
C50	C	1.585608	-1.025779	-0.573422
C51	C	1.585581	-0.978861	-0.573403
C52	C	1.518404	-0.955456	-0.506149
C53	C	1.585257	-0.453387	-0.573208
C54	C	1.585229	-0.406467	-0.573179
C55	C	1.450918	-0.406577	-0.438681
C56	C	1.450950	-0.453493	-0.438706
C57	C	1.518123	-0.476896	-0.505978
O58	O	1.393943	-0.527762	-0.381569
O59	O	1.642397	-0.527600	-0.630450
C60	C	1.585421	-0.739577	-0.573331
C61	C	1.518280	-0.763086	-0.506097
C62	C	1.451114	-0.739680	-0.438842
C63	C	1.518310	-0.810004	-0.506109
C64	C	1.585476	-0.833410	-0.573365
C65	C	1.652612	-0.809898	-0.640607
C66	C	1.652587	-0.762982	-0.640586
C67	C	1.383978	-0.763192	-0.371599
C68	C	1.384010	-0.810108	-0.371624
C69	C	1.451176	-0.833514	-0.438879
C70	C	1.792229	-0.216415	-0.506030
C71	C	1.909006	-0.216420	-0.506037
C72	C	1.518269	-0.216359	-0.780048
C73	C	1.518301	-0.216339	-0.896825
C74	C	1.518385	-0.099226	-0.506127
C75	C	1.518466	-0.049291	-0.506175
C76	C	1.585553	-0.187606	-0.951720
C77	C	1.585578	-0.187590	-1.061444
C78	C	1.451096	-0.245044	-1.061369
C79	C	1.451066	-0.245058	-0.951647
C80	C	1.652787	-0.158887	-0.896899
C81	C	1.720046	-0.130151	-0.951794
C82	C	1.720071	-0.130135	-1.061518
C83	C	1.652837	-0.158855	-1.116347
C84	C	1.518183	-0.216417	-0.233048
C85	C	1.518355	-0.216310	-0.116272
H86	H	0.919094	-0.268479	-0.383888
O87	O	1.785383	-0.102212	-0.898700
C88	C	1.844763	-0.076854	-0.970685
H89	H	1.801750	-0.075285	-1.048896
H90	H	1.924531	-0.093308	-0.982345
C91	C	1.912807	-0.030974	-0.831856
C92	C	1.859973	-0.029044	-0.927913
H93	H	1.922194	-0.001483	-0.805472
H94	H	1.872805	-0.048059	-0.783357
H95	H	1.979274	-0.044688	-0.841585
H96	H	1.793503	-0.015335	-0.918180
H97	H	1.899964	-0.011955	-0.976409
O98	O	1.653028	-0.158880	-1.222933
C99	C	1.753717	-0.170406	-1.259585
H100	H	1.797104	-0.190000	-1.196334
H101	H	1.799289	-0.138599	-1.279097
C102	C	1.690248	-0.175426	-1.436393
C103	C	1.743533	-0.199496	-1.358709
H104	H	1.683968	-0.193369	-1.497540
H105	H	1.622412	-0.167659	-1.411701
H106	H	1.728232	-0.148922	-1.452640
H107	H	1.705543	-0.225996	-1.342454
H108	H	1.811363	-0.207268	-1.383401
O109	O	1.785245	-0.102172	-1.114888
C110	C	1.725495	-0.073149	-1.178399
H111	H	1.642744	-0.070376	-1.145331
H112	H	1.721876	-0.087025	-1.261542
C113	C	1.878537	-0.029855	-1.220745
C114	C	1.776903	-0.026446	-1.180125
H115	H	1.910248	-0.001046	-1.221815
H116	H	1.918792	-0.049409	-1.177960
H117	H	1.875506	-0.041420	-1.290027
H118	H	1.779935	-0.014886	-1.110840
H119	H	1.736648	-0.006889	-1.222899
H120	H	1.118477	-0.106947	-0.762819
H121	H	1.396357	-0.268426	-1.106020
H122	H	1.329332	-0.829245	-0.316860
H123	H	1.396564	-0.959914	-0.384138
O124	O	1.385728	-0.273021	-0.898477
C125	C	1.326390	-0.298366	-0.970390
H126	H	1.369428	-0.299904	-1.048612
H127	H	1.246613	-0.281920	-0.982056
C128	C	1.258341	-0.344298	-0.831443
C129	C	1.311206	-0.346191	-0.927515
H130	H	1.248969	-0.373799	-0.804996
H131	H	1.298314	-0.327222	-0.782994
H132	H	1.191865	-0.330591	-0.841178
H133	H	1.377684	-0.359893	-0.917777
H134	H	1.271243	-0.363271	-0.975963
O135	O	1.318511	-0.599680	-0.306375
C136	C	1.250624	-0.572532	-0.366120
H137	H	1.244103	-0.586638	-0.448869
H138	H	1.283084	-0.536960	-0.369749
C139	C	1.149440	-0.554548	-0.213070
C140	C	1.141423	-0.571876	-0.314701
H141	H	1.082081	-0.554141	-0.181351
H142	H	1.195178	-0.572837	-0.172817
H143	H	1.176494	-0.524906	-0.216108
H144	H	1.114382	-0.601518	-0.311661
H145	H	1.095678	-0.553592	-0.354953
H146	H	1.707264	-0.743844	-0.695339
O147	O	1.235144	-0.158929	-0.640769
C148	C	1.271862	-0.127455	-0.714650
H149	H	1.208663	-0.101220	-0.729494
H150	H	1.291342	-0.145309	-0.791171
C151	C	1.448648	-0.136619	-0.653703
C152	C	1.371030	-0.104394	-0.671927
H153	H	1.509822	-0.122396	-0.627353
H154	H	1.423912	-0.157825	-0.603930
H155	H	1.464868	-0.151495	-0.717475
H156	H	1.354801	-0.089524	-0.608154
H157	H	1.395766	-0.083185	-0.721688
H158	H	1.639949	-0.472436	-0.627995
H159	H	1.707231	-0.688204	-0.695319
H160	H	1.707185	-0.603097	-0.695280
O161	O	1.126621	-0.273015	-0.373262
C162	C	1.054629	-0.298345	-0.313829
H163	H	0.976430	-0.299930	-0.356858
H164	H	1.042944	-0.281856	-0.234111
C165	C	1.193455	-0.344199	-0.245621
C166	C	1.097411	-0.346150	-0.298474
H167	H	1.219845	-0.373687	-0.236144
H168	H	1.241958	-0.327133	-0.285658
H169	H	1.183704	-0.330457	-0.179195
H170	H	1.107165	-0.359887	-0.364903
H171	H	1.048910	-0.363219	-0.258446
O172	O	1.650797	-1.048471	-0.638905
C173	C	1.627741	-1.036984	-0.743593
H174	H	1.587341	-1.002931	-0.745726
H175	H	1.573709	-1.063394	-0.778926
C176	C	1.779737	-1.076587	-0.804721
C177	C	1.730125	-1.034760	-0.807340
H178	H	1.842891	-1.075216	-0.844045
H179	H	1.795269	-1.084327	-0.734191
H180	H	1.734700	-1.098591	-0.834163
H181	H	1.775157	-1.012758	-0.777887
H182	H	1.714603	-1.027015	-0.877867
O183	O	1.318572	-0.692117	-0.306218
C184	C	1.259306	-0.661388	-0.246851
H185	H	1.255646	-0.627929	-0.289879
H186	H	1.297811	-0.656415	-0.167086
C187	C	1.151994	-0.720831	-0.178781
C188	C	1.147490	-0.679737	-0.231633
H189	H	1.083022	-0.732150	-0.169389
H190	H	1.191925	-0.741534	-0.218774
H191	H	1.184086	-0.716682	-0.112316
H192	H	1.115411	-0.683888	-0.298102
H193	H	1.107552	-0.659035	-0.191651
O194	O	1.650489	-0.383700	-0.638601
C195	C	1.709790	-0.414423	-0.697948
H196	H	1.666770	-0.447881	-0.701557
H197	H	1.789607	-0.419401	-0.659548
C198	C	1.777699	-0.354970	-0.805342
C199	C	1.724856	-0.396062	-0.809781
H200	H	1.786997	-0.343644	-0.874324
H201	H	1.737750	-0.334270	-0.765356
H202	H	1.844208	-0.359124	-0.773337
H203	H	1.658344	-0.391907	-0.841774
H204	H	1.764794	-0.416761	-0.849775
H205	H	1.396633	-1.045023	-0.384155
O206	O	1.717703	-0.832660	-0.706053
C207	C	1.657849	-0.859801	-0.773837
H208	H	1.575097	-0.845683	-0.780246
H209	H	1.654256	-0.895371	-0.741352
C210	C	1.810746	-0.877809	-0.875234
C211	C	1.709110	-0.860467	-0.883113
H212	H	1.842367	-0.878222	-0.942639
H213	H	1.851072	-0.859526	-0.829564
H214	H	1.807737	-0.907450	-0.848159
H215	H	1.712121	-0.830825	-0.910174
H216	H	1.668785	-0.878745	-0.928790
H217	H	0.919411	-0.106959	-0.762836
H218	H	1.640258	-0.959722	-0.628155
H219	H	0.819766	-0.159021	-0.640677
H220	H	1.396281	-0.472635	-0.383946
H221	H	1.396235	-0.387513	-0.383919
H222	H	1.329282	-0.744139	-0.316833
H223	H	1.652777	-0.158898	-0.807556
