data_functionalizedCrystal
_audit_creation_method	'MofGen! by Chris Wilmer'
_symmetry_space_group_name_H-M	'P1'
_symmetry_Int_Tables_number	1
_symmetry_cell_setting	triclinic
loop_
_symmetry_equiv_pos_as_xyz
  x,y,z
_cell_length_a	18.215407
_cell_length_b	18.101397
_cell_length_c	18.215398
_cell_angle_alpha	89.971892
_cell_angle_beta	89.983001
_cell_angle_gamma	90.017909
loop_
_atom_site_label
_atom_site_type_symbol
_atom_site_fract_x
_atom_site_fract_y
_atom_site_fract_z
Zn1	Zn	1.125092	-0.294906	-0.416054
Zn2	Zn	1.375092	-0.044906	-0.166054
Zn3	Zn	1.625092	0.205094	0.083946
Zn4	Zn	1.875092	0.455094	0.333946
Zn5	Zn	1.125011	-0.418747	-0.292982
Zn6	Zn	1.375011	-0.168747	-0.042982
Zn7	Zn	1.625011	0.081253	0.207018
Zn8	Zn	1.875011	0.331253	0.457018
Zn9	Zn	1.002025	-0.294918	-0.293006
Zn10	Zn	1.252025	-0.044918	-0.043006
Zn11	Zn	1.502025	0.205082	0.206994
Zn12	Zn	1.752025	0.455082	0.456994
Zn13	Zn	1.002000	-0.418705	-0.416012
Zn14	Zn	1.252000	-0.168705	-0.166012
Zn15	Zn	1.502000	0.081295	0.083988
Zn16	Zn	1.752000	0.331295	0.333988
O17	O	1.063532	-0.356819	-0.354513
O18	O	1.313532	-0.106819	-0.104513
O19	O	1.563532	0.143181	0.145487
O20	O	1.813532	0.393181	0.395487
O21	O	1.228065	-0.311346	-0.399735
O22	O	1.478065	-0.061346	-0.149735
O23	O	1.728065	0.188654	0.100265
O24	O	1.978065	0.438654	0.350265
O25	O	1.108673	-0.402344	-0.190001
O26	O	1.358673	-0.152344	0.059999
O27	O	1.608673	0.097656	0.309999
O28	O	1.858673	0.347656	0.559999
O29	O	1.018395	-0.191284	-0.309357
O30	O	1.268395	0.058716	-0.059357
O31	O	1.518395	0.308716	0.190643
O32	O	1.768395	0.558716	0.440643
O33	O	1.228006	-0.402332	-0.309315
O34	O	1.478006	-0.152332	-0.059315
O35	O	1.728006	0.097668	0.190685
O36	O	1.978006	0.347668	0.440685
O37	O	1.108811	-0.191275	-0.399759
O38	O	1.358811	0.058725	-0.149759
O39	O	1.608811	0.308725	0.100241
O40	O	1.858811	0.558725	0.350241
O41	O	1.018316	-0.311367	-0.190019
O42	O	1.268316	-0.061367	0.059981
O43	O	1.518316	0.188633	0.309981
O44	O	1.768316	0.438633	0.559981
O45	O	0.899038	-0.311326	-0.309316
O46	O	1.149038	-0.061326	-0.059316
O47	O	1.399038	0.188674	0.190684
O48	O	1.649038	0.438674	0.440684
O49	O	1.018352	-0.402260	-0.519002
O50	O	1.268352	-0.152260	-0.269002
O51	O	1.518352	0.097740	-0.019002
O52	O	1.768352	0.347740	0.230998
O53	O	0.899019	-0.402272	-0.399688
O54	O	1.149019	-0.152272	-0.149688
O55	O	1.399019	0.097728	0.100312
O56	O	1.649019	0.347728	0.350312
O57	O	1.108787	-0.311306	-0.519032
O58	O	1.358787	-0.061306	-0.269032
O59	O	1.608787	0.188694	-0.019032
O60	O	1.858787	0.438694	0.230968
O61	O	1.108648	-0.522374	-0.309274
O62	O	1.358648	-0.272374	-0.059274
O63	O	1.608648	-0.022374	0.190726
O64	O	1.858648	0.227626	0.440726
O65	O	1.018273	-0.522343	-0.399664
O66	O	1.268273	-0.272343	-0.149664
O67	O	1.518273	-0.022343	0.100336
O68	O	1.768273	0.227657	0.350336
C69	C	0.872326	-0.356796	-0.354501
C70	C	1.122326	-0.106796	-0.104501
C71	C	1.372326	0.143204	0.145499
C72	C	1.622326	0.393204	0.395499
C73	C	0.790527	-0.356804	-0.354512
C74	C	1.040527	-0.106804	-0.104512
C75	C	1.290527	0.143196	0.145488
C76	C	1.540527	0.393196	0.395488
C77	C	0.602363	-0.309526	-0.401669
C78	C	0.852363	-0.059526	-0.151669
C79	C	1.102363	0.190474	0.098331
C80	C	1.352363	0.440474	0.348331
C81	C	0.525504	-0.309532	-0.401671
C82	C	0.775504	-0.059532	-0.151671
C83	C	1.025504	0.190468	0.098329
C84	C	1.275504	0.440468	0.348329
C85	C	0.525453	-0.404133	-0.307371
C86	C	0.775453	-0.154133	-0.057371
C87	C	1.025453	0.095867	0.192629
C88	C	1.275453	0.345867	0.442629
C89	C	0.602310	-0.404123	-0.307365
C90	C	0.852310	-0.154123	-0.057365
C91	C	1.102310	0.095877	0.192635
C92	C	1.352310	0.345877	0.442635
C93	C	0.640763	-0.356820	-0.354518
C94	C	0.890763	-0.106820	-0.104518
C95	C	1.140763	0.143180	0.145482
C96	C	1.390763	0.393180	0.395482
C97	C	0.487047	-0.356837	-0.354527
C98	C	0.737047	-0.106837	-0.104527
C99	C	0.987047	0.143163	0.145473
C100	C	1.237047	0.393163	0.395473
C101	C	0.403713	-0.356844	-0.354529
C102	C	0.653713	-0.106844	-0.104529
C103	C	0.903713	0.143156	0.145471
C104	C	1.153713	0.393156	0.395471
C105	C	0.724102	-0.356812	-0.354515
C106	C	0.974102	-0.106812	-0.104515
C107	C	1.224102	0.143188	0.145485
C108	C	1.474102	0.393188	0.395485
C109	C	1.063469	-0.549230	-0.354478
C110	C	1.313469	-0.299230	-0.104478
C111	C	1.563469	-0.049230	0.145522
C112	C	1.813469	0.200770	0.395522
C113	C	1.063509	-0.631544	-0.354487
C114	C	1.313509	-0.381544	-0.104487
C115	C	1.563509	-0.131544	0.145513
C116	C	1.813509	0.118456	0.395513
C117	C	1.063603	-0.930635	-0.354554
C118	C	1.313603	-0.680635	-0.104554
C119	C	1.563603	-0.430635	0.145446
C120	C	1.813603	-0.180635	0.395446
C121	C	1.120306	-0.899298	-0.297531
C122	C	1.370306	-0.649298	-0.047531
C123	C	1.620306	-0.399298	0.202469
C124	C	1.870306	-0.149298	0.452469
C125	C	1.120503	-0.813680	-0.297679
C126	C	1.370503	-0.563680	-0.047679
C127	C	1.620503	-0.313680	0.202321
C128	C	1.870503	-0.063680	0.452321
C129	C	1.063557	-0.782252	-0.354520
C130	C	1.313557	-0.532252	-0.104520
C131	C	1.563557	-0.282252	0.145480
C132	C	1.813557	-0.032252	0.395480
C133	C	1.084581	-0.813264	-0.432092
C134	C	1.334581	-0.563264	-0.182092
C135	C	1.584581	-0.313264	0.067908
C136	C	1.834581	-0.063264	0.317908
C137	C	1.085019	-0.898909	-0.431781
C138	C	1.335019	-0.648909	-0.181781
C139	C	1.585019	-0.398909	0.068219
C140	C	1.835019	-0.148909	0.318219
C141	C	0.985725	-0.899139	-0.334677
C142	C	1.235725	-0.649139	-0.084677
C143	C	1.485725	-0.399139	0.165323
C144	C	1.735725	-0.149139	0.415323
C145	C	0.986109	-0.813490	-0.332946
C146	C	1.236109	-0.563490	-0.082946
C147	C	1.486109	-0.313490	0.167054
C148	C	1.736109	-0.063490	0.417054
C149	C	1.063529	-0.698393	-0.354506
C150	C	1.313529	-0.448393	-0.104506
C151	C	1.563529	-0.198393	0.145494
C152	C	1.813529	0.051607	0.395494
C153	C	1.063633	-1.014494	-0.354574
C154	C	1.313633	-0.764494	-0.104574
C155	C	1.563633	-0.514494	0.145426
C156	C	1.813633	-0.264494	0.395426
C157	C	1.255485	-0.356843	-0.354527
C158	C	1.505485	-0.106843	-0.104527
C159	C	1.755485	0.143157	0.145473
C160	C	2.005485	0.393157	0.395473
C161	C	1.337284	-0.356853	-0.354532
C162	C	1.587284	-0.106853	-0.104532
C163	C	1.837284	0.143147	0.145468
C164	C	2.087284	0.393147	0.395468
C165	C	1.063575	-0.356777	-0.546466
C166	C	1.313575	-0.106777	-0.296466
C167	C	1.563575	0.143223	-0.046466
C168	C	1.813575	0.393223	0.203534
C169	C	1.063594	-0.356758	-0.628265
C170	C	1.313594	-0.106758	-0.378265
C171	C	1.563594	0.143242	-0.128265
C172	C	1.813594	0.393242	0.121735
C173	C	1.063615	-0.163657	-0.354565
C174	C	1.313615	0.086343	-0.104565
C175	C	1.563615	0.336343	0.145435
C176	C	1.813615	0.586343	0.395435
C177	C	1.063651	-0.081343	-0.354587
C178	C	1.313651	0.168657	-0.104587
C179	C	1.563651	0.418657	0.145413
C180	C	1.813651	0.668657	0.395413
C181	C	1.110676	-0.404038	-0.893318
C182	C	1.360676	-0.154038	-0.643318
C183	C	1.610676	0.095962	-0.393318
C184	C	1.860676	0.345962	-0.143318
C185	C	1.110665	-0.404064	-0.816459
C186	C	1.360665	-0.154064	-0.566459
C187	C	1.610665	0.095936	-0.316459
C188	C	1.860665	0.345936	-0.066459
C189	C	1.016567	-0.309336	-0.816461
C190	C	1.266567	-0.059336	-0.566461
C191	C	1.516567	0.190664	-0.316461
C192	C	1.766567	0.440664	-0.066461
C193	C	1.016575	-0.309314	-0.893319
C194	C	1.266575	-0.059314	-0.643319
C195	C	1.516575	0.190686	-0.393319
C196	C	1.766575	0.440686	-0.143319
C197	C	1.063634	-0.356664	-0.931745
C198	C	1.313634	-0.106664	-0.681745
C199	C	1.563634	0.143336	-0.431745
C200	C	1.813634	0.393336	-0.181745
C201	C	1.063615	-0.356712	-0.778029
C202	C	1.313615	-0.106712	-0.528029
C203	C	1.563615	0.143288	-0.278029
C204	C	1.813615	0.393288	-0.028029
C205	C	1.063602	-0.356739	-0.694695
C206	C	1.313602	-0.106739	-0.444695
C207	C	1.563602	0.143261	-0.194695
C208	C	1.813602	0.393261	0.055305
C209	C	1.063646	-0.356638	-1.015084
C210	C	1.313646	-0.106638	-0.765084
C211	C	1.563646	0.143362	-0.515084
C212	C	1.813646	0.393362	-0.265084
C213	C	1.063531	-0.356808	-0.163307
C214	C	1.313531	-0.106808	0.086693
C215	C	1.563531	0.143192	0.336693
C216	C	1.813531	0.393192	0.586693
C217	C	1.063655	-0.356618	-0.081509
C218	C	1.313655	-0.106618	0.168491
C219	C	1.563655	0.143382	0.418491
C220	C	1.813655	0.393382	0.668491
H221	H	0.494135	-0.442646	-0.268981
H222	H	0.744135	-0.192646	-0.018981
H223	H	0.994135	0.057354	0.231019
H224	H	1.244135	0.307354	0.481019
H225	H	0.978255	-0.270784	-0.785165
H226	H	1.228255	-0.020784	-0.535165
H227	H	1.478255	0.229216	-0.285165
H228	H	1.728255	0.479216	-0.035165
Cl229	Cl	0.477233	-0.250073	-0.460948
Cl230	Cl	0.727233	-0.000073	-0.210948
Cl231	Cl	0.977233	0.249927	0.039052
Cl232	Cl	1.227233	0.499927	0.289052
H233	H	0.633577	-0.442636	-0.268966
H234	H	0.883577	-0.192636	-0.018966
H235	H	1.133577	0.057364	0.231034
H236	H	1.383577	0.307364	0.481034
H237	H	1.148994	-0.442595	-0.924602
H238	H	1.398994	-0.192595	-0.674602
H239	H	1.648994	0.057405	-0.424602
H240	H	1.898994	0.307405	-0.174602
Cl241	Cl	1.169806	-0.463624	-0.768154
Cl242	Cl	1.419806	-0.213624	-0.518154
Cl243	Cl	1.669806	0.036376	-0.268154
Cl244	Cl	1.919806	0.286376	-0.018154
H245	H	0.633669	-0.271007	-0.440062
H246	H	0.883669	-0.021007	-0.190062
H247	H	1.133669	0.228993	0.059938
H248	H	1.383669	0.478993	0.309938
Cl249	Cl	0.961627	-0.782203	-0.244812
Cl250	Cl	1.211627	-0.532203	0.005188
Cl251	Cl	1.461627	-0.282203	0.255188
Cl252	Cl	1.711627	-0.032203	0.505188
H253	H	1.107350	-0.792715	-0.240161
H254	H	1.357350	-0.542715	0.009839
H255	H	1.607350	-0.292715	0.259839
H256	H	1.857350	-0.042715	0.509839
Cl257	Cl	0.957420	-0.249765	-0.941631
Cl258	Cl	1.207420	0.000235	-0.691631
Cl259	Cl	1.457420	0.250235	-0.441631
Cl260	Cl	1.707420	0.500235	-0.191631
H261	H	1.107312	-0.919938	-0.239841
H262	H	1.357312	-0.669938	0.010159
H263	H	1.607312	-0.419938	0.260159
H264	H	1.857312	-0.169938	0.510159
Cl265	Cl	1.171486	-0.780067	-0.458529
Cl266	Cl	1.421486	-0.530067	-0.208529
Cl267	Cl	1.671486	-0.280067	0.041471
Cl268	Cl	1.921486	-0.030067	0.291471
H269	H	1.177679	-0.920769	-0.310531
H270	H	1.427679	-0.670769	-0.060531
H271	H	1.677679	-0.420769	0.189469
H272	H	1.927679	-0.170769	0.439469
H273	H	0.966599	-0.920797	-0.279094
H274	H	1.216599	-0.670797	-0.029094
H275	H	1.466599	-0.420797	0.220906
H276	H	1.716599	-0.170797	0.470906
H277	H	1.141945	-0.918831	-0.448618
H278	H	1.391945	-0.668831	-0.198618
H279	H	1.641945	-0.418831	0.051382
H280	H	1.891945	-0.168831	0.301382
Cl281	Cl	1.209568	-0.781961	-0.317988
Cl282	Cl	1.459568	-0.531961	-0.067988
Cl283	Cl	1.709568	-0.281961	0.182012
Cl284	Cl	1.959568	-0.031961	0.432012
H285	H	1.045528	-0.919636	-0.475732
H286	H	1.295528	-0.669636	-0.225732
H287	H	1.545528	-0.419636	0.024268
H288	H	1.795528	-0.169636	0.274268
H289	H	1.044543	-0.792905	-0.475721
H290	H	1.294543	-0.542905	-0.225721
H291	H	1.544543	-0.292905	0.024279
H292	H	1.794543	-0.042905	0.274279
Cl293	Cl	0.917369	-0.780475	-0.392374
Cl294	Cl	1.167369	-0.530475	-0.142374
Cl295	Cl	1.417369	-0.280475	0.107626
Cl296	Cl	1.667369	-0.030475	0.357626
Cl297	Cl	0.920496	-0.930430	-0.398797
Cl298	Cl	1.170496	-0.680430	-0.148797
Cl299	Cl	1.420496	-0.430430	0.101203
Cl300	Cl	1.670496	-0.180430	0.351203
