data_functionalizedCrystal
_audit_creation_method	'MofGen! by Chris Wilmer'
_symmetry_space_group_name_H-M	'P1'
_symmetry_Int_Tables_number	1
_symmetry_cell_setting	triclinic
loop_
_symmetry_equiv_pos_as_xyz
  x,y,z
_cell_length_a	19.077105
_cell_length_b	13.897448
_cell_length_c	19.076919
_cell_angle_alpha	87.727045
_cell_angle_beta	89.923776
_cell_angle_gamma	87.714101
loop_
_atom_site_label
_atom_site_type_symbol
_atom_site_fract_x
_atom_site_fract_y
_atom_site_fract_z
Zn1	Zn	1.058310	-0.466652	0.440425
Zn2	Zn	1.062963	-0.621745	0.322920
Zn3	Zn	0.945527	-0.453730	0.318218
Zn4	Zn	0.940785	-0.621164	0.435673
O5	O	1.001896	-0.540823	0.379309
O6	O	1.157260	-0.492877	0.428794
O7	O	1.051317	-0.594293	0.223965
O8	O	0.960525	-0.320466	0.334450
O9	O	1.160678	-0.606823	0.342464
O10	O	1.043386	-0.329960	0.424235
O11	O	0.965037	-0.470854	0.220510
O12	O	0.846566	-0.470290	0.329842
O13	O	0.952443	-0.605832	0.534635
O14	O	0.843082	-0.593302	0.416136
O15	O	1.038788	-0.492313	0.538126
O16	O	1.046719	-0.756647	0.337856
O17	O	0.956955	-0.756219	0.420695
C18	C	0.819327	-0.530331	0.371963
C19	C	0.741223	-0.525867	0.368837
C20	C	1.001846	-0.791433	0.379287
C21	C	1.001888	-0.898650	0.379303
C22	C	0.702736	-0.587905	0.412227
C23	C	0.629349	-0.583698	0.409293
C24	C	0.594449	-0.517456	0.362966
C25	C	0.632940	-0.455412	0.319575
C26	C	0.706327	-0.459615	0.322513
C27	C	0.375160	-0.498004	0.349373
C28	C	0.301769	-0.493807	0.346437
C29	C	0.298182	-0.622092	0.436157
C30	C	0.371570	-0.626293	0.439087
C31	C	0.410055	-0.564245	0.395699
N32	N	0.519435	-0.513157	0.359965
N33	N	0.485067	-0.568541	0.398704
C34	C	1.001960	-1.094952	0.379350
C35	C	1.001918	-0.985716	0.379326
C36	C	1.185178	-0.551356	0.386684
C37	C	1.263282	-0.555845	0.389826
C38	C	0.994568	-0.550449	0.562589
C39	C	0.991445	-0.554551	0.640692
C40	C	1.001966	-0.289236	0.379348
C41	C	1.001995	-0.182024	0.379364
C42	C	1.009237	-0.531167	0.196743
C43	C	1.012496	-0.526801	0.118646
C44	C	1.034931	-0.497377	0.679204
C45	C	1.031988	-0.501227	0.752590
C46	C	0.985562	-0.562257	0.787463
C47	C	0.942071	-0.619432	0.748946
C48	C	0.945011	-0.615576	0.675561
C49	C	0.971945	-0.580121	1.006744
C50	C	0.969010	-0.583975	1.080134
C51	C	1.058926	-0.465768	1.083773
C52	C	1.061865	-0.461922	1.010387
C53	C	1.018372	-0.519094	0.971877
N54	N	0.982554	-0.566196	0.862475
N55	N	1.021376	-0.515149	0.896866
H56	H	0.598016	-0.634216	0.444625
H57	H	0.266840	-0.672607	0.471482
N58	N	0.927515	-0.638525	0.967424
N59	N	0.886070	-0.693012	0.998571
H60	H	0.854689	-0.734265	0.970799
N61	N	0.900593	-0.673966	0.636209
N62	N	0.857468	-0.635297	0.593461
H63	H	0.826094	-0.676532	0.565667
N64	N	0.407206	-0.693966	0.486412
N65	N	0.372834	-0.749353	0.525149
H66	H	0.398002	-0.797151	0.558572
N67	N	0.745653	-0.396261	0.278189
N68	N	0.811175	-0.400022	0.280818
H69	H	0.838950	-0.355275	0.249514
H70	H	0.931203	-0.633674	1.108525
N71	N	0.738372	-0.655584	0.459547
N72	N	0.703997	-0.710969	0.498284
H73	H	0.729161	-0.758769	0.531706
H74	H	1.072738	-0.447684	0.650816
H75	H	1.067400	-0.454673	0.783943
N76	N	1.109298	-0.399585	0.974779
N77	N	1.148125	-0.348545	1.009174
H78	H	1.181630	-0.304523	0.984026
N79	N	1.103346	-0.407380	1.123122
N80	N	1.100719	-0.410828	1.188643
H81	H	1.132091	-0.369588	1.216435
N82	N	0.266129	-0.426134	0.299109
N83	N	0.300498	-0.370739	0.260373
H84	H	0.275328	-0.322947	0.226949
N85	N	0.414455	-0.434624	0.305046
N86	N	0.383283	-0.375492	0.263682
H87	H	0.411037	-0.330729	0.232371
N88	N	0.894646	-0.681759	0.784576
N89	N	0.892027	-0.685195	0.850098
H90	H	0.858533	-0.729216	0.875261
H91	H	0.604519	-0.401473	0.281858
