data_functionalizedCrystal
_audit_creation_method	'MofGen! by Chris Wilmer'
_symmetry_space_group_name_H-M	'P1'
_symmetry_Int_Tables_number	1
_symmetry_cell_setting	triclinic
loop_
_symmetry_equiv_pos_as_xyz
  x,y,z
_cell_length_a	14.519709
_cell_length_b	14.519709
_cell_length_c	13.930277
_cell_angle_alpha	89.994503
_cell_angle_beta	89.998398
_cell_angle_gamma	83.680145
loop_
_atom_site_label
_atom_site_type_symbol
_atom_site_fract_x
_atom_site_fract_y
_atom_site_fract_z
O1	O	1.223871	0.120891	-0.079708
O2	O	0.955394	0.135127	-0.079738
O3	O	1.096751	-0.006230	-0.079713
O4	O	1.082514	0.262247	-0.079732
O5	O	1.096731	-0.006233	0.079949
O6	O	0.955375	0.135124	0.079924
O7	O	1.223852	0.120887	0.079954
Zn8	Zn	1.089610	0.128005	0.105289
Zn9	Zn	1.089636	0.128009	-0.105073
O10	O	1.082495	0.262244	0.079930
C11	C	0.921025	0.134462	0.000090
C12	C	0.818643	0.132474	0.000079
C13	C	0.443748	0.125154	0.000123
C14	C	0.548056	0.127187	0.000110
C15	C	0.631192	0.128814	0.000100
C16	C	0.735507	0.130847	0.000089
C17	C	1.096078	-0.040591	0.000118
C18	C	1.094090	-0.142972	0.000118
C19	C	1.086770	-0.517868	0.000092
C20	C	1.088803	-0.413560	0.000100
C21	C	1.090430	-0.330423	0.000106
C22	C	1.092463	-0.226109	0.000112
C23	C	1.258221	0.121553	0.000125
C24	C	1.360602	0.123541	0.000129
C25	C	1.083168	0.296606	0.000097
C26	C	1.085156	0.398987	0.000090
N27	N	1.089599	0.128002	0.248855
N28	N	1.089654	0.128005	-0.248639
C29	C	1.027041	0.190577	0.701113
C30	C	1.152256	0.065434	0.701104
C31	C	1.152246	0.065431	0.600609
C32	C	1.089632	0.128003	0.550361
C33	C	1.027030	0.190578	0.600608
C34	C	1.214853	0.002863	0.550353
C35	C	1.214845	0.002859	0.449851
C36	C	1.152227	0.065427	0.399602
C37	C	1.089621	0.128004	0.449856
C38	C	1.027008	0.190576	0.399608
C39	C	0.964397	0.253149	0.449860
C40	C	0.964411	0.253147	0.550359
C41	C	1.152212	0.065430	0.299103
C42	C	1.026997	0.190577	0.299103
H43	H	0.976005	0.241528	0.258197
O44	O	1.219790	-0.002045	0.755301
H45	H	1.263324	-0.045551	0.703474
H46	H	0.913436	0.304092	0.591280
O47	O	1.219709	-0.002069	0.244892
H48	H	1.264589	0.036839	0.199083
O49	O	0.896849	0.320624	0.395662
H50	H	0.907358	0.310100	0.317338
H51	H	0.976061	0.241521	0.742031
H52	H	1.265836	-0.048077	0.591268
O53	O	1.282360	-0.064636	0.395652
H54	H	1.325895	-0.108151	0.447478
