data_functionalizedCrystal
_audit_creation_method	'MofGen! by Chris Wilmer'
_symmetry_space_group_name_H-M	'P1'
_symmetry_Int_Tables_number	1
_symmetry_cell_setting	triclinic
loop_
_symmetry_equiv_pos_as_xyz
  x,y,z
_cell_length_a	13.897449
_cell_length_b	25.639239
_cell_length_c	13.897441
_cell_angle_alpha	89.965695
_cell_angle_beta	89.979267
_cell_angle_gamma	90.039966
loop_
_atom_site_label
_atom_site_type_symbol
_atom_site_fract_x
_atom_site_fract_y
_atom_site_fract_z
Zn1	Zn	1.474562	-0.208116	-0.545356
Zn2	Zn	1.474397	-0.295559	-0.384047
Zn3	Zn	1.313251	-0.208141	-0.384075
Zn4	Zn	1.313174	-0.295524	-0.545300
O5	O	1.393846	-0.251835	-0.464695
O6	O	1.609522	-0.219720	-0.523970
O7	O	1.452984	-0.283987	-0.249069
O8	O	1.334751	-0.134973	-0.405504
O9	O	1.609400	-0.283963	-0.405457
O10	O	1.453265	-0.134954	-0.523997
O11	O	1.334591	-0.219762	-0.249089
O12	O	1.178259	-0.219729	-0.405449
O13	O	1.334619	-0.283905	-0.680289
O14	O	1.178202	-0.283929	-0.523901
O15	O	1.453190	-0.219686	-0.680331
O16	O	1.452909	-0.368719	-0.405403
O17	O	1.334459	-0.368694	-0.523874
C18	C	1.143232	-0.251828	-0.464673
C19	C	1.036018	-0.251838	-0.464686
C20	C	1.393684	-0.387678	-0.464650
C21	C	1.393702	-0.445792	-0.464664
C22	C	0.839722	-0.251840	-0.464711
C23	C	0.948955	-0.251837	-0.464695
C24	C	1.455684	-0.806155	-0.403111
C25	C	1.455721	-0.860760	-0.403124
O26	O	1.508251	-0.888997	-0.350742
N27	N	1.394015	-0.888074	-0.464758
C28	C	1.332275	-0.860782	-0.526391
O29	O	1.279794	-0.889029	-0.578817
C30	C	1.332243	-0.806178	-0.526382
C31	C	1.393946	-0.778867	-0.464737
C32	C	1.517382	-0.778844	-0.341472
C33	C	1.517343	-0.724243	-0.341458
C34	C	1.455606	-0.696954	-0.403084
C35	C	1.393907	-0.724266	-0.464723
C36	C	1.270509	-0.778887	-0.588018
C37	C	1.270483	-0.724280	-0.588004
C38	C	1.332186	-0.696968	-0.526359
C39	C	1.332131	-0.642377	-0.526334
N40	N	1.393837	-0.615062	-0.464700
C41	C	1.455574	-0.642351	-0.403075
C42	C	1.332348	-0.975452	-0.526405
C43	C	1.332374	-1.030055	-0.526410
C44	C	1.455821	-1.030029	-0.403145
C45	C	1.455790	-0.975426	-0.403136
C46	C	1.394054	-0.948138	-0.464771
C47	C	1.455487	-0.527686	-0.403050
C48	C	1.455440	-0.473081	-0.403038
C49	C	1.331997	-0.473111	-0.526307
C50	C	1.332040	-0.527712	-0.526315
C51	C	1.393793	-0.554998	-0.464683
O52	O	1.279630	-0.614105	-0.578693
O53	O	1.508056	-0.614097	-0.350666
C54	C	1.645439	-0.251843	-0.464717
C55	C	1.752653	-0.251846	-0.464727
C56	C	1.393914	-0.251789	-0.716288
C57	C	1.393943	-0.251769	-0.823502
C58	C	1.394035	-0.115462	-0.464760
C59	C	1.394116	-0.057348	-0.464788
C60	C	1.393970	-0.251734	-1.019797
C61	C	1.393952	-0.251755	-0.910564
C62	C	1.393833	-0.251843	-0.214080
C63	C	1.393991	-0.251716	-0.106867
H64	H	1.505686	-0.450845	-0.352836
C65	C	1.585298	-0.808854	-0.273673
C66	C	1.543566	-0.846439	-0.197902
C67	C	1.611481	-0.876445	-0.130090
C68	C	1.721126	-0.868866	-0.138050
C69	C	1.762863	-0.831279	-0.213824
C70	C	1.694949	-0.801273	-0.281635
H71	H	1.462395	-0.852051	-0.192007
H72	H	1.580583	-0.904269	-0.073997
H73	H	1.771401	-0.891078	-0.087852
H74	H	1.844035	-0.825667	-0.219719
H75	H	1.725846	-0.773449	-0.337728
C76	C	1.264086	-0.443088	-0.594093
C77	C	1.271908	-0.450546	-0.703758
C78	C	1.204001	-0.420523	-0.771550
C79	C	1.128273	-0.383041	-0.729678
C80	C	1.120448	-0.375582	-0.620007
C81	C	1.188355	-0.405605	-0.552215
H82	H	1.327969	-0.478294	-0.734759
H83	H	1.209794	-0.426045	-0.852736
H84	H	1.078004	-0.360816	-0.779862
H85	H	1.064387	-0.347834	-0.589006
H86	H	1.182562	-0.400083	-0.471030
C87	C	1.202636	-0.808922	-0.655830
C88	C	1.244416	-0.846407	-0.731608
C89	C	1.176539	-0.876442	-0.799423
C90	C	1.066884	-0.868994	-0.791460
C91	C	1.025099	-0.831508	-0.715679
C92	C	1.092975	-0.801472	-0.647863
H93	H	1.325594	-0.851922	-0.737505
H94	H	1.207472	-0.904192	-0.855521
H95	H	1.016638	-0.891228	-0.841661
H96	H	0.943921	-0.825993	-0.709781
H97	H	1.062043	-0.773723	-0.591765
H98	H	1.281799	-0.549950	-0.576514
C99	C	1.202566	-0.694263	-0.655802
C100	C	1.092921	-0.701840	-0.647834
C101	C	1.025003	-0.671824	-0.715627
C102	C	1.066731	-0.634233	-0.791389
C103	C	1.176382	-0.626654	-0.799359
C104	C	1.244300	-0.656670	-0.731566
H105	H	1.062026	-0.729669	-0.591748
H106	H	0.943831	-0.677434	-0.709726
H107	H	1.016454	-0.612013	-0.841573
H108	H	1.207277	-0.598825	-0.855445
H109	H	1.325471	-0.651060	-0.737467
H110	H	1.505774	-0.549896	-0.352865
C111	C	1.585229	-0.694207	-0.273655
C112	C	1.577431	-0.701769	-0.163995
C113	C	1.645325	-0.671739	-0.096189
C114	C	1.721017	-0.634146	-0.138044
C115	C	1.728819	-0.626582	-0.247710
C116	C	1.660925	-0.656612	-0.315515
H117	H	1.521396	-0.729600	-0.133006
H118	H	1.639549	-0.677338	-0.015007
H119	H	1.771276	-0.611915	-0.087851
H120	H	1.784853	-0.598752	-0.278698
H121	H	1.666700	-0.651013	-0.396697
H122	H	1.506034	-0.953192	-0.352940
H123	H	1.506095	-1.052257	-0.352969
C124	C	1.264492	-1.060094	-0.594213
C125	C	1.196586	-1.030069	-0.661996
C126	C	1.128706	-1.060106	-0.729806
C127	C	1.128734	-1.120168	-0.729834
C128	C	1.196643	-1.150196	-0.662048
C129	C	1.264522	-1.120159	-0.594238
H130	H	1.196564	-0.985605	-0.661978
H131	H	1.078436	-1.037877	-0.779985
H132	H	1.078485	-1.142403	-0.780031
H133	H	1.196665	-1.194660	-0.662067
H134	H	1.314793	-1.142388	-0.544059
H135	H	1.282067	-0.953237	-0.576593
