data_functionalizedCrystal
_audit_creation_method	'MofGen! by Chris Wilmer'
_symmetry_space_group_name_H-M	'P1'
_symmetry_Int_Tables_number	1
_symmetry_cell_setting	triclinic
loop_
_symmetry_equiv_pos_as_xyz
  x,y,z
_cell_length_a	8.965430
_cell_length_b	17.699083
_cell_length_c	17.699083
_cell_angle_alpha	96.716985
_cell_angle_beta	90.000469
_cell_angle_gamma	90.002231
loop_
_atom_site_label
_atom_site_type_symbol
_atom_site_fract_x
_atom_site_fract_y
_atom_site_fract_z
O1	O	0.123833	-1.004076	0.095706
O2	O	0.123882	-0.783697	0.108158
O3	O	0.123843	-0.900113	-0.008257
O4	O	0.123872	-0.887660	0.212121
O5	O	-0.124236	-0.900103	-0.008250
O6	O	-0.124196	-0.783687	0.108166
O7	O	-0.124246	-1.004066	0.095713
Cu8	Cu	-0.146873	-0.893876	0.101940
Cu9	Cu	0.146509	-0.893887	0.101931
O10	O	-0.124206	-0.887650	0.212129
C11	C	-0.000151	-0.755495	0.107716
C12	C	-0.000132	-0.671477	0.106377
N13	N	-0.353222	-0.893873	0.101946
C14	C	-0.000196	-0.899662	-0.036451
C15	C	-0.000197	-0.898323	-0.120469
C16	C	-0.450509	-0.840018	0.155767
C17	C	-0.549937	-0.908385	0.170327
C18	C	-0.549922	-0.825535	0.087392
C19	C	-0.450460	-0.962274	0.116541
C20	C	-0.450437	-0.879379	0.033576
C21	C	-0.549819	-0.947796	0.048107
N22	N	0.352858	-0.893896	0.101919
C23	C	-0.000209	-1.032268	0.096156
C24	C	-0.000218	-1.116286	0.097494
C25	C	-0.000124	-0.622856	0.174710
C26	C	-0.000143	-0.543913	0.173448
C27	C	-0.000161	-0.513592	0.103852
C28	C	-0.000174	-0.562219	0.035513
C29	C	-0.000165	-0.641161	0.036776
C30	C	-0.000211	-0.243856	0.030418
C31	C	-0.000216	-0.164908	0.029160
C32	C	-0.000190	-0.146608	0.167090
C33	C	-0.000181	-0.225550	0.168353
C34	C	-0.000202	-0.274170	0.100015
C35	C	-0.000183	-0.359769	0.101384
C36	C	-0.000168	-0.427995	0.102481
C37	C	-0.000214	-0.966656	-0.169090
C38	C	-0.000200	-0.965394	-0.248033
C39	C	-0.000180	-0.895798	-0.278354
C40	C	-0.000158	-0.827459	-0.229727
C41	C	-0.000161	-0.828722	-0.150785
C42	C	-0.000145	-0.822364	-0.548090
C43	C	-0.000147	-0.821106	-0.627038
C44	C	-0.000184	-0.959036	-0.645338
C45	C	-0.000187	-0.960299	-0.566396
C46	C	-0.000157	-0.891961	-0.517776
C47	C	-0.000169	-0.893330	-0.432177
C48	C	-0.000179	-0.894427	-0.363951
C49	C	-0.000164	-0.888102	0.240322
C50	C	-0.000154	-0.889440	0.324340
H51	H	-0.593641	-0.920660	0.228135
C52	C	-0.392427	-1.039294	0.133232
C53	C	-0.305660	-1.029980	0.199442
C54	C	-0.252212	-1.100909	0.214870
H55	H	-0.333251	-1.061127	0.091799
H56	H	-0.474217	-1.071892	0.140231
H57	H	-0.223883	-0.997395	0.192438
H58	H	-0.364805	-1.008160	0.240889
H59	H	-0.334001	-1.133507	0.221869
H60	H	-0.193042	-1.122736	0.173433
H61	H	-0.193346	-1.094601	0.259798
H62	H	-0.000240	-1.023330	-0.144409
H63	H	-0.593149	-0.993398	0.002578
H64	H	-0.000181	-0.107012	0.222734
H65	H	-0.000109	-0.647537	0.231384
H66	H	-0.406698	-0.867083	-0.024214
C67	C	-0.607966	-0.748391	0.071092
C68	C	-0.557612	-0.692222	0.127619
C69	C	-0.611028	-0.621145	0.112630
H70	H	-0.713909	-0.748986	0.070757
H71	H	-0.572387	-0.737677	0.022915
H72	H	-0.593199	-0.702933	0.175783
H73	H	-0.451676	-0.691602	0.127964
H74	H	-0.575449	-0.610431	0.064453
H75	H	-0.716970	-0.621748	0.112294
H76	H	-0.576860	-0.583025	0.150976
C77	C	-0.000056	-0.491250	0.247722
C78	C	0.000009	-0.534700	0.308941
C79	C	0.000106	-0.486213	0.377376
H80	H	-0.086549	-0.460063	0.250210
H81	H	0.086483	-0.460079	0.250133
H82	H	-0.086521	-0.565858	0.306530
H83	H	0.086496	-0.565886	0.306478
H84	H	0.086645	-0.455043	0.379787
H85	H	-0.086389	-0.455029	0.379856
H86	H	0.000164	-0.515687	0.418921
C87	C	-0.000035	-0.745462	-0.659812
C88	C	0.000035	-0.685884	-0.600337
C89	C	0.000158	-0.616195	-0.630500
H90	H	-0.086520	-0.741987	-0.690215
H91	H	0.086512	-0.742073	-0.690206
H92	H	-0.086503	-0.689271	-0.569955
H93	H	0.086514	-0.689333	-0.569929
H94	H	0.086704	-0.612806	-0.660895
H95	H	-0.086329	-0.612728	-0.660903
H96	H	0.000219	-0.575763	-0.590152
H97	H	-0.000133	-0.770792	-0.254420
C98	C	-0.000240	-0.258322	0.243993
C99	C	-0.000279	-0.198844	0.303568
C100	C	-0.000360	-0.229003	0.373259
H101	H	0.086249	-0.288722	0.247459
H102	H	-0.086784	-0.288718	0.247394
H103	H	0.086256	-0.168461	0.300169
H104	H	-0.086762	-0.168439	0.300127
H105	H	-0.086903	-0.259399	0.376660
H106	H	0.086131	-0.259403	0.376718
H107	H	-0.000400	-0.188653	0.413689
H108	H	-0.406906	-0.794517	0.201323
H109	H	-0.000232	-0.140225	-0.027517
H110	H	-0.000230	-0.283434	-0.025228
C111	C	-0.000262	-0.529449	-0.040128
C112	C	-0.000306	-0.588929	-0.099701
C113	C	-0.000401	-0.558773	-0.169394
H114	H	0.086224	-0.499044	-0.043597
H115	H	-0.086808	-0.499058	-0.043527
H116	H	0.086231	-0.619307	-0.096303
H117	H	-0.086787	-0.619339	-0.096257
H118	H	-0.086947	-0.528381	-0.172793
H119	H	0.086087	-0.528368	-0.172855
H120	H	-0.000444	-0.599124	-0.209823
H121	H	-0.000171	-0.680748	-0.018868
H122	H	-0.000218	-1.021038	-0.287618
C123	C	0.000184	-0.748192	-0.495275
C124	C	0.127838	-0.744877	-0.449436
C125	C	0.128202	-0.676552	-0.400779
H126	H	-0.086223	-0.745736	-0.464026
H127	H	0.000272	-0.706545	-0.524618
H128	H	0.127736	-0.786513	-0.420095
H129	H	0.214265	-0.747320	-0.480664
H130	H	0.128289	-0.634905	-0.430122
H131	H	0.041790	-0.674102	-0.369535
H132	H	0.214819	-0.674291	-0.369676
C133	C	0.000028	-1.035807	-0.533374
C134	C	0.127640	-1.040555	-0.488572
C135	C	0.127887	-1.110098	-0.458134
H136	H	0.000100	-1.076390	-0.573560
H137	H	-0.086438	-1.039172	-0.502916
H138	H	0.214084	-1.037197	-0.519028
H139	H	0.127595	-0.999988	-0.448374
H140	H	0.041420	-1.113464	-0.427676
H141	H	0.127954	-1.150675	-0.498324
H142	H	0.214462	-1.113326	-0.427727
H143	H	-0.000201	-1.014680	-0.684934
H144	H	-0.000147	-0.773078	-0.111198
