data_functionalizedCrystal
_audit_creation_method	'MofGen! by Chris Wilmer'
_symmetry_space_group_name_H-M	'P1'
_symmetry_Int_Tables_number	1
_symmetry_cell_setting	triclinic
loop_
_symmetry_equiv_pos_as_xyz
  x,y,z
_cell_length_a	10.685980
_cell_length_b	12.759400
_cell_length_c	10.686551
_cell_angle_alpha	94.403240
_cell_angle_beta	98.408259
_cell_angle_gamma	94.381247
loop_
_atom_site_label
_atom_site_type_symbol
_atom_site_fract_x
_atom_site_fract_y
_atom_site_fract_z
Zn1	Zn	1.995792	-0.235484	0.866717
Zn2	Zn	1.979373	-0.425813	0.654465
Zn3	Zn	1.767220	-0.264725	0.638184
Zn4	Zn	1.783497	-0.425711	0.850375
O5	O	1.881471	-0.337933	0.752435
O6	O	2.171248	-0.248537	0.852215
O7	O	1.937547	-0.416725	0.474674
O8	O	1.797600	-0.113820	0.668525
O9	O	2.159185	-0.388371	0.696274
O10	O	1.965531	-0.092336	0.836427
O11	O	1.781679	-0.298374	0.462712
O12	O	1.591746	-0.298275	0.652678
O13	O	1.825342	-0.388197	1.030174
O14	O	1.603704	-0.416551	0.808575
O15	O	1.981314	-0.248438	1.042181
O16	O	1.953330	-0.572826	0.680427
O17	O	1.809421	-0.572751	0.824362
C18	C	1.551667	-0.360576	0.727087
C19	C	1.410578	-0.370285	0.716273
C20	C	1.881397	-0.610906	0.752418
C21	C	1.881485	-0.727675	0.752463
C22	C	1.806529	-0.782541	0.827344
C23	C	1.806597	-0.892260	0.827361
C24	C	1.956588	-0.892235	0.677613
C25	C	1.956512	-0.782519	0.677590
C26	C	1.731501	-0.727697	0.902216
C27	C	1.656540	-0.782564	0.977105
C28	C	1.656609	-0.892282	0.977122
C29	C	1.731638	-0.947134	0.902251
C30	C	2.212562	-0.315203	0.777883
C31	C	2.353654	-0.305517	0.788728
C32	C	1.906975	-0.315044	1.083523
C33	C	1.917844	-0.305290	1.224613
C34	C	1.881582	-0.063890	0.752483
C35	C	1.881629	0.052891	0.752503
C36	C	1.856138	-0.360653	0.422641
C37	C	1.845516	-0.370094	0.281571
H38	H	1.731440	-0.638358	0.902213
C39	C	2.012743	-0.220254	1.304546
H40	H	2.056666	-0.180912	1.249894
H41	H	1.968147	-0.174274	1.352544
H42	H	2.071979	-0.253122	1.360500
C43	C	1.433624	-0.220572	0.883714
H44	H	1.521142	-0.224973	0.878777
H45	H	1.410545	-0.152704	0.863645
H46	H	1.418541	-0.231647	0.967333
H47	H	1.351368	-0.433168	0.645958
H48	H	1.595446	-0.737899	1.038055
C49	C	1.731715	-1.067822	0.902273
H50	H	1.676332	-1.092645	0.957598
H51	H	1.703539	-1.099845	0.818666
H52	H	1.815331	-1.085428	0.930601
H53	H	1.595564	-0.936953	1.038091
C54	C	1.750624	-0.455124	1.201638
H55	H	1.755514	-0.450741	1.114115
H56	H	1.770817	-0.522963	1.224717
H57	H	1.666988	-0.444113	1.216750
C58	C	2.039120	-0.952568	0.595272
H59	H	2.028438	-1.025768	0.606019
H60	H	2.014030	-0.941789	0.508542
H61	H	2.125823	-0.927377	0.620477
C62	C	2.038966	-0.722161	0.595228
H63	H	2.083674	-0.770534	0.550654
H64	H	1.986159	-0.686563	0.536146
H65	H	2.097954	-0.672157	0.648079
