data_functionalizedCrystal
_audit_creation_method	'MofGen! by Chris Wilmer'
_symmetry_space_group_name_H-M	'P1'
_symmetry_Int_Tables_number	1
_symmetry_cell_setting	triclinic
loop_
_symmetry_equiv_pos_as_xyz
  x,y,z
_cell_length_a	11.792241
_cell_length_b	17.699083
_cell_length_c	16.176319
_cell_angle_alpha	90.007696
_cell_angle_beta	89.993469
_cell_angle_gamma	96.261785
loop_
_atom_site_label
_atom_site_type_symbol
_atom_site_fract_x
_atom_site_fract_y
_atom_site_fract_z
O1	O	1.505670	-0.103738	-0.068732
O2	O	1.175201	-0.114429	-0.068737
O3	O	1.349772	0.001056	-0.068727
O4	O	1.331099	-0.219223	-0.068742
O5	O	1.349748	0.001063	0.068766
O6	O	1.175177	-0.114422	0.068756
O7	O	1.505646	-0.103731	0.068761
Cu8	Cu	1.340409	-0.109075	0.081313
Cu9	Cu	1.340437	-0.109084	-0.081289
O10	O	1.331075	-0.219216	0.068751
C11	C	1.349091	0.029260	0.000019
C12	C	1.347083	0.113289	0.000020
C13	C	1.132906	-0.113754	0.000009
C14	C	1.006916	-0.111744	0.000007
C15	C	1.547941	-0.104406	0.000013
C16	C	1.673930	-0.106416	0.000010
C17	C	1.904598	-0.110112	0.000010
C18	C	1.776238	-0.108058	0.000010
C19	C	1.331756	-0.247420	0.000003
C20	C	1.333763	-0.331449	-0.000003
N21	N	1.340397	-0.109069	0.195678
C22	C	1.449553	0.161364	0.000023
C23	C	1.447660	0.240317	0.000015
C24	C	1.343297	0.271194	0.000011
C25	C	1.240819	0.223113	0.000006
C26	C	1.242713	0.144161	0.000007
C27	C	1.233178	0.541517	-0.000001
C28	C	1.231292	0.620475	-0.000000
C29	C	1.438126	0.637673	0.000007
C30	C	1.440020	0.558721	0.000008
C31	C	1.337543	0.510647	-0.000001
C32	C	1.339596	0.425037	0.000005
C33	C	1.341242	0.356803	0.000011
N34	N	1.340458	-0.109085	-0.195654
C35	C	1.417721	-0.057953	0.238947
C36	C	1.417727	-0.057952	0.325494
C37	C	1.340413	-0.109071	0.368771
C38	C	1.263082	-0.160189	0.325496
C39	C	1.263072	-0.160186	0.238950
C40	C	1.263121	-0.160204	0.674524
C41	C	1.263139	-0.160205	0.761076
C42	C	1.417776	-0.057970	0.761067
C43	C	1.417765	-0.057967	0.674522
C44	C	1.340430	-0.109082	0.631255
C45	C	1.340424	-0.109081	0.537411
C46	C	1.340425	-0.109076	0.462613
H47	H	1.534538	0.136230	0.000031
H48	H	1.200154	-0.201825	0.639303
H49	H	1.200127	-0.201809	0.360737
O50	O	1.547304	0.286908	0.000060
C51	C	1.752662	0.295635	0.000032
C52	C	1.639895	0.242784	-0.000000
H53	H	1.827551	0.259982	-0.000035
H54	H	1.757008	0.333022	0.057585
H55	H	1.756903	0.333036	-0.057496
H56	H	1.635578	0.205335	0.057489
H57	H	1.635596	0.205449	-0.057592
H58	H	1.200106	-0.201809	0.203722
O59	O	1.139511	0.253195	-0.000109
C60	C	1.017317	0.332308	-0.071367
C61	C	1.132101	0.298307	-0.071333
H62	H	1.011279	0.368775	-0.128954
H63	H	1.011232	0.368896	-0.013865
H64	H	0.944422	0.284371	-0.071330
H65	H	1.205062	0.346194	-0.071399
H66	H	1.138087	0.261699	-0.128830
O67	O	1.143069	0.097567	0.000041
C68	C	0.937711	0.088836	-0.000023
C69	C	1.050476	0.141689	-0.000036
H70	H	0.862820	0.124487	-0.000103
H71	H	0.933333	0.051461	0.057529
H72	H	0.933507	0.051423	-0.057552
H73	H	1.054756	0.179150	0.057454
H74	H	1.054808	0.179013	-0.057626
H75	H	1.480683	-0.016329	0.203716
H76	H	1.525003	0.533586	0.000016
H77	H	1.480724	-0.016343	0.639289
O78	O	1.492690	-0.008225	0.367557
C79	C	1.517184	0.095007	0.465313
C80	C	1.432157	0.038742	0.417717
H81	H	1.468276	0.132983	0.505892
H82	H	1.572426	0.131591	0.419548
H83	H	1.573809	0.062057	0.505780
H84	H	1.375458	0.071631	0.377249
H85	H	1.376995	0.002158	0.463527
H86	H	1.521567	0.676825	0.000011
O87	O	1.492841	-0.008204	0.803010
C88	C	1.559670	0.123103	0.829538
C89	C	1.474616	0.066830	0.781975
H90	H	1.544949	0.183781	0.812563
H91	H	1.650565	0.112896	0.812494
H92	H	1.546410	0.114286	0.898824
H93	H	1.487772	0.075614	0.712679
H94	H	1.383752	0.077052	0.799088
H95	H	1.146302	0.645611	-0.000002
H96	H	1.200177	-0.201834	0.796310
O97	O	1.133560	0.494905	-0.000111
C98	C	0.957385	0.456019	-0.071363
C99	C	1.070156	0.508866	-0.071335
H100	H	0.906103	0.467277	-0.128950
H101	H	0.905932	0.467322	-0.013861
H102	H	0.976678	0.394290	-0.071323
H103	H	1.050967	0.570614	-0.071404
H104	H	1.121576	0.497498	-0.128832
