data_functionalizedCrystal
_audit_creation_method	'MofGen! by Chris Wilmer'
_symmetry_space_group_name_H-M	'P1'
_symmetry_Int_Tables_number	1
_symmetry_cell_setting	triclinic
loop_
_symmetry_equiv_pos_as_xyz
  x,y,z
_cell_length_a	17.077402
_cell_length_b	19.077269
_cell_length_c	17.077396
_cell_angle_alpha	92.279674
_cell_angle_beta	89.972472
_cell_angle_gamma	87.726560
loop_
_atom_site_label
_atom_site_type_symbol
_atom_site_fract_x
_atom_site_fract_y
_atom_site_fract_z
Zn1	Zn	-0.360703	1.075950	-0.395606
Zn2	Zn	-0.491974	1.075865	-0.264346
Zn3	Zn	-0.355458	0.958257	-0.269631
Zn4	Zn	-0.486658	0.958227	-0.400844
O5	O	-0.423698	1.017075	-0.332607
O6	O	-0.382536	1.174426	-0.373790
O7	O	-0.473895	1.060242	-0.155201
O8	O	-0.246309	0.973917	-0.286361
O9	O	-0.478981	1.174364	-0.277354
O10	O	-0.250163	1.060386	-0.378915
O11	O	-0.373597	0.973835	-0.159084
O12	O	-0.368442	0.859765	-0.291440
O13	O	-0.469919	0.973866	-0.509995
O14	O	-0.464834	0.859743	-0.387842
O15	O	-0.377381	1.060357	-0.506147
O16	O	-0.601114	1.060213	-0.282433
O17	O	-0.597208	0.973784	-0.382718
C18	C	-0.415493	0.834218	-0.340784
C19	C	-0.412001	0.755991	-0.344300
C20	C	-0.460492	0.719204	-0.295669
C21	C	-0.457212	0.645702	-0.298984
C22	C	-0.405436	0.608987	-0.350927
C23	C	-0.356942	0.645779	-0.399564
C24	C	-0.360227	0.719280	-0.396252
C25	C	-0.390239	0.389166	-0.366226
C26	C	-0.386956	0.315659	-0.369532
C27	C	-0.487227	0.315587	-0.268953
C28	C	-0.490504	0.389090	-0.265643
C29	C	-0.442014	0.425875	-0.314282
N30	N	-0.402079	0.533856	-0.354314
N31	N	-0.445374	0.501005	-0.310898
C32	C	-0.627643	1.017005	-0.332587
C33	C	-0.714894	1.017039	-0.332601
C34	C	-0.757822	1.062039	-0.380835
C35	C	-0.839804	1.062069	-0.380851
C36	C	-0.878857	1.017102	-0.332627
C37	C	-0.835923	0.972097	-0.284391
C38	C	-0.753942	0.972064	-0.284381
C39	C	-1.006796	0.972169	-0.284415
C40	C	-1.088782	0.972202	-0.284425
C41	C	-1.092658	1.062174	-0.380885
C42	C	-1.010677	1.062141	-0.380875
C43	C	-0.967749	1.017137	-0.332638
C44	C	-0.218958	1.017164	-0.332643
C45	C	-0.131710	1.017202	-0.332659
C46	C	-0.423642	1.017117	-0.537349
C47	C	-0.423619	1.017135	-0.624598
C48	C	-0.431937	1.200646	-0.324398
C49	C	-0.435447	1.278873	-0.320900
C50	C	-0.375430	1.062173	-0.663586
C51	C	-0.375404	1.062181	-0.745566
C52	C	-0.423572	1.017155	-0.788557
C53	C	-0.471762	0.972113	-0.749564
C54	C	-0.471784	0.972102	-0.667585
C55	C	-0.471717	0.972141	-0.920433
C56	C	-0.471697	0.972154	-1.002417
C57	C	-0.375337	1.062221	-0.998413
C58	C	-0.375358	1.062210	-0.916435
C59	C	-0.423550	1.017168	-0.877447
C60	C	-0.423699	1.017073	-0.128659
C61	C	-0.423508	1.017191	-0.041404
H62	H	-0.344787	0.285768	-0.411828
H63	H	-0.874753	1.098717	-0.420121
Cl64	Cl	-0.952830	0.915593	-0.223771
Cl65	Cl	-0.532242	0.915541	-1.056462
H66	H	-0.718991	0.935420	-0.245105
Cl67	Cl	-0.532301	0.915516	-0.871421
H68	H	-0.532665	0.418978	-0.223344
H69	H	-0.336208	1.098840	-0.628588
H70	H	-0.350755	0.419107	-0.405833
H71	H	-0.510978	0.935450	-0.784574
H72	H	-0.867725	0.935481	-0.245130
H73	H	-0.978881	1.098760	-0.420138
Cl74	Cl	-0.291857	0.599623	-0.464870
Cl75	Cl	-0.314857	1.118834	-0.794574
H76	H	-0.320740	0.749230	-0.435853
H77	H	-0.726032	1.098660	-0.420101
Cl78	Cl	-0.532364	0.915479	-0.618572
H79	H	-1.127614	1.098817	-0.420163
Cl80	Cl	-1.137876	0.915671	-0.223800
H81	H	-0.336140	1.098878	-0.881433
Cl82	Cl	-0.548185	0.269339	-0.207812
Cl83	Cl	-0.525585	0.765353	-0.230364
H84	H	-0.496699	0.615753	-0.259382
Cl85	Cl	-0.314754	1.118846	-1.047425
