data_functionalizedCrystal
_audit_creation_method	'MofGen! by Chris Wilmer'
_symmetry_space_group_name_H-M	'P1'
_symmetry_Int_Tables_number	1
_symmetry_cell_setting	triclinic
loop_
_symmetry_equiv_pos_as_xyz
  x,y,z
_cell_length_a	15.021413
_cell_length_b	14.519709
_cell_length_c	14.519709
_cell_angle_alpha	96.319855
_cell_angle_beta	89.998665
_cell_angle_gamma	89.998426
loop_
_atom_site_label
_atom_site_type_symbol
_atom_site_fract_x
_atom_site_fract_y
_atom_site_fract_z
O1	O	0.073918	-1.223872	0.120881
O2	O	0.573918	-0.723872	0.620881
O3	O	0.073946	-0.955395	0.135118
O4	O	0.573946	-0.455395	0.635118
O5	O	0.073923	-1.096752	-0.006239
O6	O	0.573923	-0.596752	0.493761
O7	O	0.073941	-1.082515	0.262238
O8	O	0.573941	-0.582515	0.762238
O9	O	-0.074141	-1.096730	-0.006223
O10	O	0.425859	-0.596730	0.493777
O11	O	-0.074119	-0.955374	0.135133
O12	O	0.425881	-0.455374	0.635133
O13	O	-0.074146	-1.223851	0.120897
O14	O	0.425854	-0.723851	0.620897
Zn15	Zn	-0.097641	-1.089609	0.128017
Zn16	Zn	0.402359	-0.589609	0.628017
Zn17	Zn	0.097440	-1.089637	0.127997
Zn18	Zn	0.597440	-0.589637	0.627997
O19	O	-0.074124	-1.082494	0.262253
O20	O	0.425876	-0.582494	0.762253
C21	C	-0.000109	-1.096078	-0.040591
C22	C	0.499891	-0.596078	0.459409
C23	C	-0.000109	-1.094090	-0.142972
C24	C	0.499891	-0.594090	0.357028
C25	C	-0.000083	-0.921025	0.134462
C26	C	0.499917	-0.421025	0.634462
C27	C	-0.000073	-0.818643	0.132474
C28	C	0.499927	-0.318643	0.632474
N29	N	-0.230778	-1.089596	0.128031
N30	N	0.269222	-0.589596	0.628031
C31	C	-0.529783	-1.024776	0.193906
C32	C	-0.029783	-0.524776	0.693906
C33	C	-0.470427	-1.005982	0.110797
C34	C	0.029573	-0.505982	0.610797
C35	C	-0.587815	-1.089636	0.127993
C36	C	-0.087815	-0.589636	0.627993
C37	C	-0.470429	-1.108366	0.211119
C38	C	0.029571	-0.608366	0.711119
C39	C	-0.412391	-1.089614	0.128016
C40	C	0.087609	-0.589614	0.628016
C41	C	-0.529766	-1.070801	0.044841
C42	C	-0.029766	-0.570801	0.544841
C43	C	-0.529773	-1.173222	0.145218
C44	C	-0.029773	-0.673222	0.645218
C45	C	-0.470444	-1.154463	0.062048
C46	C	0.029556	-0.654463	0.562048
C47	C	-0.688873	-1.089647	0.127981
C48	C	-0.188873	-0.589647	0.627981
C49	C	-0.311336	-1.089604	0.128019
C50	C	0.188664	-0.589604	0.628019
N51	N	0.230578	-1.089657	0.127977
N52	N	0.730578	-0.589657	0.627977
C53	C	-0.000116	-1.258221	0.121553
C54	C	0.499884	-0.758221	0.621553
C55	C	-0.000120	-1.360602	0.123541
C56	C	0.499880	-0.860602	0.623541
C57	C	-0.000114	-0.443748	0.125154
C58	C	0.499886	0.056252	0.625154
C59	C	-0.000102	-0.548056	0.127187
C60	C	0.499898	-0.048056	0.627187
C61	C	-0.000093	-0.631192	0.128814
C62	C	0.499907	-0.131192	0.628814
C63	C	-0.000083	-0.735507	0.130847
C64	C	0.499917	-0.235507	0.630847
C65	C	-0.000086	-1.086770	-0.517868
C66	C	0.499914	-0.586770	-0.017868
C67	C	-0.000092	-1.088803	-0.413560
C68	C	0.499908	-0.588803	0.086440
C69	C	-0.000098	-1.090430	-0.330423
C70	C	0.499902	-0.590430	0.169577
C71	C	-0.000104	-1.092463	-0.226109
C72	C	0.499896	-0.592463	0.273891
C73	C	-0.000090	-1.083168	0.296606
C74	C	0.499910	-0.583168	0.796606
C75	C	-0.000083	-1.085156	0.398987
C76	C	0.499917	-0.585156	0.898987
H77	H	-0.555837	-0.969898	0.249574
H78	H	-0.055837	-0.469898	0.749574
C79	C	-0.435709	-0.911646	0.091556
C80	C	0.064291	-0.411646	0.591556
C81	C	-0.465750	-0.844018	0.160764
C82	C	0.034250	-0.344018	0.660764
C83	C	-0.433780	-0.757105	0.143082
C84	C	0.066220	-0.257105	0.643082
H85	H	-0.456878	-0.897759	0.033004
H86	H	0.043122	-0.397759	0.533004
H87	H	-0.372467	-0.912449	0.091184
H88	H	0.127533	-0.412449	0.591184
H89	H	-0.528978	-0.843213	0.161126
H90	H	-0.028978	-0.343213	0.661126
H91	H	-0.444583	-0.857874	0.219323
H92	H	0.055417	-0.357874	0.719323
H93	H	-0.370538	-0.757908	0.142711
H94	H	0.129462	-0.257908	0.642711
H95	H	-0.454951	-0.743228	0.084529
H96	H	0.045049	-0.243228	0.584529
H97	H	-0.454151	-0.711210	0.190041
H98	H	0.045849	-0.211210	0.690041
H99	H	-0.444382	-1.124230	0.281410
H100	H	0.055618	-0.624230	0.781410
C101	C	-0.564540	-1.049517	-0.048824
C102	C	-0.064540	-0.549517	0.451176
C103	C	-0.657742	-1.049716	-0.047722
C104	C	-0.157742	-0.549716	0.452278
C105	C	-0.689808	-1.030098	-0.133982
C106	C	-0.189808	-0.530098	0.366018
H107	H	-0.543843	-1.095275	-0.095730
H108	H	-0.043843	-0.595275	0.404270
H109	H	-0.543776	-0.990301	-0.061170
H110	H	-0.043776	-0.490301	0.438830
H111	H	-0.678497	-1.108923	-0.035387
H112	H	-0.178497	-0.608923	0.464613
H113	H	-0.678462	-1.003958	-0.000834
H114	H	-0.178462	-0.503958	0.499166
H115	H	-0.669044	-0.970882	-0.146328
H116	H	-0.169044	-0.470882	0.353672
H117	H	-0.669105	-1.075858	-0.180882
H118	H	-0.169105	-0.575858	0.319118
H119	H	-0.753048	-1.030222	-0.133244
H120	H	-0.253048	-0.530222	0.366756
C121	C	-0.564394	-1.267505	0.164733
C122	C	-0.064394	-0.767505	0.664733
C123	C	-0.492406	-1.325950	0.177736
C124	C	0.007594	-0.825950	0.677736
C125	C	-0.524265	-1.412805	0.195740
C126	C	-0.024265	-0.912805	0.695740
H127	H	-0.599156	-1.293663	0.113787
H128	H	-0.099156	-0.793663	0.613787
H129	H	-0.600067	-1.260618	0.219088
H130	H	-0.100067	-0.760618	0.719088
H131	H	-0.456748	-1.332839	0.123388
H132	H	0.043252	-0.832839	0.623388
H133	H	-0.457637	-1.299821	0.228685
H134	H	0.042363	-0.799821	0.728685
H135	H	-0.559938	-1.405919	0.250095
H136	H	-0.059938	-0.905919	0.750095
H137	H	-0.559027	-1.438955	0.144791
H138	H	-0.059027	-0.938955	0.644791
H139	H	-0.475427	-1.452468	0.204573
H140	H	0.024573	-0.952468	0.704573
H141	H	-0.444555	-1.209307	0.006256
H142	H	0.055445	-0.709307	0.506256
