data_functionalizedCrystal
_audit_creation_method	'MofGen! by Chris Wilmer'
_symmetry_space_group_name_H-M	'P1'
_symmetry_Int_Tables_number	1
_symmetry_cell_setting	triclinic
loop_
_symmetry_equiv_pos_as_xyz
  x,y,z
_cell_length_a	16.109301
_cell_length_b	16.109301
_cell_length_c	9.130313
_cell_angle_alpha	89.999196
_cell_angle_beta	89.994060
_cell_angle_gamma	83.461481
loop_
_atom_site_label
_atom_site_type_symbol
_atom_site_fract_x
_atom_site_fract_y
_atom_site_fract_z
O1	O	0.106867	1.103131	-0.121711
O2	O	0.120166	0.861069	-0.121735
O3	O	-0.007514	0.988749	-0.121708
O4	O	0.234548	0.975450	-0.121739
O5	O	-0.007518	0.988741	0.121891
O6	O	0.120163	0.861060	0.121864
O7	O	0.106863	1.103122	0.121887
Cu8	Cu	0.113513	0.982090	0.144118
Cu9	Cu	0.113517	0.982101	-0.143966
O10	O	0.234544	0.975441	0.121860
C11	C	0.119626	0.830090	0.000061
C12	C	0.118011	0.737794	0.000053
C13	C	-0.038491	0.988206	0.000092
C14	C	-0.130786	0.986591	0.000094
C15	C	0.190018	0.515522	0.000060
C16	C	0.188494	0.428801	0.000070
C17	C	0.037006	0.448676	0.000083
C18	C	0.038530	0.535394	0.000084
C19	C	0.115039	0.568815	0.000065
C20	C	0.111990	0.395376	0.000074
C21	C	0.110337	0.301350	0.000084
C22	C	0.116693	0.662847	0.000058
C23	C	-0.353059	1.058599	0.000078
C24	C	-0.439779	1.057075	0.000066
C25	C	-0.419905	0.905586	0.000057
C26	C	-0.333186	0.907111	0.000058
C27	C	-0.299766	0.983620	0.000077
C28	C	-0.473205	0.980571	0.000063
C29	C	-0.567231	0.978918	0.000050
C30	C	-0.205734	0.985273	0.000087
C31	C	0.265521	0.975984	0.000057
C32	C	0.357816	0.977600	0.000045
C33	C	0.107404	1.134101	0.000088
C34	C	0.109019	1.226397	0.000087
N35	N	0.113509	0.982089	0.346741
N36	N	0.113514	0.982108	-0.346588
C37	C	0.056996	1.038645	0.423405
C38	C	0.056996	1.038653	0.576742
C39	C	0.170030	0.925546	0.576737
C40	C	0.170025	0.925535	0.423403
H41	H	0.252317	0.542730	0.000056
O42	O	0.224964	0.870709	0.348763
C43	C	0.276281	0.915210	0.260069
H44	H	0.243187	0.980274	0.237094
H45	H	0.289418	0.880499	0.152247
H46	H	0.337733	0.920842	0.319141
O47	O	-0.452233	0.831197	-0.000016
C48	C	-0.386596	0.765345	0.000015
H49	H	-0.327691	0.788638	-0.046101
H50	H	-0.404698	0.711932	-0.070712
H51	H	-0.374325	0.742215	0.116880
O52	O	0.002214	1.093628	0.651374
C53	C	0.046760	1.144919	0.740020
H54	H	0.111807	1.111784	0.762985
H55	H	0.012062	1.158091	0.847849
H56	H	0.052432	1.206356	0.680910
O57	O	-0.034386	0.587051	0.000022
C58	C	-0.102241	0.538960	0.000063
H59	H	-0.081126	0.474231	-0.046061
H60	H	-0.154772	0.570970	-0.070654
H61	H	-0.125696	0.532792	0.116931
O62	O	-0.281377	0.834294	-0.000202
C63	C	-0.230601	0.830659	-0.126348
H64	H	-0.262372	0.873183	-0.214523
H65	H	-0.220824	0.763687	-0.168703
H66	H	-0.167551	0.852166	-0.097825
H67	H	-0.325851	1.120897	0.000090
O68	O	0.261406	0.377151	-0.000005
C69	C	0.329257	0.425249	0.000018
H70	H	0.308138	0.489977	-0.046101
H71	H	0.381792	0.393244	-0.070710
H72	H	0.352706	0.431419	0.116881
O73	O	-0.037239	0.416071	0.000025
C74	C	-0.022509	0.328102	0.000056
H75	H	0.042379	0.307719	-0.046067
H76	H	-0.071459	0.301493	-0.070666
H77	H	-0.026537	0.303962	0.116921
H78	H	-0.483168	1.118130	0.000064
H79	H	0.010976	1.084693	0.360990
H80	H	0.216045	0.879502	0.639170
