data_functionalizedCrystal
_audit_creation_method	'MofGen! by Chris Wilmer'
_symmetry_space_group_name_H-M	'P1'
_symmetry_Int_Tables_number	1
_symmetry_cell_setting	triclinic
loop_
_symmetry_equiv_pos_as_xyz
  x,y,z
_cell_length_a	13.897441
_cell_length_b	12.759401
_cell_length_c	12.759400
_cell_angle_alpha	89.985155
_cell_angle_beta	89.971183
_cell_angle_gamma	90.018699
loop_
_atom_site_label
_atom_site_type_symbol
_atom_site_fract_x
_atom_site_fract_y
_atom_site_fract_z
Zn1	Zn	-0.545341	-1.606258	-0.418228
Zn2	Zn	-0.045341	-1.106258	0.081772
Zn3	Zn	-0.384047	-1.606151	-0.593939
Zn4	Zn	0.115953	-1.106151	-0.093939
Zn5	Zn	-0.384065	-1.430559	-0.418275
Zn6	Zn	0.115935	-0.930559	0.081725
Zn7	Zn	-0.545306	-1.430548	-0.593866
Zn8	Zn	-0.045306	-0.930548	-0.093866
O9	O	-0.464690	-1.518379	-0.506077
O10	O	0.035310	-1.018379	-0.006077
O11	O	-0.523952	-1.753265	-0.441548
O12	O	-0.023952	-1.253265	0.058452
O13	O	-0.249068	-1.582819	-0.570686
O14	O	0.250932	-1.082819	-0.070686
O15	O	-0.405481	-1.453915	-0.271248
O16	O	0.094519	-0.953915	0.228752
O17	O	-0.405450	-1.753186	-0.570641
O18	O	0.094550	-1.253186	-0.070641
O19	O	-0.523969	-1.583000	-0.271213
O20	O	-0.023969	-1.083000	0.228787
O21	O	-0.249081	-1.453812	-0.441627
O22	O	0.250919	-0.953812	0.058373
O23	O	-0.405446	-1.283537	-0.441557
O24	O	0.094554	-0.783537	0.058443
O25	O	-0.680292	-1.453896	-0.570518
O26	O	-0.180292	-0.953896	-0.070518
O27	O	-0.523909	-1.283529	-0.570563
O28	O	-0.023909	-0.783529	-0.070563
O29	O	-0.680318	-1.582989	-0.441477
O30	O	-0.180318	-1.082989	0.058523
O31	O	-0.405416	-1.582808	-0.740950
O32	O	0.094584	-1.082808	-0.240950
O33	O	-0.523892	-1.453793	-0.740897
O34	O	-0.023892	-0.953793	-0.240897
C35	C	-0.464676	-1.245412	-0.506058
C36	C	0.035324	-0.745412	-0.006058
C37	C	-0.464694	-1.128635	-0.506075
C38	C	0.035306	-0.628635	-0.006075
C39	C	-0.716283	-1.518454	-0.505984
C40	C	-0.216283	-1.018454	-0.005984
C41	C	-0.823497	-1.518485	-0.505945
C42	C	-0.323497	-1.018485	-0.005945
C43	C	-0.464669	-1.518317	-0.779044
C44	C	0.035331	-1.018317	-0.279044
C45	C	-0.464693	-1.518386	-0.895821
C46	C	0.035307	-1.018386	-0.395821
C47	C	-1.019792	-1.518514	-0.505874
C48	C	-0.519792	-1.018514	-0.005874
C49	C	-0.910559	-1.518495	-0.505916
C50	C	-0.410559	-1.018495	-0.005916
C51	C	-0.214075	-1.518365	-0.506094
C52	C	0.285925	-1.018365	-0.006094
C53	C	-0.106862	-1.518537	-0.505837
C54	C	0.393138	-1.018537	-0.005837
C55	C	-0.464703	-1.792412	-0.506097
C56	C	0.035297	-1.292412	-0.006097
C57	C	-0.464709	-1.909189	-0.506106
C58	C	0.035291	-1.409189	-0.006106
C59	C	-0.526275	-1.073796	-0.573356
C60	C	-0.026275	-0.573796	-0.073356
C61	C	-0.526286	-0.964072	-0.573369
C62	C	-0.026286	-0.464072	-0.073369
C63	C	-0.403125	-0.964035	-0.438817
C64	C	0.096875	-0.464035	0.061183
C65	C	-0.403120	-1.073757	-0.438800
C66	C	0.096880	-0.573757	0.061200
C67	C	-0.587849	-1.128674	-0.640631
C68	C	-0.087849	-0.628674	-0.140631
C69	C	-0.649435	-1.073835	-0.707918
C70	C	-0.149435	-0.573835	-0.207918
C71	C	-0.649445	-0.964111	-0.707932
C72	C	-0.149445	-0.464111	-0.207932
C73	C	-0.587870	-0.909226	-0.640658
C74	C	-0.087870	-0.409226	-0.140658
C75	C	-0.403071	-1.585639	-0.950676
C76	C	0.096929	-1.085639	-0.450676
C77	C	-0.403101	-1.585703	-1.060400
C78	C	0.096899	-1.085703	-0.560400
C79	C	-0.526377	-1.451254	-1.060405
C80	C	-0.026377	-0.951254	-0.560405
C81	C	-0.526352	-1.451195	-0.950683
C82	C	-0.026352	-0.951195	-0.450683
C83	C	-0.341412	-1.652830	-0.895814
C84	C	0.158588	-1.152830	-0.395814
C85	C	-0.279784	-1.720087	-0.950669
C86	C	0.220216	-1.220087	-0.450669
C87	C	-0.279814	-1.720151	-1.060393
C88	C	0.220186	-1.220151	-0.560393
C89	C	-0.341472	-1.652959	-1.115262
C90	C	0.158528	-1.152959	-0.615262
C91	C	-0.464731	-1.518470	-0.232044
C92	C	0.035269	-1.018470	0.267956
C93	C	-0.464748	-1.518509	-0.115267
C94	C	0.035252	-1.018509	0.384733
H95	H	-0.587846	-1.218017	-0.640630
H96	H	-0.087846	-0.718017	-0.140630
Br97	Br	-0.196190	-1.811439	-1.134838
Br98	Br	0.303810	-1.311439	-0.634838
H99	H	-0.699598	-0.919465	-0.762713
H100	H	-0.199598	-0.419465	-0.262713
H101	H	-0.352982	-1.118408	-0.384006
H102	H	0.147018	-0.618408	0.115994
Br103	Br	-0.587896	-0.760313	-0.640666
Br104	Br	-0.087896	-0.260313	-0.140666
Br105	Br	-0.341069	-1.652568	-1.264174
Br106	Br	0.158931	-1.152568	-0.764174
H107	H	-0.352992	-0.919339	-0.384047
H108	H	0.147008	-0.419339	0.115953
Br109	Br	-0.196123	-1.811285	-0.876208
Br110	Br	0.303877	-1.311285	-0.376208
Br111	Br	-0.341666	-1.653069	-0.746904
Br112	Br	0.158334	-1.153069	-0.246904
Br113	Br	-0.733005	-1.148319	-0.799205
Br114	Br	-0.233005	-0.648319	-0.299205
Br115	Br	-0.610049	-1.360069	-1.134869
Br116	Br	-0.110049	-0.860069	-0.634869
Br117	Br	-0.609988	-1.359928	-0.876230
Br118	Br	-0.109988	-0.859928	-0.376230
