data_functionalizedCrystal
_audit_creation_method	'MofGen! by Chris Wilmer'
_symmetry_space_group_name_H-M	'P1'
_symmetry_Int_Tables_number	1
_symmetry_cell_setting	triclinic
loop_
_symmetry_equiv_pos_as_xyz
  x,y,z
_cell_length_a	6.817900
_cell_length_b	9.582860
_cell_length_c	11.102302
_cell_angle_alpha	90.974519
_cell_angle_beta	108.605901
_cell_angle_gamma	111.206767
loop_
_atom_site_label
_atom_site_type_symbol
_atom_site_fract_x
_atom_site_fract_y
_atom_site_fract_z
V1	V	-4.125329	-0.207059	-0.396024
O2	O	-4.069902	0.009947	-0.388725
O3	O	-4.115666	-0.410560	-0.393085
O4	O	-4.101899	-0.203875	-0.568849
O5	O	-4.083764	-0.198168	-0.211744
V6	V	-4.600702	-0.181102	-0.374011
O7	O	-4.404465	-0.263996	-0.444312
O8	O	-4.771763	-0.124164	-0.325723
O9	O	-4.387159	0.022399	-0.376950
O10	O	-4.773526	-0.398108	-0.381310
O11	O	-4.759664	-0.189992	-0.558290
O12	O	-4.400926	-0.184286	-0.201186
C13	C	-3.969282	-0.460169	-0.386778
C14	C	-4.042834	-0.626533	-0.385527
C15	C	-3.951720	-0.196520	-0.610981
C16	C	-4.014103	-0.195264	-0.752264
C17	C	-4.286518	-0.200954	-0.957863
C18	C	-4.227922	-0.202145	-0.825114
C19	C	-3.858878	-0.187208	-0.812173
C20	C	-3.917480	-0.186028	-0.944921
C21	C	-4.196886	0.072000	-0.383253
C22	C	-4.102573	0.238363	-0.384512
C23	C	-4.214447	-0.191646	-0.159047
C24	C	-4.131301	-0.192894	-0.017762
H25	H	-4.460625	-0.206553	-1.017168
C26	C	-3.623673	-0.179642	-0.732034
N27	N	-3.446511	-0.173939	-0.671674
H28	H	-3.791074	-0.179469	-0.993692
H29	H	-4.354323	-0.208711	-0.776351
