data_functionalizedCrystal
_audit_creation_method	'MofGen! by Chris Wilmer'
_symmetry_space_group_name_H-M	'P1'
_symmetry_Int_Tables_number	1
_symmetry_cell_setting	triclinic
loop_
_symmetry_equiv_pos_as_xyz
  x,y,z
_cell_length_a	16.120484
_cell_length_b	13.897449
_cell_length_c	13.897441
_cell_angle_alpha	90.022859
_cell_angle_beta	92.865635
_cell_angle_gamma	87.074557
loop_
_atom_site_label
_atom_site_type_symbol
_atom_site_fract_x
_atom_site_fract_y
_atom_site_fract_z
Zn1	Zn	-0.331884	-1.455180	-0.564879
Zn2	Zn	0.001450	-1.121847	-0.231546
Zn3	Zn	0.334783	-0.788514	0.101787
Zn4	Zn	-0.471315	-1.446872	-0.411749
Zn5	Zn	-0.137982	-1.113539	-0.078416
Zn6	Zn	0.195352	-0.780206	0.254917
Zn7	Zn	-0.331920	-1.293867	-0.403594
Zn8	Zn	0.001414	-0.960534	-0.070261
Zn9	Zn	0.334747	-0.627201	0.263073
Zn10	Zn	-0.471257	-1.285653	-0.572993
Zn11	Zn	-0.137923	-0.952319	-0.239659
Zn12	Zn	0.195410	-0.618986	0.093674
O13	O	-0.401594	-1.370393	-0.488304
O14	O	-0.068260	-1.037060	-0.154971
O15	O	0.265073	-0.703727	0.178363
O16	O	-0.350389	-1.589059	-0.544584
O17	O	-0.017055	-1.255726	-0.211251
O18	O	0.316278	-0.922393	0.122083
O19	O	-0.452863	-1.426537	-0.275688
O20	O	-0.119530	-1.093204	0.057645
O21	O	0.213803	-0.759870	0.390978
O22	O	-0.215249	-1.322180	-0.418180
O23	O	0.118084	-0.988847	-0.084847
O24	O	0.451417	-0.655514	0.248486
O25	O	-0.452828	-1.582956	-0.432080
O26	O	-0.119495	-1.249622	-0.098747
O27	O	0.213838	-0.916289	0.234587
O28	O	-0.215223	-1.440696	-0.536676
O29	O	0.118110	-1.107363	-0.203343
O30	O	0.451444	-0.774030	0.129991
O31	O	-0.350450	-1.314125	-0.269696
O32	O	-0.017117	-0.980791	0.063637
O33	O	0.316216	-0.647458	0.396970
O34	O	-0.350394	-1.157797	-0.426047
O35	O	-0.017060	-0.824463	-0.092714
O36	O	0.316273	-0.491130	0.240619
O37	O	-0.452729	-1.308180	-0.706896
O38	O	-0.119396	-0.974847	-0.373562
O39	O	0.213938	-0.641513	-0.040229
O40	O	-0.452764	-1.151761	-0.550504
O41	O	-0.119431	-0.818428	-0.217171
O42	O	0.213903	-0.485095	0.116163
O43	O	-0.350332	-1.432731	-0.700935
O44	O	-0.016999	-1.099398	-0.367602
O45	O	0.316335	-0.766064	-0.034268
O46	O	-0.587973	-1.418572	-0.439947
O47	O	-0.254639	-1.085238	-0.106614
O48	O	0.078694	-0.751905	0.226719
O49	O	-0.587930	-1.300124	-0.558412
O50	O	-0.254596	-0.966791	-0.225079
O51	O	0.078737	-0.633458	0.108255
C52	C	-0.401577	-1.119780	-0.488272
C53	C	-0.068244	-0.786446	-0.154938
C54	C	0.265090	-0.453113	0.178395
C55	C	-0.401590	-1.012565	-0.488282
C56	C	-0.068257	-0.679232	-0.154949
C57	C	0.265077	-0.345898	0.178385
C58	C	-0.401589	-0.816270	-0.488300
C59	C	-0.068255	-0.482937	-0.154966
C60	C	0.265078	-0.149603	0.178367
C61	C	-0.401587	-0.925503	-0.488287
C62	C	-0.068254	-0.592169	-0.154954
C63	C	0.265080	-0.258836	0.178380
C64	C	-0.618201	-1.357581	-0.500966
C65	C	-0.284868	-1.024248	-0.167633
C66	C	0.048465	-0.690915	0.165701
C67	C	-0.710867	-1.352189	-0.506415
C68	C	-0.377534	-1.018855	-0.173082
C69	C	-0.044200	-0.685522	0.160252
C70	C	-0.880528	-1.342348	-0.516384
C71	C	-0.547195	-1.009015	-0.183050
C72	C	-0.213861	-0.675682	0.150283
C73	C	-0.921819	-1.398611	-0.460240
C74	C	-0.588486	-1.065277	-0.126907
C75	C	-0.255152	-0.731944	0.206427
C76	C	-1.016224	-1.393136	-0.465786
C77	C	-0.682891	-1.059802	-0.132453
C78	C	-0.349557	-0.726469	0.200880
C79	C	-0.786114	-1.347822	-0.510838
C80	C	-0.452781	-1.014489	-0.177505
C81	C	-0.119448	-0.681156	0.155828
C82	C	-0.184140	-1.383281	-0.475613
C83	C	0.149193	-1.049948	-0.142280
C84	C	0.482526	-0.716615	0.191053
C85	C	-0.091475	-1.388774	-0.470205
C86	C	0.241859	-1.055440	-0.136872
C87	C	0.575192	-0.722107	0.196461
C88	C	-0.401520	-1.370466	-0.739893
C89	C	-0.068187	-1.037133	-0.406559
C90	C	0.265147	-0.703799	-0.073226
C91	C	-0.401489	-1.370497	-0.847105
C92	C	-0.068155	-1.037164	-0.513771
C93	C	0.265178	-0.703830	-0.180438
C94	C	-0.401605	-0.621985	-0.488327
C95	C	-0.068272	-0.288652	-0.154994
C96	C	0.265061	0.044681	0.178339
C97	C	-0.401596	-0.729200	-0.488313
C98	C	-0.068263	-0.395867	-0.154979
C99	C	0.265070	-0.062533	0.178354
C100	C	-0.401432	-1.370526	-1.043397
C101	C	-0.068099	-1.037193	-0.710063
C102	C	0.265234	-0.703860	-0.376730
C103	C	-0.401466	-1.370507	-0.934166
C104	C	-0.068133	-1.037174	-0.600833
C105	C	0.265201	-0.703840	-0.267500
C106	C	-0.401607	-1.370380	-0.237690
C107	C	-0.068274	-1.037046	0.095643
C108	C	0.265060	-0.703713	0.428976
C109	C	-0.401403	-1.370549	-0.130465
C110	C	-0.068070	-1.037216	0.202868
C111	C	0.265263	-0.703883	0.536202
H112	H	-0.886268	-1.450890	-0.408007
H113	H	-0.552935	-1.117556	-0.074674
H114	H	-0.219601	-0.784223	0.258659
O115	O	-0.922839	-1.279848	-0.578637
O116	O	-0.589506	-0.946515	-0.245303
O117	O	-0.256172	-0.613182	0.088030
C118	C	-0.901742	-1.184922	-0.556227
C119	C	-0.568409	-0.851588	-0.222894
C120	C	-0.235076	-0.518255	0.110440
H121	H	-0.838517	-1.186537	-0.515508
H122	H	-0.505183	-0.853204	-0.182175
H123	H	-0.171850	-0.519871	0.151159
H124	H	-0.898864	-1.141789	-0.625632
H125	H	-0.565530	-0.808455	-0.292298
H126	H	-0.232197	-0.475122	0.041035
H127	H	-0.950786	-1.149679	-0.509422
H128	H	-0.617453	-0.816345	-0.176089
H129	H	-0.284119	-0.483012	0.157244
