data_functionalizedCrystal
_audit_creation_method	'MofGen! by Chris Wilmer'
_symmetry_space_group_name_H-M	'P1'
_symmetry_Int_Tables_number	1
_symmetry_cell_setting	triclinic
loop_
_symmetry_equiv_pos_as_xyz
  x,y,z
_cell_length_a	16.120530
_cell_length_b	16.120444
_cell_length_c	13.897441
_cell_angle_alpha	92.866378
_cell_angle_beta	87.080937
_cell_angle_gamma	90.168401
loop_
_atom_site_label
_atom_site_type_symbol
_atom_site_fract_x
_atom_site_fract_y
_atom_site_fract_z
Zn1	Zn	1.254488	-0.395575	-0.642103
Zn2	Zn	1.587822	-0.062242	-0.308769
Zn3	Zn	1.921155	0.271092	0.024564
Zn4	Zn	1.247324	-0.534643	-0.488534
Zn5	Zn	1.580657	-0.201310	-0.155200
Zn6	Zn	1.913990	0.132024	0.178133
Zn7	Zn	1.115422	-0.388551	-0.472257
Zn8	Zn	1.448756	-0.055217	-0.138924
Zn9	Zn	1.782089	0.278116	0.194410
Zn10	Zn	1.108338	-0.527528	-0.641222
Zn11	Zn	1.441671	-0.194195	-0.307889
Zn12	Zn	1.775005	0.139138	0.025445
O13	O	1.181393	-0.461574	-0.561029
O14	O	1.514726	-0.128241	-0.227696
O15	O	1.848060	0.205092	0.105638
O16	O	1.369904	-0.419940	-0.628912
O17	O	1.703237	-0.086606	-0.295578
O18	O	2.036570	0.246727	0.037755
O19	O	1.229793	-0.515301	-0.351393
O20	O	1.563126	-0.181968	-0.018060
O21	O	1.896460	0.151365	0.315273
O22	O	1.139833	-0.273119	-0.488344
O23	O	1.473166	0.060214	-0.155011
O24	O	1.806499	0.393547	0.178322
O25	O	1.364640	-0.522112	-0.516085
O26	O	1.697973	-0.188779	-0.182752
O27	O	2.031306	0.144554	0.150581
O28	O	1.242004	-0.278280	-0.613129
O29	O	1.575337	0.055053	-0.279796
O30	O	1.908671	0.388387	0.053538
O31	O	1.132886	-0.407968	-0.339435
O32	O	1.466219	-0.074635	-0.006101
O33	O	1.799552	0.258699	0.327232
O34	O	0.998117	-0.401069	-0.487490
O35	O	1.331450	-0.067736	-0.154157
O36	O	1.664784	0.265597	0.179176
O37	O	1.127759	-0.509987	-0.776320
O38	O	1.461092	-0.176653	-0.442987
O39	O	1.794426	0.156680	-0.109654
O40	O	0.992912	-0.503176	-0.611628
O41	O	1.326246	-0.169842	-0.278295
O42	O	1.659579	0.163491	0.055039
O43	O	1.235135	-0.413041	-0.776967
O44	O	1.568468	-0.079708	-0.443634
O45	O	1.901802	0.253626	-0.110301
O46	O	1.222924	-0.650062	-0.515231
O47	O	1.556257	-0.316729	-0.181898
O48	O	1.889591	0.016604	0.151435
O49	O	1.120812	-0.644835	-0.627411
O50	O	1.454145	-0.311502	-0.294077
O51	O	1.787478	0.021831	0.039256
C52	C	0.965342	-0.450589	-0.547698
C53	C	1.298676	-0.117256	-0.214365
C54	C	1.632009	0.216078	0.118969
C55	C	0.872914	-0.445909	-0.542019
C56	C	1.206247	-0.112576	-0.208686
C57	C	1.539580	0.220757	0.124648
C58	C	0.703686	-0.437346	-0.531658
C59	C	1.037020	-0.104013	-0.198324
C60	C	1.370353	0.229320	0.135009
C61	C	0.659937	-0.485864	-0.590474
C62	C	0.993271	-0.152530	-0.257141
C63	C	1.326604	0.180803	0.076193
C64	C	0.565773	-0.481099	-0.584709
C65	C	0.899107	-0.147766	-0.251376
C66	C	1.232440	0.185568	0.081958
C67	C	0.797859	-0.442110	-0.537421
C68	C	1.131192	-0.108776	-0.204088
C69	C	1.464525	0.224557	0.129245
C70	C	1.170344	-0.677622	-0.573014
C71	C	1.503678	-0.344288	-0.239681
C72	C	1.837011	-0.010955	0.093652
C73	C	1.165694	-0.770052	-0.578178
C74	C	1.499027	-0.436718	-0.244845
C75	C	1.832360	-0.103385	0.088488
C76	C	1.205722	-0.983027	-0.534459
C77	C	1.539056	-0.649694	-0.201126
C78	C	1.872389	-0.316361	0.132208
C79	C	1.157218	-0.939278	-0.587618
C80	C	1.490551	-0.605945	-0.254285
C81	C	1.823885	-0.272611	0.079048
C82	C	1.161935	-0.845112	-0.582364
C83	C	1.495269	-0.511778	-0.249031
C84	C	1.828602	-0.178445	0.084302
C85	C	1.201006	-1.077202	-0.539712
C86	C	1.534340	-0.743869	-0.206378
C87	C	1.867673	-0.410535	0.126955
C88	C	1.398288	-0.472603	-0.574412
C89	C	1.731621	-0.139270	-0.241079
C90	C	2.064954	0.194063	0.092254
C91	C	1.490715	-0.477303	-0.580116
C92	C	1.824049	-0.143970	-0.246782
C93	C	2.157382	0.189364	0.086551
C94	C	1.181456	-0.461504	-0.812622
C95	C	1.514789	-0.128170	-0.479288
C96	C	1.848123	0.205163	-0.145955
C97	C	1.181483	-0.461474	-0.919835
C98	C	1.514816	-0.128140	-0.586502
C99	C	1.848149	0.205193	-0.253169
C100	C	1.192508	-0.244684	-0.549019
C101	C	1.525841	0.088649	-0.215686
C102	C	1.859174	0.421982	0.117647
C103	C	1.197244	-0.152259	-0.543902
C104	C	1.530578	0.181075	-0.210568
C105	C	1.863911	0.514408	0.122765
C106	C	1.181508	-0.461419	-1.116129
C107	C	1.514841	-0.128085	-0.782796
C108	C	1.848175	0.205248	-0.449462
C109	C	1.181491	-0.461451	-1.006897
C110	C	1.514825	-0.128118	-0.673564
C111	C	1.848158	0.205215	-0.340231
C112	C	1.181382	-0.461587	-0.310415
C113	C	1.514715	-0.128254	0.022919
C114	C	1.848048	0.205080	0.356252
C115	C	1.181528	-0.461391	-0.203198
C116	C	1.514861	-0.128058	0.130135
C117	C	1.848194	0.205276	0.463468
H118	H	0.693202	-0.530978	-0.645159
H119	H	1.026535	-0.197645	-0.311826
H120	H	1.359869	0.135689	0.021508
F121	F	1.098307	-0.982756	-0.652260
F122	F	1.431640	-0.649423	-0.318927
F123	F	1.764974	-0.316090	0.014406
H124	H	0.670424	-0.392235	-0.476978
H125	H	1.003757	-0.058902	-0.143644
H126	H	1.337090	0.274432	0.189689
F127	F	1.264626	-0.939549	-0.469818
F128	F	1.597959	-0.606216	-0.136484
F129	F	1.931292	-0.272882	0.196849
