data_functionalizedCrystal
_audit_creation_method	'MofGen! by Chris Wilmer'
_symmetry_space_group_name_H-M	'P1'
_symmetry_Int_Tables_number	1
_symmetry_cell_setting	triclinic
loop_
_symmetry_equiv_pos_as_xyz
  x,y,z
_cell_length_a	10.685901
_cell_length_b	10.686285
_cell_length_c	10.686551
_cell_angle_alpha	80.915481
_cell_angle_beta	89.651709
_cell_angle_gamma	81.630962
loop_
_atom_site_label
_atom_site_type_symbol
_atom_site_fract_x
_atom_site_fract_y
_atom_site_fract_z
Zn1	Zn	2.015779	-0.617391	-0.511258
Zn2	Zn	2.515779	-0.117391	-0.011258
Zn3	Zn	2.015677	-0.845962	-0.282764
Zn4	Zn	2.515677	-0.345962	0.217236
Zn5	Zn	1.789736	-0.614992	-0.317831
Zn6	Zn	2.289736	-0.114992	0.182169
Zn7	Zn	1.819812	-0.813330	-0.511267
Zn8	Zn	2.319812	-0.313330	-0.011267
O9	O	1.910251	-0.722919	-0.405780
O10	O	2.410251	-0.222919	0.094220
O11	O	2.192336	-0.662371	-0.466268
O12	O	2.692336	-0.162371	0.033732
O13	O	1.973077	-0.827976	-0.110836
O14	O	2.473077	-0.327976	0.389164
O15	O	1.807178	-0.436647	-0.358161
O16	O	2.307178	0.063353	0.141839
O17	O	2.192261	-0.830302	-0.298395
O18	O	2.692261	-0.330302	0.201605
O19	O	1.973250	-0.438409	-0.500271
O20	O	2.473250	0.061591	-0.000271
O21	O	1.807079	-0.658283	-0.136600
O22	O	2.307079	-0.158283	0.363400
O23	O	1.617156	-0.626642	-0.358170
O24	O	2.117156	-0.126642	0.141830
O25	O	1.858437	-0.774686	-0.687845
O26	O	2.358437	-0.274686	-0.187845
O27	O	1.639252	-0.772360	-0.500287
O28	O	2.139252	-0.272360	-0.000287
O29	O	2.002413	-0.630730	-0.687838
O30	O	2.502413	-0.130730	-0.187838
O31	O	2.002239	-1.020297	-0.298404
O32	O	2.502239	-0.520297	0.201596
O33	O	1.858338	-0.996322	-0.466284
O34	O	2.358338	-0.496322	0.033716
C35	C	1.582421	-0.695701	-0.433035
C36	C	2.082421	-0.195701	0.066965
C37	C	1.442179	-0.684085	-0.444722
C38	C	1.942179	-0.184085	0.055278
C39	C	1.933577	-1.054636	-0.378564
C40	C	2.433577	-0.554636	0.121436
C41	C	1.943675	-1.196552	-0.366954
C42	C	2.443675	-0.696552	0.133046
C43	C	2.239361	-0.750244	-0.378419
C44	C	2.739361	-0.250244	0.121581
C45	C	2.379609	-0.761888	-0.366759
C46	C	2.879609	-0.261888	0.133241
C47	C	1.933791	-0.699335	-0.734907
C48	C	2.433791	-0.199335	-0.234907
C49	C	1.943823	-0.689286	-0.875161
C50	C	2.443823	-0.189286	-0.375161
C51	C	1.886870	-0.389907	-0.433126
C52	C	2.386870	0.110093	0.066874
C53	C	1.876907	-0.247998	-0.444780
C54	C	2.376907	0.252002	0.055220
C55	C	1.886869	-0.746324	-0.077935
C56	C	2.386869	-0.246324	0.422065
C57	C	1.877057	-0.756035	0.062310
C58	C	2.377057	-0.256035	0.562310
H59	H	1.433330	-0.837388	-0.291079
H60	H	1.933330	-0.337388	0.208921
C61	C	1.789462	-0.843624	-0.865057
C62	C	2.289462	-0.343624	-0.365057
N63	N	1.723482	-0.909595	-0.810343
N64	N	2.223482	-0.409595	-0.310343
C65	C	1.369600	-0.582083	-0.546973
C66	C	1.869600	-0.082083	-0.046973
N67	N	1.314931	-0.505252	-0.623984
N68	N	1.814931	-0.005252	-0.123984
C69	C	1.789253	-1.160828	-0.546805
C70	C	2.289253	-0.660828	-0.046805
N71	N	1.723233	-1.095163	-0.623653
N72	N	2.223233	-0.595163	-0.123653
H73	H	2.008556	-1.261085	-0.291428
H74	H	2.508556	-0.761085	0.208572
H75	H	2.008668	-0.624452	-0.928932
H76	H	2.508668	-0.124452	-0.428932
