data_functionalizedCrystal
_audit_creation_method	'MofGen! by Chris Wilmer'
_symmetry_space_group_name_H-M	'P1'
_symmetry_Int_Tables_number	1
_symmetry_cell_setting	triclinic
loop_
_symmetry_equiv_pos_as_xyz
  x,y,z
_cell_length_a	25.639242
_cell_length_b	25.639240
_cell_length_c	21.295411
_cell_angle_alpha	90.026709
_cell_angle_beta	90.025490
_cell_angle_gamma	90.025061
loop_
_atom_site_label
_atom_site_type_symbol
_atom_site_fract_x
_atom_site_fract_y
_atom_site_fract_z
Zn1	Zn	0.799304	-0.208318	0.355905
Zn2	Zn	1.299304	0.291682	0.855905
Zn3	Zn	0.799220	-0.295738	0.250621
Zn4	Zn	1.299220	0.204262	0.750621
Zn5	Zn	0.711863	-0.208306	0.250648
Zn6	Zn	1.211863	0.291694	0.750648
Zn7	Zn	0.711834	-0.295712	0.355851
Zn8	Zn	1.211834	0.204288	0.855851
O9	O	0.755555	-0.252018	0.303256
O10	O	1.255555	0.247982	0.803256
O11	O	0.872458	-0.219930	0.341950
O12	O	1.372458	0.280070	0.841950
O13	O	0.787608	-0.284146	0.162535
O14	O	1.287608	0.215854	0.662535
O15	O	0.723510	-0.135143	0.264645
O16	O	1.223510	0.364857	0.764645
O17	O	0.872396	-0.284157	0.264598
O18	O	1.372396	0.215843	0.764598
O19	O	0.787752	-0.135151	0.341976
O20	O	1.287752	0.364849	0.841976
O21	O	0.723428	-0.219910	0.162555
O22	O	1.223428	0.280090	0.662555
O23	O	0.638694	-0.219886	0.264592
O24	O	1.138694	0.280114	0.764592
O25	O	0.723461	-0.284113	0.443947
O26	O	1.223461	0.215887	0.943947
O27	O	0.638673	-0.284102	0.341884
O28	O	1.138673	0.215898	0.841884
O29	O	0.787724	-0.219905	0.443987
O30	O	1.287724	0.280095	0.943987
O31	O	0.787580	-0.368900	0.264546
O32	O	1.287580	0.131100	0.764546
O33	O	0.723379	-0.368881	0.341858
O34	O	1.223379	0.131119	0.841858
C35	C	0.619713	-0.251990	0.303236
C36	C	1.119713	0.248010	0.803236
C37	C	0.561599	-0.251991	0.303242
C38	C	1.061599	0.248009	0.803242
C39	C	0.310446	-0.218635	0.343607
C40	C	0.810446	0.281365	0.843607
C41	C	0.365050	-0.218630	0.343603
C42	C	0.865050	0.281370	0.843603
O43	O	0.393321	-0.190247	0.377918
O44	O	0.893321	0.309753	0.877918
N45	N	0.392325	-0.252012	0.303263
N46	N	0.892325	0.247988	0.803263
C47	C	0.364993	-0.285406	0.262929
C48	C	0.864993	0.214594	0.762929
O49	O	0.393206	-0.313801	0.228617
O50	O	0.893206	0.186199	0.728617
C51	C	0.310389	-0.285414	0.262936
C52	C	0.810389	0.214586	0.762936
C53	C	0.283117	-0.252025	0.303274
C54	C	0.783117	0.247975	0.803274
C55	C	0.283174	-0.185249	0.383942
C56	C	0.783174	0.314751	0.883942
C57	C	0.228573	-0.185254	0.383944
C58	C	0.728573	0.314746	0.883944
C59	C	0.201245	-0.218644	0.343612
C60	C	0.701245	0.281356	0.843612
C61	C	0.228517	-0.252030	0.303277
C62	C	0.728517	0.247970	0.803277
C63	C	0.283058	-0.318810	0.222606
C64	C	0.783058	0.181190	0.722606
C65	C	0.228451	-0.318815	0.222617
C66	C	0.728451	0.181185	0.722617
C67	C	0.201179	-0.285426	0.262955
C68	C	0.701179	0.214574	0.762955
C69	C	0.146588	-0.285424	0.262947
C70	C	0.646588	0.214576	0.762947
N71	N	0.119313	-0.252042	0.303287
N72	N	0.619313	0.247958	0.803287
C73	C	0.146641	-0.218651	0.343619
C74	C	0.646641	0.281349	0.843619
C75	C	0.479663	-0.285389	0.262918
C76	C	0.979663	0.214611	0.762918
C77	C	0.534266	-0.285379	0.262907
C78	C	1.034266	0.214621	0.762907
C79	C	0.534319	-0.218603	0.343582
C80	C	1.034319	0.281397	0.843582
C81	C	0.479716	-0.218611	0.343589
C82	C	0.979716	0.281389	0.843589
C83	C	0.452388	-0.252006	0.303258
C84	C	0.952388	0.247994	0.803258
C85	C	0.031976	-0.218663	0.343621
C86	C	0.531976	0.281337	0.843621
C87	C	-0.022629	-0.218669	0.343618
C88	C	0.477371	0.281331	0.843618
C89	C	-0.022678	-0.285447	0.262946
C90	C	0.477322	0.214553	0.762946
C91	C	0.031923	-0.285439	0.262946
C92	C	0.531923	0.214561	0.762946
C93	C	0.059248	-0.252046	0.303289
C94	C	0.559248	0.247954	0.803289
O95	O	0.118282	-0.313795	0.228651
O96	O	0.618282	0.186205	0.728651
O97	O	0.118421	-0.190267	0.377931
O98	O	0.618421	0.309733	0.877931
C99	C	0.755481	-0.387861	0.303207
C100	C	1.255481	0.112139	0.803207
C101	C	0.755498	-0.445975	0.303207
C102	C	1.255498	0.054025	0.803207
C103	C	0.789023	-0.806304	0.343595
C104	C	1.289023	-0.306304	0.843595
C105	C	0.789038	-0.860908	0.343608
C106	C	1.289038	-0.360908	0.843608
O107	O	0.817455	-0.889116	0.377897
O108	O	1.317455	-0.389116	0.877897
N109	N	0.755628	-0.888258	0.303317
N110	N	1.255628	-0.388258	0.803317
C111	C	0.722196	-0.861000	0.263015
C112	C	1.222196	-0.361000	0.763015
O113	O	0.693779	-0.889276	0.228746
O114	O	1.193779	-0.389276	0.728746
C115	C	0.722178	-0.806396	0.263006
C116	C	1.222178	-0.306396	0.763006
C117	C	0.755595	-0.779050	0.303295
C118	C	1.255595	-0.279050	0.803295
C119	C	0.822436	-0.778958	0.383882
C120	C	1.322436	-0.278958	0.883882
C121	C	0.822421	-0.724357	0.383868
C122	C	1.322421	-0.224357	0.883868
C123	C	0.788993	-0.697103	0.343568
C124	C	1.288993	-0.197103	0.843568
C125	C	0.755580	-0.724449	0.303281
C126	C	1.255580	-0.224449	0.803281
C127	C	0.688744	-0.779139	0.222707
C128	C	1.188744	-0.279139	0.722707
C129	C	0.688729	-0.724532	0.222702
C130	C	1.188729	-0.224532	0.722702
C131	C	0.722146	-0.697186	0.262991
C132	C	1.222146	-0.197186	0.762991
C133	C	0.722137	-0.642595	0.262967
C134	C	1.222137	-0.142595	0.762967
N135	N	0.755547	-0.615246	0.303258
N136	N	1.255547	-0.115246	0.803258
C137	C	0.788976	-0.642500	0.343559
C138	C	1.288976	-0.142500	0.843559
C139	C	0.722235	-0.975670	0.263038
C140	C	1.222235	-0.475670	0.763038
C141	C	0.722255	-1.030273	0.263044
C142	C	1.222255	-0.530273	0.763044
C143	C	0.789097	-1.030177	0.343638
C144	C	1.289097	-0.530177	0.843638
C145	C	0.789079	-0.975574	0.343629
C146	C	1.289079	-0.475574	0.843629
C147	C	0.755646	-0.948321	0.303329
C148	C	1.255646	-0.448321	0.803329
C149	C	0.788942	-0.527835	0.343526
C150	C	1.288942	-0.027835	0.843526
C151	C	0.788926	-0.473229	0.343507
C152	C	1.288926	0.026771	0.843507
C153	C	0.722082	-0.473329	0.262916
C154	C	1.222082	0.026671	0.762916
C155	C	0.722100	-0.527930	0.262932
C156	C	1.222100	-0.027930	0.762932
C157	C	0.755532	-0.555181	0.303243
C158	C	1.255532	-0.055181	0.803243
O159	O	0.693733	-0.614352	0.228697
O160	O	1.193733	-0.114352	0.728697
O161	O	0.817383	-0.614216	0.377828
O162	O	1.317383	-0.114216	0.877828
C163	C	0.891928	-0.252047	0.303277
C164	C	1.391928	0.247953	0.803277
C165	C	0.950042	-0.252059	0.303286
C166	C	1.450042	0.247941	0.803286
C167	C	0.755599	-0.252007	0.467447
C168	C	1.255599	0.247993	0.967447
C169	C	0.755617	-0.252003	0.537415
C170	C	1.255617	0.247997	1.037415
C171	C	0.755644	-0.115645	0.303319
C172	C	1.255644	0.384355	0.803319
C173	C	0.755681	-0.057531	0.303346
C174	C	1.255681	0.442469	0.803346
C175	C	0.755542	-0.251992	0.139705
C176	C	1.255542	0.248008	0.639705
C177	C	0.755625	-0.251849	0.069737
C178	C	1.255625	0.248151	0.569737
C179	C	0.789078	-0.218568	0.570303
C180	C	1.289078	0.281432	1.070303
C181	C	0.789077	-0.218545	0.636045
C182	C	1.289077	0.281455	1.136045
C183	C	0.755621	-0.251967	0.668897
C184	C	1.255621	0.248033	1.168897
C185	C	0.722154	-0.285404	0.636001
C186	C	1.222154	0.214596	1.136001
C187	C	0.722152	-0.285422	0.570260
C188	C	1.222152	0.214578	1.070260
N189	N	0.751586	-0.297704	0.772108
N190	N	1.251586	0.202296	1.272108
N191	N	0.751591	-0.297686	0.834559
N192	N	1.251591	0.202314	1.334559
C193	C	0.755625	-0.251914	0.866972
C194	C	1.255625	0.248086	1.366972
N195	N	0.759664	-0.206160	0.834574
N196	N	1.259664	0.293840	1.334574
N197	N	0.759661	-0.206179	0.772117
N198	N	1.259661	0.293821	1.272117
C199	C	0.755620	-0.251951	0.740183
C200	C	1.255620	0.248049	1.240183
C201	C	0.789086	-0.218452	0.971146
C202	C	1.289086	0.281548	1.471146
C203	C	0.789082	-0.218428	1.036890
C204	C	1.289082	0.281572	1.536890
C205	C	0.722162	-0.285291	1.036844
C206	C	1.222162	0.214709	1.536844
C207	C	0.722163	-0.285310	0.971101
C208	C	1.222163	0.214690	1.471101
C209	C	0.755628	-0.251891	0.938256
C210	C	1.255628	0.248109	1.438256
H211	H	0.457417	-0.312582	0.230070
H212	H	0.957417	0.187418	0.730070
C213	C	0.855228	-0.152354	0.977792
C214	C	1.355228	0.347646	1.477792
C215	C	0.825863	-0.181712	0.935037
C216	C	1.325863	0.318288	1.435037
H217	H	0.877930	-0.129670	0.955500
H218	H	1.377930	0.370330	1.455500
H219	H	0.875214	-0.175129	1.003439
H220	H	1.375214	0.324871	1.503439
H221	H	0.832454	-0.132345	1.003425
H222	H	1.332454	0.367655	1.503425
H223	H	0.848637	-0.201725	0.909407
H224	H	1.348637	0.298275	1.409407
H225	H	0.805877	-0.158934	0.909379
H226	H	1.305877	0.341066	1.409379
C227	C	0.144725	-0.348484	0.186800
C228	C	0.644725	0.151516	0.686800
C229	C	0.198413	-0.355524	0.178282
C230	C	0.698413	0.144476	0.678282
H231	H	0.126183	-0.371149	0.159431
H232	H	0.626183	0.128851	0.659431
H233	H	0.135787	-0.313349	0.177665
H234	H	0.635787	0.186651	0.677665
H235	H	0.135796	-0.356187	0.229080
H236	H	0.635796	0.143813	0.729080
H237	H	0.207343	-0.347817	0.136003
H238	H	0.707343	0.152183	0.636003
H239	H	0.207355	-0.390667	0.187412
H240	H	0.707355	0.109333	0.687412
H241	H	0.305254	-0.345998	0.189758
H242	H	0.805254	0.154002	0.689758
C243	C	0.026382	-0.351450	0.183209
C244	C	0.526382	0.148550	0.683209
C245	C	0.061903	-0.322141	0.218608
C246	C	0.561903	0.177859	0.718608
H247	H	0.044889	-0.374114	0.155844
H248	H	0.544889	0.125886	0.655844
H249	H	0.005089	-0.328642	0.159180
H250	H	0.505089	0.171358	0.659180
H251	H	0.005083	-0.371477	0.210598
H252	H	0.505083	0.128523	0.710598
H253	H	0.083200	-0.302110	0.191220
H254	H	0.583200	0.197890	0.691220
H255	H	0.083205	-0.344952	0.242639
H256	H	0.583205	0.155048	0.742639
C257	C	0.818789	-0.188702	1.137684
C258	C	1.318789	0.311298	1.637684
C259	C	0.825858	-0.181667	1.073044
C260	C	1.325858	0.318333	1.573044
H261	H	0.841490	-0.166003	1.160004
H262	H	1.341490	0.333997	1.660004
H263	H	0.826421	-0.223824	1.148458
H264	H	1.326421	0.276176	1.648458
H265	H	0.783662	-0.181040	1.148430
H266	H	1.283662	0.318960	1.648430
H267	H	0.860985	-0.189333	1.062298
H268	H	1.360985	0.310667	1.562298
H269	H	0.818230	-0.146537	1.062266
H270	H	1.318230	0.353463	1.562266
H271	H	0.694894	-0.550196	0.230120
H272	H	1.194894	-0.050196	0.730120
H273	H	0.694867	-0.451130	0.230101
H274	H	1.194867	0.048870	0.730101
H275	H	0.054218	-0.191471	0.376472
H276	H	0.554218	0.308529	0.876472
H277	H	0.206373	-0.158068	0.416794
H278	H	0.706373	0.341932	0.916794
H279	H	0.816162	-0.550016	0.376355
H280	H	1.316162	-0.050016	0.876355
H281	H	0.457515	-0.191422	0.376435
H282	H	0.957515	0.308578	0.876435
H283	H	0.816327	-0.191355	0.543565
H284	H	1.316327	0.308645	1.043565
H285	H	0.816315	-1.052378	0.376454
H286	H	1.316315	-0.552378	0.876454
H287	H	-0.044939	-0.312630	0.230106
H288	H	0.455061	0.187370	0.730106
H289	H	0.661533	-0.801395	0.189899
H290	H	1.161533	-0.301395	0.689899
H291	H	0.694902	-0.312648	0.543482
H292	H	1.194902	0.187352	1.043482
H293	H	0.694916	-0.312498	1.063591
H294	H	1.194916	0.187502	1.563591
H295	H	0.849630	-0.702095	0.416677
H296	H	1.349630	-0.202095	0.916677
H297	H	0.694919	-0.312540	0.944323
H298	H	1.194919	0.187460	1.444323
H299	H	0.694913	-0.312614	0.662753
H300	H	1.194913	0.187386	1.162753
H301	H	0.816139	-0.450965	0.376315
H302	H	1.316139	0.049035	0.876315
C303	C	0.622654	-0.730115	0.143045
C304	C	1.122654	-0.230115	0.643045
C305	C	0.651977	-0.694577	0.178402
C306	C	1.151977	-0.194577	0.678402
H307	H	0.599969	-0.711622	0.115694
H308	H	1.099969	-0.211622	0.615694
H309	H	0.602654	-0.751411	0.170457
H310	H	1.102654	-0.251411	0.670457
H311	H	0.645456	-0.751410	0.118997
H312	H	1.145456	-0.251410	0.618997
H313	H	0.629176	-0.673285	0.202453
H314	H	1.129176	-0.173285	0.702453
H315	H	0.671979	-0.673272	0.150986
H316	H	1.171979	-0.173272	0.650986
C317	C	0.888508	-0.773365	0.463533
C318	C	1.388508	-0.273365	0.963533
C319	C	0.859188	-0.808909	0.428182
C320	C	1.359188	-0.308909	0.928182
H321	H	0.911203	-0.791854	0.490878
H322	H	1.411203	-0.291854	0.990878
H323	H	0.865709	-0.752076	0.487582
H324	H	1.365709	-0.252076	0.987582
H325	H	0.908504	-0.752063	0.436113
H326	H	1.408504	-0.252063	0.936113
H327	H	0.839189	-0.830208	0.455602
H328	H	1.339189	-0.330208	0.955602
H329	H	0.881990	-0.830206	0.404131
H330	H	1.381990	-0.330206	0.904131
C331	C	0.855235	-0.152466	0.629494
C332	C	1.355235	0.347534	1.129494
C333	C	0.825863	-0.181795	0.672206
C334	C	1.325863	0.318205	1.172206
H335	H	0.877947	-0.129781	0.651818
H336	H	1.377947	0.370219	1.151818
H337	H	0.832471	-0.132465	0.603848
H338	H	1.332471	0.367535	1.103848
H339	H	0.875215	-0.175264	0.603855
H340	H	1.375215	0.324736	1.103855
H341	H	0.805880	-0.158997	0.697842
H342	H	1.305880	0.341003	1.197842
H343	H	0.848630	-0.201797	0.697863
H344	H	1.348630	0.298203	1.197863
C345	C	0.618051	-0.188956	0.379399
C346	C	1.118051	0.311044	0.879399
C347	C	0.564366	-0.181904	0.387924
C348	C	1.064366	0.318096	0.887924
H349	H	0.636601	-0.166303	0.406775
H350	H	1.136601	0.333697	0.906775
H351	H	0.626980	-0.181247	0.337126
H352	H	1.126980	0.318753	0.837126
H353	H	0.626982	-0.224100	0.388524
H354	H	1.126982	0.275900	0.888524
H355	H	0.555434	-0.146762	0.378794
H356	H	1.055434	0.353238	0.878794
H357	H	0.555434	-0.189610	0.430206
H358	H	1.055434	0.310390	0.930206
H359	H	0.816289	-0.953312	0.376436
H360	H	1.316289	-0.453312	0.876436
H361	H	-0.044832	-0.191478	0.376466
H362	H	0.455168	0.308522	0.876466
H363	H	0.695050	-1.052533	0.230229
H364	H	1.195050	-0.552533	0.730229
H365	H	0.305419	-0.158059	0.416788
H366	H	0.805419	0.341941	0.916788
C367	C	0.656172	-0.981258	0.183368
C368	C	1.156172	-0.481258	0.683368
C369	C	0.685488	-0.945716	0.218728
C370	C	1.185488	-0.445716	0.718728
H371	H	0.633489	-0.962766	0.156012
H372	H	1.133489	-0.462766	0.656012
H373	H	0.636169	-1.002553	0.210777
H374	H	1.136169	-0.502553	0.710777
H375	H	0.678977	-1.002551	0.159325
H376	H	1.178977	-0.502551	0.659325
H377	H	0.662683	-0.924425	0.242775
H378	H	1.162683	-0.424425	0.742775
H379	H	0.705492	-0.924411	0.191316
H380	H	1.205492	-0.424411	0.691316
C381	C	0.528714	-0.351385	0.183167
C382	C	1.028714	0.148615	0.683167
C383	C	0.564239	-0.322078	0.218563
C384	C	1.064239	0.177922	0.718563
H385	H	0.547218	-0.374045	0.155795
H386	H	1.047218	0.125955	0.655795
H387	H	0.507417	-0.328575	0.159145
H388	H	1.007417	0.171425	0.659145
H389	H	0.507420	-0.371416	0.210557
H390	H	1.007420	0.128584	0.710557
H391	H	0.585531	-0.302044	0.191173
H392	H	1.085531	0.197956	0.691173
H393	H	0.585545	-0.344890	0.242586
H394	H	1.085545	0.155110	0.742586
