data_functionalizedCrystal
_audit_creation_method	'MofGen! by Chris Wilmer'
_symmetry_space_group_name_H-M	'P1'
_symmetry_Int_Tables_number	1
_symmetry_cell_setting	triclinic
loop_
_symmetry_equiv_pos_as_xyz
  x,y,z
_cell_length_a	14.853567
_cell_length_b	14.853567
_cell_length_c	13.330367
_cell_angle_alpha	89.996055
_cell_angle_beta	89.991237
_cell_angle_gamma	96.365070
loop_
_atom_site_label
_atom_site_type_symbol
_atom_site_fract_x
_atom_site_fract_y
_atom_site_fract_z
O1	O	0.117691	-1.196369	0.083346
O2	O	0.131712	-0.933910	0.083362
O3	O	-0.006528	-1.072150	0.083356
O4	O	0.255931	-1.058129	0.083351
O5	O	-0.006506	-1.072129	-0.083491
O6	O	0.131734	-0.933889	-0.083485
O7	O	0.117713	-1.196348	-0.083501
Cu8	Cu	0.124726	-1.065116	-0.098728
Cu9	Cu	0.124700	-1.065142	0.098588
O10	O	0.255954	-1.058108	-0.083496
C11	C	0.131088	-0.900311	-0.000060
C12	C	0.129184	-0.800227	-0.000053
C13	C	-0.040106	-1.071504	-0.000064
C14	C	-0.140189	-1.069601	-0.000055
C15	C	0.118337	-1.229947	-0.000078
C16	C	0.120241	-1.330031	-0.000078
C17	C	-0.552723	-0.979435	-0.000069
C18	C	-0.574004	-1.143668	-0.000079
C19	C	-0.479970	-1.145458	-0.000073
C20	C	-0.422309	-1.064235	-0.000067
C21	C	-0.458680	-0.981223	-0.000066
C22	C	-0.443591	-1.228469	-0.000084
C23	C	-0.349552	-1.230262	-0.000079
C24	C	-0.291889	-1.149039	-0.000066
C25	C	-0.328266	-1.066023	-0.000064
C26	C	-0.270604	-0.984800	-0.000058
C27	C	-0.306979	-0.901783	-0.000049
C28	C	-0.401017	-0.899999	-0.000053
C29	C	-0.197851	-1.150823	-0.000062
C30	C	-0.176561	-0.986588	-0.000055
C31	C	0.289531	-1.058754	-0.000073
C32	C	0.389615	-1.060657	-0.000075
N33	N	0.124744	-1.065105	-0.237509
C34	C	0.039019	-0.387693	-0.000074
C35	C	0.203251	-0.366412	-0.000076
C36	C	0.205042	-0.460446	-0.000073
C37	C	0.123819	-0.518108	-0.000069
C38	C	0.040806	-0.481736	-0.000067
C39	C	0.288053	-0.496825	-0.000064
C40	C	0.289846	-0.590864	-0.000059
C41	C	0.208623	-0.648528	-0.000062
C42	C	0.125607	-0.612150	-0.000062
C43	C	0.044384	-0.669812	-0.000058
C44	C	-0.038633	-0.633437	-0.000065
C45	C	-0.040417	-0.539399	-0.000070
C46	C	0.210407	-0.742565	-0.000057
C47	C	0.046172	-0.763855	-0.000052
C48	C	0.179463	-1.119897	-0.710126
C49	C	0.069900	-1.010413	-0.710106
C50	C	0.069914	-1.010400	-0.605088
C51	C	0.124702	-1.065137	-0.552584
C52	C	0.179477	-1.119888	-0.605098
C53	C	0.015134	-0.955658	-0.552565
C54	C	0.015145	-0.955643	-0.447541
C55	C	0.069939	-1.010376	-0.395035
C56	C	0.124716	-1.065128	-0.447556
C57	C	0.179504	-1.119865	-0.395052
C58	C	0.234287	-1.174613	-0.447571
C59	C	0.234270	-1.174621	-0.552593
C60	C	0.069955	-1.010368	-0.290013
C61	C	0.179518	-1.119856	-0.290024
N62	N	0.124675	-1.065160	0.237370
H63	H	-0.129618	-0.920445	-0.000045
H64	H	-0.582344	-0.911844	-0.000058
Br65	Br	-0.059217	-0.881376	-0.623824
H66	H	-0.108005	-0.509774	-0.000100
H67	H	-0.620958	-1.209795	-0.000092
H68	H	-0.029462	-0.911064	-0.404789
H69	H	-0.430643	-0.832411	-0.000046
H70	H	-0.490546	-1.294596	-0.000099
H71	H	-0.019971	-0.810798	-0.000052
Br72	Br	0.398276	-0.418568	-0.000048
Br73	Br	-0.148859	-0.711703	-0.000048
H74	H	-0.260019	-0.835652	-0.000051
Br75	Br	-0.004456	-0.936135	-0.781361
Br76	Br	0.253886	-1.194138	-0.218776
H77	H	0.278891	-1.219184	-0.404809
H78	H	-0.168238	-1.218414	-0.000076
Br79	Br	-0.300193	-1.342925	-0.000076
Br80	Br	-0.073642	-0.338331	-0.000092
H81	H	0.277998	-0.772178	-0.000053
Br82	Br	-0.004406	-0.936095	-0.218741
Br83	Br	0.313477	-0.288157	-0.000063
H84	H	0.278869	-1.219195	-0.595363
Br85	Br	0.402509	-0.640223	-0.000050
Br86	Br	0.253817	-1.194185	-0.781397
