data_functionalizedCrystal
_audit_creation_method	'MofGen! by Chris Wilmer'
_symmetry_space_group_name_H-M	'P1'
_symmetry_Int_Tables_number	1
_symmetry_cell_setting	triclinic
loop_
_symmetry_equiv_pos_as_xyz
  x,y,z
_cell_length_a	25.639243
_cell_length_b	25.639239
_cell_length_c	25.639233
_cell_angle_alpha	89.981253
_cell_angle_beta	90.001040
_cell_angle_gamma	89.958085
loop_
_atom_site_label
_atom_site_type_symbol
_atom_site_fract_x
_atom_site_fract_y
_atom_site_fract_z
Zn1	Zn	0.799225	0.208169	0.295448
Zn2	Zn	1.132558	0.541503	0.628781
Zn3	Zn	1.465892	0.874836	0.962114
Zn4	Zn	0.799149	0.295588	0.208012
Zn5	Zn	1.132482	0.628922	0.541345
Zn6	Zn	1.465815	0.962255	0.874679
Zn7	Zn	0.711801	0.208174	0.208044
Zn8	Zn	1.045135	0.541507	0.541377
Zn9	Zn	1.378468	0.874840	0.874711
Zn10	Zn	0.711746	0.295581	0.295434
Zn11	Zn	1.045080	0.628914	0.628767
Zn12	Zn	1.378413	0.962247	0.962101
O13	O	0.755480	0.251878	0.251734
O14	O	1.088814	0.585211	0.585068
O15	O	1.422147	0.918545	0.918401
O16	O	0.872380	0.219767	0.283841
O17	O	1.205713	0.553101	0.617175
O18	O	1.539047	0.886434	0.950508
O19	O	0.787553	0.283997	0.134851
O20	O	1.120886	0.617331	0.468184
O21	O	1.454219	0.950664	0.801518
O22	O	0.723453	0.135008	0.219657
O23	O	1.056787	0.468341	0.552991
O24	O	1.390120	0.801674	0.886324
O25	O	0.872324	0.283993	0.219603
O26	O	1.205657	0.617327	0.552936
O27	O	1.538991	0.950660	0.886269
O28	O	0.787683	0.135005	0.283872
O29	O	1.121016	0.468338	0.617206
O30	O	1.454350	0.801671	0.950539
O31	O	0.723379	0.219774	0.134874
O32	O	1.056712	0.553108	0.468208
O33	O	1.390046	0.886441	0.801541
O34	O	0.638629	0.219767	0.219644
O35	O	0.971962	0.553100	0.552977
O36	O	1.305296	0.886433	0.886311
O37	O	0.723360	0.283980	0.368601
O38	O	1.056693	0.617314	0.701934
O39	O	1.390026	0.950647	1.035268
O40	O	0.638589	0.283984	0.283849
O41	O	0.971922	0.617318	0.617183
O42	O	1.305255	0.950651	0.950516
O43	O	0.787630	0.219760	0.368611
O44	O	1.120963	0.553093	0.701944
O45	O	1.454297	0.886426	1.035278
O46	O	0.787499	0.368752	0.219590
O47	O	1.120833	0.702086	0.552923
O48	O	1.454166	1.035419	0.886256
O49	O	0.723286	0.368747	0.283818
O50	O	1.056619	0.702080	0.617152
O51	O	1.389952	1.035413	0.950485
C52	C	0.755392	0.387721	0.251710
C53	C	1.088726	0.721054	0.585044
C54	C	1.422059	1.054387	0.918377
C55	C	0.755403	0.445835	0.251718
C56	C	1.088736	0.779168	0.585051
C57	C	1.422069	1.112501	0.918384
C58	C	0.619638	0.251876	0.251749
C59	C	0.952971	0.585209	0.585082
C60	C	1.286304	0.918542	0.918416
C61	C	0.561524	0.251887	0.251768
C62	C	0.894857	0.585220	0.585101
C63	C	1.228190	0.918554	0.918434
C64	C	0.891853	0.251881	0.251720
C65	C	1.225187	0.585214	0.585053
C66	C	1.558520	0.918547	0.918387
C67	C	0.949967	0.251882	0.251714
C68	C	1.283301	0.585215	0.585047
C69	C	1.616634	0.918549	0.918381
C70	C	1.310365	0.218449	0.285200
C71	C	1.643699	0.551782	0.618534
C72	C	1.977032	0.885116	0.951867
C73	C	1.364970	0.218451	0.285205
C74	C	1.698303	0.551784	0.618539
C75	C	2.031636	0.885117	0.951872
O76	O	1.393236	0.190027	0.313663
O77	O	1.726569	0.523360	0.646996
O78	O	2.059903	0.856693	0.980330
N79	N	1.392250	0.251888	0.251760
N80	N	1.725583	0.585222	0.585094
N81	N	2.058917	0.918555	0.918427
C82	C	1.364923	0.285331	0.218312
C83	C	1.698256	0.618664	0.551645
C84	C	2.031590	0.951997	0.884979
O85	O	1.393141	0.313773	0.189865
O86	O	1.726474	0.647106	0.523199
O87	O	2.059808	0.980439	0.856532
C88	C	1.310320	0.285331	0.218310
C89	C	1.643653	0.618665	0.551643
C90	C	1.976986	0.951998	0.884977
C91	C	1.283042	0.251888	0.251753
C92	C	1.616376	0.585221	0.585087
C93	C	1.949709	0.918554	0.918420
C94	C	1.283088	0.185009	0.318641
C95	C	1.616421	0.518342	0.651975
C96	C	1.949755	0.851675	0.985308
C97	C	1.228487	0.185007	0.318635
C98	C	1.561821	0.518340	0.651969
C99	C	1.895154	0.851673	0.985302
C100	C	1.201164	0.218445	0.285189
C101	C	1.534498	0.551778	0.618522
C102	C	1.867831	0.885112	0.951855
C103	C	1.228442	0.251886	0.251747
C104	C	1.561775	0.585219	0.585081
C105	C	1.895108	0.918552	0.918414
C106	C	1.282994	0.318776	0.184865
C107	C	1.616327	0.652109	0.518198
C108	C	1.949660	0.985443	0.851531
C109	C	1.228387	0.318774	0.184866
C110	C	1.561720	0.652107	0.518199
C111	C	1.895053	0.985441	0.851532
C112	C	1.201109	0.285330	0.218309
C113	C	1.534443	0.618664	0.551642
C114	C	1.867776	0.951997	0.884976
C115	C	1.146518	0.285322	0.218295
C116	C	1.479851	0.618656	0.551628
C117	C	1.813185	0.951989	0.884961
N118	N	1.119238	0.251884	0.251739
N119	N	1.452571	0.585218	0.585073
N120	N	1.785904	0.918551	0.918406
C121	C	1.146561	0.218446	0.285186
C122	C	1.479894	0.551779	0.618520
C123	C	1.813228	0.885113	0.951853
C124	C	1.479594	0.285327	0.218319
C125	C	1.812927	0.618660	0.551653
C126	C	2.146260	0.951994	0.884986
C127	C	1.534196	0.285324	0.218318
C128	C	1.867529	0.618657	0.551652
C129	C	2.200863	0.951991	0.884985
C130	C	1.534239	0.218445	0.285213
C131	C	1.867572	0.551778	0.618546
C132	C	2.200906	0.885111	0.951879
C133	C	1.479636	0.218445	0.285211
C134	C	1.812969	0.551779	0.618544
C135	C	2.146302	0.885112	0.951877
C136	C	1.452313	0.251889	0.251764
C137	C	1.785647	0.585223	0.585098
C138	C	2.118980	0.918556	0.918431
C139	C	1.031896	0.218444	0.285171
C140	C	1.365229	0.551777	0.618505
C141	C	1.698563	0.885111	0.951838
C142	C	0.977290	0.218443	0.285161
C143	C	1.310624	0.551777	0.618494
C144	C	1.643957	0.885110	0.951827
C145	C	0.977252	0.285324	0.218269
C146	C	1.310586	0.618658	0.551602
C147	C	1.643919	0.951991	0.884935
C148	C	1.031853	0.285323	0.218277
C149	C	1.365186	0.618657	0.551610
C150	C	1.698520	0.951990	0.884944
C151	C	1.059173	0.251881	0.251732
C152	C	1.392507	0.585215	0.585066
C153	C	1.725840	0.918548	0.918399
O154	O	1.118217	0.313733	0.189853
O155	O	1.451550	0.647066	0.523186
O156	O	1.784884	0.980400	0.856520
O157	O	1.118336	0.190014	0.313633
O158	O	1.451670	0.523347	0.646967
O159	O	1.785003	0.856680	0.980300
C160	C	0.755497	0.251869	0.388107
C161	C	1.088831	0.585202	0.721441
C162	C	1.422164	0.918535	1.054774
C163	C	0.755504	0.251865	0.446221
C164	C	1.088838	0.585198	0.779555
C165	C	1.422171	0.918532	1.112888
C166	C	0.755583	0.115505	0.251770
C167	C	1.088916	0.448838	0.585103
C168	C	1.422250	0.782172	0.918436
C169	C	0.755627	0.057391	0.251785
C170	C	1.088960	0.390724	0.585118
C171	C	1.422293	0.724057	0.918452
C172	C	0.789004	0.806188	0.218347
C173	C	1.122337	1.139521	0.551681
C174	C	1.455670	1.472855	0.885014
C175	C	0.789024	0.860792	0.218354
C176	C	1.122357	1.194126	0.551688
C177	C	1.455691	1.527459	0.885021
O178	O	0.817502	0.889021	0.189956
O179	O	1.150835	1.222354	0.523289
O180	O	1.484168	1.555687	0.856622
N181	N	0.755572	0.888117	0.251769
N182	N	1.088906	1.221450	0.585102
N183	N	1.422239	1.554784	0.918436
C184	C	0.722102	0.860835	0.285182
C185	C	1.055435	1.194168	0.618516
C186	C	1.388768	1.527501	0.951849
O187	O	0.693651	0.889090	0.313605
O188	O	1.026984	1.222424	0.646938
O189	O	1.360317	1.555757	0.980272
C190	C	0.722085	0.806231	0.285178
C191	C	1.055418	1.139565	0.618511
C192	C	1.388751	1.472898	0.951844
C193	C	0.755535	0.778909	0.251757
C194	C	1.088868	1.112243	0.585091
C195	C	1.422201	1.445576	0.918424
C196	C	0.822452	0.778866	0.184930
C197	C	1.155785	1.112199	0.518263
C198	C	1.489118	1.445533	0.851597
C199	C	0.822431	0.724265	0.184923
C200	C	1.155764	1.057599	0.518256
C201	C	1.489097	1.390932	0.851589
C202	C	0.788962	0.696987	0.218332
C203	C	1.122295	1.030320	0.551666
C204	C	1.455628	1.363654	0.884999
C205	C	0.755514	0.724309	0.251750
C206	C	1.088847	1.057642	0.585083
C207	C	1.422180	1.390975	0.918416
C208	C	0.688617	0.778950	0.318593
C209	C	1.021950	1.112283	0.651927
C210	C	1.355284	1.445617	0.985260
C211	C	0.688603	0.724343	0.318586
C212	C	1.021936	1.057676	0.651919
C213	C	1.355270	1.391010	0.985253
C214	C	0.722053	0.697021	0.285166
C215	C	1.055387	1.030354	0.618499
C216	C	1.388720	1.363688	0.951832
C217	C	0.722024	0.642430	0.285152
C218	C	1.055357	0.975763	0.618485
C219	C	1.388690	1.309096	0.951819
N220	N	0.755475	0.615105	0.251737
N221	N	1.088809	0.948438	0.585071
N222	N	1.422142	1.281772	0.918404
C223	C	0.788944	0.642384	0.218328
C224	C	1.122278	0.975717	0.551661
C225	C	1.455611	1.309050	0.884994
C226	C	0.722141	0.975505	0.285191
C227	C	1.055474	1.308839	0.618524
C228	C	1.388808	1.642172	0.951857
C229	C	0.722155	1.030107	0.285193
C230	C	1.055489	1.363441	0.618526
C231	C	1.388822	1.696774	0.951860
C232	C	0.789078	1.030061	0.218366
C233	C	1.122412	1.363395	0.551699
C234	C	1.455745	1.696728	0.885032
C235	C	0.789061	0.975458	0.218361
C236	C	1.122395	1.308791	0.551694
C237	C	1.455728	1.642125	0.885027
C238	C	0.755593	0.948180	0.251776
C239	C	1.088926	1.281514	0.585109
C240	C	1.422260	1.614847	0.918443
C241	C	0.788897	0.527719	0.218314
C242	C	1.122231	0.861052	0.551647
C243	C	1.455564	1.194385	0.884981
C244	C	0.788872	0.473113	0.218308
C245	C	1.122205	0.806446	0.551641
C246	C	1.455538	1.139780	0.884975
C247	C	0.721951	0.473164	0.285137
C248	C	1.055284	0.806497	0.618470
C249	C	1.388617	1.139831	0.951804
C250	C	0.721974	0.527765	0.285141
C251	C	1.055307	0.861098	0.618475
C252	C	1.388641	1.194431	0.951808
C253	C	0.755452	0.555041	0.251728
C254	C	1.088785	0.888374	0.585062
C255	C	1.422118	1.221707	0.918395
O256	O	0.693562	0.614167	0.313538
O257	O	1.026895	0.947500	0.646871
O258	O	1.360229	1.280833	0.980204
O259	O	0.817396	0.614121	0.189915
O260	O	1.150729	0.947454	0.523248
O261	O	1.484062	1.280788	0.856581
C262	C	0.755494	0.251849	0.115892
C263	C	1.088827	0.585183	0.449225
C264	C	1.422160	0.918516	0.782559
C265	C	0.755588	0.251706	0.057778
C266	C	1.088921	0.585039	0.391111
C267	C	1.422254	0.918373	0.724445
C268	C	0.789012	0.218326	0.806595
C269	C	1.122346	0.551659	1.139929
C270	C	1.455679	0.884993	1.473262
C271	C	0.789019	0.218311	0.861200
C272	C	1.122352	0.551645	1.194533
C273	C	1.455685	0.884978	1.527866
O274	O	0.817466	0.189857	0.889446
O275	O	1.150799	0.523190	1.222779
O276	O	1.484133	0.856524	1.556112
N277	N	0.755562	0.251742	0.888504
N278	N	1.088895	0.585076	1.221837
N279	N	1.422229	0.918409	1.555171
C280	C	0.722093	0.285186	0.861201
C281	C	1.055426	0.618519	1.194535
C282	C	1.388760	0.951853	1.527868
O283	O	0.693636	0.313620	0.889440
O284	O	1.026969	0.646953	1.222773
O285	O	1.360302	0.980287	1.556106
C286	C	0.722084	0.285197	0.806598
C287	C	1.055418	0.618531	1.139931
C288	C	1.388751	0.951864	1.473265
C289	C	0.755547	0.251768	0.779296
C290	C	1.088880	0.585101	1.112630
C291	C	1.422214	0.918435	1.445963
C292	C	0.822472	0.184899	0.779294
C293	C	1.155805	0.518232	1.112627
C294	C	1.489138	0.851565	1.445961
C295	C	0.822466	0.184914	0.724693
C296	C	1.155799	0.518247	1.058027
C297	C	1.489133	0.851581	1.391360
C298	C	0.789000	0.218356	0.697394
C299	C	1.122334	0.551690	1.030728
C300	C	1.455667	0.885023	1.364061
C301	C	0.755541	0.251783	0.724696
C302	C	1.088874	0.585117	1.058029
C303	C	1.422208	0.918450	1.391363
C304	C	0.688613	0.318638	0.779296
C305	C	1.021946	0.651972	1.112629
C306	C	1.355280	0.985305	1.445963
C307	C	0.688607	0.318647	0.724689
C308	C	1.021940	0.651980	1.058022
C309	C	1.355273	0.985313	1.391356
C310	C	0.722069	0.285217	0.697388
C311	C	1.055403	0.618551	1.030721
C312	C	1.388736	0.951884	1.364054
C313	C	0.722070	0.285241	0.642796
C314	C	1.055403	0.618574	0.976130
C315	C	1.388736	0.951908	1.309463
N316	N	0.755526	0.251810	0.615492
N317	N	1.088860	0.585143	0.948825
N318	N	1.422193	0.918477	1.282159
C319	C	0.788992	0.218368	0.642791
C320	C	1.122325	0.551701	0.976124
C321	C	1.455658	0.885034	1.309458
C322	C	0.722113	0.285159	0.975872
C323	C	1.055446	0.618492	1.309205
C324	C	1.388780	0.951826	1.642539
C325	C	0.722124	0.285150	1.030474
C326	C	1.055457	0.618484	1.363808
C327	C	1.388791	0.951817	1.697141
C328	C	0.789049	0.218275	1.030469
C329	C	1.122383	0.551608	1.363802
C330	C	1.455716	0.884942	1.697136
C331	C	0.789041	0.218286	0.975866
C332	C	1.122374	0.551620	1.309199
C333	C	1.455707	0.884953	1.642532
C334	C	0.755570	0.251728	0.948568
C335	C	1.088903	0.585061	1.281901
C336	C	1.422237	0.918395	1.615234
C337	C	0.788977	0.218403	0.528126
C338	C	1.122311	0.551736	0.861459
C339	C	1.455644	0.885069	1.194793
C340	C	0.788970	0.218423	0.473520
C341	C	1.122303	0.551756	0.806854
C342	C	1.455636	0.885089	1.140187
C343	C	0.722043	0.285296	0.473531
C344	C	1.055376	0.618629	0.806864
C345	C	1.388710	0.951963	1.140197
C346	C	0.722052	0.285278	0.528131
C347	C	1.055385	0.618612	0.861464
C348	C	1.388719	0.951945	1.194798
C349	C	0.755521	0.251827	0.555427
C350	C	1.088854	0.585161	0.888761
C351	C	1.422187	0.918494	1.222094
O352	O	0.693635	0.313679	0.614516
O353	O	1.026969	0.647013	0.947849
O354	O	1.360302	0.980346	1.281182
O355	O	0.817439	0.189934	0.614546
O356	O	1.150773	0.523267	0.947879
O357	O	1.484106	0.856601	1.281213
H358	H	0.955084	0.191207	0.312394
H359	H	1.288417	0.524540	0.645728
H360	H	1.621750	0.857874	0.979061
Cl361	Cl	0.942893	0.327359	0.176223
Cl362	Cl	1.276226	0.660692	0.509556
Cl363	Cl	1.609560	0.994025	0.842889
Cl364	Cl	1.445251	0.327369	0.176262
Cl365	Cl	1.778584	0.660703	0.509596
Cl366	Cl	2.111918	0.994036	0.842929
Cl367	Cl	1.317272	0.360814	0.142811
Cl368	Cl	1.650605	0.694148	0.476144
Cl369	Cl	1.983938	1.027481	0.809477
H370	H	1.457430	0.191212	0.312443
H371	H	1.790763	0.524545	0.645776
H372	H	2.124097	0.857879	0.979109
H373	H	1.556495	0.191217	0.312447
H374	H	1.889829	0.524550	0.645781
H375	H	2.223162	0.857884	0.979114
Cl376	Cl	0.679973	0.327334	0.439202
Cl377	Cl	1.013306	0.660667	0.772535
Cl378	Cl	1.346639	0.994000	1.105868
Cl379	Cl	1.194042	0.360824	0.142819
Cl380	Cl	1.527376	0.694157	0.476153
Cl381	Cl	1.860709	1.027491	0.809486
H382	H	1.054134	0.191212	0.312414
H383	H	1.387467	0.524545	0.645747
H384	H	1.720800	0.857879	0.979080
H385	H	1.305329	0.157778	0.345881
H386	H	1.638662	0.491112	0.679214
H387	H	1.971995	0.824445	1.012547
H388	H	1.556401	0.312552	0.191080
H389	H	1.889734	0.645885	0.524413
H390	H	2.223067	0.979218	0.857746
H391	H	0.694699	0.450945	0.312337
H392	H	1.028032	0.784279	0.645671
H393	H	1.361366	1.117612	0.979004
H394	H	0.816221	0.191200	0.451294
H395	H	1.149554	0.524533	0.784627
H396	H	1.482888	0.857867	1.117961
H397	H	1.206283	0.157775	0.345871
H398	H	1.539616	0.491109	0.679204
H399	H	1.872950	0.824442	1.012538
H400	H	0.849714	0.157691	0.702469
H401	H	1.183047	0.491025	1.035803
H402	H	1.516380	0.824358	1.369136
H403	H	1.054063	0.312551	0.191040
H404	H	1.387397	0.645885	0.524373
H405	H	1.720730	0.979218	0.857707
H406	H	0.816159	0.549920	0.191107
H407	H	1.149492	0.883253	0.524440
H408	H	1.482826	1.216587	0.857774
H409	H	0.816111	0.450869	0.191091
H410	H	1.149444	0.784203	0.524424
H411	H	1.482777	1.117536	0.857758
Cl412	Cl	0.831108	0.176258	0.941550
Cl413	Cl	1.164442	0.509592	1.274883
Cl414	Cl	1.497775	0.842925	1.608216
Cl415	Cl	0.864555	0.142858	0.813603
Cl416	Cl	1.197889	0.476191	1.146936
Cl417	Cl	1.531222	0.809525	1.480270
Cl418	Cl	0.864493	0.689926	0.142914
Cl419	Cl	1.197826	1.023259	0.476247
Cl420	Cl	1.531159	1.356593	0.809581
H421	H	0.849709	0.801070	0.157724
H422	H	1.183042	1.134404	0.491057
H423	H	1.516376	1.467737	0.824390
H424	H	0.816300	0.953216	0.191147
H425	H	1.149633	1.286549	0.524481
H426	H	1.482966	1.619882	0.857814
H427	H	0.816298	0.191043	1.052706
H428	H	1.149631	0.524376	1.386039
H429	H	1.482964	0.857710	1.719373
Cl430	Cl	0.831153	1.064365	0.176363
Cl431	Cl	1.164487	1.397698	0.509697
Cl432	Cl	1.497820	1.731031	0.843030
Cl433	Cl	0.680096	1.064448	0.327203
Cl434	Cl	1.013429	1.397782	0.660536
Cl435	Cl	1.346762	1.731115	0.993870
H436	H	0.694857	0.312394	0.953649
H437	H	1.028190	0.645727	1.286983
H438	H	1.361523	0.979060	1.620316
H439	H	0.694883	0.953298	0.312400
H440	H	1.028216	1.286632	0.645733
H441	H	1.361550	1.619965	0.979066
Cl442	Cl	0.680063	0.327186	1.064789
Cl443	Cl	1.013396	0.660519	1.398123
Cl444	Cl	1.346730	0.993853	1.731456
H445	H	0.661376	0.801186	0.345806
H446	H	0.994709	1.134519	0.679139
H447	H	1.328042	1.467853	1.012472
H448	H	0.661350	0.702136	0.345799
H449	H	0.994683	1.035469	0.679132
H450	H	1.328016	1.368803	1.012465
Cl451	Cl	0.679911	0.562113	0.327145
Cl452	Cl	1.013245	0.895446	0.660479
Cl453	Cl	1.346578	1.228780	0.993812
Cl454	Cl	0.831051	0.176348	0.562433
Cl455	Cl	1.164384	0.509681	0.895766
Cl456	Cl	1.497717	0.843014	1.229099
Cl457	Cl	0.646544	0.360668	0.813605
Cl458	Cl	0.979878	0.694002	1.146938
Cl459	Cl	1.313211	1.027335	1.480271
Cl460	Cl	0.679987	0.327307	0.562454
Cl461	Cl	1.013320	0.660640	0.895787
Cl462	Cl	1.346654	0.993974	1.229121
Cl463	Cl	0.646526	0.360690	0.690375
Cl464	Cl	0.979859	0.694023	1.023708
Cl465	Cl	1.313192	1.027356	1.357042
