data_functionalizedCrystal
_audit_creation_method	'MofGen! by Chris Wilmer'
_symmetry_space_group_name_H-M	'P1'
_symmetry_Int_Tables_number	1
_symmetry_cell_setting	triclinic
loop_
_symmetry_equiv_pos_as_xyz
  x,y,z
_cell_length_a	12.827893
_cell_length_b	29.839131
_cell_length_c	12.827885
_cell_angle_alpha	89.962989
_cell_angle_beta	89.980538
_cell_angle_gamma	90.041391
loop_
_atom_site_label
_atom_site_type_symbol
_atom_site_fract_x
_atom_site_fract_y
_atom_site_fract_z
Zn1	Zn	1.597483	-0.178831	-0.590798
Zn2	Zn	1.597297	-0.253968	-0.416036
Zn3	Zn	1.422723	-0.178853	-0.416071
Zn4	Zn	1.422630	-0.253935	-0.590736
O5	O	1.510033	-0.216397	-0.503410
O6	O	1.743694	-0.188803	-0.567626
O7	O	1.574101	-0.244028	-0.269805
O8	O	1.446022	-0.115983	-0.439289
O9	O	1.743557	-0.244006	-0.439230
O10	O	1.574417	-0.115967	-0.567660
O11	O	1.445842	-0.188841	-0.269830
O12	O	1.276475	-0.188808	-0.439230
O13	O	1.445863	-0.243949	-0.736981
O14	O	1.276406	-0.243970	-0.567556
O15	O	1.574327	-0.188770	-0.737026
O16	O	1.574010	-0.316831	-0.439170
O17	O	1.445683	-0.316806	-0.567522
C18	C	1.238523	-0.216388	-0.503390
C19	C	1.122370	-0.216395	-0.503407
C20	C	1.070579	-0.243734	-0.566808
C21	C	0.950529	-0.243742	-0.566827
C22	C	1.509844	-0.333119	-0.503359
C23	C	1.509859	-0.383054	-0.503371
C24	C	1.576974	-0.692697	-0.436675
C25	C	1.577103	-0.880371	-0.436716
O26	O	1.634017	-0.904636	-0.379969
N27	N	1.510250	-0.903839	-0.503489
C28	C	1.443364	-0.880386	-0.570262
O29	O	1.386511	-0.904654	-0.627065
C30	C	1.443241	-0.692714	-0.570226
C31	C	1.510092	-0.669248	-0.503441
C32	C	1.643820	-0.669231	-0.369897
C33	C	1.643783	-0.622316	-0.369883
C34	C	1.576901	-0.598867	-0.436648
C35	C	1.510055	-0.622333	-0.503427
C36	C	1.376361	-0.669262	-0.637003
C37	C	1.376338	-0.622341	-0.636990
C38	C	1.443189	-0.598875	-0.570205
C39	C	1.443135	-0.551968	-0.570179
N40	N	1.509988	-0.528499	-0.503406
C41	C	1.576871	-0.551949	-0.436641
C42	C	1.443432	-0.978917	-0.570274
C43	C	1.443461	-1.025835	-0.570282
C44	C	1.577202	-1.025816	-0.436738
C45	C	1.577167	-0.978897	-0.436725
C46	C	1.510285	-0.955448	-0.503501
C47	C	1.576788	-0.453423	-0.436617
C48	C	1.576742	-0.406503	-0.436606
C49	C	1.443005	-0.406526	-0.570154
C50	C	1.443047	-0.453442	-0.570161
C51	C	1.509947	-0.476889	-0.503389
O52	O	1.386259	-0.527674	-0.626905
O53	O	1.633732	-0.527673	-0.379862
C54	C	1.577011	-0.739613	-0.436689
C55	C	1.510165	-0.763079	-0.503468
C56	C	1.443283	-0.739629	-0.570233
C57	C	1.510195	-0.809997	-0.503476
C58	C	1.577078	-0.833446	-0.436710
C59	C	1.643931	-0.809978	-0.369937
C60	C	1.643894	-0.763062	-0.369924
C61	C	1.376429	-0.763098	-0.637006
C62	C	1.376471	-0.810013	-0.637013
C63	C	1.443353	-0.833463	-0.570248
C64	C	1.782603	-0.216406	-0.503431
C65	C	1.898756	-0.216410	-0.503440
C66	C	1.510105	-0.216353	-0.775981
C67	C	1.510136	-0.216335	-0.892134
C68	C	1.510251	-0.099218	-0.503485
C69	C	1.510344	-0.049284	-0.503517
C70	C	1.573741	-0.189007	-1.063985
C71	C	1.573711	-0.189025	-0.943935
C72	C	1.510022	-0.216408	-0.231900
C73	C	1.510193	-0.216300	-0.115748
H74	H	0.943289	-0.193005	-0.449153
Cl75	Cl	1.657784	-0.152910	-1.132775
Cl76	Cl	1.053618	-0.180264	-0.419624
H77	H	1.628111	-0.165657	-0.899420
Cl78	Cl	1.292327	-0.698751	-0.720979
Cl79	Cl	1.426125	-0.252411	-0.960848
H80	H	1.455770	-0.239682	-1.071187
Cl81	Cl	1.727944	-0.733569	-0.285965
H82	H	1.388966	-0.959828	-0.624653
Cl83	Cl	1.660790	-0.377006	-0.352642
H84	H	1.115115	-0.267132	-0.621079
H85	H	1.698222	-0.603213	-0.315504
Cl86	Cl	1.359404	-1.055329	-0.654232
H87	H	1.631603	-0.959794	-0.382344
Cl88	Cl	1.660890	-0.482892	-0.352671
Cl89	Cl	0.881770	-0.279883	-0.650631
Cl90	Cl	1.727914	-0.698702	-0.285952
H91	H	1.631661	-1.044916	-0.382375
H92	H	1.321877	-0.603251	-0.691370
H93	H	1.388615	-0.472549	-0.624546
Cl94	Cl	1.358934	-0.377038	-0.654089
Cl95	Cl	1.728010	-0.839466	-0.286003
H96	H	1.322024	-0.829115	-0.691397
H97	H	1.321966	-0.744009	-0.691376
