data_functionalizedCrystal
_audit_creation_method	'MofGen! by Chris Wilmer'
_symmetry_space_group_name_H-M	'P1'
_symmetry_Int_Tables_number	1
_symmetry_cell_setting	triclinic
loop_
_symmetry_equiv_pos_as_xyz
  x,y,z
_cell_length_a	12.759401
_cell_length_b	11.169416
_cell_length_c	12.759393
_cell_angle_alpha	90.027570
_cell_angle_beta	90.020938
_cell_angle_gamma	90.011865
loop_
_atom_site_label
_atom_site_type_symbol
_atom_site_fract_x
_atom_site_fract_y
_atom_site_fract_z
Zn1	Zn	1.606298	-0.477700	0.594041
Zn2	Zn	2.106298	0.022300	1.094041
Zn3	Zn	1.606203	-0.678429	0.418371
Zn4	Zn	2.106203	-0.178429	0.918371
Zn5	Zn	1.430597	-0.477764	0.418377
Zn6	Zn	1.930597	0.022236	0.918377
Zn7	Zn	1.430602	-0.678345	0.594008
Zn8	Zn	1.930602	-0.178345	1.094008
O9	O	1.518425	-0.578060	0.506199
O10	O	2.018425	-0.078060	1.006199
O11	O	1.753307	-0.504336	0.570750
O12	O	2.253307	-0.004336	1.070750
O13	O	1.582866	-0.651872	0.271350
O14	O	2.082866	-0.151872	0.771350
O15	O	1.453942	-0.309806	0.441696
O16	O	1.953942	0.190194	0.941696
O17	O	1.753236	-0.651810	0.441685
O18	O	2.253236	-0.151810	0.941685
O19	O	1.583029	-0.309759	0.570756
O20	O	2.083029	0.190241	1.070756
O21	O	1.453849	-0.504445	0.271355
O22	O	1.953849	-0.004445	0.771355
O23	O	1.283577	-0.504363	0.441663
O24	O	1.783577	-0.004363	0.941663
O25	O	1.453951	-0.651667	0.741033
O26	O	1.953951	-0.151667	1.241033
O27	O	1.283580	-0.651729	0.570698
O28	O	1.783580	-0.151729	1.070698
O29	O	1.583034	-0.504254	0.741058
O30	O	2.083034	-0.004254	1.241058
O31	O	1.582871	-0.846368	0.441653
O32	O	2.082871	-0.346368	0.941653
O33	O	1.453858	-0.846306	0.570692
O34	O	1.953858	-0.346306	1.070692
C35	C	1.245458	-0.578045	0.506178
C36	C	1.745458	-0.078045	1.006178
C37	C	1.128681	-0.578068	0.506194
C38	C	1.628681	-0.078068	1.006194
C39	C	1.073849	-0.654918	0.573277
C40	C	1.573849	-0.154918	1.073277
C41	C	0.964125	-0.654923	0.573298
C42	C	1.464125	-0.154923	1.073298
C43	C	0.964075	-0.501223	0.439144
C44	C	1.464075	-0.001223	0.939144
C45	C	1.073797	-0.501213	0.439129
C46	C	1.573797	-0.001213	0.939129
C47	C	1.518383	-0.889884	0.506191
C48	C	2.018383	-0.389884	1.006191
C49	C	1.518462	-1.023284	0.506223
C50	C	2.018462	-0.523284	1.006223
C51	C	1.792458	-0.578075	0.506221
C52	C	2.292458	-0.078075	1.006221
C53	C	1.909235	-0.578082	0.506230
C54	C	2.409235	-0.078082	1.006230
C55	C	1.518504	-0.577944	0.780233
C56	C	2.018504	-0.077944	1.280233
C57	C	1.518537	-0.577895	0.897009
C58	C	2.018537	-0.077895	1.397009
C59	C	1.518495	-0.265017	0.506230
C60	C	2.018495	0.234983	1.006230
C61	C	1.518525	-0.131617	0.506243
C62	C	2.018525	0.368383	1.006243
C63	C	1.518407	-0.578088	0.233232
C64	C	2.018407	-0.078088	0.733232
C65	C	1.518577	-0.577799	0.116456
C66	C	2.018577	-0.077799	0.616456
C67	C	1.585756	-0.501125	0.951886
C68	C	2.085756	-0.001125	1.451886
C69	C	1.585773	-0.501073	1.061610
C70	C	2.085773	-0.001073	1.561610
C71	C	1.451351	-0.654573	1.061571
C72	C	1.951351	-0.154573	1.561571
C73	C	1.451329	-0.654617	0.951849
C74	C	1.951329	-0.154617	1.451849
H75	H	1.118532	-0.717495	0.627889
H76	H	1.618532	-0.217495	1.127889
O77	O	1.650969	-0.426534	1.115079
O78	O	2.150969	0.073466	1.615079
C79	C	1.636595	-0.442957	1.223683
C80	C	2.136595	0.057043	1.723683
H81	H	1.555509	-0.482253	1.238651
H82	H	2.055509	0.017747	1.738651
H83	H	1.643746	-0.353037	1.265388
H84	H	2.143746	0.146963	1.765388
H85	H	1.698904	-0.506855	1.254831
H86	H	2.198904	-0.006855	1.754831
O87	O	1.386173	-0.729063	1.115007
O88	O	1.886173	-0.229063	1.615007
C89	C	1.400587	-0.712544	1.223619
C90	C	1.900587	-0.212544	1.723619
H91	H	1.481680	-0.673240	1.238623
H92	H	1.981680	-0.173240	1.738623
H93	H	1.393446	-0.802426	1.265308
H94	H	1.893446	-0.302426	1.765308
H95	H	1.338292	-0.648613	1.254754
H96	H	1.838292	-0.148613	1.754754
O97	O	0.910745	-0.729637	0.638314
O98	O	1.410745	-0.229637	1.138314
C99	C	0.847254	-0.807093	0.578393
C100	C	1.347254	-0.307093	1.078393
H101	H	0.830778	-0.764653	0.498840
H102	H	1.330778	-0.264653	0.998840
H103	H	0.770119	-0.823243	0.621178
H104	H	1.270119	-0.323243	1.121178
H105	H	0.889522	-0.896015	0.566708
H106	H	1.389522	-0.396015	1.066708
O107	O	1.127115	-0.426431	0.374109
O108	O	1.627115	0.073569	0.874109
C109	C	1.190641	-0.349013	0.434033
C110	C	1.690641	0.150987	0.934033
H111	H	1.157613	-0.341715	0.516793
H112	H	1.657613	0.158285	1.016793
H113	H	1.191883	-0.256598	0.396170
H114	H	1.691883	0.243402	0.896170
H115	H	1.273793	-0.386123	0.437590
H116	H	1.773793	0.113877	0.937590
H117	H	1.640478	-0.438650	0.907238
H118	H	2.140478	0.061350	1.407238
H119	H	1.396584	-0.717132	0.907168
H120	H	1.896584	-0.217132	1.407168
H121	H	0.919375	-0.438653	0.384540
H122	H	1.419375	0.061347	0.884540
