data_functionalizedCrystal
_audit_creation_method	'MofGen! by Chris Wilmer'
_symmetry_space_group_name_H-M	'P1'
_symmetry_Int_Tables_number	1
_symmetry_cell_setting	triclinic
loop_
_symmetry_equiv_pos_as_xyz
  x,y,z
_cell_length_a	18.101389
_cell_length_b	13.032831
_cell_length_c	13.032721
_cell_angle_alpha	90.902885
_cell_angle_beta	82.835839
_cell_angle_gamma	97.188913
loop_
_atom_site_label
_atom_site_type_symbol
_atom_site_fract_x
_atom_site_fract_y
_atom_site_fract_z
Zn1	Zn	-0.610159	-1.520224	0.609562
Zn2	Zn	-0.499818	-1.498269	0.781506
Zn3	Zn	-0.468913	-1.348246	0.587687
Zn4	Zn	-0.606205	-1.326372	0.759608
O5	O	-0.546274	-1.423278	0.684591
O6	O	-0.610111	-1.661224	0.650690
O7	O	-0.392084	-1.478335	0.755806
O8	O	-0.476371	-1.389402	0.446680
O9	O	-0.529044	-1.645094	0.777017
O10	O	-0.580143	-1.515753	0.462751
O11	O	-0.369378	-1.368113	0.613407
O12	O	-0.472537	-1.201432	0.592173
O13	O	-0.710365	-1.352121	0.739694
O14	O	-0.573405	-1.185361	0.718482
O15	O	-0.713270	-1.494543	0.629456
O16	O	-0.525210	-1.457124	0.922511
O17	O	-0.603372	-1.330832	0.906422
C18	C	-0.519189	-1.156081	0.650578
C19	C	-0.507621	-1.041770	0.636052
C20	C	-0.567234	-1.389250	0.951784
C21	C	-0.576236	-1.374787	1.066102
C22	C	-0.739440	-1.423341	0.684572
C23	C	-0.821756	-1.423367	0.684564
C24	C	-1.120838	-1.423452	0.684379
C25	C	-1.087637	-1.333602	0.753450
C26	C	-1.002070	-1.333771	0.753845
C27	C	-0.972460	-1.423409	0.684471
C28	C	-1.016845	-1.528031	0.727675
C29	C	-1.102486	-1.527520	0.728138
C30	C	-1.077915	-1.409644	0.572048
C31	C	-0.992069	-1.407153	0.572370
C32	C	-0.888603	-1.423392	0.684522
C33	C	-1.204695	-1.423476	0.684332
C34	C	-0.353860	-1.423284	0.684542
C35	C	-0.271542	-1.423493	0.684286
C36	C	-0.573466	-1.691517	0.718737
C37	C	-0.585053	-1.805825	0.733288
C38	C	-0.552311	-0.982870	0.692172
C39	C	-0.540357	-0.864724	0.677160
C40	C	-0.525251	-1.457466	0.416358
C41	C	-0.516292	-1.472036	0.302053
C42	C	-0.541615	-1.430881	1.125001
C43	C	-0.550917	-1.415934	1.243155
H44	H	-1.098634	-1.255323	0.724977
H45	H	-1.003998	-1.541859	0.809407
H46	H	-0.599425	-1.019911	0.751328
N47	N	-0.986651	-1.343840	0.857941
N48	N	-1.039128	-1.350773	0.930525
H49	H	-1.028240	-1.357886	1.004049
H50	H	-1.131090	-1.540837	0.810664
N51	N	-0.596740	-1.341786	1.289597
N52	N	-0.629290	-1.289037	1.234281
H53	H	-0.661651	-1.236669	1.267080
N54	N	-1.124813	-1.343475	0.856913
N55	N	-1.106452	-1.279183	0.924243
H56	H	-1.132705	-1.286160	0.997315
H57	H	-0.632172	-0.842861	0.792446
N58	N	-0.495805	-1.505020	1.078523
N59	N	-0.488319	-1.517064	0.982609
H60	H	-0.455966	-1.569430	0.949784
N61	N	-0.963651	-1.235915	0.717920
N62	N	-0.916310	-1.231274	0.639109
H63	H	-0.889179	-1.162159	0.613738
N64	N	-0.470458	-1.546155	1.255578
N65	N	-0.462957	-1.558185	1.159663
H66	H	-0.430582	-1.610524	1.126837
N67	N	-0.993553	-1.613525	0.667330
N68	N	-0.966207	-1.683429	0.708810
H69	H	-0.949755	-1.743810	0.666191
H70	H	-1.125110	-1.595995	0.680761
H71	H	-0.460512	-1.004730	0.576888
N72	N	-0.622050	-1.300653	1.112582
N73	N	-0.594006	-1.227604	1.164294
H74	H	-0.626363	-1.175244	1.197120
N75	N	-1.092499	-1.316513	0.526041
N76	N	-1.134712	-1.259179	0.575492
H77	H	-1.145015	-1.193401	0.543009
N78	N	-0.954228	-1.310660	0.531824
N79	N	-0.884176	-1.294408	0.522187
H80	H	-0.857442	-1.226259	0.493558
H81	H	-0.971254	-1.468920	0.517065
H82	H	-1.099435	-1.475254	0.520417
H83	H	-0.493244	-0.827688	0.617992
