data_functionalizedCrystal
_audit_creation_method	'MofGen! by Chris Wilmer'
_symmetry_space_group_name_H-M	'P1'
_symmetry_Int_Tables_number	1
_symmetry_cell_setting	triclinic
loop_
_symmetry_equiv_pos_as_xyz
  x,y,z
_cell_length_a	18.215407
_cell_length_b	12.594516
_cell_length_c	18.215399
_cell_angle_alpha	89.976218
_cell_angle_beta	89.983101
_cell_angle_gamma	90.009275
loop_
_atom_site_label
_atom_site_type_symbol
_atom_site_fract_x
_atom_site_fract_y
_atom_site_fract_z
Zn1	Zn	1.125139	-0.423825	-0.416080
Zn2	Zn	1.375139	-0.173825	-0.166080
Zn3	Zn	1.625139	0.076175	0.083920
Zn4	Zn	1.875139	0.326175	0.333920
Zn5	Zn	1.125075	-0.601823	-0.293022
Zn6	Zn	1.375075	-0.351823	-0.043022
Zn7	Zn	1.625075	-0.101823	0.206978
Zn8	Zn	1.875075	0.148177	0.456978
Zn9	Zn	1.002071	-0.423851	-0.293033
Zn10	Zn	1.252071	-0.173851	-0.043033
Zn11	Zn	1.502071	0.076149	0.206967
Zn12	Zn	1.752071	0.326149	0.456967
Zn13	Zn	1.002065	-0.601754	-0.416053
Zn14	Zn	1.252065	-0.351754	-0.166053
Zn15	Zn	1.502065	-0.101754	0.083947
Zn16	Zn	1.752065	0.148246	0.333947
O17	O	1.063588	-0.512813	-0.354547
O18	O	1.313588	-0.262813	-0.104547
O19	O	1.563588	-0.012813	0.145453
O20	O	1.813588	0.237187	0.395453
O21	O	1.228115	-0.447455	-0.399762
O22	O	1.478115	-0.197455	-0.149762
O23	O	1.728115	0.052545	0.100238
O24	O	1.978115	0.302545	0.350238
O25	O	1.108734	-0.578254	-0.190039
O26	O	1.358734	-0.328254	0.059961
O27	O	1.608734	-0.078254	0.309961
O28	O	1.858734	0.171746	0.559961
O29	O	1.018426	-0.274902	-0.309371
O30	O	1.268426	-0.024902	-0.059371
O31	O	1.518426	0.225098	0.190629
O32	O	1.768426	0.475098	0.440629
O33	O	1.228068	-0.578229	-0.309352
O34	O	1.478068	-0.328229	-0.059352
O35	O	1.728068	-0.078229	0.190648
O36	O	1.978068	0.171771	0.440648
O37	O	1.108843	-0.274883	-0.399773
O38	O	1.358843	-0.024883	-0.149773
O39	O	1.608843	0.225117	0.100227
O40	O	1.858843	0.475117	0.350227
O41	O	1.018364	-0.447498	-0.190047
O42	O	1.268364	-0.197498	0.059953
O43	O	1.518364	0.052502	0.309953
O44	O	1.768364	0.302502	0.559953
O45	O	0.899086	-0.447432	-0.309346
O46	O	1.149086	-0.197432	-0.059346
O47	O	1.399086	0.052568	0.190654
O48	O	1.649086	0.302568	0.440654
O49	O	1.018415	-0.578112	-0.519041
O50	O	1.268415	-0.328112	-0.269041
O51	O	1.518415	-0.078112	-0.019041
O52	O	1.768415	0.171888	0.230959
O53	O	0.899082	-0.578137	-0.399728
O54	O	1.149082	-0.328137	-0.149728
O55	O	1.399082	-0.078137	0.100272
O56	O	1.649082	0.171863	0.350272
O57	O	1.108837	-0.447388	-0.519060
O58	O	1.358837	-0.197388	-0.269060
O59	O	1.608837	0.052612	-0.019060
O60	O	1.858837	0.302612	0.230940
O61	O	1.108729	-0.750759	-0.309327
O62	O	1.358729	-0.500759	-0.059327
O63	O	1.608729	-0.250759	0.190673
O64	O	1.858729	-0.000759	0.440673
O65	O	1.018354	-0.750709	-0.399718
O66	O	1.268354	-0.500709	-0.149718
O67	O	1.518354	-0.250709	0.100282
O68	O	1.768354	-0.000709	0.350282
C69	C	0.872381	-0.512781	-0.354536
C70	C	1.122381	-0.262781	-0.104536
C71	C	1.372381	-0.012781	0.145464
C72	C	1.622381	0.237219	0.395464
C73	C	0.790583	-0.512792	-0.354548
C74	C	1.040583	-0.262792	-0.104548
C75	C	1.290583	-0.012792	0.145452
C76	C	1.540583	0.237208	0.395452
C77	C	0.525542	-0.580983	-0.401545
C78	C	0.775542	-0.330983	-0.151545
C79	C	1.025542	-0.080983	0.098455
C80	C	1.275542	0.169017	0.348455
C81	C	0.602401	-0.580974	-0.401541
C82	C	0.852401	-0.330974	-0.151541
C83	C	1.102401	-0.080974	0.098459
C84	C	1.352401	0.169026	0.348459
C85	C	0.602375	-0.444667	-0.307563
C86	C	0.852375	-0.194667	-0.057563
C87	C	1.102375	0.055333	0.192437
C88	C	1.352375	0.305333	0.442437
C89	C	0.525517	-0.444683	-0.307563
C90	C	0.775517	-0.194683	-0.057563
C91	C	1.025517	0.055317	0.192437
C92	C	1.275517	0.305317	0.442437
C93	C	0.487103	-0.512839	-0.354558
C94	C	0.737103	-0.262839	-0.104558
C95	C	0.987103	-0.012839	0.145442
C96	C	1.237103	0.237161	0.395442
C97	C	0.640819	-0.512814	-0.354554
C98	C	0.890819	-0.262814	-0.104554
C99	C	1.140819	-0.012814	0.145446
C100	C	1.390819	0.237186	0.395446
C101	C	0.724153	-0.512804	-0.354550
C102	C	0.974153	-0.262804	-0.104550
C103	C	1.224153	-0.012804	0.145450
C104	C	1.474153	0.237196	0.395450
C105	C	0.403764	-0.512851	-0.354562
C106	C	0.653764	-0.262851	-0.104562
C107	C	0.903764	-0.012851	0.145438
C108	C	1.153764	0.237149	0.395438
C109	C	1.063554	-0.789354	-0.354534
C110	C	1.313554	-0.539354	-0.104534
C111	C	1.563554	-0.289354	0.145466
C112	C	1.813554	-0.039354	0.395466
C113	C	1.063606	-0.907660	-0.354553
C114	C	1.313606	-0.657660	-0.104553
C115	C	1.563606	-0.407660	0.145447
C116	C	1.813606	-0.157660	0.395447
C117	C	1.112818	-0.976901	-0.305442
C118	C	1.362818	-0.726901	-0.055442
C119	C	1.612818	-0.476901	0.194558
C120	C	1.862818	-0.226901	0.444558
C121	C	1.130801	-1.047606	-0.372613
C122	C	1.380801	-0.797606	-0.122613
C123	C	1.630801	-0.547606	0.127387
C124	C	1.880801	-0.297606	0.377387
C125	C	1.045716	-1.047754	-0.287426
C126	C	1.295716	-0.797754	-0.037426
C127	C	1.545716	-0.547754	0.212574
C128	C	1.795716	-0.297754	0.462574
C129	C	1.081623	-0.976806	-0.421759
C130	C	1.331623	-0.726806	-0.171759
C131	C	1.581623	-0.476806	0.078241
C132	C	1.831623	-0.226806	0.328241
C133	C	0.996507	-0.976948	-0.336527
C134	C	1.246507	-0.726948	-0.086527
C135	C	1.496507	-0.476948	0.163473
C136	C	1.746507	-0.226948	0.413473
C137	C	1.014464	-1.047620	-0.403743
C138	C	1.264464	-0.797620	-0.153743
C139	C	1.514464	-0.547620	0.096257
C140	C	1.764464	-0.297620	0.346257
C141	C	1.255541	-0.512847	-0.354559
C142	C	1.505541	-0.262847	-0.104559
C143	C	1.755541	-0.012847	0.145441
C144	C	2.005541	0.237153	0.395441
C145	C	1.337339	-0.512861	-0.354564
C146	C	1.587339	-0.262861	-0.104564
C147	C	1.837339	-0.012861	0.145436
C148	C	2.087339	0.237139	0.395436
C149	C	1.063632	-0.512740	-0.546500
C150	C	1.313632	-0.262740	-0.296500
C151	C	1.563632	-0.012740	-0.046500
C152	C	1.813632	0.237260	0.203500
C153	C	1.063652	-0.512709	-0.628299
C154	C	1.313652	-0.262709	-0.378299
C155	C	1.563652	-0.012709	-0.128299
C156	C	1.813652	0.237291	0.121701
C157	C	1.063642	-0.235192	-0.354576
C158	C	1.313642	0.014808	-0.104576
C159	C	1.563642	0.264808	0.145424
C160	C	1.813642	0.514808	0.395424
C161	C	1.063665	-0.116887	-0.354588
C162	C	1.313665	0.133113	-0.104588
C163	C	1.563665	0.383113	0.145412
C164	C	1.813665	0.633113	0.395412
C165	C	1.110751	-0.444577	-0.816504
C166	C	1.360751	-0.194577	-0.566504
C167	C	1.610751	0.055423	-0.316504
C168	C	1.860751	0.305423	-0.066504
C169	C	1.110760	-0.444546	-0.893363
C170	C	1.360760	-0.194546	-0.643363
C171	C	1.610760	0.055454	-0.393363
C172	C	1.860760	0.305454	-0.143363
C173	C	1.016604	-0.580675	-0.893332
C174	C	1.266604	-0.330675	-0.643332
C175	C	1.516604	-0.080675	-0.393332
C176	C	1.766604	0.169325	-0.143332
C177	C	1.016592	-0.580700	-0.816474
C178	C	1.266592	-0.330700	-0.566474
C179	C	1.516592	-0.080700	-0.316474
C180	C	1.766592	0.169300	-0.066474
C181	C	1.063670	-0.512653	-0.778063
C182	C	1.313670	-0.262653	-0.528063
C183	C	1.563670	-0.012653	-0.278063
C184	C	1.813670	0.237347	-0.028063
C185	C	1.063691	-0.512597	-0.931779
C186	C	1.313691	-0.262597	-0.681779
C187	C	1.563691	-0.012597	-0.431779
C188	C	1.813691	0.237403	-0.181779
C189	C	1.063700	-0.512564	-1.015113
C190	C	1.313700	-0.262564	-0.765113
C191	C	1.563700	-0.012564	-0.515113
C192	C	1.813700	0.237436	-0.265113
C193	C	1.063660	-0.512684	-0.694724
C194	C	1.313660	-0.262684	-0.444724
C195	C	1.563660	-0.012684	-0.194724
C196	C	1.813660	0.237316	0.055276
C197	C	1.063585	-0.512809	-0.163341
C198	C	1.313585	-0.262809	0.086659
C199	C	1.563585	-0.012809	0.336659
C200	C	1.813585	0.237191	0.586659
C201	C	1.063709	-0.512541	-0.081542
C202	C	1.313709	-0.262541	0.168458
C203	C	1.563709	-0.012541	0.418458
C204	C	1.813709	0.237459	0.668458
H205	H	0.633694	-0.636465	-0.439801
H206	H	0.883694	-0.386465	-0.189801
H207	H	1.133694	-0.136465	0.060199
H208	H	1.383694	0.113535	0.310199
Cl209	Cl	1.022315	-1.095869	-0.199759
Cl210	Cl	1.272315	-0.845869	0.050241
Cl211	Cl	1.522315	-0.595869	0.300241
Cl212	Cl	1.772315	-0.345869	0.550241
H213	H	0.633661	-0.389175	-0.269302
H214	H	0.883661	-0.139175	-0.019302
H215	H	1.133661	0.110825	0.230698
H216	H	1.383661	0.360825	0.480698
H217	H	0.494219	-0.389190	-0.269297
H218	H	0.744219	-0.139190	-0.019297
H219	H	0.994219	0.110810	0.230703
H220	H	1.244219	0.360810	0.480703
Cl221	Cl	0.957428	-0.666222	-0.941626
Cl222	Cl	1.207428	-0.416222	-0.691626
Cl223	Cl	1.457428	-0.166222	-0.441626
Cl224	Cl	1.707428	0.083778	-0.191626
Cl225	Cl	1.169931	-0.359028	-0.768218
Cl226	Cl	1.419931	-0.109028	-0.518218
Cl227	Cl	1.669931	0.140972	-0.268218
Cl228	Cl	1.919931	0.390972	-0.018218
Cl229	Cl	1.218451	-1.095506	-0.396197
Cl230	Cl	1.468451	-0.845506	-0.146197
Cl231	Cl	1.718451	-0.595506	0.103803
Cl232	Cl	1.968451	-0.345506	0.353803
H233	H	1.149097	-0.389110	-0.924659
H234	H	1.399097	-0.139110	-0.674659
H235	H	1.649097	0.110890	-0.424659
H236	H	1.899097	0.360890	-0.174659
Cl237	Cl	1.177078	-0.928954	-0.241378
Cl238	Cl	1.427078	-0.678954	0.008622
Cl239	Cl	1.677078	-0.428954	0.258622
Cl240	Cl	1.927078	-0.178954	0.508622
Cl241	Cl	1.105137	-0.928902	-0.509451
Cl242	Cl	1.355137	-0.678902	-0.259451
Cl243	Cl	1.605137	-0.428902	-0.009451
Cl244	Cl	1.855137	-0.178902	0.240549
Cl245	Cl	0.957395	-0.666282	-0.768144
Cl246	Cl	1.207395	-0.416282	-0.518144
Cl247	Cl	1.457395	-0.166282	-0.268144
Cl248	Cl	1.707395	0.083718	-0.018144
H249	H	0.972872	-1.078476	-0.445338
H250	H	1.222872	-0.828476	-0.195338
H251	H	1.472872	-0.578476	0.054662
H252	H	1.722872	-0.328476	0.304662
H253	H	0.494267	-0.636481	-0.439811
H254	H	0.744267	-0.386481	-0.189811
H255	H	0.994267	-0.136481	0.060189
H256	H	1.244267	0.113519	0.310189
H257	H	0.939753	-0.945885	-0.321240
H258	H	1.189753	-0.695885	-0.071240
H259	H	1.439753	-0.445885	0.178760
H260	H	1.689753	-0.195885	0.428760
