data_functionalizedCrystal
_audit_creation_method	'MofGen! by Chris Wilmer'
_symmetry_space_group_name_H-M	'P1'
_symmetry_Int_Tables_number	1
_symmetry_cell_setting	triclinic
loop_
_symmetry_equiv_pos_as_xyz
  x,y,z
_cell_length_a	17.640112
_cell_length_b	21.395361
_cell_length_c	21.395356
_cell_angle_alpha	90.028219
_cell_angle_beta	101.171778
_cell_angle_gamma	78.744210
loop_
_atom_site_label
_atom_site_type_symbol
_atom_site_fract_x
_atom_site_fract_y
_atom_site_fract_z
Zn1	Zn	1.208336	0.055602	-0.160935
Zn2	Zn	1.708336	0.555602	0.339065
Zn3	Zn	1.208216	0.160398	-0.056176
Zn4	Zn	1.708216	0.660398	0.443824
Zn5	Zn	1.076152	0.076825	-0.077320
Zn6	Zn	1.576152	0.576825	0.422680
Zn7	Zn	1.076111	0.181559	-0.182052
Zn8	Zn	1.576111	0.681559	0.317948
O9	O	1.142204	0.118596	-0.119121
O10	O	1.642204	0.618596	0.380879
O11	O	1.318926	0.051766	-0.129352
O12	O	1.818926	0.551766	0.370648
O13	O	1.190664	0.149338	0.028692
O14	O	1.690664	0.649338	0.528692
O15	O	1.093754	-0.013679	-0.088423
O16	O	1.593754	0.486321	0.411577
O17	O	1.318838	0.128759	-0.052386
O18	O	1.818838	0.628759	0.447614
O19	O	1.190869	-0.029271	-0.149855
O20	O	1.690869	0.470729	0.350145
O21	O	1.093637	0.087937	0.013157
O22	O	1.593637	0.587937	0.513157
O23	O	0.965540	0.108456	-0.108899
O24	O	1.465540	0.608456	0.391101
O25	O	1.093684	0.164824	-0.266923
O26	O	1.593684	0.664824	0.233077
O27	O	0.965511	0.185403	-0.185845
O28	O	1.465511	0.685403	0.314155
O29	O	1.190830	0.072284	-0.251409
O30	O	1.690830	0.572284	0.248591
O31	O	1.190624	0.250894	-0.072862
O32	O	1.690624	0.750894	0.427138
O33	O	1.093568	0.266440	-0.165342
O34	O	1.593568	0.766440	0.334658
C35	C	0.936847	0.151529	-0.151959
C36	C	1.436847	0.651529	0.348041
C37	C	0.848994	0.165633	-0.166022
C38	C	1.348994	0.665633	0.333978
C39	C	0.560026	0.011438	-0.012290
C40	C	1.060026	0.511438	0.487710
C41	C	0.477475	0.024703	-0.025513
C42	C	0.977475	0.524703	0.474487
C43	C	0.477498	0.104939	-0.105499
C44	C	0.977498	0.604939	0.394501
C45	C	0.560050	0.091678	-0.092285
C46	C	1.060050	0.591678	0.407715
C47	C	0.601308	0.044927	-0.045679
C48	C	1.101308	0.544927	0.454321
C49	C	0.601333	0.125167	-0.125674
C50	C	1.101333	0.625167	0.374326
C51	C	0.683878	0.111909	-0.112458
C52	C	1.183878	0.611909	0.387542
C53	C	0.725141	0.065162	-0.065854
C54	C	1.225141	0.565162	0.434146
C55	C	0.683853	0.031669	-0.032464
C56	C	1.183853	0.531669	0.467536
C57	C	0.560074	0.171921	-0.172276
C58	C	1.060074	0.671921	0.327724
C59	C	0.601356	0.205410	-0.205665
C60	C	1.101356	0.705410	0.294335
C61	C	0.683903	0.192149	-0.192453
C62	C	1.183903	0.692149	0.307547
C63	C	0.725166	0.145402	-0.145848
C64	C	1.225166	0.645402	0.354152
C65	C	0.725191	0.225642	-0.225842
C66	C	1.225191	0.725642	0.274158
C67	C	0.807736	0.212384	-0.212627
C68	C	1.307736	0.712384	0.287373
C69	C	0.807712	0.132144	-0.132633
C70	C	1.307712	0.632144	0.367367
C71	C	1.142100	0.281400	-0.119109
C72	C	1.642100	0.781400	0.380891
C73	C	1.142128	0.351037	-0.119114
C74	C	1.642128	0.851037	0.380886
C75	C	1.142266	0.118547	-0.282534
C76	C	1.642266	0.618547	0.217466
C77	C	1.142292	0.118526	-0.352171
C78	C	1.642292	0.618526	0.147829
C79	C	1.348363	0.085535	-0.086155
C80	C	1.848363	0.585535	0.413845
C81	C	1.436216	0.071446	-0.072107
C82	C	1.936216	0.571446	0.427893
C83	C	1.192710	0.375627	-0.070995
C84	C	1.692710	0.875627	0.429005
C85	C	1.192747	0.441056	-0.071006
C86	C	1.692747	0.941056	0.428994
C87	C	1.142188	0.481896	-0.119131
C88	C	1.642188	0.981896	0.380869
C89	C	1.091602	0.457298	-0.167259
C90	C	1.591602	0.957298	0.332741
C91	C	1.091572	0.391869	-0.167250
C92	C	1.591572	0.891869	0.332750
C93	C	1.071021	0.597027	-0.135432
C94	C	1.571021	1.097027	0.364568
C95	C	1.071050	0.662456	-0.135437
C96	C	1.571050	1.162456	0.364563
C97	C	1.142281	0.683701	-0.119162
C98	C	1.642281	1.183701	0.380838
C99	C	1.213486	0.639511	-0.102869
C100	C	1.713486	1.139511	0.397131
C101	C	1.213456	0.574081	-0.102861
C102	C	1.713456	1.074081	0.397139
C103	C	1.142215	0.552844	-0.119147
C104	C	1.642215	1.052844	0.380853
C105	C	1.192908	0.779237	-0.071052
C106	C	1.692908	1.279237	0.428948
C107	C	1.192946	0.844667	-0.071067
C108	C	1.692946	1.344667	0.428933
C109	C	1.091793	0.860909	-0.167318
C110	C	1.591793	1.360909	0.332682
C111	C	1.091762	0.795479	-0.167305
C112	C	1.591762	1.295479	0.332695
C113	C	1.142318	0.754647	-0.119169
C114	C	1.642318	1.254647	0.380831
C115	C	1.142330	0.955152	-0.119153
C116	C	1.642330	1.455152	0.380847
C117	C	1.142387	0.885502	-0.119194
C118	C	1.642387	1.385502	0.380806
C119	C	1.091784	0.086548	-0.392961
C120	C	1.591784	0.586548	0.107039
C121	C	1.091781	0.086537	-0.458397
C122	C	1.591781	0.586537	0.041603
C123	C	1.142301	0.118495	-0.483038
C124	C	1.642301	0.618495	0.016962
C125	C	1.192813	0.150480	-0.442240
C126	C	1.692813	0.650480	0.057760
C127	C	1.192809	0.150496	-0.376806
C128	C	1.692809	0.650496	0.123194
C129	C	1.213516	0.111996	-0.575331
C130	C	1.713516	0.611996	-0.075331
C131	C	1.213521	0.111976	-0.640763
C132	C	1.713521	0.611976	-0.140763
C133	C	1.142314	0.118451	-0.684857
C134	C	1.642314	0.618451	-0.184857
C135	C	1.071099	0.124933	-0.663511
C136	C	1.571099	0.624933	-0.163511
C137	C	1.071095	0.124948	-0.598078
C138	C	1.571095	0.624948	-0.098078
C139	C	1.142311	0.118482	-0.553989
C140	C	1.642311	0.618482	-0.053989
C141	C	1.091799	0.086459	-0.796601
C142	C	1.591799	0.586459	-0.296601
C143	C	1.091795	0.086453	-0.862038
C144	C	1.591795	0.586453	-0.362038
C145	C	1.192833	0.150391	-0.845878
C146	C	1.692833	0.650391	-0.345878
C147	C	1.192830	0.150402	-0.780443
C148	C	1.692830	0.650402	-0.280443
C149	C	1.142314	0.118433	-0.755808
C150	C	1.642314	0.618433	-0.255808
C151	C	1.142187	0.118592	0.043664
C152	C	1.642187	0.618592	0.543664
C153	C	1.142314	0.118412	0.113325
C154	C	1.642314	0.618412	0.613325
H155	H	0.443866	-0.002576	0.001675
H156	H	0.943866	0.497424	0.501675
H157	H	1.013070	0.698432	-0.148697
H158	H	1.513070	1.198432	0.351303
H159	H	1.050630	0.894159	-0.206506
H160	H	1.550630	1.394159	0.293494
Cl161	Cl	0.859638	0.254487	-0.254601
Cl162	Cl	1.359638	0.754487	0.245399
H163	H	1.050438	0.490554	-0.206444
H164	H	1.550438	0.990554	0.293556
H165	H	0.717448	-0.006409	0.005478
H166	H	1.217448	0.493591	0.505478
H167	H	1.013011	0.579738	-0.148688
H168	H	1.513011	1.079738	0.351312
Cl169	Cl	1.302966	0.518530	-0.082385
Cl170	Cl	1.802966	1.018530	0.417615
H171	H	1.050647	0.060519	-0.372908
H172	H	1.550647	0.560519	0.127092
Cl173	Cl	0.859584	0.073366	-0.074046
Cl174	Cl	1.359584	0.573366	0.425954
H175	H	0.691587	0.263710	-0.263784
H176	H	1.191587	0.763710	0.236216
H177	H	1.233946	0.176501	-0.462307
H178	H	1.733946	0.676501	0.037693
H179	H	0.593620	-0.026641	0.025651
H180	H	1.093620	0.473359	0.525651
Cl181	Cl	1.027977	0.360955	-0.227748
Cl182	Cl	1.527977	0.860955	0.272252
Cl183	Cl	1.256547	0.875579	-0.010572
Cl184	Cl	1.756547	1.375579	0.489428
Cl185	Cl	1.028298	0.046317	-0.509683
Cl186	Cl	1.528298	0.546317	-0.009683
Cl187	Cl	0.828914	0.048497	-0.049236
Cl188	Cl	1.328914	0.548497	0.450764
H189	H	0.443895	0.143005	-0.143443
H190	H	0.943895	0.643005	0.356557
Cl191	Cl	0.549482	0.264187	-0.264244
Cl192	Cl	1.049482	0.764187	0.235756
Cl193	Cl	0.981572	0.133101	-0.571245
Cl194	Cl	1.481572	0.633101	-0.071245
H195	H	1.050665	0.060428	-0.776542
H196	H	1.550665	0.560428	-0.276542
H197	H	1.013116	0.130201	-0.699412
H198	H	1.513116	0.630201	-0.199412
Cl199	Cl	1.256312	0.190699	-0.325524
Cl200	Cl	1.756312	0.690699	0.174476
H201	H	1.233969	0.176411	-0.865940
H202	H	1.733969	0.676411	-0.365940
Cl203	Cl	1.256462	0.727903	-0.010539
Cl204	Cl	1.756462	1.227903	0.489461
Cl205	Cl	1.028270	0.046269	-0.913322
Cl206	Cl	1.528270	0.546269	-0.413322
Cl207	Cl	1.256278	0.324297	-0.010488
Cl208	Cl	1.756278	0.824297	0.489512
Cl209	Cl	0.456301	0.188595	-0.188881
Cl210	Cl	0.956301	0.688595	0.311119
Cl211	Cl	1.256336	0.190600	-0.729161
Cl212	Cl	1.756336	0.690600	-0.229161
H213	H	1.233940	0.461081	-0.031821
H214	H	1.733940	0.961081	0.468179
Cl215	Cl	1.303039	0.666211	-0.082402
Cl216	Cl	1.803039	1.166211	0.417598
H217	H	1.271509	0.106695	-0.658137
H218	H	1.771509	0.606695	-0.158137
H219	H	1.050570	0.775457	-0.206487
H220	H	1.550570	1.275457	0.293513
H221	H	1.271506	0.106718	-0.539432
H222	H	1.771506	0.606718	-0.039432
