data_functionalizedCrystal
_audit_creation_method	'MofGen! by Chris Wilmer'
_symmetry_space_group_name_H-M	'P1'
_symmetry_Int_Tables_number	1
_symmetry_cell_setting	triclinic
loop_
_symmetry_equiv_pos_as_xyz
  x,y,z
_cell_length_a	17.077404
_cell_length_b	21.295417
_cell_length_c	17.077395
_cell_angle_alpha	89.968068
_cell_angle_beta	89.984359
_cell_angle_gamma	90.030732
loop_
_atom_site_label
_atom_site_type_symbol
_atom_site_fract_x
_atom_site_fract_y
_atom_site_fract_z
Zn1	Zn	1.199983	-0.250613	-0.443817
Zn2	Zn	1.199882	-0.355884	-0.312540
Zn3	Zn	1.068724	-0.250633	-0.312565
Zn4	Zn	1.068665	-0.355849	-0.443764
O5	O	1.134314	-0.303245	-0.378171
O6	O	1.309817	-0.264584	-0.426415
O7	O	1.182465	-0.341945	-0.202697
O8	O	1.086203	-0.162541	-0.330008
O9	O	1.309742	-0.341926	-0.329966
O10	O	1.182638	-0.162526	-0.426439
O11	O	1.086104	-0.264618	-0.202715
O12	O	0.958869	-0.264584	-0.329957
O13	O	1.086103	-0.341866	-0.553618
O14	O	0.958826	-0.341885	-0.426348
O15	O	1.182582	-0.264550	-0.553657
O16	O	1.182409	-0.443969	-0.329915
O17	O	1.086005	-0.443943	-0.426324
C18	C	0.930366	-0.303233	-0.378150
C19	C	0.843116	-0.303244	-0.378159
C20	C	1.134211	-0.466796	-0.378128
C21	C	1.134238	-0.536765	-0.378136
C22	C	0.802124	-0.343555	-0.428270
C23	C	0.720143	-0.343557	-0.428282
C24	C	0.679156	-0.303249	-0.378180
C25	C	0.720154	-0.262933	-0.328067
C26	C	0.802133	-0.262929	-0.328059
C27	C	0.549284	-0.262945	-0.328086
C28	C	0.467299	-0.262950	-0.328093
C29	C	0.467294	-0.343573	-0.428309
C30	C	0.549273	-0.343569	-0.428301
C31	C	0.590265	-0.303254	-0.378187
C32	C	1.184481	-0.569624	-0.327987
C33	C	1.184517	-0.635366	-0.328004
C34	C	1.134298	-0.668247	-0.378163
C35	C	1.084052	-0.635380	-0.428321
C36	C	1.084023	-0.569639	-0.428308
N37	N	1.065629	-0.771513	-0.384140
N38	N	1.065659	-0.833964	-0.384148
C39	C	1.134386	-0.866322	-0.378208
N40	N	1.203082	-0.833868	-0.372244
N41	N	1.203051	-0.771411	-0.372231
C42	C	1.134325	-0.739532	-0.378183
C43	C	1.184672	-0.970466	-0.328075
C44	C	1.184710	-1.036210	-0.328098
C45	C	1.084238	-1.036223	-0.428411
C46	C	1.084207	-0.970480	-0.428392
C47	C	1.134423	-0.937606	-0.378220
C48	C	1.339058	-0.303257	-0.378194
C49	C	1.426308	-0.303262	-0.378203
C50	C	1.134347	-0.303202	-0.582916
C51	C	1.134362	-0.303184	-0.670166
C52	C	1.134438	-0.139055	-0.378232
C53	C	1.134491	-0.069086	-0.378258
C54	C	1.184685	-0.262840	-1.046002
C55	C	1.184669	-0.262862	-0.964021
C56	C	1.134426	-0.303124	-0.923015
C57	C	1.084202	-0.343372	-0.963993
C58	C	1.084222	-0.343352	-1.045972
C59	C	1.084161	-0.343408	-0.793123
C60	C	1.084139	-0.343427	-0.711138
C61	C	1.184608	-0.262918	-0.711172
C62	C	1.184628	-0.262898	-0.793151
C63	C	1.134403	-0.303145	-0.834124
C64	C	1.134325	-0.303242	-0.174224
C65	C	1.134463	-0.303083	-0.086974
H66	H	0.686771	-0.376383	-0.469086
H67	H	1.043297	-0.376157	-0.930599
H68	H	0.582643	-0.376395	-0.469094
O69	O	1.035251	-0.537785	-0.477131
C70	C	1.052377	-0.553776	-0.555388
H71	H	1.082574	-0.601485	-0.557056
H72	H	1.092700	-0.516729	-0.581852
C73	C	0.938735	-0.498242	-0.600819
C74	C	0.975817	-0.556842	-0.602869
H75	H	0.891510	-0.500130	-0.630110
H76	H	0.927197	-0.487466	-0.548097
H77	H	0.972345	-0.467376	-0.622872
H78	H	0.942211	-0.587705	-0.580808
H79	H	0.987347	-0.567622	-0.655589
H80	H	1.043327	-0.376123	-1.079331
H81	H	0.686776	-0.230111	-0.287276
H82	H	1.043264	-0.376183	-0.826480
H83	H	0.835508	-0.230100	-0.287258
H84	H	0.433930	-0.230121	-0.287304
H85	H	0.835490	-0.376381	-0.469066
H86	H	0.433915	-0.376398	-0.469116
H87	H	1.225371	-0.542859	-0.287136
O88	O	0.588983	-0.223767	-0.279326
C89	C	0.535230	-0.188184	-0.235115
H90	H	0.476774	-0.213965	-0.232351
H91	H	0.526556	-0.140401	-0.263963
C92	C	0.638992	-0.147370	-0.154979
C93	C	0.567197	-0.179037	-0.151579
H94	H	0.658712	-0.141725	-0.103451
H95	H	0.675208	-0.171341	-0.184767
H96	H	0.631754	-0.107554	-0.179022
H97	H	0.574439	-0.218855	-0.127545
H98	H	0.530984	-0.155073	-0.121785
O99	O	1.035538	-1.068126	-0.477250
C100	C	1.052624	-1.051988	-0.555496
H101	H	1.115323	-1.033868	-0.559511
H102	H	1.010508	-1.013846	-0.575966
C103	C	0.966474	-1.132618	-0.602960
C104	C	1.043484	-1.110367	-0.607893
H105	H	0.960833	-1.168627	-0.635282
H106	H	0.954961	-1.143489	-0.550244
H107	H	0.931386	-1.100827	-0.620017
H108	H	1.078570	-1.142155	-0.590827
H109	H	1.055003	-1.099503	-0.660607
O110	O	1.233347	-0.667197	-0.279210
C111	C	1.277677	-0.624084	-0.234941
H112	H	1.245509	-0.577244	-0.232187
H113	H	1.337276	-0.617037	-0.263732
C114	C	1.328551	-0.707313	-0.154793
C115	C	1.289039	-0.649785	-0.151405
H116	H	1.335563	-0.723167	-0.103266
H117	H	1.298687	-0.736360	-0.184620
H118	H	1.378213	-0.701432	-0.178789
H119	H	1.239374	-0.655668	-0.127419
H120	H	1.318895	-0.620740	-0.121573
O121	O	1.035377	-0.667387	-0.477083
C122	C	1.080054	-0.705343	-0.527842
H123	H	1.139564	-0.715164	-0.500212
H124	H	1.088632	-0.679968	-0.586017
C125	C	0.963793	-0.755750	-0.575963
C126	C	1.036881	-0.767817	-0.542024
H127	H	0.937160	-0.794286	-0.584714
H128	H	0.933692	-0.730177	-0.541768
H129	H	0.970951	-0.734603	-0.624438
H130	H	1.029721	-0.788957	-0.493545
H131	H	1.066979	-0.793395	-0.576211
O132	O	1.233417	-0.223747	-1.085954
C133	C	1.222681	-0.232368	-1.167097
H134	H	1.162088	-0.252975	-1.178287
H135	H	1.269220	-0.265889	-1.190352
C136	C	1.304359	-0.143355	-1.195461
C137	C	1.229935	-0.168661	-1.209205
H138	H	1.308837	-0.104058	-1.221437
H139	H	1.311594	-0.137548	-1.140794
H140	H	1.343133	-0.171295	-1.214841
H141	H	1.191162	-0.140724	-1.189818
H142	H	1.222693	-0.174461	-1.263871
O143	O	1.233526	-0.938625	-0.279319
C144	C	1.277871	-0.981729	-0.235048
H145	H	1.280595	-1.028569	-0.267217
H146	H	1.249165	-0.988781	-0.175408
C147	C	1.358063	-0.898483	-0.184290
C148	C	1.361414	-0.956012	-0.223803
H149	H	1.409595	-0.882620	-0.177350
H150	H	1.328185	-0.869443	-0.214114
H151	H	1.334138	-0.904368	-0.134594
H152	H	1.385330	-0.950125	-0.273502
H153	H	1.391298	-0.985051	-0.193988
H154	H	1.225628	-1.062963	-0.287263
H155	H	1.043292	-0.943724	-0.469225
O156	O	1.233478	-0.223709	-0.924343
C157	C	1.277837	-0.188176	-0.978115
H158	H	1.245698	-0.185981	-1.036551
H159	H	1.337439	-0.211229	-0.986831
C160	C	1.328667	-0.123884	-0.874370
C161	C	1.289191	-0.121183	-0.946141
H162	H	1.335674	-0.082560	-0.854647
H163	H	1.298784	-0.147824	-0.838142
H164	H	1.378331	-0.143097	-0.881643
H165	H	1.239524	-0.101978	-0.938865
H166	H	1.319066	-0.097238	-0.982367
H167	H	1.225537	-0.230110	-0.826537
H168	H	1.225502	-0.230146	-0.677809
H169	H	1.043209	-0.376198	-0.677753
