data_functionalizedCrystal
_audit_creation_method	'MofGen! by Chris Wilmer'
_symmetry_space_group_name_H-M	'P1'
_symmetry_Int_Tables_number	1
_symmetry_cell_setting	triclinic
loop_
_symmetry_equiv_pos_as_xyz
  x,y,z
_cell_length_a	19.188929
_cell_length_b	19.188928
_cell_length_c	12.503552
_cell_angle_alpha	86.472133
_cell_angle_beta	93.485982
_cell_angle_gamma	83.144291
loop_
_atom_site_label
_atom_site_type_symbol
_atom_site_fract_x
_atom_site_fract_y
_atom_site_fract_z
O1	O	-0.083090	-0.930210	0.089787
O2	O	0.250243	-0.596877	0.423120
O3	O	0.583576	-0.263544	0.756454
O4	O	-0.094830	-0.726895	0.089705
O5	O	0.238503	-0.393562	0.423038
O6	O	0.571837	-0.060228	0.756371
O7	O	0.012693	-0.834417	0.089682
O8	O	0.346026	-0.501083	0.423015
O9	O	0.679359	-0.167750	0.756348
O10	O	-0.190613	-0.822688	0.089810
O11	O	0.142720	-0.489355	0.423143
O12	O	0.476054	-0.156022	0.756477
O13	O	0.004599	-0.826321	-0.088959
O14	O	0.337933	-0.492988	0.244374
O15	O	0.671266	-0.159655	0.577708
O16	O	-0.102923	-0.718799	-0.088936
O17	O	0.230410	-0.385466	0.244397
O18	O	0.563743	-0.052133	0.577731
O19	O	-0.091184	-0.922115	-0.088854
O20	O	0.242150	-0.588781	0.244479
O21	O	0.575483	-0.255448	0.577813
Cu22	Cu	-0.097793	-0.819718	-0.105206
Cu23	Cu	0.235541	-0.486384	0.228127
Cu24	Cu	0.568874	-0.153051	0.561460
Cu25	Cu	-0.088221	-0.829292	0.106057
Cu26	Cu	0.245112	-0.495958	0.439390
Cu27	Cu	0.578446	-0.162625	0.772724
O28	O	-0.198706	-0.814593	-0.088831
O29	O	0.134627	-0.481259	0.244502
O30	O	0.467960	-0.147926	0.577836
C31	C	-0.098497	-0.696836	0.000373
C32	C	0.234836	-0.363502	0.333706
C33	C	0.568169	-0.030169	0.667039
C34	C	-0.097359	-0.619329	0.000338
C35	C	0.235974	-0.285996	0.333671
C36	C	0.569308	0.047337	0.667005
C37	C	-0.160448	-0.574408	0.000391
C38	C	0.172886	-0.241075	0.333725
C39	C	0.506219	0.092259	0.667058
C40	C	-0.159376	-0.501584	0.000397
C41	C	0.173957	-0.168251	0.333730
C42	C	0.507290	0.165082	0.667064
C43	C	-0.095212	-0.473686	0.000371
C44	C	0.238122	-0.140353	0.333704
C45	C	0.571455	0.192980	0.667037
C46	C	-0.032115	-0.518618	0.000311
C47	C	0.301218	-0.185284	0.333644
C48	C	0.634552	0.148049	0.666978
C49	C	-0.033189	-0.591439	0.000295
C50	C	0.300145	-0.258106	0.333628
C51	C	0.633478	0.075228	0.666961
N52	N	-0.043411	-0.368462	0.061174
N53	N	0.289922	-0.035128	0.394507
N54	N	0.623256	0.298205	0.727841
N55	N	-0.042395	-0.299284	0.061192
N56	N	0.290938	0.034050	0.394525
N57	N	0.624271	0.367383	0.727858
C58	C	-0.091973	-0.254280	0.000418
C59	C	0.241360	0.079054	0.333751
C60	C	0.574693	0.412387	0.667084
N61	N	-0.142616	-0.281066	-0.060361
N62	N	0.190718	0.052267	0.272972
N63	N	0.524051	0.385601	0.606305
N64	N	-0.143633	-0.350250	-0.060374
N65	N	0.189700	-0.016917	0.272959
N66	N	0.523034	0.316416	0.606292
C67	C	-0.094041	-0.394725	0.000388
C68	C	0.239293	-0.061391	0.333721
C69	C	0.572626	0.271942	0.667054
C70	C	-0.153905	-0.130394	0.000476
C71	C	0.179428	0.202940	0.333809
C72	C	0.512762	0.536273	0.667142
C73	C	-0.152831	-0.057569	0.000475
C74	C	0.180502	0.275765	0.333808
C75	C	0.513835	0.609098	0.667141
C76	C	-0.025568	-0.074604	0.000400
C77	C	0.307766	0.258729	0.333733
C78	C	0.641099	0.592062	0.667066
C79	C	-0.026644	-0.147427	0.000390
C80	C	0.306690	0.185906	0.333723
C81	C	0.640023	0.519240	0.667057
C82	C	-0.090814	-0.175317	0.000433
C83	C	0.242519	0.158016	0.333766
C84	C	0.575853	0.491349	0.667100
C85	C	-0.220670	-0.819021	0.000507
C86	C	0.112663	-0.485688	0.333840
C87	C	0.445997	-0.152355	0.667173
C88	C	-0.298172	-0.820164	0.000558
C89	C	0.035161	-0.486831	0.333892
C90	C	0.368495	-0.153498	0.667225
C91	C	-0.343099	-0.757071	0.000511
C92	C	-0.009765	-0.423738	0.333844
C93	C	0.323568	-0.090405	0.667178
C94	C	-0.415923	-0.758142	0.000487
C95	C	-0.082590	-0.424809	0.333821
C96	C	0.250743	-0.091475	0.667154
C97	C	-0.443819	-0.822308	0.000489
C98	C	-0.110486	-0.488975	0.333822
C99	C	0.222847	-0.155641	0.667156
C100	C	-0.398883	-0.885410	0.000542
C101	C	-0.065549	-0.552076	0.333876
C102	C	0.267784	-0.218743	0.667209
C103	C	-0.326059	-0.884338	0.000577
C104	C	0.007274	-0.551005	0.333910
C105	C	0.340608	-0.217671	0.667244
N106	N	-0.554544	-0.868598	-0.060354
N107	N	-0.221211	-0.535264	0.272979
N108	N	0.112123	-0.201931	0.606312
N109	N	-0.623724	-0.869612	-0.060389
N110	N	-0.290391	-0.536278	0.272944
N111	N	0.042942	-0.202945	0.606277
C112	C	-0.663233	-0.825542	0.000387
C113	C	-0.329899	-0.492208	0.333720
C114	C	0.003434	-0.158875	0.667054
N115	N	-0.630950	-0.780408	0.061187
N116	N	-0.297616	-0.447075	0.394520
N117	N	0.035717	-0.113742	0.727853
N118	N	-0.561763	-0.779392	0.061217
N119	N	-0.228430	-0.446059	0.394550
N120	N	0.104903	-0.112726	0.727884
C121	C	-0.522784	-0.823478	0.000452
C122	C	-0.189450	-0.490144	0.333786
C123	C	0.143883	-0.156811	0.667119
C124	C	-0.787125	-0.763605	0.000316
C125	C	-0.453791	-0.430272	0.333649
C126	C	-0.120458	-0.096938	0.666982
C127	C	-0.859950	-0.764679	0.000298
C128	C	-0.526617	-0.431345	0.333632
C129	C	-0.193284	-0.098012	0.666965
C130	C	-0.842908	-0.891948	0.000343
C131	C	-0.509575	-0.558615	0.333676
C132	C	-0.176242	-0.225281	0.667009
C133	C	-0.770084	-0.890873	0.000371
C134	C	-0.436751	-0.557540	0.333704
C135	C	-0.103417	-0.224206	0.667037
C136	C	-0.742197	-0.826700	0.000352
C137	C	-0.408864	-0.493366	0.333685
C138	C	-0.075530	-0.160033	0.667019
C139	C	0.034656	-0.829988	0.000346
C140	C	0.367990	-0.496655	0.333680
C141	C	0.701323	-0.163322	0.667013
C142	C	0.112159	-0.828846	0.000302
C143	C	0.445492	-0.495512	0.333635
C144	C	0.778826	-0.162179	0.666969
N145	N	-0.104524	-0.812989	-0.253798
N146	N	0.228809	-0.479656	0.079536
N147	N	0.562143	-0.146322	0.412869
C148	C	-0.087519	0.047827	0.000462
C149	C	0.245814	0.381160	0.333795
C150	C	0.579148	0.714494	0.667128
C151	C	-0.088666	-0.029676	0.000447
C152	C	0.244667	0.303657	0.333780
C153	C	0.578000	0.636991	0.667113
C154	C	-0.071579	-0.845921	-0.526238
C155	C	0.261754	-0.512587	-0.192904
C156	C	0.595087	-0.179254	0.140429
C157	C	-0.114426	-0.803097	-0.472905
C158	C	0.218907	-0.469763	-0.139571
C159	C	0.552240	-0.136430	0.193762
C160	C	-0.108915	-0.808602	-0.350982
C161	C	0.224418	-0.475269	-0.017649
C162	C	0.557751	-0.141936	0.315685
C163	C	-0.077090	-0.840416	-0.648171
C164	C	0.256244	-0.507083	-0.314838
C165	C	0.589577	-0.173749	0.018495
N166	N	-0.081484	-0.836026	0.254648
N167	N	0.251849	-0.502693	0.587982
N168	N	0.585183	-0.169359	0.921315
H169	H	-0.212700	-0.597111	0.000429
H170	H	0.120633	-0.263778	0.333762
H171	H	0.453966	0.069556	0.667095
Br172	Br	0.058982	-0.208397	0.000320
Br173	Br	0.392315	0.124937	0.333653
Br174	Br	0.725649	0.458270	0.666987
H175	H	0.026680	-0.051894	0.000445
H176	H	0.360013	0.281440	0.333778
H177	H	0.693346	0.614773	0.667111
H178	H	-0.155248	-0.762300	-0.518812
H179	H	0.178085	-0.428966	-0.185478
H180	H	0.511418	-0.095633	0.147855
H181	H	-0.210753	-0.465002	0.000437
H182	H	0.122581	-0.131669	0.333771
H183	H	0.455914	0.201665	0.667104
H184	H	-0.733504	-0.942250	0.000402
H185	H	-0.400170	-0.608917	0.333735
H186	H	-0.066837	-0.275583	0.667069
Br187	Br	-0.880758	-0.979033	0.000361
Br188	Br	-0.547425	-0.645700	0.333695
Br189	Br	-0.214092	-0.312367	0.667028
H190	H	-0.030761	-0.886716	-0.480336
H191	H	0.302572	-0.553383	-0.147003
H192	H	0.635906	-0.220049	0.186331
Br193	Br	-0.749273	-0.676515	0.000293
Br194	Br	-0.415940	-0.343182	0.333627
Br195	Br	-0.082607	-0.009849	0.666960
Br196	Br	0.052439	-0.652408	0.000220
Br197	Br	0.385772	-0.319075	0.333553
Br198	Br	0.719105	0.014258	0.666886
H199	H	-0.206157	-0.153102	0.000495
H200	H	0.127176	0.180231	0.333828
H201	H	0.460510	0.513564	0.667162
Br202	Br	0.054966	-0.480758	0.000264
Br203	Br	0.388299	-0.147425	0.333598
Br204	Br	0.721633	0.185909	0.666931
H205	H	-0.320398	-0.704817	0.000505
H206	H	0.012936	-0.371483	0.333839
H207	H	0.346269	-0.038150	0.667172
Br208	Br	-0.238460	0.003400	0.000538
Br209	Br	0.094873	0.336733	0.333871
Br210	Br	0.428206	0.670066	0.667204
Br211	Br	-0.436739	-0.972494	0.000556
Br212	Br	-0.103405	-0.639161	0.333890
Br213	Br	0.229928	-0.305827	0.667223
Br214	Br	-0.476907	-0.672510	0.000421
Br215	Br	-0.143574	-0.339176	0.333754
Br216	Br	0.189759	-0.005843	0.667088
H217	H	-0.289479	-0.935718	0.000616
H218	H	0.043854	-0.602384	0.333950
H219	H	0.377188	-0.269051	0.667283
H220	H	-0.896529	-0.713299	0.000267
H221	H	-0.563196	-0.379966	0.333601
H222	H	-0.229863	-0.046632	0.666934
