data_functionalizedCrystal
_audit_creation_method	'MofGen! by Chris Wilmer'
_symmetry_space_group_name_H-M	'P1'
_symmetry_Int_Tables_number	1
_symmetry_cell_setting	triclinic
loop_
_symmetry_equiv_pos_as_xyz
  x,y,z
_cell_length_a	14.971487
_cell_length_b	16.176319
_cell_length_c	14.971486
_cell_angle_alpha	90.000806
_cell_angle_beta	96.385734
_cell_angle_gamma	89.998757
loop_
_atom_site_label
_atom_site_type_symbol
_atom_site_fract_x
_atom_site_fract_y
_atom_site_fract_z
O1	O	-1.186949	0.068629	0.116560
O2	O	-0.926549	0.068656	0.130518
O3	O	-1.063728	0.068636	-0.006661
O4	O	-1.049769	0.068649	0.253739
O5	O	-1.063707	-0.068857	-0.006654
O6	O	-0.926528	-0.068837	0.130525
O7	O	-1.186928	-0.068865	0.116567
Cu8	Cu	-1.056726	-0.081405	0.123547
Cu9	Cu	-1.056751	0.081197	0.123538
O10	O	-1.049749	-0.068844	0.253746
C11	C	-0.893214	-0.000087	0.129897
C12	C	-0.793917	-0.000076	0.128026
C13	C	-0.736691	-0.000072	0.208615
C14	C	-0.643392	-0.000083	0.206852
C15	C	-0.607320	-0.000092	0.124499
C16	C	-0.664552	-0.000098	0.043903
C17	C	-0.757850	-0.000093	0.045668
C18	C	-0.470090	-0.000106	0.040232
C19	C	-0.376786	-0.000109	0.038467
C20	C	-0.355632	-0.000095	0.201416
C21	C	-0.448929	-0.000091	0.203181
C22	C	-0.506156	-0.000096	0.122585
N23	N	-1.056715	-0.195770	0.123553
C24	C	-1.063094	-0.000110	-0.039982
C25	C	-1.061223	-0.000110	-0.139279
C26	C	-0.220263	-0.000115	0.117187
C27	C	-0.319560	-0.000105	0.119056
C28	C	-1.117519	-0.761162	0.062804
C29	C	-1.117515	-0.674615	0.062810
C30	C	-1.056756	-0.631346	0.123534
C31	C	-0.996002	-0.674628	0.184261
C32	C	-0.996011	-0.761173	0.184259
C33	C	-0.995966	-0.325600	0.184274
C34	C	-0.995960	-0.239048	0.184270
C35	C	-1.117470	-0.239041	0.062826
C36	C	-1.117479	-0.325586	0.062823
C37	C	-1.056729	-0.368861	0.123553
C38	C	-1.056735	-0.462705	0.123547
C39	C	-1.056745	-0.537503	0.123537
N40	N	-1.056768	0.195562	0.123525
C41	C	-1.141812	-0.000119	-0.196504
C42	C	-1.140049	-0.000110	-0.289804
C43	C	-1.057696	-0.000098	-0.325876
C44	C	-0.977100	-0.000087	-0.268644
C45	C	-0.978864	-0.000089	-0.175346
C46	C	-0.973429	-0.000083	-0.463106
C47	C	-0.971665	-0.000082	-0.556411
C48	C	-1.134614	-0.000104	-0.577564
C49	C	-1.136378	-0.000107	-0.484266
C50	C	-1.055782	-0.000097	-0.427040
C51	C	-1.050383	-0.000096	0.287067
C52	C	-1.052254	-0.000092	0.386364
H53	H	-0.635175	-0.000117	-0.023150
Cl54	Cl	-0.571455	-0.000073	0.308169
Cl55	Cl	-1.193862	-0.379979	-0.013520
H56	H	-0.347419	-0.000117	-0.028592
Cl57	Cl	-0.877548	-0.000075	-0.103405
Cl58	Cl	-1.193890	-0.620209	-0.013525
Cl59	Cl	-0.872107	-0.000070	-0.391166
Cl60	Cl	-0.782029	-0.000056	0.312151
Cl61	Cl	-0.873570	-0.000062	-0.313992
H62	H	-0.804443	-0.000096	-0.019956
H63	H	-0.946499	-0.360827	0.233721
Cl64	Cl	-0.919621	-0.620234	0.260605
H65	H	-1.200238	-0.000110	-0.624162
Cl66	Cl	-1.193847	-0.184634	-0.013520
Cl67	Cl	-0.919571	-0.184653	0.260615
H68	H	-0.904606	-0.000086	-0.585777
H69	H	-0.516682	-0.000111	-0.025398
Cl70	Cl	-1.193903	-0.815548	-0.013543
Cl71	Cl	-0.919638	-0.815577	0.260601
Cl72	Cl	-1.245348	-0.000142	-0.151166
H73	H	-1.205673	-0.000119	-0.336394
H74	H	-0.478296	-0.000076	0.270240
Cl75	Cl	-0.283691	-0.000091	0.302737
Cl76	Cl	-1.239909	-0.000117	-0.438919
