data_functionalizedCrystal
_audit_creation_method	'MofGen! by Chris Wilmer'
_symmetry_space_group_name_H-M	'P1'
_symmetry_Int_Tables_number	1
_symmetry_cell_setting	triclinic
loop_
_symmetry_equiv_pos_as_xyz
  x,y,z
_cell_length_a	10.654550
_cell_length_b	14.519709
_cell_length_c	9.130313
_cell_angle_alpha	89.997798
_cell_angle_beta	89.996220
_cell_angle_gamma	84.082524
loop_
_atom_site_label
_atom_site_type_symbol
_atom_site_fract_x
_atom_site_fract_y
_atom_site_fract_z
O1	O	1.666589	0.129528	-0.121923
O2	O	1.300991	0.141869	-0.121900
O3	O	1.493483	0.001510	-0.121899
O4	O	1.474097	0.269887	-0.121924
O5	O	1.493481	0.001514	0.121700
O6	O	1.300989	0.141873	0.121699
O7	O	1.666586	0.129532	0.121676
Cu8	Cu	1.483787	0.135703	0.143930
Cu9	Cu	1.483790	0.135698	-0.144154
O10	O	1.474094	0.269891	0.121675
C11	C	1.254201	0.140965	-0.000098
C12	C	1.114784	0.138254	-0.000088
C13	C	1.034504	0.220895	-0.000117
C14	C	0.903507	0.218342	-0.000143
C15	C	0.933085	0.050500	-0.000116
C16	C	1.064078	0.053054	-0.000080
C17	C	1.085209	0.306095	-0.000126
C18	C	1.004928	0.388743	-0.000157
C19	C	0.873931	0.386190	-0.000182
C20	C	0.823217	0.300989	-0.000176
C21	C	1.492579	-0.032852	-0.000099
C22	C	1.489871	-0.135247	-0.000098
C23	C	1.479904	-0.510195	-0.000136
C24	C	1.482672	-0.405873	-0.000125
C25	C	1.484887	-0.322725	-0.000116
C26	C	1.487656	-0.218396	-0.000108
C27	C	1.713377	0.130436	-0.000130
C28	C	1.852794	0.133147	-0.000149
C29	C	1.474999	0.304253	-0.000128
C30	C	1.477707	0.406648	-0.000139
N31	N	1.483795	0.135705	0.346552
N32	N	1.483793	0.135688	-0.346777
C33	C	1.569052	0.073576	0.423205
C34	C	1.569048	0.073565	0.576542
C35	C	1.398527	0.197821	0.576560
C36	C	1.398525	0.197827	0.423226
C37	C	1.654321	0.011454	0.346531
C38	C	1.739586	-0.050679	0.423184
C39	C	1.739583	-0.050691	0.576520
C40	C	1.654315	0.011432	0.653205
H41	H	1.046228	0.458110	-0.000149
O42	O	0.883884	-0.032281	0.000134
C43	C	0.869103	-0.176541	0.126281
C44	C	0.924879	-0.082813	0.126208
H45	H	0.902248	-0.217430	0.228185
H46	H	0.761683	-0.164225	0.126340
H47	H	0.902159	-0.217382	0.024299
H48	H	0.891921	-0.041923	0.228173
H49	H	1.032294	-0.095194	0.126073
H50	H	1.329100	0.248417	0.360815
H51	H	1.191871	0.308183	-0.000112
H52	H	1.129445	-0.014240	-0.000060
H53	H	1.809000	-0.101288	0.638929
O54	O	1.315536	0.258073	0.650983
C55	C	1.097300	0.310654	0.697866
C56	C	1.191146	0.242349	0.613519
H57	H	0.996711	0.297978	0.667583
H58	H	1.111840	0.299977	0.820642
H59	H	1.113885	0.384628	0.667738
H60	H	1.174618	0.168348	0.643523
H61	H	1.176583	0.253107	0.490763
O62	O	1.822455	-0.111113	0.348927
C63	C	1.991637	-0.234323	0.365094
C64	C	1.897836	-0.165944	0.449367
H65	H	2.052625	-0.278659	0.446263
H66	H	1.937390	-0.280826	0.293343
H67	H	2.054401	-0.194053	0.293270
H68	H	1.835049	-0.206139	0.521270
H69	H	1.952162	-0.119441	0.521025
O70	O	1.654507	0.011321	0.802157
C71	C	1.747998	-0.056922	1.022188
C72	C	1.747933	-0.056880	0.853507
H73	H	1.823507	-0.112069	1.063756
H74	H	1.768846	0.013921	1.063915
H75	H	1.651610	-0.072688	1.063773
H76	H	1.844294	-0.041152	0.811798
H77	H	1.727015	-0.127728	0.811880
O78	O	0.796124	0.466555	-0.000269
C79	C	0.780621	0.633300	-0.000213
C80	C	0.868877	0.542354	-0.000139
H81	H	0.839406	0.694608	-0.000076
H82	H	0.718600	0.636360	-0.102196
H83	H	0.718505	0.636256	0.101695
H84	H	0.931072	0.539337	-0.101977
H85	H	0.930812	0.539332	0.101913
H86	H	0.716549	0.298917	-0.000174
H87	H	1.654334	0.011460	0.221677
