data_functionalizedCrystal
_audit_creation_method	'MofGen! by Chris Wilmer'
_symmetry_space_group_name_H-M	'P1'
_symmetry_Int_Tables_number	1
_symmetry_cell_setting	triclinic
loop_
_symmetry_equiv_pos_as_xyz
  x,y,z
_cell_length_a	10.868271
_cell_length_b	17.699083
_cell_length_c	17.699083
_cell_angle_alpha	83.283015
_cell_angle_beta	90.006025
_cell_angle_gamma	89.998288
loop_
_atom_site_label
_atom_site_type_symbol
_atom_site_fract_x
_atom_site_fract_y
_atom_site_fract_z
O1	O	-0.102152	-1.004076	-0.095712
O2	O	0.397848	-0.504076	0.404288
O3	O	-0.102193	-0.783697	-0.108164
O4	O	0.397807	-0.283697	0.391836
O5	O	-0.102161	-0.900113	0.008251
O6	O	0.397839	-0.400113	0.508251
O7	O	-0.102185	-0.887660	-0.212127
O8	O	0.397815	-0.387660	0.287873
O9	O	0.102484	-0.900103	0.008256
O10	O	0.602484	-0.400103	0.508256
O11	O	0.102452	-0.783688	-0.108160
O12	O	0.602452	-0.283688	0.391840
O13	O	0.102492	-1.004066	-0.095707
O14	O	0.602492	-0.504066	0.404293
Zn15	Zn	0.134964	-0.893875	-0.101933
Zn16	Zn	0.634964	-0.393875	0.398067
Zn17	Zn	-0.134664	-0.893888	-0.101939
Zn18	Zn	0.365336	-0.393888	0.398061
O19	O	0.102460	-0.887651	-0.212123
O20	O	0.602460	-0.387651	0.287877
C21	C	0.000124	-0.755495	-0.107716
C22	C	0.500124	-0.255495	0.392284
C23	C	0.000109	-0.671477	-0.106377
C24	C	0.500109	-0.171477	0.393623
N25	N	0.318978	-0.893872	-0.101928
N26	N	0.818978	-0.393872	0.398072
N27	N	-0.318678	-0.893897	-0.101937
N28	N	0.181322	-0.393897	0.398063
C29	C	0.569984	-0.893884	-0.101937
C30	C	1.069984	-0.393884	0.398063
C31	C	0.430306	-0.893875	-0.101934
C32	C	0.930306	-0.393875	0.398066
C33	C	0.000162	-0.899662	0.036451
C34	C	0.500162	-0.399662	0.536451
C35	C	0.000162	-0.898323	0.120469
C36	C	0.500162	-0.398323	0.620469
C37	C	0.000173	-1.032268	-0.096156
C38	C	0.500173	-0.532268	0.403844
C39	C	0.000180	-1.116286	-0.097494
C40	C	0.500180	-0.616286	0.402506
C41	C	0.000102	-0.622856	-0.174710
C42	C	0.500102	-0.122856	0.325290
C43	C	0.000118	-0.543913	-0.173448
C44	C	0.500118	-0.043913	0.326552
C45	C	0.000133	-0.513592	-0.103852
C46	C	0.500133	-0.013592	0.396148
C47	C	0.000143	-0.562219	-0.035513
C48	C	0.500143	-0.062219	0.464487
C49	C	0.000136	-0.641161	-0.036776
C50	C	0.500136	-0.141161	0.463224
C51	C	0.000174	-0.243856	-0.030418
C52	C	0.500174	0.256144	0.469582
C53	C	0.000178	-0.164908	-0.029160
C54	C	0.500178	0.335092	0.470840
C55	C	0.000156	-0.146608	-0.167090
C56	C	0.500156	0.353392	0.332910
C57	C	0.000149	-0.225550	-0.168353
C58	C	0.500149	0.274450	0.331647
C59	C	0.000166	-0.274170	-0.100015
C60	C	0.500166	0.225830	0.399985
C61	C	0.000151	-0.359769	-0.101384
C62	C	0.500151	0.140231	0.398616
C63	C	0.000139	-0.427995	-0.102481
C64	C	0.500139	0.072005	0.397519
C65	C	0.000135	-0.888102	-0.240322
C66	C	0.500135	-0.388102	0.259678
C67	C	0.000127	-0.889440	-0.324340
C68	C	0.500127	-0.389440	0.175660
C69	C	0.000176	-0.966656	0.169090
C70	C	0.500176	-0.466656	0.669090
C71	C	0.000165	-0.965394	0.248033
C72	C	0.500165	-0.465394	0.748033
C73	C	0.000149	-0.895798	0.278354
C74	C	0.500149	-0.395798	0.778354
C75	C	0.000131	-0.827459	0.229727
C76	C	0.500131	-0.327459	0.729727
C77	C	0.000133	-0.828722	0.150785
C78	C	0.500133	-0.328722	0.650785
C79	C	0.000120	-0.822364	0.548090
C80	C	0.500120	-0.322364	1.048090
C81	C	0.000121	-0.821106	0.627038
C82	C	0.500121	-0.321106	1.127038
C83	C	0.000152	-0.959036	0.645338
C84	C	0.500152	-0.459036	1.145338
C85	C	0.000154	-0.960299	0.566396
C86	C	0.500154	-0.460299	1.066396
C87	C	0.000130	-0.891961	0.517776
C88	C	0.500130	-0.391961	1.017776
C89	C	0.000140	-0.893330	0.432177
C90	C	0.500140	-0.393330	0.932177
C91	C	0.000148	-0.894427	0.363951
C92	C	0.500148	-0.394427	0.863951
H93	H	0.000111	-0.504328	-0.229092
H94	H	0.500111	-0.004328	0.270908
O95	O	0.000169	-0.759918	0.259304
O96	O	0.500169	-0.259918	0.759304
C97	C	0.000143	-0.773455	0.339406
C98	C	0.500143	-0.273455	0.839406
H99	H	0.038898	-0.832551	0.358056
H100	H	0.538898	-0.332551	0.858056
H101	H	0.059549	-0.728926	0.363565
H102	H	0.559549	-0.228926	0.863565
H103	H	-0.098035	-0.769832	0.361369
H104	H	0.401965	-0.269832	0.861369
H105	H	0.000110	-0.764429	0.651721
H106	H	0.500110	-0.264429	1.151721
O107	O	0.000378	-1.025442	0.692538
O108	O	0.500378	-0.525442	1.192538
C109	C	0.106362	-1.067708	0.678811
C110	C	0.606362	-0.567708	1.178811
H111	H	0.180434	-1.027696	0.651763
H112	H	0.680434	-0.527696	1.151763
H113	H	0.141939	-1.098161	0.734880
H114	H	0.641939	-0.598161	1.234880
H115	H	0.082414	-1.111442	0.638690
H116	H	0.582414	-0.611442	1.138690
H117	H	0.000173	-0.537526	0.021154
H118	H	0.500173	-0.037526	0.521154
O119	O	-0.000031	-0.254909	-0.236008
O120	O	0.499969	0.245091	0.263992
C121	C	-0.106037	-0.230057	-0.277648
C122	C	0.393963	0.269943	0.222352
H123	H	-0.141364	-0.175343	-0.257118
H124	H	0.358636	0.324657	0.242882
H125	H	-0.082208	-0.218980	-0.340696
H126	H	0.417792	0.281020	0.159304
H127	H	-0.180257	-0.275751	-0.268803
H128	H	0.319743	0.224249	0.231197
O129	O	0.000363	-0.135364	0.038403
O130	O	0.500363	0.364636	0.538403
C131	C	0.106367	-0.090265	0.043261
C132	C	0.606367	0.409735	0.543261
H133	H	0.141687	-0.070498	-0.016431
H134	H	0.641687	0.429502	0.483569
H135	H	0.082538	-0.038623	0.073334
H136	H	0.582538	0.461377	0.573334
H137	H	0.180592	-0.125204	0.076809
H138	H	0.680592	0.374796	0.576809
O139	O	0.000242	-1.031843	0.295155
O140	O	0.500242	-0.531843	0.795155
C141	C	0.000238	-1.093541	0.251465
C142	C	0.500238	-0.593541	0.751465
H143	H	0.038977	-1.074217	0.192513
H144	H	0.538977	-0.574217	0.692513
H145	H	0.059668	-1.141404	0.280679
H146	H	0.559668	-0.641404	0.780679
H147	H	-0.097932	-1.114892	0.245877
H148	H	0.402068	-0.614892	0.745877
H149	H	0.000141	-0.680748	0.018868
H150	H	0.500141	-0.180748	0.518868
H151	H	0.000149	-0.107012	-0.222734
H152	H	0.500149	0.392988	0.277266
H153	H	0.000121	-0.773078	0.111198
H154	H	0.500121	-0.273078	0.611198
H155	H	0.000189	-0.283434	0.025228
H156	H	0.500189	0.216566	0.525228
O157	O	0.000028	-1.034216	0.139549
O158	O	0.500028	-0.534216	0.639549
C159	C	-0.105973	-1.039085	0.094442
C160	C	0.394027	-0.539085	0.594442
H161	H	-0.141317	-0.979397	0.074666
H162	H	0.358683	-0.479397	0.574666
H163	H	-0.082131	-1.069162	0.042806
H164	H	0.417869	-0.569162	0.542806
H165	H	-0.180186	-1.072634	0.129377
H166	H	0.319814	-0.572634	0.629377
H167	H	0.000174	-1.016971	0.541714
H168	H	0.500174	-0.516971	1.041714
O169	O	-0.000054	-0.755931	0.500946
O170	O	0.499946	-0.255931	1.000946
C171	C	-0.106061	-0.713679	0.514654
C172	C	0.393939	-0.213679	1.014654
H173	H	-0.141396	-0.732381	0.574569
H174	H	0.358604	-0.232381	1.074569
H175	H	-0.082230	-0.650544	0.508993
H176	H	0.417770	-0.150544	1.008993
H177	H	-0.180275	-0.723944	0.471486
H178	H	0.319725	-0.223944	0.971486
O179	O	0.000141	-0.652181	-0.242384
O180	O	0.500141	-0.152181	0.257616
C181	C	0.000109	-0.592334	-0.302425
C182	C	0.500109	-0.092334	0.197575
H183	H	0.038861	-0.538748	-0.281304
H184	H	0.538861	-0.038748	0.218696
H185	H	0.059515	-0.608744	-0.351024
H186	H	0.559515	-0.108744	0.148976
H187	H	-0.098071	-0.581118	-0.323499
H188	H	0.401929	-0.081118	0.176501
