data_functionalizedCrystal
_audit_creation_method	'MofGen! by Chris Wilmer'
_symmetry_space_group_name_H-M	'P1'
_symmetry_Int_Tables_number	1
_symmetry_cell_setting	triclinic
loop_
_symmetry_equiv_pos_as_xyz
  x,y,z
_cell_length_a	12.645331
_cell_length_b	21.295412
_cell_length_c	12.645330
_cell_angle_alpha	89.976318
_cell_angle_beta	90.011881
_cell_angle_gamma	89.983251
loop_
_atom_site_label
_atom_site_type_symbol
_atom_site_fract_x
_atom_site_fract_y
_atom_site_fract_z
Zn1	Zn	1.620779	-0.355828	-0.422087
Zn2	Zn	2.120779	0.144172	0.077913
Zn3	Zn	1.620673	-0.250567	-0.599365
Zn4	Zn	2.120673	0.249433	-0.099365
Zn5	Zn	1.443490	-0.250586	-0.422114
Zn6	Zn	1.943490	0.249414	0.077886
Zn7	Zn	1.443491	-0.355811	-0.599307
Zn8	Zn	1.943491	0.144189	-0.099307
O9	O	1.532108	-0.303198	-0.510718
O10	O	2.032108	0.196802	-0.010718
O11	O	1.769112	-0.341864	-0.445617
O12	O	2.269112	0.158136	0.054383
O13	O	1.597125	-0.162480	-0.575888
O14	O	2.097125	0.337520	-0.075888
O15	O	1.467052	-0.264562	-0.273763
O16	O	1.967052	0.235438	0.226237
O17	O	1.769034	-0.264529	-0.575862
O18	O	2.269034	0.235471	-0.075862
O19	O	1.597305	-0.341883	-0.273744
O20	O	2.097305	0.158117	0.226256
O21	O	1.466950	-0.162494	-0.445662
O22	O	1.966950	0.337506	0.054338
O23	O	1.295143	-0.264545	-0.445605
O24	O	1.795143	0.235455	0.054395
O25	O	1.467053	-0.443902	-0.575763
O26	O	1.967053	0.056098	-0.075763
O27	O	1.295144	-0.341853	-0.575789
O28	O	1.795144	0.158147	-0.075789
O29	O	1.597306	-0.443915	-0.445561
O30	O	2.097306	0.056085	0.054439
O31	O	1.597125	-0.264512	-0.747705
O32	O	2.097125	0.235488	-0.247705
O33	O	1.466950	-0.341834	-0.747662
O34	O	1.966950	0.158166	-0.247662
C35	C	1.256679	-0.303199	-0.510694
C36	C	1.756679	0.196801	-0.010694
C37	C	1.138849	-0.303215	-0.510710
C38	C	1.638849	0.196785	-0.010710
C39	C	0.971320	-0.351596	-0.593057
C40	C	1.471320	0.148404	-0.093057
C41	C	1.093880	-0.351798	-0.592791
C42	C	1.593880	0.148202	-0.092791
C43	C	1.094361	-0.321341	-0.399057
C44	C	1.594361	0.178659	0.100943
C45	C	0.971763	-0.321682	-0.399559
C46	C	1.471763	0.178318	0.100441
C47	C	0.971603	-0.236554	-0.539116
C48	C	1.471603	0.263446	-0.039116
C49	C	1.094210	-0.236914	-0.541558
C50	C	1.594210	0.263086	-0.041558
C51	C	1.532191	-0.467388	-0.510652
C52	C	2.032191	0.032612	-0.010652
C53	C	1.532227	-0.537356	-0.510624
C54	C	2.032227	-0.037356	-0.010624
C55	C	1.464462	-0.570220	-0.442808
C56	C	1.964462	-0.070220	0.057192
C57	C	1.464459	-0.635963	-0.442788
C58	C	1.964459	-0.135963	0.057212
C59	C	1.532238	-0.668839	-0.510574
C60	C	2.032238	-0.168839	-0.010574
C61	C	1.600007	-0.635967	-0.578403
C62	C	2.100007	-0.135967	-0.078403
C63	C	1.600001	-0.570226	-0.578428
C64	C	2.100001	-0.070226	-0.078428
N65	N	1.625039	-0.772071	-0.518671
N66	N	2.125039	-0.272071	-0.018671
N67	N	1.625042	-0.834523	-0.518641
N68	N	2.125042	-0.334523	-0.018641
C69	C	1.532258	-0.866914	-0.510503
C70	C	2.032258	-0.366914	-0.010503
N71	N	1.439469	-0.834494	-0.502376
N72	N	1.939469	-0.334494	-0.002376
N73	N	1.439468	-0.772037	-0.502401
N74	N	1.939468	-0.272037	-0.002401
C75	C	1.532251	-0.740124	-0.510554
C76	C	2.032251	-0.240124	-0.010554
C77	C	1.464483	-0.971063	-0.442662
C78	C	1.964483	-0.471063	0.057338
C79	C	1.464478	-1.036807	-0.442650
C80	C	1.964478	-0.536807	0.057350
C81	C	1.600036	-1.036810	-0.578259
C82	C	2.100036	-0.536810	-0.078259
C83	C	1.600032	-0.971067	-0.578277
C84	C	2.100032	-0.471067	-0.078277
C85	C	1.532257	-0.938198	-0.510473
C86	C	2.032257	-0.438198	-0.010473
C87	C	1.808613	-0.303197	-0.510743
C88	C	2.308613	0.196803	-0.010743
C89	C	1.926444	-0.303196	-0.510754
C90	C	2.426444	0.196804	-0.010754
C91	C	1.532055	-0.303183	-0.786148
C92	C	2.032055	0.196817	-0.286148
C93	C	1.532129	-0.303198	-0.903978
C94	C	2.032129	0.196802	-0.403978
C95	C	1.532087	-0.139646	-0.510707
C96	C	2.032087	0.360354	-0.010707
C97	C	1.532257	-0.069679	-0.510437
C98	C	2.032257	0.430321	-0.010437
C99	C	1.613891	-0.254455	-1.071525
C100	C	2.113891	0.245545	-0.571525
C101	C	1.614157	-0.254575	-0.948964
C102	C	2.114157	0.245425	-0.448964
C103	C	1.562431	-0.369550	-0.948367
C104	C	2.062431	0.130450	-0.448367
C105	C	1.563080	-0.369292	-1.070965
C106	C	2.063080	0.130708	-0.570965
C107	C	1.420034	-0.286241	-1.071302
C108	C	1.920034	0.213759	-0.571302
C109	C	1.420571	-0.284753	-0.948698
C110	C	1.920571	0.215247	-0.448698
C111	C	1.532190	-0.303227	-0.234213
C112	C	2.032190	0.196773	0.265787
C113	C	1.532226	-0.303239	-0.116383
C114	C	2.032226	0.196761	0.383617
H115	H	0.943188	-0.370400	-0.375501
H116	H	1.443188	0.129600	0.124499
H117	H	0.942076	-0.288046	-0.336040
H118	H	1.442076	0.211954	0.163960
H119	H	1.392479	-0.238700	-1.102306
H120	H	1.892479	0.261300	-0.602306
O121	O	1.135084	-0.385163	-0.366577
O122	O	1.635084	0.114837	0.133423
H123	H	1.186988	-0.404077	-0.429773
H124	H	1.686988	0.095923	0.070227
H125	H	1.409271	-0.543462	-0.387601
H126	H	1.909271	-0.043462	0.112399
O127	O	1.390287	-0.220076	-0.910278
O128	O	1.890287	0.279924	-0.410278
H129	H	1.454412	-0.201141	-0.859539
H130	H	1.954412	0.298859	-0.359539
H131	H	1.504761	-0.406871	-0.919224
H132	H	2.004761	0.093129	-0.419224
H133	H	1.409279	-0.662726	-0.387559
H134	H	1.909279	-0.162726	0.112441
O135	O	1.723377	-0.269185	-1.112213
O136	O	2.223377	0.230815	-0.612213
H137	H	1.723517	-0.266781	-1.199896
H138	H	2.223517	0.233219	-0.699896
O139	O	0.932260	-0.336723	-0.703099
O140	O	1.432260	0.163277	-0.203099
H141	H	0.844574	-0.338904	-0.704498
H142	H	1.344574	0.161096	-0.204498
O143	O	0.930557	-0.416629	-0.568517
O144	O	1.430557	0.083371	-0.068517
H145	H	0.878476	-0.414630	-0.497954
H146	H	1.378476	0.085370	0.002046
H147	H	1.124820	-0.198917	-0.485961
H148	H	1.624820	0.301083	0.014039
O149	O	1.673102	-0.671425	-0.651522
O150	O	2.173102	-0.171425	-0.151522
H151	H	1.720216	-0.637525	-0.698695
H152	H	2.220216	-0.137525	-0.198695
O153	O	1.132772	-0.417201	-0.567907
O154	O	1.632772	0.082799	-0.067907
H155	H	1.064013	-0.448807	-0.556007
H156	H	1.564013	0.051193	-0.056007
O157	O	1.132945	-0.276114	-0.315608
O158	O	1.632945	0.223886	0.184392
H159	H	1.184365	-0.240153	-0.352918
H160	H	1.684365	0.259847	0.147082
H161	H	1.655188	-0.543468	-0.633651
H162	H	2.155188	-0.043468	-0.133651
H163	H	0.940688	-0.220079	-0.619145
H164	H	1.440688	0.279921	-0.119145
O165	O	1.132788	-0.218780	-0.650361
O166	O	1.632788	0.281220	-0.150361
H167	H	1.183540	-0.256826	-0.682346
H168	H	1.683540	0.243174	-0.182346
O169	O	1.391379	-0.935604	-0.369546
O170	O	1.891379	-0.435604	0.130454
H171	H	1.344242	-0.969504	-0.322397
H172	H	1.844242	-0.469504	0.177603
O173	O	1.589067	-0.189404	-0.909201
O174	O	2.089067	0.310596	-0.409201
H175	H	1.576635	-0.157517	-0.977540
H176	H	2.076635	0.342483	-0.477540
H177	H	1.595169	-0.205112	-1.101072
H178	H	2.095169	0.294888	-0.601072
O179	O	0.933159	-0.188779	-0.459719
O180	O	1.433159	0.311221	0.040281
H181	H	0.882134	-0.212343	-0.400341
H182	H	1.382134	0.287657	0.099659
H183	H	1.409288	-1.063564	-0.387429
H184	H	1.909288	-0.563564	0.112571
O185	O	1.673146	-1.072258	-0.651372
O186	O	2.173146	-0.572258	-0.151372
H187	H	1.661771	-1.123494	-0.639959
H188	H	2.161771	-0.623494	-0.139959
H189	H	1.655216	-0.944309	-0.633498
H190	H	2.155216	-0.444309	-0.133498
H191	H	1.697254	-0.265817	-0.919559
H192	H	2.197254	0.234183	-0.419559
O193	O	1.671707	-0.388356	-1.108751
O194	O	2.171707	0.111644	-0.608751
H195	H	1.723282	-0.397670	-1.039459
H196	H	2.223282	0.102330	-0.539459
H197	H	1.506205	-0.406891	-1.100635
H198	H	2.006205	0.093109	-0.600635
H199	H	1.643512	-0.384189	-0.917581
H200	H	2.143512	0.115811	-0.417581
H201	H	1.356441	-0.317680	-0.918086
H202	H	1.856441	0.182320	-0.418086
O203	O	1.339377	-0.333210	-1.109941
O204	O	1.839377	0.166790	-0.609941
H205	H	1.378941	-0.368502	-1.160978
H206	H	1.878941	0.131498	-0.660978
H207	H	1.123959	-0.340438	-0.675588
H208	H	1.623959	0.159562	-0.175588
