data_functionalizedCrystal
_audit_creation_method	'MofGen! by Chris Wilmer'
_symmetry_space_group_name_H-M	'P1'
_symmetry_Int_Tables_number	1
_symmetry_cell_setting	triclinic
loop_
_symmetry_equiv_pos_as_xyz
  x,y,z
_cell_length_a	10.654562
_cell_length_b	27.731996
_cell_length_c	9.730223
_cell_angle_alpha	89.992740
_cell_angle_beta	89.996961
_cell_angle_gamma	83.555745
loop_
_atom_site_label
_atom_site_type_symbol
_atom_site_fract_x
_atom_site_fract_y
_atom_site_fract_z
O1	O	1.664937	0.067915	-0.114400
O2	O	1.299186	0.074376	-0.114385
O3	O	1.493455	0.000818	-0.114363
O4	O	1.470668	0.141473	-0.114422
O5	O	1.493452	0.000820	0.114216
O6	O	1.299183	0.074378	0.114195
O7	O	1.664934	0.067916	0.114180
Zn8	Zn	1.482059	0.071147	0.150479
Zn9	Zn	1.482062	0.071145	-0.150685
O10	O	1.470665	0.141474	0.114158
C11	C	1.252407	0.073901	-0.000093
C12	C	1.113025	0.072478	-0.000086
C13	C	1.047521	0.071815	0.124503
C14	C	0.916556	0.070482	0.124480
C15	C	0.916608	0.070476	-0.124730
C16	C	1.047573	0.071806	-0.124706
C17	C	1.112973	0.072487	0.249123
C18	C	1.047469	0.071825	0.373722
C19	C	0.916504	0.070491	0.373700
C20	C	0.851042	0.069820	0.249079
C21	C	1.492985	-0.017192	-0.000069
C22	C	1.491576	-0.070857	-0.000055
C23	C	1.482706	-0.403629	-0.124720
C24	C	1.477352	-0.605321	-0.124744
O25	O	1.476607	-0.631397	-0.230712
N26	N	1.476686	-0.630541	-0.000147
C27	C	1.477350	-0.605335	0.124466
O28	O	1.476647	-0.631414	0.230444
C29	C	1.482695	-0.403644	0.124489
C30	C	1.483374	-0.378427	-0.000117
C31	C	1.483384	-0.378412	-0.249316
C32	C	1.484729	-0.327993	-0.249309
C33	C	1.485397	-0.302790	-0.124706
C34	C	1.484719	-0.328007	-0.000110
C35	C	1.483350	-0.378438	0.249100
C36	C	1.484683	-0.328012	0.249094
C37	C	1.485362	-0.302795	0.124488
C38	C	1.486732	-0.252385	0.124500
N39	N	1.487398	-0.227165	-0.000098
C40	C	1.486731	-0.252367	-0.124701
C41	C	1.474546	-0.711226	0.124445
C42	C	1.473212	-0.761649	0.124440
C43	C	1.473212	-0.761631	-0.124771
C44	C	1.474555	-0.711208	-0.124764
C45	C	1.475212	-0.686006	-0.000152
C46	C	1.489557	-0.146483	-0.124676
C47	C	1.490908	-0.096059	-0.124658
C48	C	1.490901	-0.096081	0.124552
C49	C	1.489557	-0.146501	0.124535
C50	C	1.488881	-0.171700	-0.000090
O51	O	1.487464	-0.226277	0.230412
O52	O	1.487405	-0.226279	-0.230662
C53	C	1.481361	-0.454049	-0.124728
C54	C	1.480683	-0.479266	-0.000132
C55	C	1.481351	-0.454064	0.124471
C56	C	1.479349	-0.529689	-0.000137
C57	C	1.478682	-0.554891	-0.124740
C58	C	1.479348	-0.529671	-0.249338
C59	C	1.480693	-0.479251	-0.249331
C60	C	1.480685	-0.479284	0.249069
C61	C	1.479341	-0.529704	0.249052
C62	C	1.478673	-0.554906	0.124448
C63	C	1.711713	0.068391	-0.000116
C64	C	1.851095	0.069814	-0.000132
C65	C	1.471135	0.159484	-0.000140
C66	C	1.472545	0.213149	-0.000163
N67	N	1.482066	0.071149	0.356016
N68	N	1.482064	0.071140	-0.356221
C69	C	1.568109	0.038588	0.427951
C70	C	1.568106	0.038583	0.571834
C71	C	1.396011	0.103702	0.571833
C72	C	1.396010	0.103705	0.427953
C73	C	1.654166	0.006032	0.356014
C74	C	1.740217	-0.026530	0.427950
C75	C	1.740214	-0.026536	0.571833
C76	C	1.654159	0.006021	0.643780
H77	H	0.863299	0.069931	-0.226190
N78	N	1.303202	0.138823	0.350361
H79	H	1.316970	0.173180	0.375386
H80	H	1.316303	0.133840	0.248323
N81	N	0.709788	0.068377	0.249058
H82	H	0.667478	0.097963	0.200116
H83	H	0.689137	0.038126	0.200171
N84	N	1.833003	-0.061654	0.350360
H85	H	1.819946	-0.056712	0.248296
H86	H	1.921975	-0.055758	0.375497
H87	H	1.325950	0.130209	0.630422
H88	H	1.100906	0.072348	-0.226157
H89	H	1.472679	-0.782177	0.225907
N90	N	1.118059	0.072547	0.508132
H91	H	1.183165	0.043191	0.513714
H92	H	1.161544	0.103029	0.513602
H93	H	1.810272	-0.053053	0.630401
N94	N	1.654139	0.006017	0.798968
H95	H	1.636529	-0.026890	0.833630
H96	H	1.739323	0.013375	0.833518
H97	H	0.863175	0.069948	0.475153
H98	H	1.491463	-0.075530	-0.226131
N99	N	1.472556	-0.788823	-0.259164
H100	H	1.473202	-0.765201	-0.338107
H101	H	1.549901	-0.813391	-0.264538
H102	H	1.489000	-0.166994	-0.226158
N103	N	1.254226	0.073928	0.249146
H104	H	1.285753	0.074253	0.346994
H105	H	1.296453	0.044336	0.200187
N106	N	1.485454	-0.300797	-0.383706
H107	H	1.484823	-0.324420	-0.462631
H108	H	1.408133	-0.276219	-0.389133
H109	H	1.475088	-0.690711	0.225925
H110	H	1.482835	-0.398926	-0.350789
H111	H	1.475106	-0.690679	-0.226229
H112	H	1.485200	-0.307494	0.350571
N113	N	1.482620	-0.405629	0.383498
H114	H	1.483238	-0.382004	0.462421
H115	H	1.404188	-0.422889	0.388929
H116	H	1.489016	-0.167034	0.225999
H117	H	1.491451	-0.075552	0.226001
H118	H	1.481245	-0.458724	-0.350798
H119	H	1.478810	-0.550200	-0.350794
N120	N	1.478621	-0.556900	0.383457
H121	H	1.479246	-0.533278	0.462386
H122	H	1.400187	-0.574159	0.388886
N123	N	1.481410	-0.452105	0.383469
H124	H	1.480786	-0.475738	0.462390
H125	H	1.559846	-0.434848	0.388896
H126	H	1.654178	0.006035	0.238857
