data_functionalizedCrystal
_audit_creation_method	'MofGen! by Chris Wilmer'
_symmetry_space_group_name_H-M	'P1'
_symmetry_Int_Tables_number	1
_symmetry_cell_setting	triclinic
loop_
_symmetry_equiv_pos_as_xyz
  x,y,z
_cell_length_a	7.681481
_cell_length_b	19.288864
_cell_length_c	19.288857
_cell_angle_alpha	96.865323
_cell_angle_beta	84.275883
_cell_angle_gamma	84.310256
loop_
_atom_site_label
_atom_site_type_symbol
_atom_site_fract_x
_atom_site_fract_y
_atom_site_fract_z
O1	O	-0.146999	-0.914732	0.093270
O2	O	-0.146880	-0.712476	0.104954
O3	O	-0.146922	-0.819452	-0.002019
O4	O	-0.146957	-0.807756	0.200244
O5	O	0.145931	-0.832619	-0.015216
O6	O	0.145973	-0.725643	0.091757
O7	O	0.145854	-0.927899	0.080074
Zn8	Zn	0.192410	-0.828862	0.083821
Zn9	Zn	-0.193436	-0.811514	0.101207
O10	O	0.145895	-0.820923	0.187047
C11	C	-0.000438	-0.693184	0.097979
C12	C	-0.000392	-0.616083	0.096848
N13	N	0.455739	-0.840707	0.071954
N14	N	-0.456766	-0.799674	0.113068
C15	C	-0.000494	-0.825660	-0.034494
C16	C	-0.000488	-0.824534	-0.111598
C17	C	-0.000592	-0.947191	0.087049
C18	C	-0.000650	-1.024292	0.088181
C19	C	-0.000430	-0.571383	0.159618
C20	C	-0.000450	-0.498935	0.158558
C21	C	-0.000466	-0.471189	0.094726
C22	C	-0.000417	-0.515899	0.031947
C23	C	-0.000380	-0.588346	0.033008
C24	C	-0.103115	-0.358313	0.049172
C25	C	-0.103163	-0.285866	0.048115
C26	C	-0.000572	-0.247738	0.091451
C27	C	0.102045	-0.282063	0.135858
C28	C	0.102082	-0.354511	0.136919
C29	C	-0.000504	-0.392633	0.093569
C30	C	-0.000629	-0.124482	0.153076
C31	C	-0.000637	-0.052033	0.152013
C32	C	-0.000622	-0.068998	0.025402
C33	C	-0.000596	-0.141445	0.026466
C34	C	-0.000608	-0.169182	0.090305
C35	C	-0.160122	-0.816831	-0.140616
C36	C	-0.160134	-0.815761	-0.213061
C37	C	-0.000504	-0.822410	-0.256489
C38	C	0.159151	-0.830110	-0.227463
C39	C	0.159159	-0.831172	-0.155018
C40	C	0.121760	-0.866908	-0.382230
C41	C	0.121745	-0.865850	-0.454674
C42	C	-0.000522	-0.819131	-0.479934
C43	C	-0.122803	-0.773478	-0.432741
C44	C	-0.122795	-0.774540	-0.360295
C45	C	-0.000495	-0.821258	-0.335044
C46	C	-0.160180	-0.810267	-0.587504
C47	C	-0.160186	-0.809194	-0.659951
C48	C	0.159104	-0.823550	-0.674352
C49	C	0.159105	-0.824616	-0.601906
C50	C	-0.000542	-0.817977	-0.558487
C51	C	-0.000537	-0.814715	0.219522
C52	C	-0.000554	-0.815841	0.296627
H53	H	0.468054	-0.757789	0.155033
Cl54	Cl	-0.360821	-0.808480	-0.086034
Cl55	Cl	0.571816	-0.905387	0.007166
H56	H	-0.000744	-0.046403	-0.026566
H57	H	-0.000443	-0.593961	0.211601
H58	H	-0.290131	-0.809484	-0.236691
Cl59	Cl	-0.276505	-0.717147	-0.300970
Cl60	Cl	-0.276514	-0.714737	-0.464487
Cl61	Cl	0.359785	-0.831904	-0.728940
Cl62	Cl	-0.000494	-0.442731	0.237474
H63	H	0.185641	-0.382456	0.173075
Cl64	Cl	0.231026	-0.234140	0.190343
Cl65	Cl	-0.000626	-0.159356	0.233329
H66	H	-0.290174	-0.804858	-0.552149
Cl67	Cl	-0.000677	0.004162	0.230931
H68	H	0.221338	-0.904953	-0.361671
H69	H	-0.000350	-0.624741	-0.018108
H70	H	-0.186668	-0.389350	0.013881
Cl71	Cl	-0.000558	-0.197642	-0.052449
H72	H	-0.186727	-0.257924	0.011959
Cl73	Cl	0.359830	-0.838463	-0.282056
H74	H	0.221308	-0.903026	-0.493094
H75	H	-0.290184	-0.802917	-0.683574
H76	H	-0.000454	-0.493302	-0.020024
H77	H	0.289097	-0.830894	-0.578282
Cl78	Cl	0.359859	-0.840856	-0.118537
