data_functionalizedCrystal
_audit_creation_method	'MofGen! by Chris Wilmer'
_symmetry_space_group_name_H-M	'P1'
_symmetry_Int_Tables_number	1
_symmetry_cell_setting	triclinic
loop_
_symmetry_equiv_pos_as_xyz
  x,y,z
_cell_length_a	29.839134
_cell_length_b	29.839131
_cell_length_c	16.625539
_cell_angle_alpha	89.972076
_cell_angle_beta	89.979472
_cell_angle_gamma	90.022274
loop_
_atom_site_label
_atom_site_type_symbol
_atom_site_fract_x
_atom_site_fract_y
_atom_site_fract_z
Zn1	Zn	0.686756	-0.179085	-0.455910
Zn2	Zn	1.186756	0.320915	0.044090
Zn3	Zn	0.686676	-0.254216	-0.321078
Zn4	Zn	1.186676	0.245784	0.178922
Zn5	Zn	0.611627	-0.179076	-0.321091
Zn6	Zn	1.111627	0.320924	0.178909
Zn7	Zn	0.611586	-0.254164	-0.455868
Zn8	Zn	1.111586	0.245836	0.044132
O9	O	0.649161	-0.216635	-0.388487
O10	O	1.149161	0.283365	0.111513
O11	O	0.749612	-0.189078	-0.438037
O12	O	1.249612	0.310922	0.061963
O13	O	0.676705	-0.244267	-0.208248
O14	O	1.176705	0.255733	0.291752
O15	O	0.621644	-0.116210	-0.338998
O16	O	1.121644	0.383790	0.161002
O17	O	0.749554	-0.244276	-0.338976
O18	O	1.249554	0.255724	0.161024
O19	O	0.676840	-0.116217	-0.438049
O20	O	1.176840	0.383783	0.061951
O21	O	0.621567	-0.189061	-0.208257
O22	O	1.121567	0.310939	0.291743
O23	O	0.548755	-0.189010	-0.338957
O24	O	1.048755	0.310990	0.161043
O25	O	0.621573	-0.244186	-0.568706
O26	O	1.121573	0.255814	-0.068706
O27	O	0.548724	-0.244177	-0.437978
O28	O	1.048724	0.255823	0.062022
O29	O	0.676800	-0.189027	-0.568737
O30	O	1.176800	0.310973	-0.068737
O31	O	0.676665	-0.317076	-0.338936
O32	O	1.176665	0.182924	0.161064
O33	O	0.621496	-0.317038	-0.437965
O34	O	1.121496	0.182962	0.062035
C35	C	0.532439	-0.216587	-0.388465
C36	C	1.032439	0.283413	0.111535
C37	C	0.482504	-0.216577	-0.388474
C38	C	0.982504	0.283423	0.111526
C39	C	0.125943	-0.187953	-0.440169
C40	C	0.625943	0.312047	0.059831
C41	C	0.313616	-0.187917	-0.440151
C42	C	0.813616	0.312083	0.059849
O43	O	0.337903	-0.163523	-0.484100
O44	O	0.837903	0.336477	0.015900
N45	N	0.337059	-0.216607	-0.388493
N46	N	0.837059	0.283393	0.111507
C47	C	0.313581	-0.245309	-0.336840
C48	C	0.813581	0.254691	0.163160
O49	O	0.337827	-0.269714	-0.292908
O50	O	0.837827	0.230286	0.207092
C51	C	0.125909	-0.245347	-0.336864
C52	C	0.625909	0.254653	0.163136
C53	C	0.102468	-0.216653	-0.388519
C54	C	0.602468	0.283347	0.111481
C55	C	0.102503	-0.159261	-0.491821
C56	C	0.602503	0.340739	0.008179
C57	C	0.055587	-0.159269	-0.491822
C58	C	0.555587	0.340731	0.008178
C59	C	0.032112	-0.187969	-0.440171
C60	C	0.532112	0.312031	0.059829
C61	C	0.055553	-0.216660	-0.388520
C62	C	0.555553	0.283340	0.111480
C63	C	0.102431	-0.274052	-0.285216
C64	C	0.602431	0.225948	0.214784
C65	C	0.055510	-0.274060	-0.285227
C66	C	0.555510	0.225940	0.214773
C67	C	0.032070	-0.245365	-0.336883
C68	C	0.532070	0.254635	0.163117
C69	C	-0.014838	-0.245368	-0.336870
C70	C	0.485162	0.254632	0.163130
N71	N	-0.038280	-0.216678	-0.388528
N72	N	0.461720	0.283322	0.111472
C73	C	-0.014805	-0.187979	-0.440178
C74	C	0.485195	0.312021	0.059822
C75	C	0.412111	-0.245287	-0.336831
C76	C	0.912111	0.254713	0.163169
C77	C	0.459029	-0.245277	-0.336824
C78	C	0.959029	0.254723	0.163176
C79	C	0.459062	-0.187885	-0.440135
C80	C	0.959062	0.312115	0.059865
C81	C	0.412143	-0.187893	-0.440138
C82	C	0.912143	0.312107	0.059862
C83	C	0.388669	-0.216597	-0.388488
C84	C	0.888669	0.283403	0.111512
C85	C	-0.113331	-0.187996	-0.440176
C86	C	0.386669	0.312004	0.059824
C87	C	-0.160251	-0.188005	-0.440170
C88	C	0.339749	0.311995	0.059830
C89	C	-0.160279	-0.245398	-0.336862
C90	C	0.339721	0.254602	0.163138
C91	C	-0.113364	-0.245388	-0.336865
C92	C	0.386636	0.254612	0.163135
C93	C	-0.089891	-0.216686	-0.388528
C94	C	0.410109	0.283314	0.111472
O95	O	-0.039153	-0.269753	-0.292951
O96	O	0.460847	0.230247	0.207049
O97	O	-0.039059	-0.163585	-0.484117
O98	O	0.460941	0.336415	0.015883
C99	C	0.172859	-0.187946	-0.440168
C100	C	0.672859	0.312054	0.059832
C101	C	0.196299	-0.216638	-0.388517
C102	C	0.696299	0.283362	0.111483
C103	C	0.172824	-0.245337	-0.336866
C104	C	0.672824	0.254663	0.163134
C105	C	0.243217	-0.216628	-0.388510
C106	C	0.743217	0.283372	0.111490
C107	C	0.266692	-0.187928	-0.440160
C108	C	0.766692	0.312072	0.059840
C109	C	0.243249	-0.159239	-0.491818
C110	C	0.743249	0.340761	0.008182
C111	C	0.196334	-0.159246	-0.491819
C112	C	0.696334	0.340754	0.008181
C113	C	0.196267	-0.274027	-0.285209
C114	C	0.696267	0.225973	0.214791
C115	C	0.243182	-0.274016	-0.285211
C116	C	0.743182	0.225984	0.214789
C117	C	0.266657	-0.245317	-0.336862
C118	C	0.766657	0.254683	0.163138
C119	C	0.649080	-0.333358	-0.388462
C120	C	1.149080	0.166642	0.111538
C121	C	0.649086	-0.383292	-0.388479
C122	C	1.149086	0.116708	0.111521
C123	C	0.620453	-0.739875	-0.440048
C124	C	1.120453	-0.239875	0.059952
C125	C	0.620394	-0.552202	-0.440023
C126	C	1.120394	-0.052202	0.059977
O127	O	0.595952	-0.527933	-0.483854
O128	O	1.095952	-0.027933	0.016146
N129	N	0.649133	-0.528737	-0.388503
N130	N	1.149133	-0.028737	0.111497
C131	C	0.677891	-0.552194	-0.336989
C132	C	1.177891	-0.052194	0.163011
O133	O	0.702338	-0.527930	-0.293173
O134	O	1.202338	-0.027930	0.206827
C135	C	0.677953	-0.739866	-0.337019
C136	C	1.177953	-0.239866	0.162981
C137	C	0.649208	-0.763328	-0.388537
C138	C	1.149208	-0.263328	0.111463
C139	C	0.591712	-0.763337	-0.491563
C140	C	1.091712	-0.263337	0.008437
C141	C	0.591725	-0.810252	-0.491565
C142	C	1.091725	-0.310252	0.008435
C143	C	0.620480	-0.833706	-0.440054
C144	C	1.120480	-0.333706	0.059946
C145	C	0.649222	-0.810244	-0.388539
C146	C	1.149222	-0.310244	0.111461
C147	C	0.706713	-0.763322	-0.285509
C148	C	1.206713	-0.263322	0.214491
C149	C	0.706726	-0.810243	-0.285523
C150	C	1.206726	-0.310243	0.214477
C151	C	0.677982	-0.833705	-0.337041
C152	C	1.177982	-0.333705	0.162959
C153	C	0.677990	-0.880613	-0.337030
C154	C	1.177990	-0.380613	0.162970
N155	N	0.649251	-0.904077	-0.388551
N156	N	1.149251	-0.404077	0.111449
C157	C	0.620496	-0.880624	-0.440062
C158	C	1.120496	-0.380624	0.059938
C159	C	0.677857	-0.453663	-0.336976
C160	C	1.177857	0.046337	0.163024
C161	C	0.677841	-0.406746	-0.336967
C162	C	1.177841	0.093254	0.163033
C163	C	0.620344	-0.406757	-0.440003
C164	C	1.120344	0.093243	0.059997
C165	C	0.620358	-0.453675	-0.440007
C166	C	1.120358	0.046325	0.059993
C167	C	0.649117	-0.477128	-0.388496
C168	C	1.149117	0.022872	0.111504
C169	C	0.620526	-0.979149	-0.440064
C170	C	1.120526	-0.479149	0.059936
C171	C	0.620541	-1.026069	-0.440059
C172	C	1.120541	-0.526069	0.059941
C173	C	0.678039	-1.026054	-0.337027
C174	C	1.178039	-0.526054	0.162973
C175	C	0.678023	-0.979138	-0.337028
C176	C	1.178023	-0.479138	0.162972
C177	C	0.649265	-0.955687	-0.388553
C178	C	1.149265	-0.455687	0.111447
O179	O	0.702423	-0.904910	-0.293229
O180	O	1.202423	-0.404910	0.206771
O181	O	0.596060	-0.904896	-0.483884
O182	O	1.096060	-0.404896	0.016116
C183	C	0.620440	-0.692959	-0.440046
C184	C	1.120440	-0.192959	0.059954
C185	C	0.649182	-0.669497	-0.388531
C186	C	1.149182	-0.169497	0.111469
C187	C	0.677937	-0.692951	-0.337020
C188	C	1.177937	-0.192951	0.162980
C189	C	0.649166	-0.622580	-0.388523
C190	C	1.149166	-0.122580	0.111477
C191	C	0.620411	-0.599126	-0.440034
C192	C	1.120411	-0.099126	0.059966
C193	C	0.591672	-0.622591	-0.491555
C194	C	1.091672	-0.122591	0.008445
C195	C	0.591685	-0.669506	-0.491557
C196	C	1.091685	-0.169506	0.008443
C197	C	0.706676	-0.669486	-0.285499
C198	C	1.206676	-0.169486	0.214501
C199	C	0.706660	-0.622571	-0.285500
C200	C	1.206660	-0.122571	0.214500
C201	C	0.677905	-0.599117	-0.337012
C202	C	1.177905	-0.099117	0.162988
C203	C	0.766340	-0.216684	-0.388510
C204	C	1.266340	0.283316	0.111490
C205	C	0.816274	-0.216705	-0.388520
C206	C	1.316274	0.283295	0.111480
C207	C	0.649191	-0.216602	-0.598796
C208	C	1.149191	0.283398	-0.098796
C209	C	0.649203	-0.216588	-0.688417
C210	C	1.149203	0.283412	-0.188417
C211	C	0.649256	-0.099457	-0.388530
C212	C	1.149256	0.400543	0.111470
C213	C	0.649296	-0.049522	-0.388548
C214	C	1.149296	0.450478	0.111452
C215	C	0.649224	-0.216537	-1.016593
C216	C	1.149224	0.283463	-0.516593
C217	C	0.649217	-0.216553	-0.925285
C218	C	1.149217	0.283447	-0.425285
C219	C	0.649214	-0.216563	-0.852508
C220	C	1.149214	0.283437	-0.352508
C221	C	0.649206	-0.216577	-0.761194
C222	C	1.149206	0.283423	-0.261194
C223	C	0.649158	-0.216636	-0.178996
C224	C	1.149158	0.283364	0.321004
C225	C	0.649233	-0.216524	-0.089376
C226	C	1.149233	0.283476	0.410624
H227	H	0.121508	-0.297418	-0.243152
H228	H	0.621508	0.202582	0.256848
N229	N	0.484388	-0.156935	-0.495850
N230	N	0.984388	0.343065	0.004150
H231	H	0.476236	-0.163958	-0.553438
H232	H	0.976236	0.336042	-0.053438
H233	H	0.476221	-0.124839	-0.483371
H234	H	0.976221	0.375161	0.016629
N235	N	-0.185533	-0.157050	-0.495878
N236	N	0.314467	0.342950	0.004122
H237	H	-0.163539	-0.138869	-0.528596
H238	H	0.336461	0.361131	-0.028596
H239	H	-0.204998	-0.175362	-0.533140
H240	H	0.295002	0.324638	-0.033140
H241	H	-0.094225	-0.164624	-0.482245
H242	H	0.405775	0.335376	0.017755
N243	N	0.484305	-0.276221	-0.281096
N244	N	0.984305	0.223779	0.218904
H245	H	0.476135	-0.308329	-0.293523
H246	H	0.976135	0.191671	0.206477
H247	H	0.517583	-0.271825	-0.288946
H248	H	1.017583	0.228175	0.211054
H249	H	0.177158	-0.297398	-0.243149
H250	H	0.677158	0.202602	0.256851
N251	N	0.709017	-0.953830	-0.281452
N252	N	1.209017	-0.453830	0.218548
H253	H	0.727233	-0.975808	-0.248816
H254	H	1.227233	-0.475808	0.251184
H255	H	0.729793	-0.934341	-0.314305
H256	H	1.229793	-0.434341	0.185695
H257	H	0.701449	-1.045158	-0.295085
H258	H	1.201449	-0.545158	0.204915
H259	H	0.393003	-0.268662	-0.294769
H260	H	0.893003	0.231338	0.205231
H261	H	0.597109	-0.960061	-0.482021
H262	H	1.097109	-0.460061	0.017979
N263	N	0.030192	-0.305021	-0.229521
N264	N	0.530192	0.194979	0.270479
H265	H	0.052163	-0.323195	-0.196801
H266	H	0.552163	0.176805	0.303199
H267	H	0.010721	-0.286714	-0.192260
H268	H	0.510721	0.213286	0.307740
H269	H	0.568296	-0.744245	-0.533513
H270	H	1.068296	-0.244245	-0.033513
N271	N	0.030316	-0.128321	-0.547549
N272	N	0.530316	0.371679	-0.047549
H273	H	0.010856	-0.146605	-0.584866
H274	H	0.510856	0.353395	-0.084866
H275	H	0.010872	-0.107483	-0.514802
H276	H	0.510872	0.392517	-0.014802
H277	H	0.730148	-0.829336	-0.243578
H278	H	1.230148	-0.329336	0.256422
H279	H	0.568279	-0.688605	-0.533510
H280	H	1.068279	-0.188605	-0.033510
N281	N	0.268575	-0.128288	-0.547533
N282	N	0.768575	0.371712	-0.047533
H283	H	0.246610	-0.110112	-0.580263
H284	H	0.746610	0.389888	-0.080263
H285	H	0.288040	-0.107473	-0.514775
H286	H	0.788040	0.392527	-0.014775
N287	N	0.560722	-0.835555	-0.547130
N288	N	1.060722	-0.335555	-0.047130
H289	H	0.542506	-0.813572	-0.579758
H290	H	1.042506	-0.313572	-0.079758
H291	H	0.579000	-0.854997	-0.584483
H292	H	1.079000	-0.354997	-0.084483
N293	N	0.268462	-0.304964	-0.229487
N294	N	0.768462	0.195036	0.270513
H295	H	0.246467	-0.323145	-0.196771
H296	H	0.746467	0.176855	0.303229
H297	H	0.287930	-0.325775	-0.262243
H298	H	0.787930	0.174225	0.237757
H299	H	0.393061	-0.164527	-0.482199
H300	H	0.893061	0.335473	0.017801
H301	H	0.121611	-0.135891	-0.533885
H302	H	0.621611	0.364109	-0.033885
N303	N	0.560654	-0.597290	-0.547110
N304	N	1.060654	-0.097290	-0.047110
H305	H	0.565010	-0.564008	-0.539283
H306	H	1.065010	-0.064008	-0.039283
H307	H	0.567628	-0.605466	-0.604710
H308	H	1.067628	-0.105466	-0.104710
H309	H	0.596954	-0.472775	-0.481961
H310	H	1.096954	0.027225	0.018039
H311	H	0.177253	-0.135880	-0.533882
H312	H	0.677253	0.364120	-0.033882
N313	N	0.589330	-0.381453	-0.495560
N314	N	1.089330	0.118547	0.004440
H315	H	0.607573	-0.361963	-0.532947
H316	H	1.107573	0.138037	-0.032947
H317	H	0.571130	-0.403460	-0.528152
H318	H	1.071130	0.096540	-0.028152
H319	H	0.730066	-0.603471	-0.243541
H320	H	1.230066	-0.103471	0.256459
N321	N	-0.088078	-0.276331	-0.281144
N322	N	0.411922	0.223669	0.218856
H323	H	-0.110071	-0.294511	-0.248422
H324	H	0.389929	0.205489	0.251578
H325	H	-0.068612	-0.297142	-0.313902
H326	H	0.431388	0.202858	0.186098
N327	N	-0.185603	-0.276348	-0.281149
N328	N	0.314397	0.223652	0.218851
H329	H	-0.218882	-0.271997	-0.288994
H330	H	0.281118	0.228003	0.211006
H331	H	-0.177409	-0.308441	-0.293600
H332	H	0.322591	0.191559	0.206400
N333	N	0.589534	-1.051375	-0.495622
N334	N	1.089534	-0.551375	0.004378
H335	H	0.571317	-1.029395	-0.528254
H336	H	1.071317	-0.529395	-0.028254
H337	H	0.607812	-1.070819	-0.532972
H338	H	1.107812	-0.570819	-0.032972
N339	N	0.708840	-0.381443	-0.281395
N340	N	1.208840	0.118557	0.218605
H341	H	0.727058	-0.403424	-0.248769
H342	H	1.227058	0.096576	0.251231
H343	H	0.729613	-0.361952	-0.314251
H344	H	1.229613	0.138048	0.185749
H345	H	0.701277	-0.472754	-0.295026
H346	H	1.201277	0.027246	0.204974
N347	N	0.737721	-0.738024	-0.229953
N348	N	1.237721	-0.238024	0.270047
H349	H	0.755941	-0.760008	-0.197334
H350	H	1.255941	-0.260008	0.302666
H351	H	0.758494	-0.718537	-0.262818
H352	H	1.258494	-0.218537	0.237182
H353	H	0.730093	-0.688577	-0.243552
H354	H	1.230093	-0.188577	0.256448
