data_functionalizedCrystal
_audit_creation_method	'MofGen! by Chris Wilmer'
_symmetry_space_group_name_H-M	'P1'
_symmetry_Int_Tables_number	1
_symmetry_cell_setting	triclinic
loop_
_symmetry_equiv_pos_as_xyz
  x,y,z
_cell_length_a	18.426585
_cell_length_b	19.377369
_cell_length_c	18.426585
_cell_angle_alpha	72.126104
_cell_angle_beta	90.001513
_cell_angle_gamma	48.638366
loop_
_atom_site_label
_atom_site_type_symbol
_atom_site_fract_x
_atom_site_fract_y
_atom_site_fract_z
Zr1	Zr	0.554345	0.779886	0.050226
O2	O	0.410873	0.928522	-0.037925
O3	O	0.617459	0.631250	0.058022
O4	O	0.589860	0.779892	-0.065655
O5	O	0.438479	0.779875	0.205182
O6	O	0.709285	0.779897	-0.065657
O7	O	0.438472	0.779880	0.085752
O8	O	0.758654	0.514003	0.155578
O9	O	0.389110	1.045769	-0.016053
O10	O	0.710387	0.692390	0.084575
O11	O	0.621267	0.692382	0.173706
O12	O	0.588773	0.867390	0.028092
O13	O	0.499653	0.867382	0.117223
Zr14	Zr	0.744825	0.779886	0.240700
Zr15	Zr	0.744814	0.779894	0.050223
Zr16	Zr	0.554356	0.779878	0.240703
Zr17	Zr	0.519635	0.966881	0.085109
Zr18	Zr	0.779535	0.592891	0.205817
O19	O	0.681712	0.928522	0.232904
O20	O	0.681696	0.928534	-0.037930
O21	O	0.410889	0.928511	0.232909
O22	O	0.888297	0.631250	0.328851
O23	O	0.888281	0.631261	0.058017
O24	O	0.617475	0.631238	0.328856
O25	O	0.860692	0.779897	0.085744
O26	O	0.709310	0.779880	0.356581
O27	O	0.589885	0.779875	0.356583
O28	O	0.860699	0.779892	0.205174
O29	O	0.540508	1.045775	-0.016056
O30	O	0.758663	0.513996	0.306982
O31	O	0.910060	0.514003	0.306979
O32	O	0.910051	0.514009	0.155575
O33	O	0.389119	1.045763	0.135351
O34	O	0.540517	1.045769	0.135348
O35	O	0.710398	0.692382	0.262834
O36	O	0.799518	0.692390	0.173703
O37	O	0.677904	0.867390	0.117220
O38	O	0.588784	0.867382	0.206351
C39	C	0.693002	0.545983	0.101830
C40	C	0.707737	0.466599	0.087021
C41	C	0.523978	0.205185	0.271196
C42	C	0.537946	0.130501	0.257344
C43	C	0.630980	0.130518	0.164299
C44	C	0.617025	0.205200	0.178145
C45	C	0.563522	0.242529	0.231594
C46	C	0.656568	0.242544	0.138544
C47	C	0.642609	0.317224	0.152386
C48	C	0.589106	0.354560	0.205831
C49	C	0.549562	0.317209	0.245437
C50	C	0.710065	0.205219	0.085091
C51	C	0.749608	0.242563	0.045489
C52	C	0.735656	0.317239	0.059336
C53	C	0.682153	0.354575	0.112780
C54	C	0.775199	0.354590	0.019729
C55	C	0.761240	0.429270	0.033572
C56	C	0.668193	0.429255	0.126623
C57	C	0.411338	0.779876	0.145467
C58	C	0.330478	0.779873	0.145469
C59	C	0.034358	0.779903	0.145459
C60	C	0.116745	0.779899	0.145460
C61	C	0.182416	0.779888	0.145463
C62	C	0.264808	0.779883	0.145466
C63	C	0.887833	0.779896	0.145459
C64	C	0.968692	0.779899	0.145457
C65	C	0.649571	0.779896	-0.092795
C66	C	0.649566	0.779899	-0.173657
C67	C	0.606169	1.013789	0.189096
C68	C	0.591434	1.093173	0.203905
C69	C	0.649605	0.779869	-0.469747
C70	C	0.649597	0.779873	-0.387364
C71	C	0.649585	0.779884	-0.321705
C72	C	0.649578	0.779888	-0.239317
C73	C	0.649599	0.779876	0.383721
C74	C	0.649604	0.779873	0.464583
C75	C	0.931249	0.545993	0.101826
C76	C	1.026844	0.466612	0.087015
C77	C	0.693016	0.545973	0.340088
C78	C	0.707756	0.466586	0.406141
C79	C	0.931264	0.545983	0.340083
C80	C	1.026863	0.466599	0.406136
C81	C	0.367907	1.013789	-0.049157
C82	C	0.272308	1.093173	-0.115210
C83	C	0.367921	1.013779	0.189100
C84	C	0.272327	1.093160	0.203911
C85	C	0.606155	1.013798	-0.049162
C86	C	0.591415	1.093186	-0.115215
C87	C	1.025210	0.429334	0.033529
C88	C	1.115022	0.354757	0.019597
C89	C	1.206467	0.317455	0.059157
C90	C	1.208097	0.354741	0.112647
C91	C	1.118286	0.429321	0.126573
C92	C	0.761203	0.429304	0.483693
C93	C	0.775048	0.354722	0.545767
C94	C	0.735450	0.317416	0.530286
C95	C	0.681996	0.354705	0.452728
C96	C	0.668146	0.429291	0.390656
C97	C	1.118285	0.429323	0.390629
C98	C	1.208116	0.354743	0.452687
C99	C	1.206523	0.317436	0.530250
C100	C	1.115091	0.354719	0.545756
C101	C	1.025261	0.429302	0.483700
C102	C	0.180884	1.130458	-0.099702
C103	C	0.091049	1.205061	-0.161755
C104	C	0.092641	1.242372	-0.239317
C105	C	0.184074	1.205084	-0.254824
C106	C	0.273906	1.130488	-0.192770
C107	C	0.273959	1.130446	0.257391
C108	C	0.184143	1.205043	0.271305
C109	C	0.092698	1.242348	0.231743
C110	C	0.091068	1.205059	0.178256
C111	C	0.180882	1.130468	0.164338
C112	C	0.631026	1.130468	-0.099711
C113	C	0.617195	1.205051	-0.161770
C114	C	0.563747	1.242357	-0.239332
C115	C	0.524136	1.205068	-0.254836
C116	C	0.537973	1.130481	-0.192778
H117	H	0.577737	0.415373	0.217097
F118	F	1.113267	0.315086	-0.037330
F119	F	0.659354	1.244728	-0.145253
H120	H	0.019573	1.303084	0.243083
F121	F	0.371272	1.090759	0.299503
F122	F	0.185753	1.244802	-0.337377
F123	F	0.687913	1.090778	-0.017169
H124	H	0.348345	1.100131	-0.205408
F125	F	0.467041	0.244911	0.328088
H126	H	0.950826	0.459643	0.496336
F127	F	0.549026	1.321742	-0.305372
F128	F	0.467246	1.244788	-0.337387
H129	H	0.746735	0.256683	0.580836
F130	F	0.611256	0.468981	0.183515
F131	F	0.492625	0.356935	0.302329
H132	H	1.279675	0.256705	0.580773
F133	F	0.185899	1.244712	0.328235
H134	H	0.649759	0.324320	0.440135
H135	H	0.179540	1.100112	0.120792
H136	H	0.721422	0.144415	0.073818
F137	F	0.927897	0.469023	-0.008585
H138	H	0.179570	1.100083	-0.036552
F139	F	1.305429	0.315028	0.154747
H140	H	1.279590	0.256726	0.047811
F141	F	-0.002975	1.321765	-0.305354
H142	H	0.818577	0.324370	0.608913
F143	F	0.495800	1.090818	-0.209290
H144	H	0.016601	1.235444	0.146048
H145	H	1.282555	0.324395	0.440048
H146	H	1.113809	0.324332	0.608916
H147	H	0.505738	0.100100	0.289595
F148	F	-0.006249	1.244729	-0.145236
F149	F	0.687916	0.090785	0.107414
H150	H	0.793167	0.212164	0.001968
H151	H	0.624628	0.459636	0.327511
F152	F	0.803325	0.469018	-0.008577
F153	F	0.832127	0.314863	-0.037161
F154	F	1.120040	0.468982	0.183507
H155	H	0.793451	0.459670	0.496312
F156	F	1.120002	0.469020	0.308086
