data_functionalizedCrystal
_audit_creation_method	'MofGen! by Chris Wilmer'
_symmetry_space_group_name_H-M	'P1'
_symmetry_Int_Tables_number	1
_symmetry_cell_setting	triclinic
loop_
_symmetry_equiv_pos_as_xyz
  x,y,z
_cell_length_a	19.288859
_cell_length_b	12.837942
_cell_length_c	18.366186
_cell_angle_alpha	89.994829
_cell_angle_beta	89.990083
_cell_angle_gamma	88.981333
loop_
_atom_site_label
_atom_site_type_symbol
_atom_site_fract_x
_atom_site_fract_y
_atom_site_fract_z
O1	O	0.930181	0.129245	-0.060564
O2	O	1.430181	0.629245	0.439436
O3	O	0.729111	0.146691	-0.060562
O4	O	1.229111	0.646691	0.439438
O5	O	0.825187	-0.012914	-0.060558
O6	O	1.325187	0.487086	0.439442
O7	O	0.834104	0.288850	-0.060567
O8	O	1.334104	0.788850	0.439433
O9	O	0.825169	-0.012922	0.060541
O10	O	1.325169	0.487078	0.560541
O11	O	0.729092	0.146683	0.060537
O12	O	1.229092	0.646683	0.560537
O13	O	0.930162	0.129237	0.060536
O14	O	1.430162	0.629237	0.560536
Zn15	Zn	0.829624	0.137959	0.079764
Zn16	Zn	1.329624	0.637959	0.579764
Zn17	Zn	0.829649	0.137969	-0.079790
Zn18	Zn	1.329649	0.637969	0.420210
O19	O	0.834086	0.288842	0.060532
O20	O	1.334086	0.788842	0.560532
C21	C	0.703187	0.146127	-0.000012
C22	C	1.203187	0.646127	0.499988
C23	C	0.625968	0.144445	-0.000011
C24	C	1.125968	0.644445	0.499989
C25	C	0.067545	0.226716	-0.000015
C26	C	0.567545	0.726716	0.499985
C27	C	0.140100	0.228305	-0.000019
C28	C	0.640100	0.728305	0.499981
C29	C	0.178412	0.134657	-0.000015
C30	C	0.678412	0.634657	0.499985
C31	C	0.144164	0.039411	-0.000025
C32	C	0.644164	0.539411	0.499975
C33	C	0.071610	0.037825	-0.000029
C34	C	0.571610	0.537825	0.499971
C35	C	0.294907	0.064811	0.042417
C36	C	0.794907	0.564811	0.542417
C37	C	0.367459	0.066402	0.042425
C38	C	0.867459	0.566402	0.542425
C39	C	0.402192	0.139547	-0.000007
C40	C	0.902192	0.639547	0.499993
C41	C	0.364363	0.211118	-0.042438
C42	C	0.864363	0.711118	0.457562
C43	C	0.291810	0.209532	-0.042441
C44	C	0.791810	0.709532	0.457559
C45	C	0.257085	0.136367	-0.000011
C46	C	0.757085	0.636367	0.499989
C47	C	0.515105	0.236509	-0.000006
C48	C	1.015105	0.736509	0.499994
C49	C	0.587661	0.238095	-0.000014
C50	C	1.087661	0.738095	0.499986
C51	C	0.591723	0.049198	-0.000014
C52	C	1.091723	0.549198	0.499986
C53	C	0.519168	0.047615	-0.000012
C54	C	1.019168	0.547615	0.499988
C55	C	0.480863	0.141274	-0.000005
C56	C	0.980863	0.641274	0.499995
C57	C	0.822166	-0.051524	-0.000009
C58	C	1.322166	0.448476	0.499991
C59	C	0.813182	-0.166559	-0.000010
C60	C	1.313182	0.333441	0.499990
C61	C	0.921187	-0.408025	-0.000026
C62	C	1.421187	0.091975	0.499974
C63	C	0.912749	-0.516111	-0.000027
C64	C	1.412749	-0.016111	0.499973
C65	C	0.787868	-0.490819	-0.000019
C66	C	1.287868	0.009181	0.499981
C67	C	0.796306	-0.382733	-0.000018
C68	C	1.296306	0.117267	0.499982
C69	C	0.862968	-0.341340	-0.000020
C70	C	1.362968	0.158660	0.499980
C71	C	0.871405	-0.233252	-0.000014
C72	C	1.371405	0.266748	0.499986
C73	C	0.746525	-0.207962	-0.000011
C74	C	1.246525	0.292038	0.499989
C75	C	0.738087	-0.316049	-0.000012
C76	C	1.238087	0.183951	0.499988
C77	C	0.956086	0.129802	-0.000016
C78	C	1.456086	0.629802	0.499984
C79	C	1.033305	0.131483	-0.000021
C80	C	1.533305	0.631483	0.499979
C81	C	0.837107	0.327452	-0.000019
C82	C	1.337107	0.827452	0.499981
C83	C	0.846091	0.442487	-0.000023
C84	C	1.346091	0.942487	0.499977
N85	N	0.829613	0.137951	0.188655
N86	N	1.329613	0.637951	0.688655
N87	N	0.829666	0.137969	-0.188681
N88	N	1.329666	0.637969	0.311319
C89	C	0.872173	0.067313	0.226757
C90	C	1.372173	0.567313	0.726757
C91	C	0.872177	0.067308	0.302985
C92	C	1.372177	0.567308	0.802985
C93	C	0.829629	0.137960	0.341107
C94	C	1.329629	0.637960	0.841107
C95	C	0.787060	0.208604	0.302996
C96	C	1.287060	0.708604	0.802996
C97	C	0.787052	0.208599	0.226770
C98	C	1.287052	0.708599	0.726770
C99	C	0.826778	0.232383	0.461865
C100	C	1.326778	0.732383	0.961865
C101	C	0.826791	0.232388	0.538090
C102	C	1.326791	0.732388	1.038090
C103	C	0.829649	0.137973	0.576215
C104	C	1.329649	0.637973	1.076215
C105	C	0.832509	0.043548	0.538106
C106	C	1.332509	0.543548	1.038106
C107	C	0.832501	0.043543	0.461879
C108	C	1.332501	0.543543	0.961879
C109	C	0.829632	0.137972	0.423762
C110	C	1.329632	0.637972	0.923762
C111	C	0.872216	0.067324	0.696972
C112	C	1.372216	0.567324	1.196972
C113	C	0.872215	0.067318	0.773201
C114	C	1.372215	0.567318	1.273201
C115	C	0.787102	0.208622	0.773211
C116	C	1.287102	0.708622	1.273211
C117	C	0.787099	0.208619	0.696984
C118	C	1.287099	0.708619	1.196984
C119	C	0.829660	0.137971	0.658868
C120	C	1.329660	0.637971	1.158868
H121	H	0.036362	0.302981	-0.000013
H122	H	0.536362	0.802981	0.499987
H123	H	0.960158	-0.570403	-0.000035
H124	H	1.460158	-0.070403	0.499965
H125	H	0.975466	-0.374323	-0.000021
H126	H	1.475466	0.125677	0.499979
N127	N	0.715975	-0.535480	-0.000022
N128	N	1.215975	-0.035480	0.499978
H129	H	0.690137	-0.511156	0.044871
H130	H	1.190137	-0.011156	0.544871
H131	H	0.690210	-0.511119	-0.044942
H132	H	1.190210	-0.011119	0.455058
N133	N	0.473788	0.337524	-0.000011
N134	N	0.973788	0.837524	0.499989
H135	H	0.443602	0.341076	-0.044903
H136	H	0.943602	0.841076	0.455097
H137	H	0.443629	0.341015	0.044910
H138	H	0.943629	0.841015	0.544910
H139	H	0.699118	-0.153655	0.000000
H140	H	1.199118	0.346345	0.500000
N141	N	0.408257	-0.010777	0.088195
N142	N	0.908257	0.489223	0.588195
H143	H	0.375246	-0.057361	0.115070
H144	H	0.875246	0.442639	0.615070
H145	H	0.439327	-0.054547	0.055656
H146	H	0.939327	0.445453	0.555656
H147	H	0.925685	-0.199552	-0.000013
H148	H	1.425685	0.300448	0.499987
N149	N	0.741193	0.284807	0.655882
N150	N	1.241193	0.784807	1.155882
H151	H	0.714238	0.329565	0.691597
H152	H	1.214238	0.829565	1.191597
H153	H	0.770801	0.330520	0.624240
H154	H	1.270801	0.830520	1.124240
H155	H	0.752393	0.266123	0.195747
H156	H	1.252393	0.766123	0.695747
H157	H	0.392641	0.270682	-0.076988
H158	H	0.892641	0.770682	0.423012
N159	N	0.177043	0.331024	-0.000013
N160	N	0.677043	0.831024	0.499987
H161	H	0.141767	0.390114	-0.000010
H162	H	0.641767	0.890114	0.499990
H163	H	0.207047	0.335780	0.044883
H164	H	0.707047	0.835780	0.544883
H165	H	0.824467	0.309275	0.569113
H166	H	1.324467	0.809275	1.069113
N167	N	0.666189	-0.360693	-0.000001
N168	N	1.166189	0.139307	0.499999
H169	H	0.640362	-0.336346	-0.044888
H170	H	1.140362	0.163654	0.455112
H171	H	0.669734	-0.439277	0.000025
H172	H	1.169734	0.060723	0.500025
N173	N	0.918116	-0.008873	0.655855
N174	N	1.418116	0.491127	1.155855
H175	H	0.945075	-0.053630	0.691563
H176	H	1.445075	0.446370	1.191563
H177	H	0.888500	-0.054584	0.624238
H178	H	1.388500	0.445416	1.124238
N179	N	0.257448	-0.014091	0.088181
N180	N	0.757448	0.485909	0.588181
H181	H	0.292419	-0.059183	0.115064
H182	H	0.792419	0.440817	0.615064
H183	H	0.226517	0.023379	0.124418
H184	H	0.726517	0.523379	0.624418
H185	H	0.906836	0.009784	0.334013
H186	H	1.406836	0.509784	0.834013
H187	H	0.906827	0.009785	0.195726
H188	H	1.406827	0.509785	0.695726
H189	H	0.834828	-0.033341	0.430854
H190	H	1.334828	0.466659	0.930854
H191	H	0.261013	0.267806	-0.076991
H192	H	0.761013	0.767806	0.423009
H193	H	0.834836	-0.033334	0.569145
H194	H	1.334836	0.466666	1.069145
H195	H	0.491289	-0.029934	-0.000013
H196	H	0.991289	0.470066	0.499987
H197	H	0.906871	0.009790	0.804224
H198	H	1.406871	0.509790	1.304224
N199	N	0.624596	0.340815	-0.000021
N200	N	1.124596	0.840815	0.499979
H201	H	0.589317	0.399902	-0.000018
H202	H	1.089317	0.899902	0.499982
H203	H	0.654607	0.345583	0.044869
H204	H	1.154607	0.845583	0.544869
N205	N	0.741203	0.284819	0.814318
N206	N	1.241203	0.784819	1.314318
H207	H	0.747664	0.274102	0.868390
H208	H	1.247664	0.774102	1.368390
H209	H	0.754084	0.358306	0.800986
H210	H	1.254084	0.858306	1.300986
H211	H	0.824439	0.309272	0.430830
H212	H	1.324439	0.809272	0.930830
N213	N	0.034674	-0.064894	-0.000035
N214	N	0.534674	0.435106	0.499965
H215	H	0.069951	-0.123983	-0.000035
H216	H	0.569951	0.376017	0.499965
H217	H	0.004653	-0.069672	0.044858
H218	H	0.504653	0.430328	0.544858
N219	N	0.633034	-0.051812	-0.000017
N220	N	1.133034	0.448188	0.499983
H221	H	0.684193	-0.036358	-0.000016
H222	H	1.184193	0.463642	0.499984
H223	H	0.621232	-0.093340	0.044875
H224	H	1.121232	0.406660	0.544875
N225	N	0.185481	-0.061597	-0.000024
N226	N	0.685481	0.438403	0.499976
H227	H	0.236639	-0.046142	-0.000018
H228	H	0.736639	0.453858	0.499982
H229	H	0.173675	-0.103124	0.044868
H230	H	0.673675	0.396876	0.544868
N231	N	0.741171	0.284810	0.344112
N232	N	1.241171	0.784810	0.844112
H233	H	0.714206	0.329560	0.308404
H234	H	1.214206	0.829560	0.808404
H235	H	0.707855	0.245253	0.375753
H236	H	1.207855	0.745253	0.875753
