data_functionalizedCrystal
_audit_creation_method	'MofGen! by Chris Wilmer'
_symmetry_space_group_name_H-M	'P1'
_symmetry_Int_Tables_number	1
_symmetry_cell_setting	triclinic
loop_
_symmetry_equiv_pos_as_xyz
  x,y,z
_cell_length_a	10.540539
_cell_length_b	14.519709
_cell_length_c	13.596369
_cell_angle_alpha	90.006934
_cell_angle_beta	89.998267
_cell_angle_gamma	95.897182
loop_
_atom_site_label
_atom_site_type_symbol
_atom_site_fract_x
_atom_site_fract_y
_atom_site_fract_z
O1	O	1.684562	-0.129969	-0.081713
O2	O	2.184562	0.370031	0.418287
O3	O	1.315024	-0.142215	-0.081733
O4	O	1.815024	0.357785	0.418267
O5	O	1.509591	-0.001906	-0.081713
O6	O	2.009591	0.498094	0.418287
O7	O	1.489995	-0.270278	-0.081732
O8	O	1.989995	0.229722	0.418268
O9	O	1.509571	-0.001899	0.081870
O10	O	2.009571	0.498101	0.581870
O11	O	1.315004	-0.142207	0.081850
O12	O	1.815004	0.357793	0.581850
O13	O	1.684542	-0.129962	0.081870
O14	O	2.184542	0.370038	0.581870
Zn15	Zn	1.499770	-0.136083	0.107832
Zn16	Zn	1.999770	0.363917	0.607832
Zn17	Zn	1.499796	-0.136093	-0.107695
Zn18	Zn	1.999796	0.363907	0.392305
O19	O	1.489976	-0.270270	0.081851
O20	O	1.989976	0.229730	0.581851
C21	C	1.508668	0.032462	0.000078
C22	C	2.008668	0.532462	0.500078
C23	C	1.505931	0.134858	0.000079
C24	C	2.005931	0.634858	0.500079
C25	C	1.731846	-0.130884	0.000079
C26	C	2.231846	0.369116	0.500079
C27	C	1.872766	-0.133631	0.000080
C28	C	2.372766	0.366369	0.500080
C29	C	1.267720	-0.141293	0.000056
C30	C	1.767720	0.358707	0.500056
C31	C	1.126800	-0.138545	0.000049
C32	C	1.626800	0.361455	0.500049
C33	C	2.055118	-0.238911	0.000417
C34	C	2.555118	0.261089	0.500417
C35	C	1.908528	-0.236126	0.000065
C36	C	2.408528	0.263874	0.500065
C37	C	1.934912	-0.084310	-0.093336
C38	C	2.434912	0.415690	0.406664
C39	C	2.081421	-0.087808	-0.093431
C40	C	2.581421	0.412192	0.406569
C41	C	2.081990	-0.085716	0.092594
C42	C	2.581990	0.414284	0.592594
C43	C	1.935018	-0.084772	0.093845
C44	C	2.435018	0.415228	0.593845
C45	C	1.490899	-0.304639	0.000057
C46	C	1.990899	0.195361	0.500057
C47	C	1.493635	-0.407035	0.000050
C48	C	1.993635	0.092965	0.500050
N49	N	1.499762	-0.136076	0.254924
N50	N	1.999762	0.363924	0.754924
C51	C	1.495856	0.509808	0.000052
C52	C	1.995856	1.009808	0.500052
C53	C	1.498654	0.405485	0.000060
C54	C	1.998654	0.905485	0.500060
C55	C	1.500893	0.322337	0.000066
C56	C	2.000893	0.822337	0.500066
C57	C	1.503692	0.218007	0.000072
C58	C	2.003692	0.718007	0.500072
N59	N	1.499814	-0.136093	-0.254787
N60	N	1.999814	0.363907	0.245213
C61	C	1.499794	-0.136094	0.656215
C62	C	1.999794	0.363906	1.156215
C63	C	1.499781	-0.136092	0.544564
C64	C	1.999781	0.363908	1.044564
C65	C	1.499779	-0.136086	0.455573
C66	C	1.999779	0.363914	0.955573
C67	C	1.499765	-0.136082	0.343915
C68	C	1.999765	0.363918	0.843915
H69	H	2.083317	-0.279396	0.067398
H70	H	2.583317	0.220604	0.567398
H71	H	2.130141	-0.014097	-0.097682
H72	H	2.630141	0.485903	0.402318
C73	C	2.094713	-0.292979	-0.088234
C74	C	2.594713	0.207021	0.411766
C75	C	1.987347	-0.320256	-0.145907
C76	C	2.487347	0.179744	0.354093
C77	C	2.023843	-0.370176	-0.227475
C78	C	2.523843	0.129824	0.272525
H79	H	2.155063	-0.255063	-0.126201
H80	H	2.655063	0.244937	0.373799
H81	H	2.131934	-0.346269	-0.066473
H82	H	2.631934	0.153731	0.433527
H83	H	1.950146	-0.266974	-0.167669
H84	H	2.450146	0.233026	0.332331
H85	H	1.926985	-0.358184	-0.107970
H86	H	2.426985	0.141816	0.392030
H87	H	2.061064	-0.423467	-0.205714
H88	H	2.561064	0.076533	0.294286
H89	H	2.084195	-0.332255	-0.265434
H90	H	2.584195	0.167745	0.234566
H91	H	1.951001	-0.388698	-0.266611
H92	H	2.451001	0.111302	0.233389
H93	H	1.893725	-0.120812	0.162952
H94	H	2.393725	0.379188	0.662952
C95	C	2.123364	-0.129937	0.187075
C96	C	2.623364	0.370063	0.687075
C97	C	2.015547	-0.159975	0.243108
C98	C	2.515547	0.340025	0.743108
C99	C	2.053610	-0.200715	0.330149
C100	C	2.553610	0.299285	0.830149
H101	H	2.168666	-0.181329	0.171594
H102	H	2.668666	0.318671	0.671594
H103	H	2.177007	-0.085794	0.223600
H104	H	2.677007	0.414206	0.723600
H105	H	1.961925	-0.204114	0.206590
H106	H	2.461925	0.295886	0.706590
H107	H	1.970232	-0.108600	0.258615
H108	H	2.470232	0.391400	0.758615
H109	H	2.107253	-0.156572	0.366675
H110	H	2.607253	0.343428	0.866675
H111	H	2.098913	-0.252103	0.314659
H112	H	2.598913	0.247897	0.814659
H113	H	1.980464	-0.221093	0.368183
H114	H	2.480464	0.278907	0.868183
C115	C	1.905937	0.016015	-0.097818
C116	C	2.405937	0.516015	0.402182
C117	C	1.831558	0.035384	-0.016533
C118	C	2.331558	0.535384	0.483467
C119	C	1.804825	0.127790	-0.020634
C120	C	2.304825	0.627790	0.479366
H121	H	1.983508	0.055588	-0.096913
H122	H	2.483508	0.555588	0.403087
H123	H	1.860662	0.025982	-0.156643
H124	H	2.360662	0.525982	0.343357
H125	H	1.876833	0.025426	0.042276
H126	H	2.376833	0.525426	0.542276
H127	H	1.753973	-0.004166	-0.017421
H128	H	2.253973	0.495834	0.482579
H129	H	1.759550	0.137756	-0.079459
H130	H	2.259550	0.637756	0.420541
H131	H	1.882402	0.167355	-0.019732
H132	H	2.382402	0.667355	0.480268
H133	H	1.754347	0.140941	0.034511
H134	H	2.254347	0.640941	0.534511
C135	C	2.145729	0.013063	0.093390
C136	C	2.645729	0.513063	0.593390
C137	C	2.052224	0.074874	0.090356
C138	C	2.552224	0.574874	0.590356
C139	C	2.110898	0.165872	0.091068
C140	C	2.610898	0.665872	0.591068
H141	H	2.194872	0.023258	0.151667
H142	H	2.694872	0.523258	0.651667
H143	H	2.199804	0.022670	0.037637
H144	H	2.699804	0.522670	0.537637
H145	H	1.998172	0.065271	0.146104
H146	H	2.498172	0.565271	0.646104
H147	H	2.003076	0.064708	0.032083
H148	H	2.503076	0.564708	0.532083
H149	H	2.164972	0.175479	0.035315
H150	H	2.664972	0.675479	0.535315
H151	H	2.160039	0.176058	0.149346
H152	H	2.660039	0.676058	0.649346
H153	H	2.047465	0.207822	0.089001
H154	H	2.547465	0.707822	0.589001
H155	H	1.865538	-0.274939	0.067026
H156	H	2.365538	0.225061	0.567026
H157	H	1.911563	-0.010045	0.099494
H158	H	2.411563	0.489955	0.599494
C159	C	2.118258	-0.136492	-0.186574
C160	C	2.618258	0.363508	0.313426
C161	C	2.008650	-0.162479	-0.242238
C162	C	2.508650	0.337521	0.257762
C163	C	2.042524	-0.207342	-0.328042
C164	C	2.542524	0.292658	0.171958
H165	H	2.175677	-0.095745	-0.224039
H166	H	2.675677	0.404255	0.275961
H167	H	2.158152	-0.190060	-0.169550
H168	H	2.658152	0.309940	0.330450
H169	H	1.968775	-0.108919	-0.259264
H170	H	2.468775	0.391081	0.240736
H171	H	1.951218	-0.203237	-0.204803
H172	H	2.451218	0.296763	0.295197
H173	H	2.082418	-0.260910	-0.311018
H174	H	2.582418	0.239090	0.188982
H175	H	2.099945	-0.166590	-0.365498
H176	H	2.599945	0.333410	0.134502
H177	H	1.968160	-0.224988	-0.365816
H178	H	2.468160	0.275012	0.134184
H179	H	1.866363	-0.275209	-0.067010
H180	H	2.366363	0.224791	0.432990
H181	H	1.891917	-0.118554	-0.162850
H182	H	2.391917	0.381446	0.337150
