data_functionalizedCrystal
_audit_creation_method	'MofGen! by Chris Wilmer'
_symmetry_space_group_name_H-M	'P1'
_symmetry_Int_Tables_number	1
_symmetry_cell_setting	triclinic
loop_
_symmetry_equiv_pos_as_xyz
  x,y,z
_cell_length_a	15.995350
_cell_length_b	14.472310
_cell_length_c	15.995350
_cell_angle_alpha	90.001162
_cell_angle_beta	96.507625
_cell_angle_gamma	90.009379
loop_
_atom_site_label
_atom_site_type_symbol
_atom_site_fract_x
_atom_site_fract_y
_atom_site_fract_z
O1	O	1.110997	0.076758	-0.107921
O2	O	0.867221	0.076776	-0.121248
O3	O	0.995773	0.076766	0.007303
O4	O	0.982445	0.076769	-0.236472
O5	O	0.995740	-0.076916	0.007296
O6	O	0.867188	-0.076906	-0.121256
O7	O	1.110963	-0.076924	-0.107928
Cu8	Cu	0.989073	-0.090947	-0.114593
Cu9	Cu	0.989112	0.090800	-0.114584
O10	O	0.982412	-0.076913	-0.236480
C11	C	0.836010	-0.000062	-0.120701
C12	C	0.743060	-0.000055	-0.119049
N13	N	0.989051	-0.218778	-0.114598
C14	C	0.405312	-0.000074	-0.113117
C15	C	0.452746	-0.000418	-0.021565
C16	C	0.549436	-0.000065	-0.023217
C17	C	0.572873	-0.000065	-0.116060
C18	C	0.531804	0.087692	-0.161212
C19	C	0.435169	0.087759	-0.158912
C20	C	0.434792	-0.087007	-0.160812
C21	C	0.531737	-0.088160	-0.160790
C22	C	0.667570	-0.000057	-0.117727
C23	C	0.310614	-0.000076	-0.111452
C24	C	0.989111	-0.592869	-0.114581
C25	C	0.920095	-0.553698	-0.183135
C26	C	0.920254	-0.446610	-0.183385
C27	C	0.989081	-0.407278	-0.114590
C28	C	1.076445	-0.446122	-0.133671
C29	C	1.076057	-0.553243	-0.134159
C30	C	0.971542	-0.553398	-0.026741
C31	C	0.969538	-0.446270	-0.027327
C32	C	0.989069	-0.302390	-0.114593
C33	C	0.989128	-0.697757	-0.114579
C34	C	1.142175	-0.000083	-0.108476
C35	C	1.235125	-0.000084	-0.110127
C36	C	0.995205	-0.000073	0.038494
C37	C	0.993553	-0.000068	0.131444
N38	N	0.989140	0.218631	-0.114572
C39	C	0.982980	-0.000072	-0.267671
C40	C	0.984631	-0.000071	-0.360621
C41	C	0.987621	-0.000071	0.469192
C42	C	0.896069	0.000281	0.421758
C43	C	0.897721	-0.000066	0.325068
C44	C	0.990564	-0.000069	0.301631
C45	C	1.035701	-0.087831	0.342705
C46	C	1.033401	-0.087904	0.439340
C47	C	1.035330	0.086861	0.439707
C48	C	1.035309	0.088021	0.342762
C49	C	0.992231	-0.000071	0.206934
C50	C	0.985956	-0.000075	0.563890
H51	H	0.434210	-0.063352	0.015027
H52	H	1.021872	-0.578728	0.024275
C53	C	0.391597	0.093147	-0.249708
H54	H	0.332297	0.093219	-0.248919
H55	H	0.408198	0.148287	-0.275505
H56	H	0.407407	0.041248	-0.280710
H57	H	1.002307	0.152945	0.315516
H58	H	0.859490	0.063217	0.440293
H59	H	0.414242	-0.153524	-0.130885
H60	H	1.129018	-0.579154	-0.086196
C61	C	0.849777	0.084911	0.286670
H62	H	0.829109	0.119954	0.330160
H63	H	0.886678	0.122043	0.258381
H64	H	0.803945	0.065156	0.247790
H65	H	0.545930	0.090955	-0.229421
H66	H	0.931159	-0.580608	-0.247952
H67	H	0.905272	-0.420883	-0.012845
C68	C	1.033039	-0.410120	0.044821
H69	H	1.072480	-0.370602	0.022569
H70	H	1.003986	-0.376676	0.083693
H71	H	1.061847	-0.460790	0.072703
C72	C	0.846836	-0.084262	0.448211
H73	H	0.881834	-0.119774	0.488035
H74	H	0.798642	-0.064083	0.472757
H75	H	0.829674	-0.121099	0.400156
H76	H	0.931473	-0.420976	-0.248569
C77	C	1.147489	-0.411704	-0.068022
H78	H	1.199748	-0.436011	-0.080747
H79	H	1.149490	-0.346121	-0.069204
H80	H	1.137062	-0.431763	-0.013609
H81	H	1.102831	0.087449	0.471468
H82	H	0.577852	-0.062973	0.012275
H83	H	1.092297	-0.419285	-0.197002
C84	C	0.570146	0.175925	-0.118844
H85	H	0.544889	0.228663	-0.146620
H86	H	0.560178	0.176716	-0.061422
H87	H	0.629031	0.176835	-0.122366
H88	H	1.000459	-0.153505	0.457639
C89	C	0.887330	-0.589917	-0.001971
H90	H	0.862096	-0.629582	-0.044974
H91	H	0.897111	-0.623280	0.049348
H92	H	0.850819	-0.539411	0.004973
C93	C	0.993317	-0.176059	0.304371
H94	H	1.021082	-0.228801	0.329632
H95	H	0.935895	-0.176845	0.314342
H96	H	0.996836	-0.176968	0.245486
H97	H	0.559040	-0.153082	-0.127830
H98	H	1.091540	-0.578220	-0.198219
H99	H	0.416874	0.153359	-0.125979
C100	C	0.849442	-0.085197	0.287416
H101	H	0.828748	-0.119708	0.331224
H102	H	0.803624	-0.065631	0.248446
H103	H	0.886179	-0.122788	0.259362
C104	C	0.552488	-0.095325	-0.252253
H105	H	0.586657	-0.044452	-0.264413
H106	H	0.581828	-0.151336	-0.259342
H107	H	0.501775	-0.094584	-0.289436
H108	H	1.005412	0.153379	0.460250
H109	H	1.100617	-0.091888	0.471588
C110	C	1.126775	0.095178	0.322017
H111	H	1.138928	0.044306	0.287853
H112	H	1.133879	0.151190	0.292675
H113	H	1.163954	0.094431	0.372734
H114	H	0.433166	0.062168	0.014865
C115	C	1.127842	-0.092253	0.323619
H116	H	1.139628	-0.040494	0.290349
H117	H	1.164148	-0.091442	0.374906
H118	H	1.136588	-0.147550	0.293810
H119	H	0.577308	0.062951	0.012521
H120	H	0.403031	-0.087600	-0.228313
H121	H	0.855314	-0.420349	-0.172016
H122	H	0.854945	-0.579481	-0.171953
