data_functionalizedCrystal
_audit_creation_method	'MofGen! by Chris Wilmer'
_symmetry_space_group_name_H-M	'P1'
_symmetry_Int_Tables_number	1
_symmetry_cell_setting	triclinic
loop_
_symmetry_equiv_pos_as_xyz
  x,y,z
_cell_length_a	12.594517
_cell_length_b	13.897448
_cell_length_c	13.897441
_cell_angle_alpha	90.030599
_cell_angle_beta	90.012353
_cell_angle_gamma	90.013579
loop_
_atom_site_label
_atom_site_type_symbol
_atom_site_fract_x
_atom_site_fract_y
_atom_site_fract_z
Zn1	Zn	1.627264	-0.384090	0.545165
Zn2	Zn	1.627147	-0.545412	0.383867
Zn3	Zn	1.449265	-0.384121	0.383907
Zn4	Zn	1.449245	-0.545333	0.545143
O5	O	1.538230	-0.464739	0.464521
O6	O	1.776194	-0.405510	0.523761
O7	O	1.603510	-0.524062	0.248890
O8	O	1.472934	-0.249135	0.405325
O9	O	1.776108	-0.524032	0.405256
O10	O	1.603709	-0.249113	0.523801
O11	O	1.472821	-0.405562	0.248920
O12	O	1.300317	-0.405486	0.405303
O13	O	1.472900	-0.523898	0.680128
O14	O	1.300302	-0.523928	0.523762
O15	O	1.603690	-0.405434	0.680144
O16	O	1.603490	-0.680383	0.405234
O17	O	1.472787	-0.680325	0.523723
C18	C	1.261689	-0.464703	0.464535
C19	C	1.143384	-0.464710	0.464564
C20	C	1.538153	-0.715353	0.464493
C21	C	1.538217	-0.822567	0.464513
C22	C	1.538328	-1.018862	0.464574
C23	C	1.538263	-0.909630	0.464543
C24	C	1.074154	-0.529257	0.528870
C25	C	1.003348	-0.441309	0.552597
C26	C	1.003390	-0.552730	0.440816
C27	C	1.074137	-0.376716	0.488338
C28	C	1.074185	-0.488196	0.376516
C29	C	1.003412	-0.400188	0.400209
C30	C	1.815851	-0.464776	0.464506
C31	C	1.934156	-0.464792	0.464500
C32	C	1.538306	-0.464654	0.716114
C33	C	1.538338	-0.464617	0.823328
C34	C	1.538337	-0.213146	0.464570
C35	C	1.538383	-0.105932	0.464591
C36	C	1.538216	-0.464754	0.213906
C37	C	1.538390	-0.464519	0.106693
C38	C	1.538367	-0.464552	1.019623
C39	C	1.538347	-0.464591	0.910390
H40	H	1.105218	-0.583737	0.583321
C41	C	0.961297	-0.414520	0.653150
N42	N	0.929623	-0.394351	0.728888
H43	H	1.105083	-0.302291	0.508482
C44	C	0.961703	-0.326409	0.326710
N45	N	0.930284	-0.270836	0.271356
H46	H	1.105324	-0.508058	0.302103
C47	C	0.961421	-0.653248	0.413706
N48	N	0.929818	-0.728961	0.393291
