data_functionalizedCrystal
_audit_creation_method	'MofGen! by Chris Wilmer'
_symmetry_space_group_name_H-M	'P1'
_symmetry_Int_Tables_number	1
_symmetry_cell_setting	triclinic
loop_
_symmetry_equiv_pos_as_xyz
  x,y,z
_cell_length_a	29.839131
_cell_length_b	12.827893
_cell_length_c	12.827885
_cell_angle_alpha	90.021379
_cell_angle_beta	89.967349
_cell_angle_gamma	89.960088
loop_
_atom_site_label
_atom_site_type_symbol
_atom_site_fract_x
_atom_site_fract_y
_atom_site_fract_z
Zn1	Zn	-0.178853	-1.597481	-0.590881
Zn2	Zn	-0.253990	-1.597294	-0.416133
Zn3	Zn	-0.178873	-1.422721	-0.416149
Zn4	Zn	-0.253954	-1.422627	-0.590827
O5	O	-0.216418	-1.510031	-0.503497
O6	O	-0.188827	-1.743692	-0.567716
O7	O	-0.244049	-1.574098	-0.269899
O8	O	-0.116003	-1.446021	-0.439357
O9	O	-0.244030	-1.743555	-0.439329
O10	O	-0.115988	-1.574416	-0.567732
O11	O	-0.188860	-1.445840	-0.269911
O12	O	-0.188826	-1.276473	-0.439304
O13	O	-0.243969	-1.445860	-0.737070
O14	O	-0.243988	-1.276403	-0.567640
O15	O	-0.188792	-1.574324	-0.737110
O16	O	-0.316853	-1.574006	-0.439277
O17	O	-0.316826	-1.445679	-0.567624
C18	C	-0.216405	-1.238521	-0.503469
C19	C	-0.216411	-1.122368	-0.503481
C20	C	-0.189142	-1.070651	-0.567108
C21	C	-0.189148	-0.950600	-0.567122
C22	C	-0.333140	-1.509841	-0.503465
C23	C	-0.383075	-1.509855	-0.503487
C24	C	-0.739664	-1.443254	-0.570323
C25	C	-0.551991	-1.443116	-0.570291
O26	O	-0.527728	-1.386261	-0.627098
N27	N	-0.528520	-1.509965	-0.503518
C28	C	-0.551970	-1.576859	-0.436753
O29	O	-0.527700	-1.633723	-0.379966
C30	C	-0.739642	-1.577002	-0.436792
C31	C	-0.763111	-1.510140	-0.503562
C32	C	-0.763132	-1.376399	-0.637088
C33	C	-0.810048	-1.376430	-0.637092
C34	C	-0.833495	-1.443316	-0.570330
C35	C	-0.810026	-1.510171	-0.503565
C36	C	-0.763091	-1.643900	-0.370034
C37	C	-0.810012	-1.643932	-0.370051
C38	C	-0.833481	-1.577070	-0.436821
C39	C	-0.880388	-1.577089	-0.436807
N40	N	-0.903859	-1.510239	-0.503580
C41	C	-0.880412	-1.443353	-0.570341
C42	C	-0.453439	-1.576778	-0.436736
C43	C	-0.406521	-1.576741	-0.436725
C44	C	-0.406545	-1.442999	-0.570264
C45	C	-0.453464	-1.443031	-0.570269
C46	C	-0.476910	-1.509928	-0.503509
C47	C	-0.978938	-1.443423	-0.570343
C48	C	-1.025858	-1.443457	-0.570338
C49	C	-1.025830	-1.577203	-0.436803
C50	C	-0.978914	-1.577165	-0.436804
C51	C	-0.955470	-1.510272	-0.503583
O52	O	-0.904680	-1.633922	-0.380038
O53	O	-0.904690	-1.386514	-0.627137
C54	C	-0.692748	-1.443223	-0.570320
C55	C	-0.669280	-1.510078	-0.503555
C56	C	-0.692727	-1.576964	-0.436793
C57	C	-0.622362	-1.510041	-0.503544
C58	C	-0.598915	-1.443155	-0.570305
C59	C	-0.622386	-1.376305	-0.637078
C60	C	-0.669301	-1.376336	-0.637081
C61	C	-0.669256	-1.643814	-0.370021
C62	C	-0.622340	-1.643777	-0.370022
C63	C	-0.598893	-1.576890	-0.436783
C64	C	-0.099239	-1.510250	-0.503553
C65	C	-0.049305	-1.510343	-0.503576
C66	C	-0.216374	-1.510103	-0.776068
C67	C	-0.216356	-1.510133	-0.892221
C68	C	-0.216426	-0.782601	-0.503519
C69	C	-0.216421	-0.898754	-0.503506
C70	C	-0.189042	-1.446688	-0.944012
C71	C	-0.189022	-1.446718	-1.064062
C72	C	-0.216428	-1.510019	-0.231988
C73	C	-0.216320	-1.510191	-0.115835
H74	H	-0.959855	-1.388953	-0.624721
H75	H	-0.239770	-0.943223	-0.449036
O76	O	-0.244331	-1.069286	-0.438555
C77	C	-0.289128	-1.095808	-0.461203
H78	H	-0.290107	-1.175101	-0.501291
H79	H	-0.304264	-1.034406	-0.514931
C80	C	-0.315089	-1.003226	-0.309977
C81	C	-0.316292	-1.100618	-0.359205
H82	H	-0.331846	-1.006188	-0.247061
H83	H	-0.284909	-0.985353	-0.294719
H84	H	-0.327702	-0.952067	-0.354761
H85	H	-0.303674	-1.151771	-0.314426
H86	H	-0.346471	-1.118500	-0.374452
H87	H	-0.165635	-1.392404	-1.108601
O88	O	-0.161098	-1.381904	-0.891007
C89	C	-0.116308	-1.404822	-0.917602
H90	H	-0.115333	-1.444949	-0.996879
H91	H	-0.101212	-1.458612	-0.856204
C92	C	-0.090286	-1.253707	-0.825130
C93	C	-0.089089	-1.302984	-0.922504
H94	H	-0.073495	-1.190890	-0.828150
H95	H	-0.120462	-1.238268	-0.807209
H96	H	-0.077707	-1.298543	-0.773976
H97	H	-0.101673	-1.258154	-0.973653
H98	H	-0.058914	-1.318413	-0.940434
H99	H	-0.387417	-1.631175	-0.382344
H100	H	-0.239704	-1.564516	-1.071303
H101	H	-0.239727	-1.564473	-0.936758
H102	H	-0.743990	-1.698345	-0.315665
H103	H	-0.829152	-1.321982	-0.691461
H104	H	-0.829100	-1.698412	-0.315689
H105	H	-0.387447	-1.388536	-0.624622
O106	O	-0.161358	-0.897435	-0.632165
C107	C	-0.186998	-0.834319	-0.699524
H108	H	-0.221032	-0.818010	-0.662516
H109	H	-0.191955	-0.876353	-0.776979
C110	C	-0.120534	-0.750656	-0.763920
C111	C	-0.162334	-0.730617	-0.718463
H112	H	-0.105319	-0.686689	-0.775607
H113	H	-0.103259	-0.793181	-0.718542
H114	H	-0.124670	-0.785686	-0.828461
H115	H	-0.158196	-0.695599	-0.653918
H116	H	-0.179607	-0.688083	-0.763831
H117	H	-1.044964	-1.389008	-0.624712
O118	O	-0.740430	-1.311318	-0.701977
C119	C	-0.771214	-1.252348	-0.760917
H120	H	-0.804670	-1.248801	-0.718109
H121	H	-0.776165	-1.290568	-0.840324
C122	C	-0.711866	-1.145451	-0.828441
C123	C	-0.752957	-1.141087	-0.775858
H124	H	-0.700604	-1.076821	-0.837662
H125	H	-0.691126	-1.185183	-0.788735
H126	H	-0.715997	-1.177306	-0.894608
H127	H	-0.748824	-1.109245	-0.709688
H128	H	-0.773696	-1.101347	-0.815554
H129	H	-0.472569	-1.388592	-0.624645
H130	H	-0.472525	-1.631256	-0.382368
O131	O	-0.956184	-1.642199	-0.371900
C132	C	-0.986942	-1.701213	-0.312949
H133	H	-1.020374	-1.704829	-0.355759
H134	H	-0.991968	-1.662987	-0.233550
C135	C	-0.927528	-1.807990	-0.245403
C136	C	-0.968589	-1.812438	-0.297987
H137	H	-0.916207	-1.876597	-0.236168
H138	H	-0.906805	-1.768228	-0.285115
H139	H	-0.931722	-1.776130	-0.179242
H140	H	-0.964394	-1.844286	-0.364150
H141	H	-0.989311	-1.852208	-0.258284
H142	H	-1.044929	-1.631656	-0.382444
O143	O	-0.599584	-1.311483	-0.702044
C144	C	-0.572394	-1.370934	-0.769564
H145	H	-0.586501	-1.453241	-0.776097
H146	H	-0.536845	-1.374539	-0.737242
C147	C	-0.554329	-1.218735	-0.870129
C148	C	-0.571659	-1.319823	-0.878161
H149	H	-0.553874	-1.187206	-0.937116
H150	H	-0.572647	-1.178680	-0.824638
H151	H	-0.524707	-1.221753	-0.843191
H152	H	-0.601283	-1.316802	-0.905087
H153	H	-0.553346	-1.359876	-0.923659
H154	H	-0.688405	-1.321892	-0.691454
O155	O	-0.599615	-1.708829	-0.305122
C156	C	-0.630377	-1.767849	-0.246186
H157	H	-0.663808	-1.771449	-0.288999
H158	H	-0.635403	-1.729637	-0.166779
C159	C	-0.570968	-1.874651	-0.178655
C160	C	-0.612028	-1.879081	-0.231244
H161	H	-0.559650	-1.943263	-0.169433
H162	H	-0.550243	-1.834886	-0.218358
H163	H	-0.575162	-1.842804	-0.112489
H164	H	-0.607833	-1.910915	-0.297413
H165	H	-0.632753	-1.918854	-0.191551
H166	H	-0.688341	-1.698283	-0.315655
H167	H	-0.165791	-1.115250	-0.621567
