data_functionalizedCrystal
_audit_creation_method	'MofGen! by Chris Wilmer'
_symmetry_space_group_name_H-M	'P1'
_symmetry_Int_Tables_number	1
_symmetry_cell_setting	triclinic
loop_
_symmetry_equiv_pos_as_xyz
  x,y,z
_cell_length_a	23.532407
_cell_length_b	17.699083
_cell_length_c	16.776229
_cell_angle_alpha	90.001114
_cell_angle_beta	89.988688
_cell_angle_gamma	96.934153
loop_
_atom_site_label
_atom_site_type_symbol
_atom_site_fract_x
_atom_site_fract_y
_atom_site_fract_z
O1	O	0.072020	-1.003713	-0.066185
O2	O	0.572020	-0.503713	0.433815
O3	O	0.081390	-0.783287	-0.066212
O4	O	0.581390	-0.283287	0.433788
O5	O	-0.006208	-0.900147	-0.066183
O6	O	0.493792	-0.400147	0.433817
O7	O	0.159617	-0.886853	-0.066214
O8	O	0.659617	-0.386853	0.433786
O9	O	-0.006213	-0.900132	0.066394
O10	O	0.493787	-0.400132	0.566394
O11	O	0.081384	-0.783272	0.066365
O12	O	0.581384	-0.283272	0.566365
O13	O	0.072015	-1.003698	0.066392
O14	O	0.572015	-0.503698	0.566392
Zn15	Zn	0.076699	-0.893482	0.087428
Zn16	Zn	0.576699	-0.393482	0.587428
Zn17	Zn	0.076706	-0.893503	-0.087248
Zn18	Zn	0.576706	-0.393503	0.412752
O19	O	0.159612	-0.886838	0.066363
O20	O	0.659612	-0.386838	0.566363
C21	C	0.081051	-0.755084	0.000073
C22	C	0.581051	-0.255084	0.500073
C23	C	0.080044	-0.671071	0.000063
C24	C	0.580044	-0.171071	0.500063
C25	C	-0.027427	-0.899801	0.000107
C26	C	0.472573	-0.399801	0.500107
C27	C	-0.090647	-0.898783	0.000113
C28	C	0.409353	-0.398783	0.500113
N29	N	0.076693	-0.893474	0.206639
N30	N	0.576693	-0.393474	0.706639
C31	C	-0.489570	-0.961554	0.000077
C32	C	0.010430	-0.461554	0.500077
C33	C	-0.548973	-0.960609	0.000071
C34	C	-0.048973	-0.460609	0.500071
O35	O	-0.585550	-1.018799	0.000049
O36	O	-0.085550	-0.518799	0.500049
N37	N	-0.571799	-0.891136	0.000063
N38	N	-0.071799	-0.391136	0.500063
C39	C	-0.535218	-0.822604	0.000053
C40	C	-0.035218	-0.322604	0.500053
O41	O	-0.560088	-0.763424	0.000045
O42	O	-0.060088	-0.263424	0.500045
C43	C	-0.475816	-0.823550	0.000054
C44	C	0.024184	-0.323550	0.500054
C45	C	-0.452994	-0.893028	0.000070
C46	C	0.047006	-0.393028	0.500070
C47	C	-0.466747	-1.031026	0.000093
C48	C	0.033253	-0.531026	0.500093
C49	C	-0.407348	-1.031972	0.000100
C50	C	0.092652	-0.531972	0.500100
C51	C	-0.370772	-0.963445	0.000093
C52	C	0.129228	-0.463445	0.500093
C53	C	-0.393595	-0.893973	0.000078
C54	C	0.106405	-0.393973	0.500078
C55	C	-0.439237	-0.755019	0.000038
C56	C	0.060763	-0.255019	0.500038
C57	C	-0.379832	-0.755971	0.000038
C58	C	0.120168	-0.255971	0.500038
C59	C	-0.357009	-0.825448	0.000054
C60	C	0.142991	-0.325448	0.500054
C61	C	-0.297620	-0.826391	0.000078
C62	C	0.202380	-0.326391	0.500078
N63	N	-0.274795	-0.895864	0.000086
N64	N	0.225205	-0.395864	0.500086
C65	C	-0.311371	-0.964391	0.000093
C66	C	0.188629	-0.464391	0.500093
C67	C	-0.659966	-0.820622	0.000051
C68	C	-0.159966	-0.320622	0.500051
C69	C	-0.719367	-0.819674	0.000056
C70	C	-0.219367	-0.319674	0.500056
C71	C	-0.733118	-0.957680	0.000073
C72	C	-0.233118	-0.457680	0.500073
C73	C	-0.673716	-0.958626	0.000073
C74	C	-0.173716	-0.458626	0.500073
C75	C	-0.637141	-0.890095	0.000059
C76	C	-0.137141	-0.390095	0.500059
C77	C	-0.186628	-0.966371	0.000110
C78	C	0.313372	-0.466371	0.500110
C79	C	-0.127223	-0.967310	0.000121
C80	C	0.372777	-0.467310	0.500121
C81	C	-0.113478	-0.829305	0.000100
C82	C	0.386522	-0.329305	0.500100
C83	C	-0.172877	-0.828365	0.000094
C84	C	0.327123	-0.328365	0.500094
C85	C	-0.209452	-0.896904	0.000096
C86	C	0.290548	-0.396904	0.500096
O87	O	-0.261008	-0.768232	0.000097
O88	O	0.238992	-0.268232	0.500097
O89	O	-0.286493	-1.023560	0.000091
O90	O	0.213507	-0.523560	0.500091
C91	C	0.180832	-0.887184	0.000071
C92	C	0.680832	-0.387184	0.500071
C93	C	0.244052	-0.888202	0.000060
C94	C	0.744052	-0.388202	0.500060
C95	C	0.072353	-1.031901	0.000105
C96	C	0.572353	-0.531901	0.500105
C97	C	0.073360	-1.115914	0.000110
C98	C	0.573360	-0.615914	0.500110
C99	C	0.131462	-0.622189	0.000054
C100	C	0.631462	-0.122189	0.500054
C101	C	0.130512	-0.543251	0.000065
C102	C	0.630512	-0.043251	0.500065
C103	C	0.078144	-0.513196	0.000079
C104	C	0.578144	-0.013196	0.500079
C105	C	0.026722	-0.562084	0.000090
C106	C	0.526722	-0.062084	0.500090
C107	C	0.027672	-0.641021	0.000086
C108	C	0.527672	-0.141021	0.500086
C109	C	0.022888	-0.243740	0.000111
C110	C	0.522888	0.256260	0.500111
C111	C	0.021942	-0.164797	0.000113
C112	C	0.521942	0.335203	0.500113
C113	C	0.125728	-0.145970	0.000090
C114	C	0.625728	0.354030	0.500090
C115	C	0.126678	-0.224907	0.000085
C116	C	0.626678	0.275093	0.500085
C117	C	0.075257	-0.273788	0.000101
C118	C	0.575257	0.226212	0.500101
C119	C	0.076287	-0.359382	0.000091
C120	C	0.576287	0.140618	0.500091
C121	C	0.077113	-0.427603	0.000083
C122	C	0.577113	0.072397	0.500083
N123	N	0.076706	-0.893517	-0.206459
N124	N	0.576706	-0.393517	0.293541
C125	C	0.037921	-0.945235	0.248369
C126	C	0.537921	-0.445235	0.748369
C127	C	0.037921	-0.945239	0.331821
C128	C	0.537921	-0.445239	0.831821
C129	C	0.076696	-0.893485	0.373542
C130	C	0.576696	-0.393485	0.873542
C131	C	0.115470	-0.841719	0.331806
C132	C	0.615470	-0.341719	0.831806
C133	C	0.115467	-0.841712	0.248355
C134	C	0.615467	-0.341712	0.748355
C135	C	0.115481	-0.841746	0.668353
C136	C	0.615481	-0.341746	1.168353
C137	C	0.115482	-0.841759	0.751810
C138	C	0.615482	-0.341759	1.251810
C139	C	0.037935	-0.945274	0.751819
C140	C	0.537935	-0.445274	1.251819
C141	C	0.037932	-0.945267	0.668368
C142	C	0.537932	-0.445267	1.168368
C143	C	0.076704	-0.893498	0.626640
C144	C	0.576704	-0.393498	1.126640
C145	C	0.076703	-0.893493	0.536151
C146	C	0.576703	-0.393493	1.036151
C147	C	0.076699	-0.893493	0.464029
C148	C	0.576699	-0.393493	0.964029
H149	H	-0.108645	-1.023889	0.000136
H150	H	0.391355	-0.523889	0.500136
Br151	Br	-0.049135	-0.124009	0.000130
Br152	Br	0.450865	0.375991	0.500130
H153	H	-0.015917	-0.537607	0.000113
H154	H	0.484083	-0.037607	0.500113
H155	H	-0.083687	-0.773512	0.000097
H156	H	0.416313	-0.273512	0.500097
Br157	Br	-0.014702	-1.015485	0.388457
Br158	Br	0.485298	-0.515485	0.888457
Br159	Br	-0.046898	-0.310069	0.000134
Br160	Br	0.453102	0.189931	0.500134
H161	H	0.006360	-0.987412	0.634402
H162	H	0.506360	-0.487412	1.134402
H163	H	0.006362	-0.987425	0.785803
H164	H	0.506362	-0.487425	1.285803
Br165	Br	-0.014701	-1.015482	0.191756
Br166	Br	0.485299	-0.515482	0.691756
Br167	Br	-0.782768	-1.050682	0.000080
Br168	Br	-0.282768	-0.550682	0.500080
Br169	Br	-0.042112	-0.707362	0.000105
Br170	Br	0.457888	-0.207362	0.500105
Br171	Br	0.202537	-0.662970	0.000027
Br172	Br	0.702537	-0.162970	0.500027
Br173	Br	-0.610333	-0.727605	0.000039
Br174	Br	-0.110333	-0.227605	0.500039
H175	H	0.172382	-0.503454	0.000056
H176	H	0.672382	-0.003454	0.500056
Br177	Br	-0.750332	-0.725380	0.000053
Br178	Br	-0.250332	-0.225380	0.500053
H179	H	0.147039	-0.799561	0.214380
H180	H	0.647039	-0.299561	0.714380
H181	H	0.147058	-0.799612	0.785777
H182	H	0.647058	-0.299612	1.285777
Br183	Br	0.168099	-0.771492	0.611726
Br184	Br	0.668099	-0.271492	1.111726
H185	H	0.147039	-0.799576	0.365780
H186	H	0.647039	-0.299576	0.865780
H187	H	0.167598	-0.106161	0.000081
H188	H	0.667598	0.393839	0.500081
Br189	Br	-0.236256	-1.059389	0.000112
Br190	Br	0.263744	-0.559389	0.500112
Br191	Br	-0.376385	-1.126268	0.000100
Br192	Br	0.123615	-0.626268	0.500100
H193	H	0.169322	-0.249373	0.000070
H194	H	0.669322	0.250627	0.500070
H195	H	-0.655139	-1.015201	0.000086
H196	H	-0.155139	-0.515201	0.500086
Br197	Br	-0.516376	-1.124040	0.000102
Br198	Br	-0.016376	-0.624040	0.500102
H199	H	-0.350054	-0.700163	0.000025
H200	H	0.149946	-0.200163	0.500025
Br201	Br	-0.470194	-0.660721	0.000013
Br202	Br	0.029806	-0.160721	0.500013
H203	H	-0.191460	-0.771791	0.000103
H204	H	0.308540	-0.271791	0.500103
