data_functionalizedCrystal
_audit_creation_method	'MofGen! by Chris Wilmer'
_symmetry_space_group_name_H-M	'P1'
_symmetry_Int_Tables_number	1
_symmetry_cell_setting	triclinic
loop_
_symmetry_equiv_pos_as_xyz
  x,y,z
_cell_length_a	11.026607
_cell_length_b	10.723024
_cell_length_c	9.198806
_cell_angle_alpha	89.998580
_cell_angle_beta	89.995746
_cell_angle_gamma	96.526943
loop_
_atom_site_label
_atom_site_type_symbol
_atom_site_fract_x
_atom_site_fract_y
_atom_site_fract_z
O1	O	1.614522	0.523502	-0.120890
O2	O	2.114522	1.023502	0.379110
O3	O	1.260719	0.463891	-0.120892
O4	O	1.760719	0.963891	0.379108
O5	O	1.445782	0.313882	-0.120886
O6	O	1.945782	0.813882	0.379114
O7	O	1.429460	0.673511	-0.120896
O8	O	1.929460	1.173511	0.379104
O9	O	1.445765	0.313880	0.120900
O10	O	1.945765	0.813880	0.620900
O11	O	1.260702	0.463889	0.120893
O12	O	1.760702	0.963889	0.620893
O13	O	1.614505	0.523500	0.120895
O14	O	2.114505	1.023500	0.620895
Cu15	Cu	1.437602	0.493694	0.142971
Cu16	Cu	1.937602	0.993694	0.642971
Cu17	Cu	1.437622	0.493696	-0.142968
Cu18	Cu	1.937622	0.993696	0.357032
O19	O	1.429443	0.673509	0.120889
O20	O	1.929443	1.173509	0.620889
C21	C	1.215408	0.452892	0.000000
C22	C	1.715408	0.952892	0.500000
C23	C	1.080422	0.420109	-0.000001
C24	C	1.580422	0.920109	0.499999
C25	C	1.444585	0.267125	0.000005
C26	C	1.944585	0.767125	0.500005
C27	C	1.441032	0.127803	0.000000
C28	C	1.941032	0.627803	0.500000
C29	C	1.544583	0.075171	-0.000001
C30	C	2.044583	0.575171	0.499999
C31	C	1.540912	-0.068824	-0.000007
C32	C	2.040912	0.431176	0.499993
C33	C	1.007369	0.510629	-0.000004
C34	C	1.507369	1.010629	0.499996
C35	C	0.867853	0.476748	-0.000005
C36	C	1.367853	0.976748	0.499995
C37	C	1.659816	0.534498	-0.000000
C38	C	2.159816	1.034498	0.500000
C39	C	1.794803	0.567282	-0.000009
C40	C	2.294803	1.067282	0.499991
C41	C	1.430639	0.720266	-0.000005
C42	C	1.930639	1.220266	0.499995
C43	C	1.434193	0.859587	-0.000010
C44	C	1.934193	1.359587	0.499990
N45	N	1.437597	0.493694	0.344085
N46	N	1.937597	0.993694	0.844085
C47	C	1.515298	0.430358	0.416285
C48	C	2.015298	0.930358	0.916285
C49	C	1.515315	0.430359	0.583697
C50	C	2.015315	0.930359	1.083697
N51	N	1.437628	0.493697	0.655918
N52	N	1.937628	0.993697	1.155918
H53	H	1.635954	0.136715	0.000008
H54	H	2.135954	0.636715	0.500008
H55	H	1.629560	-0.114123	-0.000001
H56	H	2.129560	0.385877	0.499999
H57	H	1.345540	-0.095122	0.000001
H58	H	1.845540	0.404878	0.500001
N59	N	1.026453	0.284229	0.000002
N60	N	1.526453	0.784229	0.500002
H61	H	1.054392	0.241177	-0.089626
H62	H	1.554392	0.741177	0.410374
H63	H	1.054395	0.241280	0.089693
H64	H	1.554395	0.741280	0.589693
H65	H	1.581805	0.376127	0.354161
H66	H	2.081805	0.876127	0.854161
N67	N	1.603447	0.358538	0.665926
N68	N	2.103447	0.858538	1.165926
H69	H	1.590970	0.368722	0.773863
H70	H	2.090970	0.868722	1.273863
H71	H	1.588443	0.266683	0.639405
H72	H	2.088443	0.766683	1.139405
H73	H	1.349660	0.066260	-0.000010
H74	H	1.849660	0.566260	0.499990
N75	N	1.061324	0.646513	0.000001
N76	N	1.561324	1.146513	0.500001
H77	H	1.153342	0.651455	0.000003
H78	H	1.653342	1.151455	0.500003
H79	H	1.033307	0.689485	-0.089634
H80	H	1.533307	1.189485	0.410366
H81	H	0.827113	0.374161	-0.000039
H82	H	1.327113	0.874161	0.499961
N83	N	0.848749	0.703173	0.000001
N84	N	1.348749	1.203173	0.500001
H85	H	0.940767	0.708118	0.000004
H86	H	1.440767	1.208118	0.500004
H87	H	0.820731	0.746147	-0.089633
H88	H	1.320731	1.246147	0.410367
H89	H	1.371105	0.547929	0.593839
H90	H	1.871105	1.047929	1.093839
H91	H	1.371081	0.547913	0.406211
H92	H	1.871081	1.047913	0.906211
