data_functionalizedCrystal
_audit_creation_method	'MofGen! by Chris Wilmer'
_symmetry_space_group_name_H-M	'P1'
_symmetry_Int_Tables_number	1
_symmetry_cell_setting	triclinic
loop_
_symmetry_equiv_pos_as_xyz
  x,y,z
_cell_length_a	16.974848
_cell_length_b	19.288865
_cell_length_c	15.455283
_cell_angle_alpha	86.972425
_cell_angle_beta	96.642807
_cell_angle_gamma	96.731495
loop_
_atom_site_label
_atom_site_type_symbol
_atom_site_fract_x
_atom_site_fract_y
_atom_site_fract_z
O1	O	-1.055038	0.094103	-0.146214
O2	O	-0.721704	0.427436	0.187119
O3	O	-0.388371	0.760769	0.520453
O4	O	-0.824103	0.104755	-0.130004
O5	O	-0.490770	0.438089	0.203330
O6	O	-0.157437	0.771422	0.536663
O7	O	-0.946243	-0.001672	-0.138560
O8	O	-0.612909	0.331661	0.194773
O9	O	-0.279576	0.664995	0.528107
O10	O	-0.932898	0.200530	-0.137658
O11	O	-0.599565	0.533863	0.195676
O12	O	-0.266232	0.867197	0.529009
O13	O	-0.940086	-0.007145	0.006136
O14	O	-0.606753	0.326189	0.339470
O15	O	-0.273419	0.659522	0.672803
O16	O	-0.817947	0.099283	0.014693
O17	O	-0.484613	0.432616	0.348026
O18	O	-0.151280	0.765949	0.681359
O19	O	-1.048881	0.088630	-0.001518
O20	O	-0.715548	0.421963	0.331816
O21	O	-0.382214	0.755297	0.665149
Cu22	Cu	-0.932852	0.093457	0.019799
Cu23	Cu	-0.599518	0.426790	0.353133
Cu24	Cu	-0.266185	0.760123	0.686466
Cu25	Cu	-0.940133	0.099929	-0.151321
Cu26	Cu	-0.606799	0.433262	0.182013
Cu27	Cu	-0.273466	0.766595	0.515346
O28	O	-0.926742	0.195057	0.007039
O29	O	-0.593408	0.528391	0.340372
O30	O	-0.260075	0.861724	0.673705
C31	C	-0.791480	0.101510	-0.055581
C32	C	-0.458147	0.434844	0.277752
C33	C	-0.124814	0.768177	0.611085
C34	C	-0.703446	0.099986	-0.049401
C35	C	-0.370113	0.433320	0.283932
C36	C	-0.036779	0.766653	0.617266
C37	C	-0.207542	0.091111	-0.006146
C38	C	0.125791	0.424444	0.327188
C39	C	0.459124	0.757777	0.660521
C40	C	-0.290260	0.092543	-0.011954
C41	C	0.043073	0.425876	0.321379
C42	C	0.376407	0.759209	0.654712
C43	C	-0.334976	0.096237	-0.093734
C44	C	-0.001642	0.429570	0.239599
C45	C	0.331691	0.762903	0.572933
C46	C	-0.296969	0.098506	-0.169710
C47	C	0.036364	0.431839	0.163624
C48	C	0.369698	0.765172	0.496957
C49	C	-0.214252	0.097079	-0.163900
C50	C	0.119081	0.430412	0.169433
C51	C	0.452415	0.763746	0.502767
C52	C	-0.582722	0.100829	-0.119567
C53	C	-0.249389	0.434162	0.213766
C54	C	0.083944	0.767495	0.547100
C55	C	-0.665445	0.102253	-0.125371
C56	C	-0.332112	0.435587	0.207962
C57	C	0.001222	0.768920	0.541296
C58	C	-0.658730	0.096291	0.032385
C59	C	-0.325397	0.429625	0.365718
C60	C	0.007937	0.762958	0.699052
C61	C	-0.576013	0.094860	0.038187
C62	C	-0.242679	0.428194	0.371521
C63	C	0.090654	0.761527	0.704854
C64	C	-0.538012	0.097133	-0.037788
C65	C	-0.204679	0.430467	0.295545
C66	C	0.128654	0.763800	0.628879
N67	N	-0.419527	0.097698	-0.099674
N68	N	-0.086194	0.431032	0.233660
N69	N	0.247140	0.764365	0.566993
N70	N	-0.453462	0.095677	-0.031848
N71	N	-0.120129	0.429010	0.301486
N72	N	0.213205	0.762344	0.634819
C73	C	-0.942735	-0.030287	-0.066179
C74	C	-0.609401	0.303046	0.267154
C75	C	-0.276068	0.636380	0.600488
C76	C	-0.941445	-0.107397	-0.066081
C77	C	-0.608112	0.225937	0.267252
C78	C	-0.274779	0.559270	0.600586
C79	C	-1.013111	-0.151772	-0.071107
C80	C	-0.679778	0.181562	0.262226
C81	C	-0.346445	0.514895	0.595559
C82	C	-1.011901	-0.224224	-0.071036
C83	C	-0.678568	0.109110	0.262297
C84	C	-0.345234	0.442443	0.595631
C85	C	-0.939020	-0.252298	-0.065921
C86	C	-0.605686	0.081035	0.267413
C87	C	-0.272353	0.414369	0.600746
C88	C	-0.867344	-0.207913	-0.060899
C89	C	-0.534011	0.125420	0.272435
C90	C	-0.200678	0.458754	0.605768
C91	C	-0.868557	-0.135462	-0.060979
C92	C	-0.535224	0.197871	0.272355
C93	C	-0.201891	0.531204	0.605688
C94	C	-0.879570	-0.362759	-0.011215
C95	C	-0.546236	-0.029426	0.322118
C96	C	-0.212903	0.303907	0.655452
C97	C	-0.878360	-0.435209	-0.011130
C98	C	-0.545026	-0.101876	0.322204
C99	C	-0.211693	0.231457	0.655537
C100	C	-0.935276	-0.475760	-0.065677
C101	C	-0.601943	-0.142426	0.267656
C102	C	-0.268609	0.190907	0.600989
C103	C	-0.993415	-0.443853	-0.120300
C104	C	-0.660082	-0.110520	0.213033
C105	C	-0.326749	0.222814	0.546367
C106	C	-0.994628	-0.371402	-0.120380
C107	C	-0.661295	-0.038069	0.212953
C108	C	-0.327961	0.295264	0.546287
C109	C	-0.937696	-0.330858	-0.065834
C110	C	-0.604363	0.002476	0.267499
C111	C	-0.271030	0.335809	0.600833
C112	C	-1.005634	-0.598696	-0.070628
C113	C	-0.672301	-0.265362	0.262705
C114	C	-0.338968	0.067971	0.596039
C115	C	-1.004421	-0.671149	-0.070562
C116	C	-0.671088	-0.337815	0.262771
C117	C	-0.337754	-0.004482	0.596105
C118	C	-0.859862	-0.654837	-0.060416
C119	C	-0.526529	-0.321504	0.272918
C120	C	-0.193195	0.011830	0.606251
C121	C	-0.861078	-0.582385	-0.060491
C122	C	-0.527745	-0.249052	0.272843
C123	C	-0.194411	0.084281	0.606176
C124	C	-0.933966	-0.554320	-0.065593
C125	C	-0.600633	-0.220986	0.267741
C126	C	-0.267299	0.112347	0.601074
C127	C	-0.081505	0.091870	-0.075939
C128	C	0.251829	0.425203	0.257395
C129	C	0.585162	0.758536	0.590728
C130	C	-0.169541	0.093378	-0.082116
C131	C	0.163792	0.426711	0.251218
C132	C	0.497125	0.760044	0.584551
C133	C	-0.930250	0.223672	-0.065344
C134	C	-0.596916	0.557005	0.267989
C135	C	-0.263583	0.890339	0.601323
C136	C	-0.931539	0.300782	-0.065448
C137	C	-0.598206	0.634115	0.267885
C138	C	-0.264873	0.967449	0.601219
N139	N	-0.945254	0.104476	-0.271677
N140	N	-0.611921	0.437809	0.061656
N141	N	-0.278588	0.771142	0.394989
C142	C	-0.899351	0.063863	-0.313835
C143	C	-0.566018	0.397197	0.019498
C144	C	-0.232685	0.730530	0.352831
C145	C	-0.903237	0.067283	-0.404917
C146	C	-0.569903	0.400616	-0.071584
C147	C	-0.236570	0.733950	0.261750
C148	C	-0.953021	0.111319	-0.453839
C149	C	-0.619687	0.444652	-0.120506
C150	C	-0.286354	0.777986	0.212828
C151	C	-0.998929	0.151933	-0.411675
C152	C	-0.665595	0.485266	-0.078342
C153	C	-0.332262	0.818600	0.254992
C154	C	-0.995047	0.148509	-0.320595
C155	C	-0.661714	0.481842	0.012738
C156	C	-0.328381	0.815176	0.346072
C157	C	-0.969763	0.126094	-0.726601
C158	C	-0.636430	0.459427	-0.393267
C159	C	-0.303096	0.792761	-0.059934
C160	C	-0.973639	0.129516	-0.817687
C161	C	-0.640306	0.462850	-0.484353
C162	C	-0.306972	0.796183	-0.151020
C163	C	-0.877948	0.044865	-0.810922
C164	C	-0.544614	0.378198	-0.477589
C165	C	-0.211281	0.711532	-0.144256
C166	C	-0.874067	0.041448	-0.719841
C167	C	-0.540734	0.374782	-0.386508
C168	C	-0.207400	0.708115	-0.053174
C169	C	-0.919978	0.082059	-0.677685
C170	C	-0.586645	0.415393	-0.344352
C171	C	-0.253312	0.748726	-0.011018
N172	N	-0.956991	0.114817	-0.546939
N173	N	-0.623658	0.448151	-0.213606
N174	N	-0.290325	0.781484	0.119728
N175	N	-0.916012	0.078557	-0.584587
N176	N	-0.582678	0.411890	-0.251253
N177	N	-0.249345	0.745224	0.082080
N178	N	-0.927736	0.088904	0.140155
N179	N	-0.594403	0.422237	0.473489
N180	N	-0.261070	0.755571	0.806822
H181	H	-0.539612	0.091837	0.104781
H182	H	-0.206279	0.425171	0.438114
H183	H	0.127054	0.758504	0.771448
H184	H	-1.039762	-0.476868	-0.164718
H185	H	-0.706428	-0.143535	0.168615
H186	H	-0.373095	0.189799	0.501949
H187	H	-1.032427	0.181580	-0.286272
H188	H	-0.699094	0.514913	0.047062
H189	H	-0.365760	0.848246	0.380395
H190	H	-0.802719	-0.546254	-0.056393
H191	H	-0.469386	-0.212921	0.276941
H192	H	-0.136053	0.120412	0.610274
F193	F	-0.818989	-0.319609	0.046847
F194	F	-0.485655	0.013724	0.380181
F195	F	-0.152322	0.347057	0.713514
H196	H	-1.070262	-0.260360	-0.075133
H197	H	-0.736929	0.072973	0.258201
H198	H	-0.403595	0.406306	0.591534
F199	F	-1.018622	0.169320	-0.681747
F200	F	-0.685288	0.502654	-0.348413
F201	F	-0.351955	0.835987	-0.015080
F202	F	-0.789779	-0.237793	-0.055460
F203	F	-0.456446	0.095541	0.277873
F204	F	-0.123113	0.428874	0.611207
H205	H	-0.171140	0.088106	0.060448
H206	H	0.162194	0.421439	0.393782
H207	H	0.495527	0.754772	0.727115
F208	F	-0.821077	-0.005418	-0.667781
F209	F	-0.487743	0.327915	-0.334447
F210	F	-0.154410	0.661249	-0.001114
H211	H	-1.072463	-0.128925	-0.075265
H212	H	-0.739129	0.204408	0.258068
H213	H	-0.405796	0.537741	0.591402
H214	H	-0.333383	0.101518	-0.236297
H215	H	-0.000049	0.434851	0.097037
H216	H	0.333284	0.768184	0.430370
F217	F	-1.051917	0.198796	-0.463744
F218	F	-0.718584	0.532130	-0.130411
F219	F	-0.385250	0.865463	0.202923
H220	H	-0.831016	-0.461181	0.033342
H221	H	-0.497683	-0.127848	0.366676
H222	H	-0.164349	0.205485	0.700009
F223	F	-0.713034	0.106185	-0.212416
F224	F	-0.379700	0.439518	0.120917
F225	F	-0.046367	0.772852	0.454250
F226	F	-0.542291	0.103245	-0.200428
F227	F	-0.208957	0.436578	0.132905
F228	F	0.124376	0.769911	0.466239
H229	H	-0.183313	0.098927	-0.225763
H230	H	0.150021	0.432260	0.107570
H231	H	0.483354	0.765593	0.440903
F232	F	-0.792277	-0.088233	-0.055629
F233	F	-0.458944	0.245100	0.277704
F234	F	-0.125610	0.578433	0.611037
H235	H	-0.800521	-0.677694	-0.056255
H236	H	-0.467188	-0.344361	0.277078
H237	H	-0.133854	-0.011027	0.610412
F238	F	-0.829091	0.001645	-0.855794
F239	F	-0.495758	0.334979	-0.522461
F240	F	-0.162424	0.668312	-0.189128
H241	H	-1.014178	0.165381	-0.857517
H242	H	-0.680844	0.498714	-0.524183
H243	H	-0.347511	0.832048	-0.190850
F244	F	-1.056499	-0.337447	-0.178515
F245	F	-0.723166	-0.004114	0.154818
F246	F	-0.389832	0.329220	0.488152
F247	F	-0.699178	0.093876	0.113238
F248	F	-0.365845	0.427210	0.446571
F249	F	-0.032511	0.760543	0.779905
H250	H	-1.064984	-0.575843	-0.074787
H251	H	-0.731651	-0.242510	0.258547
H252	H	-0.398318	0.090823	0.591880
H253	H	-0.858808	0.028008	-0.274009
H254	H	-0.525474	0.361341	0.059324
H255	H	-0.192141	0.694675	0.392658
H256	H	-0.321197	0.090695	0.049909
H257	H	0.012137	0.424028	0.383242
H258	H	0.345470	0.757362	0.716575
H259	H	-1.062783	-0.707279	-0.074660
H260	H	-0.729450	-0.373945	0.258673
H261	H	-0.396116	-0.040612	0.592007
H262	H	-0.865860	0.034210	-0.439238
H263	H	-0.532526	0.367543	-0.105905
H264	H	-0.199193	0.700877	0.227429
