data_functionalizedCrystal
_audit_creation_method	'MofGen! by Chris Wilmer'
_symmetry_space_group_name_H-M	'P1'
_symmetry_Int_Tables_number	1
_symmetry_cell_setting	triclinic
loop_
_symmetry_equiv_pos_as_xyz
  x,y,z
_cell_length_a	15.944551
_cell_length_b	15.944551
_cell_length_c	15.021413
_cell_angle_alpha	89.996935
_cell_angle_beta	89.997174
_cell_angle_gamma	96.501262
loop_
_atom_site_label
_atom_site_type_symbol
_atom_site_fract_x
_atom_site_fract_y
_atom_site_fract_z
O1	O	1.114529	-0.108321	-0.073941
O2	O	1.614529	0.391679	0.426059
O3	O	0.869979	-0.121677	-0.073964
O4	O	1.369979	0.378323	0.426036
O5	O	0.998932	0.007276	-0.073944
O6	O	1.498932	0.507276	0.426056
O7	O	0.985576	-0.237274	-0.073961
O8	O	1.485576	0.262726	0.426039
O9	O	0.998912	0.007257	0.074121
O10	O	1.498912	0.507257	0.574121
O11	O	0.869959	-0.121695	0.074101
O12	O	1.369959	0.378305	0.574101
O13	O	1.114508	-0.108339	0.074123
O14	O	1.614508	0.391661	0.574123
Zn15	Zn	0.992230	-0.115020	0.097620
Zn16	Zn	1.492230	0.384980	0.597620
Zn17	Zn	0.992257	-0.114996	-0.097461
Zn18	Zn	1.492257	0.385004	0.402539
O19	O	0.985555	-0.237292	0.074103
O20	O	1.485555	0.262708	0.574103
C21	C	0.838675	-0.121132	0.000066
C22	C	1.338675	0.378868	0.500066
C23	C	0.745429	-0.119470	0.000057
C24	C	1.245429	0.380530	0.500057
C25	C	0.530572	-0.035565	0.000081
C26	C	1.030572	0.464435	0.500081
C27	C	0.469562	-0.074518	-0.072926
C28	C	0.969562	0.425482	0.427074
C29	C	0.574703	-0.116462	0.000068
C30	C	1.074703	0.383538	0.500068
C31	C	0.469564	-0.074556	0.073054
C32	C	0.969564	0.425444	0.573054
C33	C	0.409790	-0.113551	0.000083
C34	C	0.909790	0.386449	0.500083
C35	C	0.514921	-0.155438	-0.072998
C36	C	1.014921	0.344562	0.427002
C37	C	0.514930	-0.155464	0.073047
C38	C	1.014930	0.344536	0.573047
C39	C	0.453937	-0.194476	0.000023
C40	C	0.953937	0.305524	0.500023
C41	C	0.669705	-0.118137	0.000059
C42	C	1.169705	0.381863	0.500059
C43	C	0.314789	-0.111883	0.000085
C44	C	0.814789	0.388117	0.500085
C45	C	0.998367	0.038561	0.000089
C46	C	1.498367	0.538561	0.500089
C47	C	0.996705	0.131807	0.000089
C48	C	1.496705	0.631807	0.500089
C49	C	1.145813	-0.108885	0.000092
C50	C	1.645813	0.391115	0.500092
C51	C	1.239059	-0.110547	0.000094
C52	C	1.739059	0.389453	0.500094
C53	C	0.986120	-0.268577	0.000069
C54	C	1.486120	0.231423	0.500069
C55	C	0.987782	-0.361823	0.000063
C56	C	1.487782	0.138177	0.500063
N57	N	0.992218	-0.115036	0.230758
N58	N	1.492218	0.384964	0.730758
C59	C	0.912801	0.346663	0.000069
C60	C	1.412801	0.846663	0.500069
C61	C	0.951753	0.407672	0.073077
C62	C	1.451753	0.907672	0.573077
C63	C	0.993698	0.302533	0.000082
C64	C	1.493698	0.802533	0.500082
C65	C	0.951792	0.407673	-0.072903
C66	C	1.451792	0.907673	0.427097
C67	C	0.990787	0.467445	0.000071
C68	C	1.490787	0.967445	0.500071
C69	C	1.032672	0.362313	0.073150
C70	C	1.532672	0.862313	0.573150
C71	C	1.032700	0.362308	-0.072895
C72	C	1.532700	0.862308	0.427105
C73	C	1.071711	0.423298	0.000131
C74	C	1.571711	0.923298	0.500131
C75	C	0.995372	0.207530	0.000089
C76	C	1.495372	0.707530	0.500089
C77	C	0.989119	0.562446	0.000070
C78	C	1.489119	1.062446	0.500070
N79	N	0.992276	-0.114973	-0.230598
N80	N	1.492276	0.385027	0.269402
C81	C	0.932581	-0.174636	0.470432
C82	C	1.432581	0.325364	0.970432
C83	C	1.008481	-0.190943	0.529772
C84	C	1.508481	0.309057	1.029772
C85	C	0.992239	-0.115015	0.412365
C86	C	1.492239	0.384985	0.912365
C87	C	0.916360	-0.098727	0.529766
C88	C	1.416360	0.401273	1.029766
C89	C	0.992253	-0.114997	0.587789
C90	C	1.492253	0.385003	1.087789
C91	C	1.068178	-0.131360	0.470398
C92	C	1.568178	0.368640	0.970398
C93	C	0.976006	-0.039111	0.470387
C94	C	1.476006	0.460889	0.970387
C95	C	1.051962	-0.055386	0.529701
C96	C	1.551962	0.444614	1.029701
C97	C	0.992230	-0.115028	0.311307
C98	C	1.492230	0.384972	0.811307
C99	C	0.992271	-0.114984	0.688844
C100	C	1.492271	0.385016	1.188844
H101	H	0.534918	-0.189621	-0.134787
H102	H	1.034918	0.310379	0.365213
H103	H	0.449470	-0.040332	0.134773
H104	H	0.949470	0.459668	0.634773
C105	C	0.542125	-0.201656	0.156422
C106	C	1.042125	0.298344	0.656422
H107	H	0.526777	-0.172837	0.208248
H108	H	1.026777	0.327163	0.708248
H109	H	0.514829	-0.257790	0.156943
H110	H	1.014829	0.242210	0.656943
H111	H	0.601558	-0.202817	0.155523
H112	H	1.101558	0.297183	0.655523
C113	C	1.078844	0.335308	0.156626
C114	C	1.578844	0.835308	0.656626
H115	H	1.097084	0.383694	0.191444
H116	H	1.597084	0.883694	0.691444
H117	H	1.041556	0.297267	0.190748
H118	H	1.541556	0.797267	0.690748
H119	H	1.126389	0.308312	0.139181
H120	H	1.626389	0.808312	0.639181
C121	C	0.864497	-0.242795	0.435264
C122	C	1.364497	0.257205	0.935264
H123	H	0.824819	-0.216934	0.400466
H124	H	1.324819	0.283066	0.900466
H125	H	0.890293	-0.281868	0.399598
H126	H	1.390293	0.218132	0.899598
H127	H	0.836365	-0.271625	0.484037
H128	H	1.336365	0.228375	0.984037
C129	C	1.120190	0.012745	0.564641
C130	C	1.620190	0.512745	1.064641
H131	H	1.094400	0.052464	0.599449
H132	H	1.594400	0.552464	1.099449
H133	H	1.159340	-0.013003	0.600249
H134	H	1.659340	0.486997	1.100249
H135	H	1.148915	0.040816	0.515771
H136	H	1.648915	0.540816	1.015771
C137	C	1.027051	-0.277641	0.565017
C138	C	1.527051	0.222359	1.065017
H139	H	1.077127	-0.270988	0.599797
H140	H	1.577127	0.229012	1.099797
H141	H	0.981188	-0.301332	0.600715
H142	H	1.481188	0.198668	1.100715
H143	H	1.034307	-0.314090	0.516274
H144	H	1.534307	0.185910	1.016274
C145	C	1.162464	0.468181	0.000242
C146	C	1.662464	0.968181	0.500242
H147	H	1.171197	0.502150	-0.051623
H148	H	1.671197	1.002150	0.448377
H149	H	1.170772	0.502819	0.051649
H150	H	1.670772	1.002819	0.551649
H151	H	1.201405	0.427282	0.000769
H152	H	1.701405	0.927282	0.500769
H153	H	1.066896	0.342185	-0.134615
H154	H	1.566896	0.842185	0.365385
C155	C	0.575574	0.055141	-0.000003
C156	C	1.075574	0.555141	0.499997
H157	H	0.609498	0.063827	0.051894
H158	H	1.109498	0.563827	0.551894
H159	H	0.610265	0.063434	-0.051378
H160	H	1.110265	0.563434	0.448622
H161	H	0.534716	0.094124	-0.000563
H162	H	1.034716	0.594124	0.499437
C163	C	0.957414	0.047563	0.435110
C164	C	1.457414	0.547563	0.935110
H165	H	1.003732	0.071724	0.400312
H166	H	1.503732	0.571724	0.900312
H167	H	0.907928	0.040746	0.399424
H168	H	1.407928	0.540746	0.899424
H169	H	0.949118	0.083699	0.483837
H170	H	1.449118	0.583699	0.983837
C171	C	0.905568	0.434816	-0.156284
C172	C	1.405568	0.934816	0.343716
H173	H	0.849124	0.408299	-0.156194
H174	H	1.349124	0.908299	0.343806
H175	H	0.905290	0.494360	-0.155979
H176	H	1.405290	0.994360	0.344021
H177	H	0.933766	0.418514	-0.208122
H178	H	1.433766	0.918514	0.291878
C179	C	0.829669	-0.080117	0.564996
C180	C	1.329669	0.419883	1.064996
H181	H	0.836341	-0.030048	0.599786
H182	H	1.336341	0.469952	1.099786
H183	H	0.793228	-0.072851	0.516254
H184	H	1.293228	0.427149	1.016254
H185	H	0.805960	-0.125975	0.600698
H186	H	1.305960	0.374025	1.100698
C187	C	0.822095	0.301661	0.000156
C188	C	1.322095	0.801661	0.500156
H189	H	0.793480	0.317077	0.052091
H190	H	1.293480	0.817077	0.552091
H191	H	0.793075	0.317839	-0.051181
H192	H	1.293075	0.817839	0.448819
H193	H	0.823775	0.242295	-0.000367
H194	H	1.323775	0.742295	0.499633
C195	C	0.905526	0.434835	0.156449
C196	C	1.405526	0.934835	0.656449
H197	H	0.942963	0.472503	0.190825
H198	H	1.442963	0.972503	0.690825
H199	H	0.858320	0.462295	0.138898
H200	H	1.358320	0.962295	0.638898
H201	H	0.886784	0.386455	0.191067
H202	H	1.386784	0.886455	0.691067
C203	C	0.442398	-0.028288	-0.156295
C204	C	0.942398	0.471712	0.343705
H205	H	0.468898	0.028163	-0.156203
H206	H	0.968898	0.528163	0.343797
H207	H	0.458685	-0.056474	-0.208140
H208	H	0.958685	0.443526	0.291860
H209	H	0.382848	-0.028014	-0.155961
H210	H	0.882848	0.471986	0.344039
H211	H	0.420779	-0.261683	-0.000023
H212	H	0.920779	0.238317	0.499977
H213	H	1.132368	-0.145206	0.444430
H214	H	1.632368	0.354794	0.944430
