data_functionalizedCrystal
_audit_creation_method	'MofGen! by Chris Wilmer'
_symmetry_space_group_name_H-M	'P1'
_symmetry_Int_Tables_number	1
_symmetry_cell_setting	triclinic
loop_
_symmetry_equiv_pos_as_xyz
  x,y,z
_cell_length_a	12.759395
_cell_length_b	18.101397
_cell_length_c	12.759387
_cell_angle_alpha	90.037018
_cell_angle_beta	90.020509
_cell_angle_gamma	90.022002
loop_
_atom_site_label
_atom_site_type_symbol
_atom_site_fract_x
_atom_site_fract_y
_atom_site_fract_z
Zn1	Zn	1.606227	-0.294760	0.593960
Zn2	Zn	1.606100	-0.418620	0.418261
Zn3	Zn	1.430525	-0.294801	0.418297
Zn4	Zn	1.430499	-0.418568	0.593900
O5	O	1.518338	-0.356687	0.506104
O6	O	1.753231	-0.311196	0.570663
O7	O	1.582767	-0.402234	0.271245
O8	O	1.453896	-0.191162	0.441638
O9	O	1.753137	-0.402195	0.441578
O10	O	1.582983	-0.191133	0.570697
O11	O	1.453773	-0.311264	0.271271
O12	O	1.283500	-0.311213	0.441581
O13	O	1.453853	-0.402105	0.740929
O14	O	1.283482	-0.402145	0.570596
O15	O	1.582959	-0.311145	0.740973
O16	O	1.582742	-0.522246	0.441520
O17	O	1.453729	-0.522208	0.570561
C18	C	1.245370	-0.356678	0.506086
C19	C	1.128593	-0.356692	0.506103
C20	C	1.128613	-0.451532	0.640230
C21	C	1.073761	-0.498958	0.707296
C22	C	0.964040	-0.498967	0.707309
C23	C	0.909167	-0.451543	0.640250
C24	C	0.964018	-0.404118	0.573184
C25	C	1.073742	-0.404115	0.573176
C26	C	0.963999	-0.309275	0.439065
C27	C	1.073720	-0.309269	0.439045
C28	C	0.909126	-0.261852	0.372007
C29	C	0.963977	-0.214429	0.304934
C30	C	1.073705	-0.214422	0.304923
C31	C	1.128572	-0.261843	0.371979
C32	C	1.518248	-0.549098	0.506053
C33	C	1.518305	-0.631412	0.506067
C34	C	1.518439	-0.930503	0.506163
C35	C	1.599384	-0.899171	0.424756
C36	C	1.599665	-0.813553	0.424967
C37	C	1.518373	-0.782120	0.506114
C38	C	1.548394	-0.813118	0.616855
C39	C	1.549020	-0.898763	0.616412
C40	C	1.407258	-0.899016	0.477787
C41	C	1.407807	-0.813367	0.475315
C42	C	1.518334	-0.698261	0.506094
C43	C	1.518481	-1.014362	0.506191
C44	C	1.792371	-0.356697	0.506123
C45	C	1.909148	-0.356701	0.506131
C46	C	1.518417	-0.356615	0.780138
C47	C	1.518451	-0.356584	0.896915
C48	C	1.518456	-0.163525	0.506178
C49	C	1.518507	-0.081211	0.506210
C50	C	1.518319	-0.356706	0.233137
C51	C	1.518489	-0.356528	0.116361
C52	C	1.652898	-0.261872	0.896980
C53	C	1.720136	-0.214506	0.951874
C54	C	1.720162	-0.214479	1.061595
C55	C	1.652940	-0.261822	1.116426
C56	C	1.585701	-0.309189	1.061533
C57	C	1.585685	-0.309212	0.951808
C58	C	1.451251	-0.403895	1.061467
C59	C	1.451229	-0.403927	0.951745
C60	C	1.384028	-0.451238	1.116298
C61	C	1.316794	-0.498610	1.061404
C62	C	1.316772	-0.498636	0.951676
C63	C	1.383990	-0.451294	0.896852
H64	H	0.919380	-0.537581	0.761925
C65	C	1.377221	-0.786004	0.365221
C66	C	1.277421	-0.739389	0.350136
C67	C	1.246842	-0.712019	0.240042
C68	C	1.316061	-0.731264	0.145034
C69	C	1.415867	-0.777882	0.160117
C70	C	1.446447	-0.805251	0.270210
H71	H	1.226175	-0.725140	0.420469
H72	H	1.172959	-0.677510	0.228878
H73	H	1.293424	-0.711004	0.063536
H74	H	1.467113	-0.792130	0.089784
H75	H	1.520330	-0.839761	0.281375
H76	H	1.118451	-0.537568	0.761895
H77	H	0.819826	-0.451549	0.640276
C78	C	0.903618	-0.162268	0.231178
C79	C	0.782928	-0.162271	0.231197
C80	C	0.722564	-0.110110	0.157438
C81	C	0.782891	-0.057945	0.083659
C82	C	0.903588	-0.057940	0.083637
C83	C	0.963951	-0.110101	0.157396
H84	H	0.738265	-0.200888	0.285815
H85	H	0.633216	-0.110115	0.157455
H86	H	0.738206	-0.019333	0.029059
H87	H	0.948251	-0.019323	0.029019
H88	H	1.053299	-0.110096	0.157379
H89	H	1.630289	-0.918679	0.640449
H90	H	0.819785	-0.261859	0.372027
C91	C	1.794081	-0.162430	0.891562
C92	C	1.913515	-0.168483	0.906670
C93	C	1.987457	-0.116407	0.846364
C94	C	1.941967	-0.058277	0.770950
C95	C	1.822527	-0.052221	0.755838
C96	C	1.748584	-0.104298	0.816144
H97	H	1.947195	-0.211517	0.962499
H98	H	2.075875	-0.120890	0.857551
H99	H	1.996704	-0.019726	0.726307
H100	H	1.788846	-0.009187	0.700009
H101	H	1.660166	-0.099815	0.804957
C102	C	1.472842	-0.926765	0.701150
C103	C	1.411636	-0.871194	0.769009
C104	C	1.335465	-0.899192	0.853750
C105	C	1.320500	-0.982761	0.870632
C106	C	1.381708	-1.038337	0.802771
C107	C	1.457879	-1.010339	0.718030
H108	H	1.422712	-0.809327	0.756514
H109	H	1.290155	-0.858051	0.903986
H110	H	1.264114	-1.003487	0.933363
H111	H	1.370632	-1.100205	0.815266
H112	H	1.503188	-1.051481	0.667794
H113	H	1.774906	-0.175904	1.106289
H114	H	1.682022	-0.793006	0.443741
H115	H	1.118359	-0.175797	0.250317
C116	C	1.242856	-0.550682	1.121717
C117	C	1.242875	-0.550648	1.242407
C118	C	1.168937	-0.602722	1.302724
C119	C	1.094979	-0.654829	1.242351
C120	C	1.094958	-0.654865	1.121655
C121	C	1.168896	-0.602791	1.061337
H122	H	1.297625	-0.512073	1.287105
H123	H	1.168953	-0.602695	1.392073
H124	H	1.040246	-0.693377	1.287002
H125	H	1.040207	-0.693440	1.076957
H126	H	1.168879	-0.602818	0.971989
H127	H	1.652957	-0.261789	1.205767
H128	H	1.344252	-0.791978	0.530265
C129	C	1.242808	-0.550741	0.891295
C130	C	1.123380	-0.544680	0.906365
C131	C	1.049415	-0.596786	0.845988
C132	C	1.094879	-0.654953	0.770541
C133	C	1.214314	-0.661017	0.755467
C134	C	1.288278	-0.608910	0.815844
H135	H	1.089719	-0.501619	0.962219
H136	H	0.961002	-0.592298	0.857147
H137	H	1.040127	-0.693526	0.725846
H138	H	1.247975	-0.704077	0.699614
H139	H	1.376692	-0.613399	0.804686
H140	H	1.383983	-0.451313	0.807511
C141	C	1.325774	-0.926392	0.557874
C142	C	1.306384	-1.009793	0.571665
C143	C	1.224910	-1.037173	0.651754
C144	C	1.162827	-0.981152	0.718053
C145	C	1.182216	-0.897746	0.704264
C146	C	1.263690	-0.870366	0.624174
H147	H	1.352343	-1.051268	0.522585
H148	H	1.210557	-1.098916	0.661961
H149	H	1.102515	-1.001421	0.777340
H150	H	1.136257	-0.856271	0.753344
H151	H	1.278042	-0.808622	0.613967
C152	C	1.574310	-0.785255	0.314027
C153	C	1.645882	-0.805966	0.221413
C154	C	1.620538	-0.777680	0.110460
C155	C	1.523622	-0.728684	0.092122
C156	C	1.452044	-0.707971	0.184739
C157	C	1.477387	-0.736256	0.295691
H158	H	1.717630	-0.842238	0.234985
H159	H	1.673526	-0.793014	0.041900
H160	H	1.504862	-0.707746	0.009989
H161	H	1.380295	-0.671699	0.171167
H162	H	1.424400	-0.720922	0.364252
H163	H	1.217954	-0.451535	0.640218
H164	H	1.217913	-0.261844	0.371974
H165	H	1.580828	-0.919821	0.342397
H166	H	1.384050	-0.451210	1.205639
H167	H	1.491240	-0.792755	0.679141
H168	H	1.681291	-0.920636	0.443314
C169	C	1.656958	-0.784068	0.649881
C170	C	1.753900	-0.801438	0.582378
C171	C	1.862467	-0.772390	0.615396
C172	C	1.874091	-0.725972	0.715917
C173	C	1.777145	-0.708600	0.783427
C174	C	1.668579	-0.737648	0.750409
H175	H	1.745298	-0.835801	0.507960
H176	H	1.934232	-0.785250	0.565421
H177	H	1.954458	-0.704469	0.740360
H178	H	1.785747	-0.674237	0.857845
H179	H	1.596813	-0.724788	0.800384
C180	C	1.370364	-0.928276	0.370581
C181	C	1.440731	-0.981145	0.307432
C182	C	1.403852	-1.010405	0.200222
C183	C	1.296606	-0.986796	0.156162
C184	C	1.226232	-0.933924	0.219312
C185	C	1.263111	-0.904664	0.326522
H186	H	1.520127	-0.998625	0.340047
H187	H	1.455947	-1.049545	0.153474
H188	H	1.269306	-1.008456	0.076799
H189	H	1.146836	-0.916445	0.186697
H190	H	1.211016	-0.865525	0.373270
H191	H	1.652894	-0.261897	0.807639
