data_functionalizedCrystal
_audit_creation_method	'MofGen! by Chris Wilmer'
_symmetry_space_group_name_H-M	'P1'
_symmetry_Int_Tables_number	1
_symmetry_cell_setting	triclinic
loop_
_symmetry_equiv_pos_as_xyz
  x,y,z
_cell_length_a	19.121063
_cell_length_b	18.050591
_cell_length_c	18.050582
_cell_angle_alpha	90.023636
_cell_angle_beta	92.414363
_cell_angle_gamma	87.537236
loop_
_atom_site_label
_atom_site_type_symbol
_atom_site_fract_x
_atom_site_fract_y
_atom_site_fract_z
Zn1	Zn	-0.279776	-1.122681	-0.432667
Zn2	Zn	0.220224	-0.622681	0.067333
Zn3	Zn	-0.397222	-1.117293	-0.313766
Zn4	Zn	0.102778	-0.617293	0.186234
Zn5	Zn	-0.279775	-0.998498	-0.308474
Zn6	Zn	0.220225	-0.498498	0.191526
Zn7	Zn	-0.397178	-0.993153	-0.437896
Zn8	Zn	0.102822	-0.493153	0.062104
O9	O	-0.338488	-1.057907	-0.373201
O10	O	0.161512	-0.557907	0.126799
O11	O	-0.295375	-1.225890	-0.416921
O12	O	0.204625	-0.725890	0.083079
O13	O	-0.381660	-1.101517	-0.209141
O14	O	0.118340	-0.601517	0.290859
O15	O	-0.181491	-1.019463	-0.320546
O16	O	0.318509	-0.519463	0.179454
O17	O	-0.381661	-1.221932	-0.329565
O18	O	0.118339	-0.721932	0.170435
O19	O	-0.181492	-1.110700	-0.411790
O20	O	0.318508	-0.610700	0.088210
O21	O	-0.295373	-1.014239	-0.205253
O22	O	0.204627	-0.514239	0.294747
O23	O	-0.295330	-0.893866	-0.325616
O24	O	0.204670	-0.393866	0.174384
O25	O	-0.381586	-1.010354	-0.541126
O26	O	0.118414	-0.510354	-0.041126
O27	O	-0.381585	-0.889939	-0.420701
O28	O	0.118415	-0.389939	0.079299
O29	O	-0.295332	-1.105517	-0.537285
O30	O	0.204668	-0.605517	-0.037285
O31	O	-0.495500	-1.096334	-0.334635
O32	O	0.004500	-0.596334	0.165365
O33	O	-0.495468	-1.005129	-0.425833
O34	O	0.004532	-0.505129	0.074167
C35	C	-0.338453	-0.864956	-0.373152
C36	C	0.161547	-0.364956	0.126848
C37	C	-0.338456	-0.782410	-0.373150
C38	C	0.161544	-0.282410	0.126850
C39	C	-0.520968	-1.049587	-0.381392
C40	C	-0.020968	-0.549587	0.118608
C41	C	-0.599034	-1.046096	-0.384921
C42	C	-0.099034	-0.546096	0.115079
C43	C	-0.291489	-0.535701	-0.321544
C44	C	0.208511	-0.035701	0.178456
C45	C	-0.274391	-0.585905	-0.388553
C46	C	0.225609	-0.085905	0.111447
C47	C	-0.338477	-0.485289	-0.373196
C48	C	0.161523	0.014711	0.126804
C49	C	-0.355531	-0.582168	-0.306167
C50	C	0.144469	-0.082168	0.193833
C51	C	-0.338465	-0.631274	-0.373170
C52	C	0.161535	-0.131274	0.126830
C53	C	-0.321346	-0.534407	-0.440239
C54	C	0.178654	-0.034407	0.059761
C55	C	-0.402516	-0.530664	-0.357809
C56	C	0.097484	-0.030664	0.142191
C57	C	-0.385442	-0.580845	-0.424866
C58	C	0.114558	-0.080845	0.075134
C59	C	-0.338482	-0.401190	-0.373210
C60	C	0.161518	0.098810	0.126790
C61	C	-0.338460	-0.715371	-0.373163
C62	C	0.161540	-0.215371	0.126837
C63	C	-0.635703	-1.091978	-0.339137
C64	C	-0.135703	-0.591978	0.160863
C65	C	-0.709054	-1.088699	-0.342460
C66	C	-0.209054	-0.588699	0.157540
C67	C	-0.745735	-1.039533	-0.391565
C68	C	-0.245735	-0.539533	0.108435
C69	C	-0.709061	-0.993649	-0.437354
C70	C	-0.209061	-0.493649	0.062646
C71	C	-0.635711	-0.996933	-0.434034
C72	C	-0.135711	-0.496933	0.065966
C73	C	-0.967205	-1.027246	-0.403966
C74	C	-0.467205	-0.527246	0.096034
C75	C	-1.040560	-1.023964	-0.407281
C76	C	-0.540560	-0.523964	0.092719
C77	C	-1.040548	-1.119015	-0.312388
C78	C	-0.540548	-0.619015	0.187612
C79	C	-0.967197	-1.122291	-0.309069
C80	C	-0.467197	-0.622291	0.190931
C81	C	-0.930529	-1.076410	-0.354861
C82	C	-0.430529	-0.576410	0.145139
C83	C	-0.820712	-1.036179	-0.394961
C84	C	-0.320712	-0.536179	0.105039
C85	C	-0.855554	-1.079769	-0.351468
C86	C	-0.355554	-0.579769	0.148532
C87	C	-0.155295	-1.066279	-0.364994
C88	C	0.344705	-0.566279	0.135006
C89	C	-0.077229	-1.069847	-0.361497
C90	C	0.422771	-0.569847	0.138503
C91	C	-0.338454	-1.057940	-0.566905
C92	C	0.161546	-0.557940	-0.066905
C93	C	-0.338440	-1.057954	-0.649450
C94	C	0.161560	-0.557954	-0.149450
C95	C	-0.338510	-0.251611	-0.373237
C96	C	0.161490	0.248389	0.126763
C97	C	-0.338488	-0.334158	-0.373217
C98	C	0.161512	0.165842	0.126783
C99	C	-0.385269	-1.006254	-0.900362
C100	C	0.114731	-0.506254	-0.400362
C101	C	-0.321206	-0.991003	-0.848086
C102	C	0.178794	-0.491003	-0.348086
C103	C	-0.338337	-1.058022	-0.946566
C104	C	0.161663	-0.558022	-0.446566
C105	C	-0.402447	-1.073205	-0.851762
C106	C	0.097553	-0.573205	-0.351762
C107	C	-0.338391	-1.057987	-0.800584
C108	C	0.161609	-0.557987	-0.300584
C109	C	-0.274240	-1.042738	-0.895377
C110	C	0.225760	-0.542738	-0.395377
C111	C	-0.355525	-1.124968	-0.899059
C112	C	0.144475	-0.624968	-0.399059
C113	C	-0.291417	-1.109745	-0.846804
C114	C	0.208583	-0.609745	-0.346804
C115	C	-0.338307	-1.058040	-1.030663
C116	C	0.161693	-0.558040	-0.530663
C117	C	-0.338414	-1.057969	-0.716488
C118	C	0.161586	-0.557969	-0.216488
C119	C	-0.338470	-1.057918	-0.180248
C120	C	0.161530	-0.557918	0.319752
C121	C	-0.338287	-1.058057	-0.097695
C122	C	0.161713	-0.558057	0.402305
H123	H	-0.251729	-0.515814	-0.277925
H124	H	0.248271	-0.015814	0.222075
H125	H	-0.369961	-0.603176	-0.249493
H126	H	0.130039	-0.103176	0.250507
O127	O	-0.432617	-0.954058	-0.928257
O128	O	0.067383	-0.454058	-0.428257
C129	C	-0.499967	-0.969513	-0.905065
C130	C	0.000033	-0.469513	-0.405065
H131	H	-0.494993	-1.004646	-0.852490
H132	H	0.005007	-0.504646	-0.352490
H133	H	-0.530260	-0.915292	-0.893341
H134	H	-0.030260	-0.415292	-0.393341
H135	H	-0.529110	-1.001096	-0.950610
H136	H	-0.029110	-0.501096	-0.450610
H137	H	-0.306852	-0.513494	-0.496927
H138	H	0.193148	-0.013494	0.003073
O139	O	-0.432761	-0.604386	-0.477114
O140	O	0.067239	-0.104386	0.022886
C141	C	-0.414523	-0.579936	-0.547636
C142	C	0.085477	-0.079936	-0.047636
H143	H	-0.356255	-0.568794	-0.546535
H144	H	0.143745	-0.068794	-0.046535
H145	H	-0.426362	-0.624489	-0.590594
H146	H	0.073638	-0.124489	-0.090594
H147	H	-0.446204	-0.526755	-0.562806
H148	H	0.053796	-0.026755	-0.062806
O149	O	-0.372947	-1.192444	-0.925860
O150	O	0.127053	-0.692444	-0.425860
C151	C	-0.433721	-1.184282	-0.972645
C152	C	0.066279	-0.684282	-0.472645
H153	H	-0.439184	-1.124988	-0.994515
H154	H	0.060816	-0.624988	-0.494515
H155	H	-0.429495	-1.224417	-1.021189
H156	H	0.070505	-0.724417	-0.521189
H157	H	-0.481625	-1.196843	-0.940062
H158	H	0.018375	-0.696843	-0.440062
H159	H	-1.070423	-0.983937	-0.447281
H160	H	-0.570423	-0.483937	0.052719
O161	O	-0.931676	-1.170123	-0.261356
O162	O	-0.431676	-0.670123	0.238644
C163	C	-0.979771	-1.209907	-0.221646
C164	C	-0.479771	-0.709907	0.278354
H165	H	-1.032039	-1.210115	-0.254431
H166	H	-0.532039	-0.710115	0.245569
H167	H	-0.958544	-1.269376	-0.212832
H168	H	-0.458544	-0.769376	0.287168
H169	H	-0.987619	-1.182401	-0.165567
H170	H	-0.487619	-0.682401	0.334433
O171	O	-0.856424	-0.988516	-0.442695
O172	O	-0.356424	-0.488516	0.057305
C173	C	-0.898783	-1.028873	-0.492634
C174	C	-0.398783	-0.528873	0.007366
H175	H	-0.909740	-1.084683	-0.467001
H176	H	-0.409740	-0.584683	0.032999
H177	H	-0.950381	-0.996313	-0.504882
H178	H	-0.450381	-0.496313	-0.004882
H179	H	-0.870481	-1.038255	-0.546401
H180	H	-0.370481	-0.538255	-0.046401
O181	O	-0.244002	-1.161866	-0.818893
O182	O	0.255998	-0.661866	-0.318893
C183	C	-0.193784	-1.127416	-0.772681
C184	C	0.306216	-0.627416	-0.272681
H185	H	-0.216884	-1.072344	-0.751925
H186	H	0.283116	-0.572344	-0.251925
H187	H	-0.178450	-1.164989	-0.723370
H188	H	0.321550	-0.664989	-0.223370
H189	H	-0.145412	-1.117060	-0.805376
H190	H	0.354588	-0.617060	-0.305376
H191	H	-0.456662	-0.506481	-0.344780
H192	H	0.043338	-0.006481	0.155220
O193	O	-0.304003	-0.923398	-0.821434
O194	O	0.195997	-0.423398	-0.321434
C195	C	-0.353576	-0.868995	-0.848808
C196	C	0.146424	-0.368995	-0.348808
H197	H	-0.404714	-0.896198	-0.864982
H198	H	0.095286	-0.396198	-0.364982
H199	H	-0.363437	-0.825670	-0.804046
H200	H	0.136563	-0.325670	-0.304046
H201	H	-0.332663	-0.841126	-0.899529
H202	H	0.167337	-0.341126	-0.399529
O203	O	-0.209617	-1.027290	-0.918357
O204	O	0.290383	-0.527290	-0.418357
C205	C	-0.210372	-1.027481	-0.996496
C206	C	0.289628	-0.527481	-0.496496
H207	H	-0.266333	-1.016675	-1.019458
H208	H	0.233667	-0.516675	-0.519458
H209	H	-0.175886	-0.982210	-1.016502
H210	H	0.324114	-0.482210	-0.516502
H211	H	-0.189508	-1.083711	-1.016715
H212	H	0.310492	-0.583711	-0.516715
O213	O	-0.600183	-1.139801	-0.291415
O214	O	-0.100183	-0.639801	0.208585
C215	C	-0.648281	-1.179581	-0.251705
C216	C	-0.148281	-0.679581	0.248295
H217	H	-0.700547	-1.179794	-0.284494
H218	H	-0.200547	-0.679794	0.215506
H219	H	-0.627054	-1.239049	-0.242882
H220	H	-0.127054	-0.739049	0.257118
H221	H	-0.656135	-1.152069	-0.195630
H222	H	-0.156135	-0.652069	0.304370
H223	H	-0.220227	-0.610061	-0.401570
H224	H	0.279773	-0.110061	0.098430
O225	O	-0.467079	-1.088682	-0.828829
O226	O	0.032921	-0.588682	-0.328829
C227	C	-0.485542	-1.158769	-0.855941
C228	C	0.014458	-0.658769	-0.355941
H229	H	-0.436040	-1.193203	-0.868346
H230	H	0.063960	-0.693203	-0.368346
H231	H	-0.515757	-1.188377	-0.812491
H232	H	-0.015757	-0.688377	-0.312491
H233	H	-0.519756	-1.151401	-0.908907
H234	H	-0.019756	-0.651401	-0.408907
O235	O	-0.744653	-1.133447	-0.298144
O236	O	-0.244653	-0.633447	0.201856
C237	C	-0.786960	-1.179480	-0.342478
C238	C	-0.286960	-0.679480	0.157522
H239	H	-0.764818	-1.184865	-0.399983
H240	H	-0.264818	-0.684865	0.100017
H241	H	-0.787669	-1.236672	-0.315820
H242	H	-0.287669	-0.736672	0.184180
H243	H	-0.842604	-1.154128	-0.347478
H244	H	-0.342604	-0.654128	0.152522
H245	H	-1.070411	-1.156370	-0.275108
H246	H	-0.570411	-0.656370	0.224892
H247	H	-0.937356	-0.989886	-0.441251
H248	H	-0.437356	-0.489886	0.058749
H249	H	-0.605856	-0.959571	-0.471317
H250	H	-0.105856	-0.459571	0.028683
O251	O	-0.744660	-0.945972	-0.485160
O252	O	-0.244660	-0.445972	0.014840
C253	C	-0.726671	-0.962948	-0.558380
C254	C	-0.226671	-0.462948	-0.058380
H255	H	-0.706466	-1.023179	-0.561278
H256	H	-0.206466	-0.523179	-0.061278
H257	H	-0.774893	-0.954370	-0.597245
H258	H	-0.274893	-0.454370	-0.097245
H259	H	-0.684110	-0.925025	-0.575826
H260	H	-0.184110	-0.425025	-0.075826
O261	O	-0.819894	-1.127421	-0.303688
O262	O	-0.319894	-0.627421	0.196312
C263	C	-0.777507	-1.087059	-0.253779
C264	C	-0.277507	-0.587059	0.246221
H265	H	-0.799658	-1.027581	-0.250136
H266	H	-0.299658	-0.527581	0.249864
H267	H	-0.776683	-1.113987	-0.196615
H268	H	-0.276683	-0.613987	0.303385
H269	H	-0.721907	-1.086971	-0.274228
H270	H	-0.221907	-0.586971	0.225772
