data_functionalizedCrystal
_audit_creation_method	'MofGen! by Chris Wilmer'
_symmetry_space_group_name_H-M	'P1'
_symmetry_Int_Tables_number	1
_symmetry_cell_setting	triclinic
loop_
_symmetry_equiv_pos_as_xyz
  x,y,z
_cell_length_a	9.065215
_cell_length_b	9.065218
_cell_length_c	8.140239
_cell_angle_alpha	89.998449
_cell_angle_beta	90.000251
_cell_angle_gamma	85.015325
loop_
_atom_site_label
_atom_site_type_symbol
_atom_site_fract_x
_atom_site_fract_y
_atom_site_fract_z
O1	O	-0.216354	-1.960393	0.136604
O2	O	0.116979	-1.627060	0.469937
O3	O	0.450312	-1.293727	0.803270
O4	O	-0.234101	-1.531108	0.136605
O5	O	0.099233	-1.197775	0.469938
O6	O	0.432566	-0.864442	0.803272
O7	O	-0.010585	-1.754626	0.136607
O8	O	0.322748	-1.421293	0.469941
O9	O	0.656082	-1.087959	0.803274
O10	O	-0.439870	-1.736875	0.136601
O11	O	-0.106537	-1.403542	0.469934
O12	O	0.226796	-1.070209	0.803268
O13	O	-0.010583	-1.754619	-0.136620
O14	O	0.322750	-1.421285	0.196714
O15	O	0.656083	-1.087952	0.530047
O16	O	-0.234099	-1.531101	-0.136622
O17	O	0.099234	-1.197768	0.196711
O18	O	0.432568	-0.864434	0.530044
O19	O	-0.216353	-1.960386	-0.136623
O20	O	0.116981	-1.627053	0.196710
O21	O	0.450314	-1.293719	0.530043
Zn22	Zn	-0.225226	-1.745742	-0.180003
Zn23	Zn	0.108108	-1.412409	0.153330
Zn24	Zn	0.441441	-1.079076	0.486663
Zn25	Zn	-0.225228	-1.745752	0.179985
Zn26	Zn	0.108106	-1.412419	0.513318
Zn27	Zn	0.441439	-1.079085	0.846652
O28	O	-0.439869	-1.736868	-0.136626
O29	O	-0.106535	-1.403535	0.196707
O30	O	0.226798	-1.070201	0.530041
C31	C	-0.232394	-1.476118	-0.000008
C32	C	0.100939	-1.142785	0.333325
C33	C	0.434272	-0.809451	0.666658
C34	C	-0.227295	-1.312275	-0.000007
C35	C	0.106039	-0.978942	0.333326
C36	C	0.439372	-0.645608	0.666659
C37	C	0.044403	-1.752917	-0.000002
C38	C	0.377736	-1.419584	0.333332
C39	C	0.711069	-1.086251	0.666665
C40	C	0.208246	-1.747819	0.000011
C41	C	0.541579	-1.414486	0.333345
C42	C	0.874912	-1.081153	0.666678
C43	C	-0.218059	-2.015376	-0.000007
C44	C	0.115274	-1.682043	0.333327
C45	C	0.448608	-1.348710	0.666660
C46	C	-0.223159	-2.179219	0.000003
C47	C	0.110175	-1.845886	0.333337
C48	C	0.443508	-1.512552	0.666670
C49	C	0.505144	-1.738577	-0.000001
C50	C	0.838477	-1.405243	0.333332
C51	C	1.171811	-1.071910	0.666666
C52	C	0.341301	-1.743674	0.000033
C53	C	0.674634	-1.410341	0.333366
C54	C	1.007967	-1.077008	0.666699
N55	N	-0.225223	-1.745747	-0.425686
N56	N	0.108110	-1.412413	-0.092353
N57	N	0.441443	-1.079080	0.240981
N58	N	-0.225218	-1.745759	0.425668
N59	N	0.108115	-1.412426	0.759001
N60	N	0.441448	-1.079092	1.092334
