data_functionalizedCrystal
_audit_creation_method	'MofGen! by Chris Wilmer'
_symmetry_space_group_name_H-M	'P1'
_symmetry_Int_Tables_number	1
_symmetry_cell_setting	triclinic
loop_
_symmetry_equiv_pos_as_xyz
  x,y,z
_cell_length_a	14.908571
_cell_length_b	19.121063
_cell_length_c	14.908308
_cell_angle_alpha	84.445373
_cell_angle_beta	89.824947
_cell_angle_gamma	89.303906
loop_
_atom_site_label
_atom_site_type_symbol
_atom_site_fract_x
_atom_site_fract_y
_atom_site_fract_z
Zn1	Zn	1.324072	-0.366417	0.606393
Zn2	Zn	1.824072	0.133583	1.106393
Zn3	Zn	1.326220	-0.477475	0.461735
Zn4	Zn	1.826220	0.022525	0.961735
Zn5	Zn	1.183168	-0.352931	0.446699
Zn6	Zn	1.683168	0.147069	0.946699
Zn7	Zn	1.167296	-0.476641	0.603344
Zn8	Zn	1.667296	0.023359	1.103344
O9	O	1.250189	-0.418366	0.529543
O10	O	1.750189	0.081634	1.029543
O11	O	1.449836	-0.387142	0.594773
O12	O	1.949836	0.112858	1.094773
O13	O	1.314785	-0.455659	0.333644
O14	O	1.814785	0.044341	0.833644
O15	O	1.207604	-0.256469	0.462866
O16	O	1.707604	0.243531	0.962866
O17	O	1.451414	-0.468736	0.488493
O18	O	1.951414	0.031264	0.988493
O19	O	1.311125	-0.266377	0.580193
O20	O	1.811125	0.233623	1.080193
O21	O	1.209686	-0.364157	0.322597
O22	O	1.709686	0.135843	0.822597
O23	O	1.055584	-0.363348	0.459909
O24	O	1.555584	0.136652	0.959909
O25	O	1.180551	-0.467315	0.729845
O26	O	1.680551	0.032685	1.229845
O27	O	1.043922	-0.454238	0.574995
O28	O	1.543922	0.045762	1.074995
O29	O	1.295734	-0.386334	0.732085
O30	O	1.795734	0.113666	1.232085
O31	O	1.299394	-0.575616	0.485536
O32	O	1.799394	-0.075616	0.985536
O33	O	1.182633	-0.575003	0.589576
O34	O	1.682633	-0.075003	1.089576
C35	C	1.017218	-0.407239	0.515490
C36	C	1.517218	0.092761	1.015490
C37	C	0.917550	-0.402497	0.509501
C38	C	1.417550	0.097503	1.009501
C39	C	0.718169	-0.488362	0.617938
C40	C	1.218169	0.011638	1.117938
C41	C	0.624521	-0.483909	0.612314
C42	C	1.124521	0.016091	1.112314
C43	C	0.636605	-0.389134	0.492633
C44	C	1.136605	0.110866	0.992633
C45	C	0.730253	-0.393588	0.498257
C46	C	1.230253	0.106412	0.998257
C47	C	0.771031	-0.443204	0.560911
C48	C	1.271031	0.056796	1.060911
C49	C	0.864680	-0.447660	0.566530
C50	C	1.364680	0.052340	1.066530
C51	C	0.876762	-0.352883	0.446854
C52	C	1.376762	0.147117	0.946854
C53	C	0.783115	-0.348429	0.441230
C54	C	1.283115	0.151571	0.941230
C55	C	1.239548	-0.600787	0.538878
C56	C	1.739548	-0.100787	1.038878
C57	C	1.235075	-0.678833	0.542906
C58	C	1.735075	-0.178833	1.042906
C59	C	1.293807	-0.715799	0.490682
C60	C	1.793807	-0.215799	0.990682
C61	C	1.289606	-0.789131	0.494476
C62	C	1.789606	-0.289131	0.994476
C63	C	1.226668	-0.825496	0.550491
C64	C	1.726668	-0.325496	1.050491
C65	C	1.167934	-0.788525	0.602722
C66	C	1.667934	-0.288525	1.102722
C67	C	1.172140	-0.715194	0.598932
C68	C	1.672140	-0.215194	1.098932
C69	C	1.210929	-1.046893	0.564648
C70	C	1.710929	-0.546893	1.064648
C71	C	1.206726	-1.120229	0.568432
C72	C	1.706726	-0.620229	1.068432
C73	C	1.328400	-1.120830	0.460187
C74	C	1.828400	-0.620830	0.960187
C75	C	1.332596	-1.047498	0.456398
C76	C	1.832596	-0.547498	0.956398
C77	C	1.273865	-1.010533	0.508632
C78	C	1.773865	-0.510533	1.008632
C79	C	1.222371	-0.900454	0.554369
C80	C	1.722371	-0.400454	1.054369
C81	C	1.278168	-0.935578	0.504758
C82	C	1.778168	-0.435578	1.004758
C83	C	1.484070	-0.429537	0.543650
C84	C	1.984070	0.070463	1.043650
C85	C	1.583736	-0.434297	0.549662
C86	C	2.083736	0.065703	1.049662
C87	C	1.236132	-0.428235	0.764574
C88	C	1.736132	0.071765	1.264574
C89	C	1.230142	-0.432441	0.864731
C90	C	1.730142	0.067559	1.364731
C91	C	1.260895	-0.235235	0.520192
C92	C	1.760895	0.264765	1.020192
C93	C	1.265458	-0.157195	0.516207
C94	C	1.765458	0.342805	1.016207
C95	C	1.264246	-0.408487	0.295425
C96	C	1.764246	0.091513	0.795425
C97	C	1.270421	-0.404092	0.195270
C98	C	1.770421	0.095908	0.695270
C99	C	1.338824	-0.356002	1.055270
C100	C	1.838824	0.143998	1.555270
C101	C	1.333199	-0.359951	1.149376
C102	C	1.833199	0.140049	1.649376
C103	C	1.213262	-0.444285	1.147051
C104	C	1.713262	0.055715	1.647051
C105	C	1.218888	-0.440335	1.052945
C106	C	1.718888	0.059665	1.552945
C107	C	1.281672	-0.396193	1.007057
C108	C	1.781672	0.103807	1.507057
C109	C	1.287301	-0.392248	0.912950
C110	C	1.787301	0.107752	1.412950
C111	C	1.167360	-0.476578	0.910626
C112	C	1.667360	0.023422	1.410626
C113	C	1.161735	-0.480527	1.004732
C114	C	1.661735	0.019473	1.504732
H115	H	0.749900	-0.308032	0.390222
H116	H	1.249900	0.191968	0.890222
H117	H	1.171125	-0.930070	0.599975
H118	H	1.671125	-0.430070	1.099975
H119	H	1.337431	-0.819226	0.451949
H120	H	1.837431	-0.319226	0.951949
C121	C	1.377824	-0.328554	1.294663
C122	C	1.877824	0.171446	1.794663
C123	C	1.396020	-0.315770	1.202372
C124	C	1.896020	0.184230	1.702372
H125	H	1.416604	-0.301271	1.327379
H126	H	1.916604	0.198729	1.827379
H127	H	1.387277	-0.376995	1.313284
H128	H	1.887277	0.123005	1.813284
H129	H	1.317251	-0.316052	1.305918
H130	H	1.817251	0.183948	1.805918
H131	H	1.456591	-0.328277	1.191117
H132	H	1.956591	0.171723	1.691117
H133	H	1.386573	-0.267318	1.183745
H134	H	1.886573	0.232682	1.683745
H135	H	1.383845	-1.017891	0.410786
H136	H	1.883845	-0.517891	0.910786
H137	H	0.751371	-0.528765	0.668948
H138	H	1.251371	-0.028765	1.168948
C139	C	1.051449	-0.721961	0.706306
C140	C	1.551449	-0.221961	1.206306
C141	C	1.107582	-0.674559	0.656340
C142	C	1.607582	-0.174559	1.156340
H143	H	1.011593	-0.696873	0.741748
H144	H	1.511593	-0.196873	1.241748
H145	H	1.086789	-0.753838	0.744630
H146	H	1.586789	-0.253838	1.244630
H147	H	1.017886	-0.747312	0.666423
H148	H	1.517886	-0.247312	1.166423
H149	H	1.141150	-0.649211	0.696224
H150	H	1.641150	-0.149211	1.196224
H151	H	1.072237	-0.642670	0.618013
H152	H	1.572237	-0.142670	1.118013
H153	H	1.162146	-0.480223	1.184428
H154	H	1.662146	0.019777	1.684428
C155	C	1.015253	-0.502316	0.874244
C156	C	1.515253	-0.002316	1.374244
C157	C	1.104528	-0.520756	0.857627
C158	C	1.604528	-0.020756	1.357627
H159	H	0.976467	-0.529593	0.841527
H160	H	1.476467	-0.029593	1.341527
H161	H	1.005816	-0.453874	0.855617
H162	H	1.505816	0.046126	1.355617
H163	H	1.002927	-0.510988	0.936860
H164	H	1.502927	-0.010988	1.436860
H165	H	1.116857	-0.512078	0.795012
H166	H	1.616857	-0.012078	1.295012
H167	H	1.113969	-0.569209	0.876250
H168	H	1.613969	-0.069209	1.376250
H169	H	1.116692	-0.818140	0.648335
H170	H	1.616692	-0.318140	1.148335
C171	C	0.915113	-0.233474	0.398837
C172	C	1.415113	0.266526	0.898837
C173	C	0.934871	-0.303239	0.384165
C174	C	1.434871	0.196761	0.884165
H175	H	0.950984	-0.202830	0.360130
H176	H	1.450984	0.297170	0.860130
H177	H	0.927454	-0.226548	0.459793
H178	H	1.427454	0.273452	0.959793
H179	H	0.853501	-0.223729	0.386520
H180	H	1.353501	0.276271	0.886520
H181	H	0.996481	-0.312986	0.396488
H182	H	1.496481	0.187014	0.896488
H183	H	0.922537	-0.310169	0.323194
H184	H	1.422537	0.189831	0.823194
C185	C	1.400710	-0.312513	0.912043
C186	C	1.900710	0.187487	1.412043
C187	C	1.407840	-0.307490	1.004824
C188	C	1.907840	0.192510	1.504824
H189	H	1.443324	-0.282567	0.880903
H190	H	1.943324	0.217433	1.380903
H191	H	1.341994	-0.298709	0.892468
H192	H	1.841994	0.201291	1.392468
H193	H	1.411993	-0.359671	0.899834
H194	H	1.911993	0.140329	1.399834
H195	H	1.396551	-0.260333	1.017033
H196	H	1.896551	0.239667	1.517033
H197	H	1.466570	-0.321290	1.024406
H198	H	1.966570	0.178710	1.524406
H199	H	1.110617	-0.516465	1.042106
H200	H	1.610617	-0.016465	1.542106
H201	H	0.897880	-0.488061	0.617545
H202	H	1.397880	0.011939	1.117545
H203	H	1.329415	-0.905967	0.459154
H204	H	1.829415	-0.405967	0.959154
C205	C	1.413656	-0.723766	0.384073
C206	C	1.913656	-0.223766	0.884073
C207	C	1.362991	-0.675830	0.429107
C208	C	1.862991	-0.175830	0.929107
H209	H	1.456372	-0.699092	0.346064
H210	H	1.956372	-0.199092	0.846064
H211	H	1.375036	-0.749093	0.348701
H212	H	1.875036	-0.249093	0.848701
H213	H	1.443932	-0.755618	0.426915
H214	H	1.943932	-0.255618	0.926915
H215	H	1.332709	-0.643981	0.386264
H216	H	1.832709	-0.143981	0.886264
H217	H	1.401616	-0.650492	0.464481
H218	H	1.901616	-0.150492	0.964481
C219	C	0.621987	-0.578036	0.731175
C220	C	1.121987	-0.078036	1.231175
C221	C	0.566414	-0.533549	0.674998
C222	C	1.066414	-0.033549	1.174998
H223	H	0.586112	-0.608684	0.769873
H224	H	1.086112	-0.108684	1.269873
H225	H	0.658232	-0.550671	0.766332
H226	H	1.158232	-0.050671	1.266332
H227	H	0.659298	-0.604932	0.695418
H228	H	1.159298	-0.104932	1.195418
H229	H	0.529108	-0.506648	0.710756
H230	H	1.029108	-0.006648	1.210756
H231	H	0.530154	-0.560916	0.639839
H232	H	1.030154	-0.060916	1.139839
H233	H	0.603387	-0.348735	0.441629
H234	H	1.103387	0.151265	0.941629
H235	H	1.376216	-1.150935	0.417663
H236	H	1.876216	-0.650935	0.917663
H237	H	1.155484	-1.149837	0.614063
H238	H	1.655484	-0.649837	1.114063
H239	H	1.163106	-1.016803	0.607177
H240	H	1.663106	-0.516803	1.107177
H241	H	1.338424	-0.356306	0.875590
H242	H	1.838424	0.143694	1.375590
