data_functionalizedCrystal
_audit_creation_method	'MofGen! by Chris Wilmer'
_symmetry_space_group_name_H-M	'P1'
_symmetry_Int_Tables_number	1
_symmetry_cell_setting	triclinic
loop_
_symmetry_equiv_pos_as_xyz
  x,y,z
_cell_length_a	17.077404
_cell_length_b	18.215405
_cell_length_c	17.077396
_cell_angle_alpha	89.968409
_cell_angle_beta	89.978556
_cell_angle_gamma	90.023132
loop_
_atom_site_label
_atom_site_type_symbol
_atom_site_fract_x
_atom_site_fract_y
_atom_site_fract_z
Zn1	Zn	1.200044	-0.293019	-0.443866
Zn2	Zn	1.700044	0.206981	0.056134
Zn3	Zn	1.199946	-0.416092	-0.312593
Zn4	Zn	1.699946	0.083908	0.187407
Zn5	Zn	1.068776	-0.293040	-0.312610
Zn6	Zn	1.568776	0.206960	0.187390
Zn7	Zn	1.068739	-0.416044	-0.443812
Zn8	Zn	1.568739	0.083956	0.056188
O9	O	1.134376	-0.354549	-0.378221
O10	O	1.634376	0.145451	0.121779
O11	O	1.309878	-0.309356	-0.426468
O12	O	1.809878	0.190644	0.073532
O13	O	1.182521	-0.399798	-0.202749
O14	O	1.682521	0.100202	0.297251
O15	O	1.086245	-0.190053	-0.330051
O16	O	1.586245	0.309947	0.169949
O17	O	1.309806	-0.399777	-0.330023
O18	O	1.809806	0.100223	0.169977
O19	O	1.182687	-0.190037	-0.426485
O20	O	1.682687	0.309963	0.073515
O21	O	1.086150	-0.309392	-0.202761
O22	O	1.586150	0.190608	0.297239
O23	O	0.958924	-0.309346	-0.329999
O24	O	1.458924	0.190654	0.170001
O25	O	1.086182	-0.399696	-0.553667
O26	O	1.586182	0.100304	-0.053667
O27	O	0.958897	-0.399716	-0.426392
O28	O	1.458897	0.100284	0.073608
O29	O	1.182651	-0.309309	-0.553706
O30	O	1.682651	0.190691	-0.053706
O31	O	1.182485	-0.519070	-0.329970
O32	O	1.682485	-0.019070	0.170030
O33	O	1.086088	-0.519035	-0.426376
O34	O	1.586088	-0.019035	0.073624
C35	C	0.930428	-0.354529	-0.378192
C36	C	1.430428	0.145471	0.121808
C37	C	0.843178	-0.354538	-0.378198
C38	C	1.343178	0.145462	0.121802
C39	C	0.467398	-0.307571	-0.428549
C40	C	0.967398	0.192429	0.071451
C41	C	0.549379	-0.307566	-0.428540
C42	C	1.049379	0.192434	0.071460
C43	C	0.590330	-0.354564	-0.378240
C44	C	1.090330	0.145436	0.121760
C45	C	0.549296	-0.401576	-0.327951
C46	C	1.049296	0.098424	0.172049
C47	C	0.467317	-0.401585	-0.327965
C48	C	0.967317	0.098415	0.172035
C49	C	0.720166	-0.401554	-0.327926
C50	C	1.220166	0.098446	0.172074
C51	C	0.802150	-0.401545	-0.327912
C52	C	1.302150	0.098455	0.172088
C53	C	0.802228	-0.307535	-0.428502
C54	C	1.302228	0.192465	0.071498
C55	C	0.720249	-0.307544	-0.428515
C56	C	1.220249	0.192456	0.071485
C57	C	0.679221	-0.354555	-0.378225
C58	C	1.179221	0.145445	0.121775
C59	C	1.134293	-0.545755	-0.378183
C60	C	1.634293	-0.045755	0.121817
C61	C	1.134330	-0.627554	-0.378193
C62	C	1.634330	-0.127554	0.121807
C63	C	1.184642	-0.815742	-0.328087
C64	C	1.684642	-0.315742	0.171913
C65	C	1.184677	-0.892601	-0.328106
C66	C	1.684677	-0.392601	0.171894
C67	C	1.084211	-0.892604	-0.428411
C68	C	1.584211	-0.392604	0.071589
C69	C	1.084181	-0.815747	-0.428395
C70	C	1.584181	-0.315747	0.071605
C71	C	1.134395	-0.777317	-0.378229
C72	C	1.634395	-0.277317	0.121771
C73	C	1.134460	-0.931034	-0.378263
C74	C	1.634460	-0.431034	0.121737
C75	C	1.134498	-1.014367	-0.378284
C76	C	1.634498	-0.514367	0.121716
C77	C	1.134358	-0.693979	-0.378209
C78	C	1.634358	-0.193979	0.121791
C79	C	1.339120	-0.354569	-0.378250
C80	C	1.839120	0.145431	0.121750
C81	C	1.426370	-0.354578	-0.378262
C82	C	1.926370	0.145422	0.121738
C83	C	1.134424	-0.354495	-0.582965
C84	C	1.634424	0.145505	-0.082965
C85	C	1.134444	-0.354472	-0.670215
C86	C	1.634444	0.145528	-0.170215
C87	C	1.134481	-0.162596	-0.378276
C88	C	1.634481	0.337404	0.121724
C89	C	1.134525	-0.080797	-0.378299
C90	C	1.634525	0.419203	0.121701
C91	C	1.184677	-0.307403	-0.711227
C92	C	1.684677	0.192597	-0.211227
C93	C	1.184687	-0.307379	-0.793207
C94	C	1.684687	0.192621	-0.293207
C95	C	1.134466	-0.354427	-0.834174
C96	C	1.634466	0.145573	-0.334174
C97	C	1.084227	-0.401497	-0.793156
C98	C	1.584227	0.098503	-0.293156
C99	C	1.084214	-0.401517	-0.711177
C100	C	1.584214	0.098483	-0.211177
C101	C	1.084259	-0.401453	-0.964027
C102	C	1.584259	0.098547	-0.464027
C103	C	1.084273	-0.401434	-1.046011
C104	C	1.584273	0.098566	-0.546011
C105	C	1.184731	-0.307314	-1.046056
C106	C	1.684731	0.192686	-0.546056
C107	C	1.184718	-0.307335	-0.964077
C108	C	1.684718	0.192665	-0.464077
C109	C	1.134480	-0.354406	-0.923065
C110	C	1.634480	0.145594	-0.423065
C111	C	1.134374	-0.354550	-0.174273
C112	C	1.634374	0.145450	0.325727
C113	C	1.134506	-0.354366	-0.087023
C114	C	1.634506	0.145634	0.412977
H115	H	0.835490	-0.439817	-0.286956
H116	H	1.335490	0.060183	0.213044
H117	H	0.582644	-0.439846	-0.287000
H118	H	1.082644	0.060154	0.213000
H119	H	1.225594	-0.923882	-0.287276
H120	H	1.725594	-0.423882	0.212724
C121	C	1.239883	-0.773473	-0.272906
C122	C	1.739883	-0.273473	0.227094
N123	N	1.281494	-0.741637	-0.231345
N124	N	1.781494	-0.241637	0.268655
C125	C	1.028970	-0.934883	-0.483582
C126	C	1.528970	-0.434883	0.016418
N127	N	0.987357	-0.966727	-0.525135
N128	N	1.487357	-0.466727	-0.025135
C129	C	1.028918	-0.773477	-0.483574
C130	C	1.528918	-0.273477	0.016426
N131	N	0.987303	-0.741640	-0.525141
N132	N	1.487303	-0.241640	-0.025141
H133	H	1.225575	-0.269094	-0.677877
H134	H	1.725575	0.230906	-0.177877
H135	H	1.225593	-0.269053	-0.826596
H136	H	1.725593	0.230947	-0.326596
H137	H	0.835637	-0.269256	-0.469448
H138	H	1.335637	0.230744	0.030552
H139	H	0.434062	-0.269295	-0.469504
H140	H	0.934062	0.230705	0.030496
H141	H	1.043301	-0.439837	-0.677786
H142	H	1.543301	0.060163	-0.177786
H143	H	1.043334	-0.439801	-0.826518
H144	H	1.543334	0.060199	-0.326518
H145	H	0.686763	-0.439839	-0.286978
H146	H	1.186763	0.060161	0.213022
C147	C	0.594506	-0.255849	-0.483853
C148	C	1.094506	0.244151	0.016147
N149	N	0.628496	-0.216891	-0.525515
N150	N	1.128496	0.283109	-0.025515
H151	H	1.225616	-0.269028	-0.930724
H152	H	1.725616	0.230972	-0.430724
C153	C	0.422186	-0.453294	-0.272643
C154	C	0.922186	0.046706	0.227357
N155	N	0.388194	-0.492244	-0.230975
N156	N	0.888194	0.007756	0.269025
H157	H	1.225635	-0.268986	-1.079453
H158	H	1.725635	0.231014	-0.579453
C159	C	1.029023	-0.453184	-1.091073
C160	C	1.529023	0.046816	-0.591073
N161	N	0.987407	-0.492162	-1.125014
N162	N	1.487407	0.007838	-0.625014
C163	C	1.028997	-0.453237	-0.918915
C164	C	1.528997	0.046763	-0.418915
N165	N	0.987378	-0.492243	-0.884937
N166	N	1.487378	0.007757	-0.384937
H167	H	0.686909	-0.269270	-0.469470
H168	H	1.186909	0.230730	0.030530
