data_functionalizedCrystal
_audit_creation_method	'MofGen! by Chris Wilmer'
_symmetry_space_group_name_H-M	'P1'
_symmetry_Int_Tables_number	1
_symmetry_cell_setting	triclinic
loop_
_symmetry_equiv_pos_as_xyz
  x,y,z
_cell_length_a	13.330367
_cell_length_b	16.992694
_cell_length_c	16.992695
_cell_angle_alpha	90.668223
_cell_angle_beta	89.995303
_cell_angle_gamma	89.998112
loop_
_atom_site_label
_atom_site_type_symbol
_atom_site_fract_x
_atom_site_fract_y
_atom_site_fract_z
O1	O	0.083299	-1.050854	-0.166916
O2	O	0.416632	-0.717521	0.166417
O3	O	0.749965	-0.384187	0.499750
O4	O	0.083328	-0.822454	-0.165085
O5	O	0.416662	-0.489121	0.168248
O6	O	0.749995	-0.155787	0.501582
O7	O	0.083306	-0.935738	-0.051801
O8	O	0.416639	-0.602405	0.281533
O9	O	0.749972	-0.269072	0.614866
O10	O	0.083321	-0.937570	-0.280201
O11	O	0.416655	-0.604236	0.053133
O12	O	0.749988	-0.270903	0.386466
O13	O	-0.083541	-0.935721	-0.051797
O14	O	0.249792	-0.602387	0.281536
O15	O	0.583125	-0.269054	0.614870
O16	O	-0.083519	-0.822436	-0.165081
O17	O	0.249814	-0.489103	0.168252
O18	O	0.583148	-0.155770	0.501585
O19	O	-0.083548	-1.050836	-0.166913
O20	O	0.249785	-0.717503	0.166421
O21	O	0.583118	-0.384170	0.499754
Cu22	Cu	-0.098768	-0.936635	-0.165997
Cu23	Cu	0.234565	-0.603301	0.167337
Cu24	Cu	0.567899	-0.269968	0.500670
Cu25	Cu	0.098548	-0.936656	-0.166001
Cu26	Cu	0.431881	-0.603322	0.167332
Cu27	Cu	0.765215	-0.269989	0.500666
O28	O	-0.083526	-0.937552	-0.280197
O29	O	0.249808	-0.604219	0.053136
O30	O	0.583141	-0.270885	0.386470
C31	C	-0.000092	-0.793085	-0.162727
C32	C	0.333242	-0.459752	0.170606
C33	C	0.666575	-0.126418	0.503939
C34	C	-0.000081	-0.705600	-0.155699
C35	C	0.333253	-0.372267	0.177635
C36	C	0.666586	-0.038934	0.510968
C37	C	-0.000118	-0.933374	-0.022439
C38	C	0.333216	-0.600041	0.310895
C39	C	0.666549	-0.266707	0.644228
C40	C	-0.000116	-0.926345	0.065046
C41	C	0.333217	-0.593012	0.398379
C42	C	0.666550	-0.259678	0.731713
N43	N	-0.237550	-0.936626	-0.165993
N44	N	0.095784	-0.603292	0.167340
N45	N	0.429117	-0.269959	0.500673
C46	C	-0.710163	-0.886490	-0.216142
C47	C	-0.376829	-0.553156	0.117191
C48	C	-0.043496	-0.219823	0.450524
C49	C	-0.710151	-0.986842	-0.115855
C50	C	-0.376817	-0.653509	0.217478
C51	C	-0.043484	-0.320176	0.550812
C52	C	-0.605132	-0.986833	-0.115852
C53	C	-0.271799	-0.653500	0.217481
C54	C	0.061534	-0.320167	0.550815
C55	C	-0.552624	-0.936653	-0.165996
C56	C	-0.219291	-0.603319	0.167338
C57	C	0.114043	-0.269986	0.500671
C58	C	-0.605134	-0.886481	-0.216142
C59	C	-0.271801	-0.553147	0.117191
C60	C	0.061532	-0.219814	0.450524
C61	C	-0.552614	-1.037010	-0.065712
C62	C	-0.219281	-0.703677	0.267621
C63	C	0.114053	-0.370343	0.600955
C64	C	-0.447589	-1.037004	-0.065708
C65	C	-0.114256	-0.703670	0.267626
C66	C	0.219077	-0.370337	0.600959
C67	C	-0.395079	-0.986818	-0.115848
C68	C	-0.061746	-0.653485	0.217485
C69	C	0.271587	-0.320151	0.550819
C70	C	-0.447596	-0.936644	-0.165996
C71	C	-0.114263	-0.603310	0.167337
C72	C	0.219071	-0.269977	0.500671
C73	C	-0.395088	-0.886463	-0.216140
C74	C	-0.061755	-0.553130	0.117194
C75	C	0.271579	-0.219796	0.450527
C76	C	-0.447603	-0.836284	-0.266284
C77	C	-0.114270	-0.502951	0.067049
C78	C	0.219064	-0.169617	0.400382
C79	C	-0.552624	-0.836295	-0.266283
C80	C	-0.219291	-0.502962	0.067051
C81	C	0.114042	-0.169629	0.400384
C82	C	-0.290058	-0.986807	-0.115850
C83	C	0.043276	-0.653473	0.217484
C84	C	0.376609	-0.320140	0.550817
C85	C	-0.290060	-0.886454	-0.216140
C86	C	0.043273	-0.553121	0.117193
C87	C	0.376607	-0.219787	0.450527
N88	N	0.237329	-0.936671	-0.165998
N89	N	0.570663	-0.603337	0.167335
N90	N	0.903996	-0.270004	0.500668
C91	C	-0.000126	-1.080205	-0.169270
C92	C	0.333207	-0.746872	0.164063
C93	C	0.666540	-0.413539	0.497397
C94	C	-0.000131	-1.167690	-0.176299
C95	C	0.333202	-0.834357	0.157034
C96	C	0.666536	-0.501023	0.490368
C97	C	-0.000077	-0.659610	-0.223517
C98	C	0.333257	-0.326276	0.109817
C99	C	0.666590	0.007057	0.443150
C100	C	-0.000091	-0.577409	-0.216908
C101	C	0.333242	-0.244075	0.116426
C102	C	0.666576	0.089258	0.449759
C103	C	-0.000102	-0.541201	-0.142480
C104	C	0.333231	-0.207867	0.190853
C105	C	0.666565	0.125466	0.524187
C106	C	-0.000109	-0.587198	-0.074657
C107	C	0.333225	-0.253864	0.258676
C108	C	0.666558	0.079469	0.592010
C109	C	-0.000102	-0.669397	-0.081267
C110	C	0.333232	-0.336063	0.252067
C111	C	0.666565	-0.002730	0.585400
C112	C	-0.000131	-0.295886	-0.115086
C113	C	0.333203	0.037447	0.218248
C114	C	0.666536	0.370780	0.551581
C115	C	-0.000135	-0.213681	-0.108481
C116	C	0.333199	0.119652	0.224852
C117	C	0.666532	0.452986	0.558186
C118	C	-0.000119	-0.203898	-0.250732
C119	C	0.333215	0.129435	0.082601
C120	C	0.666548	0.462769	0.415934
C121	C	-0.000106	-0.286099	-0.257336
C122	C	0.333228	0.047234	0.075998
C123	C	0.666561	0.380568	0.409331
C124	C	-0.000118	-0.332089	-0.189512
C125	C	0.333216	0.001244	0.143821
C126	C	0.666549	0.334578	0.477154
N127	N	-0.000113	-0.457178	-0.135723
N128	N	0.333220	-0.123845	0.197610
N129	N	0.666553	0.209488	0.530944
N130	N	-0.000113	-0.416110	-0.196270
N131	N	0.333220	-0.082776	0.137063
N132	N	0.666553	0.250557	0.470396
C133	C	-0.000100	-0.939917	-0.309559
C134	C	0.333233	-0.606583	0.023774
C135	C	0.666566	-0.273250	0.357108
C136	C	-0.000095	-0.946945	-0.397044
C137	C	0.333238	-0.613612	-0.063710
C138	C	0.666572	-0.280279	0.269623
C139	C	-0.000126	-0.994163	0.111037
C140	C	0.333207	-0.660830	0.444370
C141	C	0.666541	-0.327496	0.777704
C142	C	-0.000116	-0.987554	0.193238
C143	C	0.333218	-0.654221	0.526571
C144	C	0.666551	-0.320887	0.859904
C145	C	-0.000103	-0.913127	0.229446
C146	C	0.333231	-0.579793	0.562779
C147	C	0.666564	-0.246460	0.896113
C148	C	-0.000090	-0.845303	0.183449
C149	C	0.333243	-0.511970	0.516782
C150	C	0.666577	-0.178637	0.850116
C151	C	-0.000093	-0.851913	0.101250
C152	C	0.333240	-0.518580	0.434583
C153	C	0.666574	-0.185246	0.767916
C154	C	-0.000085	-0.885732	0.474760
C155	C	0.333248	-0.552399	0.808094
C156	C	0.666581	-0.219065	1.141427
C157	C	-0.000085	-0.879127	0.556966
C158	C	0.333248	-0.545794	0.890299
C159	C	0.666581	-0.212461	1.223632
C160	C	-0.000109	-1.021379	0.566749
C161	C	0.333224	-0.688045	0.900082
C162	C	0.666557	-0.354712	1.233415
C163	C	-0.000118	-1.027982	0.484547
C164	C	0.333215	-0.694649	0.817881
C165	C	0.666548	-0.361315	1.151214
C166	C	-0.000100	-0.960159	0.438558
C167	C	0.333233	-0.626826	0.771891
C168	C	0.666566	-0.293492	1.105224
N169	N	-0.000095	-0.906369	0.313468
N170	N	0.333238	-0.573036	0.646801
N171	N	0.666571	-0.239703	0.980135
N172	N	-0.000101	-0.966917	0.354537
N173	N	0.333233	-0.633583	0.687870
N174	N	0.666566	-0.300250	1.021204
H175	H	-0.247314	-0.845587	-0.256970
H176	H	0.086019	-0.512254	0.076363
H177	H	0.419352	-0.178921	0.409696
H178	H	-0.404838	-1.077861	-0.024877
H179	H	-0.071505	-0.744528	0.308457
H180	H	0.261829	-0.411194	0.641790
Br181	Br	-0.000134	-1.113419	0.629167
Br182	Br	0.333200	-0.780086	0.962500
Br183	Br	0.666533	-0.446752	1.295833
Br184	Br	-0.000051	-0.708741	-0.324531
Br185	Br	0.333282	-0.375408	0.008803
Br186	Br	0.666615	-0.042074	0.342136
Br187	Br	-0.376331	-0.768191	-0.334342
Br188	Br	-0.042998	-0.434858	-0.001009
Br189	Br	0.290336	-0.101525	0.332324
Br190	Br	-0.218794	-1.054909	-0.047809
Br191	Br	0.114540	-0.721575	0.285525
Br192	Br	0.447873	-0.388242	0.618858
H193	H	-0.000087	-0.539966	-0.272133
H194	H	0.333247	-0.206633	0.061201
H195	H	0.666580	0.126700	0.394534
H196	H	-0.000129	-1.088589	0.455073
H197	H	0.333204	-0.755255	0.788406
H198	H	0.666537	-0.421922	1.121739
H199	H	-0.000073	-0.784703	0.212936
H200	H	0.333260	-0.451369	0.546270
H201	H	0.666594	-0.118036	0.879603
H202	H	-0.000126	-1.042779	0.230680
H203	H	0.333207	-0.709446	0.564014
H204	H	0.666541	-0.376112	0.897347
Br205	Br	-0.000078	-0.778112	0.606105
Br206	Br	0.333255	-0.444778	0.939438
Br207	Br	0.666589	-0.111445	1.272772
H208	H	-0.000085	-0.315574	-0.317942
H209	H	0.333248	0.017760	0.015391
H210	H	0.666582	0.351093	0.348724
Br211	Br	-0.781425	-0.818387	-0.284188
Br212	Br	-0.448092	-0.485053	0.049145
Br213	Br	-0.114758	-0.151720	0.382479
Br214	Br	-0.000054	-0.793685	0.412356
Br215	Br	0.333279	-0.460352	0.745689
Br216	Br	0.666612	-0.127019	1.079022
H217	H	-0.752906	-1.027702	-0.075033
H218	H	-0.419573	-0.694369	0.258300
H219	H	-0.086239	-0.361036	0.591633
H220	H	-0.595389	-0.795442	-0.307109
H221	H	-0.262055	-0.462109	0.026224
H222	H	0.071278	-0.128776	0.359557
Br223	Br	-0.623871	-1.105118	0.002331
Br224	Br	-0.290537	-0.771785	0.335664
Br225	Br	0.042796	-0.438452	0.668997
H226	H	-0.000111	-0.166444	-0.305950
H227	H	0.333222	0.166889	0.027384
H228	H	0.666556	0.500222	0.360717
Br229	Br	-0.000072	-0.759871	0.038832
Br230	Br	0.333262	-0.426537	0.372165
Br231	Br	0.666595	-0.093204	0.705499
Br232	Br	-0.000171	-0.164541	-0.007465
Br233	Br	0.333162	0.168792	0.325868
Br234	Br	0.666496	0.502125	0.659201
H235	H	-0.000141	-0.333322	-0.059859
H236	H	0.333192	0.000012	0.273475
H237	H	0.666525	0.333345	0.606808
H238	H	-0.000132	-0.557710	-0.014056
H239	H	0.333201	-0.224377	0.319277
H240	H	0.666535	0.108956	0.652610
H241	H	-0.000104	-0.706842	-0.026042
H242	H	0.333229	-0.373509	0.307291
H243	H	0.666562	-0.040175	0.640625
H244	H	-0.000143	-1.054770	0.081563
H245	H	0.333190	-0.721437	0.414896
H246	H	0.666524	-0.388103	0.748229
