data_functionalizedCrystal
_audit_creation_method	'MofGen! by Chris Wilmer'
_symmetry_space_group_name_H-M	'P1'
_symmetry_Int_Tables_number	1
_symmetry_cell_setting	triclinic
loop_
_symmetry_equiv_pos_as_xyz
  x,y,z
_cell_length_a	21.295417
_cell_length_b	21.295420
_cell_length_c	21.295412
_cell_angle_alpha	89.983421
_cell_angle_beta	89.968813
_cell_angle_gamma	90.028757
loop_
_atom_site_label
_atom_site_type_symbol
_atom_site_fract_x
_atom_site_fract_y
_atom_site_fract_z
Zn1	Zn	-0.250651	0.962305	-0.355914
Zn2	Zn	-0.355920	0.962222	-0.250639
Zn3	Zn	-0.250666	0.857043	-0.250658
Zn4	Zn	-0.355883	0.856998	-0.355870
O5	O	-0.303280	0.909642	-0.303270
O6	O	-0.264625	1.050383	-0.341959
O7	O	-0.341980	0.948254	-0.162552
O8	O	-0.162574	0.871060	-0.264647
O9	O	-0.341966	1.050323	-0.264614
O10	O	-0.162564	0.948395	-0.341977
O11	O	-0.264650	0.870980	-0.162566
O12	O	-0.264614	0.768948	-0.264605
O13	O	-0.341902	0.870982	-0.443966
O14	O	-0.341916	0.768914	-0.341904
O15	O	-0.264589	0.948351	-0.443997
O16	O	-0.444005	0.948210	-0.264572
O17	O	-0.443977	0.870902	-0.341885
C18	C	-0.303263	0.746090	-0.303252
C19	C	-0.303271	0.676122	-0.303260
C20	C	-0.343606	0.176663	-0.343481
C21	C	-0.343606	0.242406	-0.343474
C22	C	-0.303294	0.275283	-0.303290
C23	C	-0.262991	0.242412	-0.263098
C24	C	-0.262996	0.176671	-0.263102
N25	N	-0.248178	0.378524	-0.298558
N26	N	-0.248174	0.440976	-0.298558
C27	C	-0.303277	0.473358	-0.303277
N28	N	-0.358384	0.440929	-0.308007
N29	N	-0.358386	0.378471	-0.308010
C30	C	-0.303284	0.346568	-0.303282
C31	C	-0.343581	0.577506	-0.343456
C32	C	-0.343582	0.643250	-0.343445
C33	C	-0.262962	0.643255	-0.263072
C34	C	-0.262966	0.577512	-0.263080
C35	C	-0.303275	0.544642	-0.303275
C36	C	-0.466832	0.909559	-0.303236
C37	C	-0.536800	0.909582	-0.303242
C38	C	-0.569660	0.949872	-0.263026
C39	C	-0.635402	0.949901	-0.263040
C40	C	-0.668282	0.909629	-0.303263
C41	C	-0.635414	0.869337	-0.343487
C42	C	-0.569673	0.869313	-0.343476
N43	N	-0.771546	0.854562	-0.308056
N44	N	-0.833998	0.854586	-0.308063
C45	C	-0.866357	0.909700	-0.303299
N46	N	-0.833905	0.964790	-0.298517
N47	N	-0.771448	0.964764	-0.298507
C48	C	-0.739568	0.909651	-0.303280
C49	C	-0.970503	0.950025	-0.263097
C50	C	-1.036246	0.950056	-0.263116
C51	C	-1.036257	0.869486	-0.343559
C52	C	-0.970515	0.869461	-0.343544
C53	C	-0.937641	0.909730	-0.303309
C54	C	-0.139090	0.909742	-0.303319
C55	C	-0.069122	0.909785	-0.303340
C56	C	-0.303239	0.909671	-0.467461
C57	C	-0.303222	0.909683	-0.537429
C58	C	-0.303298	1.073832	-0.303289
C59	C	-0.303305	1.143800	-0.303297
C60	C	-0.262865	0.950029	-1.036905
C61	C	-0.262881	0.950024	-0.971162
C62	C	-0.303139	0.909738	-0.938269
C63	C	-0.343397	0.869465	-0.971123
C64	C	-0.343385	0.869476	-1.036864
N65	N	-0.307981	0.854617	-0.835040
N66	N	-0.307989	0.854608	-0.772588
C67	C	-0.303178	0.909705	-0.740194
N68	N	-0.298348	0.964811	-0.772610
N69	N	-0.298337	0.964818	-0.835067
C70	C	-0.303157	0.909722	-0.866983
C71	C	-0.262943	0.949973	-0.636062
C72	C	-0.262963	0.949969	-0.570318
C73	C	-0.343475	0.869404	-0.570280
C74	C	-0.343459	0.869414	-0.636023
C75	C	-0.303189	0.909697	-0.668909
C76	C	-0.303275	0.909649	-0.139719
C77	C	-0.303115	0.909759	-0.069751
H78	H	-0.376404	0.670006	-0.376166
H79	H	-1.063027	0.836698	-0.376312
H80	H	-0.376431	0.149904	-0.376209
H81	H	-0.230147	0.550755	-0.230360
H82	H	-0.230077	0.982834	-1.063677
H83	H	-0.230153	0.982774	-0.662839
H84	H	-0.230170	0.269184	-0.230379
H85	H	-0.943736	0.982817	-0.230338
H86	H	-0.230188	0.982766	-0.543575
H87	H	-0.376176	0.836665	-0.944337
H88	H	-0.230141	0.670022	-0.230351
H89	H	-0.230177	0.149914	-0.230379
H90	H	-0.662162	0.982713	-0.230292
H91	H	-0.230102	0.982817	-0.944413
H92	H	-0.376162	0.836682	-1.063608
H93	H	-0.376257	0.836605	-0.543499
H94	H	-0.662189	0.836548	-0.376238
H95	H	-0.376232	0.836619	-0.662766
H96	H	-0.376403	0.550742	-0.376184
H97	H	-0.943758	0.836650	-0.376288
H98	H	-0.376423	0.269168	-0.376199
H99	H	-0.542896	0.982663	-0.230266
H100	H	-0.542918	0.836503	-0.376225
H101	H	-1.063000	0.982869	-0.230368
