data_functionalizedCrystal
_audit_creation_method	'MofGen! by Chris Wilmer'
_symmetry_space_group_name_H-M	'P1'
_symmetry_Int_Tables_number	1
_symmetry_cell_setting	triclinic
loop_
_symmetry_equiv_pos_as_xyz
  x,y,z
_cell_length_a	14.519709
_cell_length_b	10.540539
_cell_length_c	13.596369
_cell_angle_alpha	89.996161
_cell_angle_beta	90.000291
_cell_angle_gamma	84.102818
loop_
_atom_site_label
_atom_site_type_symbol
_atom_site_fract_x
_atom_site_fract_y
_atom_site_fract_z
O1	O	1.224765	0.166400	-0.081658
O2	O	0.956394	0.185995	-0.081688
O3	O	1.096702	-0.008572	-0.081671
O4	O	1.084457	0.360966	-0.081675
O5	O	1.096688	-0.008582	0.081912
O6	O	0.956380	0.185985	0.081895
O7	O	1.224751	0.166389	0.081924
Zn8	Zn	1.090563	0.176185	0.107882
Zn9	Zn	1.090582	0.176199	-0.107646
O10	O	1.084442	0.360956	0.081908
C11	C	0.922022	0.185077	0.000100
C12	C	0.819626	0.182340	0.000088
C13	C	1.095777	-0.055870	0.000118
C14	C	1.093029	-0.196790	0.000113
C15	C	0.444676	0.172265	0.000133
C16	C	0.548999	0.175063	0.000120
C17	C	0.632148	0.177303	0.000110
C18	C	0.736477	0.180101	0.000099
C19	C	0.987750	-0.379142	-0.000266
C20	C	0.990535	-0.232553	0.000102
C21	C	1.142346	-0.258957	0.093532
C22	C	1.138848	-0.405466	0.093610
C23	C	1.140949	-0.405994	-0.092414
C24	C	1.141893	-0.259022	-0.093649
C25	C	1.259123	0.167308	0.000135
C26	C	1.361519	0.170044	0.000140
C27	C	1.085368	0.408255	0.000116
C28	C	1.088115	0.549175	0.000115
N29	N	1.090557	0.176175	0.254974
N30	N	1.090595	0.176199	-0.254737
C31	C	1.090580	0.176200	0.656265
C32	C	1.090571	0.176198	0.544613
C33	C	1.090569	0.176189	0.455623
C34	C	1.090559	0.176184	0.343964
H35	H	0.947268	-0.407325	-0.067259
N36	N	1.099349	-0.445114	-0.181252
N37	N	1.132089	-0.417880	-0.262690
H38	H	1.102701	-0.445506	-0.325429
H39	H	1.102389	-0.433298	0.163435
H40	H	0.951446	-0.190402	0.067172
N41	N	1.235630	-0.229564	-0.100719
N42	N	1.268094	-0.161930	-0.036479
H43	H	1.334298	-0.141119	-0.041468
N44	N	1.096677	-0.207199	-0.180343
N45	N	1.028718	-0.124737	-0.173178
H46	H	0.996781	-0.088129	-0.234404
N47	N	1.231311	-0.466600	0.098974
N48	N	1.254984	-0.538752	0.169510
H49	H	1.320285	-0.581925	0.173306
N50	N	1.099338	-0.205098	0.180729
N51	N	1.015488	-0.214434	0.196485
H52	H	0.985107	-0.176398	0.258066
H53	H	1.217615	-0.237372	0.097013
H54	H	1.214980	-0.453976	-0.093034
N55	N	0.941849	-0.178615	-0.083907
N56	N	0.905569	-0.249226	-0.143221
H57	H	0.871178	-0.211138	-0.202554
N58	N	0.937163	-0.416535	0.083294
N59	N	0.974707	-0.495748	0.143126
H60	H	0.938983	-0.522160	0.202142
