data_functionalizedCrystal
_audit_creation_method	'MofGen! by Chris Wilmer'
_symmetry_space_group_name_H-M	'P1'
_symmetry_Int_Tables_number	1
_symmetry_cell_setting	triclinic
loop_
_symmetry_equiv_pos_as_xyz
  x,y,z
_cell_length_a	17.699083
_cell_length_b	15.995350
_cell_length_c	16.776229
_cell_angle_alpha	89.995580
_cell_angle_beta	89.998886
_cell_angle_gamma	83.387695
loop_
_atom_site_label
_atom_site_type_symbol
_atom_site_fract_x
_atom_site_fract_y
_atom_site_fract_z
O1	O	1.004255	0.105885	-0.066173
O2	O	1.504255	0.605885	0.433827
O3	O	0.783899	0.119661	-0.066198
O4	O	1.283899	0.619661	0.433802
O5	O	0.900100	-0.009127	-0.066184
O6	O	1.400100	0.490873	0.433816
O7	O	0.888053	0.234673	-0.066187
O8	O	1.388053	0.734673	0.433813
O9	O	0.900085	-0.009135	0.066393
O10	O	1.400085	0.490865	0.566393
O11	O	0.783884	0.119653	0.066378
O12	O	1.283884	0.619653	0.566378
O13	O	1.004239	0.105877	0.066404
O14	O	1.504239	0.605877	0.566404
Zn15	Zn	0.894059	0.112764	0.087441
Zn16	Zn	1.394059	0.612764	0.587441
Zn17	Zn	0.894079	0.112774	-0.087235
Zn18	Zn	1.394079	0.612774	0.412765
O19	O	0.888038	0.234665	0.066390
O20	O	1.388038	0.734665	0.566390
C21	C	0.755694	0.119163	0.000087
C22	C	1.255694	0.619163	0.500087
C23	C	0.671673	0.117683	0.000077
C24	C	1.171673	0.617683	0.500077
C25	C	0.623178	0.193278	0.000076
C26	C	1.123178	0.693278	0.500076
C27	C	0.544232	0.191882	0.000087
C28	C	1.044232	0.691882	0.500087
C29	C	0.513783	0.114889	0.000092
C30	C	1.013783	0.614889	0.500092
C31	C	0.562285	0.039287	0.000095
C32	C	1.062285	0.539287	0.500095
C33	C	0.641229	0.040685	0.000090
C34	C	1.141229	0.540685	0.500090
C35	C	0.243912	0.033651	0.000115
C36	C	0.743912	0.533651	0.500115
C37	C	0.164962	0.032259	0.000117
C38	C	0.664962	0.532259	0.500117
C39	C	0.146916	0.184848	0.000111
C40	C	0.646916	0.684848	0.500111
C41	C	0.225860	0.186245	0.000106
C42	C	0.725860	0.686245	0.500106
C43	C	0.274354	0.110644	0.000114
C44	C	0.774354	0.610644	0.500114
C45	C	0.359956	0.112159	0.000104
C46	C	0.859956	0.612159	0.500104
C47	C	0.428183	0.113373	0.000096
C48	C	0.928183	0.613373	0.500096
C49	C	0.899595	-0.040324	0.000103
C50	C	1.399595	0.459676	0.500103
C51	C	0.898101	-0.133272	0.000098
C52	C	1.398101	0.366728	0.500098
C53	C	0.892739	-0.471008	0.000100
C54	C	1.392739	0.028992	0.500100
C55	C	0.809983	-0.423406	-0.000207
C56	C	1.309983	0.076594	0.499793
C57	C	0.811476	-0.326719	0.000092
C58	C	1.311476	0.173281	0.500092
C59	C	0.895399	-0.303453	0.000099
C60	C	1.395399	0.196547	0.500099
C61	C	0.936209	-0.344618	0.075810
C62	C	1.436209	0.155382	0.575810
C63	C	0.934130	-0.441250	0.075873
C64	C	1.434130	0.058750	0.575873
C65	C	0.935857	-0.441602	-0.074891
C66	C	1.435857	0.058398	0.425109
C67	C	0.935837	-0.344657	-0.075892
C68	C	1.435837	0.155343	0.424108
C69	C	0.896907	-0.208759	0.000101
C70	C	1.396907	0.291241	0.500101
C71	C	0.891234	-0.565703	0.000104
C72	C	1.391234	-0.065703	0.500104
C73	C	1.032445	0.106375	0.000117
C74	C	1.532445	0.606375	0.500117
C75	C	1.116465	0.107856	0.000122
C76	C	1.616465	0.607856	0.500122
C77	C	0.888544	0.265863	0.000101
C78	C	1.388544	0.765863	0.500101
C79	C	0.890037	0.358810	0.000101
C80	C	1.390037	0.858810	0.500101
N81	N	0.894051	0.112756	0.206652
N82	N	1.394051	0.612756	0.706652
N83	N	0.894094	0.112775	-0.206446
N84	N	1.394094	0.612775	0.293554
C85	C	0.945520	0.055752	0.248375
C86	C	1.445520	0.555752	0.748375
C87	C	0.945524	0.055752	0.331827
C88	C	1.445524	0.555752	0.831827
C89	C	0.894062	0.112760	0.373555
C90	C	1.394062	0.612760	0.873555
C91	C	0.842587	0.169766	0.331825
C92	C	1.342587	0.669766	0.831825
C93	C	0.842580	0.169762	0.248375
C94	C	1.342580	0.669762	0.748375
C95	C	0.842614	0.169783	0.668373
C96	C	1.342614	0.669783	1.168373
C97	C	0.842627	0.169784	0.751829
C98	C	1.342627	0.669784	1.251829
C99	C	0.945559	0.055772	0.751825
C100	C	1.445559	0.555772	1.251825
C101	C	0.945552	0.055768	0.668375
C102	C	1.445552	0.555768	1.168375
C103	C	0.894074	0.112771	0.626653
C104	C	1.394074	0.612771	1.126653
C105	C	0.894069	0.112770	0.536164
C106	C	1.394069	0.612770	1.036164
C107	C	0.894070	0.112765	0.464041
C108	C	1.394070	0.612765	0.964041
H109	H	0.537487	-0.023402	0.000111
H110	H	1.037487	0.476598	0.500111
H111	H	0.908806	-0.462084	-0.132275
H112	H	1.408806	0.037916	0.367725
H113	H	0.906000	-0.317344	-0.131901
H114	H	1.406000	0.182656	0.368099
H115	H	0.907852	-0.316183	0.132147
H116	H	1.407852	0.183817	0.632147
N117	N	0.654264	0.271934	0.000064
N118	N	1.154264	0.771934	0.500064
N119	N	0.610952	0.339424	0.000065
N120	N	1.110952	0.839424	0.500065
H121	H	0.632904	0.394977	0.000058
H122	H	1.132904	0.894977	0.500058
N123	N	0.690769	-0.036534	0.000107
N124	N	1.190769	0.463466	0.500107
N125	N	0.687997	-0.087773	0.055998
N126	N	1.187997	0.412227	0.555998
H127	H	0.722986	-0.142311	0.056016
H128	H	1.222986	0.357689	0.556016
H129	H	0.107421	0.246406	0.000109
H130	H	0.607421	0.746406	0.500109
H131	H	0.800667	0.216180	0.214404
H132	H	1.300667	0.716180	0.714404
H133	H	0.800701	0.216198	0.634409
H134	H	1.300701	0.716198	1.134409
N135	N	0.133871	-0.046399	0.000120
N136	N	0.633871	0.453601	0.500120
N137	N	0.177177	-0.113894	0.000126
N138	N	0.677177	0.386106	0.500126
H139	H	0.155219	-0.169444	0.000127
H140	H	0.655219	0.330556	0.500127
H141	H	0.504750	0.253440	0.000085
H142	H	1.004750	0.753440	0.500085
H143	H	0.250646	0.248941	0.000098
H144	H	0.750646	0.748941	0.500098
H145	H	0.283388	-0.027909	0.000121
H146	H	0.783388	0.472091	0.500121
N147	N	0.771229	-0.290984	-0.067993
N148	N	1.271229	0.209016	0.432007
N149	N	0.741836	-0.337446	-0.116063
N150	N	1.241836	0.162554	0.383937
H151	H	0.713406	-0.312213	-0.164149
H152	H	1.213406	0.187787	0.335851
N153	N	0.998067	-0.002502	0.374459
N154	N	1.498067	0.497498	0.874459
N155	N	0.998044	-0.002520	0.448967
N156	N	1.498044	0.497480	0.948967
H157	H	1.035140	-0.043679	0.479077
H158	H	1.535140	0.456321	0.979077
N159	N	0.998134	-0.002458	0.625765
N160	N	1.498134	0.497542	1.125765
N161	N	1.044090	-0.053349	0.663028
N162	N	1.544090	0.446651	1.163028
H163	H	1.081229	-0.094472	0.632937
H164	H	1.581229	0.405528	1.132937
H165	H	0.987473	0.009354	0.785804
H166	H	1.487473	0.509354	1.285804
N167	N	0.768503	-0.446563	-0.068326
N168	N	1.268503	0.053437	0.431674
N169	N	0.799445	-0.498423	-0.117442
N170	N	1.299445	0.001577	0.382558
H171	H	0.770151	-0.514781	-0.165555
H172	H	1.270151	-0.014781	0.334445
H173	H	0.800717	0.216208	0.785802
H174	H	1.300717	0.716208	1.285802
N175	N	0.998054	-0.002531	0.205768
N176	N	1.498054	0.497469	0.705768
N177	N	1.043973	-0.053457	0.243035
N178	N	1.543973	0.446543	0.743035
H179	H	1.081059	-0.094643	0.212947
H180	H	1.581059	0.405357	0.712947
N181	N	0.896781	-0.464130	0.146866
N182	N	1.396781	0.035870	0.646866
N183	N	0.872427	-0.408758	0.196021
N184	N	1.372427	0.091242	0.696021
H185	H	0.846048	-0.424912	0.246162
H186	H	1.346048	0.075088	0.746162
H187	H	0.777046	-0.442936	0.053777
H188	H	1.277046	0.057064	0.553777
N189	N	0.790008	0.227985	0.374448
N190	N	1.290008	0.727985	0.874448
N191	N	0.743037	0.201481	0.421023
N192	N	1.243037	0.701481	0.921023
H193	H	0.705902	0.242599	0.451125
H194	H	1.205902	0.742599	0.951125
N195	N	0.770946	-0.291690	0.068287
N196	N	1.270946	0.208310	0.568287
N197	N	0.741472	-0.338662	0.115811
N198	N	1.241472	0.161338	0.615811
H199	H	0.712846	-0.313924	0.163978
H200	H	1.212846	0.186076	0.663978
H201	H	0.996873	-0.473487	-0.075395
H202	H	1.496873	0.026513	0.424605
H203	H	0.994888	-0.473622	0.079313
H204	H	1.494888	0.026378	0.579313
N205	N	1.013555	-0.327056	0.079340
N206	N	1.513555	0.172944	0.579340
N207	N	1.039525	-0.283899	0.025969
N208	N	1.539525	0.216101	0.525969
H209	H	1.094151	-0.271494	0.028460
H210	H	1.594151	0.228506	0.528460
N211	N	1.012612	-0.325536	-0.081607
N212	N	1.512612	0.174464	0.418393
N213	N	1.058964	-0.347522	-0.027230
N214	N	1.558964	0.152478	0.472770
H215	H	1.113189	-0.334015	-0.031260
H216	H	1.613189	0.165985	0.468740
