data_functionalizedCrystal
_audit_creation_method	'MofGen! by Chris Wilmer'
_symmetry_space_group_name_H-M	'P1'
_symmetry_Int_Tables_number	1
_symmetry_cell_setting	triclinic
loop_
_symmetry_equiv_pos_as_xyz
  x,y,z
_cell_length_a	10.268362
_cell_length_b	11.792254
_cell_length_c	11.792241
_cell_angle_alpha	95.803993
_cell_angle_beta	89.994572
_cell_angle_gamma	90.005778
loop_
_atom_site_label
_atom_site_type_symbol
_atom_site_fract_x
_atom_site_fract_y
_atom_site_fract_z
O1	O	-0.108338	-1.506900	0.155637
O2	O	0.224996	-1.173567	0.488971
O3	O	0.558329	-0.840234	0.822304
O4	O	-0.108332	-1.176561	0.171655
O5	O	0.225001	-0.843228	0.504988
O6	O	0.558335	-0.509894	0.838322
O7	O	-0.108326	-1.349747	-0.001524
O8	O	0.225008	-1.016414	0.331809
O9	O	0.558341	-0.683080	0.665143
O10	O	-0.108344	-1.333714	0.328816
O11	O	0.224989	-1.000381	0.662150
O12	O	0.558323	-0.667048	0.995483
O13	O	0.108275	-1.349732	-0.001531
O14	O	0.441608	-1.016399	0.331802
O15	O	0.774941	-0.683065	0.665135
O16	O	0.108268	-1.176546	0.171648
O17	O	0.441602	-0.843213	0.504981
O18	O	0.774935	-0.509879	0.838315
O19	O	0.108263	-1.506885	0.155630
O20	O	0.441596	-1.173552	0.488963
O21	O	0.774930	-0.840218	0.822297
Cu22	Cu	0.128043	-1.341714	0.163638
Cu23	Cu	0.461376	-1.008381	0.496972
Cu24	Cu	0.794710	-0.675047	0.830305
Cu25	Cu	-0.128112	-1.341732	0.163647
Cu26	Cu	0.205221	-1.008399	0.496980
Cu27	Cu	0.538554	-0.675065	0.830313
O28	O	0.108257	-1.333699	0.328809
O29	O	0.441590	-1.000366	0.662142
O30	O	0.774923	-0.667032	0.995476
C31	C	-0.000031	-1.134263	0.170642
C32	C	0.333302	-0.800929	0.503976
C33	C	0.666636	-0.467596	0.837309
C34	C	-0.000029	-1.008250	0.167622
C35	C	0.333305	-0.674916	0.500956
C36	C	0.666638	-0.341583	0.834289
N37	N	0.308209	-1.341710	0.163632
N38	N	0.641542	-1.008376	0.496965
N39	N	0.974876	-0.675043	0.830298
N40	N	-0.308278	-1.341745	0.163645
N41	N	0.025055	-1.008412	0.496978
N42	N	0.358389	-0.675079	0.830311
C43	C	-0.000032	-0.905913	0.165168
C44	C	0.333302	-0.572580	0.498502
C45	C	0.666635	-0.239247	0.831835
C46	C	-0.000029	-0.777527	0.162100
C47	C	0.333304	-0.444193	0.495433
C48	C	0.666638	-0.110860	0.828767
C49	C	0.573880	-1.341726	0.163644
C50	C	0.907213	-1.008393	0.496978
C51	C	1.240546	-0.675060	0.830311
C52	C	0.426042	-1.341713	0.163641
C53	C	0.759375	-1.008380	0.496974
C54	C	1.092708	-0.675047	0.830307
C55	C	-0.000026	-1.348732	-0.043819
C56	C	0.333307	-1.015399	0.289515
C57	C	0.666641	-0.682066	0.622848
C58	C	-0.000027	-1.345718	-0.169832
C59	C	0.333306	-1.012385	0.163501
C60	C	0.666640	-0.679051	0.496834
C61	C	-0.000035	-0.549183	0.156643
C62	C	0.333299	-0.215850	0.489976
C63	C	0.666632	0.117483	0.823309
C64	C	-0.000027	-0.675196	0.159663
C65	C	0.333307	-0.341863	0.492996
C66	C	0.666640	-0.008530	0.826329
C67	C	-0.000049	-1.340175	-0.400545
C68	C	0.333285	-1.006842	-0.067212
C69	C	0.666618	-0.673508	0.266122
C70	C	-0.000037	-1.343255	-0.272160
C71	C	0.333296	-1.009922	0.061174
C72	C	0.666630	-0.676588	0.394507
C73	C	-0.000046	-1.334714	0.371104
C74	C	0.333287	-1.001380	0.704437
C75	C	0.666621	-0.668047	1.037770
C76	C	-0.000053	-1.337728	0.497118
C77	C	0.333280	-1.004395	0.830451
C78	C	0.666613	-0.671061	1.163784
