data_functionalizedCrystal
_audit_creation_method	'MofGen! by Chris Wilmer'
_symmetry_space_group_name_H-M	'P1'
_symmetry_Int_Tables_number	1
_symmetry_cell_setting	triclinic
loop_
_symmetry_equiv_pos_as_xyz
  x,y,z
_cell_length_a	15.297475
_cell_length_b	12.594516
_cell_length_c	15.296720
_cell_angle_alpha	80.350397
_cell_angle_beta	88.382886
_cell_angle_gamma	80.315126
loop_
_atom_site_label
_atom_site_type_symbol
_atom_site_fract_x
_atom_site_fract_y
_atom_site_fract_z
Zn1	Zn	1.253520	-0.828411	0.726651
Zn2	Zn	1.278805	-0.981681	0.580176
Zn3	Zn	1.132389	-0.768614	0.554888
Zn4	Zn	1.107029	-0.971218	0.701304
O5	O	1.192936	-0.887481	0.640755
O6	O	1.379456	-0.878146	0.728412
O7	O	1.280577	-0.932770	0.454246
O8	O	1.148489	-0.627612	0.577697
O9	O	1.398033	-0.990753	0.620797
O10	O	1.237483	-0.671544	0.703891
O11	O	1.173006	-0.776231	0.435666
O12	O	1.006443	-0.766086	0.553119
O13	O	1.105267	-0.972920	0.827242
O14	O	0.987811	-0.914938	0.660691
O15	O	1.212893	-0.868001	0.845864
O16	O	1.255987	-1.129227	0.596219
O17	O	1.129784	-1.121540	0.685212
C18	C	0.965343	-0.832888	0.601411
C19	C	0.867974	-0.809563	0.584600
C20	C	1.192898	-1.164009	0.640732
C21	C	1.192957	-1.282334	0.640766
C22	C	0.554863	-1.054200	0.760906
C23	C	0.646346	-1.076123	0.776698
C24	C	0.701757	-1.009485	0.728675
C25	C	0.665677	-0.920920	0.664857
C26	C	0.574185	-0.899000	0.649058
C27	C	0.721080	-0.854285	0.616828
C28	C	0.684999	-0.765720	0.553010
C29	C	0.593516	-0.743803	0.537214
C30	C	0.538105	-0.810441	0.585237
C31	C	0.812571	-0.876205	0.632626
C32	C	0.831894	-0.721004	0.520779
C33	C	0.740410	-0.699081	0.504987
C34	C	1.261655	-1.355756	0.592437
C35	C	1.269218	-1.445079	0.676082
C36	C	1.185495	-1.403844	0.557192
C37	C	1.200553	-1.370115	0.724459
C38	C	1.116802	-1.328856	0.605509
C39	C	1.124325	-1.418150	0.689203
C40	C	1.421417	-0.942287	0.680253
C41	C	1.518783	-0.965642	0.697084
C42	C	1.153430	-0.925964	0.869224
C43	C	1.136596	-0.942363	0.966585
C44	C	1.192994	-0.609881	0.640800
C45	C	1.193019	-0.491585	0.640820
C46	C	1.232338	-0.849083	0.413182
C47	C	1.249342	-0.832424	0.315852
C48	C	1.313289	-0.770095	1.279811
C49	C	1.329112	-0.754690	1.188337
C50	C	1.280984	-0.801606	1.132895
C51	C	1.217031	-0.863931	1.168935
C52	C	1.201212	-0.879344	1.260418
C53	C	1.168907	-0.910856	1.113502
C54	C	1.104954	-0.973181	1.149542
C55	C	1.089137	-0.988590	1.241017
C56	C	1.137265	-0.941674	1.296459
C57	C	1.184726	-0.895443	1.022018
C58	C	1.072649	-1.004692	1.002626
C59	C	1.056826	-1.020097	1.094100
H60	H	0.841939	-0.948315	0.684588
H61	H	1.333645	-1.495383	0.705929
C62	C	0.685591	-1.172382	0.845849
C63	C	0.746677	-1.244733	0.805220
C64	C	0.782840	-1.333428	0.868898
H65	H	0.714750	-1.146869	0.890263
H66	H	0.639523	-1.208997	0.872181
H67	H	0.792738	-1.208124	0.778902
H68	H	0.717540	-1.270275	0.760813
H69	H	0.736771	-1.370043	0.895231
H70	H	0.811994	-1.307904	0.913309
H71	H	0.824284	-1.382533	0.841340
H72	H	1.319752	-1.328248	0.551613
C73	C	1.209151	-1.349536	0.818710
C74	C	1.209077	-1.238129	0.817575
C75	C	1.217012	-1.219131	0.904378
H76	H	1.160650	-1.371329	0.853218
H77	H	1.263099	-1.390418	0.843849
H78	H	1.155136	-1.197261	0.792448
H79	H	1.257576	-1.216310	0.783085
H80	H	1.270960	-1.260013	0.929517
H81	H	1.168510	-1.240930	0.938879
H82	H	1.216971	-1.143543	0.903619
H83	H	1.293871	-0.789060	1.058413
C84	C	1.030964	-1.261557	0.565757
C85	C	1.031752	-1.150823	0.567034
C86	C	0.952690	-1.088793	0.530423
H87	H	1.025641	-1.272471	0.506309
H88	H	0.982119	-1.283670	0.599517
H89	H	1.080584	-1.128717	0.533274
H90	H	1.037061	-1.139875	0.626471
H91	H	0.903844	-1.110906	0.564183
H92	H	0.947373	-1.099716	0.470978
H93	H	0.953210	-1.013654	0.531293
H94	H	0.509741	-1.108453	0.799993
C95	C	1.177169	-1.424294	0.462864
C96	C	1.249220	-1.392898	0.412547
C97	C	1.241582	-1.411704	0.325647
H98	H	1.176743	-1.499748	0.463484
H99	H	1.123540	-1.382873	0.437422
H100	H	1.302835	-1.434320	0.437983
H101	H	1.249660	-1.317445	0.411902
H102	H	1.187953	-1.370284	0.300205
H103	H	1.241154	-1.487160	0.326276
H104	H	1.290462	-1.390396	0.291494
H105	H	0.776247	-1.027340	0.741537
H106	H	0.564144	-0.671697	0.485241
H107	H	1.236796	-0.844697	0.992684
H108	H	0.463611	-0.792595	0.572384
C109	C	0.701068	-0.603018	0.435700
C110	C	0.609093	-0.598107	0.432132
C111	C	0.572823	-0.509639	0.368308
H112	H	0.713736	-0.537217	0.451133
H113	H	0.726180	-0.612151	0.379382
H114	H	0.583990	-0.588966	0.488438
H115	H	0.596400	-0.663887	0.416688
H116	H	0.597934	-0.518772	0.311990
H117	H	0.585497	-0.443845	0.383747
H118	H	0.510416	-0.506301	0.365873
H119	H	0.877010	-0.666743	0.481673
C120	C	1.046973	-1.454606	0.743959
C121	C	1.055253	-1.438018	0.831387
C122	C	0.984025	-1.471606	0.881858
H123	H	0.992886	-1.413318	0.719519
H124	H	1.047138	-1.529945	0.743343
H125	H	1.055080	-1.362693	0.831999
H126	H	1.109326	-1.479306	0.855853
H127	H	0.984189	-1.546945	0.881242
H128	H	0.929942	-1.430315	0.857410
H129	H	0.989637	-1.460365	0.941185
C130	C	1.398544	-0.686942	1.149373
C131	C	1.437289	-0.649127	1.217500
C132	C	1.501248	-0.586697	1.181637
H133	H	1.442951	-0.730699	1.120288
H134	H	1.371233	-0.626469	1.107924
H135	H	1.464601	-0.709591	1.258932
H136	H	1.392905	-0.605355	1.246590
H137	H	1.473937	-0.526225	1.140189
H138	H	1.545649	-0.630462	1.152554
H139	H	1.527539	-0.561024	1.227854
C140	C	1.119919	-0.958256	1.395749
C141	C	1.031298	-0.916175	1.411600
C142	C	1.015291	-0.931417	1.503055
H143	H	1.131399	-1.034026	1.419151
H144	H	1.157691	-0.921349	1.423634
H145	H	0.993538	-0.953085	1.383726
H146	H	1.019797	-0.840404	1.388219
H147	H	1.053062	-0.894510	1.530940
H148	H	1.026775	-1.007188	1.526449
H149	H	0.955163	-0.902859	1.513822
C150	C	1.019639	-1.056254	1.279974
C151	C	0.980859	-1.094020	1.211843
C152	C	0.916827	-1.156342	1.247693
H153	H	1.046868	-1.116749	1.321431
H154	H	0.975268	-1.012405	1.309043
H155	H	1.025224	-1.137867	1.182788
H156	H	0.953613	-1.033549	1.170381
H157	H	0.872455	-1.112493	1.276762
H158	H	0.944063	-1.216831	1.289149
H159	H	0.890501	-1.181965	1.201471
C160	C	1.365418	-0.719214	1.340146
C161	C	1.337863	-0.746037	1.427969
C162	C	1.385863	-0.699173	1.483574
H163	H	1.426880	-0.746347	1.335437
H164	H	1.355193	-0.642086	1.323008
H165	H	1.348095	-0.823149	1.445102
H166	H	1.276408	-0.718904	1.432707
H167	H	1.375638	-0.622045	1.466436
H168	H	1.447322	-0.726309	1.478857
H169	H	1.367168	-0.717358	1.543167
C170	C	1.020450	-1.055499	0.942288
C171	C	1.047972	-1.028636	0.854459
C172	C	0.999905	-1.075407	0.798846
H173	H	1.030624	-1.132622	0.959365
H174	H	0.958994	-1.028307	0.947054
H175	H	1.109414	-1.055834	0.849697
H176	H	1.037796	-0.951522	0.837355
H177	H	0.938449	-1.048214	0.803612
H178	H	1.010083	-1.152527	0.815930
H179	H	1.018566	-1.057178	0.739247
H180	H	1.004755	-1.070842	1.123457
