data_functionalizedCrystal
_audit_creation_method	'MofGen! by Chris Wilmer'
_symmetry_space_group_name_H-M	'P1'
_symmetry_Int_Tables_number	1
_symmetry_cell_setting	triclinic
loop_
_symmetry_equiv_pos_as_xyz
  x,y,z
_cell_length_a	17.019383
_cell_length_b	17.038272
_cell_length_c	11.804365
_cell_angle_alpha	102.699962
_cell_angle_beta	74.400379
_cell_angle_gamma	87.246883
loop_
_atom_site_label
_atom_site_type_symbol
_atom_site_fract_x
_atom_site_fract_y
_atom_site_fract_z
O1	O	1.084926	0.066120	-0.210173
O2	O	0.852540	0.082607	-0.186369
O3	O	0.967351	-0.039426	-0.198120
O4	O	0.970116	0.188154	-0.198422
O5	O	0.937123	-0.007331	0.003030
O6	O	0.822312	0.114702	0.014781
O7	O	1.054699	0.098215	-0.009023
Cu8	Cu	0.935746	0.109389	0.021245
Cu9	Cu	0.971493	0.071433	-0.216637
O10	O	0.939888	0.220249	0.002728
C11	C	0.807545	0.098660	-0.082733
C12	C	0.718509	0.098666	-0.073612
C13	C	0.949724	-0.052464	-0.097288
C14	C	0.942229	-0.139129	-0.096520
C15	C	0.693148	0.081177	-0.178965
C16	C	0.609485	0.081199	-0.170378
C17	C	0.551185	0.098703	-0.056436
C18	C	0.576550	0.116196	0.048925
C19	C	0.660211	0.116180	0.040336
C20	C	0.297758	0.099631	-0.025018
C21	C	0.214093	0.099643	-0.016437
C22	C	0.247033	0.064648	-0.235741
C23	C	0.330694	0.064629	-0.244319
C24	C	0.356052	0.082125	-0.138959
C25	C	0.465668	0.098723	-0.047655
C26	C	0.441568	0.082111	-0.147740
C27	C	1.011047	-0.190422	-0.103568
C28	C	1.004001	-0.271854	-0.102858
C29	C	0.928135	-0.301989	-0.095091
C30	C	0.859312	-0.250690	-0.088046
C31	C	0.866360	-0.169261	-0.088765
C32	C	0.903237	-0.547323	-0.092557
C33	C	0.896193	-0.628757	-0.091834
C34	C	1.040883	-0.649916	-0.106649
C35	C	1.047924	-0.568484	-0.107360
C36	C	0.979102	-0.517193	-0.100321
C37	C	0.920930	-0.385224	-0.094360
C38	C	0.986308	-0.433960	-0.101060
C39	C	1.099694	0.082162	-0.112662
C40	C	1.188732	0.082155	-0.121790
C41	C	0.957515	0.233286	-0.098107
C42	C	0.965011	0.319949	-0.098882
N43	N	0.910609	0.136085	0.188559
N44	N	0.996636	0.044731	-0.383951
C45	C	1.056998	-0.019390	0.547524
C46	C	1.076013	-0.039588	0.420916
C47	C	1.034663	0.004328	0.362821
C48	C	0.974296	0.068447	0.431346
C49	C	0.955284	0.088652	0.557965
C50	C	0.932949	0.112369	0.373262
C51	C	0.872581	0.176488	0.441787
C52	C	0.853572	0.196689	0.568394
C53	C	0.894921	0.152773	0.626490
C54	C	0.951961	0.092165	0.246642
C55	C	0.850247	0.200206	0.257083
C56	C	0.831232	0.220405	0.383691
H57	H	0.740611	0.066921	-0.271749
Br58	Br	0.749305	0.307420	0.476701
Br59	Br	0.794131	0.259816	0.178248
H60	H	1.001113	0.039960	0.190860
H61	H	1.096914	-0.691686	-0.112381
H62	H	0.804424	0.248904	0.624187
H63	H	1.072824	-0.165892	-0.109886
Br64	Br	0.332162	0.123378	0.117973
H65	H	0.588841	0.066958	-0.256167
H66	H	0.797541	-0.275233	-0.081729
H67	H	0.378159	0.050369	-0.337103
H68	H	0.226376	0.050405	-0.321519
Br69	Br	0.134971	0.123381	0.138208
H70	H	0.529075	0.130453	0.141699
Br71	Br	0.869107	0.180182	0.798323
Br72	Br	1.060469	-0.023085	0.190993
H73	H	1.060040	-0.313614	-0.108595
Br74	Br	0.694630	0.139922	0.183321
Br75	Br	0.772962	-0.099648	-0.079209
Br76	Br	1.157938	-0.126599	0.327920
H77	H	1.090664	-0.055137	0.594834
H78	H	0.489039	0.067864	-0.240511
H79	H	0.418191	0.112973	0.045116
Br80	Br	1.150895	-0.527598	-0.117941
Br81	Br	1.089268	-0.393063	-0.111612
H82	H	0.834408	-0.653286	-0.085489
H83	H	0.847196	-0.505571	-0.086825
Br84	Br	0.817973	-0.426131	-0.083831
