data_functionalizedCrystal
_audit_creation_method	'MofGen! by Chris Wilmer'
_symmetry_space_group_name_H-M	'P1'
_symmetry_Int_Tables_number	1
_symmetry_cell_setting	triclinic
loop_
_symmetry_equiv_pos_as_xyz
  x,y,z
_cell_length_a	21.395362
_cell_length_b	19.805405
_cell_length_c	21.395355
_cell_angle_alpha	90.017223
_cell_angle_beta	90.043940
_cell_angle_gamma	90.042604
loop_
_atom_site_label
_atom_site_type_symbol
_atom_site_fract_x
_atom_site_fract_y
_atom_site_fract_z
Zn1	Zn	0.957877	-0.269255	0.354591
Zn2	Zn	0.957787	-0.382425	0.249816
Zn3	Zn	0.853092	-0.269286	0.249793
Zn4	Zn	0.853068	-0.382438	0.354521
O5	O	0.905456	-0.325851	0.302180
O6	O	1.045543	-0.284248	0.340732
O7	O	0.943871	-0.367424	0.162135
O8	O	0.867039	-0.174565	0.263714
O9	O	1.045476	-0.367393	0.263754
O10	O	0.944024	-0.174542	0.340709
O11	O	0.866952	-0.284302	0.162118
O12	O	0.765411	-0.284315	0.263646
O13	O	0.866999	-0.367417	0.442208
O14	O	0.765393	-0.367448	0.340589
O15	O	0.944002	-0.284261	0.442260
O16	O	0.943848	-0.477143	0.263686
O17	O	0.866912	-0.477153	0.340612
C18	C	0.742668	-0.325887	0.302107
C19	C	0.673027	-0.325918	0.302091
C20	C	0.640321	-0.369263	0.342096
C21	C	0.574886	-0.369246	0.342124
C22	C	0.542159	-0.325892	0.302136
C23	C	0.574872	-0.282539	0.262129
C24	C	0.640306	-0.282553	0.262106
C25	C	0.438434	-0.320440	0.245731
C26	C	0.373001	-0.320431	0.245752
C27	C	0.340338	-0.325848	0.302205
C28	C	0.373116	-0.331287	0.358639
C29	C	0.438550	-0.331301	0.358616
C30	C	0.471206	-0.325873	0.302156
C31	C	0.236680	-0.369177	0.342243
C32	C	0.171243	-0.369156	0.342272
C33	C	0.171231	-0.282452	0.262272
C34	C	0.236666	-0.282470	0.262248
C35	C	0.269387	-0.325836	0.302233
C36	C	0.905384	-0.501707	0.302157
C37	C	0.905411	-0.576939	0.302169
C38	C	0.945474	-0.612213	0.342292
C39	C	0.945496	-0.682901	0.342303
C40	C	0.905459	-0.718315	0.302188
C41	C	0.865392	-0.683036	0.262064
C42	C	0.865367	-0.612349	0.262056
C43	C	0.865493	-0.968109	0.262096
C44	C	0.865523	-1.038801	0.262106
C45	C	0.945622	-1.038662	0.342343
C46	C	0.945597	-0.967975	0.342335
C47	C	0.905528	-0.932702	0.302213
C48	C	0.905503	-0.856053	0.302202
C49	C	0.905487	-0.794962	0.302196
C50	C	1.068879	-0.325816	0.302253
C51	C	1.138520	-0.325800	0.302285
C52	C	0.905508	-0.325837	0.465604
C53	C	0.905530	-0.325831	0.535245
C54	C	0.905545	-0.149308	0.302217
C55	C	0.905582	-0.074076	0.302232
C56	C	0.905440	-0.325816	0.139393
C57	C	0.905539	-0.325631	0.069752
C58	C	0.945623	-0.282530	0.567986
C59	C	0.945623	-0.282501	0.633421
C60	C	0.905535	-0.325785	0.666113
C61	C	0.865434	-0.369089	0.633364
C62	C	0.865431	-0.369112	0.567930
C63	C	0.900563	-0.386731	0.769778
C64	C	0.900570	-0.386709	0.835211
C65	C	0.905539	-0.325714	0.867934
C66	C	0.910514	-0.264738	0.835216
C67	C	0.910512	-0.264762	0.769782
C68	C	0.905533	-0.325765	0.737066
C69	C	0.945633	-0.282378	0.971628
C70	C	0.945628	-0.282347	1.037064
C71	C	0.865443	-0.368941	1.037006
C72	C	0.865445	-0.368966	0.971571
C73	C	0.905543	-0.325685	0.938885
H74	H	0.548222	-0.247239	0.229572
H75	H	0.548252	-0.404542	0.374702
H76	H	0.465236	-0.335727	0.404567
H77	H	0.978201	-0.939143	0.374998
H78	H	0.465022	-0.316026	0.199756
H79	H	0.832743	-0.583629	0.229385
C80	C	0.989515	-0.573261	0.386416
H81	H	0.983768	-0.526110	0.380662
H82	H	0.980330	-0.584838	0.428504
H83	H	1.031623	-0.584800	0.377297
C84	C	0.676310	-0.416956	0.386084
H85	H	0.647456	-0.442763	0.409918
H86	H	0.701787	-0.446414	0.362063
H87	H	0.701885	-0.391107	0.413421
C88	C	0.989692	-1.077463	0.386483
H89	H	0.983970	-1.124634	0.380750
H90	H	1.031790	-1.065832	0.377365
H91	H	0.980494	-1.065868	0.428570
H92	H	0.978276	-0.247083	1.063721
C93	C	0.989722	-0.234918	0.532033
H94	H	0.983983	-0.241134	0.488372
H95	H	0.980577	-0.189440	0.542751
H96	H	1.031818	-0.244815	0.542786
H97	H	0.832796	-0.404177	1.063623
C98	C	0.821349	-0.721985	0.217939
H99	H	0.797481	-0.690851	0.194047
H100	H	0.845338	-0.749544	0.190672
H101	H	0.794046	-0.749581	0.241881
C102	C	0.821348	-0.416602	0.935551
H103	H	0.827084	-0.410413	0.891899
H104	H	0.830494	-0.462073	0.946282
H105	H	0.779253	-0.406697	0.946243
C106	C	0.676284	-0.234875	0.218096
H107	H	0.647424	-0.209054	0.194282
H108	H	0.701865	-0.205430	0.242102
H109	H	0.701754	-0.260735	0.190742
C110	C	0.821330	-0.416747	0.531910
H111	H	0.827069	-0.410560	0.488259
H112	H	0.830475	-0.462219	0.542643
H113	H	0.779236	-0.406840	0.542601
C114	C	0.989732	-0.234874	0.669444
H115	H	1.013615	-0.209105	0.640606
H116	H	0.965786	-0.205377	0.694955
H117	H	1.017018	-0.260763	0.694987
H118	H	0.263295	-0.247178	0.229669
H119	H	0.896522	-0.436359	0.861846
H120	H	0.832917	-1.067633	0.229439
C121	C	0.989567	-0.721700	0.386436
H122	H	1.013413	-0.690485	0.410320
H123	H	0.965598	-0.749291	0.413711
H124	H	1.016889	-0.749253	0.362502
C125	C	0.915977	-0.197696	0.733791
H126	H	0.915267	-0.206449	0.690135
H127	H	0.881908	-0.169229	0.744488
H128	H	0.954135	-0.176040	0.744539
C129	C	0.337197	-0.337244	0.420741
H130	H	0.293532	-0.336449	0.412675
H131	H	0.347905	-0.378483	0.440705
H132	H	0.347985	-0.300463	0.447151
C133	C	0.272675	-0.416869	0.386230
H134	H	0.243822	-0.442675	0.410068
H135	H	0.298148	-0.446329	0.362207
H136	H	0.298254	-0.391021	0.413564
C137	C	0.916388	-0.197680	0.871201
H138	H	0.915794	-0.206408	0.914857
H139	H	0.954641	-0.176330	0.860354
H140	H	0.882463	-0.168949	0.860601
C141	C	0.821427	-0.929318	0.217956
H142	H	0.797594	-0.960534	0.194061
H143	H	0.794103	-0.901763	0.241879
H144	H	0.845405	-0.901729	0.190681
C145	C	0.989729	-0.234760	0.935671
H146	H	1.013600	-0.208958	0.964545
H147	H	1.017017	-0.260650	0.910165
H148	H	0.965766	-0.205284	0.910129
C149	C	0.894960	-0.453817	0.733790
H150	H	0.891965	-0.490123	0.762645
H151	H	0.858608	-0.452858	0.708287
H152	H	0.930820	-0.459857	0.708240
C153	C	0.821341	-0.416703	0.669322
H154	H	0.827090	-0.410494	0.712982
H155	H	0.779248	-0.406813	0.658570
H156	H	0.830493	-0.462184	0.658604
C157	C	0.336947	-0.314496	0.183676
H158	H	0.293300	-0.315287	0.191772
H159	H	0.347667	-0.273271	0.163680
H160	H	0.347628	-0.351295	0.157281
H161	H	0.144615	-0.404451	0.374852
C162	C	0.135239	-0.234755	0.218294
H163	H	0.091584	-0.240955	0.224036
H164	H	0.146017	-0.189298	0.227540
H165	H	0.145903	-0.244594	0.176171
