data_functionalizedCrystal
_audit_creation_method	'MofGen! by Chris Wilmer'
_symmetry_space_group_name_H-M	'P1'
_symmetry_Int_Tables_number	1
_symmetry_cell_setting	triclinic
loop_
_symmetry_equiv_pos_as_xyz
  x,y,z
_cell_length_a	18.215407
_cell_length_b	19.077068
_cell_length_c	18.215407
_cell_angle_alpha	87.713242
_cell_angle_beta	90.009795
_cell_angle_gamma	92.327501
loop_
_atom_site_label
_atom_site_type_symbol
_atom_site_fract_x
_atom_site_fract_y
_atom_site_fract_z
Zn1	Zn	1.113207	-0.280336	0.427874
Zn2	Zn	1.108188	-0.398000	0.309743
Zn3	Zn	0.990162	-0.280320	0.304821
Zn4	Zn	0.985156	-0.398000	0.432768
O5	O	1.049178	-0.339164	0.368802
O6	O	1.215525	-0.295951	0.412216
O7	O	1.092526	-0.382383	0.206106
O8	O	1.010680	-0.181830	0.317036
O9	O	1.211838	-0.382399	0.325425
O10	O	1.101081	-0.181842	0.407443
O11	O	1.005813	-0.295924	0.202489
O12	O	0.886514	-0.295924	0.321781
O13	O	1.002148	-0.382399	0.535103
O14	O	0.882836	-0.382383	0.415784
O15	O	1.096227	-0.295951	0.531508
O16	O	1.087672	-0.496493	0.330171
O17	O	0.997281	-0.496493	0.420557
C18	C	0.857973	-0.339152	0.368780
C19	C	0.776173	-0.339164	0.368789
C20	C	1.041409	-0.522031	0.376445
C21	C	1.038152	-0.600262	0.379740
C22	C	0.586081	-0.384254	0.417680
C23	C	0.509222	-0.384256	0.417689
C24	C	0.513028	-0.294087	0.319940
C25	C	0.589885	-0.294082	0.319935
C26	C	0.626410	-0.339169	0.368804
C27	C	0.472693	-0.339177	0.368818
C28	C	0.389359	-0.339179	0.368828
C29	C	0.709749	-0.339167	0.368795
C30	C	1.083720	-0.636992	0.334267
C31	C	1.080662	-0.710498	0.337370
C32	C	1.032031	-0.747273	0.385942
C33	C	0.986461	-0.710538	0.431420
C34	C	0.989524	-0.637033	0.428320
C35	C	1.017824	-0.967113	0.400259
C36	C	1.014763	-1.040623	0.403354
C37	C	1.108965	-1.040577	0.309305
C38	C	1.112020	-0.967071	0.306206
C39	C	1.066453	-0.930342	0.351686
N40	N	1.028902	-0.822409	0.389114
N41	N	1.069587	-0.855208	0.348518
C42	C	1.241131	-0.339177	0.368824
C43	C	1.322929	-0.339182	0.368833
C44	C	1.049189	-0.339177	0.560755
C45	C	1.049194	-0.339182	0.642554
C46	C	1.056998	-0.155584	0.361144
C47	C	1.060331	-0.077353	0.357881
C48	C	1.094334	-0.384187	0.909499
C49	C	1.094336	-0.384191	0.832640
C50	C	1.004032	-0.294165	0.828858
C51	C	1.004027	-0.294166	0.905715
C52	C	1.049183	-0.339176	0.946033
C53	C	1.049189	-0.339179	0.792317
C54	C	1.049191	-0.339182	0.708984
C55	C	1.049180	-0.339174	1.029372
C56	C	1.049167	-0.339170	1.177596
C57	C	1.049178	-0.339173	1.095797
H58	H	0.476389	-0.420968	0.457490
O59	O	0.939203	-0.746151	0.478669
C60	C	0.899628	-0.697967	0.518128
H61	H	0.931954	-0.645546	0.518493
H62	H	0.890851	-0.719191	0.576999
H63	H	0.844078	-0.690202	0.490801
H64	H	0.483280	-0.257380	0.280152
H65	H	0.615816	-0.420965	0.457474
O66	O	0.628953	-0.250262	0.272383
C67	C	0.580237	-0.210460	0.229259
H68	H	0.524225	-0.239287	0.227867
H69	H	0.602756	-0.202863	0.170970
H70	H	0.574337	-0.157047	0.254066
O71	O	0.945365	-0.601318	0.472567
C72	C	0.989007	-0.558739	0.518328
H73	H	1.046043	-0.580847	0.523857
H74	H	0.962384	-0.557904	0.574905
H75	H	0.993882	-0.503037	0.493227
H76	H	1.151620	-0.937130	0.266655
H77	H	1.123318	-0.607054	0.294712
H78	H	1.117768	-0.740400	0.300341
O79	O	0.973660	-0.931413	0.444509
C80	C	1.017289	-0.888832	0.490280
H81	H	1.074329	-0.910931	0.495813
H82	H	0.990660	-0.888009	0.546855
H83	H	1.022156	-0.833127	0.465187
H84	H	1.146064	-1.070490	0.272279
O85	O	0.967506	-1.076239	0.450609
C86	C	0.927932	-1.028060	0.490076
H87	H	0.960255	-0.975637	0.490441
H88	H	0.919162	-1.049288	0.548947
H89	H	0.872379	-1.020297	0.462755
O90	O	1.138212	-0.427979	0.948554
C91	C	1.178077	-0.467695	0.899821
H92	H	1.147832	-0.470130	0.845130
H93	H	1.183567	-0.523150	0.924345
H94	H	1.235067	-0.441922	0.890583
H95	H	0.967269	-0.257519	0.796021
O96	O	0.960144	-0.250373	0.941093
C97	C	0.920280	-0.210654	0.889028
H98	H	0.950530	-0.208212	0.834146
H99	H	0.914786	-0.155201	0.908921
H100	H	0.863293	-0.236429	0.881918
H101	H	1.131103	-0.420843	0.802897
