data_functionalizedCrystal
_audit_creation_method	'MofGen! by Chris Wilmer'
_symmetry_space_group_name_H-M	'P1'
_symmetry_Int_Tables_number	1
_symmetry_cell_setting	triclinic
loop_
_symmetry_equiv_pos_as_xyz
  x,y,z
_cell_length_a	15.298709
_cell_length_b	15.297510
_cell_length_c	13.032268
_cell_angle_alpha	105.382620
_cell_angle_beta	74.613014
_cell_angle_gamma	72.592483
loop_
_atom_site_label
_atom_site_type_symbol
_atom_site_fract_x
_atom_site_fract_y
_atom_site_fract_z
Zn1	Zn	1.309503	0.172033	0.363255
Zn2	Zn	1.301815	0.308251	0.217347
Zn3	Zn	1.173332	0.179670	0.217313
Zn4	Zn	1.116791	0.364701	0.440374
O5	O	1.225360	0.256164	0.309572
O6	O	1.442905	0.163282	0.311641
O7	O	1.305216	0.270766	0.062928
O8	O	1.218275	0.044213	0.204384
O9	O	1.437256	0.263360	0.204442
O10	O	1.318320	0.038602	0.311607
O11	O	1.210820	0.176298	0.062903
O12	O	1.031410	0.231036	0.279163
O13	O	1.121910	0.359572	0.584559
O14	O	0.989870	0.366978	0.443044
O15	O	1.263495	0.218020	0.527900
O16	O	1.250391	0.450183	0.279221
O17	O	1.114455	0.491657	0.443078
C18	C	0.975786	0.305962	0.369469
C19	C	0.869009	0.327292	0.395125
C20	C	0.797241	0.408169	0.492411
C21	C	0.696919	0.428206	0.516525
C22	C	0.668353	0.367374	0.443351
C23	C	0.740121	0.286500	0.346058
C24	C	0.840454	0.266456	0.321946
C25	C	0.711566	0.225661	0.272886
C26	C	0.783333	0.144787	0.175593
C27	C	0.883656	0.124747	0.151486
C28	C	0.912221	0.185579	0.224660
C29	C	0.611233	0.245705	0.296998
C30	C	0.654445	0.103992	0.126533
C31	C	0.754768	0.083955	0.102419
C32	C	1.175476	0.505778	0.369539
C33	C	1.154218	0.612551	0.395209
C34	C	1.377582	0.827011	0.126462
C35	C	1.397555	0.726692	0.102339
C36	C	1.336723	0.698151	0.175554
C37	C	1.255914	0.769941	0.272898
C38	C	1.235934	0.870270	0.297019
C39	C	1.195075	0.741410	0.346111
C40	C	1.114265	0.813200	0.443454
C41	C	1.094290	0.913519	0.467571
C42	C	1.155122	0.942059	0.394356
C43	C	1.215054	0.641081	0.321990
C44	C	1.073406	0.684340	0.492546
C45	C	1.053433	0.784659	0.516670
C46	C	1.475909	0.206172	0.249443
C47	C	1.582678	0.184869	0.223819
C48	C	1.187253	0.294241	0.597387
C49	C	1.171014	0.310467	0.720037
C50	C	1.275452	1.005577	0.249403
C51	C	1.296771	0.898800	0.223799
C52	C	1.263388	0.218155	0.022848
C53	C	1.279867	0.201621	-0.099911
C54	C	1.233827	0.247664	0.746684
C55	C	1.217045	0.264433	0.873448
H56	H	0.820511	0.457686	0.551983
H57	H	0.552808	0.311553	0.376216
H58	H	1.427098	0.850260	0.066855
H59	H	1.104808	0.376645	0.791070
H60	H	0.813215	0.018106	0.023203
O61	O	0.570876	0.386858	0.466969
C62	C	0.528277	0.382989	0.574913
H63	H	0.574398	0.396341	0.628510
H64	H	0.449913	0.442337	0.620990
H65	H	0.526072	0.307161	0.562527
H66	H	1.352989	0.616465	0.155906
O67	O	1.009719	0.165999	0.201039
C68	C	1.066942	0.081555	0.099498
H69	H	1.020349	0.071033	0.045700
H70	H	1.133821	0.091538	0.048390
H71	H	1.092928	0.013814	0.122294
H72	H	0.987637	0.843124	0.595927
H73	H	1.346070	0.135429	0.829059
H74	H	1.028480	0.971969	0.546825
O75	O	0.953328	0.046271	0.056860
C76	C	0.939178	0.057448	-0.042254
H77	H	0.897029	0.138943	-0.022913
H78	H	1.014030	0.028704	-0.114613
H79	H	0.895036	0.013735	-0.069382
H80	H	1.138867	1.023746	0.413994
H81	H	0.638492	0.494054	0.595741
H82	H	0.631189	0.054455	0.066950
O83	O	1.014185	0.656799	0.563771
C84	C	0.938587	0.741673	0.654869
H85	H	0.927029	0.807883	0.627659
H86	H	0.867108	0.729396	0.677783
H87	H	0.960493	0.756369	0.732829
H88	H	1.300026	0.181478	0.675651
H89	H	1.280850	0.582638	0.242732
H90	H	1.150834	0.330615	0.944479
H91	H	1.463349	0.668244	0.023082
