data_functionalizedCrystal
_audit_creation_method	'MofGen! by Chris Wilmer'
_symmetry_space_group_name_H-M	'P1'
_symmetry_Int_Tables_number	1
_symmetry_cell_setting	triclinic
loop_
_symmetry_equiv_pos_as_xyz
  x,y,z
_cell_length_a	12.645331
_cell_length_b	12.645330
_cell_length_c	12.645323
_cell_angle_alpha	89.975130
_cell_angle_beta	90.022676
_cell_angle_gamma	89.983329
loop_
_atom_site_label
_atom_site_type_symbol
_atom_site_fract_x
_atom_site_fract_y
_atom_site_fract_z
Zn1	Zn	1.620731	0.422060	0.599446
Zn2	Zn	1.620613	0.599348	0.422186
Zn3	Zn	1.443446	0.422096	0.422191
Zn4	Zn	1.443428	0.599279	0.599402
O5	O	1.532054	0.510695	0.510806
O6	O	1.769063	0.445591	0.575949
O7	O	1.597069	0.575879	0.273840
O8	O	1.467020	0.273744	0.445724
O9	O	1.768976	0.575844	0.445717
O10	O	1.597271	0.273717	0.575953
O11	O	1.466906	0.445653	0.273843
O12	O	1.295096	0.445585	0.445681
O13	O	1.466989	0.575726	0.747755
O14	O	1.295083	0.575761	0.575877
O15	O	1.597253	0.445524	0.747788
O16	O	1.597052	0.747686	0.445674
O17	O	1.466874	0.747635	0.575873
C18	C	1.256625	0.510670	0.510776
C19	C	1.138795	0.510685	0.510788
C20	C	1.531977	0.786125	0.510791
C21	C	1.532041	0.903955	0.510821
C22	C	0.971204	0.428415	0.429333
C23	C	1.093763	0.428628	0.428974
C24	C	1.094274	0.622359	0.480273
C25	C	0.971676	0.621910	0.479717
C26	C	0.971645	0.482344	0.623072
C27	C	1.094251	0.479849	0.622448
C28	C	1.532132	0.510614	0.787312
C29	C	1.532166	0.510579	0.905142
C30	C	1.808560	0.510722	0.510838
C31	C	1.926390	0.510733	0.510851
C32	C	1.532161	0.234190	0.510844
C33	C	1.532206	0.116360	0.510861
C34	C	1.450484	1.071531	0.592982
C35	C	1.450067	0.948972	0.592717
C36	C	1.501796	0.948549	0.399099
C37	C	1.501298	1.071147	0.399597
C38	C	1.644342	1.071047	0.539475
C39	C	1.643654	0.948440	0.541918
C40	C	1.532038	0.510701	0.235377
C41	C	1.532210	0.510437	0.117547
C42	C	1.449964	0.592103	1.072685
C43	C	1.450179	0.592506	0.950125
C44	C	1.643865	0.540899	0.949662
C45	C	1.643414	0.541410	1.072260
C46	C	1.503724	0.398278	1.072340
C47	C	1.501232	0.398951	0.949733
H48	H	1.123864	0.345817	0.448100
C49	C	1.677042	0.650503	0.908219
H50	H	1.622981	0.677931	0.863798
H51	H	1.740831	0.644210	0.869070
H52	H	1.687760	0.696996	0.966230
H53	H	1.556760	0.334889	0.919112
H54	H	1.468585	0.674731	1.103504
C55	C	0.931373	0.316211	0.454864
H56	H	0.887052	0.318558	0.515465
H57	H	0.990028	0.271267	0.468482
H58	H	0.892432	0.289593	0.396392
H59	H	1.419031	0.376085	0.920634
H60	H	0.943030	0.645984	0.397678
H61	H	0.942666	0.542301	0.683810
H62	H	1.420678	0.917936	0.374420
H63	H	1.563628	0.337434	1.101353
C64	C	1.338878	1.113259	0.567698
H65	H	1.341869	1.157879	0.507310
H66	H	1.312847	1.152256	0.626368
H67	H	1.293068	1.055377	0.553794
C68	C	1.579643	0.909161	0.314172
H69	H	1.559896	0.937063	0.247248
H70	H	1.577951	0.834107	0.311532
H71	H	1.649112	0.932031	0.331339
H72	H	1.366935	0.919736	0.573760
H73	H	1.705227	1.100036	0.479663
H74	H	1.666463	0.919290	0.624140
H75	H	1.469234	1.100944	0.676094
C76	C	0.929539	0.453477	0.317650
H77	H	0.884954	0.513891	0.320485
H78	H	0.890519	0.394770	0.291724
H79	H	0.987451	0.467258	0.271842
C80	C	1.133323	0.453964	0.316633
H81	H	1.074466	0.464179	0.271039
H82	H	1.175021	0.396839	0.291325
H83	H	1.174876	0.516520	0.318222
C84	C	1.135671	0.655440	0.370631
H85	H	1.180073	0.601354	0.343306
H86	H	1.174830	0.719234	0.376837
H87	H	1.077639	0.666118	0.324099
H88	H	0.942031	0.685319	0.536502
C89	C	1.135657	0.554932	0.708894
H90	H	1.107494	0.534441	0.775458
H91	H	1.114366	0.625266	0.693238
H92	H	1.210663	0.551399	0.711328
C93	C	1.133568	0.368836	0.653540
H94	H	1.176953	0.341387	0.598712
H95	H	1.074659	0.323420	0.663969
H96	H	1.173373	0.373219	0.717117
H97	H	1.468990	0.918818	0.675558
H98	H	1.419326	1.099837	0.375357
H99	H	1.558238	1.100805	0.336324
C100	C	1.681614	1.112705	0.647662
H101	H	1.629127	1.158127	0.676394
H102	H	1.745756	1.150833	0.639082
H103	H	1.692925	1.054849	0.694265
C104	C	1.728874	0.463098	0.910299
H105	H	1.696923	0.411313	0.866254
H106	H	1.761235	0.429411	0.969163
H107	H	1.780903	0.500578	0.871173
C108	C	1.730240	0.907058	0.466991
H109	H	1.699315	0.861912	0.415528
H110	H	1.781358	0.868693	0.506516
H111	H	1.763450	0.965052	0.432675
H112	H	1.367350	0.573532	0.920023
C113	C	1.337733	0.566717	1.112489
H114	H	1.340025	0.506091	1.156830
H115	H	1.292798	0.553192	1.053819
H116	H	1.311141	0.625206	1.151400
H117	H	1.123444	0.685331	0.537783
H118	H	1.468983	0.675654	0.920811
C119	C	1.395610	0.360937	1.114087
H120	H	1.366829	0.413409	1.159480
H121	H	1.404300	0.296806	1.152264
H122	H	1.348992	0.349586	1.056267
H123	H	0.940749	0.402333	0.650823
H124	H	1.706772	0.484511	1.101938
C125	C	1.676021	0.652171	1.110917
H126	H	1.689412	0.696433	1.051694
H127	H	1.738190	0.646783	1.152769
H128	H	1.620559	0.681640	1.152119
