data_functionalizedCrystal
_audit_creation_method	'MofGen! by Chris Wilmer'
_symmetry_space_group_name_H-M	'P1'
_symmetry_Int_Tables_number	1
_symmetry_cell_setting	triclinic
loop_
_symmetry_equiv_pos_as_xyz
  x,y,z
_cell_length_a	12.759401
_cell_length_b	12.827892
_cell_length_c	12.759393
_cell_angle_alpha	89.970218
_cell_angle_beta	89.979062
_cell_angle_gamma	90.016917
loop_
_atom_site_label
_atom_site_type_symbol
_atom_site_fract_x
_atom_site_fract_y
_atom_site_fract_z
Zn1	Zn	1.606261	-0.415940	-0.594025
Zn2	Zn	1.606150	-0.590717	-0.418348
Zn3	Zn	1.430560	-0.415996	-0.418361
Zn4	Zn	1.430550	-0.590644	-0.593985
O5	O	1.518380	-0.503324	-0.506180
O6	O	1.753268	-0.439132	-0.570733
O7	O	1.582816	-0.567594	-0.271328
O8	O	1.453918	-0.269752	-0.441685
O9	O	1.753186	-0.567540	-0.441663
O10	O	1.583005	-0.269711	-0.570745
O11	O	1.453810	-0.439227	-0.271338
O12	O	1.283538	-0.439156	-0.441646
O13	O	1.453900	-0.567416	-0.741011
O14	O	1.283530	-0.567469	-0.570676
O15	O	1.582995	-0.439061	-0.741041
O16	O	1.582806	-0.736944	-0.441624
O17	O	1.453793	-0.736890	-0.570664
C18	C	1.245413	-0.503312	-0.506159
C19	C	1.128636	-0.503331	-0.506175
C20	C	1.073798	-0.570246	-0.573255
C21	C	0.964074	-0.570250	-0.573276
C22	C	0.964036	-0.436422	-0.439127
C23	C	1.073758	-0.436413	-0.439112
C24	C	1.518315	-0.774834	-0.506161
C25	C	1.518383	-0.890987	-0.506188
C26	C	1.582298	-0.942764	-0.442406
C27	C	1.582370	-1.062814	-0.442433
C28	C	1.792414	-0.503338	-0.506201
C29	C	1.909190	-0.503344	-0.506210
C30	C	1.518459	-0.503224	-0.780213
C31	C	1.518492	-0.503181	-0.896990
C32	C	1.518475	-0.230754	-0.506221
C33	C	1.518515	-0.114601	-0.506239
C34	C	1.585717	-0.436336	-0.951869
C35	C	1.585735	-0.436291	-1.061593
C36	C	1.451301	-0.569945	-1.061549
C37	C	1.451278	-0.569984	-0.951827
C38	C	1.518363	-0.503349	-0.233212
C39	C	1.518533	-0.503097	-0.116436
H40	H	1.118476	-0.624732	-0.627864
H41	H	1.640444	-0.381938	-0.907224
H42	H	1.636970	-0.898218	-0.387783
H43	H	1.396529	-0.624416	-0.907143
N44	N	1.446030	-1.055635	-0.578582
H45	H	1.403427	-1.106695	-0.621166
H46	H	1.397445	-1.010424	-0.535721
N47	N	1.378822	-0.641992	-1.120715
H48	H	1.395102	-0.716668	-1.101615
H49	H	1.303784	-0.625673	-1.101595
N50	N	1.654864	-1.121777	-0.370096
H51	H	1.638592	-1.102904	-0.294995
H52	H	1.644611	-1.199160	-0.380454
N53	N	0.904837	-0.364272	-0.366783
H54	H	0.923942	-0.289619	-0.383216
H55	H	0.827028	-0.374533	-0.377005
N56	N	1.445965	-0.949994	-0.578544
H57	H	1.370879	-0.931132	-0.562170
H58	H	1.462299	-0.930964	-0.653611
N59	N	0.904926	-0.642426	-0.645622
H60	H	0.956343	-0.684816	-0.688098
H61	H	0.859370	-0.690734	-0.602771
H62	H	1.118409	-0.381917	-0.384487
N63	N	1.658229	-0.364183	-1.120785
H64	H	1.700798	-0.321869	-1.069393
H65	H	1.706844	-0.406697	-1.166320
