data_functionalizedCrystal
_audit_creation_method	'MofGen! by Chris Wilmer'
_symmetry_space_group_name_H-M	'P1'
_symmetry_Int_Tables_number	1
_symmetry_cell_setting	triclinic
loop_
_symmetry_equiv_pos_as_xyz
  x,y,z
_cell_length_a	10.685980
_cell_length_b	25.639240
_cell_length_c	10.686551
_cell_angle_alpha	94.417087
_cell_angle_beta	98.408259
_cell_angle_gamma	94.398495
loop_
_atom_site_label
_atom_site_type_symbol
_atom_site_fract_x
_atom_site_fract_y
_atom_site_fract_z
Zn1	Zn	1.995695	-0.117195	0.866634
Zn2	Zn	1.979197	-0.211917	0.654315
Zn3	Zn	1.767110	-0.131747	0.638090
Zn4	Zn	1.783320	-0.211866	0.850225
O5	O	1.881331	-0.168181	0.752316
O6	O	2.171145	-0.123691	0.852127
O7	O	1.937374	-0.207394	0.474527
O8	O	1.797553	-0.056645	0.668484
O9	O	2.159024	-0.193283	0.696137
O10	O	1.965493	-0.045954	0.836395
O11	O	1.781555	-0.148494	0.462607
O12	O	1.591622	-0.148444	0.652573
O13	O	1.825181	-0.193196	1.030037
O14	O	1.603532	-0.207307	0.808428
O15	O	1.981211	-0.123641	1.042093
O16	O	1.953093	-0.285082	0.680225
O17	O	1.809183	-0.285044	0.824160
C18	C	1.551517	-0.179450	0.726960
C19	C	1.410424	-0.184282	0.716142
C20	C	1.881144	-0.304033	0.752203
C21	C	1.881183	-0.362146	0.752206
C22	C	1.968829	-0.716889	0.839897
C23	C	1.968868	-0.771491	0.839925
O24	O	2.043166	-0.794960	0.914365
N25	N	1.881516	-0.804410	0.752452
C26	C	1.794111	-0.782724	0.664953
O27	O	1.719814	-0.815739	0.590554
C28	C	1.794066	-0.728123	0.664932
C29	C	1.881432	-0.695207	0.752402
C30	C	2.056186	-0.683973	0.927361
C31	C	2.056148	-0.629374	0.927330
C32	C	1.968752	-0.607692	0.839835
C33	C	1.881394	-0.640608	0.752371
C34	C	1.706656	-0.706439	0.577440
C35	C	1.706619	-0.651833	0.577426
C36	C	1.793985	-0.618917	0.664896
C37	C	1.793960	-0.564328	0.664846
N38	N	1.881312	-0.531409	0.752319
C39	C	1.968708	-0.553091	0.839814
C40	C	1.794209	-0.897390	0.665007
C41	C	1.794258	-0.951991	0.665022
C42	C	1.969014	-0.940753	0.839996
C43	C	1.968970	-0.886152	0.839974
C44	C	1.881561	-0.864471	0.752480
C45	C	1.968622	-0.438431	0.839742
C46	C	1.968579	-0.383828	0.839700
C47	C	1.793819	-0.395070	0.664732
C48	C	1.793866	-0.449668	0.664768
C49	C	1.881272	-0.471347	0.752284
O50	O	1.719696	-0.540822	0.590448
O51	O	2.042981	-0.520071	0.914211
C52	C	2.212432	-0.156869	0.777772
C53	C	2.353527	-0.152049	0.788620
C54	C	1.906845	-0.156790	1.083412
C55	C	1.917717	-0.151935	1.224506
C56	C	1.881555	-0.031796	0.752460
C57	C	1.881651	0.026323	0.752522
C58	C	1.855989	-0.179488	0.422514
C59	C	1.845362	-0.184187	0.281440
H60	H	1.351189	-0.215577	0.645805
H61	H	1.412755	-0.120752	0.858945
Br62	Br	1.728254	-0.236404	1.182780
Br63	Br	1.587983	-0.622413	0.458679
Br64	Br	2.087160	-0.339158	0.958414
Br65	Br	2.034852	-0.099724	1.323172
Br66	Br	2.087247	-0.467843	0.958513
Br67	Br	2.174806	-0.713387	1.046126
Br68	Br	2.174715	-0.584710	1.046055
H69	H	2.040110	-0.859354	0.911200
H70	H	1.723129	-0.978787	0.593782
Br71	Br	1.675577	-0.867973	0.546248
Br72	Br	2.087626	-0.970189	0.958739
Br73	Br	1.588078	-0.751098	0.458724
H74	H	1.722734	-0.476471	0.593534
H75	H	1.722666	-0.377408	0.593491
