data_functionalizedCrystal
_audit_creation_method	'MofGen! by Chris Wilmer'
_symmetry_space_group_name_H-M	'P1'
_symmetry_Int_Tables_number	1
_symmetry_cell_setting	triclinic
loop_
_symmetry_equiv_pos_as_xyz
  x,y,z
_cell_length_a	14.446369
_cell_length_b	12.970454
_cell_length_c	12.970454
_cell_angle_alpha	59.999776
_cell_angle_beta	90.000289
_cell_angle_gamma	59.998589
loop_
_atom_site_label
_atom_site_type_symbol
_atom_site_fract_x
_atom_site_fract_y
_atom_site_fract_z
Zr1	Zr	0.891772	1.128466	-0.135268
O2	O	0.743963	1.343565	-0.299899
O3	O	0.937083	0.913372	-0.084800
O4	O	0.937084	1.128462	-0.299890
O5	O	0.743961	1.128476	0.084858
O6	O	1.089421	1.128453	-0.299884
O7	O	0.743962	1.128475	-0.084809
O8	O	1.089419	0.743697	0.084874
O9	O	0.743963	1.513232	-0.299900
O10	O	1.070095	1.001834	-0.063271
O11	O	0.956407	1.001842	0.063344
O12	O	0.956408	1.255082	-0.189898
O13	O	0.842720	1.255090	-0.063282
Zr14	Zr	1.134730	1.128452	0.135340
Zr15	Zr	1.134732	1.128451	-0.135259
Zr16	Zr	0.891770	1.128467	0.135330
Zr17	Zr	0.891772	1.399066	-0.135270
Zr18	Zr	1.134730	0.857852	0.135341
O19	O	1.089419	1.343546	0.084871
O20	O	1.089421	1.343544	-0.299885
O21	O	0.743961	1.343567	0.084857
O22	O	1.282539	0.913353	0.299971
O23	O	1.282541	0.913351	-0.084785
O24	O	0.937081	0.913374	0.299957
O25	O	1.282541	1.128442	-0.084786
O26	O	1.089418	1.128456	0.299962
O27	O	0.937081	1.128465	0.299956
O28	O	1.282540	1.128443	0.084880
O29	O	0.937084	1.513220	-0.299892
O30	O	1.089418	0.743698	0.299964
O31	O	1.282539	0.743686	0.299972
O32	O	1.282540	0.743685	0.084882
O33	O	0.743962	1.513233	-0.084811
O34	O	0.937083	1.513221	-0.084803
O35	O	1.070094	1.001836	0.189969
O36	O	1.183782	1.001828	0.063353
O37	O	1.070095	1.255076	-0.063273
O38	O	0.956407	1.255084	0.063343
C39	C	1.013251	0.789980	0.000037
C40	C	1.013251	0.675103	0.000038
C41	C	0.709345	1.128478	0.000023
C42	C	0.606202	1.128484	0.000019
C43	C	0.387834	1.288191	-0.079442
C44	C	0.495066	1.288298	-0.079888
C45	C	0.602879	1.049148	-0.058231
C46	C	0.495110	1.050161	-0.058814
C47	C	0.496472	1.046873	0.137831
C48	C	0.602441	1.049883	0.137614
C49	C	1.317157	1.128440	0.000048
C50	C	1.420300	1.128434	0.000052
C51	C	1.013253	1.128457	-0.338442
C52	C	1.013254	1.128457	-0.453318
C53	C	1.013251	1.466938	0.000034
C54	C	1.013251	1.581815	0.000033
C55	C	1.013249	1.128461	0.338513
C56	C	1.013248	1.128461	0.453389
C57	C	1.317157	0.789961	0.000050
C58	C	1.420300	0.675078	0.000055
C59	C	1.013249	0.789982	0.338515
C60	C	1.013248	0.675105	0.453392
C61	C	1.317155	0.789963	0.338527
C62	C	1.420297	0.675081	0.453408
C63	C	0.709347	1.466955	-0.338456
C64	C	0.606205	1.581837	-0.453337
C65	C	0.709345	1.466957	0.000022
C66	C	0.606202	1.581840	0.000017
C67	C	1.013253	1.466936	-0.338443
C68	C	1.013254	1.581813	-0.453320
C69	C	1.468737	0.527643	0.093533
C70	C	1.565641	0.419683	0.093542
C71	C	1.614111	0.459161	0.000076
C72	C	1.565665	0.606612	-0.093412
C73	C	1.468758	0.714569	-0.093424
C74	C	1.468741	0.527645	0.507357
C75	C	1.565665	0.419684	0.615288
C76	C	1.614139	0.459162	0.669273
C77	C	1.565689	0.606611	0.615315
C78	C	1.468772	0.714569	0.507381
C79	C	0.557769	1.729273	-0.507296
C80	C	0.460866	1.837233	-0.615250
C81	C	0.412397	1.797756	-0.669239
C82	C	0.460842	1.650306	-0.615275
C83	C	0.557747	1.542348	-0.507328
C84	C	0.557763	1.542316	0.093499
C85	C	0.460859	1.650246	0.093520
C86	C	0.412391	1.797699	0.000053
C87	C	0.460839	1.837223	-0.093434
C88	C	0.557746	1.729294	-0.093449
H89	H	0.493305	1.350862	-0.041120
H90	H	0.597172	1.422301	-0.463397
Cl91	Cl	0.618621	1.779007	-0.210990
H92	H	0.601923	1.107730	0.181131
H93	H	0.597217	1.761444	-0.463349
Cl94	Cl	0.399890	1.600700	-0.683157
Cl95	Cl	0.290569	1.933494	-0.804944
Cl96	Cl	0.399890	2.022600	-0.210932
Cl97	Cl	0.302947	1.384528	-0.235415
Cl98	Cl	0.304522	1.385005	-0.019429
H99	H	1.693054	0.371241	0.757161
Cl100	Cl	1.626529	0.234330	0.211083
Cl101	Cl	0.618675	1.356955	0.211016
H102	H	1.693016	0.371241	0.000099
Cl103	Cl	1.407875	0.899916	0.439580
H104	H	0.605015	1.104252	-0.158656
Cl105	Cl	1.626612	0.656218	-0.210903
H106	H	0.421425	1.618036	0.169649
Cl107	Cl	0.723715	0.867724	0.026853
H108	H	0.421434	1.957286	-0.659170
Cl109	Cl	1.407822	0.477975	0.211044
H110	H	0.492620	1.350925	-0.181523
Cl111	Cl	0.417373	1.137223	-0.215348
H112	H	0.333482	1.885567	0.000079
Cl113	Cl	1.626636	0.656216	0.683203
Cl114	Cl	0.536253	0.869204	0.024779
H115	H	0.446448	1.097990	0.186493
Cl116	Cl	1.407874	0.899916	-0.210957
H117	H	0.523911	0.929189	0.197341
Cl118	Cl	0.724635	0.869848	0.236747
H119	H	1.605095	0.299632	0.659211
Cl120	Cl	1.407827	0.477979	0.439511
