data_functionalizedCrystal
_audit_creation_method	'MofGen! by Chris Wilmer'
_symmetry_space_group_name_H-M	'P1'
_symmetry_Int_Tables_number	1
_symmetry_cell_setting	triclinic
loop_
_symmetry_equiv_pos_as_xyz
  x,y,z
_cell_length_a	10.540539
_cell_length_b	15.995350
_cell_length_c	9.616153
_cell_angle_alpha	89.999971
_cell_angle_beta	89.995174
_cell_angle_gamma	84.008933
loop_
_atom_site_label
_atom_site_type_symbol
_atom_site_fract_x
_atom_site_fract_y
_atom_site_fract_z
O1	O	1.684270	0.117994	-0.115573
O2	O	1.314705	0.129112	-0.115589
O3	O	1.509590	0.001726	-0.115579
O4	O	1.489385	0.245380	-0.115583
O5	O	1.509563	0.001729	0.115712
O6	O	1.314678	0.129115	0.115702
O7	O	1.684244	0.117997	0.115719
Zn8	Zn	1.499457	0.123556	0.152433
Zn9	Zn	1.499492	0.123553	-0.152303
O10	O	1.489359	0.245383	0.115709
C11	C	1.267400	0.128280	0.000055
C12	C	1.126486	0.125785	0.000048
C13	C	1.508741	-0.029472	0.000064
C14	C	1.506237	-0.122438	0.000056
C15	C	0.944373	0.030202	0.000589
C16	C	1.090956	0.032730	0.000054
C17	C	1.064213	0.170565	-0.132026
C18	C	0.917712	0.167390	-0.132122
C19	C	0.917167	0.169286	0.130899
C20	C	1.064138	0.170143	0.132630
C21	C	1.497244	-0.460239	0.000060
C22	C	1.358450	-0.413635	-0.000465
C23	C	1.360955	-0.316930	0.000057
C24	C	1.501705	-0.292652	0.000057
C25	C	1.570147	-0.333318	0.132137
C26	C	1.566661	-0.429975	0.132247
C27	C	1.569558	-0.430319	-0.130774
C28	C	1.569525	-0.333374	-0.132520
C29	C	1.504233	-0.197939	0.000060
C30	C	1.494719	-0.554952	0.000067
C31	C	1.731549	0.118829	0.000072
C32	C	1.872462	0.121324	0.000070
C33	C	1.490207	0.276581	0.000063
C34	C	1.492711	0.369547	0.000062
N35	N	1.499442	0.123558	0.360408
N36	N	1.499517	0.123544	-0.360278
C37	C	1.394879	0.191473	0.580772
C38	C	1.395104	0.191727	0.419605
C39	C	1.631892	0.143433	0.418863
C40	C	1.631321	0.143914	0.580081
C41	C	1.472879	0.035546	0.580319
C42	C	1.469825	0.036116	0.419092
H43	H	1.134043	-0.002504	0.094731
N44	N	0.856379	0.251340	-0.139699
N45	N	0.784187	0.272837	-0.239426
H46	H	0.740877	0.332127	-0.244791
H47	H	0.869017	0.236498	0.131791
H48	H	1.549186	-0.015013	0.618439
H49	H	1.085627	0.238902	-0.136941
H50	H	1.105538	0.137429	0.230339
H51	H	0.914680	-0.006405	-0.093600
H52	H	1.411654	0.256390	0.621271
N53	N	1.118232	0.131556	-0.255325
N54	N	1.202573	0.070784	-0.246271
H55	H	1.240738	0.043236	-0.333348
N56	N	1.731921	0.084268	0.629041
N57	N	1.733262	0.008382	0.597417
H58	H	1.804314	-0.033735	0.632003
H59	H	1.524191	-0.451131	-0.230882
N60	N	0.882923	0.125853	-0.255965
N61	N	0.927985	0.051787	-0.279403
H62	H	0.903423	0.022448	-0.366868
H63	H	1.307153	-0.288831	-0.094623
N64	N	1.697922	-0.469410	-0.131907
N65	N	1.736940	-0.515129	-0.231726
H66	H	1.827592	-0.542742	-0.232515
H67	H	1.296651	0.179768	0.380086
N68	N	1.416362	0.273644	0.371217
N69	N	1.431091	0.330803	0.456514
H70	H	1.446085	0.388665	0.422342
H71	H	0.886024	0.139172	0.231011
N72	N	1.143980	-0.011785	-0.118909
N73	N	1.224364	-0.074278	-0.103442
H74	H	1.261813	-0.105721	-0.187464
N75	N	1.093366	0.255250	0.142624
N76	N	1.160919	0.284731	0.051784
H77	H	1.181562	0.344842	0.058831
N78	N	1.288884	-0.437297	-0.119298
N79	N	1.340778	-0.488789	-0.204990
H80	H	1.291648	-0.505504	-0.288924
H81	H	1.522589	-0.305220	0.230425
N82	N	1.660773	0.224454	0.627223
N83	N	1.681602	0.279919	0.541059
H84	H	1.702402	0.336803	0.574345
H85	H	1.306770	-0.289388	0.094893
H86	H	1.516730	-0.448574	0.230978
H87	H	1.296116	0.179697	0.619579
N88	N	1.694493	-0.469659	0.139784
N89	N	1.785996	-0.425943	0.144956
H90	H	1.876277	-0.453966	0.150289
N91	N	1.731887	0.083056	0.370755
N92	N	1.706589	0.024566	0.292662
H93	H	1.777209	-0.018077	0.258684
H94	H	1.655917	0.206909	0.378473
N95	N	1.699867	-0.314823	0.138286
N96	N	1.743423	-0.271357	0.045172
H97	H	1.835039	-0.258293	0.049510
N98	N	1.289161	-0.438634	0.117689
N99	N	1.341554	-0.490625	0.202280
H100	H	1.292622	-0.508283	0.285729
N101	N	1.354321	0.011831	0.631332
N102	N	1.267350	-0.000980	0.548091
H103	H	1.183610	-0.017722	0.584114
N104	N	1.506888	-0.299510	-0.255133
N105	N	1.458617	-0.347060	-0.338599
H106	H	1.414392	-0.323137	-0.425201
H107	H	0.916282	-0.006559	0.095307
H108	H	1.672167	-0.317398	-0.140494
N109	N	1.347594	0.017226	0.371165
N110	N	1.282470	0.067930	0.294071
H111	H	1.196143	0.054591	0.260214
N112	N	1.559235	-0.030333	0.368551
N113	N	1.675488	-0.029856	0.393782
H114	H	1.738648	-0.076782	0.358088
