data_functionalizedCrystal
_audit_creation_method	'MofGen! by Chris Wilmer'
_symmetry_space_group_name_H-M	'P1'
_symmetry_Int_Tables_number	1
_symmetry_cell_setting	triclinic
loop_
_symmetry_equiv_pos_as_xyz
  x,y,z
_cell_length_a	10.723024
_cell_length_b	16.109301
_cell_length_c	15.186229
_cell_angle_alpha	90.000638
_cell_angle_beta	89.997422
_cell_angle_gamma	96.035325
loop_
_atom_site_label
_atom_site_type_symbol
_atom_site_fract_x
_atom_site_fract_y
_atom_site_fract_z
O1	O	0.160391	-1.104074	-0.073171
O2	O	0.660391	-0.604074	0.426829
O3	O	0.180351	-0.862130	-0.073184
O4	O	0.680351	-0.362130	0.426816
O5	O	-0.011279	-0.988683	-0.073174
O6	O	0.488721	-0.488683	0.426826
O7	O	0.352021	-0.977521	-0.073181
O8	O	0.852021	-0.477521	0.426819
O9	O	-0.011282	-0.988674	0.073283
O10	O	0.488718	-0.488674	0.573283
O11	O	0.180348	-0.862121	0.073273
O12	O	0.680348	-0.362121	0.573273
O13	O	0.160388	-1.104066	0.073287
O14	O	0.660388	-0.604066	0.573287
Zn15	Zn	0.170368	-0.983092	0.096533
Zn16	Zn	0.670368	-0.483092	0.596533
Zn17	Zn	0.170371	-0.983103	-0.096431
Zn18	Zn	0.670371	-0.483103	0.403569
O19	O	0.352018	-0.977513	0.073276
O20	O	0.852018	-0.477513	0.573276
C21	C	-0.057770	-0.987866	0.000054
C22	C	0.442230	-0.487866	0.500054
C23	C	-0.196292	-0.985436	0.000050
C24	C	0.303708	-0.485436	0.500050
C25	C	0.179541	-0.831146	0.000043
C26	C	0.679541	-0.331146	0.500043
C27	C	0.177117	-0.738836	0.000037
C28	C	0.677117	-0.238836	0.500037
C29	C	0.161198	-1.135050	0.000058
C30	C	0.661198	-0.635050	0.500058
C31	C	0.163622	-1.227359	0.000057
C32	C	0.663622	-0.727359	0.500057
C33	C	-0.272213	-1.056249	0.000053
C34	C	0.227787	-0.556249	0.500053
C35	C	-0.415383	-1.053739	0.000050
C36	C	0.084617	-0.553739	0.500050
C37	C	0.398508	-0.978329	0.000047
C38	C	0.898508	-0.478329	0.500047
C39	C	0.537031	-0.980760	0.000044
C40	C	1.037031	-0.480760	0.500044
N41	N	0.170364	-0.983091	0.228226
N42	N	0.670364	-0.483091	0.728226
C43	C	0.285190	-0.517200	0.000045
C44	C	0.785190	-0.017200	0.500045
C45	C	0.282903	-0.430466	0.000051
C46	C	0.782903	0.069534	0.500051
C47	C	0.055540	-0.449003	0.000052
C48	C	0.555540	0.050997	0.500052
C49	C	0.057829	-0.535735	0.000052
C50	C	0.557829	-0.035735	0.500052
C51	C	0.172657	-0.569831	0.000045
C52	C	0.672657	-0.069831	0.500045
C53	C	0.168081	-0.396365	0.000050
C54	C	0.668081	0.103635	0.500050
C55	C	0.165600	-0.302324	0.000056
C56	C	0.665600	0.197676	0.500056
C57	C	0.175139	-0.663877	0.000040
C58	C	0.675139	-0.163877	0.500040
N59	N	0.170365	-0.983112	-0.228123
N60	N	0.670365	-0.483112	0.271877
C61	C	0.085539	-1.039148	0.453953
C62	C	0.585539	-0.539148	0.953953
C63	C	0.085536	-1.039150	0.546143
C64	C	0.585536	-0.539150	1.046143
C65	C	0.255194	-0.927049	0.546143
C66	C	0.755194	-0.427049	1.046143
C67	C	0.255190	-0.927043	0.453955
C68	C	0.755190	-0.427043	0.953955
C69	C	0.170364	-0.983097	0.407862
C70	C	0.670364	-0.483097	0.907862
C71	C	0.170365	-0.983105	0.592240
C72	C	0.670365	-0.483105	1.092240
C73	C	0.170362	-0.983108	0.692196
C74	C	0.670362	-0.483108	1.192196
C75	C	0.170365	-0.983094	0.307900
C76	C	0.670365	-0.483094	0.807900
H77	H	-0.231219	-1.118732	0.000062
H78	H	0.268781	-0.618732	0.500062
O79	O	0.003205	-1.093527	0.409042
O80	O	0.503205	-0.593527	0.909042
C81	C	0.021339	-1.081473	0.317790
C82	C	0.521339	-0.581473	0.817790
H83	H	0.120558	-1.051015	0.305181
H84	H	0.620558	-0.551015	0.805181
H85	H	0.007384	-1.144339	0.282730
H86	H	0.507384	-0.644339	0.782730
H87	H	-0.049261	-1.039321	0.291670
H88	H	0.450739	-0.539321	0.791670
O89	O	-0.493377	-1.125985	0.000013
O90	O	0.006623	-0.625985	0.500013
C91	C	-0.618961	-1.107396	0.000032
C92	C	-0.118961	-0.607396	0.500032
H93	H	-0.623800	-1.042052	-0.027697
H94	H	-0.123800	-0.542052	0.472303
H95	H	-0.678024	-1.154803	-0.042488
H96	H	-0.178024	-0.654803	0.457512
H97	H	-0.656609	-1.110300	0.070295
H98	H	-0.156609	-0.610300	0.570295
H99	H	0.374539	-0.387617	0.000053
H100	H	0.874539	0.112383	0.500053
H101	H	-0.397741	-0.920135	0.000048
H102	H	0.102259	-0.420135	0.500048
O103	O	-0.055890	-0.415742	0.000013
O104	O	0.444110	0.084258	0.500013
C105	C	-0.033783	-0.327904	0.000032
C106	C	0.466217	0.172096	0.500032
H107	H	0.063605	-0.308093	-0.027694
H108	H	0.563605	0.191907	0.472306
H109	H	-0.107251	-0.300861	-0.042490
H110	H	0.392749	0.199139	0.457510
H111	H	-0.039827	-0.303728	0.070295
H112	H	0.460173	0.196272	0.570295
H113	H	0.324265	-0.881395	0.416425
H114	H	0.824265	-0.381395	0.916425
O115	O	0.396621	-0.550460	0.000004
O116	O	0.896621	-0.050460	0.500004
C117	C	0.374517	-0.638298	0.000024
C118	C	0.874517	-0.138298	0.500024
H119	H	0.277134	-0.658110	-0.027704
H120	H	0.777134	-0.158110	0.472296
H121	H	0.447992	-0.665340	-0.042497
H122	H	0.947992	-0.165340	0.457503
H123	H	0.380551	-0.662472	0.070287
H124	H	0.880551	-0.162472	0.570287
O125	O	-0.245124	-0.910869	-0.000112
O126	O	0.254876	-0.410869	0.499888
C127	C	-0.204301	-0.865368	-0.075954
C128	C	0.295699	-0.365368	0.424046
H129	H	-0.177143	-0.910236	-0.128966
H130	H	0.322857	-0.410236	0.371034
H131	H	-0.283212	-0.829625	-0.101420
H132	H	0.216788	-0.329625	0.398580
H133	H	-0.119540	-0.819452	-0.058805
H134	H	0.380460	-0.319452	0.441195
O135	O	-0.051608	-0.586747	0.000012
O136	O	0.448392	-0.086747	0.500012
C137	C	-0.153450	-0.538057	0.000033
C138	C	0.346550	-0.038057	0.500033
H139	H	-0.121760	-0.473514	-0.027697
H140	H	0.378240	0.026486	0.472303
H141	H	-0.232291	-0.569603	-0.042486
H142	H	0.267709	-0.069603	0.457514
H143	H	-0.188651	-0.531682	0.070296
H144	H	0.311349	-0.031682	0.570296
H145	H	0.016463	-1.084791	0.583668
H146	H	0.516463	-0.584791	1.083668
O147	O	0.337551	-0.872686	0.591055
O148	O	0.837551	-0.372686	1.091055
C149	C	0.319349	-0.884696	0.682307
C150	C	0.819349	-0.384696	1.182307
H151	H	0.272737	-0.950528	0.694894
H152	H	0.772737	-0.450528	1.194894
H153	H	0.413847	-0.875989	0.717337
H154	H	0.913847	-0.375989	1.217337
H155	H	0.256748	-0.837285	0.708478
H156	H	0.756748	-0.337285	1.208478
