data_functionalizedCrystal
_audit_creation_method	'MofGen! by Chris Wilmer'
_symmetry_space_group_name_H-M	'P1'
_symmetry_Int_Tables_number	1
_symmetry_cell_setting	triclinic
loop_
_symmetry_equiv_pos_as_xyz
  x,y,z
_cell_length_a	15.944545
_cell_length_b	10.654550
_cell_length_c	9.730223
_cell_angle_alpha	90.004253
_cell_angle_beta	89.999494
_cell_angle_gamma	96.009449
loop_
_atom_site_label
_atom_site_type_symbol
_atom_site_fract_x
_atom_site_fract_y
_atom_site_fract_z
O1	O	1.115463	-0.161928	-0.114201
O2	O	0.871029	-0.181905	-0.114223
O3	O	0.998866	0.010895	-0.114202
O4	O	0.987626	-0.354729	-0.114221
O5	O	0.998858	0.010901	0.114377
O6	O	0.871020	-0.181900	0.114357
O7	O	1.115455	-0.161923	0.114379
Zn8	Zn	0.993236	-0.171911	0.150660
Zn9	Zn	0.993247	-0.171918	-0.150504
O10	O	0.987618	-0.354724	0.114359
C11	C	0.839726	-0.181075	0.000064
C12	C	0.746465	-0.178593	0.000056
C13	C	0.475097	-0.051669	0.000077
C14	C	0.526029	-0.112859	0.112779
C15	C	0.410770	-0.169741	0.000080
C16	C	0.526018	-0.112896	-0.112583
C17	C	0.575708	-0.174083	0.000066
C18	C	0.460473	-0.230899	0.112875
C19	C	0.460459	-0.230918	-0.112588
C20	C	0.511358	-0.292195	0.000142
C21	C	0.315753	-0.167236	0.000089
C22	C	0.670722	-0.176598	0.000067
C23	C	0.998036	0.057685	0.000087
C24	C	0.995567	0.197096	0.000084
C25	C	1.146758	-0.162754	0.000089
C26	C	1.240019	-0.165236	0.000089
C27	C	0.988447	-0.401514	0.000067
C28	C	0.990916	-0.540925	0.000060
N29	N	0.993235	-0.171905	0.356197
C30	C	1.070836	0.277558	0.000091
C31	C	1.068511	0.408549	0.000074
C32	C	0.915642	0.378603	0.000050
C33	C	0.917968	0.247615	0.000057
N34	N	0.993255	-0.171913	-0.356040
C35	C	1.049861	-0.086569	0.428132
C36	C	1.049869	-0.086569	0.572015
C37	C	0.936623	-0.257253	0.572015
C38	C	0.936611	-0.257246	0.428135
H39	H	0.458856	0.050016	0.000192
O40	O	0.560176	-0.053171	0.226354
C41	C	0.542026	0.073530	0.225982
H42	H	0.528780	0.103501	0.116308
H43	H	0.484305	0.083185	0.292768
C44	C	0.634335	0.121595	0.418212
C45	C	0.618072	0.158408	0.283507
H46	H	0.681242	0.173953	0.453702
H47	H	0.646561	0.036233	0.418467
H48	H	0.586228	0.129642	0.473850
H49	H	0.666174	0.150346	0.227868
H50	H	0.605857	0.243772	0.283243
H51	H	0.890496	-0.326738	0.369561
H52	H	0.431949	-0.280724	0.208258
H53	H	0.527439	-0.393958	0.000203
H54	H	1.095966	-0.017078	0.369563
O55	O	0.426320	-0.290177	-0.226403
C56	C	0.459883	-0.227600	-0.344998
H57	H	0.483874	-0.126039	-0.317992
H58	H	0.514250	-0.278177	-0.386117
C59	C	0.361228	-0.352852	-0.488648
C60	C	0.390689	-0.228110	-0.455481
H61	H	0.318548	-0.353171	-0.556803
H62	H	0.338618	-0.395015	-0.408750
H63	H	0.406541	-0.394985	-0.522907
H64	H	0.345378	-0.185984	-0.421208
H65	H	0.413290	-0.185940	-0.535377
O66	O	0.840194	0.427471	-0.000029
C67	C	0.774258	0.328359	-0.000002
H68	H	0.798326	0.239372	-0.043269
H69	H	0.750997	0.309835	0.109656
C70	C	0.671582	0.474622	-0.036516
C71	C	0.701142	0.365329	-0.089669
H72	H	0.626478	0.497427	-0.091821
H73	H	0.716003	0.541397	-0.036529
H74	H	0.652204	0.459170	0.054864
H75	H	0.720529	0.380786	-0.181041
H76	H	0.656722	0.298557	-0.089673
O77	O	1.146285	0.228692	0.000039
C78	C	1.212219	0.327806	0.000071
H79	H	1.188152	0.416784	-0.043207
H80	H	1.235473	0.346351	0.109732
C81	C	1.314900	0.181540	-0.036413
C82	C	1.285342	0.290822	-0.089579
H83	H	1.360007	0.158726	-0.091708
H84	H	1.270479	0.114764	-0.036429
H85	H	1.334272	0.197009	0.054970
H86	H	1.265961	0.275347	-0.180954
H87	H	1.329761	0.357595	-0.089580
H88	H	0.856671	0.182099	0.000048
H89	H	1.095978	-0.017079	0.630580
H90	H	0.554650	-0.063013	-0.207858
O91	O	1.141605	0.486760	-0.000161
C92	C	1.144834	0.563428	-0.118536
H93	H	1.102165	0.515447	-0.201282
H94	H	1.122538	0.658685	-0.091786
C95	C	1.288525	0.642244	-0.070570
C96	C	1.236123	0.583308	-0.172204
H97	H	1.344836	0.654513	-0.103673
H98	H	1.286349	0.590595	0.009184
H99	H	1.269935	0.721619	-0.048288
H100	H	1.254707	0.503929	-0.194472
H101	H	1.238305	0.634945	-0.251964
H102	H	0.890523	-0.326738	0.630601
