data_functionalizedCrystal
_audit_creation_method	'MofGen! by Chris Wilmer'
_symmetry_space_group_name_H-M	'P1'
_symmetry_Int_Tables_number	1
_symmetry_cell_setting	triclinic
loop_
_symmetry_equiv_pos_as_xyz
  x,y,z
_cell_length_a	10.723024
_cell_length_b	14.044220
_cell_length_c	9.198806
_cell_angle_alpha	89.995861
_cell_angle_beta	89.996352
_cell_angle_gamma	88.828373
loop_
_atom_site_label
_atom_site_type_symbol
_atom_site_fract_x
_atom_site_fract_y
_atom_site_fract_z
O1	O	1.670498	0.133040	-0.120888
O2	O	1.308620	0.145774	-0.120893
O3	O	1.484127	0.001387	-0.120876
O4	O	1.494991	0.277427	-0.120905
O5	O	1.484112	0.001387	0.120909
O6	O	1.308604	0.145774	0.120892
O7	O	1.670483	0.133039	0.120898
Cu8	Cu	1.489542	0.139407	0.142972
Cu9	Cu	1.489560	0.139407	-0.142967
O10	O	1.494975	0.277427	0.120881
C11	C	1.262020	0.144847	-0.000001
C12	C	1.123188	0.142075	-0.000003
C13	C	1.056288	0.222866	-0.000012
C14	C	0.912798	0.220002	-0.000013
C15	C	1.479364	-0.033958	0.000017
C16	C	1.465180	-0.139276	0.000019
C17	C	1.439248	-0.332106	-0.000003
C18	C	1.539849	-0.389085	-0.000006
C19	C	1.525420	-0.496383	-0.000017
C20	C	1.453675	-0.224799	0.000009
C21	C	1.717083	0.133966	0.000002
C22	C	1.855914	0.136739	-0.000006
C23	C	1.499738	0.312772	-0.000016
C24	C	1.513923	0.418090	-0.000027
N25	N	1.489539	0.139406	0.344086
N26	N	1.489573	0.139401	-0.344081
C27	C	1.563202	0.078514	0.416290
C28	C	1.563221	0.078511	0.583702
H29	H	0.855286	0.289166	-0.000027
O30	O	0.924375	0.054154	0.000195
C31	C	0.973581	-0.092531	0.125513
C32	C	0.895942	0.000948	0.125451
H33	H	0.950641	-0.135566	0.226786
H34	H	0.950585	-0.135698	0.024399
H35	H	1.077074	-0.075497	0.125439
H36	H	0.792428	-0.016000	0.125576
H37	H	0.919044	0.044088	0.226556
H38	H	1.426481	0.191531	0.406208
O39	O	1.323549	-0.369993	-0.000258
C40	C	1.127168	-0.382403	-0.125459
C41	C	1.258165	-0.339436	-0.125374
H42	H	1.074258	-0.357699	-0.226589
H43	H	1.135923	-0.463439	-0.125558
H44	H	1.074310	-0.357827	-0.024220
H45	H	1.311095	-0.363939	-0.226596
H46	H	1.249321	-0.258405	-0.125199
O47	O	1.638393	0.016183	0.657609
C48	C	1.692526	-0.148329	0.704536
C49	C	1.607332	-0.077845	0.620716
H50	H	1.667427	-0.224367	0.674762
H51	H	1.794009	-0.135593	0.674646
H52	H	1.679157	-0.137201	0.826348
H53	H	1.620592	-0.088932	0.498885
H54	H	1.505881	-0.090600	0.650727
H55	H	1.074234	0.070786	-0.000032
H56	H	1.636814	-0.357284	-0.000102
H57	H	1.426508	0.191538	0.593836
O58	O	1.114876	0.307836	-0.000078
C59	C	1.311308	0.388164	0.000022
C60	C	1.245122	0.291868	0.000059
H61	H	1.416621	0.375287	0.000164
H62	H	1.283237	0.430263	-0.101192
H63	H	1.283048	0.430239	0.101182
H64	H	1.273347	0.249715	-0.101032
H65	H	1.273194	0.249841	0.101340
H66	H	1.626251	0.026381	0.354170
