data_functionalizedCrystal
_audit_creation_method	'MofGen! by Chris Wilmer'
_symmetry_space_group_name_H-M	'P1'
_symmetry_Int_Tables_number	1
_symmetry_cell_setting	triclinic
loop_
_symmetry_equiv_pos_as_xyz
  x,y,z
_cell_length_a	20.875641
_cell_length_b	19.851628
_cell_length_c	20.875625
_cell_angle_alpha	92.974974
_cell_angle_beta	59.251205
_cell_angle_gamma	62.438296
loop_
_atom_site_label
_atom_site_type_symbol
_atom_site_fract_x
_atom_site_fract_y
_atom_site_fract_z
Zr1	Zr	0.702037	0.670048	-0.109858
O2	O	0.835869	0.561787	-0.217203
O3	O	0.568214	0.699844	-0.073546
O4	O	0.702035	0.697439	-0.212277
O5	O	0.702045	0.569948	0.027089
O6	O	0.702023	0.808301	-0.212264
O7	O	0.702048	0.564193	-0.078472
O8	O	0.462641	0.812604	0.035901
O9	O	0.941428	0.565645	-0.221076
O10	O	0.623244	0.799385	-0.062163
O11	O	0.623251	0.720945	0.016607
O12	O	0.780809	0.718112	-0.146732
O13	O	0.780816	0.639672	-0.067962
Zr14	Zr	0.702013	0.856039	0.058522
Zr15	Zr	0.702017	0.846860	-0.109836
Zr16	Zr	0.702032	0.679227	0.058500
Zr17	Zr	0.870390	0.676201	-0.116033
Zr18	Zr	0.533660	0.849887	0.064698
O19	O	0.835836	0.826243	0.022210
O20	O	0.835841	0.813191	-0.217173
O21	O	0.835864	0.574839	0.022180
O22	O	0.568180	0.964300	0.165867
O23	O	0.568186	0.951249	-0.073516
O24	O	0.568208	0.712896	0.165837
O25	O	0.702004	0.956139	-0.078425
O26	O	0.702014	0.828649	0.160941
O27	O	0.702026	0.717787	0.160928
O28	O	0.702001	0.961895	0.027136
O29	O	0.941412	0.706187	-0.221059
O30	O	0.462637	0.819901	0.169723
O31	O	0.462622	0.960443	0.169740
O32	O	0.462625	0.953146	0.035917
O33	O	0.941424	0.572941	-0.087253
O34	O	0.941409	0.713483	-0.087237
O35	O	0.623240	0.807975	0.095396
O36	O	0.623233	0.886415	0.016626
O37	O	0.780798	0.805143	-0.067942
O38	O	0.780805	0.726703	0.010827
C39	C	0.491440	0.755348	-0.017943
C40	C	0.419970	0.752736	-0.015321
C41	C	0.386389	0.792451	-0.055206
C42	C	0.319231	0.789999	-0.052735
C43	C	0.285658	0.747827	-0.010383
C44	C	0.319242	0.708110	0.029507
C45	C	0.386395	0.710568	0.027040
C46	C	0.084816	0.736092	0.001408
C47	C	0.017660	0.733636	0.003870
C48	C	0.017652	0.815527	-0.078371
C49	C	0.084810	0.817976	-0.080838
C50	C	0.118384	0.778263	-0.040945
N51	N	0.217013	0.745318	-0.007858
N52	N	0.187024	0.780778	-0.043465
C53	C	0.702049	0.541879	-0.025694
C54	C	0.702058	0.466817	-0.025703
C55	C	0.787949	0.241160	-0.071787
C56	C	0.745006	0.215532	-0.101339
C57	C	0.702034	0.329411	-0.025680
C58	C	0.744983	0.221298	0.003857
C59	C	0.702018	0.196679	-0.025658
C60	C	0.659091	0.304769	-0.055275
C61	C	0.659080	0.310535	0.049961
C62	C	0.616075	0.284959	0.020430
C63	C	0.702046	0.405873	-0.025695
C64	C	0.701999	0.120222	-0.025645
C65	C	0.912609	0.770740	-0.033393
C66	C	0.984079	0.773352	-0.036015
C67	C	0.702030	0.751562	-0.236258
C68	C	0.702031	0.747665	-0.307730
C69	C	0.702000	0.984209	-0.025641
C70	C	0.701992	1.059270	-0.025632
C71	C	0.702026	0.806909	-0.341301
C72	C	0.702020	0.803249	-0.408453
C73	C	0.702025	0.740342	-0.442036
C74	C	0.702028	0.681095	-0.408459
C75	C	0.702027	0.684759	-0.341305
C76	C	0.702020	0.722839	-0.642875
C77	C	0.702023	0.719179	-0.710035
C78	C	0.702014	0.841334	-0.710023
C79	C	0.702019	0.844989	-0.642871
C80	C	0.702017	0.785745	-0.609297
N81	N	0.702022	0.736598	-0.510677
N82	N	0.702014	0.789493	-0.540654
C83	C	0.702020	0.774526	0.184922
C84	C	0.702018	0.778422	0.256395
C85	C	0.491416	0.976513	-0.017916
C86	C	0.419937	1.048962	-0.015285
C87	C	0.491435	0.766830	0.192647
C88	C	0.419963	0.768115	0.266741
C89	C	0.491411	0.987995	0.192674
C90	C	0.419930	1.064341	0.266777
C91	C	0.912639	0.538093	-0.244010
C92	C	0.984119	0.461746	-0.318113
C93	C	0.912634	0.549575	-0.033420
C94	C	0.984112	0.477125	-0.036050
C95	C	0.912614	0.759258	-0.243983
C96	C	0.984086	0.757973	-0.318077
C97	C	0.386376	1.037556	-0.055184
C98	C	0.319223	1.105623	-0.052728
C99	C	0.285628	1.185095	-0.010369
C100	C	0.319196	1.196500	0.029531
C101	C	0.386352	1.128434	0.027070
C102	C	0.386393	0.814147	0.342671
C103	C	0.319247	0.815352	0.412297
C104	C	0.285668	0.770528	0.405991
C105	C	0.319244	0.724490	0.330053
C106	C	0.386394	0.723281	0.260429
C107	C	0.386358	1.141146	0.260460
C108	C	0.319204	1.212888	0.330081
C109	C	0.285619	1.207823	0.406018
C110	C	0.319197	1.131010	0.412334
C111	C	0.386354	1.059270	0.342713
C112	C	1.017699	0.384941	-0.311796
C113	C	1.084874	0.313200	-0.381418
C114	C	1.118463	0.318265	-0.457356
C115	C	1.084881	0.395078	-0.463671
C116	C	1.017711	0.466818	-0.394050
C117	C	1.017681	0.488531	0.003841
C118	C	1.084852	0.420464	0.001366
C119	C	1.118449	0.340992	-0.040996
C120	C	1.084878	0.329587	-0.080893
C121	C	1.017712	0.397653	-0.078422
C122	C	1.017644	0.802806	-0.311746
C123	C	1.084791	0.801614	-0.381358
C124	C	1.118383	0.755585	-0.457302
C125	C	1.084818	0.710751	-0.463632
C126	C	1.017668	0.711947	-0.394020
H127	H	-0.009691	0.847860	-0.110849
H128	H	0.291917	0.852845	0.474121
H129	H	0.413717	0.685799	0.198607
O130	O	0.283026	1.093310	-0.095765
H131	H	0.208942	1.122940	-0.051534
H132	H	0.413728	0.972851	-0.089688
H133	H	0.622800	0.351431	0.113907
H134	H	0.990352	0.675436	-0.399187
O135	O	0.213192	1.258501	-0.007719
H136	H	0.238961	1.295279	-0.034401
O137	O	0.422587	1.146619	0.178560
H138	H	0.387961	1.212086	0.185876
H139	H	0.230990	0.771520	0.462690
H140	H	0.990354	0.380801	-0.249970
O141	O	0.422599	0.837938	-0.100885
H142	H	0.387956	0.865149	-0.128198
O143	O	0.121014	0.863466	-0.126517
H144	H	0.173357	0.858495	-0.121538
H145	H	0.413727	0.850649	0.347821
O146	O	0.884173	0.217612	-0.123497
H147	H	0.883334	0.273976	-0.122597
H148	H	0.230934	1.266245	0.462701
H149	H	0.291871	1.275426	0.324925
H150	H	0.990371	0.529354	-0.399203
H151	H	0.291834	1.261215	0.064019
H152	H	0.702014	0.889569	-0.737364
H153	H	0.291842	1.126898	0.474171
H154	H	0.291893	0.687996	0.324931
H155	H	1.112174	0.429766	0.033858
H156	H	1.112206	0.250663	-0.376260
H157	H	0.413738	0.678225	0.059517
O158	O	0.702031	0.912832	-0.606663
H159	H	0.702049	0.905418	-0.554335
H160	H	-0.009671	0.699290	0.038358
O161	O	0.793093	0.161358	-0.186057
H162	H	0.851617	0.100424	-0.202651
H163	H	0.413680	0.996734	0.347868
H164	H	1.173156	0.259843	-0.514039
O165	O	1.121106	0.400537	-0.545577
H166	H	1.173444	0.337744	-0.592920
O167	O	1.190881	0.267591	-0.043637
H168	H	1.252093	0.229240	-0.107115
O169	O	0.981464	0.574244	0.049520
H170	H	1.016111	0.570726	0.076828
O171	O	0.422532	1.140748	0.070121
H172	H	0.474876	1.080072	0.061298
H173	H	1.112243	0.264872	-0.115383
O174	O	0.981499	0.385347	-0.121441
H175	H	1.016144	0.318648	-0.151303
H176	H	0.622807	0.340700	-0.080320
O177	O	0.981410	0.852464	-0.229839
H178	H	1.016025	0.883445	-0.237144
H179	H	1.112113	0.838123	-0.376189
H180	H	1.173061	0.754618	-0.513978
O181	O	1.121037	0.661104	-0.545537
H182	H	1.195120	0.614299	-0.580822
O183	O	0.283024	0.832828	-0.095765
H184	H	0.252434	0.899381	-0.070883
O185	O	0.121030	0.693251	0.044427
H186	H	0.151639	0.626696	0.019521
O187	O	0.283041	0.662618	0.075184
H188	H	0.230711	0.667572	0.070191
H189	H	0.543371	0.302889	0.059424
H190	H	0.702028	0.858131	-0.313965
O191	O	0.793092	0.173559	0.036941
H192	H	0.864394	0.154743	-0.001446
H193	H	0.702028	0.667948	-0.737376
O194	O	0.702039	0.867134	-0.444676
H195	H	0.702055	0.911482	-0.410053
H196	H	0.702021	0.674599	-0.615546
H197	H	0.702026	0.629877	-0.435804
H198	H	0.702030	0.636517	-0.313972
