data_functionalizedCrystal
_audit_creation_method	'MofGen! by Chris Wilmer'
_symmetry_space_group_name_H-M	'P1'
_symmetry_Int_Tables_number	1
_symmetry_cell_setting	triclinic
loop_
_symmetry_equiv_pos_as_xyz
  x,y,z
_cell_length_a	15.944551
_cell_length_b	17.038272
_cell_length_c	14.421503
_cell_angle_alpha	90.004327
_cell_angle_beta	89.996859
_cell_angle_gamma	87.305147
loop_
_atom_site_label
_atom_site_type_symbol
_atom_site_fract_x
_atom_site_fract_y
_atom_site_fract_z
O1	O	1.121728	0.100827	-0.077015
O2	O	1.371728	0.350827	0.172985
O3	O	1.621728	0.600827	0.422985
O4	O	1.871728	0.850827	0.672985
O5	O	0.878066	0.113259	-0.077039
O6	O	1.128066	0.363259	0.172961
O7	O	1.378066	0.613259	0.422961
O8	O	1.628066	0.863259	0.672961
O9	O	0.998449	-0.006773	-0.077020
O10	O	1.248449	0.243227	0.172980
O11	O	1.498449	0.493227	0.422980
O12	O	1.748449	0.743227	0.672980
O13	O	1.001345	0.220859	-0.077034
O14	O	1.251345	0.470859	0.172966
O15	O	1.501345	0.720859	0.422966
O16	O	1.751345	0.970859	0.672966
O17	O	0.998429	-0.006755	0.077204
O18	O	1.248429	0.243245	0.327204
O19	O	1.498429	0.493245	0.577204
O20	O	1.748429	0.743245	0.827204
O21	O	0.878046	0.113277	0.077185
O22	O	1.128046	0.363277	0.327185
O23	O	1.378046	0.613277	0.577185
O24	O	1.628046	0.863277	0.827185
O25	O	1.121708	0.100845	0.077208
O26	O	1.371708	0.350845	0.327208
O27	O	1.621708	0.600845	0.577208
O28	O	1.871708	0.850845	0.827208
Cu29	Cu	0.999875	0.107062	0.091278
Cu30	Cu	1.249875	0.357062	0.341278
Cu31	Cu	1.499875	0.607062	0.591278
Cu32	Cu	1.749875	0.857062	0.841278
Cu33	Cu	0.999899	0.107041	-0.091109
Cu34	Cu	1.249899	0.357041	0.158891
Cu35	Cu	1.499899	0.607041	0.408891
Cu36	Cu	1.749899	0.857041	0.658891
O37	O	1.001325	0.220877	0.077189
O38	O	1.251325	0.470877	0.327189
O39	O	1.501325	0.720877	0.577189
O40	O	1.751325	0.970877	0.827189
C41	C	0.846725	0.112752	0.000070
C42	C	1.096725	0.362752	0.250070
C43	C	1.346725	0.612752	0.500070
C44	C	1.596725	0.862752	0.750070
C45	C	0.753369	0.111205	0.000062
C46	C	1.003369	0.361205	0.250062
C47	C	1.253369	0.611205	0.500062
C48	C	1.503369	0.861205	0.750062
C49	C	0.532936	0.033105	0.000085
C50	C	0.782936	0.283105	0.250085
C51	C	1.032936	0.533105	0.500085
C52	C	1.282936	0.783105	0.750085
C53	C	0.474515	0.069363	-0.075958
C54	C	0.724515	0.319363	0.174042
C55	C	0.974515	0.569363	0.424042
C56	C	1.224515	0.819363	0.674042
C57	C	0.582443	0.108405	0.000073
C58	C	0.832443	0.358405	0.250073
C59	C	1.082443	0.608405	0.500073
C60	C	1.332443	0.858405	0.750073
C61	C	0.474519	0.069398	0.076094
C62	C	0.724519	0.319398	0.326094
C63	C	0.974519	0.569398	0.576094
C64	C	1.224519	0.819398	0.826094
C65	C	0.417337	0.105696	0.000088
C66	C	0.667337	0.355696	0.250088
C67	C	0.917337	0.605696	0.500088
C68	C	1.167337	0.855696	0.750088
C69	C	0.525252	0.144684	-0.076033
C70	C	0.775252	0.394684	0.173967
C71	C	1.025252	0.644684	0.423967
C72	C	1.275252	0.894684	0.673967
C73	C	0.525261	0.144709	0.076088
C74	C	0.775261	0.394709	0.326088
C75	C	1.025261	0.644709	0.576088
C76	C	1.275261	0.894709	0.826088
C77	C	0.466862	0.181022	0.000027
C78	C	0.716862	0.431022	0.250027
C79	C	0.966862	0.681022	0.500027
C80	C	1.216862	0.931022	0.750027
C81	C	0.677557	0.109964	0.000063
C82	C	0.927557	0.359964	0.250063
C83	C	1.177557	0.609964	0.500063
C84	C	1.427557	0.859964	0.750063
C85	C	0.322225	0.104143	0.000090
C86	C	0.572225	0.354143	0.250090
C87	C	0.822225	0.604143	0.500090
C88	C	1.072225	0.854143	0.750090
C89	C	0.995805	-0.035893	0.000092
C90	C	1.245805	0.214107	0.250092
C91	C	1.495805	0.464107	0.500092
C92	C	1.745805	0.714107	0.750092
C93	C	0.987945	-0.122688	0.000091
C94	C	1.237945	0.127312	0.250091
C95	C	1.487945	0.377312	0.500091
C96	C	1.737945	0.627312	0.750091
C97	C	1.060103	-0.172781	0.000098
C98	C	1.310103	0.077219	0.250098
C99	C	1.560103	0.327219	0.500098
C100	C	1.810103	0.577219	0.750098
C101	C	1.052713	-0.254334	0.000089
C102	C	1.302713	-0.004334	0.250089
C103	C	1.552713	0.245666	0.500089
C104	C	1.802713	0.495666	0.750089
C105	C	0.973165	-0.285792	0.000078
C106	C	1.223165	-0.035792	0.250078
C107	C	1.473165	0.214208	0.500078
C108	C	1.723165	0.464208	0.750078
C109	C	0.901002	-0.235693	0.000068
C110	C	1.151002	0.014307	0.250068
C111	C	1.401002	0.264307	0.500068
C112	C	1.651002	0.514307	0.750068
C113	C	0.908393	-0.154142	0.000071
C114	C	1.158393	0.095858	0.250071
C115	C	1.408393	0.345858	0.500071
C116	C	1.658393	0.595858	0.750071
C117	C	0.947056	-0.531558	0.000063
C118	C	1.197056	-0.281558	0.250063
C119	C	1.447056	-0.031558	0.500063
C120	C	1.697056	0.218442	0.750063
C121	C	0.939671	-0.613115	0.000063
C122	C	1.189671	-0.363115	0.250063
C123	C	1.439671	-0.113115	0.500063
C124	C	1.689671	0.136885	0.750063
C125	C	1.091383	-0.631751	0.000083
C126	C	1.341383	-0.381751	0.250083
C127	C	1.591383	-0.131751	0.500083
C128	C	1.841383	0.118249	0.750083
C129	C	1.098766	-0.550197	0.000091
C130	C	1.348766	-0.300197	0.250091
C131	C	1.598766	-0.050197	0.500091
C132	C	1.848766	0.199803	0.750091
C133	C	1.026603	-0.500105	0.000075
C134	C	1.276603	-0.250105	0.250075
C135	C	1.526603	-0.000105	0.500075
C136	C	1.776603	0.249895	0.750075
C137	C	0.965610	-0.369152	0.000071
C138	C	1.215610	-0.119152	0.250071
C139	C	1.465610	0.130848	0.500071
C140	C	1.715610	0.380848	0.750071
C141	C	1.034159	-0.416747	0.000076
C142	C	1.284159	-0.166747	0.250076
C143	C	1.534159	0.083253	0.500076
C144	C	1.784159	0.333253	0.750076
C145	C	1.153049	0.101352	0.000097
C146	C	1.403049	0.351352	0.250097
C147	C	1.653049	0.601352	0.500097
C148	C	1.903049	0.851352	0.750097
C149	C	1.246405	0.102899	0.000100
C150	C	1.496405	0.352899	0.250100
C151	C	1.746405	0.602899	0.500100
C152	C	1.996405	0.852899	0.750100
C153	C	1.003969	0.249997	0.000076
C154	C	1.253969	0.499997	0.250076
C155	C	1.503969	0.749997	0.500076
C156	C	1.753969	0.999997	0.750076
C157	C	1.011829	0.336792	0.000071
C158	C	1.261829	0.586792	0.250071
C159	C	1.511829	0.836792	0.500071
C160	C	1.761829	1.086792	0.750071
N161	N	0.999865	0.107077	0.219560
N162	N	1.249865	0.357077	0.469560
N163	N	1.499865	0.607077	0.719560
N164	N	1.749865	0.857077	0.969560
N165	N	0.999916	0.107021	-0.219390
N166	N	1.249916	0.357021	0.030610
N167	N	1.499916	0.607021	0.280610
N168	N	1.749916	0.857021	0.530610
C169	C	0.944187	0.162555	0.469205
C170	C	1.194187	0.412555	0.719205
C171	C	1.444187	0.662555	0.969205
C172	C	1.694187	0.912555	1.219205
C173	C	1.021171	0.177734	0.531013
C174	C	1.271171	0.427734	0.781013
C175	C	1.521171	0.677734	1.031013
C176	C	1.771171	0.927734	1.281013
C177	C	0.999884	0.107058	0.408721
C178	C	1.249884	0.357058	0.658721
C179	C	1.499884	0.607058	0.908721
C180	C	1.749884	0.857058	1.158721
C181	C	0.922921	0.091897	0.531006
C182	C	1.172921	0.341897	0.781006
C183	C	1.422921	0.591897	1.031006
C184	C	1.672921	0.841897	1.281006
C185	C	0.999895	0.107042	0.591442
C186	C	1.249895	0.357042	0.841442
C187	C	1.499895	0.607042	1.091442
C188	C	1.749895	0.857042	1.341442
C189	C	1.076908	0.122272	0.469169
C190	C	1.326908	0.372272	0.719169
C191	C	1.576908	0.622272	0.969169
C192	C	1.826908	0.872272	1.219169
C193	C	0.978606	0.036405	0.469156
C194	C	1.228606	0.286405	0.719156
C195	C	1.478606	0.536405	0.969156
C196	C	1.728606	0.786405	1.219156
C197	C	1.055642	0.051554	0.530937
C198	C	1.305642	0.301554	0.780937
C199	C	1.555642	0.551554	1.030937
C200	C	1.805642	0.801554	1.280937
C201	C	0.999876	0.107070	0.303460
C202	C	1.249876	0.357070	0.553460
C203	C	1.499876	0.607070	0.803460
C204	C	1.749876	0.857070	1.053460
C205	C	0.999912	0.107030	0.696701
C206	C	1.249912	0.357030	0.946701
C207	C	1.499912	0.607030	1.196701
C208	C	1.749912	0.857030	1.446701
H209	H	0.438170	0.243580	-0.000020
H210	H	0.688170	0.493580	0.249980
H211	H	0.938170	0.743580	0.499980
H212	H	1.188170	0.993580	0.749980
F213	F	0.554536	0.186314	0.160117
F214	F	0.804536	0.436314	0.410117
F215	F	1.054536	0.686314	0.660117
F216	F	1.304536	0.936314	0.910117
H217	H	1.039179	0.237476	0.558183
H218	H	1.289179	0.487476	0.808183
H219	H	1.539179	0.737476	1.058183
H220	H	1.789179	0.987476	1.308183
H221	H	0.452149	0.037543	0.140380
H222	H	0.702149	0.287543	0.390380
H223	H	0.952149	0.537543	0.640380
H224	H	1.202149	0.787543	0.890380
H225	H	1.102803	0.004613	0.557872
H226	H	1.352803	0.254613	0.807872
H227	H	1.602803	0.504613	1.057872
H228	H	1.852803	0.754613	1.307872
F229	F	0.831593	-0.100829	0.000059
F230	F	1.081593	0.149171	0.250059
F231	F	1.331593	0.399171	0.500059
F232	F	1.581593	0.649171	0.750059
H233	H	1.124879	-0.147175	0.000113
H234	H	1.374879	0.102825	0.250113
H235	H	1.624879	0.352825	0.500113
H236	H	1.874879	0.602825	0.750113
H237	H	0.960576	-0.023318	0.441965
H238	H	1.210576	0.226682	0.691965
H239	H	1.460576	0.476682	0.941965
H240	H	1.710576	0.726682	1.191965
H241	H	1.163543	-0.524590	0.000100
H242	H	1.413543	-0.274590	0.250100
H243	H	1.663543	-0.024590	0.500100
H244	H	1.913543	0.225410	0.750100
F245	F	0.554355	0.186272	-0.160154
F246	F	0.804355	0.436272	0.089846
F247	F	1.054355	0.686272	0.339846
F248	F	1.304355	0.936272	0.589846
H249	H	0.897141	0.209524	0.442099
H250	H	1.147141	0.459524	0.692099
H251	H	1.397141	0.709524	0.942099
H252	H	1.647141	0.959524	1.192099
F253	F	0.855002	-0.646593	0.000056
F254	F	1.105002	-0.396593	0.250056
F255	F	1.355002	-0.146593	0.500056
F256	F	1.605002	0.103407	0.750056
H257	H	0.857830	0.079082	0.558171
H258	H	1.107830	0.329082	0.808171
H259	H	1.357830	0.579082	1.058171
H260	H	1.607830	0.829082	1.308171
F261	F	1.168178	-0.685067	0.000098
F262	F	1.418178	-0.435067	0.250098
F263	F	1.668178	-0.185067	0.500098
F264	F	1.918178	0.064933	0.750098
F265	F	0.570638	-0.048591	-0.000006
F266	F	0.820638	0.201409	0.249994
F267	F	1.070638	0.451409	0.499994
F268	F	1.320638	0.701409	0.749994
H269	H	1.111472	-0.295117	0.000097
H270	H	1.361472	-0.045117	0.250097
H271	H	1.611472	0.204883	0.500097
H272	H	1.861472	0.454883	0.750097
F273	F	0.870253	-0.478256	0.000044
F274	F	1.120253	-0.228256	0.250044
F275	F	1.370253	0.021744	0.500044
F276	F	1.620253	0.271744	0.750044
H277	H	1.142019	0.135160	0.442121
H278	H	1.392019	0.385160	0.692121
H279	H	1.642019	0.635160	0.942121
H280	H	1.892019	0.885160	1.192121
F281	F	0.445270	0.027727	-0.159985
F282	F	0.695270	0.277727	0.090015
F283	F	0.945270	0.527727	0.340015
F284	F	1.195270	0.777727	0.590015
F285	F	0.816341	-0.269175	0.000046
F286	F	1.066341	-0.019175	0.250046
F287	F	1.316341	0.230825	0.500046
F288	F	1.566341	0.480825	0.750046
H289	H	1.098927	-0.391130	0.000064
H290	H	1.348927	-0.141130	0.250064
H291	H	1.598927	0.108870	0.500064
H292	H	1.848927	0.358870	0.750064
H293	H	0.900842	-0.394774	0.000065
H294	H	1.150842	-0.144774	0.250065
H295	H	1.400842	0.105226	0.500065
H296	H	1.650842	0.355226	0.750065
