data_functionalizedCrystal
_audit_creation_method	'MofGen! by Chris Wilmer'
_symmetry_space_group_name_H-M	'P1'
_symmetry_Int_Tables_number	1
_symmetry_cell_setting	triclinic
loop_
_symmetry_equiv_pos_as_xyz
  x,y,z
_cell_length_a	10.654541
_cell_length_b	15.995300
_cell_length_c	9.130307
_cell_angle_alpha	90.001254
_cell_angle_beta	89.999822
_cell_angle_gamma	83.977868
loop_
_atom_site_label
_atom_site_type_symbol
_atom_site_fract_x
_atom_site_fract_y
_atom_site_fract_z
O1	O	1.666271	0.117594	-0.121738
O2	O	1.300642	0.128801	-0.121749
O3	O	1.493484	0.001365	-0.121751
O4	O	1.473429	0.245030	-0.121737
O5	O	1.493478	0.001364	0.121848
O6	O	1.300636	0.128800	0.121849
O7	O	1.666264	0.117593	0.121861
Cu8	Cu	1.483450	0.123196	0.144098
Cu9	Cu	1.483457	0.123198	-0.143986
O10	O	1.473423	0.245029	0.121862
C11	C	1.253852	0.127978	0.000048
C12	C	1.114441	0.125517	0.000043
C13	C	1.492663	-0.029836	0.000044
C14	C	1.490211	-0.122803	0.000029
C15	C	1.084438	0.277901	0.000034
C16	C	1.003944	0.352934	0.000023
C17	C	0.872957	0.350617	0.000021
C18	C	0.822463	0.273259	0.000035
C19	C	0.902958	0.198226	0.000046
C20	C	1.033946	0.200552	0.000043
C21	C	0.932960	0.045844	0.000066
C22	C	1.063948	0.048159	0.000057
C23	C	0.882466	-0.031514	0.000080
C24	C	0.962962	-0.106548	0.000080
C25	C	1.093956	-0.104228	0.000080
C26	C	1.144442	-0.026873	0.000068
C27	C	1.485682	-0.293012	0.000043
C28	C	1.622989	-0.339681	0.000044
C29	C	1.620484	-0.436384	0.000603
C30	C	1.481225	-0.460594	0.000055
C31	C	1.413098	-0.419856	0.138885
C32	C	1.416573	-0.323202	0.138996
C33	C	1.414547	-0.322937	-0.138031
C34	C	1.414559	-0.419881	-0.139850
C35	C	1.478698	-0.555304	0.000067
C36	C	1.488204	-0.198302	0.000041
C37	C	1.713055	0.118416	0.000060
C38	C	1.852465	0.120877	0.000055
C39	C	1.474244	0.276229	0.000064
C40	C	1.476696	0.369196	0.000070
N41	N	1.483454	0.123195	0.346720
N42	N	1.483463	0.123193	-0.346609
C43	C	1.654284	0.010383	0.346709
C44	C	1.739708	-0.046020	0.423370
C45	C	1.739721	-0.046020	0.576704
C46	C	1.654298	0.010387	0.653380
C47	C	1.568874	0.066790	0.576719
C48	C	1.568873	0.066786	0.423382
C49	C	1.398039	0.179596	0.576730
C50	C	1.398031	0.179602	0.423396
C51	C	1.312616	0.236003	0.653406
C52	C	1.227197	0.292411	0.576744
C53	C	1.227189	0.292410	0.423402
C54	C	1.312607	0.236005	0.346735
H55	H	1.191094	0.279796	0.000003
Br56	Br	1.497472	-0.464969	-0.311045
H57	H	0.807417	0.411715	0.000023
H58	H	1.654293	0.010385	0.221857
H59	H	1.809256	-0.091948	0.360928
Br60	Br	1.490992	-0.466664	0.311749
H61	H	1.809275	-0.091952	0.639122
Br62	Br	0.894428	-0.211523	0.000116
Br63	Br	1.322210	-0.023718	0.000054
H64	H	1.157622	0.338337	0.360992
H65	H	1.313033	-0.435815	-0.148654
H66	H	1.312612	0.236002	0.221883
H67	H	1.157646	0.338330	0.639183
Br68	Br	1.072475	0.457915	0.000008
H69	H	1.654303	0.010376	0.778232
H70	H	0.715805	0.271379	0.000051
Br71	Br	1.709312	-0.482290	0.167450
H72	H	1.459752	-0.302173	-0.243291
H73	H	1.465664	-0.304598	0.243171
H74	H	1.674016	-0.464537	-0.098893
H75	H	1.315746	-0.291514	0.144919
H76	H	1.313306	-0.291753	-0.139358
H77	H	0.775809	-0.033395	0.000086
Br78	Br	1.203189	-0.206064	0.000112
H79	H	1.312625	0.235996	0.778258
H80	H	1.677383	-0.319698	0.099381
H81	H	1.310773	-0.434549	0.143655
Br82	Br	1.714970	-0.308338	-0.165872
