data_functionalizedCrystal
_audit_creation_method	'MofGen! by Chris Wilmer'
_symmetry_space_group_name_H-M	'P1'
_symmetry_Int_Tables_number	1
_symmetry_cell_setting	triclinic
loop_
_symmetry_equiv_pos_as_xyz
  x,y,z
_cell_length_a	18.760487
_cell_length_b	14.560438
_cell_length_c	14.560438
_cell_angle_alpha	60.000905
_cell_angle_beta	90.036188
_cell_angle_gamma	60.020077
loop_
_atom_site_label
_atom_site_type_symbol
_atom_site_fract_x
_atom_site_fract_y
_atom_site_fract_z
Zr1	Zr	0.686682	1.005276	-0.119963
O2	O	0.572863	1.196879	-0.266698
O3	O	0.721574	0.813674	-0.074983
O4	O	0.721570	1.005278	-0.266584
O5	O	0.572870	1.005273	0.076043
O6	O	0.838873	1.005278	-0.266491
O7	O	0.572867	1.005275	-0.075097
O8	O	0.838879	0.662533	0.076248
O9	O	0.572863	1.348017	-0.266695
O10	O	0.823996	0.892482	-0.055727
O11	O	0.736457	0.892480	0.056998
O12	O	0.736453	1.118069	-0.168587
O13	O	0.648913	1.118067	-0.055862
Zr14	Zr	0.873771	1.005271	0.121238
Zr15	Zr	0.873767	1.005275	-0.119815
Zr16	Zr	0.686687	1.005272	0.121089
Zr17	Zr	0.686682	1.246323	-0.119958
Zr18	Zr	0.873771	0.764224	0.121233
O19	O	0.838880	1.196873	0.076258
O20	O	0.838873	1.196879	-0.266487
O21	O	0.572870	1.196873	0.076047
O22	O	0.987591	0.813668	0.267973
O23	O	0.987584	0.813674	-0.074772
O24	O	0.721580	0.813668	0.267762
O25	O	0.987584	1.005274	-0.074769
O26	O	0.838884	1.005269	0.267859
O27	O	0.721581	1.005269	0.267766
O28	O	0.987587	1.005272	0.076372
O29	O	0.721571	1.348017	-0.266577
O30	O	0.838883	0.662530	0.267852
O31	O	0.987590	0.662530	0.267970
O32	O	0.987587	0.662533	0.076366
O33	O	0.572867	1.348014	-0.075091
O34	O	0.721574	1.348013	-0.074973
O35	O	0.824001	0.892478	0.169862
O36	O	0.911541	0.892480	0.057137
O37	O	0.823997	1.118067	-0.055723
O38	O	0.736457	1.118065	0.057002
C39	C	0.780226	0.703760	0.000632
C40	C	0.780226	0.601429	0.000630
C41	C	0.825919	0.553353	-0.058212
C42	C	0.825923	0.457194	-0.058201
C43	C	0.734533	0.457197	0.059494
C44	C	0.734535	0.553348	0.059489
C45	C	0.546212	1.005274	0.000452
C46	C	0.466790	1.005274	0.000389
C47	C	0.085276	1.123032	-0.058078
C48	C	0.176678	0.887515	0.059749
C49	C	0.251300	0.887513	0.059652
C50	C	0.242913	1.005273	0.000688
C51	C	0.159904	1.123034	-0.058180
C52	C	0.334314	0.769754	0.118510
C53	C	0.408942	0.769747	0.118414
C54	C	0.400556	0.887508	0.059456
C55	C	0.317541	1.005274	0.000587
C56	C	0.309154	1.123034	-0.058378
C57	C	0.226139	1.240801	-0.117241
C58	C	0.151518	1.240795	-0.117138
C59	C	0.475177	0.887515	0.059353
C60	C	0.383781	1.123035	-0.058479
C61	C	1.014241	1.005273	0.000823
C62	C	1.093663	1.005273	0.000886
C63	C	0.780221	1.005279	-0.300882
C64	C	0.780219	1.005280	-0.403215
C65	C	0.780227	1.306787	0.000643
C66	C	0.780227	1.409118	0.000645
C67	C	0.734523	1.123032	-0.510203
C68	C	0.734533	1.123026	-0.606352
C69	C	0.825936	0.887506	-0.488511
C70	C	0.825931	0.887513	-0.392365
C71	C	0.780233	1.005268	0.302157
C72	C	0.780235	1.005267	0.404490
C73	C	1.014241	0.703759	0.000817
C74	C	1.093663	0.601428	0.000878
C75	C	0.780232	0.703755	0.302151
C76	C	0.780234	0.601422	0.404482
C77	C	1.014247	0.703754	0.302337
C78	C	1.093671	0.601421	0.404731
C79	C	0.546207	1.306793	-0.301062
C80	C	0.466783	1.409126	-0.403456
C81	C	0.546213	1.306788	0.000458
C82	C	0.466791	1.409119	0.000397
C83	C	0.780221	1.306792	-0.300876
C84	C	0.780219	1.409125	-0.403207
C85	C	1.085263	0.553373	-0.058017
C86	C	1.159882	0.457236	-0.057982
C87	C	1.242899	0.409148	0.000955
C88	C	1.251297	0.457212	0.059852
C89	C	1.176679	0.553355	0.059810
C90	C	1.176672	0.553366	0.393975
C91	C	1.251306	0.457226	0.490175
C92	C	1.242938	0.409138	0.597131
C93	C	1.159928	0.457203	0.607885
C94	C	1.085296	0.553347	0.511685
C95	C	0.383782	1.457193	-0.392700
C96	C	0.309147	1.553362	-0.488901
C97	C	0.317515	1.601455	-0.595856
C98	C	0.400525	1.553384	-0.606610
C99	C	0.475158	1.457223	-0.510411
C100	C	0.475190	1.457184	0.059282
C101	C	0.400572	1.553348	0.059220
C102	C	0.317555	1.601439	0.000280
C103	C	0.309157	1.553370	-0.058613
C104	C	0.383774	1.457214	-0.058557
C105	C	0.825931	0.553343	0.511471
C106	C	0.825923	0.457199	0.607618
C107	C	0.734519	0.457219	0.489773
C108	C	0.734523	0.553367	0.393629
H109	H	0.697326	0.592490	0.107410
H110	H	0.697324	1.218912	-0.693463
H111	H	0.256803	1.679735	0.000244
H112	H	0.376923	1.418083	-0.106506
Cl113	Cl	0.677065	1.271082	-0.523846
H114	H	0.697332	0.418040	0.107414
Cl115	Cl	0.883380	0.739469	-0.257855
Cl116	Cl	1.336696	0.288278	0.001000
Cl117	Cl	1.355668	0.396739	0.133946
H118	H	0.183500	0.791641	0.107751
Cl119	Cl	1.187215	0.613808	0.259527
H120	H	0.219320	1.336681	-0.165255
H121	H	0.017684	1.218916	-0.106000
Cl122	Cl	0.204785	1.613836	-0.132699
Cl123	Cl	0.047158	1.388831	-0.191133
Cl124	Cl	0.980908	0.613812	-0.132125
Cl125	Cl	1.149423	0.396733	0.742353
H126	H	0.863152	0.791624	-0.479690
H127	H	0.376941	1.218931	-0.106483
Cl128	Cl	1.187254	0.613746	0.133867
Cl129	Cl	0.344851	0.621724	0.192627
Cl130	Cl	0.411149	1.613751	0.133268
H131	H	0.476529	0.673854	0.166343
Cl132	Cl	1.336772	0.288267	0.718059
H133	H	0.241564	1.592485	-0.480123
Cl134	Cl	0.677065	0.613821	0.259117
Cl135	Cl	1.149304	0.396826	-0.132024
Cl136	Cl	0.579546	1.396753	0.133382
H137	H	1.017715	0.592462	0.520459
Cl138	Cl	0.883394	0.613755	0.525119
H139	H	0.863133	0.418059	0.694731
Cl140	Cl	0.883364	0.613788	-0.132200
H141	H	1.318890	0.418101	0.481399
H142	H	0.376951	1.418041	-0.305620
H143	H	0.542764	0.791630	0.107289
H144	H	0.697304	0.418079	0.480950
H145	H	0.256738	1.679755	-0.674179
Cl146	Cl	0.579499	1.396798	-0.523953
Cl147	Cl	0.883365	0.396765	-0.132181
Cl148	Cl	0.411031	1.613853	-0.741078
