data_functionalizedCrystal
_audit_creation_method	'MofGen! by Chris Wilmer'
_symmetry_space_group_name_H-M	'P1'
_symmetry_Int_Tables_number	1
_symmetry_cell_setting	triclinic
loop_
_symmetry_equiv_pos_as_xyz
  x,y,z
_cell_length_a	9.798715
_cell_length_b	10.723024
_cell_length_c	10.723024
_cell_angle_alpha	95.532131
_cell_angle_beta	89.998022
_cell_angle_gamma	90.003391
loop_
_atom_site_label
_atom_site_type_symbol
_atom_site_fract_x
_atom_site_fract_y
_atom_site_fract_z
O1	O	-0.113478	-1.657187	0.175024
O2	O	0.386522	-1.157187	0.675024
O3	O	-0.113483	-1.294035	0.191778
O4	O	0.386517	-0.794035	0.691778
O5	O	-0.113475	-1.483988	0.001825
O6	O	0.386525	-0.983988	0.501825
O7	O	-0.113486	-1.467234	0.364977
O8	O	0.386514	-0.967234	0.864977
O9	O	0.113507	-1.483974	0.001824
O10	O	0.613507	-0.983974	0.501824
O11	O	0.113499	-1.294021	0.191777
O12	O	0.613499	-0.794021	0.691777
O13	O	0.113504	-1.657173	0.175024
O14	O	0.613504	-1.157173	0.675024
Zn15	Zn	0.149540	-1.475595	0.183401
Zn16	Zn	0.649540	-0.975595	0.683401
Zn17	Zn	-0.149519	-1.475613	0.183401
Zn18	Zn	0.350481	-0.975613	0.683401
O19	O	0.113496	-1.467220	0.364977
O20	O	0.613496	-0.967220	0.864977
C21	C	0.000008	-1.247528	0.190558
C22	C	0.500008	-0.747528	0.690558
C23	C	0.000006	-1.108974	0.186911
C24	C	0.500006	-0.608974	0.686911
N25	N	0.353640	-1.475591	0.183399
N26	N	0.853640	-0.975591	0.683399
N27	N	-0.353619	-1.475627	0.183393
N28	N	0.146381	-0.975627	0.683393
C29	C	0.000014	-1.482762	-0.044675
C30	C	0.500014	-0.982762	0.455325
C31	C	0.000009	-1.479114	-0.183229
C32	C	0.500009	-0.979114	0.316771
C33	C	0.421420	-1.555347	0.103292
C34	C	0.921420	-1.055347	0.603292
C35	C	0.578582	-1.555367	0.103288
C36	C	1.078582	-1.055367	0.603288
C37	C	0.000010	-1.703680	0.176243
C38	C	0.500010	-1.203680	0.676243
C39	C	0.000003	-1.842234	0.179891
C40	C	0.500003	-1.342234	0.679891
C41	C	0.000002	-1.033991	0.293198
C42	C	0.500002	-0.533991	0.793198
C43	C	0.000001	-0.890788	0.289431
C44	C	0.500001	-0.390788	0.789431
C45	C	0.000009	-1.585401	-0.258212
C46	C	0.500009	-1.085401	0.241788
C47	C	0.000004	-1.581634	-0.401415
C48	C	0.500004	-1.081634	0.098585
C49	C	0.000004	-1.468447	0.411477
C50	C	0.500004	-0.968447	0.911477
C51	C	-0.000000	-1.472094	0.550031
C52	C	0.500000	-0.972094	1.050031
H53	H	0.363100	-1.623611	0.034707
H54	H	0.863100	-1.123611	0.534707
H55	H	-0.000008	-0.826355	0.380421
H56	H	0.499992	-0.326355	0.880421
H57	H	0.588102	-1.407345	0.251984
H58	H	1.088102	-0.907345	0.751984
H59	H	0.636870	-1.623654	0.034709
H60	H	1.136870	-1.123654	0.534709
H61	H	0.000018	-1.679187	-0.216390
H62	H	0.500018	-1.179187	0.283610
C63	C	0.000002	-1.349160	-0.362948
C64	C	0.500002	-0.849160	0.137052
H65	H	0.000008	-1.279948	-0.411988
H66	H	0.500008	-0.779948	0.088012
H67	H	-0.079148	-1.345845	-0.311580
H68	H	0.420852	-0.845845	0.188420
H69	H	0.079170	-1.345837	-0.311597
H70	H	0.579170	-0.845837	0.188403
H71	H	0.411961	-1.407319	0.251975
H72	H	0.911961	-0.907319	0.751975
H73	H	-0.000026	-1.067152	0.093125
H74	H	0.499974	-0.567152	0.593125
H75	H	0.000007	-1.075814	0.386984
H76	H	0.500007	-0.575814	0.886984
C77	C	0.000000	-0.929255	0.056957
C78	C	0.500000	-0.429255	0.556957
H79	H	-0.000009	-0.880215	-0.012255
H80	H	0.499991	-0.380215	0.487745
H81	H	0.079150	-0.980616	0.053633
H82	H	0.579150	-0.480616	0.553633
H83	H	-0.079167	-0.980613	0.053643
H84	H	0.420833	-0.480613	0.553643
H85	H	0.000009	-1.672624	-0.465848
H86	H	0.500009	-1.172624	0.034152
H87	H	-0.000001	-1.385328	-0.225051
H88	H	0.499999	-0.885328	0.274949
