data_functionalizedCrystal
_audit_creation_method	'MofGen! by Chris Wilmer'
_symmetry_space_group_name_H-M	'P1'
_symmetry_Int_Tables_number	1
_symmetry_cell_setting	triclinic
loop_
_symmetry_equiv_pos_as_xyz
  x,y,z
_cell_length_a	16.992695
_cell_length_b	17.699083
_cell_length_c	16.776229
_cell_angle_alpha	90.001114
_cell_angle_beta	89.993259
_cell_angle_gamma	93.024381
loop_
_atom_site_label
_atom_site_type_symbol
_atom_site_fract_x
_atom_site_fract_y
_atom_site_fract_z
O1	O	0.099146	-1.010251	-0.066177
O2	O	0.112045	-0.790676	-0.066203
O3	O	-0.008546	-0.899583	-0.066184
O4	O	0.219736	-0.901344	-0.066196
O5	O	-0.008553	-0.899568	0.066393
O6	O	0.112037	-0.790660	0.066374
O7	O	0.099138	-1.010235	0.066400
Zn8	Zn	0.105587	-0.900445	0.087436
Zn9	Zn	0.105596	-0.900466	-0.087239
O10	O	0.219729	-0.901328	0.066381
C11	C	0.111579	-0.762442	0.000082
C12	C	0.110192	-0.678338	0.000072
C13	C	-0.037758	-0.897311	0.000104
C14	C	-0.124789	-0.890554	0.000103
C15	C	0.099604	-1.038469	0.000113
C16	C	0.100991	-1.122574	0.000118
C17	C	-0.175154	-0.955751	0.000112
C18	C	-0.256928	-0.949398	0.000104
C19	C	-0.288336	-0.877846	0.000092
C20	C	-0.237965	-0.812643	0.000081
C21	C	-0.156192	-0.818998	0.000084
C22	C	-0.531884	-0.851510	0.000078
C23	C	-0.613663	-0.845160	0.000078
C24	C	-0.632621	-0.981915	0.000099
C25	C	-0.550845	-0.988263	0.000106
C26	C	-0.500481	-0.923061	0.000091
N27	N	-0.371923	-0.871350	0.000086
N28	N	-0.416897	-0.929558	0.000091
C29	C	0.248941	-0.903601	0.000091
C30	C	0.335972	-0.910358	0.000087
N31	N	0.105579	-0.900437	0.206647
C32	C	0.180976	-0.634124	0.000069
C33	C	0.179669	-0.555099	0.000079
C34	C	0.107576	-0.520290	0.000087
C35	C	0.036787	-0.564510	0.000093
C36	C	0.038095	-0.643533	0.000089
C37	C	0.031509	-0.245818	0.000113
C38	C	0.030206	-0.166789	0.000116
C39	C	0.173082	-0.157384	0.000104
C40	C	0.174391	-0.236408	0.000099
C41	C	0.103602	-0.280621	0.000109
C42	C	0.105020	-0.366308	0.000099
C43	C	0.106157	-0.434604	0.000091
N44	N	0.105597	-0.900481	-0.206450
C45	C	0.052204	-0.948678	0.248373
C46	C	0.052203	-0.948682	0.331825
C47	C	0.105582	-0.900448	0.373550
C48	C	0.158961	-0.852202	0.331819
C49	C	0.158957	-0.852194	0.248368
C50	C	0.158976	-0.852230	0.668366
C51	C	0.158977	-0.852243	0.751822
C52	C	0.052222	-0.948718	0.751823
C53	C	0.052219	-0.948710	0.668372
C54	C	0.105594	-0.900461	0.626648
C55	C	0.105593	-0.900456	0.536160
C56	C	0.105588	-0.900456	0.464037
H57	H	-0.297933	-1.002489	0.000112
C58	C	-0.006509	-1.001745	0.377724
H59	H	0.001129	-0.994836	0.433400
H60	H	0.001939	-1.052765	0.364043
H61	H	-0.058826	-0.990358	0.364053
C62	C	-0.688018	-1.053634	0.000107
H63	H	-0.657600	-1.097156	0.000119
H64	H	-0.720306	-1.054004	-0.046126
H65	H	-0.720317	-1.053993	0.046345
H66	H	-0.019545	-0.679531	0.000091
C67	C	0.217692	-0.799181	0.797723
H68	H	0.210053	-0.806104	0.853398
H69	H	0.209239	-0.748159	0.784059
H70	H	0.270011	-0.810560	0.784036
H71	H	-0.490887	-0.798417	0.000066
C72	C	-0.046354	-0.294446	0.000113
H73	H	-0.035255	-0.346495	0.000116
H74	H	-0.075916	-0.283424	-0.046118
H75	H	-0.075924	-0.283428	0.046352
H76	H	-0.525279	-1.046528	0.000115
H77	H	-0.028504	-0.138450	0.000123
H78	H	0.008740	-0.987959	0.214406
C79	C	0.217655	-0.799120	0.377710
H80	H	0.249432	-0.770376	0.340906
H81	H	0.250268	-0.828295	0.410268
H82	H	0.189465	-0.765922	0.410260
C83	C	-0.648211	-0.766450	0.000052
H84	H	-0.606505	-0.728527	0.000034
H85	H	-0.679723	-0.761115	0.046281
H86	H	-0.679710	-0.761147	-0.046189
H87	H	0.202437	-0.812945	0.634401
H88	H	0.008755	-0.987989	0.634402
H89	H	-0.021912	-0.536162	0.000112
H90	H	-0.263544	-0.754384	0.000067
H91	H	0.008759	-0.988002	0.785804
C92	C	0.217673	-0.799132	0.202470
H93	H	0.249470	-0.770412	0.239270
H94	H	0.189510	-0.765923	0.169924
H95	H	0.250276	-0.828329	0.169908
H96	H	0.230722	-0.121377	0.000100
C97	C	-0.100791	-0.747280	0.000077
H98	H	-0.131207	-0.703756	0.000076
H99	H	-0.068492	-0.746923	-0.046155
H100	H	-0.068504	-0.746910	0.046315
H101	H	-0.149588	-1.014017	0.000126
H102	H	0.239682	-0.662460	0.000061
C103	C	0.253690	-0.274698	0.000087
H104	H	0.244331	-0.328093	0.000078
H105	H	0.282829	-0.259817	0.046318
H106	H	0.282829	-0.259812	-0.046153
C107	C	0.257531	-0.506467	0.000072
H108	H	0.300654	-0.538516	0.000057
H109	H	0.259993	-0.475447	0.046307
H110	H	0.259990	-0.475443	-0.046163
