data_functionalizedCrystal
_audit_creation_method	'MofGen! by Chris Wilmer'
_symmetry_space_group_name_H-M	'P1'
_symmetry_Int_Tables_number	1
_symmetry_cell_setting	triclinic
loop_
_symmetry_equiv_pos_as_xyz
  x,y,z
_cell_length_a	11.792241
_cell_length_b	10.654550
_cell_length_c	9.130313
_cell_angle_alpha	90.000110
_cell_angle_beta	89.996046
_cell_angle_gamma	84.339159
loop_
_atom_site_label
_atom_site_type_symbol
_atom_site_fract_x
_atom_site_fract_y
_atom_site_fract_z
O1	O	-1.507300	-0.172130	-0.121653
O2	O	-1.177000	-0.189870	-0.121687
O3	O	-1.349744	0.001761	-0.121664
O4	O	-1.334556	-0.363761	-0.121676
O5	O	-1.349742	0.001756	0.121935
O6	O	-1.176998	-0.189875	0.121912
O7	O	-1.507298	-0.172135	0.121946
Cu8	Cu	-1.342148	-0.181006	0.144171
Cu9	Cu	-1.342150	-0.180999	-0.143912
O10	O	-1.334554	-0.363766	0.121923
C11	C	-1.348628	0.048553	0.000134
C12	C	-1.345291	0.187987	0.000128
C13	C	-1.134705	-0.188758	0.000108
C14	C	-1.008684	-0.185423	0.000095
C15	C	-1.549592	-0.173247	0.000147
C16	C	-1.675614	-0.176582	0.000151
C17	C	-0.777958	-0.179290	0.000138
C18	C	-0.906351	-0.182697	0.000114
C19	C	-1.335670	-0.410558	0.000122
C20	C	-1.339006	-0.549992	0.000118
N21	N	-1.342154	-0.181009	0.346794
C22	C	-1.447000	0.267760	0.000143
C23	C	-1.443858	0.398772	0.000133
C24	C	-1.237290	0.370224	0.000099
C25	C	-1.240433	0.239215	0.000099
C26	C	-1.566261	0.284243	0.000169
C27	C	-1.563120	0.415255	0.000159
N28	N	-1.342152	-0.180986	-0.346535
C29	C	-1.418665	-0.096184	0.423456
C30	C	-1.418662	-0.096169	0.576793
C31	C	-1.265633	-0.265815	0.576792
C32	C	-1.265632	-0.265823	0.423458
C33	C	-1.507018	0.001757	0.423458
C34	C	-1.507015	0.001772	0.576795
H35	H	-1.157611	0.174267	0.000066
H36	H	-1.487639	0.098234	0.381839
H37	H	-1.612910	0.255019	-0.101765
H38	H	-1.589425	-0.028599	0.375907
C39	C	-1.182375	-0.357751	0.659956
C40	C	-1.070688	-0.336524	0.622669
C41	C	-0.993959	-0.421181	0.699262
H42	H	-1.195197	-0.441721	0.634904
H43	H	-1.193254	-0.345588	0.762270
H44	H	-1.059813	-0.348698	0.520377
H45	H	-1.057829	-0.252571	0.647724
H46	H	-1.004838	-0.409018	0.801576
H47	H	-1.006792	-0.505146	0.674204
H48	H	-0.918171	-0.406783	0.673983
C49	C	-1.623418	-0.026406	0.632115
C50	C	-1.706501	0.066086	0.580774
C51	C	-1.813739	0.040165	0.631691
H52	H	-1.623579	-0.026362	0.736151
H53	H	-1.639651	-0.106775	0.597416
H54	H	-1.690272	0.146435	0.615480
H55	H	-1.706376	0.066057	0.476743
H56	H	-1.829973	-0.040205	0.596993
H57	H	-1.813889	0.040208	0.735727
H58	H	-1.870125	0.102909	0.596853
C59	C	-1.470320	0.123435	0.639927
C60	C	-1.445993	0.204013	0.525451
C61	C	-1.412217	0.316109	0.583555
H62	H	-1.404191	0.104999	0.698476
H63	H	-1.530055	0.163266	0.698432
H64	H	-1.386263	0.164189	0.466971
H65	H	-1.512106	0.222484	0.466893
H66	H	-1.471953	0.355940	0.642060
H67	H	-1.346090	0.297660	0.642103
H68	H	-1.395717	0.370799	0.505893
H69	H	-1.151917	0.411951	0.000073
H70	H	-1.604238	0.248721	0.105354
H71	H	-1.599163	0.461002	-0.105017
H72	H	-1.608054	0.457140	0.102107
C73	C	-1.182685	-0.358118	0.340307
C74	C	-1.202064	-0.481670	0.377592
C75	C	-1.125681	-0.566729	0.301010
H76	H	-1.106786	-0.344070	0.365370
H77	H	-1.193642	-0.346066	0.237991
H78	H	-1.191097	-0.493717	0.479885
H79	H	-1.277948	-0.495758	0.352525
H80	H	-1.136639	-0.554678	0.198695
H81	H	-1.049787	-0.552670	0.326080
H82	H	-1.138826	-0.650569	0.326287
