data_functionalizedCrystal
_audit_creation_method	'MofGen! by Chris Wilmer'
_symmetry_space_group_name_H-M	'P1'
_symmetry_Int_Tables_number	1
_symmetry_cell_setting	triclinic
loop_
_symmetry_equiv_pos_as_xyz
  x,y,z
_cell_length_a	19.288864
_cell_length_b	9.065218
_cell_length_c	17.766277
_cell_angle_alpha	89.995554
_cell_angle_beta	89.976791
_cell_angle_gamma	84.076066
loop_
_atom_site_label
_atom_site_type_symbol
_atom_site_fract_x
_atom_site_fract_y
_atom_site_fract_z
O1	O	0.922782	0.184032	-0.062833
O2	O	0.720714	0.208857	-0.062781
O3	O	0.825925	-0.018344	-0.062807
O4	O	0.817571	0.411233	-0.062808
O5	O	0.825906	-0.018356	0.062382
O6	O	0.720695	0.208846	0.062407
O7	O	0.922763	0.184020	0.062355
Cu8	Cu	0.821727	0.196432	0.073812
Cu9	Cu	0.821750	0.196445	-0.074238
O10	O	0.817552	0.411222	0.062381
C11	C	0.694822	0.208053	-0.000180
C12	C	0.617700	0.205655	-0.000161
C13	C	0.825112	-0.073309	-0.000213
C14	C	0.822712	-0.237067	-0.000216
C15	C	0.574039	0.338966	-0.000173
C16	C	0.501574	0.336713	-0.000181
C17	C	0.472774	0.201142	-0.000192
C18	C	0.516445	0.067812	-0.000176
C19	C	0.588908	0.070069	-0.000160
C20	C	0.363691	0.094571	-0.044077
C21	C	0.291229	0.092320	-0.044097
C22	C	0.249274	0.194176	-0.000238
C23	C	0.279789	0.298308	0.043632
C24	C	0.352252	0.300565	0.043648
C25	C	0.394201	0.198680	-0.000209
C26	C	0.127038	0.325054	-0.000258
C27	C	0.054572	0.322796	-0.000262
C28	C	0.069445	0.053891	-0.000264
C29	C	0.141909	0.056153	-0.000253
C30	C	0.170701	0.191739	-0.000253
C31	C	0.948655	0.184825	-0.000247
C32	C	1.025777	0.187223	-0.000272
C33	C	0.818365	0.466186	-0.000214
C34	C	0.820765	0.629945	-0.000216
N35	N	0.821717	0.196421	0.177942
N36	N	0.821766	0.196444	-0.178368
C37	C	0.868320	0.095866	0.217318
C38	C	0.868324	0.095859	0.296120
C39	C	0.821732	0.196433	0.335543
C40	C	0.775120	0.296996	0.296158
C41	C	0.775113	0.296991	0.217358
C42	C	0.813476	0.330849	0.460382
C43	C	0.813489	0.330856	0.539181
C44	C	0.821750	0.196451	0.578589
C45	C	0.830014	0.062032	0.539189
C46	C	0.830007	0.062026	0.460389
C47	C	0.821734	0.196450	0.420989
C48	C	0.868360	0.095879	0.703411
C49	C	0.868359	0.095871	0.782214
C50	C	0.775159	0.297021	0.782251
C51	C	0.775156	0.297017	0.703449
C52	C	0.821761	0.196448	0.664034
H53	H	0.466018	0.445275	-0.000189
N54	N	0.918599	-0.012586	0.338600
H55	H	0.911533	0.002684	0.394500
H56	H	0.909928	-0.117208	0.324842
N57	N	0.385166	0.412861	0.090963
H58	H	0.347598	0.477049	0.118748
H59	H	0.418212	0.359500	0.128430
N60	N	0.408940	-0.015299	-0.091382
H61	H	0.378615	-0.081596	-0.119180
H62	H	0.436023	0.039929	-0.128837
N63	N	0.724843	0.405455	0.174889
H64	H	0.733496	0.510118	0.188593
H65	H	0.731932	0.390067	0.119001
H66	H	0.019024	0.431359	-0.000267
N67	N	0.234549	0.408186	0.090937
H68	H	0.184014	0.390956	0.084275
H69	H	0.247950	0.394787	0.145647
H70	H	0.177459	-0.052404	-0.000247
H71	H	0.737210	0.378905	0.671387
H72	H	0.806764	0.440308	0.571255
H73	H	0.150482	0.435456	-0.000247
N74	N	0.838918	-0.082940	0.417892
H75	H	0.844153	-0.168091	0.454808
H76	H	0.796667	-0.091323	0.385221
H77	H	0.266390	0.007536	-0.079822
N78	N	0.605093	0.485198	-0.000179
H79	H	0.566433	0.569309	-0.000190
H80	H	0.634810	0.492003	0.046235
H81	H	0.836741	-0.047414	0.571274
H82	H	0.045997	-0.056494	-0.000320
H83	H	0.906306	0.013985	0.671318
N84	N	0.485387	-0.078414	-0.000179
H85	H	0.432856	-0.059616	-0.000192
H86	H	0.501326	-0.136735	-0.046583
N87	N	0.636005	-0.073722	-0.000143
H88	H	0.606768	-0.159953	-0.000148
H89	H	0.666419	-0.078643	-0.046546
N90	N	0.918581	-0.012605	0.174806
H91	H	0.948104	-0.076310	0.211713
H92	H	0.891581	-0.077687	0.142132
N93	N	0.918638	-0.012567	0.824688
H94	H	0.948164	-0.076260	0.787758
H95	H	0.949688	0.043790	0.857355
H96	H	0.737220	0.378905	0.814348
N97	N	0.804569	0.475828	0.417885
H98	H	0.846803	0.484342	0.385167
H99	H	0.761570	0.479201	0.385257
N100	N	0.724862	0.405467	0.338673
H101	H	0.731939	0.390215	0.394568
H102	H	0.733537	0.510080	0.324887
