data_functionalizedCrystal
_audit_creation_method	'MofGen! by Chris Wilmer'
_symmetry_space_group_name_H-M	'P1'
_symmetry_Int_Tables_number	1
_symmetry_cell_setting	triclinic
loop_
_symmetry_equiv_pos_as_xyz
  x,y,z
_cell_length_a	13.596369
_cell_length_b	16.992694
_cell_length_c	16.992695
_cell_angle_alpha	90.668223
_cell_angle_beta	89.993811
_cell_angle_gamma	90.000436
loop_
_atom_site_label
_atom_site_type_symbol
_atom_site_fract_x
_atom_site_fract_y
_atom_site_fract_z
O1	O	0.081669	-1.050851	-0.166918
O2	O	0.415002	-0.717518	0.166415
O3	O	0.748336	-0.384185	0.499749
O4	O	0.081698	-0.822451	-0.165087
O5	O	0.415031	-0.489118	0.168247
O6	O	0.748365	-0.155785	0.501580
O7	O	0.081676	-0.935736	-0.051802
O8	O	0.415009	-0.602402	0.281531
O9	O	0.748343	-0.269069	0.614864
O10	O	0.081691	-0.937567	-0.280202
O11	O	0.415025	-0.604234	0.053131
O12	O	0.748358	-0.270900	0.386464
O13	O	-0.081907	-0.935723	-0.051795
O14	O	0.251426	-0.602390	0.281538
O15	O	0.584760	-0.269057	0.614871
O16	O	-0.081885	-0.822439	-0.165080
O17	O	0.251448	-0.489106	0.168254
O18	O	0.584782	-0.155772	0.501587
O19	O	-0.081914	-1.050839	-0.166911
O20	O	0.251419	-0.717506	0.166422
O21	O	0.584753	-0.384172	0.499756
Zn22	Zn	-0.107872	-0.936637	-0.165994
Zn23	Zn	0.225462	-0.603304	0.167339
Zn24	Zn	0.558795	-0.269970	0.500673
Zn25	Zn	0.107656	-0.936653	-0.166003
Zn26	Zn	0.440989	-0.603320	0.167330
Zn27	Zn	0.774322	-0.269987	0.500663
O28	O	-0.081892	-0.937555	-0.280195
O29	O	0.251442	-0.604221	0.053138
O30	O	0.584775	-0.270888	0.386471
C31	C	-0.000090	-0.793085	-0.162727
C32	C	0.333244	-0.459752	0.170606
C33	C	0.666577	-0.126418	0.503939
C34	C	-0.000079	-0.705600	-0.155699
C35	C	0.333254	-0.372267	0.177635
C36	C	0.666588	-0.038934	0.510968
N37	N	-0.254964	-0.936632	-0.165988
N38	N	0.078370	-0.603298	0.167346
N39	N	0.411703	-0.269965	0.500679
C40	C	-0.000115	-0.933374	-0.022439
C41	C	0.333218	-0.600041	0.310895
C42	C	0.666551	-0.266707	0.644228
C43	C	-0.000114	-0.926345	0.065046
C44	C	0.333219	-0.593012	0.398379
C45	C	0.666553	-0.259678	0.731713
C46	C	-0.656254	-0.936652	-0.166004
C47	C	-0.322921	-0.603319	0.167329
C48	C	0.010412	-0.269986	0.500662
C49	C	-0.544603	-0.936644	-0.166002
C50	C	-0.211270	-0.603311	0.167331
C51	C	0.122064	-0.269978	0.500665
C52	C	-0.455613	-0.936642	-0.165997
C53	C	-0.122279	-0.603309	0.167337
C54	C	0.211054	-0.269976	0.500670
C55	C	-0.343954	-0.936634	-0.165993
C56	C	-0.010621	-0.603300	0.167340
C57	C	0.322713	-0.269967	0.500674
N58	N	0.254748	-0.936665	-0.166004
N59	N	0.588081	-0.603331	0.167329
N60	N	0.921414	-0.269998	0.500662
C61	C	-0.000124	-1.080205	-0.169270
C62	C	0.333209	-0.746872	0.164063
C63	C	0.666543	-0.413539	0.497397
C64	C	-0.000128	-1.167690	-0.176299
C65	C	0.333205	-0.834357	0.157034
C66	C	0.666538	-0.501023	0.490368
C67	C	-0.000075	-0.659610	-0.223517
C68	C	0.333258	-0.326276	0.109817
C69	C	0.666592	0.007057	0.443150
C70	C	-0.000089	-0.577409	-0.216908
C71	C	0.333244	-0.244076	0.116426
C72	C	0.666578	0.089258	0.449759
C73	C	-0.000100	-0.541201	-0.142480
C74	C	0.333233	-0.207867	0.190853
C75	C	0.666567	0.125466	0.524187
C76	C	-0.000107	-0.587198	-0.074657
C77	C	0.333227	-0.253864	0.258676
C78	C	0.666560	0.079469	0.592010
C79	C	-0.000100	-0.669397	-0.081267
C80	C	0.333234	-0.336063	0.252067
C81	C	0.666567	-0.002730	0.585400
C82	C	-0.000128	-0.295886	-0.115086
C83	C	0.333205	0.037447	0.218248
C84	C	0.666539	0.370780	0.551581
C85	C	-0.000132	-0.213681	-0.108481
C86	C	0.333201	0.119652	0.224852
C87	C	0.666535	0.452986	0.558186
C88	C	-0.000116	-0.203898	-0.250732
C89	C	0.333217	0.129435	0.082601
C90	C	0.666550	0.462769	0.415934
C91	C	-0.000104	-0.286099	-0.257335
C92	C	0.333230	0.047234	0.075998
C93	C	0.666563	0.380568	0.409331
C94	C	-0.000115	-0.332089	-0.189512
C95	C	0.333218	0.001244	0.143821
C96	C	0.666551	0.334578	0.477154
N97	N	-0.000111	-0.457178	-0.135723
N98	N	0.333222	-0.123845	0.197610
N99	N	0.666556	0.209488	0.530944
N100	N	-0.000111	-0.416110	-0.196270
N101	N	0.333222	-0.082776	0.137063
N102	N	0.666555	0.250557	0.470396
C103	C	-0.000098	-0.939917	-0.309559
C104	C	0.333235	-0.606583	0.023774
C105	C	0.666568	-0.273250	0.357108
C106	C	-0.000093	-0.946945	-0.397044
C107	C	0.333240	-0.613612	-0.063710
C108	C	0.666573	-0.280279	0.269623
C109	C	-0.000124	-0.994163	0.111037
C110	C	0.333210	-0.660830	0.444370
C111	C	0.666543	-0.327496	0.777704
C112	C	-0.000114	-0.987554	0.193238
C113	C	0.333220	-0.654221	0.526571
C114	C	0.666553	-0.320887	0.859904
C115	C	-0.000101	-0.913127	0.229446
C116	C	0.333233	-0.579793	0.562779
C117	C	0.666566	-0.246460	0.896113
C118	C	-0.000088	-0.845303	0.183449
C119	C	0.333245	-0.511970	0.516782
C120	C	0.666578	-0.178637	0.850116
C121	C	-0.000091	-0.851913	0.101250
C122	C	0.333242	-0.518580	0.434583
C123	C	0.666575	-0.185246	0.767916
C124	C	-0.000084	-0.885732	0.474760
C125	C	0.333250	-0.552399	0.808094
C126	C	0.666583	-0.219065	1.141427
C127	C	-0.000084	-0.879127	0.556966
C128	C	0.333250	-0.545794	0.890299
C129	C	0.666583	-0.212461	1.223632
C130	C	-0.000107	-1.021379	0.566749
C131	C	0.333226	-0.688045	0.900082
C132	C	0.666560	-0.354712	1.233415
C133	C	-0.000116	-1.027982	0.484547
C134	C	0.333217	-0.694649	0.817881
C135	C	0.666551	-0.361315	1.151214
C136	C	-0.000098	-0.960159	0.438558
C137	C	0.333235	-0.626826	0.771891
C138	C	0.666568	-0.293492	1.105224
N139	N	-0.000093	-0.906369	0.313468
N140	N	0.333240	-0.573036	0.646801
N141	N	0.666573	-0.239703	0.980135
N142	N	-0.000099	-0.966917	0.354537
N143	N	0.333235	-0.633583	0.687870
N144	N	0.666568	-0.300250	1.021204
H145	H	-0.000085	-0.539966	-0.272133
H146	H	0.333248	-0.206633	0.061201
H147	H	0.666582	0.126700	0.394534
N148	N	-0.000068	-0.798848	0.596022
N149	N	0.333265	-0.465515	0.929355
N150	N	0.666598	-0.132182	1.262688
H151	H	-0.000055	-0.756885	0.554415
H152	H	0.333279	-0.423552	0.887748
H153	H	0.666612	-0.090218	1.221082
H154	H	0.060574	-0.793021	0.629910
H155	H	0.393907	-0.459687	0.963243
H156	H	0.727241	-0.126354	1.296577
H157	H	-0.000127	-1.088589	0.455073
H158	H	0.333207	-0.755255	0.788406
H159	H	0.666540	-0.421922	1.121739
H160	H	-0.000083	-0.315574	-0.317942
H161	H	0.333250	0.017760	0.015391
H162	H	0.666583	0.351093	0.348724
H163	H	-0.000120	-1.076596	0.604202
H164	H	0.333214	-0.743263	0.937535
H165	H	0.666547	-0.409930	1.270869
N166	N	-0.000069	-0.812583	0.425163
N167	N	0.333265	-0.479250	0.758496
N168	N	0.666598	-0.145917	1.091830
H169	H	-0.000065	-0.764433	0.460576
H170	H	0.333268	-0.431100	0.793910
H171	H	0.666601	-0.097767	1.127243
H172	H	-0.060711	-0.812221	0.390850
H173	H	0.272623	-0.478888	0.724184
H174	H	0.605956	-0.145555	1.057517
N175	N	-0.000105	-0.154296	-0.323881
N176	N	0.333228	0.179037	0.009453
N177	N	0.666561	0.512371	0.342786
H178	H	-0.000112	-0.096729	-0.308403
H179	H	0.333221	0.236605	0.024930
H180	H	0.666555	0.569938	0.358263
H181	H	-0.060744	-0.166532	-0.356092
H182	H	0.272589	0.166802	-0.022759
H183	H	0.605922	0.500135	0.310575
H184	H	-0.000139	-0.333322	-0.059859
H185	H	0.333195	0.000012	0.273475
H186	H	0.666528	0.333345	0.606808
H187	H	-0.000072	-0.784703	0.212936
H188	H	0.333262	-0.451369	0.546270
H189	H	0.666595	-0.118036	0.879603
N190	N	-0.000075	-0.778768	0.051641
N191	N	0.333258	-0.445434	0.384974
N192	N	0.666592	-0.112101	0.718308
H193	H	-0.000068	-0.730614	0.087050
H194	H	0.333266	-0.397281	0.420384
H195	H	0.666599	-0.063948	0.753717
H196	H	-0.060716	-0.778404	0.017327
H197	H	0.272617	-0.445071	0.350660
H198	H	0.605951	-0.111738	0.683994
H199	H	-0.000066	-0.689084	-0.284124
H200	H	0.333268	-0.355751	0.049210
H201	H	0.666601	-0.022417	0.382543
H202	H	-0.000129	-0.557710	-0.014056
H203	H	0.333204	-0.224377	0.319277
H204	H	0.666537	0.108956	0.652610
N205	N	-0.000147	-0.174616	-0.028206
N206	N	0.333186	0.158717	0.305127
N207	N	0.666519	0.492051	0.638460
H208	H	0.060487	-0.191055	0.001743
H209	H	0.393820	0.142278	0.335077
H210	H	0.727154	0.475611	0.668410
H211	H	-0.060834	-0.191067	0.001676
H212	H	0.272500	0.142266	0.335009
H213	H	0.605833	0.475599	0.668343
N214	N	-0.000111	-0.719005	-0.008121
N215	N	0.333222	-0.385672	0.325212
N216	N	0.666555	-0.052339	0.658546
H217	H	-0.000118	-0.683596	0.040032
H218	H	0.333215	-0.350263	0.373365
H219	H	0.666548	-0.016929	0.706699
H220	H	0.060531	-0.753323	-0.007764
H221	H	0.393864	-0.419990	0.325569
H222	H	0.727198	-0.086656	0.658903
H223	H	-0.000140	-1.054770	0.081563
H224	H	0.333193	-0.721437	0.414896
H225	H	0.666527	-0.388103	0.748229
H226	H	-0.000123	-1.042779	0.230680
H227	H	0.333210	-0.709446	0.564014
H228	H	0.666543	-0.376112	0.897347
