data_functionalizedCrystal
_audit_creation_method	'MofGen! by Chris Wilmer'
_symmetry_space_group_name_H-M	'P1'
_symmetry_Int_Tables_number	1
_symmetry_cell_setting	triclinic
loop_
_symmetry_equiv_pos_as_xyz
  x,y,z
_cell_length_a	10.540539
_cell_length_b	10.540539
_cell_length_c	9.016244
_cell_angle_alpha	89.999933
_cell_angle_beta	89.994699
_cell_angle_gamma	84.525492
loop_
_atom_site_label
_atom_site_type_symbol
_atom_site_fract_x
_atom_site_fract_y
_atom_site_fract_z
O1	O	1.685893	0.178895	-0.123263
O2	O	1.316480	0.195751	-0.123280
O3	O	1.509614	0.002617	-0.123269
O4	O	1.492759	0.372030	-0.123274
O5	O	1.509586	0.002621	0.123411
O6	O	1.316452	0.195755	0.123400
O7	O	1.685865	0.178900	0.123418
Cu8	Cu	1.501156	0.187328	0.145933
Cu9	Cu	1.501189	0.187323	-0.145795
O10	O	1.492730	0.372034	0.123407
C11	C	1.269163	0.194489	0.000058
C12	C	1.128215	0.190707	0.000051
C13	C	0.944788	0.045790	0.000628
C14	C	1.091406	0.049624	0.000057
C15	C	1.066558	0.258600	-0.140811
C16	C	0.920014	0.253785	-0.140914
C17	C	0.919493	0.256660	0.139608
C18	C	1.066475	0.257960	0.141455
C19	C	1.508336	-0.044684	0.000068
C20	C	1.504554	-0.185632	0.000060
C21	C	1.359637	-0.369059	-0.000500
C22	C	1.363471	-0.222441	0.000055
C23	C	1.572434	-0.247287	0.140930
C24	C	1.567619	-0.393832	0.141049
C25	C	1.570520	-0.394355	-0.139473
C26	C	1.571820	-0.247373	-0.141336
C27	C	1.733182	0.180161	0.000077
C28	C	1.874130	0.183943	0.000074
C29	C	1.494008	0.419335	0.000066
C30	C	1.497790	0.560283	0.000064
N31	N	1.501141	0.187331	0.351119
N32	N	1.501213	0.187310	-0.350982
C33	C	1.397510	0.290298	0.586146
C34	C	1.397739	0.290684	0.414255
C35	C	1.633864	0.217464	0.413464
C36	C	1.633298	0.218193	0.585409
C37	C	1.473367	0.053892	0.585663
C38	C	1.470322	0.054757	0.413709
H39	H	1.088912	0.362208	-0.146054
H40	H	1.672424	-0.441581	-0.140416
N41	N	1.267109	0.266705	0.358395
H42	H	1.273739	0.186806	0.295931
H43	H	1.208919	0.255843	0.445543
H44	H	1.540849	-0.025564	0.370737
N45	N	1.292215	-0.167120	0.134044
H46	H	1.294409	-0.071538	0.134961
H47	H	1.200838	-0.188282	0.129628
N48	N	0.856944	0.391643	0.140898
H49	H	0.881151	0.437160	0.048004
H50	H	0.761333	0.390208	0.144815
N51	N	1.266465	0.266666	0.640967
H52	H	1.273044	0.188974	0.707095
H53	H	1.228882	0.343216	0.698924
N54	N	1.347858	0.015914	0.643158
H55	H	1.307776	0.084818	0.710868
H56	H	1.288952	0.004140	0.556940
H57	H	1.657653	0.315531	0.625498
N58	N	1.420901	0.420689	0.643311
H59	H	1.435773	0.478459	0.556933
H60	H	1.344188	0.457502	0.701533
N61	N	0.882663	0.187299	-0.280378
H62	H	0.839608	0.108950	-0.253066
H63	H	0.822046	0.247095	-0.340238
H64	H	1.415639	0.389668	0.373108
N65	N	1.738630	0.122682	0.640550
H66	H	1.724029	0.034942	0.603111
H67	H	1.823325	0.146795	0.602905
N68	N	1.501123	-0.431181	0.280519
H69	H	1.422776	-0.474237	0.253216
H70	H	1.560917	-0.491797	0.340384
H71	H	1.372684	0.031916	0.372962
H72	H	1.524871	-0.425910	-0.246244
N73	N	1.573516	-0.047652	0.639509
H74	H	1.636627	-0.007501	0.704623
H75	H	1.531375	-0.113578	0.698301
N76	N	1.738590	0.120819	0.359306
H77	H	1.700916	0.056420	0.293676
H78	H	1.802893	0.165629	0.300983
N79	N	1.666859	0.344937	0.356408
H80	H	1.596030	0.383341	0.290191
H81	H	1.677788	0.403779	0.442919
H82	H	1.133163	-0.004177	-0.101092
N83	N	1.292729	-0.166010	-0.133711
H84	H	1.352608	-0.119871	-0.197107
H85	H	1.258779	-0.236445	-0.193444
N86	N	1.147865	-0.021153	0.133788
H87	H	1.194019	0.038707	0.197182
H88	H	1.077449	-0.055127	0.193541
H89	H	0.872045	0.355250	-0.147309
H90	H	0.914592	-0.009712	-0.099828
N91	N	0.906919	-0.028039	0.134446
H92	H	0.843589	0.027345	0.196010
H93	H	0.866888	-0.106445	0.100729
N94	N	1.285815	-0.406942	-0.134305
H95	H	1.341203	-0.470277	-0.195857
H96	H	1.207412	-0.446973	-0.100569
N97	N	1.702005	-0.457395	0.149565
H98	H	1.720179	-0.512887	0.059278
H99	H	1.764031	-0.390110	0.153276
H100	H	1.109159	0.211434	-0.245643
N101	N	1.120707	0.192263	0.279497
H102	H	1.080643	0.235941	0.370076
H103	H	1.101841	0.100109	0.278469
N104	N	1.098552	0.394212	0.152730
H105	H	1.153803	0.414366	0.065945
H106	H	1.017320	0.453353	0.151529
H107	H	0.887935	0.211004	0.246381
N108	N	1.286089	-0.409057	0.132552
H109	H	1.341872	-0.472748	0.193192
H110	H	1.259103	-0.331817	0.195340
H111	H	1.525258	-0.204686	0.245756
N112	N	1.709688	-0.217729	0.147859
H113	H	1.729231	-0.163950	0.059541
H114	H	1.724241	-0.169615	0.242258
N115	N	1.708078	-0.215308	-0.152603
H116	H	1.719998	-0.167898	-0.248180
H117	H	1.728136	-0.160102	-0.065752
H118	H	1.522153	-0.206517	-0.245547
