data_functionalizedCrystal
_audit_creation_method	'MofGen! by Chris Wilmer'
_symmetry_space_group_name_H-M	'P1'
_symmetry_Int_Tables_number	1
_symmetry_cell_setting	triclinic
loop_
_symmetry_equiv_pos_as_xyz
  x,y,z
_cell_length_a	18.215407
_cell_length_b	12.759400
_cell_length_c	12.759393
_cell_angle_alpha	89.968436
_cell_angle_beta	90.021831
_cell_angle_gamma	89.984868
loop_
_atom_site_label
_atom_site_type_symbol
_atom_site_fract_x
_atom_site_fract_y
_atom_site_fract_z
Zn1	Zn	1.125139	0.418192	0.594075
Zn2	Zn	1.125065	0.593911	0.418395
Zn3	Zn	1.002067	0.418248	0.418404
Zn4	Zn	1.002059	0.593831	0.594026
O5	O	1.063582	0.506045	0.506225
O6	O	1.228113	0.441511	0.570787
O7	O	1.108721	0.570665	0.271375
O8	O	1.018427	0.271219	0.441731
O9	O	1.228059	0.570611	0.441716
O10	O	1.108847	0.271178	0.570796
O11	O	1.018355	0.441607	0.271382
O12	O	0.899082	0.441529	0.441684
O13	O	1.018413	0.570475	0.741054
O14	O	0.899076	0.570529	0.570713
O15	O	1.108840	0.441434	0.741090
O16	O	1.108713	0.740921	0.441669
O17	O	1.018342	0.740862	0.570704
C18	C	0.872376	0.506027	0.506195
C19	C	0.790577	0.506045	0.506207
C20	C	1.063539	0.779013	0.506203
C21	C	1.063587	0.895789	0.506229
C22	C	1.063634	0.505939	0.780258
C23	C	1.063656	0.505894	0.897035
C24	C	0.602399	0.573321	0.573308
C25	C	0.525541	0.573324	0.573321
C26	C	0.525517	0.438789	0.439165
C27	C	0.602375	0.438781	0.439158
C28	C	0.640814	0.506053	0.506228
C29	C	0.487098	0.506064	0.506248
C30	C	0.403764	0.506067	0.506262
C31	C	0.724153	0.506049	0.506216
C32	C	1.255535	0.506064	0.506256
C33	C	1.337334	0.506072	0.506269
C34	C	1.063646	0.232012	0.506270
C35	C	1.063673	0.115235	0.506289
C36	C	1.110696	0.950647	0.439114
C37	C	1.110741	1.060371	0.439147
C38	C	1.016563	1.060370	0.573411
C39	C	1.016522	0.950648	0.573383
C40	C	1.165067	0.950648	0.361595
C41	C	1.165112	1.060372	0.361627
C42	C	1.063573	0.506075	0.233258
C43	C	1.063694	0.505824	0.116482
C44	C	1.110747	0.438696	0.951918
C45	C	1.110765	0.438658	1.061642
C46	C	1.016597	0.573025	1.061591
C47	C	1.016577	0.573057	0.951869
C48	C	1.165116	0.361123	0.951947
C49	C	1.165134	0.361085	1.061672
H50	H	0.633694	0.628095	0.627923
N51	N	0.965830	0.645472	1.120738
H52	H	0.935996	0.688048	1.069318
H53	H	0.931791	0.602688	1.166266
H54	H	1.149868	0.279759	0.922190
N55	N	1.144948	1.099936	0.253831
H56	H	1.186441	1.143885	0.225123
H57	H	1.135901	1.038394	0.205790
H58	H	1.222046	0.920790	0.383451
H59	H	1.219262	1.094317	0.390843
N60	N	0.965758	0.645494	0.892672
H61	H	0.935933	0.688026	0.944061
H62	H	0.995669	0.694147	0.847123
N63	N	0.643804	0.366219	0.366798
H64	H	0.675673	0.408854	0.318035
H65	H	0.675667	0.317589	0.409648
N66	N	0.484107	0.645881	0.645667
H67	H	0.520123	0.688496	0.688149
H68	H	0.452199	0.694452	0.602815
H69	H	1.219243	0.390291	0.917916
H70	H	1.144740	0.283776	1.095718
N71	N	1.240629	0.389949	1.101136
H72	H	1.274305	0.402865	1.039605
H73	H	1.237286	0.455556	1.145127
H74	H	0.494211	0.384020	0.384558
H75	H	0.978169	0.905984	0.628042
H76	H	0.978244	1.105049	0.628087
H77	H	1.144666	0.916701	0.284267
