data_functionalizedCrystal
_audit_creation_method	'MofGen! by Chris Wilmer'
_symmetry_space_group_name_H-M	'P1'
_symmetry_Int_Tables_number	1
_symmetry_cell_setting	triclinic
loop_
_symmetry_equiv_pos_as_xyz
  x,y,z
_cell_length_a	17.077402
_cell_length_b	21.295418
_cell_length_c	17.077396
_cell_angle_alpha	90.042909
_cell_angle_beta	89.970962
_cell_angle_gamma	89.956563
loop_
_atom_site_label
_atom_site_type_symbol
_atom_site_fract_x
_atom_site_fract_y
_atom_site_fract_z
Zn1	Zn	-0.312127	-0.962348	-0.444330
Zn2	Zn	0.021207	-0.629015	-0.110997
Zn3	Zn	0.354540	-0.295682	0.222337
Zn4	Zn	-0.443401	-0.962269	-0.313063
Zn5	Zn	-0.110068	-0.628936	0.020271
Zn6	Zn	0.223265	-0.295603	0.353604
Zn7	Zn	-0.312195	-0.857080	-0.313024
Zn8	Zn	0.021138	-0.523747	0.020309
Zn9	Zn	0.354471	-0.190414	0.353642
Zn10	Zn	-0.443396	-0.857050	-0.444233
Zn11	Zn	-0.110063	-0.523717	-0.110899
Zn12	Zn	0.223271	-0.190384	0.222434
O13	O	-0.377780	-0.909687	-0.378663
O14	O	-0.044446	-0.576354	-0.045329
O15	O	0.288887	-0.243020	0.288004
O16	O	-0.329514	-1.050427	-0.426974
O17	O	0.003819	-0.717094	-0.093641
O18	O	0.337153	-0.383761	0.239693
O19	O	-0.426028	-0.948295	-0.203211
O20	O	-0.092694	-0.614962	0.130123
O21	O	0.240639	-0.281629	0.463456
O22	O	-0.202339	-0.871090	-0.330467
O23	O	0.130994	-0.537757	0.002866
O24	O	0.464327	-0.204423	0.336200
O25	O	-0.425961	-1.050369	-0.330533
O26	O	-0.092628	-0.717036	0.002801
O27	O	0.240706	-0.383703	0.336134
O28	O	-0.202289	-0.948430	-0.426937
O29	O	0.131045	-0.615096	-0.093604
O30	O	0.464378	-0.281763	0.239730
O31	O	-0.329631	-0.871014	-0.203183
O32	O	0.003702	-0.537680	0.130151
O33	O	0.337036	-0.204347	0.463484
O34	O	-0.329626	-0.768987	-0.330373
O35	O	0.003707	-0.435654	0.002961
O36	O	0.337041	-0.102320	0.336294
O37	O	-0.425952	-0.871039	-0.554093
O38	O	-0.092618	-0.537706	-0.220759
O39	O	0.240715	-0.204372	0.112574
O40	O	-0.426019	-0.768965	-0.426771
O41	O	-0.092685	-0.435632	-0.093438
O42	O	0.240648	-0.102298	0.239896
O43	O	-0.329509	-0.948401	-0.554164
O44	O	0.003825	-0.615067	-0.220831
O45	O	0.337158	-0.281734	0.112502
O46	O	-0.553248	-0.948266	-0.330438
O47	O	-0.219914	-0.614933	0.002895
O48	O	0.113419	-0.281600	0.336229
O49	O	-0.553244	-0.870962	-0.426808
O50	O	-0.219910	-0.537629	-0.093475
O51	O	0.113423	-0.204296	0.239859
C52	C	-0.377830	-0.746135	-0.378558
C53	C	-0.044496	-0.412802	-0.045224
C54	C	0.288837	-0.079469	0.288109
C55	C	-0.377870	-0.676167	-0.378531
C56	C	-0.044537	-0.342834	-0.045198
C57	C	0.288797	-0.009501	0.288135
C58	C	-0.581728	-0.909620	-0.378634
C59	C	-0.248394	-0.576286	-0.045301
C60	C	0.084939	-0.242953	0.288033
C61	C	-0.668978	-0.909648	-0.378648
C62	C	-0.335644	-0.576315	-0.045315
C63	C	-0.002311	-0.242982	0.288019
C64	C	-1.044702	-0.950027	-0.428986
C65	C	-0.711369	-0.616694	-0.095653
C66	C	-0.378035	-0.283360	0.237681
C67	C	-0.962721	-0.949999	-0.428967
C68	C	-0.629388	-0.616665	-0.095634
C69	C	-0.296055	-0.283332	0.237699
C70	C	-0.921826	-0.909748	-0.378694
C71	C	-0.588493	-0.576415	-0.045361
C72	C	-0.255160	-0.243081	0.287972
C73	C	-0.962916	-0.869527	-0.328431
C74	C	-0.629583	-0.536194	0.004902
C75	C	-0.296249	-0.202861	0.338236
C76	C	-1.044895	-0.869559	-0.328446
C77	C	-0.711561	-0.536226	0.004887
C78	C	-0.378228	-0.202893	0.338220
C79	C	-0.792046	-0.869463	-0.328404
C80	C	-0.458713	-0.536129	0.004929
C81	C	-0.125379	-0.202796	0.338262
C82	C	-0.710061	-0.869430	-0.328390
C83	C	-0.376728	-0.536096	0.004943
C84	C	-0.043395	-0.202763	0.338277
C85	C	-0.709873	-0.949902	-0.428926
C86	C	-0.376539	-0.616569	-0.095592
C87	C	-0.043206	-0.283235	0.237741
C88	C	-0.791851	-0.949934	-0.428941
C89	C	-0.458518	-0.616601	-0.095607
C90	C	-0.125185	-0.283267	0.237726
C91	C	-0.832935	-0.909712	-0.378678
C92	C	-0.499602	-0.576379	-0.045345
C93	C	-0.166269	-0.243046	0.287988
C94	C	-0.428130	-0.643306	-0.428648
C95	C	-0.094796	-0.309972	-0.095314
C96	C	0.238537	0.023361	0.238019
C97	C	-0.428114	-0.577563	-0.428677
C98	C	-0.094780	-0.244230	-0.095344
C99	C	0.238553	0.089103	0.237990
C100	C	-0.377846	-0.544685	-0.378576
C101	C	-0.044513	-0.211352	-0.045243
C102	C	0.288820	0.121982	0.288091
C103	C	-0.327577	-0.577554	-0.328456
C104	C	0.005757	-0.244221	0.004878
C105	C	0.339090	0.089112	0.338211
C106	C	-0.327588	-0.643296	-0.328433
C107	C	0.005745	-0.309962	0.004900
C108	C	0.339078	0.023371	0.338233
N109	N	-0.371721	-0.441413	-0.309910
N110	N	-0.038388	-0.108080	0.023424
N111	N	0.294945	0.225254	0.356757
N112	N	-0.371715	-0.378962	-0.309933
N113	N	-0.038382	-0.045628	0.023400
N114	N	0.294952	0.287705	0.356734
C115	C	-0.377807	-0.346610	-0.378641
C116	C	-0.044473	-0.013277	-0.045308
C117	C	0.288860	0.320056	0.288025
N118	N	-0.383920	-0.379069	-0.447327
N119	N	-0.050587	-0.045736	-0.113994
N120	N	0.282746	0.287597	0.219340
N121	N	-0.383931	-0.441527	-0.447302
N122	N	-0.050598	-0.108193	-0.113969
N123	N	0.282736	0.225140	0.219364
C124	C	-0.377828	-0.473400	-0.378595
C125	C	-0.044494	-0.140066	-0.045262
C126	C	0.288839	0.193267	0.288072
C127	C	-0.428052	-0.242463	-0.428794
C128	C	-0.094718	0.090870	-0.095461
C129	C	0.238615	0.424204	0.237873
C130	C	-0.428030	-0.176719	-0.428825
C131	C	-0.094697	0.156614	-0.095491
C132	C	0.238636	0.489947	0.237842
C133	C	-0.327497	-0.176712	-0.328596
C134	C	0.005836	0.156622	0.004737
C135	C	0.339169	0.489955	0.338070
C136	C	-0.327515	-0.242454	-0.328573
C137	C	0.005819	0.090879	0.004761
C138	C	0.339152	0.424212	0.338094
C139	C	-0.377796	-0.275326	-0.378670
C140	C	-0.044463	0.058007	-0.045337
C141	C	0.288871	0.391341	0.287996
C142	C	-0.173035	-0.909772	-0.378709
C143	C	0.160298	-0.576439	-0.045375
C144	C	0.493631	-0.243105	0.287958
C145	C	-0.085786	-0.909808	-0.378728
C146	C	0.247548	-0.576475	-0.045395
C147	C	0.580881	-0.243142	0.287938
C148	C	-0.377722	-0.909725	-0.583407
C149	C	-0.044389	-0.576392	-0.250074
C150	C	0.288945	-0.243059	0.083260
C151	C	-0.377697	-0.909741	-0.670657
C152	C	-0.044364	-0.576408	-0.337323
C153	C	0.288969	-0.243075	-0.003990
C154	C	-0.377743	-0.073877	-0.378746
C155	C	-0.044410	0.259456	-0.045413
C156	C	0.288923	0.592789	0.287921
C157	C	-0.377761	-0.143846	-0.378724
C158	C	-0.044428	0.189488	-0.045391
C159	C	0.288905	0.522821	0.287943
C160	C	-0.327475	-0.950025	-0.711685
C161	C	0.005858	-0.616692	-0.378352
C162	C	0.339191	-0.283359	-0.045019
C163	C	-0.327449	-0.950033	-0.793666
C164	C	0.005884	-0.616699	-0.460333
C165	C	0.339218	-0.283366	-0.126999
C166	C	-0.377650	-0.909759	-0.834616
C167	C	-0.044316	-0.576426	-0.501283
C168	C	0.289017	-0.243093	-0.167950
C169	C	-0.427874	-0.869471	-0.793582
C170	C	-0.094541	-0.536138	-0.460249
C171	C	0.238793	-0.202804	-0.126915
C172	C	-0.427896	-0.869461	-0.711603
C173	C	-0.094562	-0.536128	-0.378270
C174	C	0.238771	-0.202794	-0.044936
C175	C	-0.427827	-0.869497	-0.964452
C176	C	-0.094493	-0.536163	-0.631119
C177	C	0.238840	-0.202830	-0.297785
C178	C	-0.427806	-0.869507	-1.046437
C179	C	-0.094473	-0.536174	-0.713103
C180	C	0.238860	-0.202841	-0.379770
C181	C	-0.327380	-0.950068	-1.046515
C182	C	0.005953	-0.616735	-0.713182
C183	C	0.339286	-0.283402	-0.379848
C184	C	-0.327402	-0.950058	-0.964536
C185	C	0.005931	-0.616725	-0.631203
C186	C	0.339265	-0.283391	-0.297869
C187	C	-0.377627	-0.909771	-0.923507
C188	C	-0.044294	-0.576437	-0.590174
C189	C	0.289039	-0.243104	-0.256841
C190	C	-0.377781	-0.909685	-0.174715
C191	C	-0.044447	-0.576352	0.158619
C192	C	0.288886	-0.243019	0.491952
C193	C	-0.377584	-0.909791	-0.087465
C194	C	-0.044251	-0.576458	0.245868
C195	C	0.289082	-0.243125	0.579201
H196	H	-1.077993	-0.982798	-0.469932
H197	H	-0.744659	-0.649464	-0.136599
H198	H	-0.411326	-0.316131	0.196735
H199	H	-0.468713	-0.836680	-0.931049
H200	H	-0.135380	-0.503347	-0.597716
H201	H	0.197953	-0.170014	-0.264382
Br202	Br	-0.259279	-1.004721	-0.908961
Br203	Br	0.074055	-0.671388	-0.575627
Br204	Br	0.407388	-0.338054	-0.242294
H205	H	-0.286565	-0.149943	-0.287807
H206	H	0.046768	0.183390	0.045527
H207	H	0.380102	0.516724	0.378860
Br208	Br	-0.259301	-0.287056	-0.260553
Br209	Br	0.074032	0.046278	0.072780
Br210	Br	0.407365	0.379611	0.406113
Br211	Br	-0.496052	-0.814784	-0.655920
Br212	Br	-0.162719	-0.481451	-0.322587
Br213	Br	0.170615	-0.148117	0.010747
Br214	Br	-0.906968	-1.004585	-0.497177
Br215	Br	-0.573634	-0.671251	-0.163843
Br216	Br	-0.240301	-0.337918	0.169490
Br217	Br	-0.259348	-1.004690	-0.656118
Br218	Br	0.073985	-0.671357	-0.322785
Br219	Br	0.407319	-0.338023	0.010549
Br220	Br	-0.847352	-1.004550	-0.497182
Br221	Br	-0.514019	-0.671217	-0.163848
Br222	Br	-0.180685	-0.337884	0.169485
H223	H	-0.676417	-0.982652	-0.469851
H224	H	-0.343084	-0.649318	-0.136517
H225	H	-0.009751	-0.315985	0.196816
H226	H	-0.676769	-0.836654	-0.287452
H227	H	-0.343435	-0.503321	0.045882
H228	H	-0.010102	-0.169987	0.379215
H229	H	-0.468956	-0.149964	-0.469641
H230	H	-0.135623	0.183369	-0.136307
H231	H	0.197710	0.516702	0.197026
Br232	Br	-0.259220	-1.004747	-1.102196
Br233	Br	0.074113	-0.671414	-0.768862
Br234	Br	0.407447	-0.338080	-0.435529
Br235	Br	-0.907416	-0.814905	-0.260197
Br236	Br	-0.574083	-0.481571	0.073136
Br237	Br	-0.240750	-0.148238	0.406470
H238	H	-0.469072	-0.670066	-0.469442
H239	H	-0.135738	-0.336732	-0.136109
H240	H	0.197595	-0.003399	0.197224
Br241	Br	-0.496327	-0.532955	-0.496699
Br242	Br	-0.162993	-0.199622	-0.163366
Br243	Br	0.170340	0.133712	0.169968
H244	H	-0.286647	-0.550781	-0.287665
H245	H	0.046686	-0.217447	0.045669
H246	H	0.380020	0.115886	0.379002
H247	H	-0.286555	-0.982837	-0.827068
H248	H	0.046778	-0.649504	-0.493735
H249	H	0.380112	-0.316171	-0.160401
Br250	Br	-0.847802	-0.814879	-0.260186
Br251	Br	-0.514469	-0.481546	0.073148
Br252	Br	-0.181136	-0.148213	0.406481
H253	H	-1.078344	-0.836809	-0.287521
H254	H	-0.745011	-0.503476	0.045812
H255	H	-0.411677	-0.170142	0.379146
Br256	Br	-0.495929	-0.814844	-1.102012
Br257	Br	-0.162595	-0.481511	-0.768679
Br258	Br	0.170738	-0.148177	-0.435346
Br259	Br	-0.259372	-0.687897	-0.260414
Br260	Br	0.073962	-0.354564	0.072919
Br261	Br	0.407295	-0.021230	0.406252
H262	H	-0.468745	-0.836678	-0.826930
H263	H	-0.135412	-0.503344	-0.493597
H264	H	0.197921	-0.170011	-0.160264
H265	H	-0.468990	-0.269229	-0.469591
H266	H	-0.135657	0.064105	-0.136257
H267	H	0.197677	0.397438	0.197076
