data_functionalizedCrystal
_audit_creation_method	'MofGen! by Chris Wilmer'
_symmetry_space_group_name_H-M	'P1'
_symmetry_Int_Tables_number	1
_symmetry_cell_setting	triclinic
loop_
_symmetry_equiv_pos_as_xyz
  x,y,z
_cell_length_a	14.853566
_cell_length_b	23.532407
_cell_length_c	22.010155
_cell_angle_alpha	89.995777
_cell_angle_beta	90.011584
_cell_angle_gamma	96.758458
loop_
_atom_site_label
_atom_site_type_symbol
_atom_site_fract_x
_atom_site_fract_y
_atom_site_fract_z
O1	O	1.195566	-0.074343	0.050493
O2	O	0.933010	-0.083201	0.050504
O3	O	1.072206	0.004125	0.050485
O4	O	1.056371	-0.161669	0.050512
O5	O	1.072165	0.004115	-0.050565
O6	O	0.932970	-0.083211	-0.050546
O7	O	1.195526	-0.074353	-0.050557
Cu8	Cu	1.064244	-0.078783	-0.059778
Cu9	Cu	1.064292	-0.078771	0.059726
O10	O	1.056330	-0.161680	-0.050538
C11	C	0.899405	-0.082805	-0.000020
C12	C	0.799335	-0.081603	-0.000016
C13	C	0.376227	-0.076512	0.055055
C14	C	0.376205	-0.076523	-0.055114
C15	C	0.470227	-0.077652	-0.055112
C16	C	0.517253	-0.078212	-0.000026
C17	C	0.470258	-0.077643	0.055059
C18	C	0.517228	-0.078227	-0.110195
C19	C	0.611255	-0.079357	-0.110195
C20	C	0.658284	-0.079913	-0.055108
C21	C	0.611283	-0.079343	-0.000022
C22	C	0.658309	-0.079902	0.055065
C23	C	0.611311	-0.079328	0.110152
C24	C	0.517286	-0.078198	0.110146
C25	C	0.752308	-0.081043	-0.055102
C26	C	0.752339	-0.081033	0.055068
C27	C	1.071782	0.025338	-0.000042
C28	C	1.070570	0.088560	-0.000048
C29	C	1.229131	-0.074750	-0.000032
C30	C	1.329201	-0.075952	-0.000031
C31	C	1.145339	0.487337	-0.000028
C32	C	1.144213	0.546742	-0.000025
O33	O	1.213524	0.583184	-0.000006
N34	N	1.061461	0.569729	-0.000022
C35	C	0.979830	0.533308	-0.000017
O36	O	0.909340	0.558315	-0.000014
C37	C	0.980957	0.473904	-0.000016
C38	C	1.063714	0.450920	-0.000024
C39	C	1.228089	0.464353	-0.000036
C40	C	1.229215	0.404952	-0.000040
C41	C	1.147591	0.368535	-0.000037
C42	C	1.064840	0.391519	-0.000029
C43	C	0.899327	0.437483	-0.000006
C44	C	0.900462	0.378076	-0.000004
C45	C	0.983219	0.355092	-0.000013
C46	C	0.984341	0.295701	-0.000029
N47	N	1.067093	0.272714	-0.000032
C48	C	1.148718	0.309131	-0.000035
C49	C	0.977469	0.658060	-0.000018
C50	C	0.976341	0.717463	-0.000024
C51	C	1.140724	0.730894	-0.000031
C52	C	1.141851	0.671490	-0.000029
C53	C	1.060221	0.635073	-0.000021
C54	C	1.151076	0.184384	-0.000045
C55	C	1.152194	0.124977	-0.000052
C56	C	0.987812	0.111552	-0.000042
C57	C	0.986693	0.170953	-0.000038
C58	C	1.068332	0.207369	-0.000038
O59	O	0.915066	0.259224	-0.000046
O60	O	1.219196	0.284115	-0.000030
N61	N	1.064217	-0.078791	-0.143831
C62	C	1.056754	0.817108	-0.000016
C63	C	1.057966	0.753885	-0.000024
C64	C	1.009907	-0.044163	-0.436439
C65	C	1.009899	-0.044166	-0.372832
O66	O	0.963687	-0.014724	-0.339937
N67	N	1.064253	-0.078774	-0.341015
C68	C	1.118625	-0.113377	-0.372809
O69	O	1.164858	-0.142814	-0.339906
C70	C	1.118638	-0.113371	-0.436416
C71	C	1.064273	-0.078765	-0.468229
C72	C	0.955547	-0.009559	-0.468253
C73	C	0.955554	-0.009557	-0.531856
C74	C	1.009920	-0.044160	-0.563646
C75	C	1.064280	-0.078764	-0.531832
C76	C	1.173015	-0.147972	-0.468209
C77	C	1.173023	-0.147962	-0.531819
C78	C	1.118658	-0.113356	-0.563633
C79	C	1.118653	-0.113364	-0.627225
N80	N	1.064299	-0.078756	-0.659042
C81	C	1.009933	-0.044154	-0.627252
C82	C	1.118597	-0.113387	-0.239231
C83	C	1.118580	-0.113396	-0.175626
C84	C	1.009855	-0.044183	-0.175653
C85	C	1.009867	-0.044177	-0.239259
C86	C	1.064243	-0.078778	-0.271048
C87	C	1.009951	-0.044153	-0.760823
C88	C	1.009960	-0.044156	-0.824432
C89	C	1.118689	-0.113367	-0.824400
C90	C	1.118676	-0.113366	-0.760797
C91	C	1.064305	-0.078755	-0.729010
O92	O	1.164844	-0.142789	-0.660160
O93	O	0.963717	-0.014716	-0.660163
N94	N	1.064326	-0.078759	0.143778
H95	H	0.479012	-0.077730	0.154995
H96	H	0.649514	-0.079823	-0.155051
H97	H	0.911288	0.018625	-0.557753
H98	H	0.790569	-0.081516	-0.099954
O99	O	0.471659	-0.077610	-0.163739
C100	C	0.505260	-0.028602	-0.197256
H101	H	0.577088	-0.012992	-0.181601
H102	H	0.506056	-0.039732	-0.247646
H103	H	0.459808	0.006548	-0.189624
O104	O	0.902645	0.024070	-0.437472
C105	C	0.854695	0.054620	-0.479204
H106	H	0.849245	0.031050	-0.524543
H107	H	0.783829	0.058231	-0.460851
H108	H	0.892234	0.099282	-0.485961
H109	H	1.162839	-0.141583	-0.149729
H110	H	0.790622	-0.081487	0.099927
O111	O	1.232668	0.102746	-0.000031
C112	C	1.304467	0.147632	-0.000046
H113	H	1.279572	0.188005	0.019089
H114	H	1.362288	0.135165	0.029289
H115	H	1.329601	0.156020	-0.048525
O116	O	0.657080	-0.079951	0.163622
C117	C	0.700790	-0.129898	0.166931
H118	H	0.711299	-0.146504	0.119107
H119	H	0.769317	-0.119611	0.190238
H120	H	0.657103	-0.163967	0.194123
O121	O	1.230320	0.219810	-0.000128
C122	C	1.234581	0.254567	-0.052470
H123	H	1.163046	0.257644	-0.069911
H124	H	1.268593	0.299179	-0.040701
H125	H	1.275550	0.234984	-0.089121
O126	O	0.957039	-0.010505	-0.270067
C127	C	0.909035	0.020019	-0.228361
H128	H	0.946377	0.023291	-0.183013
H129	H	0.903851	0.064813	-0.246735
H130	H	0.838061	-0.003361	-0.221613
O131	O	0.330515	-0.076056	0.108548
C132	C	0.265457	-0.124676	0.111844
H133	H	0.286336	-0.159467	0.080592
H134	H	0.260826	-0.141201	0.160566
H135	H	0.196603	-0.112676	0.097042
O136	O	0.908500	0.076195	-0.000142
C137	C	0.858178	0.086631	-0.052462
H138	H	0.905932	0.106893	-0.089049
H139	H	0.821633	0.044515	-0.070021
H140	H	0.806278	0.116920	-0.040623
O141	O	1.171435	-0.147060	-0.270014
C142	C	1.219418	-0.177593	-0.228287
H143	H	1.182055	-0.180871	-0.182956
H144	H	1.224605	-0.222384	-0.246657
H145	H	1.290391	-0.154216	-0.221505
H146	H	1.217286	-0.176151	-0.442317
H147	H	0.831938	0.456186	0.000005
H148	H	1.217304	-0.176139	-0.557698
O149	O	1.309685	0.382724	-0.000016
C150	C	1.381477	0.427614	-0.000033
H151	H	1.356574	0.467986	0.019098
H152	H	1.439301	0.415154	0.029303
H153	H	1.406611	0.436002	-0.048513
H154	H	1.294562	0.493998	-0.000036
H155	H	0.337910	-0.076071	-0.099963
H156	H	1.209239	0.652781	-0.000036
O157	O	1.219935	0.766357	0.000000
C158	C	1.201184	0.823714	-0.000010
H159	H	1.130398	0.826047	0.019119
H160	H	1.253248	0.850581	0.029331
H161	H	1.204746	0.840897	-0.048488
H162	H	0.908952	0.736171	-0.000027
H163	H	1.162950	-0.141540	-0.850295
O164	O	0.898085	0.622769	-0.000046
C165	C	0.824813	0.655802	-0.000029
H166	H	0.848109	0.700116	-0.019160
H167	H	0.767642	0.633948	-0.029366
H168	H	0.799439	0.660055	0.048450
H169	H	0.919305	0.189667	-0.000048
H170	H	0.833987	0.348428	0.000003
O171	O	0.956984	-0.010651	-0.144703
C172	C	0.895139	-0.045314	-0.107937
H173	H	0.922815	-0.087602	-0.098404
H174	H	0.885292	-0.022414	-0.063210
H175	H	0.827302	-0.053954	-0.132465
O176	O	0.957126	-0.010484	-0.855242
C177	C	0.909126	0.020046	-0.813540
H178	H	0.946471	0.023324	-0.768193
H179	H	0.903942	0.064837	-0.831920
H180	H	0.838151	-0.003333	-0.806787
O181	O	0.957076	-0.010617	-0.729886
C182	C	0.895226	-0.045275	-0.693118
H183	H	0.922903	-0.087561	-0.683573
H184	H	0.885370	-0.022368	-0.648397
H185	H	0.827393	-0.053921	-0.717651
O186	O	1.171425	-0.147066	-0.729955
C187	C	1.145910	-0.204845	-0.745482
H188	H	1.110926	-0.207252	-0.791669
H189	H	1.208817	-0.228243	-0.747646
H190	H	1.097358	-0.225764	-0.709688
