data_functionalizedCrystal
_audit_creation_method	'MofGen! by Chris Wilmer'
_symmetry_space_group_name_H-M	'P1'
_symmetry_Int_Tables_number	1
_symmetry_cell_setting	triclinic
loop_
_symmetry_equiv_pos_as_xyz
  x,y,z
_cell_length_a	16.992694
_cell_length_b	12.996460
_cell_length_c	14.519731
_cell_angle_alpha	89.988498
_cell_angle_beta	92.821461
_cell_angle_gamma	89.999814
loop_
_atom_site_label
_atom_site_type_symbol
_atom_site_fract_x
_atom_site_fract_y
_atom_site_fract_z
O1	O	1.040679	0.085459	-0.195571
O2	O	1.374013	0.418792	0.137762
O3	O	1.707346	0.752125	0.471096
O4	O	0.812391	0.085489	-0.193425
O5	O	1.145724	0.418822	0.139908
O6	O	1.479058	0.752155	0.473241
O7	O	0.932579	0.085452	-0.060695
O8	O	1.265912	0.418785	0.272639
O9	O	1.599246	0.752119	0.605972
O10	O	0.920491	0.085495	-0.328302
O11	O	1.253824	0.418829	0.005032
O12	O	1.587158	0.752162	0.338365
O13	O	0.932567	-0.085682	-0.060686
O14	O	1.265900	0.247652	0.272647
O15	O	1.599233	0.580985	0.605981
O16	O	0.812378	-0.085645	-0.193417
O17	O	1.145712	0.247688	0.139917
O18	O	1.479045	0.581022	0.473250
O19	O	1.040667	-0.085675	-0.195562
O20	O	1.374000	0.247658	0.137771
O21	O	1.707333	0.580991	0.471104
Cu22	Cu	0.926521	-0.101286	-0.194489
Cu23	Cu	1.259855	0.232047	0.138845
Cu24	Cu	1.593188	0.565381	0.472178
Cu25	Cu	0.926536	0.101100	-0.194499
Cu26	Cu	1.259870	0.434433	0.138834
Cu27	Cu	1.593203	0.767766	0.472168
O28	O	0.920479	-0.085639	-0.328293
O29	O	1.253812	0.247695	0.005040
O30	O	1.587145	0.581028	0.338374
C31	C	0.783168	-0.000075	-0.190661
C32	C	1.116501	0.333259	0.142672
C33	C	1.449835	0.666592	0.476006
C34	C	0.696112	-0.000064	-0.182426
C35	C	1.029445	0.333269	0.150908
C36	C	1.362778	0.666603	0.484241
N37	N	0.926517	-0.243633	-0.194481
N38	N	1.259850	0.089700	0.138852
N39	N	1.593183	0.423034	0.472185
C40	C	0.645988	-0.000052	-0.261885
C41	C	0.979321	0.333281	0.071448
C42	C	1.312655	0.666615	0.404782
C43	C	0.564190	-0.000068	-0.254142
C44	C	0.897523	0.333266	0.079192
C45	C	1.230857	0.666599	0.412525
C46	C	0.532517	-0.000088	-0.166938
C47	C	0.865851	0.333246	0.166395
C48	C	1.199184	0.666579	0.499729
C49	C	0.582648	-0.000103	-0.087473
C50	C	0.915981	0.333231	0.245861
C51	C	1.249314	0.666564	0.579194
C52	C	0.664444	-0.000095	-0.095217
C53	C	0.997777	0.333239	0.238117
C54	C	1.331111	0.666572	0.571450
C55	C	0.288873	-0.000120	-0.134841
C56	C	0.622206	0.333213	0.198492
C57	C	0.955539	0.666546	0.531826
C58	C	0.207070	-0.000125	-0.127103
C59	C	0.540403	0.333208	0.206231
C60	C	0.873736	0.666541	0.539564
C61	C	0.188618	-0.000092	-0.293773
C62	C	0.521951	0.333241	0.039561
C63	C	0.855284	0.666575	0.372894
C64	C	0.270416	-0.000078	-0.301509
C65	C	0.603750	0.333256	0.031824
C66	C	0.937083	0.666589	0.365157
C67	C	0.320539	-0.000098	-0.222044
C68	C	0.653873	0.333235	0.111290
C69	C	0.987206	0.666568	0.444623
N70	N	0.448907	-0.000100	-0.159021
N71	N	0.782240	0.333233	0.174312
N72	N	1.115574	0.666566	0.507646
N73	N	0.404148	-0.000093	-0.229962
N74	N	0.737482	0.333240	0.103372
N75	N	1.070815	0.666574	0.436705
C76	C	0.926535	-0.663447	-0.194500
C77	C	1.259868	-0.330114	0.138833
C78	C	1.593202	0.003219	0.472167
C79	C	0.926528	-0.546642	-0.194498
C80	C	1.259861	-0.213309	0.138836
C81	C	1.593194	0.120024	0.472169
C82	C	0.926526	-0.453544	-0.194491
C83	C	1.259860	-0.120211	0.138842
C84	C	1.593193	0.213123	0.472175
C85	C	0.926518	-0.336731	-0.194488
C86	C	1.259851	-0.003398	0.138846
C87	C	1.593185	0.329935	0.472179
C88	C	1.069890	-0.000110	-0.198327
C89	C	1.403223	0.333224	0.135007
C90	C	1.736556	0.666557	0.468340
C91	C	1.156946	-0.000113	-0.206562
C92	C	1.490279	0.333220	0.126771
C93	C	1.823613	0.666553	0.460105
C94	C	0.932006	-0.000118	-0.026290
C95	C	1.265340	0.333215	0.307043
C96	C	1.598673	0.666549	0.640376
C97	C	0.930309	-0.000127	0.076212
C98	C	1.263643	0.333206	0.409545
C99	C	1.596976	0.666540	0.742878
N100	N	0.926547	0.243447	-0.194500
N101	N	1.259880	0.576780	0.138834
N102	N	1.593214	0.910113	0.472167
C103	C	0.928930	-0.000132	0.159455
C104	C	1.262263	0.333202	0.492788
C105	C	1.595597	0.666535	0.826121
C106	C	0.927207	-0.000132	0.263887
C107	C	1.260540	0.333201	0.597221
C108	C	1.593873	0.666534	0.930554
C109	C	0.925839	-0.000133	0.347124
C110	C	1.259172	0.333201	0.680458
C111	C	1.592506	0.666534	1.013791
C112	C	0.924116	-0.000135	0.451563
C113	C	1.257449	0.333198	0.784897
C114	C	1.590783	0.666531	1.118230
C115	C	0.921051	-0.000088	0.637303
C116	C	1.254385	0.333246	0.970636
C117	C	1.587718	0.666579	1.303969
C118	C	0.922748	-0.000136	0.534801
C119	C	1.256082	0.333198	0.868134
C120	C	1.589415	0.666531	1.201467
H121	H	0.671769	-0.000035	-0.332896
H122	H	1.005102	0.333298	0.000438
H123	H	1.338435	0.666632	0.333771
H124	H	0.523382	-0.000057	-0.318846
H125	H	0.856715	0.333277	0.014487
H126	H	1.190048	0.666610	0.347820
H127	H	0.181286	-0.000141	-0.056087
H128	H	0.514619	0.333193	0.277246
H129	H	0.847953	0.666526	0.610579
C130	C	0.305250	-0.000071	-0.397433
C131	C	0.638584	0.333263	-0.064100
C132	C	0.971917	0.666596	0.269233
H133	H	0.263682	-0.000077	-0.443649
H134	H	0.597016	0.333256	-0.110316
H135	H	0.930349	0.666590	0.223018
H136	H	0.336775	0.059608	-0.403926
H137	H	0.670109	0.392941	-0.070593
H138	H	1.003442	0.726274	0.262740
H139	H	0.336776	-0.059756	-0.403909
H140	H	0.670109	0.273577	-0.070575
H141	H	1.003442	0.606911	0.262758
H142	H	0.329674	-0.000138	-0.070134
H143	H	0.663007	0.333195	0.263199
H144	H	0.996340	0.666529	0.596533
C145	C	0.133482	-0.000083	-0.381176
C146	C	0.466815	0.333251	-0.047843
C147	C	0.800148	0.666584	0.285491
H148	H	0.080230	-0.000099	-0.364078
H149	H	0.413564	0.333234	-0.030745
H150	H	0.746897	0.666567	0.302588
H151	H	0.143091	0.059600	-0.416692
H152	H	0.476425	0.392933	-0.083358
H153	H	0.809758	0.726267	0.249975
H154	H	0.143101	-0.059764	-0.416677
H155	H	0.476434	0.273569	-0.083344
H156	H	0.809768	0.606903	0.249989
C157	C	0.547810	-0.000123	0.008450
C158	C	0.881143	0.333210	0.341783
C159	C	1.214477	0.666544	0.675116
H160	H	0.491916	-0.000115	0.001683
H161	H	0.825249	0.333218	0.335016
H162	H	1.158583	0.666552	0.668350
H163	H	0.565008	-0.059805	0.041425
H164	H	0.898342	0.273529	0.374759
H165	H	1.231675	0.606862	0.708092
H166	H	0.565006	0.059559	0.041415
H167	H	0.898339	0.392892	0.374748
H168	H	1.231673	0.726226	0.708081
C169	C	0.719580	-0.000098	-0.007812
C170	C	1.052914	0.333236	0.325522
C171	C	1.386247	0.666569	0.658855
H172	H	0.689004	-0.000099	0.045233
H173	H	1.022337	0.333234	0.378567
H174	H	1.355671	0.666567	0.711900
H175	H	0.751878	-0.059771	-0.007363
H176	H	1.085211	0.273562	0.325971
H177	H	1.418545	0.606895	0.659304
H178	H	0.751867	0.059593	-0.007374
H179	H	1.085200	0.392926	0.325959
H180	H	1.418533	0.726259	0.659292
