data_functionalizedCrystal
_audit_creation_method	'MofGen! by Chris Wilmer'
_symmetry_space_group_name_H-M	'P1'
_symmetry_Int_Tables_number	1
_symmetry_cell_setting	triclinic
loop_
_symmetry_equiv_pos_as_xyz
  x,y,z
_cell_length_a	17.640280
_cell_length_b	12.827893
_cell_length_c	17.646359
_cell_angle_alpha	78.936564
_cell_angle_beta	92.134852
_cell_angle_gamma	101.201592
loop_
_atom_site_label
_atom_site_type_symbol
_atom_site_fract_x
_atom_site_fract_y
_atom_site_fract_z
Zn1	Zn	-0.389240	-1.604396	-0.367971
Zn2	Zn	0.110760	-1.104396	0.132029
Zn3	Zn	-0.490536	-1.671707	-0.215487
Zn4	Zn	0.009464	-1.171707	0.284513
Zn5	Zn	-0.363568	-1.456331	-0.241114
Zn6	Zn	0.136432	-0.956331	0.258886
Zn7	Zn	-0.516174	-1.470343	-0.342323
Zn8	Zn	-0.016174	-0.970343	0.157677
O9	O	-0.439879	-1.550694	-0.291724
O10	O	0.060121	-1.050694	0.208276
O11	O	-0.402691	-1.759562	-0.347753
O12	O	0.097309	-1.259562	0.152247
O13	O	-0.452219	-1.665443	-0.112715
O14	O	0.047781	-1.165443	0.387285
O15	O	-0.260714	-1.441937	-0.279401
O16	O	0.239286	-0.941937	0.220599
O17	O	-0.477112	-1.809016	-0.235723
O18	O	0.022888	-1.309016	0.264277
O19	O	-0.279575	-1.550720	-0.372602
O20	O	0.220425	-1.050720	0.127398
O21	O	-0.358937	-1.507206	-0.131543
O22	O	0.141063	-1.007206	0.368457
O23	O	-0.383797	-1.311952	-0.254531
O24	O	0.116203	-0.811952	0.245469
O25	O	-0.520809	-1.465820	-0.451897
O26	O	-0.020809	-0.965820	0.048103
O27	O	-0.495916	-1.322247	-0.328888
O28	O	0.004084	-0.822247	0.171112
O29	O	-0.427551	-1.564308	-0.470740
O30	O	0.072449	-1.064308	0.029260
O31	O	-0.600195	-1.679030	-0.210853
O32	O	-0.100195	-1.179030	0.289147
O33	O	-0.619032	-1.531089	-0.304039
O34	O	-0.119032	-1.031089	0.195961
C35	C	-0.439854	-1.279182	-0.291708
C36	C	0.060146	-0.779182	0.208292
C37	C	-0.439865	-1.163029	-0.291715
C38	C	0.060135	-0.663029	0.208285
C39	C	-0.476606	-1.135706	-0.236231
C40	C	0.023394	-0.635706	0.263769
C41	C	-0.476618	-1.015657	-0.236238
C42	C	0.023382	-0.515657	0.263762
C43	C	-0.637169	-1.613909	-0.251899
C44	C	-0.137169	-1.113909	0.248101
C45	C	-0.721575	-1.641043	-0.234886
C46	C	-0.221575	-1.141043	0.265114
C47	C	-1.048293	-1.344932	-0.421238
C48	C	-0.548293	-0.844932	0.078762
C49	C	-1.127601	-1.370435	-0.405229
C50	C	-0.627601	-0.870435	0.094771
C51	C	-1.107941	-1.524549	-0.308292
C52	C	-0.607941	-1.024549	0.191708
C53	C	-1.028631	-1.499062	-0.324296
C54	C	-0.528631	-0.999062	0.175704
C55	C	-0.998813	-1.409251	-0.380769
C56	C	-0.498813	-0.909251	0.119231
C57	C	-0.979151	-1.563381	-0.283828
C58	C	-0.479151	-1.063381	0.216172
C59	C	-0.899846	-1.537891	-0.299828
C60	C	-0.399846	-1.037891	0.200172
C61	C	-0.870022	-1.448083	-0.356297
C62	C	-0.370022	-0.948083	0.143703
C63	C	-0.919509	-1.383762	-0.396770
C64	C	-0.419509	-0.883762	0.103230
C65	C	-1.008969	-1.653186	-0.227351
C66	C	-0.508969	-1.153186	0.272649
C67	C	-0.959489	-1.717505	-0.186882
C68	C	-0.459489	-1.217505	0.313118
C69	C	-0.880184	-1.692021	-0.202886
C70	C	-0.380184	-1.192021	0.297114
C71	C	-0.850360	-1.602213	-0.259355
C72	C	-0.350360	-1.102213	0.240645
C73	C	-0.830697	-1.756343	-0.162413
C74	C	-0.330697	-1.256343	0.337587
C75	C	-0.751393	-1.730853	-0.178413
C76	C	-0.251393	-1.230853	0.321587
C77	C	-0.771055	-1.576724	-0.275355
C78	C	-0.271055	-1.076724	0.224645
C79	C	-0.241822	-1.487257	-0.331721
C80	C	0.258178	-0.987257	0.168279
C81	C	-0.157423	-1.460224	-0.348766
C82	C	0.342577	-0.960224	0.151234
C83	C	-0.479904	-1.509118	-0.489617
C84	C	0.020096	-1.009118	0.010383
C85	C	-0.496960	-1.491401	-0.573948
C86	C	0.003040	-0.991401	-0.073948
C87	C	-0.439898	-0.823266	-0.291735
C88	C	0.060102	-0.323266	0.208265
C89	C	-0.439887	-0.939418	-0.291728
C90	C	0.060113	-0.439418	0.208272
C91	C	-0.399955	-1.592151	-0.094611
C92	C	0.100045	-1.092151	0.405389
C93	C	-0.382685	-1.610002	-0.010324
C94	C	0.117315	-1.110002	0.489676
C95	C	-0.570172	-1.415589	0.317360
C96	C	-0.070172	-0.915589	0.817360
C97	C	-0.553930	-1.432387	0.396557
C98	C	-0.053930	-0.932387	0.896557
C99	C	-0.456213	-1.533645	0.376356
C100	C	0.043787	-1.033645	0.876356
C101	C	-0.472450	-1.516859	0.297156
C102	C	0.027550	-1.016859	0.797156
C103	C	-0.529430	-1.457829	0.267665
C104	C	-0.029430	-0.957829	0.767665
C105	C	-0.431708	-1.559099	0.247460
C106	C	0.068292	-1.059099	0.747460
C107	C	-0.447941	-1.542310	0.168267
C108	C	0.052059	-1.042310	0.668267
C109	C	-0.504917	-1.483280	0.138769
C110	C	-0.004917	-0.983280	0.638769
C111	C	-0.545663	-1.441040	0.188471
C112	C	-0.045663	-0.941040	0.688471
C113	C	-0.374724	-1.618123	0.276953
C114	C	0.125276	-1.118123	0.776953
C115	C	-0.333982	-1.660363	0.227257
C116	C	0.166018	-1.160363	0.727257
C117	C	-0.350219	-1.643580	0.148063
C118	C	0.149781	-1.143580	0.648063
C119	C	-0.407195	-1.584551	0.118565
C120	C	0.092805	-1.084551	0.618565
C121	C	-0.309472	-1.685821	0.098360
C122	C	0.190528	-1.185821	0.598360
C123	C	-0.325706	-1.669032	0.019167
C124	C	0.174294	-1.169032	0.519167
C125	C	-0.423428	-1.567761	0.039371
C126	C	0.076572	-1.067761	0.539371
H127	H	-0.746779	-1.503597	-0.321347
H128	H	-0.246779	-1.003597	0.178653
Cl129	Cl	-0.391316	-1.061937	-0.365068
Cl130	Cl	0.108684	-0.561937	0.134932
Cl131	Cl	-0.495065	-1.493558	0.002291
Cl132	Cl	0.004935	-0.993558	0.502291
H133	H	-0.287587	-1.708422	0.251280
H134	H	0.212413	-1.208422	0.751280
Cl135	Cl	-0.525181	-0.979241	-0.162892
Cl136	Cl	-0.025181	-0.479241	0.337108
Cl137	Cl	-0.354319	-1.639233	0.376512
Cl138	Cl	0.145681	-1.139233	0.876512
H139	H	-0.711105	-1.783228	-0.145459
H140	H	-0.211105	-1.283228	0.354541
Cl141	Cl	-0.770360	-1.416241	-0.376588
Cl142	Cl	-0.270360	-0.916241	0.123412
H143	H	-1.073544	-1.673939	-0.214328
H144	H	-0.573544	-1.173939	0.285672
H145	H	-0.518128	-1.469602	0.074283
H146	H	-0.018128	-0.969602	0.574283
Cl147	Cl	-0.525164	-1.236800	-0.162884
Cl148	Cl	-0.025164	-0.736800	0.337116
Cl149	Cl	-0.617301	-1.366837	0.151391
Cl150	Cl	-0.117301	-0.866837	0.651391
H151	H	-0.408426	-0.963002	-0.339229
H152	H	0.091574	-0.463002	0.160771
H153	H	-0.983777	-1.790627	-0.140900
H154	H	-0.483777	-1.290627	0.359100
Cl155	Cl	-0.882020	-1.270863	-0.467773
Cl156	Cl	-0.382020	-0.770863	0.032227
H157	H	-1.024017	-1.271805	-0.467230
H158	H	-0.524017	-0.771805	0.032770
Cl159	Cl	-1.189802	-1.289556	-0.456102
Cl160	Cl	-0.689802	-0.789556	0.043898
Cl161	Cl	-1.145435	-1.637452	-0.237302
Cl162	Cl	-0.645435	-1.137452	0.262698
H163	H	-0.854986	-1.829460	-0.116428
H164	H	-0.354986	-1.329460	0.383572
H165	H	-0.616576	-1.367529	0.293348
H166	H	-0.116576	-0.867529	0.793348
H167	H	-0.587097	-1.397961	0.437015
H168	H	-0.087097	-0.897961	0.937015
H169	H	-0.409818	-1.581704	0.400379
H170	H	0.090182	-1.081704	0.900379
H171	H	-0.263074	-1.733874	0.122384
H172	H	0.236926	-1.233874	0.622384
Cl173	Cl	-0.274466	-1.722099	-0.043316
Cl174	Cl	0.225534	-1.222099	0.456684
