data_functionalizedCrystal
_audit_creation_method	'MofGen! by Chris Wilmer'
_symmetry_space_group_name_H-M	'P1'
_symmetry_Int_Tables_number	1
_symmetry_cell_setting	triclinic
loop_
_symmetry_equiv_pos_as_xyz
  x,y,z
_cell_length_a	10.723023
_cell_length_b	10.723024
_cell_length_c	16.053948
_cell_angle_alpha	87.141680
_cell_angle_beta	87.149115
_cell_angle_gamma	84.467709
loop_
_atom_site_label
_atom_site_type_symbol
_atom_site_fract_x
_atom_site_fract_y
_atom_site_fract_z
O1	O	1.652468	0.170288	0.069423
O2	O	1.289316	0.187042	0.069425
O3	O	1.479269	-0.002911	0.069421
O4	O	1.462515	0.360241	0.069427
O5	O	1.488695	0.006553	-0.069435
O6	O	1.298741	0.196506	-0.069431
O7	O	1.661894	0.179751	-0.069432
Zn8	Zn	1.481814	0.189631	-0.091478
Zn9	Zn	1.469395	0.177163	0.091471
O10	O	1.471941	0.369705	-0.069428
C11	C	1.247529	0.190555	-0.000002
C12	C	1.108974	0.186908	-0.000002
C13	C	0.908889	0.186414	-0.071930
C14	C	1.052092	0.190184	-0.071932
C15	C	1.482762	-0.044679	-0.000006
C16	C	1.479115	-0.183233	-0.000003
C17	C	1.585402	-0.258216	-0.000002
C18	C	1.581634	-0.401420	0.000001
C19	C	1.703681	0.176239	-0.000003
C20	C	1.842235	0.179886	0.000002
C21	C	1.468447	0.411473	0.000000
C22	C	1.472095	0.550027	0.000003
N23	N	1.490299	0.198139	-0.216335
C24	C	1.416963	0.124740	-0.260054
C25	C	1.422930	0.130707	-0.347459
C26	C	1.502240	0.210067	-0.391143
C27	C	1.575578	0.283475	-0.347418
C28	C	1.569604	0.277514	-0.260015
C29	C	1.528285	0.236092	-0.652544
C30	C	1.534256	0.242044	-0.739953
C31	C	1.381605	0.089277	-0.739988
C32	C	1.375644	0.083317	-0.652583
C33	C	1.448977	0.156730	-0.608866
N34	N	1.508343	0.216165	-0.480485
N35	N	1.442866	0.150638	-0.519526
N36	N	1.460920	0.168645	0.216328
H37	H	0.859936	0.189219	-0.133511
O38	O	1.648700	0.356689	-0.212861
H39	H	1.631211	0.339225	-0.144746
H40	H	1.385328	-0.225055	0.000003
O41	O	1.702168	-0.486762	-0.000005
H42	H	1.782981	-0.429404	-0.000014
H43	H	1.381099	-0.385548	-0.000003
O44	O	1.331417	0.039148	-0.212938
H45	H	1.281415	-0.010878	-0.258027
H46	H	0.891186	0.177095	0.061583
O47	O	1.343897	0.051477	-0.394616
H48	H	1.287780	-0.004743	-0.349556
H49	H	1.588004	0.295864	-0.616960
H50	H	1.109396	0.195774	-0.133516
H51	H	1.321899	0.029510	-0.775592
O52	O	1.033106	0.179487	0.081588
H53	H	0.963155	0.262590	0.085172
H54	H	1.311065	0.018690	-0.617021
O55	O	1.619791	0.327654	-0.787075
H56	H	1.669771	0.377712	-0.741993
H57	H	1.679188	-0.216394	-0.000008
O58	O	1.661138	0.369060	-0.394528
H59	H	1.652989	0.360860	-0.462651
