data_functionalizedCrystal
_audit_creation_method	'MofGen! by Chris Wilmer'
_symmetry_space_group_name_H-M	'P1'
_symmetry_Int_Tables_number	1
_symmetry_cell_setting	triclinic
loop_
_symmetry_equiv_pos_as_xyz
  x,y,z
_cell_length_a	16.992694
_cell_length_b	23.532407
_cell_length_c	15.455313
_cell_angle_alpha	92.643560
_cell_angle_beta	87.142206
_cell_angle_gamma	86.758451
loop_
_atom_site_label
_atom_site_type_symbol
_atom_site_fract_x
_atom_site_fract_y
_atom_site_fract_z
O1	O	1.042902	0.118384	-0.072037
O2	O	0.814628	0.117059	-0.072062
O3	O	0.935648	0.035132	-0.072033
O4	O	0.921882	0.200311	-0.072066
O5	O	0.928727	0.039796	0.072228
O6	O	0.807707	0.121723	0.072198
O7	O	1.035981	0.123049	0.072224
Cu8	Cu	0.921212	0.122812	0.085383
Cu9	Cu	0.929397	0.117296	-0.085222
O10	O	0.914962	0.204976	0.072194
C11	C	0.781968	0.117688	0.000065
C12	C	0.694964	0.112604	0.000056
C13	C	0.931837	0.016231	0.000100
C14	C	0.930782	-0.047038	0.000106
C15	C	0.644342	0.161650	0.000047
C16	C	0.562592	0.156871	0.000060
C17	C	0.531466	0.103045	0.000076
C18	C	0.582095	0.053995	0.000088
C19	C	0.663843	0.058775	0.000081
C20	C	0.288022	0.083234	0.000103
C21	C	0.206267	0.078457	0.000107
C22	C	0.186770	0.181334	0.000081
C23	C	0.268521	0.186109	0.000069
C24	C	0.319142	0.137059	0.000085
N25	N	0.447905	0.098158	0.000086
N26	N	0.402701	0.141946	0.000081
C27	C	0.995791	-0.442917	0.000066
C28	C	0.994812	-0.502366	0.000059
O29	O	1.055075	-0.536121	0.000034
N30	N	0.922865	-0.528562	0.000052
C31	C	0.851893	-0.495307	0.000042
O32	O	0.790607	-0.523048	0.000035
C33	C	0.852873	-0.435859	0.000043
C34	C	0.924824	-0.409666	0.000059
C35	C	1.067736	-0.416723	0.000081
C36	C	1.068714	-0.357278	0.000089
C37	C	0.997748	-0.324027	0.000083
C38	C	0.925803	-0.350221	0.000067
C39	C	0.781902	-0.402605	0.000027
C40	C	0.782889	-0.343154	0.000027
C41	C	0.854839	-0.316960	0.000043
C42	C	0.855814	-0.257525	0.000069
N43	N	0.927761	-0.231328	0.000076
C44	C	0.998728	-0.264579	0.000083
C45	C	0.849841	-0.620151	0.000040
C46	C	0.848860	-0.679598	0.000046
C47	C	0.991779	-0.686653	0.000061
C48	C	0.992759	-0.627205	0.000061
C49	C	0.921788	-0.593955	0.000047
C50	C	1.000777	-0.139740	0.000101
C51	C	1.001749	-0.080289	0.000113
C52	C	0.858831	-0.073240	0.000093
C53	C	0.857858	-0.132685	0.000086
C54	C	0.928838	-0.165934	0.000087
O55	O	0.795583	-0.223733	0.000090
O56	O	1.060004	-0.236831	0.000079
C57	C	1.068641	0.122420	0.000095
C58	C	1.155645	0.127504	0.000098
C59	C	0.918772	0.223877	0.000060
C60	C	0.919827	0.287146	0.000048
N61	N	0.915462	0.126692	0.205377
N62	N	0.935153	0.113412	-0.205216
C63	C	0.966893	0.091901	0.250784
C64	C	0.962551	0.094840	0.341591
C65	C	0.906782	0.132574	0.386989
C66	C	0.855345	0.167366	0.341576
C67	C	0.859684	0.164424	0.250771
C68	C	0.888055	0.145261	0.658566
C69	C	0.883722	0.148203	0.749378
C70	C	0.990928	0.075676	0.749386
C71	C	0.995265	0.072738	0.658579
C72	C	0.943825	0.107529	0.613174
N73	N	0.902344	0.135581	0.479808
N74	N	0.948260	0.104518	0.520356
H75	H	0.521379	0.196809	0.000051
N76	N	0.807161	0.199972	0.204387
N77	N	0.834173	0.234811	0.153700
H78	H	0.797077	0.259917	0.120941
H79	H	1.058576	-0.166805	0.000099
N80	N	0.835530	0.180813	0.612198
N81	N	0.862543	0.215655	0.561517
H82	H	0.825446	0.240768	0.528768
N83	N	1.015080	0.059282	0.387949
N84	N	1.014889	0.006285	0.377794
H85	H	1.051989	-0.018837	0.410526
H86	H	0.838305	0.178933	0.786337
N87	N	0.339731	0.033137	0.000122
N88	N	0.384611	0.026291	0.060932
H89	H	0.421135	-0.009092	0.060946
H90	H	0.145546	0.221267	0.000069
N91	N	1.052370	0.034294	0.612222
N92	N	1.098375	0.003301	0.652775
H93	H	1.138758	-0.023811	0.620036
H94	H	0.725094	-0.316084	0.000014
N95	N	0.708398	-0.429342	0.000009
N96	N	0.645048	-0.399636	-0.000007
H97	H	0.593131	-0.418517	-0.000023
H98	H	1.032806	0.047350	0.786363
H99	H	1.012310	0.061176	0.213826
N100	N	0.300331	0.241085	0.000052
N101	N	0.346684	0.253258	-0.060763
H102	H	0.369153	0.292085	-0.060777
N103	N	0.550290	-0.000983	0.000113
N104	N	0.477300	-0.005244	0.000118
H105	H	0.454838	-0.044074	0.000134
N106	N	0.784356	-0.159435	0.000096
N107	N	0.720998	-0.129736	0.000103
H108	H	0.669085	-0.148624	0.000108
N109	N	0.798376	0.205903	0.387960
N110	N	0.794509	0.208527	0.469035
H111	H	0.754274	0.235745	0.501794
H112	H	0.801051	-0.046156	0.000091
H113	H	0.705059	0.018836	0.000088
N114	N	0.676120	0.216637	0.000023
N115	N	0.630909	0.260423	0.000016
H116	H	0.653349	0.299260	0.000001
N117	N	0.777338	-0.586189	0.000057
N118	N	0.759020	-0.550273	0.060871
H119	H	0.707814	-0.526289	0.060884
H120	H	1.060342	-0.058966	0.000129
H121	H	0.180928	0.034624	0.000119
N122	N	1.142218	-0.330536	0.000103
N123	N	1.205570	-0.360241	0.000105
H124	H	1.257487	-0.341358	0.000111
H125	H	1.125529	-0.443790	0.000084
N126	N	1.066261	-0.600461	0.000082
N127	N	1.129614	-0.630163	0.000095
H128	H	1.181529	-0.611278	0.000109
N129	N	1.064280	-0.720615	0.000069
N130	N	1.109323	-0.714382	0.060882
H131	H	1.160525	-0.738368	0.060889
N132	N	0.775363	-0.706350	0.000058
N133	N	0.724713	-0.695386	0.060866
H134	H	0.672803	-0.714277	0.060873
