data_functionalizedCrystal
_audit_creation_method	'MofGen! by Chris Wilmer'
_symmetry_space_group_name_H-M	'P1'
_symmetry_Int_Tables_number	1
_symmetry_cell_setting	triclinic
loop_
_symmetry_equiv_pos_as_xyz
  x,y,z
_cell_length_a	15.995350
_cell_length_b	15.995300
_cell_length_c	15.072220
_cell_angle_alpha	90.006552
_cell_angle_beta	89.987662
_cell_angle_gamma	83.482091
loop_
_atom_site_label
_atom_site_type_symbol
_atom_site_fract_x
_atom_site_fract_y
_atom_site_fract_z
O1	O	1.110952	0.107938	0.073642
O2	O	1.610952	0.607938	0.573642
O3	O	0.867175	0.121266	0.073672
O4	O	1.367175	0.621266	0.573672
O5	O	0.995749	-0.007288	0.073661
O6	O	1.495749	0.492712	0.573661
O7	O	0.982378	0.236493	0.073653
O8	O	1.482378	0.736493	0.573653
O9	O	0.995766	-0.007311	-0.073905
O10	O	1.495766	0.492689	0.426095
O11	O	0.867191	0.121244	-0.073893
O12	O	1.367191	0.621244	0.426107
O13	O	1.110969	0.107916	-0.073923
O14	O	1.610969	0.607916	0.426077
Zn15	Zn	0.989082	0.114576	-0.097337
Zn16	Zn	1.489082	0.614576	0.402663
Zn17	Zn	0.989061	0.114606	0.097086
Zn18	Zn	1.489061	0.614606	0.597086
O19	O	0.982394	0.236470	-0.073912
O20	O	1.482394	0.736470	0.426088
C21	C	0.835988	0.120704	-0.000107
C22	C	1.335988	0.620704	0.499893
C23	C	0.743038	0.119052	-0.000095
C24	C	1.243038	0.619052	0.499905
C25	C	0.995212	-0.038495	-0.000119
C26	C	1.495212	0.461505	0.499881
C27	C	0.993577	-0.131448	-0.000110
C28	C	1.493577	0.368552	0.499890
C29	C	1.142155	0.108478	-0.000142
C30	C	1.642155	0.608478	0.499858
C31	C	1.235105	0.110130	-0.000148
C32	C	1.735105	0.610130	0.499852
C33	C	0.990558	-0.301631	-0.000118
C34	C	1.490558	0.198369	0.499882
C35	C	1.082106	-0.349096	-0.000127
C36	C	1.582106	0.150904	0.499873
C37	C	1.080435	-0.445784	-0.000466
C38	C	1.580435	0.054216	0.499534
C39	C	0.987586	-0.469187	-0.000125
C40	C	1.487586	0.030813	0.499875
C41	C	0.942175	-0.428066	-0.084220
C42	C	1.442175	0.071934	0.415780
C43	C	0.944492	-0.331432	-0.084288
C44	C	1.444492	0.168568	0.415712
C45	C	0.943117	-0.331131	0.083527
C46	C	1.443117	0.168869	0.583527
C47	C	0.943126	-0.428075	0.084629
C48	C	1.443126	0.071925	0.584629
C49	C	0.985901	-0.563883	-0.000132
C50	C	1.485901	-0.063883	0.499868
C51	C	0.992239	-0.206935	-0.000117
C52	C	1.492239	0.293065	0.499883
C53	C	1.572852	0.116062	-0.000113
C54	C	2.072852	0.616062	0.499887
C55	C	1.525401	0.207616	-0.000449
C56	C	2.025401	0.707616	0.499551
C57	C	1.428711	0.205964	-0.000126
C58	C	1.928711	0.705964	0.499874
C59	C	1.405292	0.113120	-0.000131
C60	C	1.905292	0.613120	0.499869
C61	C	1.446351	0.067975	0.084139
C62	C	1.946351	0.567975	0.584139
C63	C	1.542986	0.070275	0.084219
C64	C	2.042986	0.570275	0.584219
C65	C	1.543397	0.068358	-0.083590
C66	C	2.043397	0.568358	0.416410
C67	C	1.446452	0.068380	-0.084713
C68	C	1.946452	0.568380	0.415287
C69	C	1.310595	0.111452	-0.000138
C70	C	1.810595	0.611452	0.499862
C71	C	1.667549	0.117727	-0.000099
C72	C	2.167549	0.617727	0.499901
C73	C	0.982931	0.267677	-0.000130
C74	C	1.482931	0.767677	0.499870
C75	C	0.984566	0.360630	-0.000134
C76	C	1.484566	0.860630	0.499866
N77	N	0.989047	0.114620	0.229775
N78	N	1.489047	0.614620	0.729775
N79	N	0.989103	0.114555	-0.230026
N80	N	1.489103	0.614555	0.269974
C81	C	0.989084	0.114577	0.588976
C82	C	1.489084	0.614577	1.088976
C83	C	0.920360	0.183438	0.551375
C84	C	1.420360	0.683438	1.051375
C85	C	0.920105	0.183274	0.448550
C86	C	1.420105	0.683274	0.948550
C87	C	0.989066	0.114599	0.410772
C88	C	1.489066	0.614599	0.910772
C89	C	0.970229	0.027161	0.448085
C90	C	1.470229	0.527161	0.948085
C91	C	0.969746	0.027552	0.550943
C92	C	1.469746	0.527552	1.050943
C93	C	1.076849	0.132372	0.551050
C94	C	1.576849	0.632372	1.051050
C95	C	1.076252	0.134371	0.448186
C96	C	1.576252	0.634371	0.948186
C97	C	0.989057	0.114606	0.310059
C98	C	1.489057	0.614606	0.810059
C99	C	0.989092	0.114564	0.689690
C100	C	1.489092	0.614564	1.189690
H101	H	1.116119	-0.474240	0.059802
H102	H	1.616119	0.025760	0.559802
F103	F	0.982499	-0.304319	0.166868
F104	F	1.482499	0.195681	0.666868
H105	H	1.575167	0.000855	-0.084154
H106	H	2.075167	0.500855	0.415846
F107	F	0.834966	0.168391	0.416399
F108	F	1.334966	0.668391	0.916399
H109	H	1.400821	0.241706	0.060381
H110	H	1.900821	0.741706	0.560381
H111	H	1.544969	0.244056	0.059645
H112	H	2.044969	0.744056	0.559645
F113	F	0.934718	0.268219	0.415575
F114	F	1.434718	0.768219	0.915575
H115	H	1.432237	-0.000235	0.087269
H116	H	1.932237	0.499765	0.587269
F117	F	0.835704	0.168763	0.585175
F118	F	1.335704	0.668763	1.085175
H119	H	1.118380	-0.329437	-0.060306
H120	H	1.618380	0.170563	0.439694
H121	H	1.018960	-0.025317	0.423612
H122	H	1.518960	0.474683	0.923612
F123	F	0.982915	-0.465140	-0.166342
F124	F	1.482915	0.034860	0.333658
F125	F	1.566877	0.113330	0.166554
F126	F	2.066877	0.613330	0.666554
F127	F	1.143693	0.066742	0.582834
F128	F	1.643693	0.566742	1.082834
F129	F	1.130186	-0.324922	0.078686
F130	F	1.630186	0.175078	0.578686
F131	F	0.986467	-0.463800	0.165951
F132	F	1.486467	0.036200	0.665951
F133	F	1.100591	0.213936	0.584973
F134	F	1.600591	0.713936	1.084973
H135	H	0.875434	-0.443419	0.089969
H136	H	1.375434	0.056581	0.589969
H137	H	0.873952	-0.442166	-0.087103
H138	H	1.373952	0.057834	0.412897
F139	F	1.094943	0.218447	0.416317
F140	F	1.594943	0.718447	0.916317
F141	F	0.887530	0.006220	0.414430
F142	F	1.387530	0.506220	0.914430
H143	H	0.905747	0.011904	0.574944
H144	H	1.405747	0.511904	1.074944
F145	F	1.146205	0.073095	0.414573
F146	F	1.646205	0.573095	0.914573
F147	F	0.854894	-0.289592	0.084597
F148	F	1.354894	0.210408	0.584597
F149	F	1.032698	-0.041451	0.583455
F150	F	1.532698	0.458549	1.083455
F151	F	1.126890	-0.482198	-0.079731
F152	F	1.626890	0.017802	0.420269
H153	H	0.977232	-0.313121	-0.147397
H154	H	1.477232	0.186879	0.352603
H155	H	1.563953	0.098281	-0.147457
H156	H	2.063953	0.598281	0.352543
H157	H	0.877268	-0.299160	-0.087869
H158	H	1.377268	0.200840	0.412131
H159	H	1.575245	0.003058	0.088057
H160	H	2.075245	0.503058	0.588057
F161	F	1.391574	0.252360	-0.079076
F162	F	1.891574	0.752360	0.420924
H163	H	1.417921	0.099328	0.146846
H164	H	1.917921	0.599328	0.646846
F165	F	1.550062	0.255621	-0.079116
F166	F	2.050062	0.755621	0.420884
F167	F	1.410788	0.111464	-0.166201
F168	F	1.910788	0.611464	0.333799
H169	H	1.431106	0.000672	-0.089803
H170	H	1.931106	0.500672	0.410197
F171	F	0.934735	0.268661	0.583726
F172	F	1.434735	0.768661	1.083726
