data_functionalizedCrystal
_audit_creation_method	'MofGen! by Chris Wilmer'
_symmetry_space_group_name_H-M	'P1'
_symmetry_Int_Tables_number	1
_symmetry_cell_setting	triclinic
loop_
_symmetry_equiv_pos_as_xyz
  x,y,z
_cell_length_a	15.944493
_cell_length_b	27.731996
_cell_length_c	15.021413
_cell_angle_alpha	89.998029
_cell_angle_beta	89.993251
_cell_angle_gamma	83.048216
loop_
_atom_site_label
_atom_site_type_symbol
_atom_site_fract_x
_atom_site_fract_y
_atom_site_fract_z
O1	O	1.113726	0.062202	-0.074032
O2	O	0.869066	0.069917	-0.074038
O3	O	0.999017	-0.004307	-0.074016
O4	O	0.983774	0.136426	-0.074054
O5	O	0.998996	-0.004296	0.074049
O6	O	0.869045	0.069928	0.074026
O7	O	1.113705	0.062213	0.074032
Zn8	Zn	0.991372	0.066072	0.097538
Zn9	Zn	0.991399	0.066058	-0.097543
O10	O	0.983754	0.136437	0.074010
C11	C	0.837765	0.069607	-0.000006
C12	C	0.744529	0.068662	-0.000008
C13	C	0.508183	0.112352	-0.000020
C14	C	0.457931	0.088797	0.072993
C15	C	0.573831	0.066910	-0.000005
C16	C	0.457956	0.088776	-0.072986
C17	C	0.408944	0.065222	-0.000007
C18	C	0.524807	0.043367	0.073068
C19	C	0.524835	0.043353	-0.072977
C20	C	0.474616	0.019764	0.000055
C21	C	0.668818	0.067884	-0.000004
C22	C	0.313960	0.064244	-0.000003
C23	C	0.998694	-0.022310	0.000020
C24	C	0.997750	-0.075970	0.000029
C25	C	0.991828	-0.408717	-0.080725
C26	C	0.988247	-0.610391	-0.080741
O27	O	0.987757	-0.636468	-0.149382
N28	N	0.987790	-0.635604	-0.000032
C29	C	0.988224	-0.610395	0.080687
O30	O	0.987745	-0.636468	0.149335
C31	C	0.991800	-0.408722	0.080702
C32	C	0.992264	-0.383512	-0.000012
C33	C	0.992292	-0.383507	-0.161433
C34	C	0.993192	-0.333092	-0.161428
C35	C	0.993628	-0.307887	-0.080715
C36	C	0.993164	-0.333098	-0.000008
C37	C	0.992227	-0.383514	0.161420
C38	C	0.993119	-0.333093	0.161416
C39	C	0.993584	-0.307883	0.080702
C40	C	0.994500	-0.257478	0.080710
N41	N	0.994956	-0.232264	0.000001
C42	C	0.994520	-0.257469	-0.080712
C43	C	0.986349	-0.716277	0.080674
C44	C	0.985456	-0.766695	0.080670
C45	C	0.985477	-0.766686	-0.080758
C46	C	0.986376	-0.716268	-0.080753
C47	C	0.986805	-0.691063	-0.000035
C48	C	0.996411	-0.151594	-0.080696
C49	C	0.997314	-0.101175	-0.080684
C50	C	0.997289	-0.101187	0.080744
C51	C	0.996390	-0.151603	0.080732
C52	C	0.995948	-0.176805	0.000005
O53	O	0.994981	-0.231368	0.149315
O54	O	0.994980	-0.231387	-0.149349
C55	C	0.990928	-0.459132	-0.080730
C56	C	0.990464	-0.484342	-0.000022
C57	C	0.990901	-0.459138	0.080691
C58	C	0.989572	-0.534761	-0.000025
C59	C	0.989136	-0.559965	-0.080738
C60	C	0.989592	-0.534752	-0.161447
C61	C	0.990492	-0.484337	-0.161442
C62	C	0.990445	-0.484351	0.161400
C63	C	0.989546	-0.534766	0.161388
C64	C	0.989109	-0.559971	0.080676
C65	C	1.145006	0.062523	-0.000002
C66	C	1.238242	0.063468	-0.000006
C67	C	0.984077	0.154440	-0.000027
C68	C	0.985020	0.208100	-0.000042
N69	N	0.991359	0.066081	0.230675
N70	N	0.991418	0.066045	-0.230681
C71	C	0.931261	0.100386	0.470348
C72	C	1.007038	0.109762	0.529681
C73	C	0.991381	0.066069	0.412282
C74	C	0.915625	0.056705	0.529691
C75	C	0.991395	0.066059	0.587706
C76	C	1.067196	0.075466	0.470309
C77	C	0.975733	0.022390	0.470313
C78	C	1.051565	0.031747	0.529619
C79	C	0.991372	0.066077	0.311225
C80	C	0.991413	0.066051	0.688761
H81	H	0.428769	0.107971	-0.134705
C82	C	0.997820	-0.073447	-0.169473
H83	H	0.997422	-0.095681	-0.217541
H84	H	1.047172	-0.057472	-0.172830
H85	H	0.949162	-0.050085	-0.172828
C86	C	0.991821	-0.411226	-0.250224
H87	H	0.992232	-0.388984	-0.298282
H88	H	0.942475	-0.427204	-0.253600
H89	H	1.040485	-0.434583	-0.253579
H90	H	0.554047	0.024172	-0.134696
C91	C	1.153766	0.086225	0.435227
H92	H	1.153223	0.086181	0.371985
H93	H	1.196495	0.061989	0.455994
H94	H	1.164979	0.117151	0.456049
H95	H	0.993456	-0.312573	0.227148
H96	H	0.962461	-0.014531	0.444215
H97	H	0.851553	0.048789	0.555777
H98	H	0.986753	-0.695745	-0.146478
C99	C	0.995948	-0.179311	-0.169493
H100	H	0.996366	-0.157071	-0.217553
H101	H	0.946603	-0.195290	-0.172875
H102	H	1.044613	-0.202668	-0.172838
C103	C	0.528591	0.165228	0.000050
H104	H	0.560019	0.170894	-0.051851
H105	H	0.560879	0.170687	0.051421
H106	H	0.477458	0.186724	0.000609
C107	C	1.024939	0.159652	0.564917
H108	H	1.075068	0.155817	0.599693
H109	H	0.978892	0.173291	0.600616
H110	H	1.031914	0.180626	0.516170
H111	H	0.553883	0.024193	0.134857
H112	H	0.993567	-0.312571	-0.227154
C113	C	0.984989	-0.794417	-0.169540
H114	H	0.984384	-0.828054	-0.157974
H115	H	1.034136	-0.789850	-0.202714
H116	H	0.936127	-0.782462	-0.202695
H117	H	1.102468	0.002720	0.555480
H118	H	0.991850	-0.404032	0.227146
H119	H	0.459675	-0.019408	0.000108
C120	C	0.418473	0.114726	0.156362
H121	H	0.429678	0.147602	0.156265
H122	H	0.442248	0.098911	0.208207
H123	H	0.359142	0.113671	0.156034
C124	C	0.984953	-0.794421	0.169456
H125	H	0.985332	-0.772184	0.217521
H126	H	1.033604	-0.817783	0.172820
H127	H	0.935594	-0.810394	0.172808
H128	H	0.986702	-0.695760	0.146408
C129	C	0.997764	-0.073455	0.169520
H130	H	0.998356	-0.039818	0.157956
H131	H	1.046610	-0.085408	0.202695
H132	H	0.948600	-0.078024	0.202674
C133	C	0.995881	-0.179335	0.169515
H134	H	0.996266	-0.157100	0.217584
H135	H	1.044526	-0.202701	0.172877
H136	H	0.946517	-0.195303	0.172863
C137	C	0.989108	-0.562484	-0.250228
H138	H	0.988499	-0.596120	-0.238662
H139	H	1.038258	-0.557918	-0.283398
H140	H	0.940249	-0.550527	-0.283388
H141	H	0.880470	0.129431	0.444324
H142	H	0.990870	-0.463816	-0.227168
H143	H	0.989174	-0.555288	0.227121
H144	H	0.990801	-0.463834	0.227127
