data_functionalizedCrystal
_audit_creation_method	'MofGen! by Chris Wilmer'
_symmetry_space_group_name_H-M	'P1'
_symmetry_Int_Tables_number	1
_symmetry_cell_setting	triclinic
loop_
_symmetry_equiv_pos_as_xyz
  x,y,z
_cell_length_a	10.654545
_cell_length_b	17.019294
_cell_length_c	9.130313
_cell_angle_alpha	86.116514
_cell_angle_beta	89.996934
_cell_angle_gamma	83.937426
loop_
_atom_site_label
_atom_site_type_symbol
_atom_site_fract_x
_atom_site_fract_y
_atom_site_fract_z
O1	O	1.666108	0.110778	-0.135754
O2	O	1.300464	0.121337	-0.137092
O3	O	1.493486	0.001280	-0.121940
O4	O	1.473085	0.230834	-0.150906
O5	O	1.493473	0.001277	0.121660
O6	O	1.300450	0.121334	0.106508
O7	O	1.666095	0.110774	0.107845
Cu8	Cu	1.483271	0.116054	0.129419
Cu9	Cu	1.483287	0.116058	-0.158665
O10	O	1.473072	0.230831	0.092693
C11	C	1.253671	0.120561	-0.015195
C12	C	1.114264	0.118243	-0.014905
C13	C	1.048769	0.117150	0.118020
C14	C	0.917784	0.114960	0.118296
C15	C	0.917799	0.114958	-0.147289
C16	C	1.048783	0.117143	-0.147563
C17	C	1.492706	-0.028115	0.003566
C18	C	1.490385	-0.115698	0.014608
C19	C	1.489305	-0.156838	-0.112989
C20	C	1.487117	-0.239131	-0.102609
C21	C	1.486018	-0.280283	0.035370
C22	C	1.487094	-0.239137	0.162976
C23	C	1.489273	-0.156845	0.152595
C24	C	1.479429	-0.528752	0.073358
C25	C	1.477253	-0.611050	0.083730
C26	C	1.477274	-0.611039	-0.181857
C27	C	1.479461	-0.528746	-0.192226
C28	C	1.480530	-0.487606	-0.064619
C29	C	1.483785	-0.364400	0.045983
C30	C	1.482754	-0.403490	-0.075234
C31	C	1.712887	0.111550	-0.014054
C32	C	1.852295	0.113868	-0.014354
C33	C	1.473853	0.260226	-0.032816
C34	C	1.476173	0.347809	-0.043867
N35	N	1.483270	0.116050	0.332042
N36	N	1.483299	0.116055	-0.361288
C37	C	1.568769	0.062912	0.415400
C38	C	1.568781	0.062912	0.568737
C39	C	1.397791	0.169196	0.555343
C40	C	1.397774	0.169191	0.402010
H41	H	1.102080	0.118046	0.226038
O42	O	0.854274	0.113762	-0.276169
C43	C	0.828619	0.044913	-0.494525
C44	C	0.900633	0.046155	-0.348587
H45	H	0.866090	-0.009732	-0.553131
H46	H	0.723744	0.043117	-0.471585
H47	H	0.842767	0.100477	-0.566950
H48	H	0.886589	-0.009397	-0.276091
H49	H	1.005482	0.047992	-0.371636
H50	H	0.864464	0.114070	0.226536
O51	O	1.314577	0.220737	0.623261
C52	C	1.096144	0.265713	0.664483
C53	C	1.190244	0.207284	0.587511
H54	H	0.995602	0.254867	0.635584
H55	H	1.110737	0.256589	0.788410
H56	H	1.112444	0.328984	0.626354
H57	H	1.174002	0.143989	0.625520
H58	H	1.175630	0.216477	0.463596
H59	H	1.480325	-0.495268	0.177265
O60	O	1.486084	-0.279236	0.296895
C61	C	1.482664	-0.406009	0.430594
C62	C	1.483825	-0.360700	0.278837
H63	H	1.480811	-0.471879	0.416046
H64	H	1.570952	-0.396626	0.494910
H65	H	1.395268	-0.383050	0.493185
H66	H	1.571162	-0.383630	0.216125
H67	H	1.395479	-0.370083	0.214633
H68	H	1.480357	-0.495246	-0.304583
O69	O	1.112498	0.118068	-0.276639
C70	C	1.274809	0.052341	-0.422424
C71	C	1.202730	0.051190	-0.276206
H72	H	1.347796	-0.001715	-0.422110
H73	H	1.205578	0.051137	-0.517244
H74	H	1.324475	0.108495	-0.436126
H75	H	1.153060	-0.004954	-0.262362
H76	H	1.272021	0.052437	-0.181461
H77	H	1.482894	-0.397916	0.158326
O78	O	1.490315	-0.116984	-0.247140
C79	C	1.490172	-0.125674	-0.509467
C80	C	1.489002	-0.170900	-0.357632
H81	H	1.489137	-0.169247	-0.598840
H82	H	1.403329	-0.080428	-0.521917
H83	H	1.579016	-0.093862	-0.520041
H84	H	1.400216	-0.202759	-0.346954
H85	H	1.575904	-0.216101	-0.345249
O86	O	1.485862	-0.279102	-0.226531
C87	C	1.374740	-0.363687	-0.370036
C88	C	1.375981	-0.318450	-0.229639
H89	H	1.285924	-0.395525	-0.372580
H90	H	1.375833	-0.320156	-0.470470
H91	H	1.461608	-0.408918	-0.370947
H92	H	1.289128	-0.273219	-0.228585
H93	H	1.374953	-0.362029	-0.129269
H94	H	1.476400	-0.644544	-0.285747
O95	O	1.476126	-0.650900	0.217886
C96	C	1.476399	-0.642237	0.480218
C97	C	1.477644	-0.597007	0.328392
H98	H	1.477653	-0.598687	0.569603
H99	H	1.387518	-0.674006	0.490950
H100	H	1.563203	-0.687521	0.492493
H101	H	1.390901	-0.551686	0.316014
H102	H	1.566582	-0.565292	0.317728
H103	H	1.490135	-0.123348	0.256499
H104	H	1.483641	-0.369980	-0.187576
H105	H	1.638383	0.019640	0.358437
H106	H	1.638400	0.019641	0.636604
H107	H	1.328144	0.212464	0.334134
