data_functionalizedCrystal
_audit_creation_method	'MofGen! by Chris Wilmer'
_symmetry_space_group_name_H-M	'P1'
_symmetry_Int_Tables_number	1
_symmetry_cell_setting	triclinic
loop_
_symmetry_equiv_pos_as_xyz
  x,y,z
_cell_length_a	12.594517
_cell_length_b	12.594516
_cell_length_c	13.032268
_cell_angle_alpha	97.151307
_cell_angle_beta	97.162024
_cell_angle_gamma	90.011616
loop_
_atom_site_label
_atom_site_type_symbol
_atom_site_fract_x
_atom_site_fract_y
_atom_site_fract_z
Zn1	Zn	1.550828	-0.500141	-0.590891
Zn2	Zn	2.050828	-0.000141	-0.090891
Zn3	Zn	1.573345	-0.655551	-0.416158
Zn4	Zn	2.073345	-0.155551	0.083842
Zn5	Zn	1.395445	-0.477587	-0.416164
Zn6	Zn	1.895445	0.022413	0.083836
Zn7	Zn	1.372834	-0.678071	-0.590845
Zn8	Zn	1.872834	-0.178071	-0.090845
O9	O	1.473113	-0.577838	-0.503515
O10	O	1.973113	-0.077838	-0.003515
O11	O	1.702759	-0.520770	-0.567729
O12	O	2.202759	-0.020770	-0.067729
O13	O	1.568633	-0.613081	-0.269928
O14	O	2.068633	-0.113081	0.230072
O15	O	1.416096	-0.331636	-0.439364
O16	O	1.916096	0.168364	0.060636
O17	O	1.719302	-0.634950	-0.439354
O18	O	2.219302	-0.134950	0.060646
O19	O	1.530256	-0.348206	-0.567735
O20	O	2.030256	0.151794	-0.067735
O21	O	1.437930	-0.482331	-0.269933
O22	O	1.937930	0.017669	0.230067
O23	O	1.243502	-0.504168	-0.439319
O24	O	1.743502	-0.004168	0.060681
O25	O	1.377559	-0.673332	-0.737081
O26	O	1.877559	-0.173332	-0.237081
O27	O	1.226890	-0.651462	-0.567656
O28	O	1.726890	-0.151462	-0.067656
O29	O	1.508331	-0.542607	-0.737116
O30	O	2.008331	-0.042607	-0.237116
O31	O	1.546708	-0.807482	-0.439309
O32	O	2.046708	-0.307482	0.060691
O33	O	1.399393	-0.824027	-0.567650
O34	O	1.899393	-0.324027	-0.067650
C35	C	1.196576	-0.577812	-0.503484
C36	C	1.696576	-0.077812	-0.003484
C37	C	1.078269	-0.577830	-0.503495
C38	C	1.578269	-0.077830	-0.003495
C39	C	1.473066	-0.854376	-0.503496
C40	C	1.973066	-0.354376	-0.003496
C41	C	1.473139	-0.972685	-0.503524
C42	C	1.973139	-0.472685	-0.003524
C43	C	1.018003	-0.497637	-0.433826
C44	C	1.518003	0.002363	0.066174
C45	C	0.950526	-0.591401	-0.408124
C46	C	1.450526	-0.091401	0.091876
C47	C	0.934945	-0.484116	-0.529215
C48	C	1.434945	0.015884	-0.029215
C49	C	1.012356	-0.671639	-0.477743
C50	C	1.512356	-0.171639	0.022257
C51	C	0.996777	-0.564294	-0.598879
C52	C	1.496777	-0.064294	-0.098879
C53	C	0.929326	-0.658130	-0.573213
C54	C	1.429326	-0.158130	-0.073213
C55	C	1.553336	-1.032910	-0.433793
C56	C	2.053336	-0.532910	0.066207
C57	C	1.567004	-1.115943	-0.529172
C58	C	2.067004	-0.615943	-0.029172
C59	C	1.459597	-1.100459	-0.408206
C60	C	1.959597	-0.600459	0.091794
C61	C	1.486849	-1.054166	-0.598952
C62	C	1.986849	-0.554166	-0.098952
C63	C	1.379406	-1.038668	-0.477922
C64	C	1.879406	-0.538668	0.022078
C65	C	1.393027	-1.121677	-0.573366
C66	C	1.893027	-0.621677	-0.073366
C67	C	1.750730	-0.577864	-0.503546
C68	C	2.250730	-0.077864	-0.003546
C69	C	1.869034	-0.577875	-0.503559
C70	C	2.369034	-0.077875	-0.003559
C71	C	1.437911	-0.612997	-0.776075
C72	C	1.937911	-0.112997	-0.276075
C73	C	1.422910	-0.627980	-0.892224
C74	C	1.922910	-0.127980	-0.392224
C75	C	1.473186	-0.300222	-0.503556
C76	C	1.973186	0.199778	-0.003556
C77	C	1.473217	-0.181919	-0.503573
C78	C	1.973217	0.318081	-0.003573
C79	C	1.480926	-0.569980	-0.944023
C80	C	1.980926	-0.069980	-0.444023
C81	C	1.465423	-0.585464	-1.064069
C82	C	1.965423	-0.085464	-0.564069
C83	C	1.508239	-0.542738	-0.232015
C84	C	2.008239	-0.042738	0.267985
C85	C	1.523446	-0.527456	-0.115866
C86	C	2.023446	-0.027456	0.384134
H87	H	1.056654	-0.429870	-0.374836
H88	H	1.556654	0.070130	0.125164
H89	H	1.448109	-1.121201	-0.327576
H90	H	1.948109	-0.621201	0.172424
Cl91	Cl	1.328496	-0.722341	-0.960959
Cl92	Cl	1.828496	-0.222341	-0.460959
Cl93	Cl	1.504745	-1.022357	-0.723471
Cl94	Cl	2.004745	-0.522357	-0.223471
Cl95	Cl	1.257008	-0.986385	-0.444407
Cl96	Cl	1.757008	-0.486385	0.055593
Cl97	Cl	0.882615	-0.361730	-0.562759
Cl98	Cl	1.382615	0.138270	-0.062759
Cl99	Cl	1.064490	-0.794047	-0.444052
Cl100	Cl	1.564490	-0.294047	0.055948
Cl101	Cl	1.617875	-0.433098	-1.047138
Cl102	Cl	2.117875	0.066902	-0.547138
Cl103	Cl	1.371004	-0.679829	-1.132801
Cl104	Cl	1.871004	-0.179829	-0.632801
Cl105	Cl	1.575308	-0.475586	-0.875288
Cl106	Cl	2.075308	0.024414	-0.375288
H107	H	1.621160	-0.994240	-0.374878
H108	H	2.121160	-0.494240	0.125122
H109	H	1.646304	-1.149782	-0.550854
H110	H	2.146304	-0.649782	-0.050854
Cl111	Cl	1.288357	-1.181113	-0.664543
Cl112	Cl	1.788357	-0.681113	-0.164543
H113	H	0.890877	-0.726035	-0.632158
H114	H	1.390877	-0.226035	-0.132158
Cl115	Cl	1.028813	-0.546526	-0.723342
Cl116	Cl	1.528813	-0.046526	-0.223342
H117	H	0.929804	-0.602879	-0.327487
H118	H	1.429804	-0.102879	0.172513
