data_functionalizedCrystal
_audit_creation_method	'MofGen! by Chris Wilmer'
_symmetry_space_group_name_H-M	'P1'
_symmetry_Int_Tables_number	1
_symmetry_cell_setting	triclinic
loop_
_symmetry_equiv_pos_as_xyz
  x,y,z
_cell_length_a	23.532361
_cell_length_b	22.010155
_cell_length_c	9.065218
_cell_angle_alpha	89.993828
_cell_angle_beta	83.922777
_cell_angle_gamma	90.004127
loop_
_atom_site_label
_atom_site_type_symbol
_atom_site_fract_x
_atom_site_fract_y
_atom_site_fract_z
O1	O	0.756593	0.050462	0.178726
O2	O	0.590917	0.050476	0.204708
O3	O	0.677180	0.050468	-0.023095
O4	O	0.670331	0.050471	0.406530
O5	O	0.677164	-0.050583	-0.023061
O6	O	0.590901	-0.050574	0.204742
O7	O	0.756577	-0.050588	0.178760
Cu8	Cu	0.673738	-0.059808	0.191754
Cu9	Cu	0.673756	0.059696	0.191714
O10	O	0.670315	-0.050580	0.406564
C11	C	0.569688	-0.000047	0.204075
C12	C	0.506455	-0.000042	0.202118
C13	C	0.233157	0.055037	0.193543
C14	C	0.292570	0.055039	0.195395
O15	O	0.323310	0.101883	0.196286
N16	N	0.322274	-0.000044	0.196349
C17	C	0.292562	-0.055132	0.195436
O18	O	0.323284	-0.101984	0.196416
C19	C	0.233151	-0.055133	0.193574
C20	C	0.203449	-0.000046	0.192635
C21	C	0.203455	0.110119	0.192603
C22	C	0.144046	0.110117	0.190754
C23	C	0.114338	0.055034	0.189845
C24	C	0.144040	-0.000048	0.190786
C25	C	0.203440	-0.110220	0.192650
C26	C	0.144025	-0.110216	0.190787
C27	C	0.114323	-0.055130	0.189848
C28	C	0.054922	-0.055134	0.188029
N29	N	0.025218	-0.000051	0.187075
C30	C	0.054926	0.055033	0.187983
C31	C	0.417331	-0.055126	0.199345
C32	C	0.476741	-0.055126	0.201218
C33	C	0.476745	0.055045	0.201174
C34	C	0.417333	0.055044	0.199311
C35	C	0.387627	-0.000043	0.198391
C36	C	-0.069838	0.055025	0.184101
C37	C	-0.129253	0.055018	0.182258
C38	C	-0.129251	-0.055152	0.182295
C39	C	-0.069842	-0.055146	0.184145
C40	C	-0.040136	-0.000052	0.185044
O41	O	0.024145	-0.101954	0.187131
O42	O	0.024199	0.101877	0.186983
N43	N	0.673729	-0.143860	0.191782
C44	C	0.711956	-0.563644	0.090857
C45	C	0.711958	-0.627251	0.090847
O46	O	0.744438	-0.660146	0.005056
N47	N	0.673756	-0.659068	0.191683
C48	C	0.635544	-0.627273	0.292527
O49	O	0.603050	-0.660176	0.378294
C50	C	0.635539	-0.563667	0.292528
C51	C	0.673748	-0.531854	0.191695
C52	C	0.750161	-0.531831	-0.009969
C53	C	0.750159	-0.468227	-0.009957
C54	C	0.711952	-0.436437	0.090882
C55	C	0.673746	-0.468250	0.191708
C56	C	0.597326	-0.531873	0.393364
C57	C	0.597324	-0.468262	0.393356
C58	C	0.635533	-0.436449	0.292523
C59	C	0.635537	-0.372857	0.292559
N60	N	0.673740	-0.341041	0.191722
C61	C	0.711947	-0.372831	0.090883
C62	C	0.635557	-0.760851	0.292513
C63	C	0.635564	-0.824456	0.292519
C64	C	0.711978	-0.824430	0.090837
C65	C	0.711973	-0.760824	0.090839
C66	C	0.673759	-0.729034	0.191676
C67	C	0.711940	-0.239259	0.090918
C68	C	0.711936	-0.175651	0.090943
C69	C	0.635521	-0.175682	0.292620
C70	C	0.635527	-0.239286	0.292600
C71	C	0.673738	-0.271073	0.191737
O72	O	0.603073	-0.339922	0.378302
O73	O	0.744431	-0.339920	0.005117
C74	C	0.777807	-0.000064	0.179394
C75	C	0.841039	-0.000065	0.181350
C76	C	0.676513	-0.000057	-0.078032
C77	C	0.674545	-0.000054	-0.241777
N78	N	0.673770	0.143748	0.191675
C79	C	0.670981	-0.000054	0.461501
C80	C	0.672949	-0.000053	0.625246
H81	H	0.119868	0.154974	0.189982
Cl82	Cl	0.760007	-0.720837	-0.035931
H83	H	-0.153450	-0.100000	0.181561
Cl84	Cl	0.587491	-0.135707	0.419384
H85	H	0.743088	-0.850325	0.008727
H86	H	0.604441	-0.734971	0.374639
Cl87	Cl	0.587536	-0.864442	0.419305
Cl88	Cl	0.549288	-0.571854	0.520128
Cl89	Cl	-0.032502	-0.124398	0.185345
Cl90	Cl	-0.166588	0.124275	0.181081
Cl91	Cl	0.549280	-0.428304	0.520130
H92	H	0.227613	-0.155077	0.193410
Cl93	Cl	0.106684	-0.179474	0.189621
H94	H	0.227637	0.154977	0.193337
H95	H	0.604419	-0.265188	0.374722
H96	H	-0.045659	0.099887	0.184835
Cl97	Cl	0.759979	-0.279210	-0.035881
Cl98	Cl	0.514103	0.124294	0.202318
Cl99	Cl	0.380001	0.124298	0.198126
Cl100	Cl	0.379991	-0.124386	0.198209
Cl101	Cl	0.798191	-0.428241	-0.136733
Cl102	Cl	0.514072	-0.124380	0.202429
H103	H	0.743053	-0.149750	0.008833
H104	H	0.781274	-0.557709	-0.092091
