data_functionalizedCrystal
_audit_creation_method	'MofGen! by Chris Wilmer'
_symmetry_space_group_name_H-M	'P1'
_symmetry_Int_Tables_number	1
_symmetry_cell_setting	triclinic
loop_
_symmetry_equiv_pos_as_xyz
  x,y,z
_cell_length_a	6.817900
_cell_length_b	11.102294
_cell_length_c	9.514088
_cell_angle_alpha	88.634503
_cell_angle_beta	118.843545
_cell_angle_gamma	108.605785
loop_
_atom_site_label
_atom_site_type_symbol
_atom_site_fract_x
_atom_site_fract_y
_atom_site_fract_z
V1	V	-4.243922	-0.178092	-0.500741
O2	O	-4.200435	0.006240	-0.491211
O3	O	-4.219793	-0.350897	-0.497315
O4	O	-4.278444	-0.176370	-0.719132
O5	O	-4.141378	-0.169495	-0.267858
V6	V	-4.713660	-0.155924	-0.472887
O7	O	-4.535419	-0.226720	-0.561842
O8	O	-4.872361	-0.107295	-0.411785
O9	O	-4.514583	0.016881	-0.476313
O10	O	-4.874544	-0.340255	-0.482417
O11	O	-4.933601	-0.164520	-0.705770
O12	O	-4.455932	-0.157646	-0.254495
C13	C	-4.068015	-0.392991	-0.489415
C14	C	-4.130126	-0.534267	-0.488069
C15	C	-4.403796	-0.739904	-0.494207
C16	C	-4.345439	-0.607158	-0.495453
C17	C	-3.973150	-0.594128	-0.479422
C18	C	-4.031501	-0.726870	-0.478164
C19	C	-4.142829	-0.170363	-0.772363
C20	C	-4.252498	-0.170098	-0.950899
C21	C	-4.329702	0.058969	-0.484209
C22	C	-4.246834	0.200244	-0.485565
C23	C	-4.254887	-0.163657	-0.201256
C24	C	-4.124454	-0.163915	-0.022718
H25	H	-3.797827	-0.534768	-0.473399
H26	H	-3.930936	-0.158835	-0.947622
O27	O	-4.483527	-0.176403	-1.040466
C28	C	-4.896360	-0.297915	-1.127808
C29	C	-4.634837	-0.290948	-1.026338
H30	H	-5.018763	-0.390505	-1.116392
H31	H	-4.946822	-0.296699	-1.260705
H32	H	-4.917083	-0.211638	-1.081351
H33	H	-4.613920	-0.377208	-1.072652
H34	H	-4.584496	-0.292103	-0.893456
O35	O	-3.878903	-0.785039	-0.469484
C36	C	-3.634705	-0.909542	-0.319020
C37	C	-3.807443	-0.843698	-0.328640
H38	H	-3.576918	-0.957007	-0.205175
H39	H	-3.470661	-0.834691	-0.313850
H40	H	-3.728803	-0.985755	-0.430997
H41	H	-3.713557	-0.767493	-0.216691
H42	H	-3.971476	-0.918625	-0.333890
H43	H	-4.473256	-0.558432	-0.502486
O44	O	-4.613114	-0.810797	-0.501660
C45	C	-4.989138	-0.986151	-0.649253
C46	C	-4.752212	-0.905954	-0.641040
H47	H	-5.101643	-1.063121	-0.761914
H48	H	-5.091470	-0.920639	-0.655744
H49	H	-4.949612	-1.034119	-0.536093
H50	H	-4.791523	-0.857975	-0.754172
H51	H	-4.649951	-0.971527	-0.634468
