data_functionalizedCrystal
_audit_creation_method	'MofGen! by Chris Wilmer'
_symmetry_space_group_name_H-M	'P1'
_symmetry_Int_Tables_number	1
_symmetry_cell_setting	triclinic
loop_
_symmetry_equiv_pos_as_xyz
  x,y,z
_cell_length_a	23.204063
_cell_length_b	23.204065
_cell_length_c	23.204116
_cell_angle_alpha	59.997987
_cell_angle_beta	89.998953
_cell_angle_gamma	60.000253
loop_
_atom_site_label
_atom_site_type_symbol
_atom_site_fract_x
_atom_site_fract_y
_atom_site_fract_z
O1	O	-0.491197	-0.412484	0.017135
O2	O	-0.407392	-0.294473	-0.017070
O3	O	-0.407389	-0.412483	0.100940
O4	O	-0.491200	-0.294474	-0.100875
O5	O	-0.311538	-0.508333	0.100940
O6	O	-0.311541	-0.390323	-0.017071
O7	O	-0.395346	-0.508335	0.017135
Cu8	Cu	-0.344692	-0.458081	0.000032
Cu9	Cu	-0.458046	-0.344727	0.000033
O10	O	-0.395349	-0.390324	-0.100876
C11	C	-0.310652	-0.181456	-0.024838
C12	C	-0.346214	-0.110333	-0.019942
C13	C	-0.241294	-0.215971	-0.025323
C14	C	-0.310655	-0.285810	-0.024846
C15	C	-0.346219	-0.326263	-0.019957
C16	C	-0.241297	-0.320167	-0.025331
C17	C	-0.206293	-0.285815	-0.024838
C18	C	-0.130274	-0.326273	-0.019941
C19	C	-0.345497	-0.215967	-0.025331
C20	C	-0.658540	-0.590043	0.035860
C21	C	-0.734559	-0.549588	0.030967
C22	C	-0.623539	-0.659889	0.036349
C23	C	-0.554183	-0.590040	0.035855
C24	C	-0.518621	-0.549582	0.030958
C25	C	-0.519339	-0.659886	0.036344
C26	C	-0.554182	-0.694402	0.035859
C27	C	-0.518619	-0.765527	0.030967
C28	C	-0.623539	-0.555686	0.036345
C29	C	-0.489889	-0.822989	0.027012
C30	C	-0.795974	-0.516903	0.027013
C31	C	-0.489891	-0.516895	0.027000
C32	C	-0.453845	-0.895077	0.022052
C33	C	-0.873022	-0.475899	0.022054
C34	C	-0.453848	-0.475888	0.022036
C35	C	-0.554187	-0.212776	-0.445775
C36	C	-0.518624	-0.253233	-0.481336
C37	C	-0.623545	-0.142931	-0.480619
C38	C	-0.554188	-0.212775	-0.341416
C39	C	-0.518626	-0.253231	-0.265397
C40	C	-0.623546	-0.142930	-0.376419
C41	C	-0.658547	-0.108416	-0.445777
C42	C	-0.734566	-0.037291	-0.481340
C43	C	-0.519344	-0.247131	-0.376417
C44	C	-0.795982	0.020169	-0.510072
C45	C	-0.489893	-0.285920	-0.510065
C46	C	-0.489896	-0.285917	-0.203980
C47	C	-0.873032	0.092257	-0.546117
C48	C	-0.453848	-0.326925	-0.546108
C49	C	-0.453852	-0.326922	-0.126930
O50	O	0.100922	-0.508345	0.017151
O51	O	-0.100892	-0.390333	-0.017055
O52	O	0.017109	-0.508348	0.100956
O53	O	-0.017080	-0.390330	-0.100860
O54	O	0.017112	-0.412502	0.100963
O55	O	-0.100890	-0.294486	-0.017048
O56	O	0.100924	-0.412499	0.017158
Cu57	Cu	0.000018	-0.344741	0.000056
Cu58	Cu	0.000014	-0.458090	0.000048
O59	O	-0.017077	-0.294483	-0.100853
O60	O	-0.395342	0.083766	0.017156
O61	O	-0.311534	-0.083842	-0.017048
O62	O	-0.311538	-0.083852	0.100962
O63	O	-0.395338	0.083777	-0.100854
O64	O	-0.407391	-0.083849	0.100954
O65	O	-0.407387	-0.083839	-0.017056
O66	O	-0.491195	0.083770	0.017149
Cu67	Cu	-0.458043	-0.000034	0.000046
Cu68	Cu	-0.344686	-0.000038	0.000055
O69	O	-0.491191	0.083780	-0.100861
O70	O	-1.100901	0.281028	-0.592582
O71	O	-0.899087	0.113413	-0.508770
O72	O	-1.017091	0.113409	-0.508767
O73	O	-0.982897	0.281032	-0.592584
O74	O	-1.017088	0.113407	-0.604617
O75	O	-0.899085	0.113411	-0.604619
O76	O	-1.100898	0.281026	-0.688432
Cu77	Cu	-0.999991	0.197218	-0.655277
Cu78	Cu	-0.999994	0.197221	-0.541924
O79	O	-0.982895	0.281030	-0.688434
O80	O	-0.407389	-0.412483	-0.688416
O81	O	-0.491197	-0.294477	-0.604610
O82	O	-0.491195	-0.412486	-0.604605
O83	O	-0.407390	-0.294474	-0.688421
O84	O	-0.395343	-0.508338	-0.508754
O85	O	-0.395345	-0.390329	-0.508759
O86	O	-0.311537	-0.508334	-0.592565
Cu87	Cu	-0.344689	-0.458084	-0.541910
Cu88	Cu	-0.458045	-0.344728	-0.655265
O89	O	-0.311539	-0.390326	-0.592570
C90	C	-0.206294	-0.621360	0.310702
C91	C	-0.130275	-0.692485	0.346265
C92	C	-0.241296	-0.586846	0.345545
C93	C	-0.310654	-0.517001	0.206342
C94	C	-0.346216	-0.476544	0.130323
C95	C	-0.345497	-0.482645	0.241343
C96	C	-0.310653	-0.517001	0.310701
C97	C	-0.346216	-0.476544	0.346263
C98	C	-0.241296	-0.586846	0.241345
C99	C	0.024887	-0.517030	0.310724
C100	C	0.019993	-0.476577	0.346290
C101	C	0.025371	-0.586874	0.345565
C102	C	0.024889	-0.517022	0.206362
C103	C	0.019998	-0.476562	0.130342
C104	C	0.025374	-0.586867	0.241361
C105	C	0.024884	-0.621384	0.310718
C106	C	0.019987	-0.692509	0.346278
C107	C	0.025377	-0.482671	0.241366
C108	C	-0.310656	-0.285855	0.310709
C109	C	-0.346220	-0.326314	0.346266
C110	C	-0.241298	-0.320218	0.345555
C111	C	-0.310655	-0.181484	0.206357
C112	C	-0.346217	-0.110348	0.130340
C113	C	-0.241296	-0.216005	0.241362
C114	C	-0.206295	-0.285860	0.310717
C115	C	-0.130275	-0.326323	0.346282
C116	C	-0.345499	-0.216001	0.241354
C117	C	-0.035774	-0.108410	-0.445754
C118	C	-0.030877	-0.037285	-0.481314
C119	C	-0.036262	-0.142920	-0.480600
C120	C	-0.035780	-0.212771	-0.341397
C121	C	-0.030889	-0.253231	-0.265377
C122	C	-0.036268	-0.247124	-0.376401
C123	C	-0.035777	-0.212765	-0.445759
C124	C	-0.030883	-0.253218	-0.481324
C125	C	-0.036265	-0.142927	-0.376396
C126	C	-0.026928	-0.285901	-0.510056
C127	C	-0.026920	0.020175	-0.510042
C128	C	-0.026936	-0.285920	-0.203961
C129	C	-0.021967	-0.326903	-0.546103
C130	C	-0.021955	0.092262	-0.546083
C131	C	-0.021978	-0.326928	-0.126911
O132	O	-0.017120	-0.390358	0.491266
O133	O	0.017098	-0.508368	0.407461
O134	O	-0.100916	-0.390357	0.407446
O135	O	0.100893	-0.508369	0.491281
O136	O	-0.100904	-0.294507	0.311599
O137	O	0.017110	-0.412518	0.311614
O138	O	-0.017109	-0.294509	0.395420
Cu139	Cu	0.000001	-0.344761	0.344766
Cu140	Cu	-0.000012	-0.458115	0.458115
O141	O	0.100905	-0.412519	0.395435
C142	C	-0.658539	0.410016	-0.445751
C143	C	-0.734559	0.450479	-0.481316
C144	C	-0.623536	0.444375	-0.480590
C145	C	-0.554179	0.305641	-0.341392
C146	C	-0.518616	0.234505	-0.265374
C147	C	-0.519335	0.340158	-0.376388
C148	C	-0.554178	0.410013	-0.445743
C149	C	-0.518614	0.450471	-0.481300
C150	C	-0.623537	0.340162	-0.376396
C151	C	-0.489883	0.483159	-0.510025
C152	C	-0.795975	0.483170	-0.510049
C153	C	-0.489886	0.177036	-0.203959
C154	C	-0.453838	0.524167	-0.546063
C155	C	-0.873025	0.524182	-0.546095
C156	C	-0.453842	0.104937	-0.126912
H157	H	-0.402486	-0.187075	-0.026121
C158	C	-0.037336	-0.323045	-0.338443
C159	C	-0.098828	-0.319605	-0.368896
C160	C	-0.099898	-0.395521	-0.330940
C161	C	-0.039476	-0.474877	-0.262532
C162	C	0.022021	-0.478320	-0.232075
C163	C	0.023091	-0.402403	-0.270031
H164	H	-0.143559	-0.260859	-0.419539
H165	H	-0.145422	-0.392973	-0.353486
H166	H	-0.040268	-0.531075	-0.234435
H167	H	0.066753	-0.537066	-0.181432
H168	H	0.068615	-0.404952	-0.247485
H169	H	-0.213198	-0.376369	-0.026116
C170	C	-0.203339	-0.625856	0.203372
C171	C	-0.134940	-0.633821	0.192420
C172	C	-0.096987	-0.672823	0.154444
C173	C	-0.127434	-0.703860	0.127421
C174	C	-0.195837	-0.695896	0.138373
C175	C	-0.233789	-0.656894	0.176349
H176	H	-0.112398	-0.610845	0.212424
H177	H	-0.046351	-0.678718	0.146337
H178	H	-0.099339	-0.732732	0.099309
H179	H	-0.218378	-0.718872	0.118369
H180	H	-0.284426	-0.650998	0.184456
H181	H	-0.402486	-0.187114	0.213252
C182	C	-0.203350	-0.625868	0.422536
C183	C	-0.176334	-0.714376	0.480592
C184	C	-0.138397	-0.753396	0.557582
C185	C	-0.127477	-0.703908	0.576515
C186	C	-0.154494	-0.615394	0.518457
C187	C	-0.192430	-0.576374	0.441467
H188	H	-0.184417	-0.751015	0.466578
H189	H	-0.118398	-0.818920	0.600560
H190	H	-0.099394	-0.732792	0.633507
H191	H	-0.146411	-0.578755	0.532471
H192	H	-0.212430	-0.510851	0.398489
H193	H	-0.462354	-0.688766	0.037124
H194	H	-0.213202	-0.376423	0.402543
C195	C	-0.442349	0.301136	-0.338429
C196	C	-0.384295	0.270109	-0.368885
C197	C	-0.307313	0.231092	-0.330931
C198	C	-0.288385	0.223102	-0.262521
C199	C	-0.346441	0.254130	-0.232061
C200	C	-0.423423	0.293147	-0.270015
H201	H	-0.398305	0.276022	-0.419530
H202	H	-0.264336	0.208123	-0.353479
H203	H	-0.231398	0.194219	-0.234425
H204	H	-0.332431	0.248216	-0.181416
H205	H	-0.466400	0.316116	-0.247467
C206	C	-0.661501	0.301140	-0.338433
C207	C	-0.623003	0.224146	-0.261982
C208	C	-0.660965	0.185127	-0.224017
C209	C	-0.737424	0.223101	-0.262502
C210	C	-0.775926	0.300099	-0.338956
C211	C	-0.737964	0.339119	-0.376922
H212	H	-0.566399	0.196031	-0.233489
H213	H	-0.632463	0.128127	-0.167420
H214	H	-0.765526	0.194217	-0.234397
H215	H	-0.832530	0.328214	-0.367449
H216	H	-0.766467	0.396118	-0.433519
C217	C	-0.422481	-0.406718	0.203379
C218	C	-0.441401	-0.327375	0.192448
C219	C	-0.518381	-0.251449	0.154485
C220	C	-0.576441	-0.254866	0.127453
C221	C	-0.557523	-0.334213	0.138383
C222	C	-0.480543	-0.410138	0.176347
H223	H	-0.398419	-0.324842	0.212459
H224	H	-0.532385	-0.192712	0.146393
H225	H	-0.633426	-0.198662	0.099350
H226	H	-0.600504	-0.336745	0.118372
H227	H	-0.466538	-0.468876	0.184438
C228	C	-0.037321	-0.103897	-0.557586
C229	C	-0.037842	-0.026918	-0.596078
C230	C	-0.038902	0.012102	-0.673061
C231	C	-0.039442	-0.025855	-0.711552
C232	C	-0.038921	-0.102838	-0.673060
C233	C	-0.037861	-0.141859	-0.596077
H234	H	-0.037442	0.001184	-0.567584
H235	H	-0.039287	0.069090	-0.701554
H236	H	-0.040227	0.003031	-0.768540
H237	H	-0.039321	-0.130940	-0.701554
H238	H	-0.037476	-0.198846	-0.567584
C239	C	-0.203323	-0.176960	-0.026377
C240	C	-0.192373	-0.168992	0.034055
C241	C	-0.154400	-0.129986	0.033002
C242	C	-0.127377	-0.098947	-0.028483
C243	C	-0.138326	-0.106914	-0.088920
C244	C	-0.176299	-0.145920	-0.087867
H245	H	-0.212378	-0.191969	0.079575
H246	H	-0.146295	-0.124088	0.077742
H247	H	-0.099267	-0.070072	-0.029263
H248	H	-0.118321	-0.083936	-0.134439
H249	H	-0.184404	-0.151817	-0.132607
C250	C	-0.037324	-0.103912	-0.338427
C251	C	-0.037843	-0.026935	-0.376909
C252	C	-0.038902	0.012077	-0.338940
C253	C	-0.039443	-0.025889	-0.262489
C254	C	-0.038925	-0.102870	-0.224003
C255	C	-0.037865	-0.141882	-0.261972
H256	H	-0.037443	0.001174	-0.433506
H257	H	-0.039286	0.069064	-0.367430
H258	H	-0.040227	0.002990	-0.234382
H259	H	-0.039325	-0.130979	-0.167406
H260	H	-0.037482	-0.198868	-0.233482
C261	C	-0.661504	-0.698903	0.037392
C262	C	-0.623008	-0.775883	0.037916
C263	C	-0.660973	-0.814891	0.038949
C264	C	-0.737433	-0.776920	0.039457
C265	C	-0.775933	-0.699936	0.038933
C266	C	-0.737968	-0.660928	0.037900
H267	H	-0.566404	-0.803995	0.037539
H268	H	-0.632473	-0.871879	0.039337
H269	H	-0.765537	-0.805796	0.040222
H270	H	-0.832537	-0.671824	0.039309
H271	H	-0.766468	-0.603940	0.037512
H272	H	-0.651645	-0.499479	0.037123
H273	H	-0.651645	-0.114047	-0.348315
C274	C	0.026432	-0.625890	0.203401
C275	C	0.087916	-0.714399	0.233850
C276	C	0.088972	-0.753423	0.195895
C277	C	0.028543	-0.703938	0.127490
C278	C	-0.032945	-0.615424	0.097036
C279	C	-0.034001	-0.576400	0.134992
H280	H	0.132652	-0.751035	0.284491
H281	H	0.134490	-0.818947	0.218439
H282	H	0.029325	-0.732826	0.099393
H283	H	-0.077682	-0.578788	0.046395
H284	H	-0.079519	-0.510876	0.112448
C285	C	-0.442345	-0.323027	-0.338464
C286	C	-0.403841	-0.360978	-0.376958
C287	C	-0.326838	-0.436856	-0.339012
C288	C	-0.288340	-0.474784	-0.262572
C289	C	-0.326845	-0.436833	-0.224074
C290	C	-0.403847	-0.360955	-0.262020
H291	H	-0.432339	-0.332901	-0.433547
H292	H	-0.298335	-0.464949	-0.367512
H293	H	-0.231339	-0.530954	-0.234483
H294	H	-0.298346	-0.464910	-0.167485
H295	H	-0.432350	-0.332862	-0.233521
H296	H	-0.651638	-0.114039	-0.537611
H297	H	0.026144	-0.615754	0.402549
C298	C	0.026409	-0.406725	0.203378
C299	C	-0.034042	-0.327379	0.192421
C300	C	-0.033025	-0.251426	0.154420
C301	C	0.028442	-0.254820	0.127375
C302	C	0.088897	-0.334169	0.138330
C303	C	0.087880	-0.410122	0.176332
H304	H	-0.079547	-0.324864	0.212442
H305	H	-0.077778	-0.192686	0.146310
H306	H	0.029194	-0.198595	0.099244
H307	H	0.134403	-0.336684	0.118309
H308	H	0.132634	-0.468861	0.184442
C309	C	-0.661509	0.520339	-0.557559
C310	C	-0.737977	0.558339	-0.596046
C311	C	-0.775953	0.634314	-0.673005
C312	C	-0.737463	0.672288	-0.711477
C313	C	-0.660991	0.634288	-0.672991
C314	C	-0.623014	0.558313	-0.596031
H315	H	-0.766474	0.530228	-0.567566
H316	H	-0.832563	0.662444	-0.701495
H317	H	-0.765575	0.728529	-0.768447
H318	H	-0.632494	0.662399	-0.701470
H319	H	-0.566404	0.530183	-0.567541
H320	H	-0.213195	-0.187119	0.213260
