data_functionalizedCrystal
_audit_creation_method	'MofGen! by Chris Wilmer'
_symmetry_space_group_name_H-M	'P1'
_symmetry_Int_Tables_number	1
_symmetry_cell_setting	triclinic
loop_
_symmetry_equiv_pos_as_xyz
  x,y,z
_cell_length_a	19.288867
_cell_length_b	14.044220
_cell_length_c	17.766277
_cell_angle_alpha	90.005715
_cell_angle_beta	90.007910
_cell_angle_gamma	88.162973
loop_
_atom_site_label
_atom_site_type_symbol
_atom_site_fract_x
_atom_site_fract_y
_atom_site_fract_z
O1	O	0.928948	0.118222	0.062570
O2	O	1.428948	0.618222	0.562570
O3	O	0.727712	0.134167	0.062577
O4	O	1.227712	0.634167	0.562577
O5	O	0.825310	-0.011777	0.062566
O6	O	1.325310	0.488223	0.562566
O7	O	0.831351	0.264166	0.062581
O8	O	1.331351	0.764166	0.562581
O9	O	0.825290	-0.011781	-0.062622
O10	O	1.325290	0.488219	0.437378
O11	O	0.727693	0.134163	-0.062611
O12	O	1.227693	0.634163	0.437389
O13	O	0.928929	0.118218	-0.062619
O14	O	1.428929	0.618218	0.437381
Cu15	Cu	0.828309	0.126190	-0.074046
Cu16	Cu	1.328309	0.626190	0.425954
Cu17	Cu	0.828332	0.126195	0.074004
Cu18	Cu	1.328332	0.626195	0.574004
O19	O	0.831331	0.264162	-0.062608
O20	O	1.331331	0.764162	0.437392
C21	C	0.701793	0.133652	-0.000016
C22	C	1.201793	0.633652	0.499984
C23	C	0.624591	0.132110	-0.000013
C24	C	1.124591	0.632110	0.499987
C25	C	0.068323	0.121012	0.068218
C26	C	0.568323	0.621012	0.568218
C27	C	0.140863	0.122455	0.068220
C28	C	0.640863	0.622455	0.568220
C29	C	0.177128	0.123178	-0.000020
C30	C	0.677128	0.623178	0.499980
C31	C	0.140847	0.122435	-0.068268
C32	C	0.640847	0.622435	0.431732
C33	C	0.068308	0.120983	-0.068269
C34	C	0.568308	0.620983	0.431731
C35	C	0.290161	0.180978	-0.052297
C36	C	0.790161	0.680978	0.447703
C37	C	0.362698	0.182436	-0.052294
C38	C	0.862698	0.682436	0.447706
C39	C	0.400861	0.127652	-0.000020
C40	C	0.900861	0.627652	0.499980
C41	C	0.366477	0.071422	0.052263
C42	C	0.866477	0.571422	0.552263
C43	C	0.293939	0.069970	0.052262
C44	C	0.793939	0.569970	0.552262
C45	C	0.255783	0.124752	-0.000026
C46	C	0.755783	0.624752	0.499974
C47	C	0.515789	0.129952	0.068227
C48	C	1.015789	0.629952	0.568227
C49	C	0.588331	0.131389	0.068227
C50	C	1.088331	0.631389	0.568227
C51	C	0.588313	0.131378	-0.068263
C52	C	1.088313	0.631378	0.431737
C53	C	0.515773	0.129932	-0.068261
C54	C	1.015773	0.629932	0.431739
C55	C	0.479515	0.129224	-0.000014
C56	C	0.979515	0.629224	0.499986
C57	C	0.822656	-0.047082	-0.000028
C58	C	1.322656	0.452918	0.499972
C59	C	0.814768	-0.152275	-0.000029
C60	C	1.314768	0.347725	0.499971
C61	C	0.800347	-0.344875	-0.000018
C62	C	1.300347	0.155125	0.499982
C63	C	0.856291	-0.402746	-0.000017
C64	C	1.356291	0.097254	0.499983
C65	C	0.848267	-0.509915	-0.000011
C66	C	1.348267	-0.009915	0.499989
C67	C	0.808370	-0.237695	-0.000024
C68	C	1.308370	0.262305	0.499976
C69	C	0.954848	0.118733	-0.000024
C70	C	1.454848	0.618733	0.499976
C71	C	1.032050	0.120274	-0.000021
C72	C	1.532050	0.620274	0.499979
C73	C	0.833986	0.299467	-0.000012
C74	C	1.333986	0.799467	0.499988
C75	C	0.841873	0.404660	-0.000006
C76	C	1.341873	0.904660	0.499994
N77	N	0.828298	0.126186	-0.178176
N78	N	1.328298	0.626186	0.321824
C79	C	0.873969	0.183519	-0.217555
C80	C	1.373969	0.683519	0.282445
C81	C	0.873980	0.183517	-0.296357
C82	C	1.373980	0.683517	0.203643
C83	C	0.828307	0.126191	-0.335777
C84	C	1.328307	0.626191	0.164223
C85	C	0.782633	0.068846	-0.296388
C86	C	1.282633	0.568846	0.203612
C87	C	0.782628	0.068844	-0.217588
C88	C	1.282628	0.568844	0.282412
C89	C	0.765541	0.123794	-0.460634
C90	C	1.265541	0.623794	0.039366
C91	C	0.765545	0.123804	-0.539433
C92	C	1.265545	0.623804	-0.039433
C93	C	0.828322	0.126194	-0.578823
C94	C	1.328322	0.626194	-0.078823
C95	C	0.891098	0.128596	-0.539405
C96	C	1.391098	0.628596	-0.039405
C97	C	0.891093	0.128593	-0.460604
C98	C	1.391093	0.628593	0.039396
C99	C	0.828308	0.126188	-0.421222
C100	C	1.328308	0.626188	0.078778
C101	C	0.874009	0.183528	-0.703648
C102	C	1.374009	0.683528	-0.203648
C103	C	0.874020	0.183518	-0.782451
C104	C	1.374020	0.683518	-0.282451
C105	C	0.782667	0.068854	-0.782481
C106	C	1.282667	0.568854	-0.282481
C107	C	0.782662	0.068858	-0.703679
C108	C	1.282662	0.568858	-0.203679
C109	C	0.828331	0.126200	-0.664267
C110	C	1.328331	0.626200	-0.164267
N111	N	0.828348	0.126191	0.178135
N112	N	1.328348	0.626191	0.678135
H113	H	0.038806	0.120432	0.123790
H114	H	0.538806	0.620432	0.623790
C115	C	0.696490	0.121168	-0.582785
C116	C	1.196490	0.621168	-0.082785
N117	N	0.644476	0.119182	-0.615437
N118	N	1.144476	0.619182	-0.115437
H119	H	0.714416	0.121854	-0.428569
H120	H	1.214416	0.621854	0.071431
H121	H	0.942217	0.130547	-0.571474
H122	H	1.442217	0.630547	-0.071474
H123	H	0.910211	-0.371805	0.000031
H124	H	1.410211	0.128195	0.500031
H125	H	0.746431	-0.375814	-0.000014
H126	H	1.246431	0.124186	0.499986
H127	H	0.390686	0.228245	-0.094850
H128	H	0.890686	0.728245	0.405150
C129	C	0.180770	0.123277	0.143292
C130	C	0.680770	0.623277	0.643292
N131	N	0.210826	0.123901	0.199835
N132	N	0.710826	0.623901	0.699835
C133	C	0.256120	0.008106	0.109764
C134	C	0.756120	0.508106	0.609764
N135	N	0.227636	-0.038496	0.153071
N136	N	0.727636	0.461504	0.653071
H137	H	0.911160	0.230208	-0.185471
H138	H	1.411160	0.730208	0.314529
H139	H	0.259094	0.225586	-0.094873
H140	H	0.759094	0.725586	0.405127
H141	H	0.911171	0.230207	-0.328426
H142	H	1.411171	0.730207	0.171574
H143	H	0.397548	0.026814	0.094832
H144	H	0.897548	0.526814	0.594832
H145	H	0.038776	0.120385	-0.123839
H146	H	0.538776	0.620385	0.376161
H147	H	0.486267	0.129373	0.123798
H148	H	0.986267	0.629373	0.623798
C149	C	0.960146	0.131221	-0.417247
C150	C	1.460146	0.631221	0.082753
N151	N	1.012158	0.133195	-0.384591
N152	N	1.512158	0.633195	0.115409
H153	H	0.745447	0.022171	-0.328489
H154	H	1.245447	0.522171	0.171511
H155	H	0.617839	0.131964	-0.123825
H156	H	1.117839	0.631964	0.376175
C157	C	0.628231	0.132189	0.143300
C158	C	1.128231	0.632189	0.643300
N159	N	0.658284	0.132790	0.199846
N160	N	1.158284	0.632790	0.699846
H161	H	0.911196	0.230219	-0.671557
H162	H	1.411196	0.730219	-0.171557
C163	C	0.924252	0.246613	-0.825768
C164	C	1.424252	0.746613	-0.325768
N165	N	0.962082	0.294145	-0.858395
N166	N	1.462082	0.794145	-0.358395
H167	H	0.745480	0.022177	-0.814576
H168	H	1.245480	0.522177	-0.314576
C169	C	0.732412	0.005796	-0.660360
C170	C	1.232412	0.505796	-0.160360
N171	N	0.694562	-0.041706	-0.627733
N172	N	1.194562	0.458294	-0.127733
H173	H	0.486240	0.129335	-0.123828
H174	H	0.986240	0.629335	0.376172
H175	H	0.745436	0.022155	-0.185526
H176	H	1.245436	0.522155	0.314474
H177	H	0.170378	0.123022	-0.123829
H178	H	0.670378	0.623022	0.376171
