data_functionalizedCrystal
_audit_creation_method	'MofGen! by Chris Wilmer'
_symmetry_space_group_name_H-M	'P1'
_symmetry_Int_Tables_number	1
_symmetry_cell_setting	triclinic
loop_
_symmetry_equiv_pos_as_xyz
  x,y,z
_cell_length_a	6.817900
_cell_length_b	7.076028
_cell_length_c	19.453103
_cell_angle_alpha	92.018686
_cell_angle_beta	101.709178
_cell_angle_gamma	117.700652
loop_
_atom_site_label
_atom_site_type_symbol
_atom_site_fract_x
_atom_site_fract_y
_atom_site_fract_z
V1	V	-4.191226	-0.665982	-0.096061
O2	O	-4.184352	-0.652285	0.005767
O3	O	-4.133208	-0.662409	-0.191580
O4	O	-4.218390	-0.955993	-0.094078
O5	O	-4.098581	-0.356668	-0.092409
V6	V	-4.666308	-0.628867	-0.083941
O7	O	-4.470999	-0.747399	-0.122647
O8	O	-4.836733	-0.547451	-0.057354
O9	O	-4.501119	-0.632440	0.011578
O10	O	-4.790579	-0.642564	-0.185769
O11	O	-4.876350	-0.938181	-0.087592
O12	O	-4.415937	-0.338856	-0.085923
C13	C	-3.973424	-0.652156	-0.214881
C14	C	-4.007779	-0.651167	-0.292965
C15	C	-4.208471	-0.661367	-0.333204
C16	C	-4.240762	-0.660460	-0.406574
C17	C	-4.072327	-0.649308	-0.439700
C18	C	-3.871612	-0.639119	-0.399453
C19	C	-3.839338	-0.640048	-0.326086
N20	N	-3.929313	-0.517873	-0.546186
N21	N	-3.959983	-0.516986	-0.615882
C22	C	-4.169559	-0.646513	-0.660752
N23	N	-4.347325	-0.776934	-0.633293
N24	N	-4.316654	-0.777811	-0.563590
C25	C	-4.107303	-0.648301	-0.519254
C26	C	-4.405278	-0.655733	-0.780547
C27	C	-4.437567	-0.654839	-0.853919
C28	C	-4.068402	-0.633475	-0.846796
C29	C	-4.036129	-0.634392	-0.773426
C30	C	-4.204570	-0.645511	-0.740306
C31	C	-4.215571	-0.268189	-0.089495
C32	C	-4.089048	-0.026641	-0.090502
C33	C	-4.324243	-0.642688	0.034876
C34	C	-4.269131	-0.643690	0.112960
H35	H	-4.601005	-0.663159	-0.886681
O36	O	-3.644151	-0.629737	-0.287006
C37	C	-3.233052	-0.426091	-0.249289
C38	C	-3.453930	-0.437479	-0.293564
H39	H	-3.079199	-0.270685	-0.254588
H40	H	-3.238722	-0.428513	-0.191144
H41	H	-3.217718	-0.570749	-0.269400
H42	H	-3.469404	-0.292851	-0.273514
H43	H	-3.448164	-0.435161	-0.351702
O44	O	-4.568650	-0.666170	-0.748315
C45	C	-4.660695	-0.493936	-0.660362
C46	C	-4.475480	-0.481820	-0.696816
H47	H	-4.585424	-0.344931	-0.618706
H48	H	-4.809708	-0.500957	-0.701689
H49	H	-4.724044	-0.644996	-0.633669
H50	H	-4.411945	-0.330774	-0.723507
H51	H	-4.326599	-0.474917	-0.655458
H52	H	-4.404194	-0.668766	-0.439342
H53	H	-3.734476	-0.630044	-0.426430
H54	H	-3.872698	-0.626071	-0.740663
O55	O	-4.372065	-0.672473	-0.300965
C56	C	-4.635668	-0.871728	-0.231523
C57	C	-4.450395	-0.859381	-0.267990
H58	H	-4.699087	-1.022854	-0.204865
H59	H	-4.560615	-0.722773	-0.189860
H60	H	-4.784589	-0.878760	-0.272896
H61	H	-4.301416	-0.852418	-0.226669
H62	H	-4.525625	-1.008333	-0.309666
O63	O	-3.904666	-0.622262	-0.878978
C64	C	-3.641256	-0.423159	-0.948494
C65	C	-3.826617	-0.435558	-0.912062
H66	H	-3.578133	-0.272245	-0.975265
H67	H	-3.492130	-0.415872	-0.907149
H68	H	-3.716407	-0.572295	-0.990085
H69	H	-3.751676	-0.286459	-0.870476
H70	H	-3.975715	-0.442952	-0.953448
