data_functionalizedCrystal
_audit_creation_method	'MofGen! by Chris Wilmer'
_symmetry_space_group_name_H-M	'P1'
_symmetry_Int_Tables_number	1
_symmetry_cell_setting	triclinic
loop_
_symmetry_equiv_pos_as_xyz
  x,y,z
_cell_length_a	19.077068
_cell_length_b	21.395364
_cell_length_c	19.077314
_cell_angle_alpha	87.719544
_cell_angle_beta	89.878373
_cell_angle_gamma	87.675407
loop_
_atom_site_label
_atom_site_type_symbol
_atom_site_fract_x
_atom_site_fract_y
_atom_site_fract_z
Zn1	Zn	-0.263857	-0.933785	-0.408560
Zn2	Zn	-0.013857	-0.683785	-0.158560
Zn3	Zn	0.236143	-0.433785	0.091440
Zn4	Zn	0.486143	-0.183785	0.341440
Zn5	Zn	-0.386085	-0.933368	-0.295767
Zn6	Zn	-0.136085	-0.683368	-0.045767
Zn7	Zn	0.113915	-0.433368	0.204233
Zn8	Zn	0.363915	-0.183368	0.454233
Zn9	Zn	-0.268590	-0.833045	-0.291065
Zn10	Zn	-0.018590	-0.583045	-0.041065
Zn11	Zn	0.231410	-0.333045	0.208935
Zn12	Zn	0.481410	-0.083045	0.458935
Zn13	Zn	-0.381326	-0.824607	-0.413230
Zn14	Zn	-0.131326	-0.574607	-0.163230
Zn15	Zn	0.118674	-0.324607	0.086770
Zn16	Zn	0.368674	-0.074607	0.336770
O17	O	-0.324964	-0.881201	-0.352155
O18	O	-0.074964	-0.631201	-0.102155
O19	O	0.175036	-0.381201	0.147845
O20	O	0.425036	-0.131201	0.397845
O21	O	-0.280082	-1.021407	-0.393611
O22	O	-0.030082	-0.771407	-0.143611
O23	O	0.219918	-0.521407	0.106389
O24	O	0.469918	-0.271407	0.356389
O25	O	-0.374472	-0.923416	-0.196812
O26	O	-0.124472	-0.673416	0.053188
O27	O	0.125528	-0.423416	0.303188
O28	O	0.375528	-0.173416	0.553188
O29	O	-0.169628	-0.850114	-0.302728
O30	O	0.080372	-0.600114	-0.052728
O31	O	0.330372	-0.350114	0.197272
O32	O	0.580372	-0.100114	0.447272
O33	O	-0.369883	-1.021100	-0.310742
O34	O	-0.119883	-0.771100	-0.060742
O35	O	0.130117	-0.521100	0.189258
O36	O	0.380117	-0.271100	0.439258
O37	O	-0.166151	-0.924128	-0.389051
O38	O	0.083849	-0.674128	-0.139051
O39	O	0.333849	-0.424128	0.110949
O40	O	0.583849	-0.174128	0.360949
O41	O	-0.288148	-0.849709	-0.193357
O42	O	-0.038148	-0.599709	0.056643
O43	O	0.211852	-0.349709	0.306643
O44	O	0.461852	-0.099709	0.556643
O45	O	-0.283533	-0.744248	-0.307257
O46	O	-0.033533	-0.494248	-0.057257
O47	O	0.216467	-0.244248	0.192743
O48	O	0.466467	0.005752	0.442743
O49	O	-0.361770	-0.835733	-0.510942
O50	O	-0.111770	-0.585733	-0.260942
O51	O	0.138230	-0.335733	-0.010942
O52	O	0.388230	-0.085733	0.239058
O53	O	-0.366360	-0.738049	-0.397012
O54	O	-0.116360	-0.488049	-0.147012
O55	O	0.133640	-0.238049	0.102988
O56	O	0.383640	0.011951	0.352988
O57	O	-0.275466	-0.915946	-0.507511
O58	O	-0.025466	-0.665946	-0.257511
O59	O	0.224534	-0.415946	-0.007511
O60	O	0.474534	-0.165946	0.242489
O61	O	-0.483788	-0.915234	-0.315271
O62	O	-0.233788	-0.665234	-0.065271
O63	O	0.016212	-0.415234	0.184729
O64	O	0.266212	-0.165234	0.434729
O65	O	-0.480290	-0.835328	-0.401571
O66	O	-0.230290	-0.585328	-0.151571
O67	O	0.019710	-0.335328	0.098429
O68	O	0.269710	-0.085328	0.348429
C69	C	-0.324944	-0.718415	-0.352131
C70	C	-0.074944	-0.468415	-0.102131
C71	C	0.175056	-0.218415	0.147869
C72	C	0.425056	0.031585	0.397869
C73	C	-0.324951	-0.648773	-0.352139
C74	C	-0.074951	-0.398773	-0.102139
C75	C	0.175049	-0.148773	0.147861
C76	C	0.425049	0.101227	0.397861
C77	C	-0.368165	-0.143764	-0.398837
C78	C	-0.118165	0.106236	-0.148837
C79	C	0.131835	0.356236	0.101163
C80	C	0.381835	0.606236	0.351163
C81	C	-0.368166	-0.209200	-0.398831
C82	C	-0.118166	0.040800	-0.148831
C83	C	0.131834	0.290800	0.101169
C84	C	0.381834	0.540800	0.351169
C85	C	-0.324969	-0.245133	-0.352167
C86	C	-0.074969	0.004867	-0.102167
C87	C	0.175031	0.254867	0.147833
C88	C	0.425031	0.504867	0.397833
C89	C	-0.281780	-0.215627	-0.305493
C90	C	-0.031780	0.034373	-0.055493
C91	C	0.218220	0.284373	0.194507
C92	C	0.468220	0.534373	0.444507
C93	C	-0.281785	-0.150192	-0.305496
C94	C	-0.031785	0.099808	-0.055496
C95	C	0.218215	0.349808	0.194504
C96	C	0.468215	0.599808	0.444504
C97	C	-0.261863	-0.351362	-0.344186
C98	C	-0.011863	-0.101362	-0.094186
C99	C	0.238137	0.148638	0.155814
C100	C	0.488137	0.398638	0.405814
C101	C	-0.261857	-0.416795	-0.344188
C102	C	-0.011857	-0.166795	-0.094188
C103	C	0.238143	0.083205	0.155812
C104	C	0.488143	0.333205	0.405812
C105	C	-0.324954	-0.446955	-0.352154
C106	C	-0.074954	-0.196955	-0.102154
C107	C	0.175046	0.053045	0.147846
C108	C	0.425046	0.303045	0.397846
C109	C	-0.388059	-0.411673	-0.360133
C110	C	-0.138059	-0.161673	-0.110133
C111	C	0.111941	0.088327	0.139867
C112	C	0.361941	0.338327	0.389867
C113	C	-0.388064	-0.346239	-0.360136
C114	C	-0.138064	-0.096239	-0.110136
C115	C	0.111936	0.153761	0.139864
C116	C	0.361936	0.403761	0.389864
C117	C	-0.324959	-0.316086	-0.352158
C118	C	-0.074959	-0.066086	-0.102158
C119	C	0.175041	0.183914	0.147842
C120	C	0.425041	0.433914	0.397842
C121	C	-0.368145	-0.547407	-0.398815
C122	C	-0.118145	-0.297407	-0.148815
C123	C	0.131855	-0.047407	0.101185
C124	C	0.381855	0.202593	0.351185
C125	C	-0.368148	-0.612844	-0.398804
C126	C	-0.118148	-0.362844	-0.148804
C127	C	0.131852	-0.112844	0.101196
C128	C	0.381852	0.137156	0.351196
C129	C	-0.281756	-0.619270	-0.305469
C130	C	-0.031756	-0.369270	-0.055469
C131	C	0.218244	-0.119270	0.194531
C132	C	0.468244	0.130730	0.444531
C133	C	-0.281759	-0.553834	-0.305477
C134	C	-0.031759	-0.303834	-0.055477
C135	C	0.218241	-0.053834	0.194523
C136	C	0.468241	0.196166	0.444523
C137	C	-0.324953	-0.517907	-0.352154
C138	C	-0.074953	-0.267907	-0.102154
C139	C	0.175047	-0.017907	0.147846
C140	C	0.425047	0.232093	0.397846
C141	C	-0.507535	-0.874337	-0.359453
C142	C	-0.257535	-0.624337	-0.109453
C143	C	-0.007535	-0.374337	0.140547
C144	C	0.242465	-0.124337	0.390547
C145	C	-0.585639	-0.871457	-0.362599
C146	C	-0.335639	-0.621457	-0.112599
C147	C	-0.085639	-0.371457	0.137401
C148	C	0.164361	-0.121457	0.387401
C149	C	-0.624128	-0.911736	-0.319182
C150	C	-0.374128	-0.661736	-0.069182
C151	C	-0.124128	-0.411736	0.180818
C152	C	0.125872	-0.161736	0.430818
C153	C	-0.697514	-0.909031	-0.322145
C154	C	-0.447514	-0.659031	-0.072145
C155	C	-0.197514	-0.409031	0.177855
C156	C	0.052486	-0.159031	0.427855
C157	C	-0.732410	-0.866043	-0.368521
C158	C	-0.482410	-0.616043	-0.118521
C159	C	-0.232410	-0.366043	0.131479
C160	C	0.017590	-0.116043	0.381479
C161	C	-0.693916	-0.825762	-0.411943
C162	C	-0.443916	-0.575762	-0.161943
C163	C	-0.193916	-0.325762	0.088057
C164	C	0.056084	-0.075762	0.338057
C165	C	-0.620531	-0.828470	-0.408983
C166	C	-0.370531	-0.578470	-0.158983
C167	C	-0.120531	-0.328470	0.091017
C168	C	0.129469	-0.078470	0.341017
C169	C	-0.951696	-0.853480	-0.382191
C170	C	-0.701696	-0.603480	-0.132191
C171	C	-0.451696	-0.353480	0.117809
C172	C	-0.201696	-0.103480	0.367809
C173	C	-1.025086	-0.850773	-0.385145
C174	C	-0.775086	-0.600773	-0.135145
C175	C	-0.525086	-0.350773	0.114855
C176	C	-0.275086	-0.100773	0.364855
C177	C	-1.028679	-0.934044	-0.295348
C178	C	-0.778679	-0.684044	-0.045348
C179	C	-0.528679	-0.434044	0.204652
C180	C	-0.278679	-0.184044	0.454652
C181	C	-0.955293	-0.936746	-0.292389
C182	C	-0.705293	-0.686746	-0.042389
C183	C	-0.455293	-0.436746	0.207611
C184	C	-0.205293	-0.186746	0.457611
C185	C	-0.916805	-0.896467	-0.335814
C186	C	-0.666805	-0.646467	-0.085814
C187	C	-0.416805	-0.396467	0.164186
C188	C	-0.166805	-0.146467	0.414186
N189	N	-0.807423	-0.863275	-0.371549
N190	N	-0.557423	-0.613275	-0.121549
N191	N	-0.307423	-0.363275	0.128451
N192	N	-0.057423	-0.113275	0.378451
N193	N	-0.841793	-0.899238	-0.332789
N194	N	-0.591793	-0.649238	-0.082789
N195	N	-0.341793	-0.399238	0.167211
N196	N	-0.091793	-0.149238	0.417211
C197	C	-0.141680	-0.888109	-0.344844
C198	C	0.108320	-0.638109	-0.094844
C199	C	0.358320	-0.388109	0.155156
C200	C	0.608320	-0.138109	0.405156
C201	C	-0.063575	-0.891052	-0.341729
C202	C	0.186425	-0.641052	-0.091729
C203	C	0.436425	-0.391052	0.158271
C204	C	0.686425	-0.141052	0.408271
C205	C	-0.317560	-0.874945	-0.535435
C206	C	-0.067560	-0.624945	-0.285435
C207	C	0.182440	-0.374945	-0.035435
C208	C	0.432440	-0.124945	0.214565
C209	C	-0.314404	-0.872279	-0.613538
C210	C	-0.064404	-0.622279	-0.363538
C211	C	0.185596	-0.372279	-0.113538
C212	C	0.435596	-0.122279	0.136462
C213	C	-0.324981	-0.044623	-0.352175
C214	C	-0.074981	0.205377	-0.102175
C215	C	0.175019	0.455377	0.147825
C216	C	0.425019	0.705377	0.397825
C217	C	-0.324979	-0.114265	-0.352172
C218	C	-0.074979	0.135735	-0.102172
C219	C	0.175021	0.385735	0.147828
C220	C	0.425021	0.635735	0.397828
C221	C	-0.357863	-0.909399	-0.652033
C222	C	-0.107863	-0.659399	-0.402033
C223	C	0.142137	-0.409399	-0.152033
C224	C	0.392137	-0.159399	0.097967
C225	C	-0.354890	-0.906894	-0.725418
C226	C	-0.104890	-0.656894	-0.475418
C227	C	0.145110	-0.406894	-0.225418
C228	C	0.395110	-0.156894	0.024582
C229	C	-0.308460	-0.867266	-0.760309
C230	C	-0.058460	-0.617266	-0.510309
C231	C	0.191540	-0.367266	-0.260309
C232	C	0.441540	-0.117266	-0.010309
C233	C	-0.264996	-0.830145	-0.721809
C234	C	-0.014996	-0.580145	-0.471809
C235	C	0.235004	-0.330145	-0.221809
C236	C	0.485004	-0.080145	0.028191
C237	C	-0.267967	-0.832654	-0.648425
C238	C	-0.017967	-0.582654	-0.398425
C239	C	0.232033	-0.332654	-0.148425
C240	C	0.482033	-0.082654	0.101575
C241	C	-0.294754	-0.855653	-0.979592
C242	C	-0.044754	-0.605653	-0.729592
C243	C	0.205246	-0.355653	-0.479592
C244	C	0.455246	-0.105653	-0.229592
C245	C	-0.291788	-0.853146	-1.052981
C246	C	-0.041788	-0.603146	-0.802981
C247	C	0.208212	-0.353146	-0.552981
C248	C	0.458212	-0.103146	-0.302981
C249	C	-0.381681	-0.929896	-1.056586
C250	C	-0.131681	-0.679896	-0.806586
C251	C	0.118319	-0.429896	-0.556586
C252	C	0.368319	-0.179896	-0.306586
C253	C	-0.384650	-0.932398	-0.983200
C254	C	-0.134650	-0.682398	-0.733200
C255	C	0.115350	-0.432398	-0.483200
C256	C	0.365350	-0.182398	-0.233200
C257	C	-0.341184	-0.895280	-0.944706
C258	C	-0.091184	-0.645280	-0.694706
C259	C	0.158816	-0.395280	-0.444706
C260	C	0.408816	-0.145280	-0.194706
N261	N	-0.305421	-0.864704	-0.835321
N262	N	-0.055421	-0.614704	-0.585321
N263	N	0.194579	-0.364704	-0.335321
N264	N	0.444579	-0.114704	-0.085321
N265	N	-0.344220	-0.897846	-0.869696
N266	N	-0.094220	-0.647846	-0.619696
N267	N	0.155780	-0.397846	-0.369696
N268	N	0.405780	-0.147846	-0.119696
C269	C	-0.332290	-0.887471	-0.169586
C270	C	-0.082290	-0.637471	0.080414
C271	C	0.167710	-0.387471	0.330414
C272	C	0.417710	-0.137471	0.580414
C273	C	-0.335247	-0.890265	-0.091476
C274	C	-0.085247	-0.640265	0.158524
C275	C	0.164753	-0.390265	0.408524
C276	C	0.414753	-0.140265	0.658524
H277	H	-0.403333	-0.233223	-0.436834
H278	H	-0.153333	0.016777	-0.186834
H279	H	0.096667	0.266777	0.063166
H280	H	0.346667	0.516777	0.313166
H281	H	-0.926882	-0.971750	-0.254626
H282	H	-0.676882	-0.721750	-0.004626
H283	H	-0.426882	-0.471750	0.245374
H284	H	-0.176882	-0.221750	0.495374
Cl285	Cl	-0.206624	-0.780330	-0.765671
Cl286	Cl	0.043376	-0.530330	-0.515671
Cl287	Cl	0.293376	-0.280330	-0.265671
Cl288	Cl	0.543376	-0.030330	-0.015671
H289	H	-0.390279	-0.937121	-0.756757
H290	H	-0.140279	-0.687121	-0.506757
H291	H	0.109721	-0.437121	-0.256757
H292	H	0.359721	-0.187121	-0.006757
H293	H	-0.210479	-0.326812	-0.337688
H294	H	0.039521	-0.076812	-0.087688
H295	H	0.289521	0.173188	0.162312
H296	H	0.539521	0.423188	0.412312
H297	H	-0.595721	-0.946739	-0.281414
H298	H	-0.345721	-0.696739	-0.031414
H299	H	-0.095721	-0.446739	0.218586
H300	H	0.154279	-0.196739	0.468586
Cl301	Cl	-1.077068	-0.984681	-0.240766
Cl302	Cl	-0.827068	-0.734681	0.009234
Cl303	Cl	-0.577068	-0.484681	0.259234
Cl304	Cl	-0.327068	-0.234681	0.509234
Cl305	Cl	-1.068955	-0.796719	-0.443443
Cl306	Cl	-0.818955	-0.546719	-0.193443
Cl307	Cl	-0.568955	-0.296719	0.056557
Cl308	Cl	-0.318955	-0.046719	0.306557
H309	H	-0.403339	-0.114516	-0.436843
H310	H	-0.153339	0.135484	-0.186843
H311	H	0.096661	0.385484	0.063157
H312	H	0.346661	0.635484	0.313157
Cl313	Cl	-0.903320	-0.802842	-0.436780
Cl314	Cl	-0.653320	-0.552842	-0.186780
Cl315	Cl	-0.403320	-0.302842	0.063220
Cl316	Cl	-0.153320	-0.052842	0.313220
H317	H	-0.253974	-0.820877	-1.081387
H318	H	-0.003974	-0.570877	-0.831387
H319	H	0.246026	-0.320877	-0.581387
H320	H	0.496026	-0.070877	-0.331387
H321	H	-0.589193	-0.795671	-0.444339
H322	H	-0.339193	-0.545671	-0.194339
H323	H	-0.089193	-0.295671	0.055661
H324	H	0.160807	-0.045671	0.305661
H325	H	-0.728849	-0.941831	-0.286790
H326	H	-0.478849	-0.691831	-0.036790
H327	H	-0.228849	-0.441831	0.213210
H328	H	0.021151	-0.191831	0.463210
H329	H	-0.417068	-0.960117	-1.087935
H330	H	-0.167068	-0.710117	-0.837935
H331	H	0.082932	-0.460117	-0.587935
H332	H	0.332932	-0.210117	-0.337935
Cl333	Cl	-0.443020	-0.982220	-0.939343
Cl334	Cl	-0.193020	-0.732220	-0.689343
Cl335	Cl	0.056980	-0.482220	-0.439343
Cl336	Cl	0.306980	-0.232220	-0.189343
Cl337	Cl	-0.182525	-0.461142	-0.334169
Cl338	Cl	0.067475	-0.211142	-0.084169
Cl339	Cl	0.317475	0.038858	0.165831
Cl340	Cl	0.567475	0.288858	0.415831
H341	H	-0.246586	-0.648527	-0.267472
H342	H	0.003414	-0.398527	-0.017472
H343	H	0.253414	-0.148527	0.232528
H344	H	0.503414	0.101473	0.482528
Cl345	Cl	-0.416239	-0.959216	-0.608178
Cl346	Cl	-0.166239	-0.709216	-0.358178
Cl347	Cl	0.083761	-0.459216	-0.108178
Cl348	Cl	0.333761	-0.209216	0.141822
Cl349	Cl	-0.240112	-0.808986	-0.931210
Cl350	Cl	0.009888	-0.558986	-0.681210
Cl351	Cl	0.259888	-0.308986	-0.431210
Cl352	Cl	0.509888	-0.058986	-0.181210
H353	H	-0.232575	-0.802428	-0.617083
H354	H	0.017425	-0.552428	-0.367083
H355	H	0.267425	-0.302428	-0.117083
H356	H	0.517425	-0.052428	0.132917
H357	H	-0.439447	-0.317515	-0.366630
H358	H	-0.189447	-0.067515	-0.116630
H359	H	0.060553	0.182485	0.133370
H360	H	0.310553	0.432485	0.383370
Cl361	Cl	-0.227459	-0.516747	-0.246814
Cl362	Cl	0.022541	-0.266747	0.003186
Cl363	Cl	0.272541	-0.016747	0.253186
Cl364	Cl	0.522541	0.233253	0.503186
H365	H	-0.439439	-0.436228	-0.366625
H366	H	-0.189439	-0.186228	-0.116625
H367	H	0.060561	0.063772	0.133375
H368	H	0.310561	0.313772	0.383375
H369	H	-0.403317	-0.518153	-0.436821
H370	H	-0.153317	-0.268153	-0.186821
H371	H	0.096683	-0.018153	0.063179
H372	H	0.346683	0.231847	0.313179
H373	H	-0.403320	-0.636861	-0.436803
H374	H	-0.153320	-0.386861	-0.186803
H375	H	0.096680	-0.136861	0.063197
H376	H	0.346680	0.113139	0.313197
Cl377	Cl	-0.227478	-0.260799	-0.246827
Cl378	Cl	0.022522	-0.010799	0.003173
Cl379	Cl	0.272522	0.239201	0.253173
Cl380	Cl	0.522522	0.489201	0.503173
H381	H	-0.246616	-0.126174	-0.267495
H382	H	0.003384	0.123826	-0.017495
H383	H	0.253384	0.373826	0.232505
H384	H	0.503384	0.623826	0.482505
H385	H	-0.722334	-0.790762	-0.449707
H386	H	-0.472334	-0.540762	-0.199707
H387	H	-0.222334	-0.290762	0.050293
H388	H	0.027666	-0.040762	0.300293
