data_functionalizedCrystal
_audit_creation_method	'MofGen! by Chris Wilmer'
_symmetry_space_group_name_H-M	'P1'
_symmetry_Int_Tables_number	1
_symmetry_cell_setting	triclinic
loop_
_symmetry_equiv_pos_as_xyz
  x,y,z
_cell_length_a	10.686220
_cell_length_b	21.295417
_cell_length_c	10.686551
_cell_angle_alpha	85.587790
_cell_angle_beta	90.308082
_cell_angle_gamma	94.412682
loop_
_atom_site_label
_atom_site_type_symbol
_atom_site_fract_x
_atom_site_fract_y
_atom_site_fract_z
Zn1	Zn	1.972201	-0.153473	-0.562351
Zn2	Zn	1.955908	-0.267413	-0.352566
Zn3	Zn	1.746311	-0.169576	-0.368665
Zn4	Zn	1.762339	-0.266137	-0.578344
O5	O	1.859190	-0.214150	-0.465482
O6	O	2.145585	-0.162382	-0.521092
O7	O	1.914578	-0.261708	-0.179155
O8	O	1.776387	-0.079345	-0.394402
O9	O	2.133615	-0.246093	-0.366964
O10	O	1.942347	-0.067514	-0.536702
O11	O	1.760588	-0.189828	-0.190982
O12	O	1.572892	-0.188591	-0.409910
O13	O	1.803704	-0.243919	-0.751770
O14	O	1.584668	-0.259534	-0.563960
O15	O	1.957889	-0.161145	-0.740020
O16	O	1.930120	-0.355339	-0.382472
O17	O	1.787905	-0.354402	-0.548351
C18	C	1.533263	-0.225672	-0.490418
C19	C	1.393832	-0.230615	-0.501116
C20	C	1.859020	-0.377710	-0.465425
C21	C	1.859065	-0.447676	-0.465434
C22	C	1.933194	-0.481004	-0.379138
C23	C	1.933255	-0.546743	-0.379161
C24	C	1.859164	-0.579154	-0.465470
C25	C	1.785031	-0.545817	-0.551782
C26	C	1.784982	-0.480079	-0.551764
N27	N	1.750160	-0.685908	-0.483429
N28	N	1.750210	-0.748357	-0.483439
C29	C	1.859310	-0.777220	-0.465531
N30	N	1.968359	-0.741276	-0.447588
N31	N	1.968308	-0.678822	-0.447572
C32	C	1.859210	-0.650436	-0.465499
C33	C	1.933511	-0.881830	-0.379256
C34	C	1.933575	-0.947570	-0.379288
C35	C	1.785339	-0.946643	-0.551903
C36	C	1.785287	-0.880904	-0.551876
C37	C	1.859371	-0.848502	-0.465546
C38	C	2.186390	-0.202583	-0.440448
C39	C	2.325823	-0.197654	-0.429781
C40	C	1.884402	-0.200593	-0.792685
C41	C	1.895146	-0.194816	-0.932120
C42	C	1.859397	-0.049948	-0.465564
C43	C	1.859485	0.020024	-0.465599
C44	C	1.834148	-0.227606	-0.139546
C45	C	1.823647	-0.233197	-0.000093
H46	H	1.345382	-0.262621	-0.570371
O47	O	1.389977	-0.155259	-0.338043
H48	H	1.493097	-0.157893	-0.343764
H49	H	1.724616	-0.452942	-0.622038
O50	O	1.987106	-0.145424	-0.996340
H51	H	2.055438	-0.168893	-1.051158
O52	O	2.013113	-0.446053	-0.286046
H53	H	2.064681	-0.480276	-0.226051
O54	O	1.731643	-0.282565	-0.935888
H55	H	1.680955	-0.309768	-1.007608
O56	O	1.705428	-0.981591	-0.644999
H57	H	1.605319	-0.973397	-0.630937
O58	O	2.013199	-0.582703	-0.286073
H59	H	2.064697	-0.549128	-0.226034
O60	O	1.705307	-0.844962	-0.644945
H61	H	1.766290	-0.810343	-0.704530
O62	O	2.013428	-0.846873	-0.286165
H63	H	2.065004	-0.881094	-0.226175
O64	O	1.705100	-0.580769	-0.644862
H65	H	1.717573	-0.632082	-0.630365
O66	O	2.013529	-0.983522	-0.286206
H67	H	2.065022	-0.949944	-0.226168
