data_functionalizedCrystal
_audit_creation_method	'MofGen! by Chris Wilmer'
_symmetry_space_group_name_H-M	'P1'
_symmetry_Int_Tables_number	1
_symmetry_cell_setting	triclinic
loop_
_symmetry_equiv_pos_as_xyz
  x,y,z
_cell_length_a	16.994747
_cell_length_b	12.759401
_cell_length_c	12.759393
_cell_angle_alpha	90.018496
_cell_angle_beta	89.988451
_cell_angle_gamma	89.988782
loop_
_atom_site_label
_atom_site_type_symbol
_atom_site_fract_x
_atom_site_fract_y
_atom_site_fract_z
Zn1	Zn	0.313978	1.606282	0.594127
Zn2	Zn	0.445905	1.606188	0.418509
Zn3	Zn	0.314019	1.430584	0.418467
Zn4	Zn	0.445844	1.430584	0.594150
O5	O	0.379937	1.518409	0.506313
O6	O	0.331487	1.753290	0.570839
O7	O	0.428453	1.582854	0.271482
O8	O	0.203633	1.453930	0.441741
O9	O	0.428413	1.753221	0.441813
O10	O	0.203602	1.583015	0.570798
O11	O	0.331557	1.453839	0.271451
O12	O	0.331498	1.283563	0.441764
O13	O	0.428309	1.453930	0.741168
O14	O	0.428349	1.283563	0.570838
O15	O	0.331428	1.583015	0.741152
O16	O	0.556278	1.582854	0.441835
O17	O	0.556234	1.453838	0.570878
C18	C	0.379922	1.245442	0.506299
C19	C	0.379935	1.128665	0.506318
C20	C	0.430446	1.073831	0.573416
C21	C	0.430456	0.964107	0.573427
C22	C	0.329442	0.964061	0.439234
C23	C	0.329428	1.073784	0.439229
C24	C	0.488769	1.073856	0.650888
C25	C	0.488779	0.964132	0.650899
C26	C	0.584877	1.518349	0.506361
C27	C	0.674199	1.518356	0.506358
C28	C	0.174197	1.518476	0.506260
C29	C	0.084875	1.518508	0.506238
Zn30	Zn	0.945106	1.430614	0.418437
Zn31	Zn	0.945043	1.606329	0.594081
Zn32	Zn	0.813237	1.430620	0.594133
Zn33	Zn	0.813160	1.606207	0.418475
O34	O	0.879136	1.518442	0.506282
O35	O	1.055479	1.453972	0.441700
O36	O	0.927564	1.583074	0.741109
O37	O	0.830788	1.283598	0.570832
O38	O	1.055433	1.583069	0.570744
O39	O	0.927672	1.283594	0.441750
O40	O	0.830727	1.453981	0.741147
O41	O	0.702845	1.453863	0.570869
O42	O	0.830657	1.582861	0.271449
O43	O	0.702789	1.582866	0.441813
O44	O	0.927597	1.453853	0.271421
O45	O	0.927490	1.753334	0.570781
O46	O	0.830597	1.753244	0.441763
C47	C	0.379857	1.518483	0.780347
C48	C	0.379823	1.518514	0.897124
C49	C	0.379952	1.792443	0.506328
C50	C	0.379958	1.909219	0.506335
C51	C	0.379959	1.518397	0.233346
C52	C	0.379771	1.518569	0.116570
C53	C	0.329372	1.585738	0.951979
C54	C	0.329344	1.585763	1.061703
C55	C	0.430224	1.451338	1.061707
C56	C	0.430248	1.451308	0.951985
C57	C	0.271132	1.663351	0.951977
C58	C	0.271103	1.663376	1.061701
C59	C	0.879030	1.791410	0.506273
C60	C	0.879008	1.908186	0.506300
C61	C	0.879126	1.518343	0.232248
C62	C	0.879121	1.518300	0.115471
C63	C	0.879245	1.244409	0.506293
C64	C	0.879291	1.127632	0.506297
C65	C	0.879192	1.518467	0.779249
C66	C	0.879347	1.518216	0.896025
C67	C	0.929486	1.963060	0.573425
C68	C	0.929472	2.072784	0.573430
C69	C	0.828497	2.072751	0.439185
C70	C	0.828515	1.963029	0.439175
C71	C	0.987781	1.963080	0.650933
C72	C	0.987767	2.072804	0.650939
C73	C	0.929587	1.451115	0.060593
C74	C	0.929571	1.451068	-0.049131
C75	C	0.828620	1.585400	-0.049089
C76	C	0.828633	1.585441	0.060633
C77	C	0.987873	1.373563	0.060568
C78	C	0.987857	1.373516	-0.049156
H79	H	0.546768	1.107875	0.621630
H80	H	0.787533	1.640142	0.105310
H81	H	0.471327	1.396564	0.907326
H82	H	0.466973	0.930132	0.728241
H83	H	0.971550	1.292196	0.090356
O84	O	1.057153	1.408359	0.100971
C85	C	1.187286	1.473851	0.064491
C86	C	1.108875	1.434439	0.018596
H87	H	1.229118	1.494969	-0.002087
H88	H	1.214777	1.409691	0.114731
H89	H	1.175986	1.546146	0.114819
H90	H	1.120107	1.362163	-0.031780
H91	H	1.081408	1.498663	-0.031585
H92	H	0.966006	1.296193	-0.083171
O93	O	0.479183	1.386162	1.115164
C94	C	0.523821	1.326583	1.284198
C95	C	0.468346	1.400465	1.223793
H96	H	0.515066	1.338106	1.372035
H97	H	0.587448	1.345006	1.262714
H98	H	0.509978	1.241879	1.262553
H99	H	0.482118	1.485194	1.245406
H100	H	0.404735	1.381952	1.245282
H101	H	1.045778	2.106829	0.621717
O102	O	0.779654	1.650584	-0.102524
C103	C	0.734849	1.709998	-0.271538
C104	C	0.790358	1.636141	-0.211158
H105	H	0.743472	1.698330	-0.359378
H106	H	0.748665	1.794754	-0.250060
H107	H	0.671266	1.691532	-0.249863
H108	H	0.853959	1.654512	-0.232800
H109	H	0.776474	1.551406	-0.232640
O110	O	1.060739	1.399350	-0.084795
C111	C	1.173305	1.346052	-0.186572
C112	C	1.090789	1.316658	-0.146253
H113	H	1.197618	1.279222	-0.236288
H114	H	1.214101	1.360590	-0.117160
H115	H	1.169259	1.420151	-0.236180
H116	H	1.094759	1.242545	-0.096662
H117	H	1.050025	1.302188	-0.215712
H118	H	0.213061	1.634257	1.095722
H119	H	0.287465	1.744748	1.091487
O120	O	1.060684	1.927721	0.624768
C121	C	1.193527	1.973531	0.577242
C122	C	1.111001	2.013718	0.606837
H123	H	1.234236	2.043039	0.562758
H124	H	1.189554	1.923916	0.503109
H125	H	1.217901	1.923874	0.644032
H126	H	1.086579	2.063419	0.540116
H127	H	1.115023	2.063276	0.681002
H128	H	0.787420	1.918355	0.384503
H129	H	0.210045	1.641577	0.922192
O130	O	0.961755	1.922664	0.743255
C131	C	0.912718	1.959116	0.916694
C132	C	0.942198	2.005028	0.812206
H133	H	0.896883	2.025685	0.972462
H134	H	0.960942	1.908874	0.953199
H135	H	0.858449	1.908786	0.901742
H136	H	0.996454	2.055405	0.827069
H137	H	0.893927	2.055210	0.775734
H138	H	0.288292	1.118426	0.384598
H139	H	0.288320	0.919363	0.384613
O140	O	0.469285	1.109249	0.748039
C141	C	0.433900	1.063498	0.925096
C142	C	0.455938	1.023274	0.815121
H143	H	0.423120	0.994008	0.979368
H144	H	0.378231	1.113096	0.919956
H145	H	0.484096	1.113181	0.957399
H146	H	0.405794	0.973547	0.782754
H147	H	0.511632	0.973733	0.820327
O148	O	0.561673	0.928759	0.624704
C149	C	0.694506	0.974546	0.577102
C150	C	0.611990	1.014748	0.606729
H151	H	0.735215	1.044047	0.562583
H152	H	0.690510	0.924916	0.502981
H153	H	0.718896	0.924900	0.643890
H154	H	0.587553	1.064436	0.540010
H155	H	0.616036	1.064321	0.680882
O156	O	0.297234	1.755620	0.911548
C157	C	0.346370	1.928983	0.947977
C158	C	0.316806	1.824553	0.993903
H159	H	0.362218	1.984735	1.014538
H160	H	0.298189	1.965560	0.897724
H161	H	0.400648	1.913932	0.897655
H162	H	0.262542	1.839514	1.044272
H163	H	0.365036	1.788007	1.044096
O164	O	0.779473	2.126189	0.374085
C165	C	0.734733	2.295207	0.314552
C166	C	0.790280	2.234822	0.388349
H167	H	0.743463	2.383047	0.326043
H168	H	0.671126	2.273718	0.333089
H169	H	0.748526	2.273547	0.229828
H170	H	0.776558	2.256450	0.473098
H171	H	0.853871	2.256316	0.369721
H172	H	0.971448	2.102602	0.732334
