data_functionalizedCrystal
_audit_creation_method	'MofGen! by Chris Wilmer'
_symmetry_space_group_name_H-M	'P1'
_symmetry_Int_Tables_number	1
_symmetry_cell_setting	triclinic
loop_
_symmetry_equiv_pos_as_xyz
  x,y,z
_cell_length_a	16.992694
_cell_length_b	8.559649
_cell_length_c	15.455313
_cell_angle_alpha	92.289439
_cell_angle_beta	87.142206
_cell_angle_gamma	80.223444
loop_
_atom_site_label
_atom_site_type_symbol
_atom_site_fract_x
_atom_site_fract_y
_atom_site_fract_z
O1	O	1.023967	0.329735	-0.072017
O2	O	0.795905	0.326044	-0.072043
O3	O	0.930028	0.097853	-0.072027
O4	O	0.889844	0.557925	-0.072033
O5	O	0.922362	0.110845	0.072234
O6	O	0.788239	0.339035	0.072218
O7	O	1.016301	0.342726	0.072244
Cu8	Cu	0.901570	0.342067	0.085403
Cu9	Cu	0.910636	0.326703	-0.085202
O10	O	0.882177	0.570917	0.072228
C11	C	0.763145	0.327794	0.000084
C12	C	0.676954	0.313635	0.000075
C13	C	0.618488	0.450242	0.000073
C14	C	0.537502	0.436931	0.000086
C15	C	0.514985	0.287010	0.000093
C16	C	0.573459	0.150392	0.000096
C17	C	0.654442	0.163706	0.000090
C18	C	0.274709	0.231831	0.000117
C19	C	0.193718	0.218527	0.000120
C20	C	0.157767	0.505067	0.000111
C21	C	0.238755	0.518367	0.000099
C22	C	0.297221	0.381750	0.000108
N23	N	0.432205	0.273400	0.000102
N24	N	0.379998	0.395362	0.000104
C25	C	0.929241	0.045208	0.000102
C26	C	0.938306	-0.131015	0.000099
C27	C	1.049061	0.340976	0.000115
C28	C	1.135252	0.355134	0.000119
C29	C	0.882965	0.623562	0.000097
C30	C	0.873900	0.799784	0.000095
N31	N	0.895199	0.352873	0.205398
N32	N	0.917014	0.315885	-0.205197
C33	C	0.952194	0.255970	0.250799
C34	C	0.947382	0.264158	0.341606
C35	C	0.885578	0.369258	0.387011
C36	C	0.828576	0.466164	0.341604
C37	C	0.833386	0.457968	0.250798
C38	C	0.864822	0.404595	0.658590
C39	C	0.860018	0.412788	0.749402
C40	C	0.978824	0.210778	0.749398
C41	C	0.983631	0.202598	0.658591
C42	C	0.926627	0.299499	0.613191
N43	N	0.880659	0.377633	0.479831
N44	N	0.931543	0.291114	0.520373
H45	H	0.175390	0.096437	0.000125
O46	O	0.777976	0.552265	0.206827
C47	C	0.722383	0.646761	0.266372
H48	H	0.750745	0.658510	0.331096
H49	H	0.704273	0.769494	0.240126
H50	H	0.667178	0.588694	0.276043
H51	H	0.322303	0.120586	0.000124
O52	O	1.002763	0.170267	0.385808
C53	C	1.042869	0.266129	0.438306
H54	H	1.003680	0.387437	0.451900
H55	H	1.055781	0.207300	0.502166
H56	H	1.101575	0.281164	0.403305
O57	O	0.799868	-0.110020	-0.000072
C58	C	0.794671	-0.020360	-0.074780
H59	H	0.840858	-0.080653	-0.126993
H60	H	0.732200	-0.011871	-0.099867
H61	H	0.806750	0.103945	-0.057890
O62	O	1.034171	0.116410	0.793407
C63	C	1.032133	-0.044187	0.771245
H64	H	1.005625	-0.053797	0.705316
H65	H	1.095480	-0.115032	0.768138
H66	H	0.993646	-0.093593	0.822358
O67	O	1.012359	-0.221246	-0.000044
C68	C	1.025499	-0.324381	-0.074742
H69	H	0.984861	-0.273510	-0.126969
H70	H	1.090635	-0.337388	-0.099815
H71	H	1.011626	-0.445640	-0.057844
H72	H	0.555118	0.028324	0.000115
H73	H	1.002525	0.170394	0.213836
O74	O	0.809515	0.498970	0.614540
C75	C	0.811525	0.659564	0.636740
H76	H	0.872452	0.670609	0.661684
H77	H	0.800938	0.732615	0.577023
H78	H	0.762812	0.705331	0.689460
O79	O	0.640217	0.596003	0.000104
C80	C	0.571244	0.713717	0.000085
H81	H	0.517340	0.664684	0.027402
H82	H	0.579848	0.821537	0.041964
H83	H	0.560770	0.750119	-0.069124
O84	O	0.480644	0.569510	-0.000040
C85	C	0.436699	0.563661	-0.074762
H86	H	0.441490	0.435029	-0.099658
H87	H	0.371253	0.616463	-0.057960
H88	H	0.461816	0.634759	-0.127089
O89	O	0.711139	0.030841	0.000048
C90	C	0.673901	-0.104338	0.000076
H91	H	0.612350	-0.074289	-0.027233
H92	H	0.712093	-0.204464	-0.041807
H93	H	0.667148	-0.143572	0.069286
H94	H	0.809687	0.498379	0.786366
O95	O	0.260485	0.664127	0.000136
C96	C	0.191515	0.781848	0.000116
H97	H	0.137608	0.732821	0.027433
H98	H	0.200122	0.889666	0.041996
H99	H	0.181042	0.818250	-0.069093
O100	O	1.043437	0.099780	0.614587
C101	C	1.010139	-0.008119	0.562370
H102	H	0.946304	0.046536	0.548584
H103	H	1.047547	-0.035780	0.498588
H104	H	1.009641	-0.122362	0.597712
O105	O	0.768515	0.568044	0.385805
C106	C	0.722841	0.481673	0.438330
H107	H	0.760584	0.362816	0.451937
H108	H	0.703166	0.552035	0.502182
H109	H	0.667840	0.460330	0.403346
H110	H	0.110156	0.616293	0.000106
