data_functionalizedCrystal
_audit_creation_method	'MofGen! by Chris Wilmer'
_symmetry_space_group_name_H-M	'P1'
_symmetry_Int_Tables_number	1
_symmetry_cell_setting	triclinic
loop_
_symmetry_equiv_pos_as_xyz
  x,y,z
_cell_length_a	16.109301
_cell_length_b	12.837942
_cell_length_c	15.186229
_cell_angle_alpha	89.996774
_cell_angle_beta	89.999362
_cell_angle_gamma	89.145211
loop_
_atom_site_label
_atom_site_type_symbol
_atom_site_fract_x
_atom_site_fract_y
_atom_site_fract_z
O1	O	1.113716	0.133240	-0.073172
O2	O	0.872971	0.149822	-0.073186
O3	O	0.988005	-0.009370	-0.073174
O4	O	0.998681	0.292432	-0.073184
O5	O	0.987996	-0.009372	0.073283
O6	O	0.872962	0.149820	0.073271
O7	O	1.113707	0.133238	0.073285
Zn8	Zn	0.993333	0.141528	0.096532
Zn9	Zn	0.993345	0.141531	-0.096432
O10	O	0.998673	0.292430	0.073273
C11	C	0.841938	0.149149	0.000041
C12	C	0.749483	0.147135	0.000036
C13	C	0.534343	0.236914	0.000043
C14	C	0.447471	0.235014	0.000049
C15	C	0.452341	0.046138	0.000051
C16	C	0.539211	0.048040	0.000052
C17	C	0.580209	0.143431	0.000043
C18	C	0.406468	0.139629	0.000048
C19	C	0.312278	0.137568	0.000055
C20	C	0.674405	0.145492	0.000039
C21	C	0.984394	-0.047991	0.000054
C22	C	0.973637	-0.163064	0.000052
C23	C	1.102954	-0.404066	0.000041
C24	C	1.092851	-0.512188	0.000039
C25	C	0.943328	-0.487433	0.000040
C26	C	0.953431	-0.379311	0.000042
C27	C	1.033247	-0.337632	0.000044
C28	C	1.043349	-0.229507	0.000052
C29	C	0.893827	-0.204754	0.000046
C30	C	0.883724	-0.312876	0.000044
C31	C	1.144739	0.133911	0.000056
C32	C	1.237195	0.135924	0.000056
C33	C	1.002284	0.331050	0.000043
C34	C	1.013041	0.446124	0.000040
N35	N	0.993331	0.141526	0.228224
N36	N	0.993352	0.141526	-0.228125
C37	C	1.044289	0.071059	0.453952
C38	C	1.044292	0.071057	0.546142
C39	C	0.942388	0.211996	0.546141
C40	C	0.942382	0.211992	0.453953
C41	C	0.993337	0.141525	0.407861
C42	C	0.993346	0.141526	0.592239
C43	C	0.993348	0.141524	0.692195
C44	C	0.993334	0.141526	0.307898
H45	H	0.576557	-0.028091	0.000055
C46	C	1.130071	-0.184452	0.000004
C47	C	1.188954	-0.265781	-0.000027
C48	C	1.268852	-0.224320	-0.000088
H49	H	1.137244	-0.142808	0.051062
H50	H	1.137159	-0.142814	-0.051090
H51	H	1.181869	-0.307401	0.051062
H52	H	1.181809	-0.307432	-0.051081
H53	H	1.275940	-0.182682	-0.051182
H54	H	1.276016	-0.182676	0.050971
H55	H	1.308814	-0.279494	-0.000117
C56	C	1.168607	-0.584196	-0.000098
C57	C	1.216179	-0.565336	-0.075436
C58	C	1.285980	-0.631640	-0.075588
H59	H	1.151278	-0.654595	-0.000145
H60	H	1.201027	-0.571551	0.050948
H61	H	1.183765	-0.577990	-0.126469
H62	H	1.233530	-0.494950	-0.075405
H63	H	1.318400	-0.618995	-0.024541
H64	H	1.268643	-0.702035	-0.075633
H65	H	1.318270	-0.618846	-0.126699
C66	C	1.099704	-0.005494	0.596025
C67	C	1.144338	-0.067185	0.535925
C68	C	1.195401	-0.137710	0.581844
H69	H	1.066472	-0.048757	0.631995
H70	H	1.137311	0.031783	0.631965
H71	H	1.106736	-0.104460	0.500000
H72	H	1.177586	-0.023951	0.499953
H73	H	1.233008	-0.100433	0.617784
H74	H	1.162162	-0.180966	0.617812
H75	H	1.225697	-0.179569	0.541073
C76	C	0.856609	-0.532496	-0.000021
C77	C	0.797719	-0.451176	-0.000043
C78	C	0.717825	-0.492648	-0.000115
H79	H	0.849437	-0.574159	0.051032
H80	H	0.849529	-0.574119	-0.051121
H81	H	0.804796	-0.409571	0.051052
H82	H	0.804864	-0.409507	-0.051092
H83	H	0.710744	-0.534271	-0.051215
H84	H	0.710661	-0.534310	0.050938
H85	H	0.677858	-0.437479	-0.000138
H86	H	0.900887	0.269374	0.416422
C87	C	1.099533	-0.005386	0.403750
C88	C	1.088621	0.009686	0.313149
C89	C	1.139485	-0.060734	0.266879
H90	H	1.085034	-0.074596	0.418782
H91	H	1.155943	0.005847	0.418779
H92	H	1.032223	-0.001555	0.298127
H93	H	1.103126	0.078881	0.298091
H94	H	1.195896	-0.049501	0.281907
H95	H	1.124982	-0.129939	0.281918
H96	H	1.132095	-0.050511	0.205402
C97	C	0.407979	-0.057530	0.000092
C98	C	0.466744	-0.138993	0.000115
C99	C	0.425911	-0.234509	0.000161
H100	H	0.374196	-0.062340	-0.050969
H101	H	0.374208	-0.062261	0.051184
H102	H	0.500500	-0.134265	-0.050971
H103	H	0.500529	-0.134218	0.051173
H104	H	0.392140	-0.239239	0.051252
H105	H	0.392129	-0.239307	-0.050901
H106	H	0.465776	-0.289792	0.000184
C107	C	0.578704	0.340584	0.000087
C108	C	0.519938	0.422045	0.000113
C109	C	0.560769	0.517561	0.000168
H110	H	0.612490	0.345406	-0.050971
H111	H	0.612470	0.345303	0.051181
H112	H	0.486185	0.417328	-0.050976
H113	H	0.486148	0.417256	0.051168
H114	H	0.594535	0.522281	0.051262
H115	H	0.594554	0.522373	-0.050891
H116	H	0.520903	0.572844	0.000194
C117	C	0.818167	-0.132575	-0.000135
C118	C	0.819586	-0.069786	-0.075491
C119	C	0.749898	-0.003294	-0.075691
H120	H	0.818926	-0.089791	0.050881
H121	H	0.769169	-0.172853	-0.000184
H122	H	0.868572	-0.029512	-0.075434
H123	H	0.818816	-0.112542	-0.126519
H124	H	0.700899	-0.043572	-0.075740
H125	H	0.750663	0.039483	-0.024672
H126	H	0.750847	0.039310	-0.126823
C127	C	0.887164	0.288461	0.596344
C128	C	0.898092	0.273405	0.686945
C129	C	0.847242	0.343839	0.733217
H130	H	0.830752	0.277254	0.581350
H131	H	0.901683	0.357668	0.581278
H132	H	0.883567	0.204214	0.702004
H133	H	0.954492	0.284620	0.701965
H134	H	0.861761	0.413046	0.718151
H135	H	0.790834	0.332626	0.718216
H136	H	0.854655	0.333639	0.794694
H137	H	0.410130	0.311138	0.000050
H138	H	1.167943	-0.370130	0.000051
H139	H	0.818741	-0.346827	0.000039
