data_functionalizedCrystal
_audit_creation_method	'MofGen! by Chris Wilmer'
_symmetry_space_group_name_H-M	'P1'
_symmetry_Int_Tables_number	1
_symmetry_cell_setting	triclinic
loop_
_symmetry_equiv_pos_as_xyz
  x,y,z
_cell_length_a	16.994747
_cell_length_b	12.759401
_cell_length_c	12.759393
_cell_angle_alpha	90.020938
_cell_angle_beta	89.989525
_cell_angle_gamma	89.987417
loop_
_atom_site_label
_atom_site_type_symbol
_atom_site_fract_x
_atom_site_fract_y
_atom_site_fract_z
Zn1	Zn	0.313958	1.606293	0.594166
Zn2	Zn	0.445882	1.606195	0.418548
Zn3	Zn	0.314000	1.430592	0.418501
Zn4	Zn	0.445827	1.430595	0.594185
O5	O	0.379917	1.518419	0.506350
O6	O	0.331463	1.753301	0.570882
O7	O	0.428428	1.582859	0.271521
O8	O	0.203613	1.453938	0.441777
O9	O	0.428388	1.753229	0.441856
O10	O	0.203582	1.583025	0.570837
O11	O	0.331535	1.453844	0.271486
O12	O	0.331481	1.283571	0.441795
O13	O	0.428294	1.453944	0.741204
O14	O	0.428334	1.283573	0.570869
O15	O	0.331410	1.583028	0.741190
O16	O	0.556256	1.582862	0.441874
O17	O	0.556216	1.453849	0.570914
C18	C	0.379907	1.245451	0.506329
C19	C	0.379922	1.128675	0.506345
C20	C	0.430430	1.073841	0.573448
C21	C	0.430433	0.964117	0.573469
C22	C	0.329418	0.964070	0.439275
C23	C	0.329411	1.073792	0.439260
C24	C	0.584857	1.518358	0.506397
C25	C	0.674179	1.518365	0.506394
C26	C	0.174177	1.518485	0.506297
C27	C	0.084855	1.518517	0.506274
Zn28	Zn	0.945086	1.430622	0.418472
Zn29	Zn	0.945023	1.606340	0.594120
Zn30	Zn	0.813219	1.430631	0.594167
Zn31	Zn	0.813137	1.606214	0.418513
O32	O	0.879116	1.518452	0.506318
O33	O	1.055459	1.453980	0.441735
O34	O	0.927546	1.583088	0.741147
O35	O	0.830773	1.283608	0.570863
O36	O	1.055412	1.583079	0.570783
O37	O	0.927655	1.283602	0.441781
O38	O	0.830711	1.453995	0.741182
O39	O	0.702827	1.453873	0.570904
O40	O	0.830633	1.582866	0.271487
O41	O	0.702767	1.582874	0.441852
O42	O	0.927575	1.453858	0.271456
O43	O	0.927467	1.753344	0.570823
O44	O	0.830571	1.753252	0.441806
C45	C	0.379841	1.518497	0.780384
C46	C	0.379809	1.518531	0.897160
C47	C	0.379927	1.792452	0.506372
C48	C	0.379931	1.909229	0.506381
C49	C	0.379935	1.518401	0.233383
C50	C	0.379745	1.518571	0.116607
C51	C	0.329353	1.585750	0.952017
C52	C	0.329319	1.585768	1.061741
C53	C	0.430203	1.451344	1.061742
C54	C	0.430232	1.451322	0.952020
C55	C	0.879005	1.791419	0.506317
C56	C	0.878981	1.908196	0.506346
C57	C	0.879102	1.518347	0.232285
C58	C	0.879096	1.518302	0.115508
C59	C	0.879230	1.244418	0.506323
C60	C	0.879278	1.127642	0.506325
C61	C	0.879176	1.518481	0.779286
C62	C	0.879333	1.518232	0.896062
C63	C	0.929454	1.963071	0.573478
C64	C	0.929429	2.072795	0.573500
C65	C	0.828451	2.072759	0.439256
C66	C	0.828481	1.963037	0.439229
C67	C	0.929565	1.451120	0.060628
C68	C	0.929553	1.451079	-0.049096
C69	C	0.828601	1.585412	-0.049051
C70	C	0.828610	1.585447	0.060671
H71	H	0.471561	0.919477	0.628113
O72	O	0.479137	1.385910	0.898679
C73	C	0.434240	1.318077	0.835171
H74	H	0.372107	1.311617	0.868225
H75	H	0.462765	1.237212	0.833915
H76	H	0.431544	1.350548	0.752021
O77	O	0.779373	1.909887	0.373981
C78	C	0.734803	1.981817	0.314735
H79	H	0.732074	2.060036	0.357788
H80	H	0.672657	1.950096	0.303605
H81	H	0.763634	1.993481	0.234906
H82	H	0.288295	0.919370	0.384655
H83	H	0.787498	1.640080	-0.093713
H84	H	0.970673	1.396445	0.105273
H85	H	0.787507	1.640156	0.105355
H86	H	0.288277	1.118438	0.384617
O87	O	0.978552	1.909684	0.638522
C88	C	1.029491	1.846237	0.578622
H89	H	1.001623	1.829778	0.499039
H90	H	1.040113	1.769090	0.621388
H91	H	1.087925	1.888534	0.567004
O92	O	0.280294	1.651061	0.898887
C93	C	0.235767	1.710410	0.970840
H94	H	0.233015	1.667393	1.049045
H95	H	0.173627	1.721633	0.939126
H96	H	0.264652	1.790196	0.982529
H97	H	0.787334	2.117424	0.384613
O98	O	0.280221	1.650915	1.115072
C99	C	0.229263	1.591132	1.178530
H100	H	0.224399	1.508380	1.145449
H101	H	0.168560	1.629153	1.179758
H102	H	0.253622	1.587521	1.261695
H103	H	0.970530	2.117469	0.628164
H104	H	0.970648	1.396369	-0.093774
O105	O	0.479161	1.386165	1.115198
C106	C	0.468304	1.400579	1.223805
H107	H	0.442472	1.481673	1.238798
H108	H	0.527376	1.393437	1.265517
H109	H	0.426286	1.338285	1.254923
O110	O	0.479379	1.127272	0.638671
C111	C	0.434525	1.190761	0.706619
H112	H	0.374715	1.207194	0.669669
H113	H	0.466662	1.267918	0.720633
H114	H	0.425928	1.148514	0.784497
