data_functionalizedCrystal
_audit_creation_method	'MofGen! by Chris Wilmer'
_symmetry_space_group_name_H-M	'P1'
_symmetry_Int_Tables_number	1
_symmetry_cell_setting	triclinic
loop_
_symmetry_equiv_pos_as_xyz
  x,y,z
_cell_length_a	19.288864
_cell_length_b	10.654550
_cell_length_c	9.130313
_cell_angle_alpha	90.004369
_cell_angle_beta	90.017368
_cell_angle_gamma	83.810588
loop_
_atom_site_label
_atom_site_type_symbol
_atom_site_fract_x
_atom_site_fract_y
_atom_site_fract_z
O1	O	-0.922373	-0.156655	-0.122269
O2	O	-0.422373	0.343345	0.377731
O3	O	-0.720251	-0.177787	-0.122169
O4	O	-0.220251	0.322213	0.377831
O5	O	-0.825959	0.015618	-0.122212
O6	O	-0.325959	0.515618	0.377788
O7	O	-0.816665	-0.350060	-0.122226
O8	O	-0.316665	0.149940	0.377774
O9	O	-0.825952	0.015623	0.121387
O10	O	-0.325952	0.515623	0.621387
O11	O	-0.720244	-0.177782	0.121430
O12	O	-0.220244	0.322218	0.621430
O13	O	-0.922366	-0.156649	0.121330
O14	O	-0.422366	0.343351	0.621330
Cu15	Cu	-0.821304	-0.167215	0.143622
Cu16	Cu	-0.321304	0.332785	0.643622
Cu17	Cu	-0.821313	-0.167221	-0.144462
Cu18	Cu	-0.321313	0.332779	0.355538
O19	O	-0.816657	-0.350054	0.121373
O20	O	-0.316657	0.149946	0.621373
C21	C	-0.694366	-0.177105	-0.000357
C22	C	-0.194366	0.322895	0.499643
C23	C	-0.617249	-0.175063	-0.000318
C24	C	-0.117249	0.324937	0.499682
C25	C	-0.825273	0.062404	-0.000413
C26	C	-0.325273	0.562404	0.499587
C27	C	-0.823231	0.201803	-0.000414
C28	C	-0.323231	0.701803	0.499586
C29	C	-0.948250	-0.157332	-0.000486
C30	C	-0.448250	0.342668	0.499514
C31	C	-1.025367	-0.159373	-0.000534
C32	C	-0.525367	0.340627	0.499466
C33	C	-0.573296	-0.288545	-0.000346
C34	C	-0.073296	0.211455	0.499654
C35	C	-0.500836	-0.286627	-0.000362
C36	C	-0.000836	0.213373	0.499638
C37	C	-0.472333	-0.171222	-0.000380
C38	C	0.027667	0.328778	0.499620
C39	C	-0.516296	-0.057725	-0.000344
C40	C	-0.016296	0.442275	0.499656
C41	C	-0.588754	-0.059646	-0.000314
C42	C	-0.088754	0.440354	0.499686
C43	C	-0.363480	-0.080502	-0.085769
C44	C	0.136520	0.419498	0.414231
C45	C	-0.291023	-0.078586	-0.085809
C46	C	0.208977	0.421414	0.414191
C47	C	-0.248849	-0.165292	-0.000468
C48	C	0.251151	0.334708	0.499532
C49	C	-0.279139	-0.253936	0.084893
C50	C	0.220861	0.246064	0.584893
C51	C	-0.351597	-0.255857	0.084924
C52	C	0.148403	0.244143	0.584924
C53	C	-0.393766	-0.169126	-0.000412
C54	C	0.106234	0.330874	0.499588
C55	C	-0.126326	-0.276702	-0.000511
C56	C	0.373674	0.223298	0.499489
C57	C	-0.053865	-0.274779	-0.000518
C58	C	0.446135	0.225221	0.499482
C59	C	-0.069327	-0.045875	-0.000515
C60	C	0.430673	0.454125	0.499485
C61	C	-0.141786	-0.047800	-0.000494
C62	C	0.358214	0.452200	0.499506
C63	C	-0.170281	-0.163217	-0.000498
C64	C	0.329719	0.336783	0.499502
C65	C	-0.817344	-0.396840	-0.000429
C66	C	-0.317344	0.103160	0.499571
C67	C	-0.819385	-0.536240	-0.000438
C68	C	-0.319385	-0.036240	0.499562
N69	N	-0.821303	-0.167210	0.346245
N70	N	-0.321303	0.332790	0.846245
C71	C	-0.885471	0.282621	-0.000446
C72	C	-0.385471	0.782621	0.499554
C73	C	-0.883548	0.413601	-0.000463
C74	C	-0.383548	0.913601	0.499537
C75	C	-0.757141	0.382932	-0.000411
C76	C	-0.257141	0.882932	0.499589
C77	C	-0.759065	0.251955	-0.000404
C78	C	-0.259065	0.751955	0.499596
N79	N	-0.821319	-0.167217	-0.347084
N80	N	-0.321319	0.332783	0.152916
C81	C	-0.868127	-0.081605	0.422878
C82	C	-0.368127	0.418395	0.922878
C83	C	-0.868133	-0.081605	0.576214
C84	C	-0.368133	0.418395	1.076214
C85	C	-0.774490	-0.252825	0.576272
C86	C	-0.274490	0.247175	1.076272
C87	C	-0.774481	-0.252818	0.422938
C88	C	-0.274481	0.247182	0.922938
H89	H	-0.596492	-0.382526	-0.000352
H90	H	-0.096492	0.117474	0.499648
H91	H	-0.736370	-0.322527	0.638731
H92	H	-0.236370	0.177473	1.138731
H93	H	-0.906260	-0.011897	0.638605
H94	H	-0.406260	0.488103	1.138605
H95	H	-0.704899	0.423782	-0.000400
H96	H	-0.204899	0.923782	0.499600
H97	H	-0.177574	0.044609	-0.000479
H98	H	0.322426	0.544609	0.499521
H99	H	-0.934230	0.479399	-0.000491
H100	H	-0.434230	0.979399	0.499509
H101	H	-0.708379	0.186149	-0.000383
H102	H	-0.208379	0.686149	0.499617
H103	H	-0.906251	-0.011896	0.360437
H104	H	-0.406251	0.488104	0.860437
H105	H	-0.736348	-0.322528	0.360540
H106	H	-0.236348	0.177472	0.860540
H107	H	-0.376257	-0.328030	0.154433
H108	H	0.123743	0.171970	0.654433
H109	H	-0.465043	-0.379040	-0.000380
H110	H	0.034957	0.120960	0.499620
H111	H	-0.244803	-0.324540	0.154387
H112	H	0.255197	0.175460	0.654387
H113	H	-0.149528	-0.370681	-0.000493
H114	H	0.350472	0.129319	0.499507
H115	H	-0.046120	0.048091	-0.000621
H116	H	0.453880	0.548091	0.499379
H117	H	-0.018079	-0.367194	-0.000532
H118	H	0.481921	0.132806	0.499468
H119	H	-0.266366	-0.006412	-0.155321
H120	H	0.233634	0.493588	0.344679
H121	H	-0.493084	0.036239	-0.000379
H122	H	0.006916	0.536239	0.499621
H123	H	-0.397813	-0.009893	-0.155273
H124	H	0.102187	0.490107	0.344727
H125	H	-0.937719	0.241793	-0.000457
H126	H	-0.437719	0.741793	0.499543
H127	H	-0.624542	0.032767	-0.000292
H128	H	-0.124542	0.532767	0.499708
