data_functionalizedCrystal
_audit_creation_method	'MofGen! by Chris Wilmer'
_symmetry_space_group_name_H-M	'P1'
_symmetry_Int_Tables_number	1
_symmetry_cell_setting	triclinic
loop_
_symmetry_equiv_pos_as_xyz
  x,y,z
_cell_length_a	25.639233
_cell_length_b	10.686154
_cell_length_c	10.686285
_cell_angle_alpha	89.657472
_cell_angle_beta	85.620887
_cell_angle_gamma	85.645322
loop_
_atom_site_label
_atom_site_type_symbol
_atom_site_fract_x
_atom_site_fract_y
_atom_site_fract_z
Zn1	Zn	-0.222384	-1.956114	-0.352299
Zn2	Zn	-0.127795	-1.972137	-0.562040
Zn3	Zn	-0.141108	-1.746366	-0.368402
Zn4	Zn	-0.221344	-1.762439	-0.578110
O5	O	-0.178158	-1.859264	-0.465213
O6	O	-0.204701	-2.133779	-0.366657
O7	O	-0.056396	-1.942168	-0.536367
O8	O	-0.157896	-1.760757	-0.190724
O9	O	-0.135207	-2.145552	-0.520752
O10	O	-0.217610	-1.914858	-0.178894
O11	O	-0.066177	-1.776294	-0.394101
O12	O	-0.156887	-1.572958	-0.409685
O13	O	-0.294647	-1.788151	-0.548142
O14	O	-0.215836	-1.584767	-0.563757
O15	O	-0.295411	-1.930443	-0.382240
O16	O	-0.134198	-1.957753	-0.739712
O17	O	-0.202928	-1.803688	-0.751519
C18	C	-0.187694	-1.533347	-0.490213
C19	C	-0.191784	-1.393920	-0.500938
C20	C	-0.314530	-1.859303	-0.465187
C21	C	-0.372644	-1.859319	-0.465177
C22	C	-0.733416	-1.933494	-0.378545
C23	C	-0.788021	-1.933507	-0.378509
O24	O	-0.816604	-1.996483	-0.305007
N25	N	-0.814933	-1.859435	-0.464872
C26	C	-0.787237	-1.785335	-0.551268
O27	O	-0.815142	-1.722331	-0.624722
C28	C	-0.732634	-1.785317	-0.551297
C29	C	-0.705724	-1.859403	-0.464937
C30	C	-0.706507	-2.007574	-0.292191
C31	C	-0.651906	-2.007563	-0.292229
C32	C	-0.624214	-1.933472	-0.378620
C33	C	-0.651123	-1.859392	-0.464975
C34	C	-0.704939	-1.711211	-0.637686
C35	C	-0.650332	-1.711198	-0.637707
C36	C	-0.623423	-1.785285	-0.551347
C37	C	-0.568829	-1.785290	-0.551404
N38	N	-0.541918	-1.859362	-0.465041
C39	C	-0.569610	-1.933453	-0.378649
C40	C	-0.901909	-1.785379	-0.551199
C41	C	-0.956511	-1.785403	-0.551177
C42	C	-0.957292	-1.933574	-0.378416
C43	C	-0.902688	-1.933555	-0.378445
C44	C	-0.874997	-1.859451	-0.464836
C45	C	-0.454943	-1.933424	-0.378736
C46	C	-0.400336	-1.933410	-0.378785
C47	C	-0.399561	-1.785236	-0.551541
C48	C	-0.454162	-1.785254	-0.551497
C49	C	-0.481852	-1.859352	-0.465084
O50	O	-0.540213	-1.722342	-0.624865
O51	O	-0.541699	-1.996434	-0.305197
C52	C	-0.042317	-1.859291	-0.465141
C53	C	0.015792	-1.859490	-0.464780
C54	C	-0.167016	-1.884238	-0.791129
C55	C	-0.162263	-1.895036	-0.930549
C56	C	-0.168582	-1.186453	-0.440103
C57	C	-0.164494	-1.325879	-0.429372
C58	C	-0.189354	-1.834227	-0.138021
C59	C	-0.194125	-1.823558	0.001409
H60	H	-0.137999	-1.374291	-0.359897
H61	H	-0.979849	-1.993900	-0.308068
O62	O	-0.223386	-1.335967	-0.583731
C63	C	-0.220566	-1.204990	-0.576394
H64	H	-0.207335	-1.179766	-0.480881
H65	H	-0.260872	-1.155800	-0.588834
H66	H	-0.191210	-1.173491	-0.653532
H67	H	-0.627790	-1.650838	-0.708047
O68	O	-0.125435	-1.977911	-0.988488
C69	C	-0.128729	-1.970616	-1.119462
H70	H	-0.169663	-1.930771	-1.140381
H71	H	-0.120814	-2.068408	-1.162035
H72	H	-0.098375	-1.906771	-1.161880
O73	O	-0.374281	-2.005410	-0.294766
C74	C	-0.410436	-2.070824	-0.218527
H75	H	-0.451010	-2.019115	-0.218105
H76	H	-0.397643	-2.076640	-0.118674
H77	H	-0.411889	-2.169611	-0.257152
O78	O	-0.481886	-2.005480	-0.294969
C79	C	-0.508651	-2.091999	-0.360148
H80	H	-0.514888	-2.055030	-0.458596
H81	H	-0.548298	-2.104923	-0.307727
H82	H	-0.484412	-2.186003	-0.366826
O83	O	-0.625854	-2.079551	-0.208207
C84	C	-0.662013	-2.144960	-0.131976
H85	H	-0.702587	-2.093250	-0.131570
H86	H	-0.649227	-2.150768	-0.032117
H87	H	-0.663465	-2.243749	-0.170595
O88	O	-0.231062	-1.740876	-0.940780
C89	C	-0.265316	-1.806433	-0.859399
H90	H	-0.264358	-1.908245	-0.891294
H91	H	-0.306922	-1.760875	-0.861269
H92	H	-0.252368	-1.803189	-0.759829
O93	O	-0.876635	-2.005546	-0.294428
C94	C	-0.912791	-2.070967	-0.218201
H95	H	-0.953365	-2.019263	-0.217789
H96	H	-0.900003	-2.076781	-0.118344
H97	H	-0.914240	-2.169754	-0.256830
H98	H	-0.729049	-2.067907	-0.221833
H99	H	-0.879366	-1.725033	-0.621556
O100	O	-0.982568	-1.713331	-0.635126
C101	C	-0.946409	-1.647967	-0.711401
H102	H	-0.909368	-1.639690	-0.660371
H103	H	-0.964616	-1.550157	-0.732358
H104	H	-0.936004	-1.701195	-0.803151
O105	O	-0.730992	-1.639119	-0.721621
C106	C	-0.694830	-1.573748	-0.797879
H107	H	-0.657789	-1.565487	-0.746842
H108	H	-0.713034	-1.475931	-0.818821
H109	H	-0.684425	-1.626960	-0.889638
O110	O	-0.480226	-1.713183	-0.635443
C111	C	-0.444070	-1.647819	-0.711728
H112	H	-0.407026	-1.639543	-0.660709
H113	H	-0.462278	-1.550008	-0.732680
H114	H	-0.433670	-1.701046	-0.803480
H115	H	-0.377004	-1.724917	-0.621882
