data_functionalizedCrystal
_audit_creation_method	'MofGen! by Chris Wilmer'
_symmetry_space_group_name_H-M	'P1'
_symmetry_Int_Tables_number	1
_symmetry_cell_setting	triclinic
loop_
_symmetry_equiv_pos_as_xyz
  x,y,z
_cell_length_a	19.288864
_cell_length_b	23.532357
_cell_length_c	17.766277
_cell_angle_alpha	89.988084
_cell_angle_beta	89.976791
_cell_angle_gamma	82.982267
loop_
_atom_site_label
_atom_site_type_symbol
_atom_site_fract_x
_atom_site_fract_y
_atom_site_fract_z
O1	O	0.921118	0.071047	-0.062845
O2	O	0.718826	0.080631	-0.062794
O3	O	0.826091	-0.007082	-0.062805
O4	O	0.813854	0.158760	-0.062833
O5	O	0.826072	-0.007086	0.062383
O6	O	0.718807	0.080627	0.062394
O7	O	0.921100	0.071043	0.062344
Cu8	Cu	0.819952	0.075834	0.073800
Cu9	Cu	0.819974	0.075839	-0.074250
O10	O	0.813835	0.158756	0.062355
C11	C	0.692941	0.080320	-0.000193
C12	C	0.615841	0.079395	-0.000174
C13	C	0.570975	0.130861	-0.000194
C14	C	0.498530	0.129991	-0.000202
C15	C	0.470956	0.077652	-0.000205
C16	C	0.515832	0.026180	-0.000180
C17	C	0.588274	0.027051	-0.000165
C18	C	0.362836	0.036510	-0.044082
C19	C	0.290395	0.035641	-0.044103
C20	C	0.247519	0.074963	-0.000250
C21	C	0.277092	0.115164	0.043613
C22	C	0.349535	0.116036	0.043629
C23	C	0.392405	0.076702	-0.000222
C24	C	0.124100	0.125490	-0.000278
C25	C	0.051655	0.124618	-0.000282
C26	C	0.068958	0.020805	-0.000268
C27	C	0.141401	0.021678	-0.000256
C28	C	0.168968	0.074022	-0.000265
C29	C	0.825775	-0.028301	-0.000209
C30	C	0.824855	-0.091522	-0.000202
C31	C	0.819088	-0.483543	-0.068481
C32	C	0.818213	-0.542944	-0.068485
O33	O	0.817746	-0.573659	-0.126521
N34	N	0.817769	-0.572659	-0.000246
C35	C	0.818193	-0.542968	0.068002
O36	O	0.817734	-0.573697	0.126045
C37	C	0.819063	-0.483567	0.068006
C38	C	0.819514	-0.453857	-0.000238
C39	C	0.819538	-0.453832	-0.136719
C40	C	0.820414	-0.394435	-0.136715
C41	C	0.820840	-0.364749	-0.068472
C42	C	0.820390	-0.394460	-0.000234
C43	C	0.819482	-0.453877	0.136253
C44	C	0.820351	-0.394472	0.136250
C45	C	0.820802	-0.364762	0.068006
C46	C	0.821692	-0.305376	0.068013
N47	N	0.822136	-0.275662	-0.000226
C48	C	0.821710	-0.305348	-0.068469
C49	C	0.816365	-0.667713	0.067990
C50	C	0.815501	-0.727113	0.067988
C51	C	0.815520	-0.727085	-0.068500
C52	C	0.816389	-0.667685	-0.068497
C53	C	0.816809	-0.637999	-0.000249
C54	C	0.823550	-0.180610	-0.068455
C55	C	0.824429	-0.121208	-0.068444
C56	C	0.824406	-0.121241	0.068043
C57	C	0.823531	-0.180638	0.068033
C58	C	0.823101	-0.210321	-0.000222
O59	O	0.822157	-0.274623	0.126019
O60	O	0.822159	-0.274611	-0.126502
C61	C	0.946985	0.071353	-0.000259
C62	C	1.024085	0.072279	-0.000283
C63	C	0.814151	0.179975	-0.000243
C64	C	0.815071	0.243196	-0.000255
N65	N	0.819941	0.075830	0.177930
N66	N	0.819990	0.075839	-0.178380
C67	C	0.867453	0.037010	0.217312
C68	C	0.867457	0.037007	0.296114
C69	C	0.819956	0.075835	0.335531
C70	C	0.772435	0.114658	0.296139
C71	C	0.772428	0.114656	0.217339
C72	C	0.810486	0.127727	0.460361
C73	C	0.810498	0.127730	0.539160
C74	C	0.819975	0.075842	0.578577
C75	C	0.829454	0.023948	0.539185
C76	C	0.829446	0.023946	0.460385
C77	C	0.819958	0.075841	0.420976
C78	C	0.867493	0.037015	0.703405
C79	C	0.867493	0.037012	0.782208
C80	C	0.772474	0.114667	0.782232
C81	C	0.772471	0.114666	0.703430
C82	C	0.819985	0.075840	0.664021
H83	H	0.593414	0.173483	-0.000203
Cl84	Cl	-0.004750	0.189325	-0.000304
H85	H	0.816755	-0.643498	-0.124067
H86	H	0.493376	-0.016435	-0.000193
H87	H	0.820682	-0.370304	0.191827
Cl88	Cl	0.386712	0.166569	0.098772
Cl89	Cl	0.712695	0.163463	0.167827
Cl90	Cl	0.841373	-0.041288	0.588729
Cl91	Cl	0.927179	-0.011801	0.167770
H92	H	0.624805	-0.014860	-0.000148
Cl93	Cl	0.034299	-0.044993	-0.000262
H94	H	0.733795	0.146279	0.814325
H95	H	0.815144	-0.751300	0.123559
Cl96	Cl	0.822977	-0.217991	0.153826
Cl97	Cl	0.712716	0.163468	0.345690
H98	H	0.733786	0.146279	0.671363
Cl99	Cl	0.798587	0.192967	0.588673
H100	H	0.461993	0.171902	-0.000217
H101	H	0.816709	-0.643547	0.123569
H102	H	0.824756	-0.097060	0.123604
H103	H	0.837163	-0.018308	0.428315
H104	H	0.266321	0.002909	-0.079822
Cl105	Cl	0.223200	0.164602	0.098746
Cl106	Cl	0.824998	-0.083861	-0.154243
Cl107	Cl	0.814978	-0.764416	-0.154292
Cl108	Cl	0.818910	-0.491213	0.222051
H109	H	0.906148	0.005394	0.328185
H110	H	0.906180	0.005399	0.671317
Cl111	Cl	0.820975	-0.357093	-0.222512
Cl112	Cl	0.158758	0.191292	-0.000282
H113	H	0.802757	0.169983	0.428275
Cl114	Cl	0.197808	-0.043026	-0.000235
Cl115	Cl	0.823010	-0.217917	-0.154262
Cl116	Cl	0.416730	-0.012929	-0.099217
Cl117	Cl	0.819004	-0.491141	-0.222522
Cl118	Cl	0.927223	-0.011798	0.831720
