data_functionalizedCrystal
_audit_creation_method	'MofGen! by Chris Wilmer'
_symmetry_space_group_name_H-M	'P1'
_symmetry_Int_Tables_number	1
_symmetry_cell_setting	triclinic
loop_
_symmetry_equiv_pos_as_xyz
  x,y,z
_cell_length_a	19.805407
_cell_length_b	16.625546
_cell_length_c	19.805399
_cell_angle_alpha	89.972133
_cell_angle_beta	89.980427
_cell_angle_gamma	90.022468
loop_
_atom_site_label
_atom_site_type_symbol
_atom_site_fract_x
_atom_site_fract_y
_atom_site_fract_z
Zn1	Zn	1.034754	-0.321020	-0.382718
Zn2	Zn	1.534754	0.178980	0.117282
Zn3	Zn	1.034677	-0.455857	-0.269529
Zn4	Zn	1.534677	0.044143	0.230471
Zn5	Zn	0.921569	-0.321043	-0.269543
Zn6	Zn	1.421569	0.178957	0.230457
Zn7	Zn	0.921540	-0.455815	-0.382676
Zn8	Zn	1.421540	0.044185	0.117324
O9	O	0.978135	-0.388434	-0.326117
O10	O	1.478135	0.111566	0.173883
O11	O	1.129461	-0.338915	-0.367716
O12	O	1.629461	0.161085	0.132284
O13	O	1.019652	-0.438001	-0.174815
O14	O	1.519652	0.061999	0.325185
O15	O	0.936628	-0.208207	-0.284579
O16	O	1.436628	0.291793	0.215421
O17	O	1.129404	-0.437980	-0.284556
O18	O	1.629404	0.062020	0.215444
O19	O	1.019784	-0.208191	-0.367729
O20	O	1.519784	0.291809	0.132271
O21	O	0.936553	-0.338953	-0.174825
O22	O	1.436553	0.161047	0.325175
O23	O	0.826848	-0.338912	-0.284538
O24	O	1.326848	0.161088	0.215462
O25	O	0.936579	-0.437907	-0.477398
O26	O	1.436579	0.062093	0.022602
O27	O	0.826827	-0.437928	-0.367657
O28	O	1.326827	0.062072	0.132343
O29	O	1.019756	-0.338874	-0.477429
O30	O	1.519756	0.161126	0.022571
O31	O	1.019625	-0.568684	-0.284515
O32	O	1.519625	-0.068684	0.215485
O33	O	0.936504	-0.568653	-0.367644
O34	O	1.436504	-0.068653	0.132356
C35	C	0.802279	-0.388418	-0.326095
C36	C	1.302279	0.111582	0.173905
C37	C	0.727047	-0.388431	-0.326102
C38	C	1.227047	0.111569	0.173898
C39	C	0.691710	-0.440067	-0.369311
C40	C	1.191710	0.059933	0.130689
C41	C	0.621021	-0.440068	-0.369321
C42	C	1.121021	0.059932	0.130679
C43	C	0.585671	-0.388437	-0.326117
C44	C	1.085671	0.111563	0.173883
C45	C	0.621014	-0.336796	-0.282905
C46	C	1.121014	0.163204	0.217095
C47	C	0.691701	-0.336791	-0.282899
C48	C	1.191701	0.163209	0.217101
C49	C	0.335941	-0.336814	-0.282927
C50	C	0.835941	0.163186	0.217073
C51	C	0.265248	-0.336825	-0.282935
C52	C	0.765248	0.163175	0.217065
C53	C	0.265261	-0.440091	-0.369349
C54	C	0.765261	0.059909	0.130651
C55	C	0.335948	-0.440086	-0.369343
C56	C	0.835948	0.059914	0.130657
C57	C	0.371284	-0.388442	-0.326134
C58	C	0.871284	0.111558	0.173866
C59	C	0.447932	-0.388440	-0.326125
C60	C	0.947932	0.111560	0.173875
C61	C	0.509024	-0.388443	-0.326122
C62	C	1.009024	0.111557	0.173878
C63	C	0.978071	-0.597925	-0.326088
C64	C	1.478071	-0.097925	0.173912
C65	C	0.978105	-0.687546	-0.326099
C66	C	1.478105	-0.187546	0.173901
C67	C	0.978224	-1.015721	-0.326169
C68	C	1.478224	-0.515721	0.173831
C69	C	0.978189	-0.924413	-0.326152
C70	C	1.478189	-0.424413	0.173848
C71	C	0.978164	-0.851636	-0.326134
C72	C	1.478164	-0.351636	0.173866
C73	C	0.978130	-0.760322	-0.326117
C74	C	1.478130	-0.260322	0.173883
C75	C	1.154678	-0.388450	-0.326139
C76	C	1.654678	0.111550	0.173861
C77	C	1.229910	-0.388457	-0.326149
C78	C	1.729910	0.111543	0.173851
C79	C	0.978173	-0.388383	-0.502660
C80	C	1.478173	0.111617	-0.002660
C81	C	0.978189	-0.388361	-0.577892
C82	C	1.478189	0.111639	-0.077892
C83	C	0.978218	-0.178125	-0.326160
C84	C	1.478218	0.321875	0.173840
C85	C	0.978253	-0.088504	-0.326178
C86	C	1.478253	0.411496	0.173822
C87	C	1.021501	-0.336792	-0.613253
C88	C	1.521501	0.163208	-0.113253
C89	C	1.021508	-0.336769	-0.683941
C90	C	1.521508	0.163231	-0.183941
C91	C	0.978206	-0.388319	-0.719267
C92	C	1.478206	0.111681	-0.219267
C93	C	0.934889	-0.439890	-0.683901
C94	C	1.434889	0.060110	-0.183901
C95	C	0.934880	-0.439909	-0.613214
C96	C	1.434880	0.060091	-0.113214
C97	C	0.934928	-0.439815	-0.968974
C98	C	1.434928	0.060185	-0.468974
C99	C	0.934942	-0.439794	-1.039667
C100	C	1.434942	0.060206	-0.539667
C101	C	1.021556	-0.336675	-1.039702
C102	C	1.521556	0.163325	-0.539702
C103	C	1.021546	-0.336694	-0.969015
C104	C	1.521546	0.163306	-0.469015
C105	C	0.978227	-0.388262	-0.933655
C106	C	1.478227	0.111738	-0.433655
C107	C	0.978219	-0.388285	-0.857006
C108	C	1.478219	0.111715	-0.357006
C109	C	0.978217	-0.388300	-0.795914
C110	C	1.478217	0.111700	-0.295914
C111	C	0.978136	-0.388426	-0.150261
C112	C	1.478136	0.111574	0.349739
C113	C	0.978251	-0.388221	-0.075029
C114	C	1.478251	0.111779	0.424971
H115	H	0.364726	-0.482132	-0.404522
H116	H	0.864726	0.017868	0.095478
O117	O	0.370155	-0.286623	-0.240893
O118	O	0.870155	0.213377	0.259107
C119	C	0.323794	-0.241042	-0.202775
C120	C	0.823794	0.258958	0.297225
H121	H	0.273399	-0.274076	-0.200382
H122	H	0.773399	0.225924	0.299618
H123	H	0.344198	-0.232347	-0.149459
H124	H	0.844198	0.267653	0.350541
H125	H	0.316297	-0.179848	-0.227659
H126	H	0.816297	0.320152	0.272341
O127	O	0.231039	-0.490325	-0.411354
O128	O	0.731039	0.009675	0.088646
C129	C	0.277398	-0.535879	-0.449496
C130	C	0.777398	-0.035879	0.050504
H131	H	0.327771	-0.538627	-0.421759
H132	H	0.827771	-0.038627	0.078241
H133	H	0.256959	-0.599419	-0.456627
H134	H	0.756959	-0.099419	0.043373
H135	H	0.284952	-0.506429	-0.500943
H136	H	0.784952	-0.006429	-0.000943
O137	O	0.586645	-0.286755	-0.240867
O138	O	1.086645	0.213245	0.259133
C139	C	0.545712	-0.332591	-0.197095
C140	C	1.045712	0.167409	0.302905
H141	H	0.566996	-0.396087	-0.192811
H142	H	1.066996	0.103913	0.307189
H143	H	0.544894	-0.303343	-0.145052
H144	H	1.044894	0.196657	0.354948
H145	H	0.492149	-0.335409	-0.218024
H146	H	0.992149	0.164591	0.281976
H147	H	0.899630	-0.481861	-0.712669
H148	H	1.399630	0.018139	-0.212669
O149	O	0.230883	-0.286783	-0.240887
O150	O	0.730883	0.213217	0.259113
C151	C	0.189958	-0.332629	-0.197114
C152	C	0.689958	0.167371	0.302886
H153	H	0.211245	-0.396124	-0.192841
H154	H	0.711245	0.103876	0.307159
H155	H	0.189146	-0.303389	-0.145067
H156	H	0.689146	0.196611	0.354933
H157	H	0.136391	-0.335446	-0.218035
H158	H	0.636391	0.164554	0.281965
O159	O	1.063672	-0.286726	-0.934665
O160	O	1.563672	0.213274	-0.434665
C161	C	1.107354	-0.332634	-0.893754
C162	C	1.607354	0.167366	-0.393754
H163	H	1.111530	-0.396132	-0.915043
H164	H	1.611530	0.103868	-0.415043
H165	H	1.159448	-0.303462	-0.892957
H166	H	1.659448	0.196538	-0.392957
H167	H	1.086407	-0.335431	-0.840181
H168	H	1.586407	0.164569	-0.340181
O169	O	0.725941	-0.490247	-0.411345
O170	O	1.225941	0.009753	0.088655
C171	C	0.679589	-0.535834	-0.449474
C172	C	1.179589	-0.035834	0.050526
H173	H	0.629211	-0.502815	-0.451869
H174	H	1.129211	-0.002815	0.048131
H175	H	0.700032	-0.544515	-0.502788
H176	H	1.200032	-0.044515	-0.002788
H177	H	0.672044	-0.597034	-0.424597
H178	H	1.172044	-0.097034	0.075403
O179	O	0.586668	-0.490117	-0.411365
O180	O	1.086668	0.009883	0.088635
C181	C	0.545800	-0.444293	-0.455151
C182	C	1.045800	0.055707	0.044849
H183	H	0.567118	-0.380792	-0.459430
H184	H	1.067118	0.119208	0.040570
H185	H	0.545018	-0.473544	-0.507194
H186	H	1.045018	0.026456	-0.007194
H187	H	0.492217	-0.441489	-0.434238
H188	H	0.992217	0.058511	0.065762
H189	H	0.899678	-0.481774	-1.068427
H190	H	1.399678	0.018226	-0.568427
O191	O	0.725925	-0.286612	-0.240857
O192	O	1.225925	0.213388	0.259143
C193	C	0.679569	-0.241030	-0.202735
C194	C	1.179569	0.258970	0.297265
H195	H	0.629170	-0.274054	-0.200347
H196	H	1.129170	0.225946	0.299653
H197	H	0.699972	-0.232347	-0.149417
H198	H	1.199972	0.267653	0.350583
H199	H	0.672080	-0.179830	-0.227612
H200	H	1.172080	0.320170	0.272388
H201	H	1.056826	-0.294683	-1.068501
H202	H	1.556826	0.205317	-0.568501
H203	H	1.056764	-0.294817	-0.584496
H204	H	1.556764	0.205183	-0.084496
O205	O	1.063550	-0.286561	-0.718212
O206	O	1.563550	0.213439	-0.218212
C207	C	1.048778	-0.206204	-0.700957
C208	C	1.548778	0.293796	-0.200957
H209	H	1.022749	-0.204552	-0.649630
H210	H	1.522749	0.295448	-0.149630
H211	H	1.097642	-0.170057	-0.698549
H212	H	1.597642	0.329943	-0.198549
H213	H	1.013999	-0.179024	-0.740739
H214	H	1.513999	0.320976	-0.240739
H215	H	0.899665	-0.481817	-0.940193
H216	H	1.399665	0.018183	-0.440193
O217	O	0.892794	-0.490090	-0.578966
O218	O	1.392794	0.009910	-0.078966
C219	C	0.854568	-0.535577	-0.625301
C220	C	1.354568	-0.035577	-0.125301
H221	H	0.882295	-0.538349	-0.675697
H222	H	1.382295	-0.038349	-0.175697
H223	H	0.847331	-0.599113	-0.604865
H224	H	1.347331	-0.099113	-0.104865
H225	H	0.803171	-0.506053	-0.632810
H226	H	1.303171	-0.006053	-0.132810
