data_functionalizedCrystal
_audit_creation_method	'MofGen! by Chris Wilmer'
_symmetry_space_group_name_H-M	'P1'
_symmetry_Int_Tables_number	1
_symmetry_cell_setting	triclinic
loop_
_symmetry_equiv_pos_as_xyz
  x,y,z
_cell_length_a	10.685901
_cell_length_b	12.594516
_cell_length_c	10.686551
_cell_angle_alpha	94.403300
_cell_angle_beta	90.348291
_cell_angle_gamma	85.652353
loop_
_atom_site_label
_atom_site_type_symbol
_atom_site_fract_x
_atom_site_fract_y
_atom_site_fract_z
Zn1	Zn	1.972210	-0.514688	0.561900
Zn2	Zn	1.955978	-0.705237	0.352155
Zn3	Zn	1.746336	-0.512688	0.368276
Zn4	Zn	1.762415	-0.678033	0.577982
O5	O	1.859235	-0.602662	0.465078
O6	O	2.145593	-0.552186	0.520600
O7	O	1.914646	-0.690243	0.178752
O8	O	1.776363	-0.364011	0.393977
O9	O	2.133667	-0.692181	0.366501
O10	O	1.942312	-0.365480	0.536232
O11	O	1.760624	-0.548778	0.190596
O12	O	1.572934	-0.522400	0.409571
O13	O	1.803767	-0.645817	0.751390
O14	O	1.584747	-0.643879	0.563640
O15	O	1.957903	-0.525808	0.739575
O16	O	1.930237	-0.850571	0.382095
O17	O	1.788028	-0.830585	0.548009
C18	C	1.533326	-0.579971	0.490101
C19	C	1.393903	-0.570288	0.500835
C20	C	1.859152	-0.879198	0.465072
C21	C	1.859234	-0.997506	0.465103
C22	C	1.781874	-1.055931	0.555285
C23	C	1.742523	-1.131517	0.443167
C24	C	1.898701	-1.132726	0.577231
C25	C	1.819818	-1.071534	0.352929
C26	C	1.976055	-1.072735	0.487066
C27	C	1.936742	-1.148298	0.374866
C28	C	2.186417	-0.625441	0.439959
C29	C	2.325842	-0.635149	0.429254
C30	C	1.884439	-0.583001	0.792271
C31	C	1.895180	-0.574623	0.931701
C32	C	1.859355	-0.325047	0.465109
C33	C	1.859406	-0.206743	0.465122
C34	C	1.834201	-0.622174	0.139153
C35	C	1.823703	-0.630269	-0.000295
H36	H	1.345504	-0.507352	0.570338
C37	C	1.729928	-0.703289	0.934266
C38	C	1.624605	-0.655663	0.851724
C39	C	1.530827	-0.728684	0.786276
C40	C	1.542373	-0.849331	0.803370
C41	C	1.647701	-0.896964	0.885916
C42	C	1.741478	-0.823943	0.951364
H43	H	1.616054	-0.566346	0.839066
H44	H	1.452857	-0.693423	0.725170
H45	H	1.472954	-0.903386	0.754921
H46	H	1.656252	-0.986280	0.898573
H47	H	1.819448	-0.859204	1.012470
C48	C	1.988960	-0.501599	0.997145
C49	C	2.071758	-0.437140	0.918477
C50	C	2.165537	-0.364118	0.983921
C51	C	2.176518	-0.355555	1.128033
C52	C	2.093717	-0.420016	1.206709
C53	C	1.999939	-0.493038	1.141265
H54	H	2.063632	-0.443477	0.811790
H55	H	2.226831	-0.316399	0.925679
H56	H	2.245938	-0.301499	1.176478
H57	H	2.101843	-0.413679	1.313396
H58	H	1.938644	-0.540757	1.199507
C59	C	1.391208	-0.720174	0.335368
C60	C	1.535313	-0.730065	0.324401
C61	C	1.600689	-0.815092	0.230513
C62	C	1.521959	-0.890228	0.147592
C63	C	1.377846	-0.880339	0.158556
C64	C	1.312470	-0.795312	0.252444
H65	H	1.593601	-0.674443	0.385786
H66	H	1.707371	-0.822411	0.222397
H67	H	1.570354	-0.953169	0.078090
H68	H	1.319558	-0.935961	0.097171
H69	H	1.205788	-0.787993	0.260560
C70	C	2.109384	-1.037535	0.512207
C71	C	2.133878	-0.918420	0.515645
C72	C	2.267209	-0.883217	0.540801
C73	C	2.376046	-0.967129	0.562518
C74	C	2.351555	-1.086251	0.559080
C75	C	2.218224	-1.121454	0.533924
H76	H	2.053308	-0.856297	0.499568
H77	H	2.285338	-0.795034	0.543346
H78	H	2.474745	-0.941069	0.581140
H79	H	2.432126	-1.148374	0.575157
H80	H	2.200096	-1.209637	0.531380
C81	C	1.609162	-1.166677	0.418069
C82	C	1.499918	-1.082551	0.398704
C83	C	1.366555	-1.117704	0.373617
C84	C	1.342436	-1.236984	0.367895
C85	C	1.451683	-1.321118	0.387261
C86	C	1.585046	-1.285965	0.412348
H87	H	1.517770	-0.994246	0.402940
H88	H	1.285683	-1.055422	0.359282
H89	H	1.243713	-1.263006	0.349325
H90	H	1.433832	-1.409423	0.383026
H91	H	1.665918	-1.348247	0.426683
C92	C	1.943710	-1.169246	0.705320
C93	C	2.075126	-1.144916	0.754280
C94	C	2.120123	-1.181431	0.882372
C95	C	2.033704	-1.242275	0.961503
C96	C	1.902281	-1.266608	0.912543
C97	C	1.857283	-1.230094	0.784451
H98	H	2.139105	-1.099873	0.695702
H99	H	2.217412	-1.163418	0.918615
H100	H	2.067014	-1.269306	1.056324
H101	H	1.838301	-1.311652	0.971121
H102	H	1.759994	-1.248107	0.748209
H103	H	1.716318	-1.015728	0.631456
H104	H	1.786394	-1.044623	0.258094
H105	H	2.002230	-1.188310	0.298529
