data_functionalizedCrystal
_audit_creation_method	'MofGen! by Chris Wilmer'
_symmetry_space_group_name_H-M	'P1'
_symmetry_Int_Tables_number	1
_symmetry_cell_setting	triclinic
loop_
_symmetry_equiv_pos_as_xyz
  x,y,z
_cell_length_a	6.817900
_cell_length_b	11.102289
_cell_length_c	19.453114
_cell_angle_alpha	94.505474
_cell_angle_beta	101.709288
_cell_angle_gamma	108.605707
loop_
_atom_site_label
_atom_site_type_symbol
_atom_site_fract_x
_atom_site_fract_y
_atom_site_fract_z
V1	V	-4.033154	-0.177162	-0.218999
O2	O	-3.993679	0.007152	-0.214830
O3	O	-4.010467	-0.349973	-0.217501
O4	O	-3.975753	-0.175035	-0.314512
O5	O	-4.028634	-0.168998	-0.117148
V6	V	-4.514617	-0.155046	-0.206817
O7	O	-4.298932	-0.225677	-0.245722
O8	O	-4.699036	-0.106531	-0.180094
O9	O	-4.314097	0.017766	-0.208315
O10	O	-4.671489	-0.339360	-0.210985
O11	O	-4.636534	-0.163210	-0.308668
O12	O	-4.348812	-0.157173	-0.111304
C13	C	-3.862015	-0.392082	-0.214046
C14	C	-3.924692	-0.533362	-0.213458
C15	C	-3.817731	-0.168929	-0.337792
C16	C	-3.852253	-0.168333	-0.415875
C17	C	-4.136891	-0.606229	-0.216686
C18	C	-4.195775	-0.738978	-0.216139
C19	C	-3.830237	-0.725977	-0.209134
C20	C	-3.771359	-0.593233	-0.209686
C21	C	-4.347931	-0.613735	-0.220727
C22	C	-4.406815	-0.746484	-0.220180
C23	C	-4.051203	-0.174432	-0.456132
C24	C	-4.083640	-0.173872	-0.529499
C25	C	-3.917128	-0.167238	-0.562607
C26	C	-3.718147	-0.161131	-0.522340
C27	C	-3.685710	-0.161678	-0.448974
N28	N	-3.867372	-0.234355	-0.681397
N29	N	-3.898200	-0.233839	-0.751092
C30	C	-4.014849	-0.165586	-0.783656
N31	N	-4.099543	-0.097887	-0.743893
N32	N	-4.068721	-0.098410	-0.674192
C33	C	-3.952281	-0.166643	-0.642160
C34	C	-4.248982	-0.171077	-0.903466
C35	C	-4.281408	-0.170509	-0.976833
C36	C	-3.915916	-0.157780	-0.969674
C37	C	-3.883489	-0.158336	-0.896307
C38	C	-4.050033	-0.164990	-0.863208
C39	C	-4.125893	0.059868	-0.211767
C40	C	-4.042453	0.201146	-0.212360
C41	C	-4.170176	-0.163283	-0.088020
C42	C	-4.114892	-0.163873	-0.009936
H43	H	-3.705408	-0.774741	-0.206064
N44	N	-4.298238	-0.180466	-0.572934
H45	H	-4.281380	-0.101335	-0.596718
H46	H	-4.398709	-0.184809	-0.540792
N47	N	-4.371275	-0.542665	-0.155142
H48	H	-4.228067	-0.478024	-0.129089
H49	H	-4.425990	-0.605994	-0.123028
N50	N	-4.428569	-0.178222	-0.867751
H51	H	-4.461743	-0.257924	-0.844290
H52	H	-4.559411	-0.181933	-0.904423
N53	N	-4.471865	-0.588667	-0.288390
H54	H	-4.569631	-0.673229	-0.318191
H55	H	-4.369354	-0.540421	-0.315910
N56	N	-4.495996	-0.177091	-1.020263
H57	H	-4.479128	-0.097954	-1.044041
H58	H	-4.596470	-0.181438	-0.988121
N59	N	-3.538531	-0.153981	-0.558037
H60	H	-3.505358	-0.074284	-0.581502
H61	H	-3.582435	-0.232722	-0.595098
H62	H	-4.520000	-0.804665	-0.272216
N63	N	-3.668905	-0.151777	-0.852891
H64	H	-3.685777	-0.230912	-0.829110
H65	H	-3.608926	-0.072482	-0.815511
N66	N	-4.497959	-0.779363	-0.156731
H67	H	-4.409320	-0.820867	-0.125461
H68	H	-4.649586	-0.840973	-0.173581
N69	N	-4.230817	-0.181598	-0.420431
H70	H	-4.361774	-0.185373	-0.457071
H71	H	-4.186840	-0.102905	-0.383330
N72	N	-3.471125	-0.155118	-0.405552
H73	H	-3.475847	-0.156477	-0.354053
H74	H	-3.358514	-0.073049	-0.409992
N75	N	-3.542484	-0.514655	-0.206211
H76	H	-3.484620	-0.446682	-0.162541
H77	H	-3.535349	-0.471983	-0.250059
N78	N	-3.736278	-0.150636	-1.005355
H79	H	-3.703070	-0.070937	-1.028818
H80	H	-3.780175	-0.229376	-1.042417
