data_functionalizedCrystal
_audit_creation_method	'MofGen! by Chris Wilmer'
_symmetry_space_group_name_H-M	'P1'
_symmetry_Int_Tables_number	1
_symmetry_cell_setting	triclinic
loop_
_symmetry_equiv_pos_as_xyz
  x,y,z
_cell_length_a	10.654541
_cell_length_b	17.038272
_cell_length_c	9.730217
_cell_angle_alpha	89.996329
_cell_angle_beta	89.999932
_cell_angle_gamma	87.797742
loop_
_atom_site_label
_atom_site_type_symbol
_atom_site_fract_x
_atom_site_fract_y
_atom_site_fract_z
O1	O	1.678040	0.109868	-0.114249
O2	O	1.313533	0.120338	-0.114261
O3	O	1.493620	0.001275	-0.114245
O4	O	1.497953	0.228930	-0.114266
O5	O	1.493614	0.001274	0.114336
O6	O	1.313527	0.120337	0.114319
O7	O	1.678034	0.109867	0.114331
Zn8	Zn	1.495780	0.115102	0.150617
Zn9	Zn	1.495788	0.115103	-0.150547
O10	O	1.497947	0.228929	0.114314
C11	C	1.266661	0.119569	0.000027
C12	C	1.127004	0.117270	0.000023
C13	C	1.112253	0.259642	-0.000008
C14	C	1.039268	0.329744	-0.000029
C15	C	0.908049	0.327580	-0.000030
C16	C	0.849813	0.255304	-0.000006
C17	C	0.922798	0.185202	0.000015
C18	C	1.054019	0.187374	0.000012
C19	C	0.937548	0.042832	0.000055
C20	C	1.068768	0.044995	0.000047
C21	C	0.879312	-0.029443	0.000079
C22	C	0.952297	-0.099548	0.000090
C23	C	1.083524	-0.097380	0.000090
C24	C	1.141753	-0.025108	0.000067
C25	C	1.489677	-0.027875	0.000045
C26	C	1.477920	-0.114734	0.000044
C27	C	1.585864	-0.164246	0.000049
C28	C	1.574809	-0.245858	0.000036
C29	C	1.455809	-0.277957	0.000027
C30	C	1.347857	-0.228439	0.000018
C31	C	1.358913	-0.146828	0.000022
C32	C	1.416751	-0.523933	0.000007
C33	C	1.405704	-0.605550	0.000008
C34	C	1.632657	-0.622963	0.000023
C35	C	1.643703	-0.541350	0.000035
C36	C	1.535750	-0.491839	0.000018
C37	C	1.444507	-0.361377	0.000018
C38	C	1.547054	-0.408420	0.000018
C39	C	1.724907	0.110635	0.000039
C40	C	1.864564	0.112934	0.000034
C41	C	1.501891	0.258080	0.000021
C42	C	1.513648	0.344939	0.000013
N43	N	1.495784	0.115100	0.356153
N44	N	1.495793	0.115098	-0.356084
C45	C	1.655323	0.009701	0.356159
C46	C	1.735102	-0.042996	0.428101
C47	C	1.735115	-0.042997	0.571981
C48	C	1.655338	0.009704	0.643922
C49	C	1.575559	0.062402	0.571979
C50	C	1.575558	0.062398	0.428096
C51	C	1.416015	0.167796	0.571973
C52	C	1.416007	0.167801	0.428094
C53	C	1.336238	0.220496	0.643914
C54	C	1.256464	0.273199	0.571971
C55	C	1.256455	0.273198	0.428083
C56	C	1.336228	0.220498	0.356151
H57	H	1.248597	-0.023336	0.000051
N58	N	0.715778	0.253078	-0.000009
N59	N	0.663797	0.188547	0.000004
H60	H	0.569134	0.186972	0.000001
H61	H	1.720546	-0.663284	0.000034
N62	N	1.098737	0.403575	-0.000039
N63	N	1.079139	0.451001	0.096302
H64	H	1.121135	0.503145	0.096301
N65	N	1.246289	0.261854	0.000011
N66	N	1.308151	0.231049	0.096375
H67	H	1.402816	0.232612	0.096390
H68	H	1.142941	-0.154466	0.000112
H69	H	1.662709	-0.286168	0.000043
H70	H	1.250964	-0.254580	0.000003
N71	N	0.833509	0.399193	-0.000035
N72	N	0.885512	0.463717	-0.000045
H73	H	0.832869	0.514295	-0.000046
H74	H	0.772466	-0.031201	0.000086
H75	H	1.271013	-0.106516	0.000017
H76	H	1.740605	-0.515222	0.000042
H77	H	0.904870	-0.158388	0.000108
H78	H	1.682766	-0.138118	0.000065
N79	N	1.174963	0.327039	0.354622
N80	N	1.184391	0.399359	0.370694
H81	H	1.126836	0.437388	0.318818
H82	H	1.643943	-0.382282	-0.000005
H83	H	1.308795	-0.631681	0.000023
N84	N	1.306472	-0.473377	0.000000
N85	N	1.200232	-0.502050	0.000004
H86	H	1.122340	-0.466342	0.000003
H87	H	1.347616	-0.387521	0.000014
H88	H	1.655332	0.009703	0.239004
H89	H	1.800053	-0.085906	0.369515
H90	H	1.800072	-0.085910	0.630557
N91	N	1.655325	0.009682	0.790890
N92	N	1.628090	-0.050887	0.855096
H93	H	1.628078	-0.050906	0.958895
H94	H	1.336246	0.220491	0.761068
N95	N	1.174979	0.327014	0.645475
N96	N	1.174991	0.326998	0.773938
H97	H	1.117441	0.365006	0.825858
N98	N	1.336264	0.220502	0.209182
N99	N	1.407511	0.173455	0.144973
H100	H	1.407546	0.173458	0.041174
