data_functionalizedCrystal
_audit_creation_method	'MofGen! by Chris Wilmer'
_symmetry_space_group_name_H-M	'P1'
_symmetry_Int_Tables_number	1
_symmetry_cell_setting	triclinic
loop_
_symmetry_equiv_pos_as_xyz
  x,y,z
_cell_length_a	14.044220
_cell_length_b	9.065218
_cell_length_c	8.140239
_cell_angle_alpha	89.999539
_cell_angle_beta	90.006592
_cell_angle_gamma	90.897619
loop_
_atom_site_label
_atom_site_type_symbol
_atom_site_fract_x
_atom_site_fract_y
_atom_site_fract_z
O1	O	0.139144	-1.975813	0.136623
O2	O	0.639144	-1.475813	0.636623
O3	O	0.150557	-1.547793	0.136626
O4	O	0.650557	-1.047793	0.636626
O5	O	0.006810	-1.755378	0.136608
O6	O	0.506810	-1.255378	0.636608
O7	O	0.282890	-1.768227	0.136641
O8	O	0.782890	-1.268227	0.636641
O9	O	0.006803	-1.755376	-0.136619
O10	O	0.506803	-1.255376	0.363381
O11	O	0.150549	-1.547790	-0.136601
O12	O	0.650549	-1.047790	0.363399
O13	O	0.139136	-1.975810	-0.136604
O14	O	0.639136	-1.475810	0.363396
Zn15	Zn	0.144842	-1.761800	-0.179983
Zn16	Zn	0.644842	-1.261800	0.320017
Zn17	Zn	0.144851	-1.761803	0.180005
Zn18	Zn	0.644851	-1.261803	0.680005
O19	O	0.282883	-1.768225	-0.136586
O20	O	0.782883	-1.268225	0.363414
C21	C	-0.028556	-1.749752	-0.000006
C22	C	0.471444	-1.249752	0.499994
C23	C	-0.133926	-1.732975	-0.000008
C24	C	0.366074	-1.232975	0.499992
C25	C	0.149456	-1.492683	0.000013
C26	C	0.649456	-0.992683	0.500013
C27	C	0.146176	-1.328477	0.000013
C28	C	0.646176	-0.828477	0.500013
C29	C	0.140237	-2.030920	0.000013
C30	C	0.640237	-1.530920	0.500013
C31	C	0.143517	-2.195126	0.000023
C32	C	0.643517	-1.695126	0.500023
C33	C	-0.326850	-1.702304	0.000016
C34	C	0.173150	-1.202304	0.500016
C35	C	-0.383462	-1.821293	0.000020
C36	C	0.116538	-1.321293	0.500020
C37	C	-0.490812	-1.804226	0.000034
C38	C	0.009188	-1.304226	0.500034
C39	C	-0.219491	-1.719368	0.000003
C40	C	0.280509	-1.219368	0.500003
C41	C	0.318249	-1.773850	0.000032
C42	C	0.818249	-1.273850	0.500032
C43	C	0.423619	-1.790627	0.000044
C44	C	0.923619	-1.290627	0.500044
N45	N	0.144851	-1.761805	0.425688
N46	N	0.644851	-1.261805	0.925688
N47	N	0.144834	-1.761808	-0.425666
N48	N	0.644834	-1.261808	0.074334
H49	H	-0.351306	-1.935980	0.000130
H50	H	0.148694	-1.435980	0.500130
O51	O	-0.365360	-1.565597	-0.000062
O52	O	0.134640	-1.065597	0.499938
C53	C	-0.509034	-1.423739	0.000029
C54	C	-0.009034	-0.923739	0.500029
C55	C	-0.465534	-1.578641	0.000089
C56	C	0.034466	-1.078641	0.500089
H57	H	-0.590031	-1.434233	0.000186
H58	H	-0.090031	-0.934233	0.500186
H59	H	-0.484706	-1.361139	-0.114352
H60	H	0.015294	-0.861139	0.385648
H61	H	-0.484559	-1.361159	0.114338
H62	H	0.015441	-0.861159	0.614338
H63	H	-0.489989	-1.641344	-0.114143
H64	H	0.010011	-1.141344	0.385857
H65	H	-0.489859	-1.641129	0.114545
H66	H	0.010141	-1.141129	0.614545
