data_functionalizedCrystal
_audit_creation_method	'MofGen! by Chris Wilmer'
_symmetry_space_group_name_H-M	'P1'
_symmetry_Int_Tables_number	1
_symmetry_cell_setting	triclinic
loop_
_symmetry_equiv_pos_as_xyz
  x,y,z
_cell_length_a	21.295418
_cell_length_b	25.639239
_cell_length_c	21.295412
_cell_angle_alpha	89.971450
_cell_angle_beta	89.957310
_cell_angle_gamma	90.054499
loop_
_atom_site_label
_atom_site_type_symbol
_atom_site_fract_x
_atom_site_fract_y
_atom_site_fract_z
Zn1	Zn	0.962314	-0.207943	-0.356243
Zn2	Zn	1.462314	0.292057	0.143757
Zn3	Zn	0.962203	-0.295377	-0.250972
Zn4	Zn	1.462203	0.204623	0.249028
Zn5	Zn	0.857039	-0.207981	-0.250953
Zn6	Zn	1.357039	0.292019	0.249047
Zn7	Zn	0.856991	-0.295373	-0.356169
Zn8	Zn	1.356991	0.204627	0.143831
O9	O	0.909637	-0.251669	-0.303584
O10	O	1.409637	0.248331	0.196416
O11	O	1.050388	-0.219527	-0.342318
O12	O	1.550388	0.280473	0.157682
O13	O	0.948226	-0.283801	-0.162880
O14	O	1.448226	0.216199	0.337120
O15	O	0.871070	-0.134811	-0.264943
O16	O	1.371070	0.365189	0.235057
O17	O	1.050307	-0.283764	-0.264976
O18	O	1.550307	0.216236	0.235024
O19	O	0.948415	-0.134783	-0.342299
O20	O	1.448415	0.365217	0.157701
O21	O	0.870962	-0.219592	-0.162866
O22	O	1.370962	0.280408	0.337134
O23	O	0.768943	-0.219589	-0.264871
O24	O	1.268943	0.280411	0.235129
O25	O	0.870989	-0.283758	-0.444268
O26	O	1.370989	0.216242	0.055732
O27	O	0.768908	-0.283795	-0.342172
O28	O	1.268908	0.216205	0.157828
O29	O	0.948369	-0.219523	-0.444322
O30	O	1.448369	0.280477	0.055678
O31	O	0.948180	-0.368542	-0.264904
O32	O	1.448180	0.131458	0.235096
O33	O	0.870881	-0.368539	-0.342191
O34	O	1.370881	0.131461	0.157809
C35	C	0.746085	-0.251696	-0.303512
C36	C	1.246085	0.248304	0.196488
C37	C	0.676117	-0.251721	-0.303496
C38	C	1.176117	0.248279	0.196504
C39	C	0.909531	-0.387511	-0.303555
C40	C	1.409531	0.112489	0.196445
C41	C	0.909543	-0.445625	-0.303564
C42	C	1.409543	0.054375	0.196436
C43	C	0.643248	-0.285197	-0.343686
C44	C	1.143248	0.214803	0.156314
C45	C	0.577506	-0.285184	-0.343715
C46	C	1.077506	0.214816	0.156285
C47	C	0.544634	-0.251700	-0.303541
C48	C	1.044634	0.248300	0.196459
C49	C	0.577511	-0.218217	-0.263347
C50	C	1.077511	0.281783	0.236653
C51	C	0.643252	-0.218227	-0.263325
C52	C	1.143252	0.281773	0.236675
N53	N	0.441360	-0.247615	-0.248483
N54	N	0.941360	0.252385	0.251517
N55	N	0.378909	-0.247609	-0.248506
N56	N	0.878909	0.252391	0.251494
C57	C	0.346560	-0.251667	-0.303608
C58	C	0.846560	0.248333	0.196392
N59	N	0.379021	-0.255742	-0.358686
N60	N	0.879021	0.244258	0.141314
N61	N	0.441479	-0.255752	-0.358662
N62	N	0.941479	0.244248	0.141338
C63	C	0.473349	-0.251685	-0.303561
C64	C	0.973349	0.248315	0.196439
C65	C	0.242406	-0.285131	-0.343832
C66	C	0.742406	0.214869	0.156168
C67	C	0.176662	-0.285115	-0.343862
C68	C	0.676662	0.214885	0.156138
C69	C	0.176668	-0.218150	-0.263489
C70	C	0.676668	0.281850	0.236511
C71	C	0.242410	-0.218164	-0.263465
C72	C	0.742410	0.281836	0.236535
C73	C	0.275275	-0.251657	-0.303636
C74	C	0.775275	0.248343	0.196364
C75	C	0.949991	-0.805977	-0.263409
C76	C	1.449991	-0.305977	0.236591
C77	C	0.950015	-0.860581	-0.263418
C78	C	1.450015	-0.360581	0.236582
O79	O	0.984296	-0.888808	-0.229245
O80	O	1.484296	-0.388808	0.270755
N81	N	0.909747	-0.887908	-0.303626
N82	N	1.409747	-0.387908	0.196374
C83	C	0.869456	-0.860627	-0.343833
C84	C	1.369456	-0.360627	0.156167
O85	O	0.835208	-0.888884	-0.378034
O86	O	1.335208	-0.388884	0.121966
C87	C	0.869436	-0.806024	-0.343827
C88	C	1.369436	-0.306024	0.156173
C89	C	0.909702	-0.778700	-0.303612
C90	C	1.409702	-0.278700	0.196388
C91	C	0.990255	-0.778653	-0.223198
C92	C	1.490255	-0.278653	0.276802
C93	C	0.990229	-0.724053	-0.223188
C94	C	1.490229	-0.224053	0.276812
C95	C	0.949940	-0.696776	-0.263391
C96	C	1.449940	-0.196776	0.236609
C97	C	0.909677	-0.724100	-0.303603
C98	C	1.409677	-0.224100	0.196397
C99	C	0.829149	-0.778744	-0.384037
C100	C	1.329149	-0.278744	0.115963
C101	C	0.829132	-0.724137	-0.384028
C102	C	1.329132	-0.224137	0.115972
C103	C	0.869398	-0.696813	-0.343812
C104	C	1.369398	-0.196813	0.156188
C105	C	0.869362	-0.642222	-0.343796
C106	C	1.369362	-0.142222	0.156204
N107	N	0.909631	-0.614896	-0.303588
N108	N	1.409631	-0.114896	0.196412
C109	C	0.949919	-0.642173	-0.263385
C110	C	1.449919	-0.142173	0.236615
C111	C	0.869504	-0.975298	-0.343842
C112	C	1.369504	-0.475298	0.156158
C113	C	0.869521	-1.029900	-0.343845
C114	C	1.369521	-0.529900	0.156155
C115	C	0.950081	-1.029850	-0.263431
C116	C	1.450081	-0.529850	0.236569
C117	C	0.950060	-0.975247	-0.263425
C118	C	1.450060	-0.475247	0.236575
C119	C	0.909772	-0.947971	-0.303634
C120	C	1.409772	-0.447971	0.196366
C121	C	0.949863	-0.527508	-0.263369
C122	C	1.449863	-0.027508	0.236631
C123	C	0.949832	-0.472902	-0.263361
C124	C	1.449832	0.027098	0.236639
C125	C	0.869275	-0.472956	-0.343778
C126	C	1.369275	0.027044	0.156222
C127	C	0.869303	-0.527557	-0.343783
C128	C	1.369303	-0.027557	0.156217
C129	C	0.909602	-0.554831	-0.303577
C130	C	1.409602	-0.054831	0.196423
O131	O	0.835101	-0.613960	-0.377953
O132	O	1.335101	-0.113960	0.122047
O133	O	0.984168	-0.613909	-0.229195
O134	O	1.484168	-0.113909	0.270805
C135	C	1.073827	-0.251641	-0.303657
C136	C	1.573827	0.248359	0.196343
C137	C	1.143795	-0.251630	-0.303688
C138	C	1.643795	0.248370	0.196312
C139	C	0.909686	-0.251636	-0.467774
C140	C	1.409686	0.248364	0.032226
C141	C	0.909707	-0.251622	-0.537743
C142	C	1.409707	0.248378	-0.037743
C143	C	0.909760	-0.115296	-0.303627
C144	C	1.409760	0.384704	0.196373
C145	C	0.909813	-0.057182	-0.303645
C146	C	1.409813	0.442818	0.196355
C147	C	0.869486	-0.218185	-0.570592
C148	C	1.369486	0.281815	-0.070592
C149	C	0.869484	-0.218175	-0.636334
C150	C	1.369484	0.281825	-0.136334
C151	C	0.909714	-0.251597	-0.669225
C152	C	1.409714	0.248403	-0.169225
C153	C	0.949937	-0.285041	-0.636368
C154	C	1.449937	0.214959	-0.136368
C155	C	0.949934	-0.285054	-0.570627
C156	C	1.449934	0.214946	-0.070627
N157	N	0.964817	-0.255578	-0.772482
N158	N	1.464817	0.244422	-0.272482
N159	N	0.964819	-0.255563	-0.834933
N160	N	1.464819	0.244437	-0.334933
C161	C	0.909725	-0.251563	-0.867300
C162	C	1.409725	0.248437	-0.367300
N163	N	0.854629	-0.247567	-0.834856
N164	N	1.354629	0.252433	-0.334856
N165	N	0.854628	-0.247580	-0.772398
N166	N	1.354628	0.252420	-0.272398
C167	C	0.909721	-0.251588	-0.740511
C168	C	1.409721	0.248412	-0.240511
C169	C	0.869499	-0.218113	-0.971435
C170	C	1.369499	0.281887	-0.471435
C171	C	0.869496	-0.218107	-1.037179
C172	C	1.369496	0.281893	-0.537179
C173	C	0.949954	-0.284970	-1.037211
C174	C	1.449954	0.215030	-0.537211
C175	C	0.949952	-0.284979	-0.971468
C176	C	1.449952	0.215021	-0.471468
C177	C	0.909725	-0.251547	-0.938584
C178	C	1.409725	0.248453	-0.438584
C179	C	0.909624	-0.251663	-0.140032
C180	C	1.409624	0.248337	0.359968
C181	C	0.909725	-0.251530	-0.070065
C182	C	1.409725	0.248470	0.429935
H183	H	0.670003	-0.312469	-0.376398
H184	H	1.170003	0.187531	0.123602
Cl185	Cl	1.040911	-0.812935	-0.172650
Cl186	Cl	1.540911	-0.312935	0.327350
H187	H	0.982849	-0.953004	-0.230679
H188	H	1.482849	-0.453004	0.269321
H189	H	0.550742	-0.190953	-0.230639
H190	H	1.050742	0.309047	0.269361
H191	H	0.982889	-1.052069	-0.230698
H192	H	1.482889	-0.552069	0.269302
Cl193	Cl	0.818910	-0.176082	-1.078476
Cl194	Cl	1.318910	0.323918	-0.578476
H195	H	0.796325	-0.701931	-0.416773
H196	H	1.296325	-0.201931	0.083227
H197	H	0.982689	-0.312282	-0.543881
H198	H	1.482689	0.187718	-0.043881
H199	H	0.836733	-0.190944	-0.663086
H200	H	1.336733	0.309056	-0.163086
Cl201	Cl	1.000508	-0.327060	-0.677715
Cl202	Cl	1.500508	0.172940	-0.177715
H203	H	0.836743	-0.190891	-0.944659
H204	H	1.336743	0.309109	-0.444659
H205	H	0.982705	-0.312206	-0.944722
H206	H	1.482705	0.187794	-0.444722
H207	H	0.796356	-0.800981	-0.416781
H208	H	1.296356	-0.300981	0.083219
Cl209	Cl	1.000524	-0.561787	-0.212821
Cl210	Cl	1.500524	-0.061787	0.287179
Cl211	Cl	0.818632	-0.438655	-0.394319
Cl212	Cl	1.318632	0.061345	0.105681
Cl213	Cl	0.536177	-0.327273	-0.394244
Cl214	Cl	1.036177	0.172727	0.105756
Cl215	Cl	0.818669	-0.561908	-0.394327
Cl216	Cl	1.318669	-0.061908	0.105673
H217	H	0.269172	-0.190906	-0.230734
H218	H	0.769172	0.309094	0.269266
H219	H	0.836726	-1.052142	-0.376587
H220	H	1.336726	-0.552142	0.123413
H221	H	0.982711	-0.312182	-1.063990
H222	H	1.482711	0.187818	-0.563990
H223	H	0.149905	-0.190885	-0.230781
H224	H	0.649905	0.309115	0.269219
Cl225	Cl	0.684574	-0.176139	-0.212794
Cl226	Cl	1.184574	0.323861	0.287206
Cl227	Cl	0.818846	-0.941013	-0.394391
Cl228	Cl	1.318846	-0.441013	0.105609
H229	H	0.982621	-0.450657	-0.230611
H230	H	1.482621	0.049343	0.269389
Cl231	Cl	0.818913	-0.176159	-0.529255
Cl232	Cl	1.318913	0.323841	-0.029255
H233	H	0.269166	-0.312401	-0.376545
H234	H	0.769166	0.187599	0.123455
Cl235	Cl	1.040862	-0.689711	-0.172639
Cl236	Cl	1.540862	-0.189711	0.327361
Cl237	Cl	0.135341	-0.327201	-0.394396
Cl238	Cl	0.635341	0.172799	0.105604
