data_functionalizedCrystal
_audit_creation_method	'MofGen! by Chris Wilmer'
_symmetry_space_group_name_H-M	'P1'
_symmetry_Int_Tables_number	1
_symmetry_cell_setting	triclinic
loop_
_symmetry_equiv_pos_as_xyz
  x,y,z
_cell_length_a	14.971486
_cell_length_b	13.448316
_cell_length_c	14.971486
_cell_angle_alpha	89.993189
_cell_angle_beta	83.614129
_cell_angle_gamma	89.998199
loop_
_atom_site_label
_atom_site_type_symbol
_atom_site_fract_x
_atom_site_fract_y
_atom_site_fract_z
O1	O	1.186947	-0.082578	0.116565
O2	O	1.520281	0.250755	0.449898
O3	O	1.853614	0.584089	0.783231
O4	O	0.926547	-0.082605	0.130524
O5	O	1.259881	0.250728	0.463857
O6	O	1.593214	0.584062	0.797190
O7	O	1.063727	-0.082584	-0.006656
O8	O	1.397060	0.250750	0.326677
O9	O	1.730393	0.584083	0.660011
O10	O	1.049768	-0.082599	0.253744
O11	O	1.383101	0.250734	0.587078
O12	O	1.716435	0.584067	0.920411
O13	O	1.063709	0.082800	-0.006664
O14	O	1.397043	0.416133	0.326669
O15	O	1.730376	0.749467	0.660002
O16	O	0.926530	0.082779	0.130515
O17	O	1.259863	0.416112	0.463848
O18	O	1.593197	0.749445	0.797182
O19	O	1.186930	0.082806	0.116556
O20	O	1.520263	0.416139	0.449890
O21	O	1.853597	0.749473	0.783223
Cu22	Cu	1.056728	0.097893	0.123535
Cu23	Cu	1.390062	0.431226	0.456868
Cu24	Cu	1.723395	0.764560	0.790202
Cu25	Cu	1.056749	-0.097692	0.123545
Cu26	Cu	1.390082	0.235641	0.456878
Cu27	Cu	1.723416	0.568974	0.790212
O28	O	1.049751	0.082784	0.253736
O29	O	1.383084	0.416118	0.587069
O30	O	1.716417	0.749451	0.920402
C31	C	0.893214	0.000083	0.129895
C32	C	1.226547	0.333417	0.463228
C33	C	1.559881	0.666750	0.796562
C34	C	0.793917	0.000073	0.128024
C35	C	1.127250	0.333407	0.461358
C36	C	1.460583	0.666740	0.794691
C37	C	0.736692	0.000070	0.208614
C38	C	1.070025	0.333403	0.541947
C39	C	1.403358	0.666736	0.875280
C40	C	0.643392	0.000085	0.206850
C41	C	0.976725	0.333418	0.540184
C42	C	1.310059	0.666751	0.873517
C43	C	0.607320	0.000096	0.124497
C44	C	0.940653	0.333429	0.457831
C45	C	1.273986	0.666763	0.791164
C46	C	0.664552	0.000102	0.043902
C47	C	0.997886	0.333436	0.377235
C48	C	1.331219	0.666769	0.710569
C49	C	0.757850	0.000095	0.045666
C50	C	1.091183	0.333428	0.378999
C51	C	1.424517	0.666761	0.712333
C52	C	0.470090	0.000116	0.040231
C53	C	0.803423	0.333450	0.373564
C54	C	1.136757	0.666783	0.706897
C55	C	0.376786	0.000122	0.038466
C56	C	0.710119	0.333456	0.371800
C57	C	1.043453	0.666789	0.705133
C58	C	0.355632	0.000106	0.201415
C59	C	0.688965	0.333440	0.534749
C60	C	1.022299	0.666773	0.868082
C61	C	0.448930	0.000099	0.203179
C62	C	0.782263	0.333432	0.536513
C63	C	1.115596	0.666765	0.869846
C64	C	0.506156	0.000103	0.122584
C65	C	0.839489	0.333436	0.455917
C66	C	1.172822	0.666770	0.789250
C67	C	1.063094	0.000108	-0.039985
C68	C	1.396427	0.333441	0.293348
C69	C	1.729761	0.666774	0.626682
C70	C	1.061223	0.000107	-0.139282
C71	C	1.394556	0.333440	0.194051
C72	C	1.727890	0.666773	0.527385
C73	C	1.220263	0.000115	0.117185
C74	C	1.553597	0.333448	0.450518
C75	C	1.886930	0.666782	0.783851
C76	C	1.319561	0.000119	0.119056
C77	C	1.652894	0.333452	0.452389
C78	C	1.986227	0.666785	0.785722
N79	N	1.056721	0.235457	0.123527
N80	N	1.390054	0.568791	0.456861
N81	N	1.723387	0.902124	0.790194
N82	N	1.056764	-0.235257	0.123545
N83	N	1.390097	0.098077	0.456879
N84	N	1.723430	0.431410	0.790212
C85	C	1.117483	0.287507	0.062809
C86	C	1.450816	0.620841	0.396143
C87	C	1.784149	0.954174	0.729476
C88	C	1.117488	0.391610	0.062809
C89	C	1.450822	0.724944	0.396142
C90	C	1.784155	1.058277	0.729475
C91	C	1.056735	0.443662	0.123531
C92	C	1.390069	0.776995	0.456864
C93	C	1.723402	1.110329	0.790198
C94	C	0.995967	0.391605	0.184252
C95	C	1.329300	0.724938	0.517585
C96	C	1.662634	1.058272	0.850919
C97	C	0.995958	0.287504	0.184248
C98	C	1.329291	0.620837	0.517581
C99	C	1.662624	0.954170	0.850914
C100	C	0.995992	0.608585	0.184258
C101	C	1.329325	0.941918	0.517591
C102	C	1.662658	1.275252	0.850925
C103	C	0.996002	0.712693	0.184264
C104	C	1.329335	1.046027	0.517597
C105	C	1.662669	1.379360	0.850930
C106	C	1.117522	0.712692	0.062819
C107	C	1.450856	1.046025	0.396152
C108	C	1.784189	1.379359	0.729486
C109	C	1.117513	0.608591	0.062815
C110	C	1.450846	0.941924	0.396148
C111	C	1.784180	1.275257	0.729481
C112	C	1.056745	0.556541	0.123537
C113	C	1.390079	0.889874	0.456870
C114	C	1.723412	1.223207	0.790204
C115	C	1.141812	0.000116	-0.196507
C116	C	1.475146	0.333449	0.136826
C117	C	1.808479	0.666783	0.470159
C118	C	1.140049	0.000106	-0.289807
C119	C	1.473383	0.333439	0.043527
C120	C	1.806716	0.666772	0.376860
C121	C	1.057696	0.000093	-0.325879
C122	C	1.391029	0.333427	0.007454
C123	C	1.724363	0.666760	0.340788
C124	C	0.977101	0.000081	-0.268646
C125	C	1.310434	0.333415	0.064687
C126	C	1.643767	0.666748	0.398020
C127	C	0.978865	0.000084	-0.175349
C128	C	1.312198	0.333418	0.157985
C129	C	1.645531	0.666751	0.491318
C130	C	0.973430	0.000077	-0.463109
C131	C	1.306763	0.333411	-0.129776
C132	C	1.640096	0.666744	0.203558
C133	C	0.971665	0.000076	-0.556413
C134	C	1.304998	0.333409	-0.223080
C135	C	1.638332	0.666743	0.110254
C136	C	1.134614	0.000099	-0.577567
C137	C	1.467947	0.333432	-0.244233
C138	C	1.801281	0.666765	0.089100
C139	C	1.136378	0.000102	-0.484269
C140	C	1.469712	0.333435	-0.150936
C141	C	1.803045	0.666768	0.182397
C142	C	1.055782	0.000091	-0.427043
C143	C	1.389116	0.333425	-0.093710
C144	C	1.722449	0.666758	0.239624
C145	C	1.050384	0.000091	0.287065
C146	C	1.383717	0.333424	0.620398
C147	C	1.717050	0.666757	0.953731
C148	C	1.052254	0.000085	0.386362
C149	C	1.385588	0.333419	0.719695
C150	C	1.718921	0.666752	1.053028
H151	H	0.478296	0.000080	0.270239
H152	H	0.811630	0.333413	0.603572
H153	H	1.144963	0.666747	0.936905
F154	F	1.182150	0.232120	-0.001817
F155	F	1.515483	0.565453	0.331516
F156	F	1.848816	0.898787	0.664850
F157	F	0.582492	0.000077	0.292625
F158	F	0.915825	0.333410	0.625958
F159	F	1.249159	0.666743	0.959292
H160	H	0.913240	0.000077	-0.128756
H161	H	1.246574	0.333410	0.204577
H162	H	1.579907	0.666743	0.537911
F163	F	0.887650	0.000064	-0.402206
F164	F	1.220983	0.333398	-0.068873
F165	F	1.554316	0.666731	0.264461
H166	H	0.910047	0.000065	-0.298024
H167	H	1.243380	0.333399	0.035310
H168	H	1.576714	0.666732	0.368643
F169	F	0.818754	0.000102	-0.040108
F170	F	1.152087	0.333435	0.293225
F171	F	1.485420	0.666768	0.626558
H172	H	0.309033	0.000107	0.267039
H173	H	0.642367	0.333440	0.600373
H174	H	0.975700	0.666774	0.933706
F175	F	1.182177	0.553193	-0.001807
F176	F	1.515510	0.886526	0.331527
F177	F	1.848844	1.219860	0.664860
F178	F	0.884016	0.000064	-0.594802
F179	F	1.217349	0.333398	-0.261468
F180	F	1.550682	0.666731	0.071865
F181	F	0.775073	0.000051	0.296267
F182	F	1.108407	0.333384	0.629600
F183	F	1.441740	0.666718	0.962933
F184	F	0.338397	0.000160	-0.049183
F185	F	0.671730	0.333493	0.284150
F186	F	1.005064	0.666826	0.617484
H187	H	0.946505	0.566209	0.233702
H188	H	1.279839	0.899543	0.567035
H189	H	1.613172	1.232876	0.900368
H190	H	1.166964	0.433989	0.013367
H191	H	1.500298	0.767322	0.346700
H192	H	1.833631	1.100656	0.680033
H193	H	0.946530	0.755069	0.233709
H194	H	1.279863	1.088402	0.567042
H195	H	1.613196	1.421735	0.900376
F196	F	0.530993	0.000124	-0.045549
F197	F	0.864326	0.333458	0.287784
F198	F	1.197659	0.666791	0.621118
F199	F	1.182196	0.768091	-0.001805
F200	F	1.515529	1.101425	0.331529
F201	F	1.848862	1.434758	0.664862
F202	F	1.225824	0.000117	-0.350707
F203	F	1.559157	0.333451	-0.017373
F204	F	1.892490	0.666784	0.315960
H205	H	0.946496	0.433991	0.233690
H206	H	1.279830	0.767325	0.567024
H207	H	1.613163	1.100658	0.900357
H208	H	1.208874	0.000132	-0.167145
H209	H	1.542207	0.333465	0.166188
H210	H	1.875541	0.666799	0.499522
F211	F	0.931284	0.232110	0.248870
F212	F	1.264617	0.565443	0.582203
F213	F	1.597950	0.898776	0.915537
H214	H	0.635175	0.000126	-0.023152
H215	H	0.968508	0.333459	0.310182
H216	H	1.301842	0.666792	0.643515
H217	H	1.203437	0.000119	-0.454903
H218	H	1.536771	0.333452	-0.121569
H219	H	1.870104	0.666785	0.211764
F220	F	1.220391	0.000105	-0.638472
F221	F	1.553724	0.333438	-0.305139
F222	F	1.887058	0.666772	0.028195
