data_functionalizedCrystal
_audit_creation_method	'MofGen! by Chris Wilmer'
_symmetry_space_group_name_H-M	'P1'
_symmetry_Int_Tables_number	1
_symmetry_cell_setting	triclinic
loop_
_symmetry_equiv_pos_as_xyz
  x,y,z
_cell_length_a	6.817900
_cell_length_b	11.353959
_cell_length_c	14.125465
_cell_angle_alpha	106.193871
_cell_angle_beta	100.398878
_cell_angle_gamma	107.526623
loop_
_atom_site_label
_atom_site_type_symbol
_atom_site_fract_x
_atom_site_fract_y
_atom_site_fract_z
V1	V	-4.027839	-0.179668	-0.330075
V2	V	-3.527839	0.320332	0.169925
O3	O	-3.977518	0.009789	-0.292626
O4	O	-3.477518	0.509789	0.207374
O5	O	-4.015716	-0.357363	-0.357791
O6	O	-3.515716	0.142637	0.142209
O7	O	-3.963316	-0.176398	-0.460357
O8	O	-3.463316	0.323602	0.039643
O9	O	-4.030281	-0.172429	-0.189350
O10	O	-3.530281	0.327571	0.310650
V11	V	-4.508855	-0.157067	-0.309602
V12	V	-4.008855	0.342933	0.190398
O13	O	-4.294595	-0.229247	-0.374984
O14	O	-3.794595	0.270753	0.125016
O15	O	-4.692296	-0.107489	-0.264693
O16	O	-4.192296	0.392511	0.235307
O17	O	-4.297772	0.020628	-0.281886
O18	O	-3.797772	0.520628	0.218114
O19	O	-4.676572	-0.346524	-0.347050
O20	O	-4.176572	0.153476	0.152950
O21	O	-4.623810	-0.164306	-0.450326
O22	O	-4.123810	0.335694	0.049674
O23	O	-4.350171	-0.160338	-0.179319
O24	O	-3.850171	0.339662	0.320681
C25	C	-3.870063	-0.400697	-0.360318
C26	C	-3.370063	0.099303	0.139682
C27	C	-3.941330	-0.545962	-0.383847
C28	C	-3.441330	-0.045962	0.116153
C29	C	-3.941208	-0.593306	-0.307688
C30	C	-3.441208	-0.093306	0.192312
C31	C	-4.014866	-0.743444	-0.332005
C32	C	-3.514866	-0.243444	0.167995
C33	C	-3.803221	-0.169856	-0.491150
C34	C	-3.303221	0.330144	0.008850
C35	C	-3.831990	-0.168358	-0.597853
C36	C	-3.331990	0.331642	-0.097853
C37	C	-3.884722	-0.165611	-0.793216
C38	C	-3.384722	0.334389	-0.293216
C39	C	-4.071340	-0.171122	-0.846460
C40	C	-3.571340	0.328878	-0.346460
C41	C	-4.100683	-0.169593	-0.955167
C42	C	-3.600683	0.330407	-0.455167
C43	C	-3.855372	-0.167139	-0.684499
C44	C	-3.355372	0.332861	-0.184499
C45	C	-4.106768	0.063955	-0.279357
C46	C	-3.606768	0.563955	0.220643
C47	C	-4.014738	0.209218	-0.255834
C48	C	-3.514738	0.709218	0.244166
C49	C	-4.173610	-0.166883	-0.148522
C50	C	-3.673610	0.333117	0.351478
C51	C	-4.124078	-0.168375	-0.041817
C52	C	-3.624078	0.331625	0.458183
H53	H	-4.069508	-0.814059	-0.415216
H54	H	-3.569508	-0.314059	0.084784
H55	H	-3.960111	-0.720169	-0.172623
H56	H	-3.460111	-0.220169	0.327377
H57	H	-3.747003	-0.159746	-0.829271
H58	H	-3.247003	0.340254	-0.329271
O59	O	-4.013703	-0.639487	-0.494069
O60	O	-3.513703	-0.139487	0.005931
H61	H	-4.060191	-0.742735	-0.495871
H62	H	-3.560191	-0.242735	0.004129
O63	O	-4.253807	-0.178900	-0.798717
O64	O	-3.753807	0.321100	-0.298717
H65	H	-4.297123	-0.269294	-0.778586
H66	H	-3.797123	0.230706	-0.278586
O67	O	-3.868829	-0.499780	-0.197466
O68	O	-3.368829	0.000220	0.302534
H69	H	-3.822314	-0.396531	-0.195662
H70	H	-3.322314	0.103469	0.304338
