data_functionalizedCrystal
_audit_creation_method	'MofGen! by Chris Wilmer'
_symmetry_space_group_name_H-M	'P1'
_symmetry_Int_Tables_number	1
_symmetry_cell_setting	triclinic
loop_
_symmetry_equiv_pos_as_xyz
  x,y,z
_cell_length_a	9.065215
_cell_length_b	15.944493
_cell_length_c	8.140239
_cell_angle_alpha	90.002357
_cell_angle_beta	89.997810
_cell_angle_gamma	84.244871
loop_
_atom_site_label
_atom_site_type_symbol
_atom_site_fract_x
_atom_site_fract_y
_atom_site_fract_z
O1	O	1.957477	0.123152	-0.136570
O2	O	2.457477	0.623152	0.363430
O3	O	1.527952	0.133257	-0.136575
O4	O	2.027952	0.633257	0.363425
O5	O	1.754488	0.006016	-0.136586
O6	O	2.254488	0.506016	0.363414
O7	O	1.730940	0.250394	-0.136559
O8	O	2.230940	0.750394	0.363441
O9	O	1.754476	0.006014	0.136641
O10	O	2.254476	0.506014	0.636641
O11	O	1.527939	0.133256	0.136652
O12	O	2.027939	0.633256	0.636652
O13	O	1.957464	0.123150	0.136657
O14	O	2.457464	0.623150	0.636657
Zn15	Zn	1.742700	0.128203	0.180035
Zn16	Zn	2.242700	0.628203	0.680035
Zn17	Zn	1.742716	0.128205	-0.179953
Zn18	Zn	2.242716	0.628205	0.320047
O19	O	1.730928	0.250392	0.136668
O20	O	2.230928	0.750392	0.636668
C21	C	1.472982	0.132286	0.000037
C22	C	1.972982	0.632286	0.500037
C23	C	1.309207	0.129384	0.000034
C24	C	1.809207	0.629384	0.500034
C25	C	1.753519	-0.025287	0.000020
C26	C	2.253519	0.474713	0.500020
C27	C	1.750634	-0.118558	-0.000001
C28	C	2.250634	0.381442	0.499999
C29	C	1.883979	-0.353308	0.000032
C30	C	2.383979	0.146692	0.500032
C31	C	1.812077	-0.404420	-0.134683
C32	C	2.312077	0.095580	0.365317
C33	C	1.745287	-0.289319	0.000020
C34	C	2.245287	0.210681	0.500020
C35	C	1.812032	-0.404398	0.134698
C36	C	2.312032	0.095602	0.634698
C37	C	1.740133	-0.454268	0.000046
C38	C	2.240133	0.045732	0.500046
C39	C	1.673423	-0.339202	-0.134807
C40	C	2.173423	0.160798	0.365193
C41	C	1.673399	-0.339177	0.134695
C42	C	2.173399	0.160823	0.634695
C43	C	1.601396	-0.390256	-0.000054
C44	C	2.101396	0.109744	0.499946
C45	C	1.748261	-0.194297	0.000003
C46	C	2.248261	0.305703	0.500003
C47	C	1.737149	-0.549288	0.000051
C48	C	2.237149	-0.049288	0.500051
C49	C	2.012434	0.124122	0.000041
C50	C	2.512434	0.624122	0.500041
C51	C	2.176208	0.127024	0.000034
C52	C	2.676208	0.627024	0.500034
C53	C	1.731896	0.281695	0.000058
C54	C	2.231896	0.781695	0.500058
C55	C	1.734782	0.374965	0.000068
C56	C	2.234782	0.874965	0.500068
N57	N	1.742699	0.128201	0.425718
N58	N	2.242699	0.628201	0.925718
N59	N	1.742728	0.128200	-0.425636
N60	N	2.242728	0.628200	0.074364
H61	H	2.003443	-0.336775	-0.000102
H62	H	2.503443	0.163225	0.499898
H63	H	1.870653	-0.432922	-0.248575
H64	H	2.370653	0.067078	0.251425
H65	H	1.614891	-0.310825	-0.248820
H66	H	2.114891	0.189175	0.251180
H67	H	1.481838	-0.406627	-0.000129
H68	H	1.981838	0.093373	0.499871
H69	H	1.614873	-0.310660	0.248590
H70	H	2.114873	0.189340	0.748590
H71	H	1.870627	-0.432886	0.248581
H72	H	2.370627	0.067114	0.748581
