data_functionalizedCrystal
_audit_creation_method	'MofGen! by Chris Wilmer'
_symmetry_space_group_name_H-M	'P1'
_symmetry_Int_Tables_number	1
_symmetry_cell_setting	triclinic
loop_
_symmetry_equiv_pos_as_xyz
  x,y,z
_cell_length_a	12.759401
_cell_length_b	29.839131
_cell_length_c	12.759393
_cell_angle_alpha	89.962110
_cell_angle_beta	89.981504
_cell_angle_gamma	90.041581
loop_
_atom_site_label
_atom_site_type_symbol
_atom_site_fract_x
_atom_site_fract_y
_atom_site_fract_z
Zn1	Zn	1.606060	-0.178825	-0.593935
Zn2	Zn	1.605873	-0.253963	-0.418236
Zn3	Zn	1.430362	-0.178848	-0.418275
Zn4	Zn	1.430269	-0.253929	-0.593877
O5	O	1.518141	-0.216391	-0.506081
O6	O	1.753056	-0.188797	-0.570636
O7	O	1.582551	-0.244024	-0.271220
O8	O	1.453787	-0.115978	-0.441617
O9	O	1.752919	-0.244001	-0.441551
O10	O	1.582871	-0.115961	-0.570674
O11	O	1.453605	-0.188837	-0.271248
O12	O	1.283329	-0.188803	-0.441561
O13	O	1.453628	-0.243942	-0.740906
O14	O	1.283260	-0.243965	-0.570575
O15	O	1.582781	-0.188763	-0.740949
O16	O	1.582461	-0.316826	-0.441495
O17	O	1.453446	-0.316801	-0.570538
C18	C	1.245174	-0.216383	-0.506066
C19	C	1.128397	-0.216390	-0.506085
C20	C	1.517951	-0.333114	-0.506029
C21	C	1.517966	-0.383048	-0.506041
C22	C	1.073527	-0.245159	-0.573152
C23	C	0.963803	-0.245165	-0.573163
C24	C	0.963829	-0.187632	-0.439032
C25	C	1.073551	-0.187624	-0.439027
C26	C	1.128373	-0.273925	-0.640210
C27	C	1.073503	-0.302696	-0.707282
C28	C	0.963779	-0.302702	-0.707293
C29	C	0.908925	-0.273936	-0.640233
C30	C	1.585441	-0.692692	-0.438986
C31	C	1.585571	-0.880365	-0.439027
O32	O	1.642790	-0.904631	-0.381974
N33	N	1.518359	-0.903833	-0.506160
C34	C	1.451114	-0.880380	-0.573292
O35	O	1.393957	-0.904648	-0.630402
C36	C	1.450991	-0.692708	-0.573256
C37	C	1.518200	-0.669243	-0.506111
C38	C	1.652646	-0.669227	-0.371848
C39	C	1.652609	-0.622311	-0.371834
C40	C	1.585367	-0.598861	-0.438959
C41	C	1.518163	-0.622327	-0.506098
C42	C	1.383752	-0.669256	-0.640393
C43	C	1.383729	-0.622335	-0.640380
C44	C	1.450938	-0.598869	-0.573235
C45	C	1.450884	-0.551962	-0.573209
N46	N	1.518096	-0.528494	-0.506076
C47	C	1.585338	-0.551944	-0.438951
C48	C	1.451183	-0.978911	-0.573305
C49	C	1.451212	-1.025829	-0.573313
C50	C	1.585670	-1.025811	-0.439049
C51	C	1.585635	-0.978892	-0.439036
C52	C	1.518395	-0.955443	-0.506172
C53	C	1.585254	-0.453418	-0.438927
C54	C	1.585208	-0.406498	-0.438916
C55	C	1.450754	-0.406521	-0.573184
C56	C	1.450796	-0.453436	-0.573191
C57	C	1.518054	-0.476884	-0.506059
O58	O	1.393703	-0.527668	-0.630240
O59	O	1.642503	-0.527668	-0.381867
C60	C	1.585479	-0.739608	-0.439000
C61	C	1.518274	-0.763073	-0.506138
C62	C	1.451033	-0.739624	-0.573263
C63	C	1.518304	-0.809991	-0.506146
C64	C	1.585545	-0.833441	-0.439021
C65	C	1.652757	-0.809973	-0.371888
C66	C	1.652720	-0.763058	-0.371875
C67	C	1.383820	-0.763092	-0.640396
C68	C	1.383862	-0.810007	-0.640404
C69	C	1.451104	-0.833457	-0.573279
C70	C	1.792174	-0.216400	-0.506096
C71	C	1.908951	-0.216404	-0.506102
C72	C	1.518215	-0.216346	-0.780114
C73	C	1.518246	-0.216327	-0.896891
C74	C	1.518360	-0.099213	-0.506156
C75	C	1.518454	-0.049279	-0.506188
C76	C	1.585505	-0.187593	-0.951777
C77	C	1.585530	-0.187576	-1.061501
C78	C	1.451034	-0.245032	-1.061444
C79	C	1.451004	-0.245046	-0.951722
C80	C	1.652747	-0.158873	-0.896946
C81	C	1.720013	-0.130137	-0.951832
C82	C	1.720038	-0.130121	-1.061556
C83	C	1.652797	-0.158841	-1.116394
C84	C	1.518128	-0.216404	-0.233113
C85	C	1.518301	-0.216297	-0.116337
H86	H	1.118172	-0.326113	-0.761886
C87	C	1.793176	-0.098905	-1.120959
C88	C	1.852071	-0.073766	-1.049452
C89	C	1.919473	-0.045011	-1.104133
H90	H	1.753156	-0.079282	-1.163778
H91	H	1.838986	-0.116077	-1.163729
H92	H	1.806268	-0.056595	-1.006700
H93	H	1.892113	-0.093378	-1.006630
H94	H	1.965282	-0.062183	-1.146902
H95	H	1.879444	-0.025390	-1.146950
H96	H	1.959448	-0.027954	-1.055624
C97	C	0.904087	-0.156458	-0.366255
C98	C	0.796253	-0.162632	-0.380591
C99	C	0.741188	-0.133928	-0.313551
H100	H	0.921981	-0.126259	-0.381685
H101	H	0.921977	-0.163003	-0.295615
H102	H	0.778370	-0.156083	-0.451216
H103	H	0.778327	-0.192824	-0.365154
H104	H	0.759078	-0.140474	-0.242911
H105	H	0.759091	-0.103732	-0.328987
H106	H	0.668017	-0.138116	-0.323262
C107	C	1.378158	-0.276199	-1.121169
C108	C	1.392603	-0.270046	-1.229006
C109	C	1.325501	-0.298756	-1.284055
H110	H	1.307531	-0.269654	-1.103320
H111	H	1.393486	-0.306396	-1.103220
H112	H	1.377267	-0.239856	-1.246947
H113	H	1.463216	-0.276594	-1.246886
H114	H	1.340829	-0.328953	-1.266107
H115	H	1.254877	-0.292208	-1.266198
H116	H	1.335299	-0.294588	-1.357229
H117	H	0.819580	-0.273939	-0.640257
H118	H	1.640363	-0.959789	-0.384362
C119	C	1.378164	-0.276270	-0.891976
C120	C	1.437595	-0.305062	-0.828944
C121	C	1.370531	-0.333827	-0.773875
H122	H	1.338098	-0.293421	-0.940213
H123	H	1.332431	-0.259099	-0.849122
H124	H	1.483310	-0.322231	-0.871794
H125	H	1.477659	-0.287923	-0.780688
H126	H	1.324798	-0.316655	-0.731022
H127	H	1.330468	-0.350974	-0.822120
H128	H	1.410844	-0.353362	-0.731095
H129	H	1.328975	-0.603245	-0.695053
C130	C	1.310959	-0.694781	-0.713368
C131	C	1.370433	-0.721673	-0.780750
C132	C	1.303410	-0.745195	-0.847988
H133	H	1.270897	-0.674139	-0.753442
H134	H	1.265219	-0.713144	-0.673191
H135	H	1.416154	-0.703311	-0.820923
H136	H	1.410492	-0.742323	-0.740706
H137	H	1.257670	-0.763559	-0.807811
H138	H	1.263352	-0.724551	-0.888054
H139	H	1.343752	-0.763448	-0.893708
C140	C	1.377689	-0.478938	-0.645910
C141	C	1.310384	-0.505918	-0.586378
C142	C	1.243021	-0.529408	-0.653338
H143	H	1.417745	-0.497242	-0.691752
H144	H	1.337574	-0.458264	-0.685861
H145	H	1.350494	-0.526590	-0.546445
H146	H	1.270304	-0.487626	-0.540538
H147	H	1.202907	-0.508734	-0.693290
H148	H	1.283086	-0.547709	-0.699178
H149	H	1.197341	-0.547714	-0.612956
H150	H	1.396003	-0.387420	-0.627834
H151	H	1.217716	-0.273924	-0.640207
H152	H	0.919106	-0.326125	-0.761913
C153	C	1.378193	-1.051222	-0.646321
C154	C	1.319325	-1.020637	-0.705120
C155	C	1.252062	-1.044011	-0.772402
H156	H	1.332352	-1.069559	-0.606218
H157	H	1.418345	-1.069482	-0.692195
H158	H	1.279176	-1.002385	-0.659251
H159	H	1.365138	-1.002299	-0.745244
H160	H	1.292214	-1.062271	-0.818277
H161	H	1.206229	-1.062347	-0.732291
H162	H	1.212120	-1.023263	-0.812312
H163	H	1.774751	-0.106752	-0.907176
H164	H	1.652811	-0.158820	-1.205739
H165	H	1.707339	-0.603208	-0.317162
C166	C	1.133082	-0.156451	-0.366029
C167	C	1.106366	-0.166192	-0.262038
C168	C	1.161198	-0.137488	-0.194764
H169	H	1.115199	-0.126257	-0.381390
H170	H	1.206292	-0.160572	-0.375565
H171	H	1.033172	-0.162067	-0.252507
H172	H	1.124252	-0.196381	-0.246644
H173	H	1.234408	-0.141609	-0.204299
H174	H	1.143311	-0.107296	-0.210133
H175	H	1.143086	-0.144096	-0.124198
C176	C	1.658299	-0.381103	-0.365975
C177	C	1.717213	-0.411685	-0.307217
C178	C	1.784564	-0.388309	-0.240026
H179	H	1.618240	-0.362832	-0.320062
H180	H	1.704098	-0.362776	-0.406174
H181	H	1.671420	-0.430005	-0.267020
H182	H	1.757294	-0.429957	-0.353102
H183	H	1.830363	-0.369982	-0.280226
H184	H	1.744497	-0.370039	-0.194120
H185	H	1.824552	-0.409056	-0.200158
C186	C	1.658421	-0.478889	-0.366222
C187	C	1.725778	-0.505761	-0.425776
C188	C	1.793204	-0.529225	-0.358838
H189	H	1.618413	-0.497264	-0.320382
H190	H	1.698495	-0.458200	-0.326267
H191	H	1.685708	-0.526449	-0.465713
H192	H	1.765809	-0.487398	-0.471614
H193	H	1.833278	-0.508535	-0.318882
H194	H	1.753187	-0.547597	-0.313000
H195	H	1.838920	-0.547457	-0.399235
C196	C	1.725695	-0.694600	-0.298842
C197	C	1.784515	-0.663999	-0.240035
C198	C	1.851806	-0.687353	-0.172751
H199	H	1.771564	-0.712874	-0.338944
H200	H	1.685565	-0.712923	-0.252973
H201	H	1.824642	-0.645684	-0.285899
H202	H	1.738674	-0.645725	-0.199912
H203	H	1.811676	-0.705675	-0.126881
H204	H	1.897668	-0.705626	-0.212861
H205	H	1.891717	-0.666594	-0.132836
H206	H	1.640422	-1.044911	-0.384393
H207	H	1.652737	-0.158884	-0.807603
C208	C	1.378340	-0.953433	-0.646325
C209	C	1.437759	-0.926459	-0.713743
C210	C	1.370688	-0.902990	-0.781029
H211	H	1.332548	-0.935126	-0.606217
H212	H	1.338338	-0.974120	-0.686361
H213	H	1.477743	-0.905775	-0.673712
H214	H	1.483547	-0.944755	-0.753874
H215	H	1.330686	-0.923677	-0.821064
H216	H	1.324900	-0.884686	-0.740912
H217	H	1.410994	-0.884689	-0.826786
H218	H	1.329123	-0.829109	-0.695080
H219	H	1.707448	-0.743955	-0.317199
C220	C	1.725756	-0.835519	-0.299155
C221	C	1.711424	-0.881629	-0.313580
C222	C	1.778675	-0.905179	-0.246629
H223	H	1.710516	-0.827925	-0.228492
H224	H	1.796345	-0.827815	-0.314632
H225	H	1.640850	-0.889331	-0.298095
H226	H	1.726671	-0.889237	-0.384229
H227	H	1.849265	-0.897474	-0.262107
H228	H	1.763429	-0.897581	-0.175971
H229	H	1.768967	-0.936466	-0.256414
H230	H	1.329065	-0.744003	-0.695059
