data_functionalizedCrystal
_audit_creation_method	'MofGen! by Chris Wilmer'
_symmetry_space_group_name_H-M	'P1'
_symmetry_Int_Tables_number	1
_symmetry_cell_setting	triclinic
loop_
_symmetry_equiv_pos_as_xyz
  x,y,z
_cell_length_a	15.297475
_cell_length_b	18.050589
_cell_length_c	15.298259
_cell_angle_alpha	80.289521
_cell_angle_beta	88.370891
_cell_angle_gamma	80.331321
loop_
_atom_site_label
_atom_site_type_symbol
_atom_site_fract_x
_atom_site_fract_y
_atom_site_fract_z
Zn1	Zn	1.253457	-0.370929	-0.726683
Zn2	Zn	1.278678	-0.519604	-0.580190
Zn3	Zn	1.132309	-0.378152	-0.554907
Zn4	Zn	1.106928	-0.477789	-0.701329
O5	O	1.192843	-0.436618	-0.640777
O6	O	1.379381	-0.405128	-0.728442
O7	O	1.280440	-0.521363	-0.454250
O8	O	1.148446	-0.273274	-0.577724
O9	O	1.397912	-0.514359	-0.620814
O10	O	1.237453	-0.267968	-0.703927
O11	O	1.172902	-0.417439	-0.435675
O12	O	1.006363	-0.376892	-0.553139
O13	O	1.105188	-0.443091	-0.827278
O14	O	0.987715	-0.450095	-0.660714
O15	O	1.212842	-0.364581	-0.845906
O16	O	1.255829	-0.617977	-0.596229
O17	O	1.129644	-0.587255	-0.685229
C18	C	0.965256	-0.409740	-0.601432
C19	C	0.867889	-0.398256	-0.584621
C20	C	1.192740	-0.629561	-0.640745
C21	C	1.192771	-0.712107	-0.640774
C22	C	0.554752	-0.518703	-0.760933
C23	C	0.646234	-0.529499	-0.776725
C24	C	0.701652	-0.496689	-0.728701
C25	C	0.665580	-0.453082	-0.664880
C26	C	0.574091	-0.442290	-0.649081
C27	C	0.720990	-0.420275	-0.616850
C28	C	0.684919	-0.376668	-0.553029
C29	C	0.593438	-0.365877	-0.537234
C30	C	0.538020	-0.398687	-0.585258
C31	C	0.812480	-0.431067	-0.632649
C32	C	0.831818	-0.354654	-0.520797
C33	C	0.740337	-0.343858	-0.505005
C34	C	1.124212	-0.894888	-0.689161
C35	C	1.116687	-0.955174	-0.605540
C36	C	1.192855	-0.863245	-0.640800
C37	C	1.200421	-0.950044	-0.724439
C38	C	1.192933	-1.009237	-0.640832
C39	C	1.185294	-0.922446	-0.557128
C40	C	1.269057	-0.917307	-0.676088
C41	C	1.261571	-0.977584	-0.592416
C42	C	1.192807	-0.779143	-0.640782
C43	C	1.192982	-1.093339	-0.640841
C44	C	1.421319	-0.463602	-0.680277
C45	C	1.518682	-0.475101	-0.697109
C46	C	1.153370	-0.398366	-0.869266
C47	C	1.136549	-0.382065	-0.966634
C48	C	1.192967	-0.242923	-0.640834
C49	C	1.193020	-0.160381	-0.640858
C50	C	1.313093	-0.552555	-1.279776
C51	C	1.328893	-0.567874	-1.188293
C52	C	1.280809	-0.521423	-1.132874
C53	C	1.216921	-0.459650	-1.168947
C54	C	1.201115	-0.444333	-1.260438
C55	C	1.168831	-0.413201	-1.113536
C56	C	1.104944	-0.351428	-1.149608
C57	C	1.089141	-0.336113	-1.241091
C58	C	1.137225	-0.382564	-1.296510
C59	C	1.184637	-0.428519	-1.022044
C60	C	1.072659	-0.320297	-1.002706
C61	C	1.056859	-0.304977	-1.094189
C62	C	1.232212	-0.474674	-0.413186
C63	C	1.249203	-0.490786	-0.315848
H64	H	0.776139	-0.505481	-0.741563
O65	O	0.449183	-0.388229	-0.569742
C66	C	0.433116	-0.417663	-0.480467
H67	H	0.494553	-0.419574	-0.439148
H68	H	0.374610	-0.379520	-0.454388
H69	H	0.417193	-0.477693	-0.475677
H70	H	0.876940	-0.327939	-0.481690
O71	O	1.054792	-0.852258	-0.737736
C72	C	0.974637	-0.871434	-0.700241
H73	H	0.985604	-0.897282	-0.627305
H74	H	0.922112	-0.817961	-0.706160
H75	H	0.951378	-0.914564	-0.736938
H76	H	1.206792	-0.962523	-0.795158
O77	O	1.026051	-0.275225	-0.948761
C78	C	1.053687	-0.302000	-0.860276
H79	H	1.123430	-0.336397	-0.859463
H80	H	1.053788	-0.251496	-0.824493
H81	H	1.006189	-0.339758	-0.825320
O82	O	1.177635	-0.907803	-0.472663
C83	C	1.172305	-0.975878	-0.413600
H84	H	1.203305	-1.026713	-0.445645
H85	H	1.209500	-0.976341	-0.349934
H86	H	1.099801	-0.979627	-0.397460
H87	H	1.333441	-0.900458	-0.705945
O88	O	1.296296	-0.536387	-1.044032
C89	C	1.362979	-0.600879	-1.024074
H90	H	1.405040	-0.608502	-1.085641
H91	H	1.406811	-0.592645	-0.968624
H92	H	1.331011	-0.653641	-1.001817
H93	H	1.352230	-0.590373	-1.324904
H94	H	1.052281	-0.972017	-0.575718
O95	O	1.330796	-1.020080	-0.543442
C96	C	1.322522	-1.006189	-0.455368
H97	H	1.250138	-0.984170	-0.441077
H98	H	1.345937	-1.061378	-0.407861
H99	H	1.364797	-0.961789	-0.445948
H100	H	1.236659	-0.478811	-0.992684
H101	H	1.124367	-0.370092	-1.371004
H102	H	1.037112	-0.285819	-1.270457
O103	O	0.847602	-0.473321	-0.694704
C104	C	0.890738	-0.427868	-0.760526
H105	H	0.909784	-0.378320	-0.732115
H106	H	0.953039	-0.463767	-0.783315
H107	H	0.844276	-0.404766	-0.819372
O108	O	0.994897	-0.244887	-1.129212
C109	C	1.017937	-0.176878	-1.110171
H110	H	1.092262	-0.185603	-1.097116
H111	H	1.000025	-0.129228	-1.169045
H112	H	0.980156	-0.160807	-1.048957
O113	O	0.681121	-0.571848	-0.838775
C114	C	0.612597	-0.598508	-0.877761
H115	H	0.546863	-0.559883	-0.869600
H116	H	0.627121	-0.598093	-0.951330
H117	H	0.608396	-0.659106	-0.843879
O118	O	0.500791	-0.550492	-0.807523
C119	C	0.412315	-0.531634	-0.779872
H120	H	0.404779	-0.477593	-0.749148
H121	H	0.366217	-0.521677	-0.839472
H122	H	0.394405	-0.580380	-0.728641
H123	H	0.710955	-0.308353	-0.453041
O124	O	0.558533	-0.323595	-0.475119
C125	C	0.595957	-0.356990	-0.391643
H126	H	0.662683	-0.393688	-0.401260
H127	H	0.605891	-0.310278	-0.353010
H128	H	0.549560	-0.394007	-0.353157
O129	O	1.391013	-0.627881	-1.153405
C130	C	1.430053	-0.665605	-1.221931
H131	H	1.421836	-0.624628	-1.287679
H132	H	1.503631	-0.686100	-1.207428
H133	H	1.396261	-0.716590	-1.226097
