data_functionalizedCrystal
_audit_creation_method	'MofGen! by Chris Wilmer'
_symmetry_space_group_name_H-M	'P1'
_symmetry_Int_Tables_number	1
_symmetry_cell_setting	triclinic
loop_
_symmetry_equiv_pos_as_xyz
  x,y,z
_cell_length_a	21.295418
_cell_length_b	17.077402
_cell_length_c	17.077396
_cell_angle_alpha	90.029784
_cell_angle_beta	89.961209
_cell_angle_gamma	89.961304
loop_
_atom_site_label
_atom_site_type_symbol
_atom_site_fract_x
_atom_site_fract_y
_atom_site_fract_z
Zn1	Zn	0.962358	0.312177	-0.444240
Zn2	Zn	1.462358	0.812177	0.055760
Zn3	Zn	0.962284	0.443452	-0.312971
Zn4	Zn	1.462284	0.943452	0.187029
Zn5	Zn	0.857091	0.312240	-0.312944
Zn6	Zn	1.357091	0.812240	0.187056
Zn7	Zn	0.857065	0.443441	-0.444150
Zn8	Zn	1.357065	0.943441	0.055850
O9	O	0.909699	0.377827	-0.378576
O10	O	1.409699	0.877827	0.121424
O11	O	1.050438	0.329569	-0.426876
O12	O	1.550438	0.829569	0.073124
O13	O	0.948309	0.426077	-0.203120
O14	O	1.448309	0.926077	0.296880
O15	O	0.871097	0.202385	-0.330386
O16	O	1.371097	0.702385	0.169614
O17	O	1.050383	0.426016	-0.330433
O18	O	1.550383	0.926016	0.169567
O19	O	0.948436	0.202338	-0.426849
O20	O	1.448436	0.702338	0.073151
O21	O	0.871024	0.329677	-0.203100
O22	O	1.371024	0.829677	0.296900
O23	O	0.768998	0.329666	-0.330299
O24	O	1.268998	0.829666	0.169701
O25	O	0.871053	0.425997	-0.554009
O26	O	1.371053	0.925997	-0.054009
O27	O	0.768979	0.426059	-0.426696
O28	O	1.268979	0.926059	0.073304
O29	O	0.948411	0.329558	-0.554075
O30	O	1.448411	0.829558	-0.054075
O31	O	0.948284	0.553297	-0.330346
O32	O	1.448284	1.053297	0.169654
O33	O	0.870981	0.553289	-0.426723
O34	O	1.370981	1.053289	0.073277
C35	C	0.909639	0.581775	-0.378545
C36	C	1.409639	1.081775	0.121455
C37	C	0.909670	0.669025	-0.378558
C38	C	1.409670	1.169025	0.121442
C39	C	0.746148	0.377869	-0.378486
C40	C	1.246148	0.877869	0.121514
C41	C	0.676180	0.377905	-0.378466
C42	C	1.176180	0.877905	0.121534
C43	C	0.909738	0.377769	-0.583320
C44	C	1.409738	0.877769	-0.083320
C45	C	0.909754	0.377745	-0.670570
C46	C	1.409754	0.877745	-0.170570
C47	C	0.643320	0.428163	-0.428585
C48	C	1.143320	0.928163	0.071415
C49	C	0.577577	0.428144	-0.428620
C50	C	1.077577	0.928144	0.071380
C51	C	0.544697	0.377875	-0.378522
C52	C	1.044697	0.877875	0.121478
C53	C	0.577565	0.327607	-0.328400
C54	C	1.077565	0.827607	0.171600
C55	C	0.643306	0.327622	-0.328372
C56	C	1.143306	0.827622	0.171628
N57	N	0.441425	0.371744	-0.309865
N58	N	0.941425	0.871744	0.190135
N59	N	0.378974	0.371735	-0.309894
N60	N	0.878974	0.871735	0.190106
C61	C	0.346623	0.377825	-0.378605
C62	C	0.846623	0.877825	0.121395
N63	N	0.379082	0.383940	-0.447288
N64	N	0.879082	0.883940	0.052712
N65	N	0.441539	0.383954	-0.447258
N66	N	0.941539	0.883954	0.052742
C67	C	0.473412	0.377852	-0.378548
C68	C	0.973412	0.877852	0.121452
C69	C	0.242477	0.428064	-0.428767
C70	C	0.742477	0.928064	0.071233
C71	C	0.176733	0.428040	-0.428803
C72	C	0.676733	0.928040	0.071197
C73	C	0.176723	0.327507	-0.328576
C74	C	0.676723	0.827507	0.171424
C75	C	0.242465	0.327527	-0.328547
C76	C	0.742465	0.827527	0.171453
C77	C	0.275338	0.377810	-0.378641
C78	C	0.775338	0.877810	0.121359
C79	C	1.073890	0.377786	-0.378667
C80	C	1.573890	0.877786	0.121333
C81	C	1.143858	0.377769	-0.378706
C82	C	1.643858	0.877769	0.121294
C83	C	0.909778	0.173083	-0.378625
C84	C	1.409778	0.673083	0.121375
C85	C	0.909811	0.085833	-0.378645
C86	C	1.409811	0.585833	0.121355
C87	C	0.949964	0.709993	-0.328428
C88	C	1.449964	1.209993	0.171572
C89	C	0.949994	0.791974	-0.328448
C90	C	1.449994	1.291974	0.171552
C91	C	0.909728	0.832984	-0.378594
C92	C	1.409728	1.332984	0.121406
C93	C	0.869433	0.792010	-0.428729
C94	C	1.369433	1.292010	0.071271
C95	C	0.869406	0.710031	-0.428713
C96	C	1.369406	1.210031	0.071287
C97	C	0.869492	0.962880	-0.428759
C98	C	1.369492	1.462880	0.071241
C99	C	0.869518	1.044865	-0.428775
C100	C	1.369518	1.544865	0.071225
C101	C	0.950080	1.044822	-0.328495
C102	C	1.450080	1.544822	0.171505
C103	C	0.950053	0.962844	-0.328478
C104	C	1.450053	1.462844	0.171522
C105	C	0.909757	0.921875	-0.378612
C106	C	1.409757	1.421875	0.121388
C107	C	0.950036	0.327525	-0.711596
C108	C	1.450036	0.827525	-0.211596
C109	C	0.950043	0.327499	-0.793577
C110	C	1.450043	0.827499	-0.293577
C111	C	0.909772	0.377697	-0.834530
C112	C	1.409772	0.877697	-0.334530
C113	C	0.869485	0.427919	-0.793498
C114	C	1.369485	0.927919	-0.293498
C115	C	0.869475	0.427941	-0.711519
C116	C	1.369475	0.927941	-0.211519
C117	C	0.869510	0.427872	-0.964369
C118	C	1.369510	0.927872	-0.464369
C119	C	0.869521	0.427852	-1.046353
C120	C	1.369521	0.927852	-0.546353
C121	C	0.950079	0.327430	-1.046426
C122	C	1.450079	0.827430	-0.546426
C123	C	0.950069	0.327451	-0.964447
C124	C	1.450069	0.827451	-0.464447
C125	C	0.909783	0.377675	-0.923421
C126	C	1.409783	0.877675	-0.423421
C127	C	0.909698	0.377828	-0.174628
C128	C	1.409698	0.877828	0.325372
C129	C	0.909804	0.377632	-0.087379
C130	C	1.409804	0.877632	0.412621
H131	H	0.550817	0.469070	-0.469436
H132	H	1.050817	0.969070	0.030564
C133	C	0.985790	0.282965	-0.585963
C134	C	1.485790	0.782965	-0.085963
C135	C	0.994303	0.272342	-0.666583
C136	C	1.494303	0.772342	-0.166583
H137	H	1.013121	0.248897	-0.558177
H138	H	1.513121	0.748897	-0.058177
H139	H	0.943502	0.271493	-0.572508
H140	H	1.443502	0.771493	-0.072508
H141	H	0.994985	0.335709	-0.572526
H142	H	1.494985	0.835709	-0.072526
H143	H	0.985103	0.219599	-0.680020
H144	H	1.485103	0.719599	-0.180020
H145	H	1.036600	0.283809	-0.680043
H146	H	1.536600	0.783809	-0.180043
C147	C	0.476783	0.282962	-0.283926
C148	C	0.976783	0.782962	0.216074
C149	C	0.541426	0.272357	-0.273324
C150	C	1.041426	0.772357	0.226676
H151	H	0.454474	0.248854	-0.249920
H152	H	0.954474	0.748854	0.250080
H153	H	0.466060	0.271533	-0.336685
H154	H	0.966060	0.771533	0.163315
H155	H	0.465973	0.335691	-0.272351
H156	H	0.965973	0.835691	0.227649
H157	H	0.552236	0.219629	-0.284905
H158	H	1.052236	0.719629	0.215095
H159	H	0.552153	0.283781	-0.220553
H160	H	1.052153	0.783781	0.279447
H161	H	0.982837	0.929453	-0.287641
H162	H	1.482837	1.429453	0.212359
C163	C	0.744098	0.472825	-0.473052
C164	C	1.244098	0.972825	0.026948
C165	C	0.679454	0.483423	-0.483657
C166	C	1.179454	0.983423	0.016343
H167	H	0.766405	0.506942	-0.507051
H168	H	1.266405	1.006942	-0.007051
H169	H	0.754912	0.420105	-0.484629
H170	H	1.254912	0.920105	0.015371
H171	H	0.754818	0.484253	-0.420285
H172	H	1.254818	0.984253	0.079715
H173	H	0.668733	0.471989	-0.536423
H174	H	1.168733	0.971989	-0.036423
H175	H	0.668636	0.536155	-0.472085
H176	H	1.168636	1.036155	0.027915
H177	H	0.836667	0.468827	-0.678117
H178	H	1.336667	0.968827	-0.178117
C179	C	1.029712	0.228171	-1.038259
C180	C	1.529712	0.728171	-0.538259
C181	C	0.994362	0.272221	-1.091517
C182	C	1.494362	0.772221	-0.591517
H183	H	1.057054	0.194095	-1.066100
H184	H	1.557054	0.694095	-0.566100
H185	H	1.002296	0.198160	-1.006275
H186	H	1.502296	0.698160	-0.506275
H187	H	1.053770	0.262387	-1.006291
H188	H	1.553770	0.762387	-0.506291
H189	H	0.970300	0.238005	-1.123481
H190	H	1.470300	0.738005	-0.623481
H191	H	1.021782	0.302234	-1.123515
H192	H	1.521782	0.802234	-0.623515
C193	C	0.986020	1.170467	-0.284141
C194	C	1.486020	1.670467	0.215859
C195	C	0.994457	1.089851	-0.273489
C196	C	1.494457	1.589851	0.226511
H197	H	1.013441	1.198267	-0.250214
H198	H	1.513441	1.698267	0.249786
H199	H	0.943767	1.184019	-0.272495
H200	H	1.443767	1.684019	0.227505
H201	H	0.995141	1.183789	-0.336935
H202	H	1.495141	1.683789	0.163065
H203	H	0.985332	1.076528	-0.220695
H204	H	1.485332	1.576528	0.279305
H205	H	1.036720	1.076294	-0.285129
H206	H	1.536720	1.576294	0.214871
C207	C	0.838677	0.684740	-0.561579
C208	C	1.338677	1.184740	-0.061579
C209	C	0.825116	0.664995	-0.483818
C210	C	1.325116	1.164995	0.016182
H211	H	0.811332	0.656939	-0.595601
H212	H	1.311332	1.156939	-0.095601
H213	H	0.880958	0.671239	-0.573121
H214	H	1.380958	1.171239	-0.073121
H215	H	0.832926	0.739434	-0.568755
H216	H	1.332926	1.239434	-0.068755
H217	H	0.830871	0.610302	-0.476641
H218	H	1.330871	1.110302	0.023359
H219	H	0.782824	0.678491	-0.472272
H220	H	1.282824	1.178491	0.027728
H221	H	0.670061	0.286693	-0.287559
H222	H	1.170061	0.786693	0.212441
H223	H	0.836680	0.929527	-0.469587
H224	H	1.336680	1.429527	0.030413
C225	C	0.235887	0.527424	-0.527849
C226	C	0.735887	1.027424	-0.027849
C227	C	0.278617	0.483323	-0.483839
C228	C	0.778617	0.983323	0.016161
H229	H	0.258198	0.561533	-0.561852
H230	H	0.758198	1.061533	-0.061852
H231	H	0.210198	0.557403	-0.493609
H232	H	0.710198	1.057403	0.006391
H233	H	0.210293	0.493244	-0.557943
H234	H	0.710293	0.993244	-0.057943
H235	H	0.304207	0.517503	-0.453741
H236	H	0.804207	1.017503	0.046259
H237	H	0.304317	0.453342	-0.518084
H238	H	0.804317	0.953342	-0.018084
H239	H	0.982847	0.286606	-0.826976
H240	H	1.482847	0.786606	-0.326976
C241	C	0.958823	0.221877	-0.872299
C242	C	1.458823	0.721877	-0.372299
C243	C	0.994328	0.272258	-0.919436
C244	C	1.494328	0.772258	-0.419436
H245	H	0.986146	0.187801	-0.844511
H246	H	1.486146	0.687801	-0.344511
H247	H	0.931414	0.191866	-0.904277
H248	H	1.431414	0.691866	-0.404277
H249	H	0.934839	0.251801	-0.836131
H250	H	1.434839	0.751801	-0.336131
H251	H	1.018309	0.242334	-0.955608
H252	H	1.518309	0.742334	-0.455608
H253	H	1.021749	0.302272	-0.887455
H254	H	1.521749	0.802272	-0.387455
H255	H	0.149952	0.286573	-0.287789
H256	H	0.649952	0.786573	0.212211
C257	C	0.860768	1.137009	-0.534356
C258	C	1.360768	1.637009	-0.034356
C259	C	0.825262	1.089952	-0.483897
C260	C	1.325262	1.589952	0.016103
H261	H	0.833445	1.164848	-0.568381
H262	H	1.333445	1.664848	-0.068381
H263	H	0.888163	1.104970	-0.564418
H264	H	1.388163	1.604970	-0.064418
H265	H	0.884767	1.173132	-0.504486
H266	H	1.384767	1.673132	-0.004486
H267	H	0.801267	1.053825	-0.513767
H268	H	1.301267	1.553825	-0.013767
H269	H	0.797855	1.121994	-0.453832
H270	H	1.297855	1.621994	0.046168
C271	C	0.789882	0.527105	-1.038052
C272	C	1.289882	1.027105	-0.538052
C273	C	0.825250	0.483024	-1.091371
C274	C	1.325250	0.983024	-0.591371
H275	H	0.762548	0.561162	-1.065846
H276	H	1.262548	1.061162	-0.565846
H277	H	0.817287	0.557137	-1.006088
H278	H	1.317287	1.057137	-0.506088
H279	H	0.765815	0.492907	-1.006069
H280	H	1.265815	0.992907	-0.506069
H281	H	0.849320	0.517222	-1.123350
H282	H	1.349320	1.017222	-0.623350
H283	H	0.797841	0.452990	-1.123349
H284	H	1.297841	0.952990	-0.623349
C285	C	0.102890	0.439072	-0.534413
C286	C	0.602890	0.939072	-0.034413
C287	C	0.140613	0.483287	-0.483901
C288	C	0.640613	0.983287	0.016099
H289	H	0.080594	0.473181	-0.568431
H290	H	0.580594	0.973181	-0.068431
H291	H	0.073903	0.409134	-0.504587
H292	H	0.573903	0.909134	-0.004587
H293	H	0.128594	0.404921	-0.564488
H294	H	0.628594	0.904921	-0.064488
H295	H	0.114908	0.517434	-0.453823
H296	H	0.614908	1.017434	0.046177
H297	H	0.169604	0.513238	-0.513731
H298	H	0.669604	1.013238	-0.013731
H299	H	0.982750	0.676608	-0.287590
H300	H	1.482750	1.176608	0.212410
H301	H	0.269220	0.286606	-0.287731
H302	H	0.769220	0.786606	0.212269
C303	C	0.860726	0.533479	-0.872136
C304	C	1.360726	1.033479	-0.372136
C305	C	0.825235	0.483079	-0.919261
C306	C	1.325235	0.983079	-0.419261
H307	H	0.833395	0.567558	-0.844283
H308	H	1.333395	1.067558	-0.344283
H309	H	0.888137	0.563486	-0.904131
H310	H	1.388137	1.063486	-0.404131
H311	H	0.884708	0.503569	-0.836025
H312	H	1.384708	1.003569	-0.336025
H313	H	0.801257	0.512988	-0.955376
H314	H	1.301257	1.012988	-0.455376
H315	H	0.797813	0.453068	-0.887263
H316	H	1.297813	0.953068	-0.387263
C317	C	0.860669	0.884147	-0.534318
C318	C	1.360669	1.384147	-0.034318
C319	C	0.825172	0.837090	-0.483850
C320	C	1.325172	1.337090	0.016150
H321	H	0.833341	0.911979	-0.568343
H322	H	1.333341	1.411979	-0.068343
H323	H	0.888065	0.852108	-0.564381
H324	H	1.388065	1.352108	-0.064381
H325	H	0.884668	0.920275	-0.504455
H326	H	1.384668	1.420275	-0.004455
H327	H	0.801176	0.800957	-0.513714
H328	H	1.301176	1.300957	-0.013714
H329	H	0.797765	0.869132	-0.453785
H330	H	1.297765	1.369132	0.046215
C331	C	1.029614	0.783697	-0.229315
C332	C	1.529614	1.283697	0.270685
C333	C	0.994282	0.837006	-0.273339
C334	C	1.494282	1.337006	0.226661
H335	H	1.056953	0.811500	-0.195289
H336	H	1.556953	1.311500	0.304711
H337	H	1.053667	0.751666	-0.263544
H338	H	1.553667	1.251666	0.236456
H339	H	1.002180	0.751781	-0.199244
H340	H	1.502180	1.251781	0.300756
H341	H	1.021716	0.868919	-0.303414
H342	H	1.521716	1.368919	0.196586
H343	H	0.970227	0.869050	-0.239106
H344	H	1.470227	1.369050	0.260894
H345	H	0.836693	0.468789	-0.826849
H346	H	1.336693	0.968789	-0.326849
