data_functionalizedCrystal
_audit_creation_method	'MofGen! by Chris Wilmer'
_symmetry_space_group_name_H-M	'P1'
_symmetry_Int_Tables_number	1
_symmetry_cell_setting	triclinic
loop_
_symmetry_equiv_pos_as_xyz
  x,y,z
_cell_length_a	16.109296
_cell_length_b	27.732048
_cell_length_c	15.186229
_cell_angle_alpha	89.991324
_cell_angle_beta	90.001331
_cell_angle_gamma	96.949028
loop_
_atom_site_label
_atom_site_type_symbol
_atom_site_fract_x
_atom_site_fract_y
_atom_site_fract_z
O1	O	-1.102364	0.062118	-0.073197
O2	O	-0.602364	0.562118	0.426803
O3	O	-0.860206	0.069852	-0.073209
O4	O	-0.360206	0.569852	0.426791
O5	O	-0.988806	-0.004380	-0.073186
O6	O	-0.488806	0.495620	0.426814
O7	O	-0.973764	0.136350	-0.073220
O8	O	-0.473764	0.636350	0.426780
O9	O	-0.988798	-0.004381	0.073272
O10	O	-0.488798	0.495619	0.573272
O11	O	-0.860197	0.069851	0.073248
O12	O	-0.360197	0.569851	0.573248
O13	O	-1.102356	0.062117	0.073260
O14	O	-0.602356	0.562117	0.573260
Zn15	Zn	-0.981275	0.065984	0.096508
Zn16	Zn	-0.481275	0.565984	0.596508
Zn17	Zn	-0.981286	0.065985	-0.096456
Zn18	Zn	-0.481286	0.565985	0.403544
O19	O	-0.973756	0.136349	0.073237
O20	O	-0.473756	0.636349	0.573237
C21	C	-0.829231	0.069539	0.000018
C22	C	-0.329231	0.569539	0.500018
C23	C	-0.736947	0.068601	0.000015
C24	C	-0.236947	0.568601	0.500015
C25	C	-0.427440	0.109582	0.000022
C26	C	0.072560	0.609582	0.500022
C27	C	-0.514150	0.110468	0.000016
C28	C	-0.014150	0.610468	0.500016
C29	C	-0.535113	0.022395	0.000026
C30	C	-0.035113	0.522395	0.500026
C31	C	-0.448405	0.021510	0.000025
C32	C	0.051595	0.521510	0.500025
C33	C	-0.394571	0.065105	0.000028
C34	C	0.105429	0.565105	0.500028
C35	C	-0.567988	0.066876	0.000022
C36	C	-0.067988	0.566876	0.500022
C37	C	-0.662003	0.067836	0.000016
C38	C	-0.162003	0.567836	0.500016
C39	C	-0.300550	0.064145	0.000032
C40	C	0.199450	0.564145	0.500032
C41	C	-0.988486	-0.022389	0.000045
C42	C	-0.488486	0.477611	0.500045
C43	C	-0.987535	-0.076048	0.000053
C44	C	-0.487535	0.423952	0.500053
C45	C	-1.057544	-0.414571	0.000011
C46	C	-0.557544	0.085429	0.500011
C47	C	-1.054016	-0.616245	-0.000002
C48	C	-0.554016	-0.116245	0.499998
O49	O	-1.118034	-0.647234	-0.000037
O50	O	-0.618034	-0.147234	0.499963
N51	N	-0.977762	-0.635687	-0.000005
N52	N	-0.477762	-0.135687	0.499995
C53	C	-0.902384	-0.604707	-0.000010
C54	C	-0.402384	-0.104707	0.499990
O55	O	-0.837444	-0.625871	-0.000022
O56	O	-0.337444	-0.125871	0.499978
C57	C	-0.905912	-0.403034	-0.000004
C58	C	-0.405912	0.096966	0.499996
C59	C	-0.982172	-0.383595	0.000008
C60	C	-0.482172	0.116405	0.500008
C61	C	-1.133797	-0.395131	0.000022
C62	C	-0.633797	0.104869	0.500022
C63	C	-1.134678	-0.344716	0.000030
C64	C	-0.634678	0.155284	0.500030
C65	C	-1.059306	-0.313740	0.000027
C66	C	-0.559306	0.186260	0.500027
C67	C	-0.983053	-0.333179	0.000016
C68	C	-0.483053	0.166821	0.500016
C69	C	-0.830535	-0.372055	-0.000016
C70	C	-0.330535	0.127945	0.499984
C71	C	-0.831424	-0.321634	-0.000017
C72	C	-0.331424	0.178366	0.499983
C73	C	-0.907684	-0.302195	-0.000005
C74	C	-0.407684	0.197805	0.499995
C75	C	-0.908562	-0.251787	0.000021
C76	C	-0.408562	0.248213	0.500021
N77	N	-0.984816	-0.232345	0.000024
N78	N	-0.484816	0.267655	0.500024
C79	C	-1.060188	-0.263321	0.000027
C80	C	-0.560188	0.236679	0.500027
C81	C	-0.900537	-0.710589	-0.000012
C82	C	-0.400537	-0.210589	0.499988
C83	C	-0.899654	-0.761007	-0.000012
C84	C	-0.399654	-0.261007	0.499988
C85	C	-1.051287	-0.772542	-0.000005
C86	C	-0.551287	-0.272542	0.499995
C87	C	-1.052169	-0.722122	0.000002
C88	C	-0.552169	-0.222122	0.500002
C89	C	-0.976791	-0.691147	-0.000009
C90	C	-0.476791	-0.191147	0.499991
C91	C	-1.062033	-0.157445	0.000044
C92	C	-0.562033	0.342555	0.500044
C93	C	-1.062907	-0.107024	0.000056
C94	C	-0.562907	0.392976	0.500056
C95	C	-0.911275	-0.095494	0.000044
C96	C	-0.411275	0.404506	0.500044
C97	C	-0.910400	-0.145910	0.000037
C98	C	-0.410400	0.354090	0.500037
C99	C	-0.985786	-0.176885	0.000034
C100	C	-0.485786	0.323115	0.500034
O101	O	-0.844578	-0.220770	0.000046
O102	O	-0.344578	0.279230	0.500046
O103	O	-1.125119	-0.242148	0.000019
O104	O	-0.625119	0.257852	0.500019
C105	C	-1.056663	-0.464986	0.000003
C106	C	-0.556663	0.035014	0.500003
C107	C	-0.980410	-0.484426	-0.000008
C108	C	-0.480410	0.015574	0.499992
C109	C	-0.905037	-0.453450	-0.000011
C110	C	-0.405037	0.046550	0.499989
C111	C	-0.979527	-0.534844	-0.000008
C112	C	-0.479527	-0.034844	0.499992
C113	C	-1.054899	-0.565820	-0.000005
C114	C	-0.554899	-0.065820	0.499995
C115	C	-1.131154	-0.546378	-0.000002
C116	C	-0.631154	-0.046378	0.499998
C117	C	-1.132035	-0.495962	0.000006
C118	C	-0.632035	0.004038	0.500006
C119	C	-0.828783	-0.472892	-0.000014
C120	C	-0.328783	0.027108	0.499986
C121	C	-0.827908	-0.523308	-0.000021
C122	C	-0.327908	-0.023308	0.499979
C123	C	-0.903280	-0.554284	-0.000018
C124	C	-0.403280	-0.054284	0.499982
C125	C	-0.133330	0.062433	0.000033
C126	C	0.366670	0.562433	0.500033
C127	C	-0.225612	0.063380	0.000036
C128	C	0.274388	0.563380	0.500036
C129	C	-0.974076	0.154358	0.000004
C130	C	-0.474076	0.654358	0.500004
C131	C	-0.975026	0.208017	-0.000009
C132	C	-0.475026	0.708017	0.499991
N133	N	-0.981274	0.065983	0.228200
N134	N	-0.481274	0.565983	0.728200
N135	N	-0.981295	0.065983	-0.228149
N136	N	-0.481295	0.565983	0.271851
C137	C	-1.038237	0.033123	0.453933
C138	C	-0.538237	0.533123	0.953933
C139	C	-1.038240	0.033122	0.546123
C140	C	-0.538240	0.533122	1.046123
C141	C	-0.924325	0.098843	0.546112
C142	C	-0.424325	0.598843	1.046112
C143	C	-0.924319	0.098842	0.453924
C144	C	-0.424319	0.598842	0.953924
C145	C	-0.981280	0.065982	0.407837
C146	C	-0.481280	0.565982	0.907837
C147	C	-0.981288	0.065983	0.592215
C148	C	-0.481288	0.565983	1.092215
C149	C	-0.981291	0.065982	0.692171
C150	C	-0.481291	0.565982	1.192171
C151	C	-0.981277	0.065983	0.307874
C152	C	-0.481277	0.565983	0.807874
H153	H	-0.578956	-0.013098	0.000026
H154	H	-0.078956	0.486902	0.500026
H155	H	-0.877951	0.125597	0.583645
H156	H	-0.377951	0.625597	1.083645
H157	H	-1.084616	0.006367	0.416412
H158	H	-0.584616	0.506367	0.916412
H159	H	-0.837556	-0.776829	-0.000006
H160	H	-0.337556	-0.276829	0.499994
H161	H	-1.084618	0.006365	0.583652
H162	H	-0.584618	0.506365	1.083652
H163	H	-0.540907	0.146686	0.000010
H164	H	-0.040907	0.646686	0.500010
H165	H	-0.421644	-0.014711	0.000027
H166	H	0.078356	0.485289	0.500027
H167	H	-1.125010	-0.091200	0.000068
H168	H	-0.625010	0.408800	0.500068
H169	H	-0.877934	0.125600	0.416389
H170	H	-0.377934	0.625600	0.916389
H171	H	-0.383610	0.145080	0.000023
H172	H	0.116390	0.645080	0.500023
H173	H	-1.123419	-0.182659	0.000038
H174	H	-0.623419	0.317341	0.500038
H175	H	-1.192525	-0.571608	0.000004
H176	H	-0.692525	-0.071608	0.500004
H177	H	-1.195178	-0.420348	0.000021
H178	H	-0.695178	0.079652	0.500021
H179	H	-1.196777	-0.328893	0.000036
H180	H	-0.696777	0.171107	0.500036
H181	H	-0.848304	-0.161738	0.000052
H182	H	-0.348304	0.338262	0.500052
H183	H	-1.114266	-0.706299	0.000010
H184	H	-0.614266	-0.206299	0.500010
H185	H	-0.839152	-0.685372	-0.000020
H186	H	-0.339152	-0.185372	0.499980
H187	H	-0.768437	-0.387873	-0.000031
H188	H	-0.268437	0.112127	0.499969
H189	H	-1.112658	-0.797771	-0.000002
H190	H	-0.612658	-0.297771	0.499998
H191	H	-0.849909	-0.070264	0.000045
H192	H	-0.349909	0.429736	0.500045
H193	H	-0.770041	-0.296415	-0.000026
H194	H	-0.270041	0.203585	0.499974
H195	H	-1.194133	-0.480140	0.000015
H196	H	-0.694133	0.019860	0.500015
H197	H	-0.765804	-0.539130	-0.000023
H198	H	-0.265804	-0.039130	0.499977
H199	H	-0.767404	-0.447676	-0.000018
H200	H	-0.267404	0.052324	0.499982
