data_functionalizedCrystal
_audit_creation_method	'MofGen! by Chris Wilmer'
_symmetry_space_group_name_H-M	'P1'
_symmetry_Int_Tables_number	1
_symmetry_cell_setting	triclinic
loop_
_symmetry_equiv_pos_as_xyz
  x,y,z
_cell_length_a	19.288840
_cell_length_b	17.699083
_cell_length_c	17.766277
_cell_angle_alpha	89.992740
_cell_angle_beta	89.983415
_cell_angle_gamma	83.204515
loop_
_atom_site_label
_atom_site_type_symbol
_atom_site_fract_x
_atom_site_fract_y
_atom_site_fract_z
O1	O	0.921476	0.094327	-0.062721
O2	O	0.719228	0.107084	-0.062696
O3	O	0.826066	-0.009493	-0.062703
O4	O	0.814638	0.210903	-0.062714
O5	O	0.826047	-0.009498	0.062486
O6	O	0.719209	0.107078	0.062493
O7	O	0.921457	0.094321	0.062467
Cu8	Cu	0.820331	0.100699	0.073911
Cu9	Cu	0.820354	0.100706	-0.074139
O10	O	0.814619	0.210897	0.062474
C11	C	0.693341	0.106673	-0.000098
C12	C	0.616235	0.105451	-0.000088
C13	C	0.580041	0.104866	-0.068330
C14	C	0.507593	0.103709	-0.068339
C15	C	0.471343	0.103121	-0.000102
C16	C	0.507546	0.103709	0.068149
C17	C	0.579992	0.104874	0.068156
C18	C	0.361953	0.056941	0.052169
C19	C	0.289509	0.055772	0.052159
C20	C	0.247895	0.099531	-0.000122
C21	C	0.278736	0.144451	-0.052405
C22	C	0.351182	0.145616	-0.052397
C23	C	0.392788	0.101858	-0.000102
C24	C	0.133145	0.097694	-0.068378
C25	C	0.060694	0.096541	-0.068385
C26	C	0.060649	0.096534	0.068105
C27	C	0.133097	0.097694	0.068110
C28	C	0.169341	0.098270	-0.000134
C29	C	0.825647	-0.037692	-0.000108
C30	C	0.824418	-0.121708	-0.000108
C31	C	0.887130	-0.170423	-0.000115
C32	C	0.885972	-0.249365	-0.000121
C33	C	0.822101	-0.279590	-0.000115
C34	C	0.759384	-0.230868	-0.000111
C35	C	0.760544	-0.151928	-0.000109
C36	C	0.754708	-0.549224	-0.000116
C37	C	0.753554	-0.628170	-0.000115
C38	C	0.880136	-0.646661	-0.000128
C39	C	0.881296	-0.567721	-0.000127
C40	C	0.818580	-0.519006	-0.000126
C41	C	0.819836	-0.433409	-0.000120
C42	C	0.820843	-0.365185	-0.000116
C43	C	0.947344	0.094731	-0.000132
C44	C	1.024450	0.095954	-0.000147
C45	C	0.815038	0.239096	-0.000122
C46	C	0.816266	0.323113	-0.000127
N47	N	0.820321	0.100693	0.178041
N48	N	0.820370	0.100705	-0.178270
C49	C	0.867644	0.049099	0.217425
C50	C	0.867648	0.049095	0.296227
C51	C	0.820335	0.100699	0.335642
C52	C	0.773003	0.152298	0.296248
C53	C	0.772996	0.152295	0.217448
C54	C	0.811118	0.169662	0.460477
C55	C	0.811130	0.169666	0.539276
C56	C	0.820354	0.100709	0.578688
C57	C	0.829580	0.031744	0.539292
C58	C	0.829573	0.031741	0.460492
C59	C	0.820338	0.100708	0.421087
C60	C	0.867684	0.049106	0.703518
C61	C	0.867683	0.049101	0.782321
C62	C	0.773042	0.152311	0.782341
C63	C	0.773040	0.152309	0.703539
C64	C	0.820364	0.100707	0.664132
H65	H	0.162567	0.098164	0.123680
H66	H	0.703641	-0.509570	-0.000115
H67	H	0.906177	0.007080	0.185342
C68	C	0.949126	-0.700254	-0.000137
N69	N	1.001088	-0.740619	-0.000142
H70	H	0.906217	0.007083	0.814388
H71	H	0.734517	0.194325	0.814432
C72	C	0.020882	0.095895	-0.143461
N73	N	-0.009106	0.095406	-0.200009
C74	C	0.683288	-0.661415	-0.000115
N75	N	0.630366	-0.686455	-0.000115
H76	H	0.244855	0.180088	-0.094974
C77	C	0.721030	0.209122	0.660215
N78	N	0.681869	0.251934	0.627584
H79	H	0.906185	0.007079	0.328299
C80	C	0.951558	-0.534479	-0.000133
N81	N	1.004482	-0.509442	-0.000141
C82	C	0.720965	0.209089	0.174125
N83	N	0.681785	0.251879	0.141492
C84	C	0.467670	0.103061	0.143210
N85	N	0.437635	0.102575	0.199748
C86	C	0.689126	-0.264118	-0.000098
N87	N	0.636205	-0.289161	-0.000083
C88	C	0.407722	0.008796	0.109683
N89	N	0.442194	-0.027466	0.153001
C90	C	0.954960	-0.302949	-0.000117
N91	N	1.006925	-0.343308	-0.000109
C92	C	0.839712	-0.044118	0.417159
N93	N	0.847345	-0.101257	0.384521
C94	C	0.691556	-0.098341	-0.000100
N95	N	0.639592	-0.057980	-0.000095
C96	C	0.020779	0.095888	0.143167
N97	N	-0.009255	0.095402	0.199706
C98	C	0.255591	0.006367	0.109676
N99	N	0.230045	-0.030843	0.153004
C100	C	0.800975	0.245528	0.582604
N101	N	0.793321	0.302669	0.615236
H102	H	0.803595	0.225819	0.428394
C103	C	0.957394	-0.137184	-0.000121
N104	N	1.010319	-0.112151	-0.000129
H105	H	0.837091	-0.024408	0.571380
C106	C	0.173014	0.098341	-0.143447
N107	N	0.203040	0.098832	-0.199990
H108	H	0.609546	0.105336	-0.123900
H109	H	0.906217	0.007086	0.671431
H110	H	0.734480	0.194314	0.328344
C111	C	0.385099	0.195067	-0.109874
N112	N	0.410643	0.232329	-0.153153
C113	C	0.619807	0.105511	0.143231
N114	N	0.649797	0.105987	0.199779
C115	C	0.467772	0.103061	-0.143414
N116	N	0.437781	0.102571	-0.199960
