data_functionalizedCrystal
_audit_creation_method	'MofGen! by Chris Wilmer'
_symmetry_space_group_name_H-M	'P1'
_symmetry_Int_Tables_number	1
_symmetry_cell_setting	triclinic
loop_
_symmetry_equiv_pos_as_xyz
  x,y,z
_cell_length_a	12.827893
_cell_length_b	12.645330
_cell_length_c	12.827885
_cell_angle_alpha	89.971022
_cell_angle_beta	89.980728
_cell_angle_gamma	90.017662
loop_
_atom_site_label
_atom_site_type_symbol
_atom_site_fract_x
_atom_site_fract_y
_atom_site_fract_z
Zn1	Zn	1.597653	-0.421989	-0.590855
Zn2	Zn	1.597540	-0.599290	-0.416117
Zn3	Zn	1.422894	-0.422040	-0.416128
Zn4	Zn	1.422873	-0.599211	-0.590817
O5	O	1.510240	-0.510632	-0.503479
O6	O	1.743874	-0.445520	-0.567686
O7	O	1.574335	-0.575832	-0.269883
O8	O	1.446133	-0.273686	-0.439326
O9	O	1.743791	-0.575782	-0.439308
O10	O	1.574527	-0.273648	-0.567697
O11	O	1.446023	-0.445608	-0.269891
O12	O	1.276655	-0.445531	-0.439290
O13	O	1.446096	-0.575647	-0.737058
O14	O	1.276639	-0.575697	-0.567633
O15	O	1.574506	-0.445443	-0.737086
O16	O	1.574314	-0.747626	-0.439271
O17	O	1.445986	-0.747568	-0.567623
C18	C	1.238730	-0.510612	-0.503459
C19	C	1.122577	-0.510629	-0.503476
C20	C	1.070812	-0.575140	-0.566886
C21	C	0.950762	-0.575159	-0.566904
C22	C	1.510164	-0.786062	-0.503465
C23	C	1.510227	-0.903892	-0.503493
C24	C	1.429829	-1.071464	-0.584488
C25	C	1.429418	-0.948904	-0.584228
C26	C	1.480414	-0.948494	-0.393362
C27	C	1.479923	-1.071093	-0.393854
C28	C	1.620929	-1.070979	-0.531736
C29	C	1.620251	-0.948372	-0.534144
C30	C	1.782810	-0.510654	-0.503500
C31	C	1.898963	-0.510663	-0.503509
C32	C	1.510311	-0.510531	-0.776050
C33	C	1.510341	-0.510487	-0.892203
C34	C	1.510345	-0.234127	-0.503517
C35	C	1.510390	-0.116297	-0.503533
C36	C	1.573890	-0.446045	-0.944001
C37	C	1.573923	-0.445999	-1.064052
C38	C	1.510229	-0.510657	-0.231969
C39	C	1.510401	-0.510402	-0.115817
H40	H	0.943473	-0.455433	-0.449214
C41	C	1.438001	-0.584146	-0.951620
C42	C	1.497223	-0.652033	-1.014256
C43	C	1.430619	-0.719915	-1.068992
H44	H	1.392510	-0.543663	-0.994288
H45	H	1.398148	-0.624645	-0.903586
H46	H	1.537059	-0.611538	-1.062285
H47	H	1.542712	-0.692539	-0.971615
H48	H	1.390766	-0.760414	-1.020957
H49	H	1.385132	-0.679423	-1.111653
H50	H	1.470792	-0.765990	-1.111489
H51	H	1.628268	-0.390905	-0.899471
H52	H	1.399118	-1.099786	-0.369962
C53	C	1.554761	-1.110444	-0.310588
C54	C	1.600221	-1.023830	-0.260063
C55	C	1.669147	-1.060035	-0.183340
H56	H	1.607704	-1.152087	-0.342110
H57	H	1.517725	-1.152104	-0.261280
H58	H	1.637255	-0.982188	-0.309363
H59	H	1.547303	-0.982179	-0.228519
H60	H	1.632112	-1.101694	-0.134031
H61	H	1.722084	-1.101677	-0.214870
H62	H	1.699993	-1.001273	-0.149042
H63	H	1.537231	-0.919340	-0.331396
H64	H	1.642733	-0.919216	-0.615195
H65	H	1.455996	-0.565580	-1.071278
H66	H	1.348392	-1.102366	-0.566042
C67	C	1.063126	-0.437183	-0.430960
C68	C	1.000449	-0.497204	-0.363930
C69	C	0.945685	-0.429584	-0.297098
H70	H	1.020484	-0.391058	-0.470922
H71	H	1.111143	-0.396732	-0.391113
H72	H	0.952437	-0.537637	-0.403773
H73	H	1.043065	-0.543326	-0.323944
H74	H	0.993702	-0.389133	-0.257251
H75	H	0.903049	-0.383463	-0.337069
H76	H	0.903160	-0.470299	-0.251604
H77	H	1.400452	-0.917885	-0.369038
C78	C	1.130350	-0.648597	-0.639320
C79	C	1.193073	-0.588586	-0.706316
C80	C	1.247942	-0.656221	-0.773048
H81	H	1.082427	-0.689099	-0.679205
H82	H	1.172964	-0.694674	-0.599250
H83	H	1.150462	-0.542527	-0.746382
H84	H	1.241015	-0.548086	-0.666459
H85	H	1.290556	-0.702298	-0.732978
H86	H	1.200011	-0.696720	-0.812926
H87	H	1.290513	-0.615514	-0.818506
C88	C	1.454233	-0.908888	-0.693199
C89	C	1.469744	-0.995097	-0.759867
C90	C	1.492581	-0.958282	-0.860268
H91	H	1.515658	-0.866969	-0.691202
H92	H	1.397761	-0.867366	-0.718088
H93	H	1.526211	-1.036602	-0.734985
H94	H	1.408331	-1.037026	-0.761896
H95	H	1.436109	-0.916760	-0.885157
H96	H	1.554005	-0.916362	-0.858260
H97	H	1.503099	-1.016768	-0.905517
H98	H	1.628332	-0.390832	-1.108597
C99	C	1.320096	-0.910122	-0.559233
C100	C	1.254156	-0.997079	-0.544309
C101	C	1.153442	-0.961395	-0.521261
H102	H	1.294848	-0.868418	-0.615415
H103	H	1.321755	-0.868646	-0.497523
H104	H	1.252494	-1.038537	-0.606012
H105	H	1.279371	-1.038792	-0.488124
H106	H	1.155101	-0.919919	-0.459551
H107	H	1.128204	-0.919690	-0.577447
H108	H	1.108692	-1.020388	-0.511123
H109	H	1.448310	-1.100870	-0.666417
H110	H	1.648124	-1.101818	-0.610678
H111	H	0.906245	-0.630392	-0.621189
C112	C	1.704583	-0.907728	-0.461225
C113	C	1.752696	-0.993378	-0.411530
C114	C	1.830392	-0.955980	-0.344349
H115	H	1.674227	-0.862605	-0.410420
H116	H	1.755020	-0.869394	-0.500177
H117	H	1.702268	-1.031695	-0.372580
H118	H	1.783074	-1.038509	-0.462309
H119	H	1.880829	-0.917647	-0.383301
H120	H	1.800027	-0.910857	-0.293550
H121	H	1.863053	-1.014088	-0.310630
H122	H	1.680949	-1.099972	-0.472773
