data_functionalizedCrystal
_audit_creation_method	'MofGen! by Chris Wilmer'
_symmetry_space_group_name_H-M	'P1'
_symmetry_Int_Tables_number	1
_symmetry_cell_setting	triclinic
loop_
_symmetry_equiv_pos_as_xyz
  x,y,z
_cell_length_a	18.215407
_cell_length_b	19.805405
_cell_length_c	18.215399
_cell_angle_alpha	90.030610
_cell_angle_beta	90.019833
_cell_angle_gamma	90.026858
loop_
_atom_site_label
_atom_site_type_symbol
_atom_site_fract_x
_atom_site_fract_y
_atom_site_fract_z
Zn1	Zn	1.125064	-0.269462	0.416102
Zn2	Zn	1.458397	0.063871	0.749436
Zn3	Zn	1.791731	0.397205	1.082769
Zn4	Zn	1.124969	-0.382653	0.293030
Zn5	Zn	1.458303	-0.049320	0.626364
Zn6	Zn	1.791636	0.284014	0.959697
Zn7	Zn	1.001997	-0.269484	0.293050
Zn8	Zn	1.335330	0.063849	0.626383
Zn9	Zn	1.668663	0.397182	0.959716
Zn10	Zn	1.001959	-0.382615	0.416055
Zn11	Zn	1.335293	-0.049282	0.749388
Zn12	Zn	1.668626	0.284051	1.082722
O13	O	1.063497	-0.326054	0.354559
O14	O	1.396831	0.007280	0.687893
O15	O	1.730164	0.340613	1.021226
O16	O	1.228036	-0.284484	0.399788
O17	O	1.561369	0.048850	0.733121
O18	O	1.894702	0.382183	1.066455
O19	O	1.108633	-0.367666	0.190049
O20	O	1.441966	-0.034333	0.523382
O21	O	1.775299	0.299001	0.856715
O22	O	1.018377	-0.174765	0.309401
O23	O	1.351711	0.158569	0.642734
O24	O	1.685044	0.491902	0.976067
O25	O	1.227966	-0.367644	0.309368
O26	O	1.561299	-0.034311	0.642701
O27	O	1.894633	0.299022	0.976034
O28	O	1.108794	-0.174748	0.399807
O29	O	1.442128	0.158585	0.733140
O30	O	1.775461	0.491918	1.066474
O31	O	1.018285	-0.284521	0.190063
O32	O	1.351619	0.048812	0.523396
O33	O	1.684952	0.382145	0.856729
O34	O	0.899008	-0.284485	0.309355
O35	O	1.232341	0.048849	0.642688
O36	O	1.565674	0.382182	0.976022
O37	O	1.018313	-0.367580	0.519046
O38	O	1.351647	-0.034247	0.852379
O39	O	1.684980	0.299086	1.185712
O40	O	0.898980	-0.367602	0.399727
O41	O	1.232313	-0.034268	0.733060
O42	O	1.565647	0.299065	1.066393
O43	O	1.108758	-0.284447	0.519080
O44	O	1.442091	0.048886	0.852414
O45	O	1.775425	0.382220	1.185747
O46	O	1.108596	-0.477365	0.309322
O47	O	1.441930	-0.144031	0.642655
O48	O	1.775263	0.189302	0.975989
O49	O	1.018221	-0.477337	0.399708
O50	O	1.351555	-0.144004	0.733041
O51	O	1.684888	0.189330	1.066374
C52	C	0.872291	-0.326042	0.354538
C53	C	1.205624	0.007291	0.687872
C54	C	1.538958	0.340625	1.021205
C55	C	0.790492	-0.326053	0.354547
C56	C	1.123826	0.007280	0.687880
C57	C	1.457159	0.340613	1.021213
C58	C	1.063415	-0.501910	0.354524
C59	C	1.396748	-0.168576	0.687857
C60	C	1.730081	0.164757	1.021190
C61	C	1.063446	-0.577142	0.354533
C62	C	1.396780	-0.243808	0.687866
C63	C	1.730113	0.089525	1.021200
C64	C	0.602303	-0.369400	0.401544
C65	C	0.935637	-0.036067	0.734877
C66	C	1.268970	0.297266	1.068211
C67	C	0.525444	-0.369403	0.401553
C68	C	0.858778	-0.036069	0.734887
C69	C	1.192111	0.297264	1.068220
C70	C	0.525444	-0.282719	0.307591
C71	C	0.858777	0.050614	0.640924
C72	C	1.192110	0.383948	0.974257
C73	C	0.602301	-0.282714	0.307586
C74	C	0.935634	0.050619	0.640919
C75	C	1.268968	0.383953	0.974252
C76	C	0.640729	-0.326059	0.354561
C77	C	0.974062	0.007275	0.687895
C78	C	1.307395	0.340608	1.021228
C79	C	0.487013	-0.326066	0.354575
C80	C	0.820346	0.007268	0.687909
C81	C	1.153679	0.340601	1.021242
C82	C	0.403679	-0.326068	0.354585
C83	C	0.737012	0.007266	0.687918
C84	C	1.070346	0.340599	1.021252
C85	C	0.724068	-0.326056	0.354553
C86	C	1.057401	0.007277	0.687886
C87	C	1.390734	0.340611	1.021220
C88	C	1.110550	-0.612478	0.307518
C89	C	1.443884	-0.279144	0.640852
C90	C	1.777217	0.054189	0.974185
C91	C	1.110582	-0.683166	0.307535
C92	C	1.443915	-0.349833	0.640868
C93	C	1.777248	-0.016500	0.974201
C94	C	1.063505	-0.718517	0.354562
C95	C	1.396838	-0.385184	0.687896
C96	C	1.730171	-0.051851	1.021229
C97	C	1.016399	-0.683176	0.401582
C98	C	1.349732	-0.349843	0.734916
C99	C	1.683065	-0.016510	1.068249
C100	C	1.016372	-0.612489	0.401569
C101	C	1.349705	-0.279156	0.734903
C102	C	1.683038	0.054178	1.068236
C103	C	1.016507	-0.968249	0.401637
C104	C	1.349841	-0.634916	0.734970
C105	C	1.683174	-0.301583	1.068303
C106	C	1.016536	-1.038941	0.401645
C107	C	1.349870	-0.705608	0.734978
C108	C	1.683203	-0.372275	1.068311
C109	C	1.110717	-1.038927	0.307602
C110	C	1.444050	-0.705593	0.640936
C111	C	1.777384	-0.372260	0.974269
C112	C	1.110690	-0.968239	0.307589
C113	C	1.444023	-0.634906	0.640923
C114	C	1.777357	-0.301573	0.974256
C115	C	1.063587	-0.932905	0.354611
C116	C	1.396921	-0.599571	0.687945
C117	C	1.730254	-0.266238	1.021278
C118	C	1.063555	-0.856256	0.354594
C119	C	1.396888	-0.522923	0.687928
C120	C	1.730222	-0.189589	1.021261
C121	C	1.063533	-0.795164	0.354577
C122	C	1.396866	-0.461831	0.687910
C123	C	1.730199	-0.128498	1.021243
C124	C	1.255450	-0.326066	0.354581
C125	C	1.588784	0.007268	0.687914
C126	C	1.922117	0.340601	1.021248
C127	C	1.337249	-0.326071	0.354590
C128	C	1.670582	0.007262	0.687923
C129	C	2.003916	0.340596	1.021257
C130	C	1.063542	-0.326007	0.546512
C131	C	1.396876	0.007326	0.879846
C132	C	1.730209	0.340660	1.213179
C133	C	1.063561	-0.325987	0.628311
C134	C	1.396895	0.007346	0.961645
C135	C	1.730228	0.340680	1.294978
C136	C	1.063601	-0.149511	0.354611
C137	C	1.396934	0.183822	0.687945
C138	C	1.730267	0.517156	1.021278
C139	C	1.063645	-0.074279	0.354633
C140	C	1.396978	0.259054	0.687967
C141	C	1.730311	0.592388	1.021300
C142	C	1.063495	-0.326051	0.163353
C143	C	1.396828	0.007282	0.496686
C144	C	1.730162	0.340615	0.830020
C145	C	1.063619	-0.325880	0.081555
C146	C	1.396952	0.007453	0.414888
C147	C	1.730285	0.340786	0.748221
C148	C	1.110673	-0.282659	0.816524
C149	C	1.444006	0.050674	1.149858
C150	C	1.777339	0.384008	1.483191
C151	C	1.110682	-0.282639	0.893383
C152	C	1.444015	0.050694	1.226717
C153	C	1.777348	0.384027	1.560050
C154	C	1.016502	-0.369210	0.893336
C155	C	1.349835	-0.035877	1.226669
C156	C	1.683169	0.297456	1.560003
C157	C	1.016490	-0.369226	0.816479
C158	C	1.349823	-0.035893	1.149812
C159	C	1.683157	0.297440	1.483145
C160	C	1.063580	-0.325952	0.778075
C161	C	1.396913	0.007382	1.111408
C162	C	1.730246	0.340715	1.444742
C163	C	1.063600	-0.325916	0.931791
C164	C	1.396934	0.007417	1.265124
C165	C	1.730267	0.340751	1.598458
C166	C	1.063609	-0.325895	1.015125
C167	C	1.396943	0.007438	1.348458
C168	C	1.730276	0.340772	1.681791
C169	C	1.063570	-0.325972	0.694736
C170	C	1.396903	0.007362	1.028069
C171	C	1.730236	0.340695	1.361402
H172	H	0.633589	-0.404693	0.439797
H173	H	0.966922	-0.071359	0.773130
H174	H	1.300256	0.261974	1.106463
O175	O	0.965622	-0.721299	0.452309
O176	O	1.298955	-0.387966	0.785643
O177	O	1.632288	-0.054632	1.118976
H178	H	0.907867	-0.707774	0.439634
H179	H	1.241200	-0.374441	0.772967
H180	H	1.574534	-0.041108	1.106301
O181	O	1.161545	-1.077036	0.256903
O182	O	1.494878	-0.743703	0.590236
O183	O	1.828212	-0.410370	0.923570
H184	H	1.153670	-1.132129	0.264821
H185	H	1.487003	-0.798795	0.598154
H186	H	1.820336	-0.465462	0.931487
O187	O	0.483997	-0.416225	0.452145
O188	O	0.817330	-0.082891	0.785478
O189	O	1.150663	0.250442	1.118812
H190	H	0.523633	-0.446391	0.484774
H191	H	0.856966	-0.113058	0.818107
H192	H	1.190300	0.220275	1.151441
H193	H	0.978016	-0.583719	0.439854
H194	H	1.311349	-0.250386	0.773188
H195	H	1.644683	0.082948	1.106521
H196	H	1.149028	-0.247385	0.924686
H197	H	1.482362	0.085948	1.258019
H198	H	1.815695	0.419281	1.591352
H199	H	1.149014	-0.247420	0.785258
H200	H	1.482347	0.085913	1.118592
H201	H	1.815681	0.419246	1.451925
O202	O	0.484004	-0.235973	0.256916
O203	O	0.817337	0.097360	0.590249
O204	O	1.150671	0.430693	0.923583
H205	H	0.498742	-0.247517	0.199138
H206	H	0.832075	0.085816	0.532471
H207	H	1.165409	0.419150	0.865805
O208	O	0.965715	-0.415885	0.934756
O209	O	1.299048	-0.082552	1.268089
O210	O	1.632381	0.250781	1.601423
H211	H	0.973637	-0.408606	0.994660
H212	H	1.306971	-0.075272	1.327993
H213	H	1.640304	0.258061	1.661326
O214	O	0.965673	-0.415902	0.774999
O215	O	1.299007	-0.082569	1.108332
O216	O	1.632340	0.250764	1.441666
H217	H	0.932931	-0.445991	0.814614
H218	H	1.266264	-0.112658	1.147948
H219	H	1.599597	0.220676	1.481281
O220	O	0.965684	-0.930141	0.452328
O221	O	1.299017	-0.596808	0.785661
O222	O	1.632350	-0.263475	1.118995
H223	H	0.932942	-0.966601	0.485017
H224	H	1.266275	-0.633268	0.818350
H225	H	1.599608	-0.299934	1.151684
O226	O	0.643754	-0.235975	0.256898
O227	O	0.977088	0.097358	0.590232
O228	O	1.310421	0.430692	0.923565
H229	H	0.604122	-0.205846	0.224222
H230	H	0.937456	0.127487	0.557556
H231	H	1.270789	0.460820	0.890889
O232	O	1.161330	-0.574350	0.256798
O233	O	1.494663	-0.241016	0.590132
O234	O	1.827996	0.092317	0.923465
H235	H	1.194095	-0.610800	0.224115
H236	H	1.527428	-0.277466	0.557449
H237	H	1.860761	0.055867	0.890782
O238	O	1.161385	-0.721280	0.256824
O239	O	1.494718	-0.387947	0.590158
O240	O	1.828051	-0.054614	0.923491
H241	H	1.148780	-0.707765	0.199052
H242	H	1.482114	-0.374432	0.532385
H243	H	1.815447	-0.041098	0.865719
O244	O	1.161472	-0.930110	0.256874
O245	O	1.494806	-0.596776	0.590207
O246	O	1.828139	-0.263443	0.923540
H247	H	1.148900	-0.943723	0.199103
H248	H	1.482233	-0.610390	0.532437
H249	H	1.815567	-0.277056	0.865770
O250	O	0.965764	-1.077075	0.452375
O251	O	1.299098	-0.743741	0.785708
O252	O	1.632431	-0.410408	1.119042
H253	H	0.933011	-1.040629	0.485077
H254	H	1.266345	-0.707296	0.818410
H255	H	1.599678	-0.373963	1.151743
