data_functionalizedCrystal
_audit_creation_method	'MofGen! by Chris Wilmer'
_symmetry_space_group_name_H-M	'P1'
_symmetry_Int_Tables_number	1
_symmetry_cell_setting	triclinic
loop_
_symmetry_equiv_pos_as_xyz
  x,y,z
_cell_length_a	12.811457
_cell_length_b	12.837942
_cell_length_c	16.053802
_cell_angle_alpha	92.838962
_cell_angle_beta	92.831403
_cell_angle_gamma	89.411937
loop_
_atom_site_label
_atom_site_type_symbol
_atom_site_fract_x
_atom_site_fract_y
_atom_site_fract_z
O1	O	1.404505	0.141985	0.036916
O2	O	1.101762	0.155741	0.013991
O3	O	1.246420	-0.002100	0.024950
O4	O	1.259846	0.299826	0.025957
O5	O	1.238454	0.006551	0.163206
O6	O	1.093796	0.164393	0.152247
O7	O	1.396539	0.150637	0.175171
Zn8	Zn	1.243902	0.158888	0.185660
Zn9	Zn	1.254398	0.147489	0.003502
O10	O	1.251880	0.308478	0.164212
C11	C	1.058760	0.159031	0.080164
C12	C	0.942495	0.155932	0.071361
C13	C	0.715334	0.159522	0.205560
C14	C	0.606093	0.156610	0.197293
C15	C	0.614769	0.147189	0.046558
C16	C	0.724010	0.150101	0.054826
C17	C	0.774289	0.156269	0.134330
C18	C	0.883532	0.159188	0.142597
C19	C	0.892206	0.149759	-0.008137
C20	C	0.782965	0.146847	-0.016405
C21	C	1.237901	-0.036436	0.093734
C22	C	1.224375	-0.151636	0.092708
C23	C	1.386995	-0.391121	0.105005
C24	C	1.374290	-0.499362	0.104042
C25	C	1.186261	-0.476362	0.089812
C26	C	1.198966	-0.368121	0.090776
C27	C	1.299336	-0.325505	0.098374
C28	C	1.312040	-0.217261	0.099343
C29	C	1.124012	-0.194263	0.085108
C30	C	1.111307	-0.302504	0.084144
C31	C	1.439541	0.147347	0.108996
C32	C	1.555806	0.150445	0.117794
C33	C	1.260399	0.342814	0.095426
C34	C	1.273926	0.458013	0.096447
N35	N	1.236747	0.166668	0.309978
N36	N	1.261561	0.139702	-0.120815
C37	C	1.298327	0.099530	0.358337
C38	C	1.293332	0.104982	0.445366
C39	C	1.226763	0.177576	0.484034
C40	C	1.165176	0.244717	0.435668
C41	C	1.170166	0.239259	0.348641
C42	C	1.204964	0.201385	0.743792
C43	C	1.199981	0.206839	0.830826
C44	C	1.328136	0.067102	0.840517
C45	C	1.333125	0.061656	0.753488
C46	C	1.271534	0.128792	0.705130
N47	N	1.221658	0.183153	0.572991
N48	N	1.276634	0.123210	0.616174
H49	H	0.742013	0.141820	-0.081134
C50	C	1.027581	-0.122075	0.077813
N51	N	0.954951	-0.067702	0.072321
H52	H	1.445672	-0.552785	0.109439
C53	C	0.957066	0.146181	-0.086496
N54	N	1.005919	0.143489	-0.145514
H55	H	1.343474	0.050313	0.484739
C56	C	1.422448	-0.170385	0.107698
N57	N	1.505611	-0.135082	0.113987
H58	H	1.468720	-0.356422	0.111200
H59	H	0.558095	0.159265	0.255296
C60	C	1.000905	-0.349394	0.075797
N61	N	0.917747	-0.384710	0.069515
H62	H	1.352539	0.040420	0.326860
H63	H	1.387331	0.002544	0.722007
H64	H	1.104545	-0.511080	0.083618
C65	C	1.395872	-0.006751	0.893717
N66	N	1.446889	-0.062384	0.933788
C67	C	1.126743	0.286699	0.873358
N68	N	1.071584	0.346847	0.905394
H69	H	1.154816	0.256052	0.704425
C70	C	0.770643	0.166314	0.293014
N71	N	0.812300	0.171428	0.358886
H72	H	1.120020	0.293928	0.309267
C73	C	1.091938	0.324562	0.478205
N74	N	1.036774	0.384703	0.510243
H75	H	0.924467	0.164217	0.207333
H76	H	0.573813	0.142149	-0.018170
