data_functionalizedCrystal
_audit_creation_method	'MofGen! by Chris Wilmer'
_symmetry_space_group_name_H-M	'P1'
_symmetry_Int_Tables_number	1
_symmetry_cell_setting	triclinic
loop_
_symmetry_equiv_pos_as_xyz
  x,y,z
_cell_length_a	15.944557
_cell_length_b	15.021413
_cell_length_c	15.538191
_cell_angle_alpha	89.994034
_cell_angle_beta	65.386731
_cell_angle_gamma	90.006236
loop_
_atom_site_label
_atom_site_type_symbol
_atom_site_fract_x
_atom_site_fract_y
_atom_site_fract_z
O1	O	-1.077476	-0.073986	-0.121504
O2	O	-0.828361	-0.073995	-0.136476
O3	O	-1.001411	-0.073993	0.008135
O4	O	-0.904426	-0.073988	-0.266115
O5	O	-1.001381	0.074071	0.008112
O6	O	-0.828332	0.074069	-0.136499
O7	O	-1.077446	0.074078	-0.121527
Zn8	Zn	-0.952884	0.097582	-0.129017
Zn9	Zn	-0.952923	-0.097499	-0.128986
O10	O	-0.904397	0.074076	-0.266139
C11	C	-0.797243	0.000035	-0.135865
C12	C	-0.704566	0.000031	-0.133999
N13	N	-0.952864	0.230719	-0.129038
C14	C	-0.462970	0.000044	-0.038781
C15	C	-0.499540	0.073049	-0.084694
C16	C	-0.370954	0.000052	-0.127342
C17	C	-0.499542	-0.072930	-0.084695
C18	C	-0.534871	0.000041	-0.130608
C19	C	-0.406303	0.073118	-0.173232
C20	C	-0.406306	-0.072927	-0.173220
C21	C	-0.442823	0.000096	-0.219198
C22	C	-0.276527	0.000060	-0.125458
C23	C	-0.629293	0.000039	-0.132499
C24	C	-0.872841	0.470402	-0.195879
C25	C	-0.943163	0.529739	-0.214169
C26	C	-0.952889	0.412326	-0.129017
C27	C	-0.882578	0.529730	-0.110751
C28	C	-0.952905	0.587750	-0.129000
C29	C	-1.023236	0.470358	-0.147350
C30	C	-0.962612	0.470343	-0.043895
C31	C	-1.032999	0.529654	-0.062149
C32	C	-0.952877	0.311269	-0.129030
C33	C	-0.952926	0.688806	-0.128987
C34	C	-0.108570	0.000050	-0.122126
C35	C	-0.201263	0.000061	-0.123954
C36	C	-1.011543	0.000036	0.043218
C37	C	-1.041768	0.000029	0.147789
N38	N	-0.952933	0.769363	-0.128977
C39	C	-0.894264	0.000044	-0.301222
C40	C	-0.864040	0.000046	-0.405793
C41	C	-0.741491	0.000036	0.435606
C42	C	-0.769913	0.000040	0.533869
C43	C	-0.929781	0.000045	0.556298
C44	C	-0.901372	0.000038	0.458035
C45	C	-0.807226	0.000034	0.397696
C46	C	-0.967107	0.000036	0.420125
C47	C	-0.938701	0.000033	0.321870
C48	C	-0.844559	0.000032	0.261525
C49	C	-0.778820	0.000032	0.299441
C50	C	-1.061253	0.000045	0.480465
C51	C	-1.126988	0.000043	0.442555
C52	C	-1.098582	0.000034	0.344299
C53	C	-1.004440	0.000033	0.283954
C54	C	-1.164321	0.000035	0.306383
C55	C	-1.135914	0.000032	0.208128
C56	C	-0.976033	0.000031	0.185699
H57	H	-0.470575	0.000114	0.037493
F58	F	-0.552243	0.153722	-0.035823
H59	H	-0.823110	0.555812	-0.095309
H60	H	-0.539881	-0.134648	-0.047269
F61	F	-0.784413	0.436392	-0.269839
H62	H	-1.006435	0.000051	0.605439
F63	F	-0.875831	0.000018	0.121476
H64	H	-0.366084	0.134906	-0.210615
F65	F	-0.432646	0.000148	-0.318970
H66	H	-0.934957	0.555828	-0.286148
F67	F	-0.353590	-0.153602	-0.222051
F68	F	-1.100951	0.436416	-0.167644
F69	F	-1.121560	0.563451	0.011769
F70	F	-0.814325	0.000037	0.156952
H71	H	-0.970787	0.444233	0.028060
F72	F	-0.678618	0.000019	0.235219
H73	H	-0.664828	0.000027	0.386474
F74	F	-1.264514	0.000053	0.370611
F75	F	-0.699941	0.000047	0.574211
F76	F	-1.091484	0.000054	0.585038
H77	H	-1.203642	0.000049	0.491696
H78	H	-1.189442	0.000031	0.177261
