data_functionalizedCrystal
_audit_creation_method	'MofGen! by Chris Wilmer'
_symmetry_space_group_name_H-M	'P1'
_symmetry_Int_Tables_number	1
_symmetry_cell_setting	triclinic
loop_
_symmetry_equiv_pos_as_xyz
  x,y,z
_cell_length_a	14.809374
_cell_length_b	14.809374
_cell_length_c	23.196401
_cell_angle_alpha	65.416661
_cell_angle_beta	90.013004
_cell_angle_gamma	57.530506
loop_
_atom_site_label
_atom_site_type_symbol
_atom_site_fract_x
_atom_site_fract_y
_atom_site_fract_z
Zr1	Zr	1.106517	0.651442	0.066797
O2	O	0.975889	0.841336	-0.015565
O3	O	1.126972	0.482753	0.079694
O4	O	1.155173	0.642079	-0.022766
O5	O	0.947727	0.682001	0.181769
O6	O	1.318879	0.610572	-0.014396
O7	O	0.947688	0.682010	0.086895
O8	O	1.268433	0.325566	0.168887
O9	O	0.998173	0.967006	-0.001515
O10	O	1.281536	0.520770	0.106364
O11	O	1.159393	0.544276	0.170920
O12	O	1.192596	0.731862	0.050286
O13	O	1.070452	0.755369	0.114843
Zr14	Zr	1.367672	0.601176	0.231459
Zr15	Zr	1.367610	0.601191	0.080147
Zr16	Zr	1.106579	0.651427	0.218109
Zr17	Zr	1.142058	0.851871	0.089206
Zr18	Zr	1.332131	0.400747	0.209050
O19	O	1.347218	0.769865	0.218562
O20	O	1.347130	0.769886	0.003416
O21	O	0.975977	0.841315	0.199581
O22	O	1.498301	0.411281	0.313821
O23	O	1.498213	0.411303	0.098675
O24	O	1.127060	0.482732	0.294840
O25	O	1.526463	0.570617	0.116487
O26	O	1.319017	0.610538	0.321022
O27	O	1.155310	0.642046	0.312652
O28	O	1.526502	0.570608	0.211361
O29	O	1.205707	0.927064	0.009096
O30	O	1.268482	0.325554	0.289160
O31	O	1.476016	0.285612	0.299771
O32	O	1.475967	0.285624	0.179498
O33	O	0.998222	0.966994	0.118758
O34	O	1.205757	0.927052	0.129369
O35	O	1.281594	0.520755	0.247970
O36	O	1.403737	0.497249	0.183413
O37	O	1.314797	0.708342	0.127336
O38	O	1.192654	0.731848	0.191892
C39	C	1.192639	0.375603	0.121098
C40	C	1.177550	0.290516	0.111585
C41	C	1.244887	0.170285	0.154041
C42	C	1.229294	0.082341	0.144209
C43	C	0.910507	0.689165	0.132430
C44	C	0.799666	0.710498	0.126763
C45	C	0.794370	0.615292	0.152055
C46	C	0.679811	0.637338	0.146198
C47	C	1.563682	0.563453	0.165826
C48	C	1.674523	0.542120	0.171493
C49	C	1.237017	0.626328	-0.040140
C50	C	1.236991	0.626334	-0.104376
C51	C	1.281551	0.877015	0.177158
C52	C	1.296639	0.962102	0.186671
C53	C	1.190571	0.736518	-0.163821
C54	C	1.190602	0.736514	-0.224174
C55	C	1.237036	0.626323	-0.225080
C56	C	1.283468	0.516123	-0.165624
C57	C	1.283446	0.516129	-0.105271
C58	C	1.214675	0.553052	-0.301247
C59	C	1.214689	0.553052	-0.361600
C60	C	1.237112	0.626300	-0.411225
C61	C	1.259498	0.699571	-0.400496
C62	C	1.259475	0.699576	-0.340144
C63	C	1.237066	0.626304	-0.290519
C64	C	1.190723	0.736486	-0.536114
C65	C	1.190762	0.736476	-0.596467
C66	C	1.283620	0.516084	-0.537915
C67	C	1.283589	0.516096	-0.477563
C68	C	1.237135	0.626301	-0.476667
C69	C	1.237172	0.626290	0.338396
C70	C	1.237199	0.626284	0.402632
C71	C	1.519226	0.312747	0.137796
C72	C	1.614979	0.206327	0.133950
C73	C	1.192716	0.375584	0.310366
C74	C	1.177654	0.290490	0.365088
C75	C	1.519304	0.312728	0.327064
C76	C	1.615083	0.206301	0.387454
C77	C	0.954886	0.939890	-0.028808
C78	C	0.859107	1.046317	-0.089198
C79	C	0.954963	0.939871	0.160460
C80	C	0.859211	1.046291	0.164306
C81	C	1.281474	0.877034	-0.012110
C82	C	1.296535	0.962128	-0.066832
C83	C	1.234369	0.238252	0.431012
C84	C	1.220214	0.158309	0.482437
C85	C	1.149350	0.130600	0.467936
C86	C	1.092629	0.182848	0.402006
C87	C	1.106778	0.262796	0.350583
C88	C	1.723830	0.144050	0.382116
C89	C	1.813837	0.044060	0.438855
C90	C	1.795093	0.006318	0.500929
C91	C	1.686334	0.068580	0.506266
C92	C	1.596331	0.168573	0.449529
C93	C	0.750361	1.108578	-0.083859
C94	C	0.660359	1.208592	-0.140595
C95	C	0.679104	1.246338	-0.202669
C96	C	0.787861	1.184072	-0.208006
C97	C	0.877862	1.084065	-0.151270
C98	C	1.367407	0.989809	-0.052311
C99	C	1.381581	1.069749	-0.103723
C100	C	1.324876	1.122012	-0.169656
C101	C	1.254001	1.094323	-0.184176
C102	C	1.239834	1.014378	-0.132765
C103	C	1.647690	0.087102	0.176671
C104	C	1.737647	-0.012900	0.173058
C105	C	1.794898	0.006324	0.126726
C106	C	1.762180	0.125562	0.084000
C107	C	1.672219	0.225562	0.087611
C108	C	0.801987	1.027027	0.210645
C109	C	0.712025	1.127007	0.214273
C110	C	0.679284	1.246251	0.171557
C111	C	0.736517	1.265513	0.125216
C112	C	0.826482	1.165533	0.121592
H113	H	1.365832	-0.075734	0.230304
H114	H	1.645598	0.322637	0.052822
C115	C	1.084072	0.341625	0.052645
N116	N	1.013662	0.380124	0.008250
C117	C	1.338370	0.119175	0.212978
N118	N	1.408787	0.080674	0.257369
C119	C	0.837989	0.895865	0.257643
N120	N	0.865105	0.797074	0.293049
H121	H	1.160094	0.120177	0.100581
C122	C	1.429802	0.932325	0.020211
N123	N	1.476808	0.889026	0.074834
H124	H	0.874647	0.517462	0.178047
H125	H	0.599535	0.735176	0.120208
H126	H	0.665435	1.111300	0.252008
C127	C	0.782969	0.409944	0.206607
N128	N	0.864651	0.310390	0.233054
H129	H	1.152898	0.826222	-0.535385
C130	C	0.580210	1.356240	0.175484
N131	N	0.505547	1.439087	0.178420
H132	H	0.719389	0.808328	0.100775
C133	C	1.476709	0.237038	0.455411
N134	N	1.386610	0.288603	0.459846
C135	C	0.580086	1.356344	-0.265075
N136	N	0.505501	1.439196	-0.312078
H137	H	0.735076	1.077854	-0.033321
C138	C	1.334642	0.394885	-0.412170
N139	N	1.373098	0.303584	-0.362915
H140	H	1.292073	0.260802	0.442832
H141	H	0.571812	1.259275	-0.136237
H142	H	1.152966	0.826204	-0.644871
H143	H	1.152749	0.826255	-0.163097
H144	H	1.152798	0.826242	-0.272584
H145	H	1.277706	0.759233	-0.331410
H146	H	1.277751	0.759221	-0.440902
C147	C	1.340471	1.209954	-0.226202
N148	N	1.352219	1.276194	-0.268790
H149	H	1.868389	-0.075105	0.547123
H150	H	1.321429	0.426364	-0.538651
H151	H	0.803111	1.214818	-0.258554
H152	H	1.764273	-0.109980	0.207853
C153	C	1.459543	1.100197	-0.087735
N154	N	1.518262	1.123129	-0.075692
C155	C	1.190058	0.472458	-0.373397
N156	N	1.171505	0.411753	-0.382281
C157	C	0.997480	1.015574	-0.157155
N158	N	1.087575	0.963989	-0.161593
C159	C	1.893861	-0.103694	0.122766
N160	N	1.968402	-0.186565	0.119788
C161	C	1.190004	0.472471	-0.246664
N162	N	1.171421	0.411781	-0.205553
C163	C	1.334542	0.394913	-0.166621
N164	N	1.373014	0.303614	-0.167371
H165	H	1.601086	0.071426	0.214401
H166	H	1.060596	0.305318	0.296906
C167	C	1.334506	0.394914	-0.039878
N168	N	1.372961	0.303613	0.009378
H169	H	1.182119	0.991851	-0.144598
C170	C	1.133809	0.042640	0.524510
N171	N	1.122113	-0.023619	0.567124
H172	H	0.709846	1.362615	0.090440
H173	H	1.207836	1.136888	-0.237865
C174	C	1.282630	0.100837	0.554955
N175	N	1.329645	0.057547	0.609574
H176	H	1.808806	0.141197	0.046277
H177	H	1.034931	0.160275	0.390208
C178	C	1.744477	0.185551	0.313840
N179	N	1.760039	0.216809	0.262416
C180	C	0.889406	1.186748	0.070604
N181	N	0.936794	1.202737	0.032196
H182	H	1.671089	0.037835	0.556815
C183	C	1.933460	-0.024420	0.432969
N184	N	2.023557	-0.076000	0.428533
