data_functionalizedCrystal
_audit_creation_method	'MofGen! by Chris Wilmer'
_symmetry_space_group_name_H-M	'P1'
_symmetry_Int_Tables_number	1
_symmetry_cell_setting	triclinic
loop_
_symmetry_equiv_pos_as_xyz
  x,y,z
_cell_length_a	17.077404
_cell_length_b	17.077402
_cell_length_c	17.077396
_cell_angle_alpha	90.029784
_cell_angle_beta	90.019501
_cell_angle_gamma	90.023108
loop_
_atom_site_label
_atom_site_type_symbol
_atom_site_fract_x
_atom_site_fract_y
_atom_site_fract_z
Zn1	Zn	-1.200055	0.312503	-0.443836
Zn2	Zn	-0.950055	0.562503	-0.193836
Zn3	Zn	-0.700055	0.812503	0.056164
Zn4	Zn	-0.450055	1.062503	0.306164
Zn5	Zn	-1.199962	0.443778	-0.312567
Zn6	Zn	-0.949962	0.693778	-0.062567
Zn7	Zn	-0.699962	0.943778	0.187433
Zn8	Zn	-0.449962	1.193778	0.437433
Zn9	Zn	-1.068786	0.312531	-0.312584
Zn10	Zn	-0.818786	0.562531	-0.062584
Zn11	Zn	-0.568786	0.812531	0.187416
Zn12	Zn	-0.318786	1.062531	0.437416
Zn13	Zn	-1.068754	0.443732	-0.443790
Zn14	Zn	-0.818754	0.693732	-0.193790
Zn15	Zn	-0.568754	0.943732	0.056210
Zn16	Zn	-0.318754	1.193732	0.306210
O17	O	-1.134389	0.378136	-0.378194
O18	O	-0.884389	0.628136	-0.128194
O19	O	-0.634389	0.878136	0.121806
O20	O	-0.384389	1.128136	0.371806
O21	O	-1.309889	0.329925	-0.426434
O22	O	-1.059889	0.579925	-0.176434
O23	O	-0.809889	0.829925	0.073566
O24	O	-0.559889	1.079925	0.323566
O25	O	-1.182536	0.426399	-0.202722
O26	O	-0.932536	0.676399	0.047278
O27	O	-0.682536	0.926399	0.297278
O28	O	-0.432536	1.176399	0.547278
O29	O	-1.086252	0.202680	-0.330021
O30	O	-0.836252	0.452680	-0.080021
O31	O	-0.586252	0.702680	0.169979
O32	O	-0.336252	0.952680	0.419979
O33	O	-1.309821	0.426372	-0.329992
O34	O	-1.059821	0.676372	-0.079992
O35	O	-0.809821	0.926372	0.170008
O36	O	-0.559821	1.176372	0.420008
O37	O	-1.182694	0.202660	-0.426451
O38	O	-0.932694	0.452660	-0.176451
O39	O	-0.682694	0.702660	0.073549
O40	O	-0.432694	0.952660	0.323549
O41	O	-1.086162	0.329972	-0.202734
O42	O	-0.836162	0.579972	0.047266
O43	O	-0.586162	0.829972	0.297266
O44	O	-0.336162	1.079972	0.547266
O45	O	-0.958935	0.329927	-0.329976
O46	O	-0.708935	0.579927	-0.079976
O47	O	-0.458935	0.829927	0.170024
O48	O	-0.208935	1.079927	0.420024
O49	O	-1.086197	0.426293	-0.553643
O50	O	-0.836197	0.676293	-0.303643
O51	O	-0.586197	0.926293	-0.053643
O52	O	-0.336197	1.176293	0.196357
O53	O	-0.958912	0.426320	-0.426373
O54	O	-0.708912	0.676320	-0.176373
O55	O	-0.458912	0.926320	0.073627
O56	O	-0.208912	1.176320	0.323627
O57	O	-1.182663	0.329880	-0.553677
O58	O	-0.932663	0.579880	-0.303677
O59	O	-0.682663	0.829880	-0.053677
O60	O	-0.432663	1.079880	0.196323
O61	O	-1.182505	0.553619	-0.329948
O62	O	-0.932505	0.803619	-0.079948
O63	O	-0.682505	1.053619	0.170052
O64	O	-0.432505	1.303619	0.420052
O65	O	-1.086107	0.553585	-0.426357
O66	O	-0.836107	0.803585	-0.176357
O67	O	-0.586107	1.053585	0.073643
O68	O	-0.336107	1.303585	0.323643
C69	C	-0.930441	0.378122	-0.378172
C70	C	-0.680441	0.628122	-0.128172
C71	C	-0.430441	0.878122	0.121828
C72	C	-0.180441	1.128122	0.371828
C73	C	-0.843192	0.378135	-0.378182
C74	C	-0.593192	0.628135	-0.128182
C75	C	-0.343192	0.878135	0.121818
C76	C	-0.093192	1.128135	0.371818
C77	C	-1.134314	0.582084	-0.378163
C78	C	-0.884314	0.832084	-0.128163
C79	C	-0.634314	1.082084	0.121837
C80	C	-0.384314	1.332084	0.371837
C81	C	-1.134353	0.669334	-0.378176
C82	C	-0.884353	0.919334	-0.128176
C83	C	-0.634353	1.169334	0.121824
C84	C	-0.384353	1.419334	0.371824
C85	C	-1.134437	0.378078	-0.582938
C86	C	-0.884437	0.628078	-0.332938
C87	C	-0.634437	0.878078	-0.082938
C88	C	-0.384437	1.128078	0.167062
C89	C	-1.134457	0.378054	-0.670188
C90	C	-0.884457	0.628054	-0.420188
C91	C	-0.634457	0.878054	-0.170188
C92	C	-0.384457	1.128054	0.079812
C93	C	-1.339134	0.378151	-0.378216
C94	C	-1.089134	0.628151	-0.128216
C95	C	-0.839134	0.878151	0.121784
C96	C	-0.589134	1.128151	0.371784
C97	C	-1.426383	0.378157	-0.378226
C98	C	-1.176383	0.628157	-0.128226
C99	C	-0.926383	0.878157	0.121774
C100	C	-0.676383	1.128157	0.371774
C101	C	-0.802210	0.428402	-0.428295
C102	C	-0.552210	0.678402	-0.178295
C103	C	-0.302210	0.928402	0.071705
C104	C	-0.052210	1.178402	0.321705
C105	C	-0.720229	0.428404	-0.428308
C106	C	-0.470229	0.678404	-0.178308
C107	C	-0.220229	0.928404	0.071692
C108	C	0.029771	1.178404	0.321692
C109	C	-0.679232	0.378141	-0.378202
C110	C	-0.429232	0.628141	-0.128202
C111	C	-0.179232	0.878141	0.121798
C112	C	0.070768	1.128141	0.371798
C113	C	-0.720220	0.327869	-0.328087
C114	C	-0.470220	0.577869	-0.078087
C115	C	-0.220220	0.827869	0.171913
C116	C	0.029780	1.077869	0.421913
C117	C	-0.802199	0.327863	-0.328079
C118	C	-0.552199	0.577863	-0.078079
C119	C	-0.302199	0.827863	0.171921
C120	C	-0.052199	1.077863	0.421921
C121	C	-0.549350	0.327884	-0.328106
C122	C	-0.299350	0.577884	-0.078106
C123	C	-0.049350	0.827884	0.171894
C124	C	0.200650	1.077884	0.421894
C125	C	-0.467365	0.327890	-0.328112
C126	C	-0.217365	0.577890	-0.078112
C127	C	0.032635	0.827890	0.171888
C128	C	0.282635	1.077890	0.421888
C129	C	-0.467380	0.428424	-0.428335
C130	C	-0.217380	0.678424	-0.178335
C131	C	0.032620	0.928424	0.071665
C132	C	0.282620	1.178424	0.321665
C133	C	-0.549359	0.428419	-0.428327
C134	C	-0.299359	0.678419	-0.178327
C135	C	-0.049359	0.928419	0.071673
C136	C	0.200641	1.178419	0.321673
C137	C	-0.590341	0.378147	-0.378210
C138	C	-0.340341	0.628147	-0.128210
C139	C	-0.090341	0.878147	0.121790
C140	C	0.159659	1.128147	0.371790
C141	C	-1.134487	0.173392	-0.378243
C142	C	-0.884487	0.423392	-0.128243
C143	C	-0.634487	0.673392	0.121757
C144	C	-0.384487	0.923392	0.371757
C145	C	-1.134528	0.086142	-0.378263
C146	C	-0.884528	0.336142	-0.128263
C147	C	-0.634528	0.586142	0.121737
C148	C	-0.384528	0.836142	0.371737
C149	C	-1.184598	0.710316	-0.328029
C150	C	-0.934598	0.960316	-0.078029
C151	C	-0.684598	1.210316	0.171971
C152	C	-0.434598	1.460316	0.421971
C153	C	-1.184637	0.792296	-0.328049
C154	C	-0.934637	1.042296	-0.078049
C155	C	-0.684637	1.292296	0.171951
C156	C	-0.434637	1.542296	0.421951
C157	C	-1.134425	0.833293	-0.378212
C158	C	-0.884425	1.083293	-0.128212
C159	C	-0.634425	1.333293	0.121788
C160	C	-0.384425	1.583293	0.371788
C161	C	-1.084178	0.792305	-0.428364
C162	C	-0.834178	1.042305	-0.178364
C163	C	-0.584178	1.292305	0.071636
C164	C	-0.334178	1.542305	0.321636
C165	C	-1.084144	0.710327	-0.428348
C166	C	-0.834144	0.960327	-0.178348
C167	C	-0.584144	1.210327	0.071652
C168	C	-0.334144	1.460327	0.321652
C169	C	-1.084250	0.963175	-0.428394
C170	C	-0.834250	1.213175	-0.178394
C171	C	-0.584250	1.463175	0.071606
C172	C	-0.334250	1.713175	0.321606
C173	C	-1.084283	1.045160	-0.428410
C174	C	-0.834283	1.295160	-0.178410
C175	C	-0.584283	1.545160	0.071590
C176	C	-0.334283	1.795160	0.321590
C177	C	-1.184743	1.045145	-0.328096
C178	C	-0.934743	1.295145	-0.078096
C179	C	-0.684743	1.545145	0.171904
C180	C	-0.434743	1.795145	0.421904
C181	C	-1.184709	0.963166	-0.328079
C182	C	-0.934709	1.213166	-0.078079
C183	C	-0.684709	1.463166	0.171921
C184	C	-0.434709	1.713166	0.421921
C185	C	-1.134461	0.922184	-0.378230
C186	C	-0.884461	1.172184	-0.128230
C187	C	-0.634461	1.422184	0.121770
C188	C	-0.384461	1.672184	0.371770
C189	C	-1.184689	0.327847	-0.711197
C190	C	-0.934689	0.577847	-0.461197
C191	C	-0.684689	0.827847	-0.211197
C192	C	-0.434689	1.077847	0.038803
C193	C	-1.184698	0.327821	-0.793178
C194	C	-0.934698	0.577821	-0.543178
C195	C	-0.684698	0.827821	-0.293178
C196	C	-0.434698	1.077821	-0.043178
C197	C	-1.134479	0.378006	-0.834148
C198	C	-0.884479	0.628006	-0.584148
C199	C	-0.634479	0.878006	-0.334148
C200	C	-0.384479	1.128006	-0.084148
C201	C	-1.084242	0.428214	-0.793133
C202	C	-0.834242	0.678214	-0.543133
C203	C	-0.584242	0.928214	-0.293133
C204	C	-0.334242	1.178214	-0.043133
C205	C	-1.084229	0.428236	-0.711154
C206	C	-0.834229	0.678236	-0.461154
C207	C	-0.584229	0.928236	-0.211154
C208	C	-0.334229	1.178236	0.038846
C209	C	-1.084274	0.428167	-0.964003
C210	C	-0.834274	0.678167	-0.714003
C211	C	-0.584274	0.928167	-0.464003
C212	C	-0.334274	1.178167	-0.214003
C213	C	-1.084288	0.428147	-1.045988
C214	C	-0.834288	0.678147	-0.795988
C215	C	-0.584288	0.928147	-0.545988
C216	C	-0.334288	1.178147	-0.295988
C217	C	-1.184742	0.327752	-1.046027
C218	C	-0.934742	0.577752	-0.796027
C219	C	-0.684742	0.827752	-0.546027
C220	C	-0.434742	1.077752	-0.296027
C221	C	-1.184730	0.327774	-0.964048
C222	C	-0.934730	0.577774	-0.714048
C223	C	-0.684730	0.827774	-0.464048
C224	C	-0.434730	1.077774	-0.214048
C225	C	-1.134493	0.377984	-0.923039
C226	C	-0.884493	0.627984	-0.673039
C227	C	-0.634493	0.877984	-0.423039
C228	C	-0.384493	1.127984	-0.173039
C229	C	-1.134387	0.378137	-0.174246
C230	C	-0.884387	0.628137	0.075754
C231	C	-0.634387	0.878137	0.325754
C232	C	-0.384387	1.128137	0.575754
C233	C	-1.134519	0.377941	-0.086997
C234	C	-0.884519	0.627941	0.163003
C235	C	-0.634519	0.877941	0.413003
C236	C	-0.384519	1.127941	0.663003
H237	H	-0.835584	0.469334	-0.469094
H238	H	-0.585584	0.719334	-0.219094
H239	H	-0.335584	0.969334	0.030906
H240	H	-0.085584	1.219334	0.280906
H241	H	-0.835565	0.286927	-0.287275
H242	H	-0.585565	0.536927	-0.037275
H243	H	-0.335565	0.786927	0.212725
H244	H	-0.085565	1.036927	0.462725
H245	H	-0.433988	0.286953	-0.287321
H246	H	-0.183988	0.536953	-0.037321
H247	H	0.066012	0.786953	0.212679
H248	H	0.316012	1.036953	0.462679
H249	H	-1.225585	0.286983	-0.677845
H250	H	-0.975585	0.536983	-0.427845
H251	H	-0.725585	0.786983	-0.177845
H252	H	-0.475585	1.036983	0.072155
H253	H	-1.225603	0.286940	-0.826563
H254	H	-0.975603	0.536940	-0.576563
H255	H	-0.725603	0.786940	-0.326563
H256	H	-0.475603	1.036940	-0.076563
H257	H	-0.686866	0.469337	-0.469114
H258	H	-0.436866	0.719337	-0.219114
H259	H	-0.186866	0.969337	0.030886
H260	H	0.063134	1.219337	0.280886
H261	H	-1.043350	0.469073	-0.826498
H262	H	-0.793350	0.719073	-0.576498
H263	H	-0.543350	0.969073	-0.326498
H264	H	-0.293350	1.219073	-0.076498
H265	H	-1.225627	0.286913	-0.930692
H266	H	-0.975627	0.536913	-0.680692
H267	H	-0.725627	0.786913	-0.430692
H268	H	-0.475627	1.036913	-0.180692
H269	H	-1.225483	0.676941	-0.287177
H270	H	-0.975483	0.926941	-0.037177
H271	H	-0.725483	1.176941	0.212823
H272	H	-0.475483	1.426941	0.462823
H273	H	-0.582715	0.286940	-0.287302
H274	H	-0.332715	0.536940	-0.037302
H275	H	-0.082715	0.786940	0.212698
H276	H	0.167285	1.036940	0.462698
H277	H	-0.686834	0.286941	-0.287293
H278	H	-0.436834	0.536941	-0.037293
H279	H	-0.186834	0.786941	0.212707
H280	H	0.063166	1.036941	0.462707
H281	H	-1.043318	0.469111	-0.677766
H282	H	-0.793318	0.719111	-0.427766
H283	H	-0.543318	0.969111	-0.177766
H284	H	-0.293318	1.219111	0.072234
H285	H	-1.043411	1.078538	-0.469272
H286	H	-0.793411	1.328538	-0.219272
H287	H	-0.543411	1.578538	0.030728
H288	H	-0.293411	1.828538	0.280728
H289	H	-1.225551	0.825660	-0.287214
H290	H	-0.975551	1.075660	-0.037214
H291	H	-0.725551	1.325660	0.212786
H292	H	-0.475551	1.575660	0.462786
H293	H	-1.043298	0.825692	-0.469211
H294	H	-0.793298	1.075692	-0.219211
H295	H	-0.543298	1.325692	0.030789
H296	H	-0.293298	1.575692	0.280789
H297	H	-0.582737	0.469352	-0.469122
H298	H	-0.332737	0.719352	-0.219122
H299	H	-0.082737	0.969352	0.030878
H300	H	0.167263	1.219352	0.280878
H301	H	-0.434009	0.469355	-0.469144
H302	H	-0.184009	0.719355	-0.219144
H303	H	0.065991	0.969355	0.030856
H304	H	0.315991	1.219355	0.280856
H305	H	-1.225591	0.929786	-0.287228
H306	H	-0.975591	1.179786	-0.037228
H307	H	-0.725591	1.429786	0.212772
H308	H	-0.475591	1.679786	0.462772
H309	H	-1.043393	0.469010	-1.079344
H310	H	-0.793393	0.719010	-0.829344
H311	H	-0.543393	0.969010	-0.579344
H312	H	-0.293393	1.219010	-0.329344
H313	H	-1.225660	1.078516	-0.287263
H314	H	-0.975660	1.328516	-0.037263
H315	H	-0.725660	1.578516	0.212737
H316	H	-0.475660	1.828516	0.462737
H317	H	-1.225645	0.286868	-1.079420
H318	H	-0.975645	0.536868	-0.829420
H319	H	-0.725645	0.786868	-0.579420
H320	H	-0.475645	1.036868	-0.329420
H321	H	-1.043335	0.929811	-0.469235
H322	H	-0.793335	1.179811	-0.219235
H323	H	-0.543335	1.429811	0.030765
H324	H	-0.293335	1.679811	0.280765
H325	H	-1.043354	0.469041	-0.930616
H326	H	-0.793354	0.719041	-0.680616
H327	H	-0.543354	0.969041	-0.430616
H328	H	-0.293354	1.219041	-0.180616
H329	H	-1.043230	0.676960	-0.469183
H330	H	-0.793230	0.926960	-0.219183
H331	H	-0.543230	1.176960	0.030817
H332	H	-0.293230	1.426960	0.280817
