data_functionalizedCrystal
_audit_creation_method	'MofGen! by Chris Wilmer'
_symmetry_space_group_name_H-M	'P1'
_symmetry_Int_Tables_number	1
_symmetry_cell_setting	triclinic
loop_
_symmetry_equiv_pos_as_xyz
  x,y,z
_cell_length_a	16.625548
_cell_length_b	19.120786
_cell_length_c	16.625548
_cell_angle_alpha	92.454923
_cell_angle_beta	90.008236
_cell_angle_gamma	92.466188
loop_
_atom_site_label
_atom_site_type_symbol
_atom_site_fract_x
_atom_site_fract_y
_atom_site_fract_z
Zn1	Zn	1.218869	-0.279724	0.442191
Zn2	Zn	1.552203	0.053610	0.775524
Zn3	Zn	1.885536	0.386943	1.108857
Zn4	Zn	1.213045	-0.397152	0.301599
Zn5	Zn	1.546378	-0.063819	0.634932
Zn6	Zn	1.879711	0.269515	0.968266
Zn7	Zn	1.084061	-0.279716	0.307372
Zn8	Zn	1.417394	0.053618	0.640705
Zn9	Zn	1.750727	0.386951	0.974038
Zn10	Zn	1.078245	-0.397146	0.436389
Zn11	Zn	1.411578	-0.063813	0.769722
Zn12	Zn	1.744912	0.269520	1.103056
O13	O	1.148555	-0.338434	0.371888
O14	O	1.481888	-0.005101	0.705221
O15	O	1.815222	0.328232	1.038554
O16	O	1.330929	-0.295307	0.423553
O17	O	1.664262	0.038027	0.756886
O18	O	1.997595	0.371360	1.090220
O19	O	1.195931	-0.381573	0.189533
O20	O	1.529264	-0.048239	0.522866
O21	O	1.862598	0.285094	0.856199
O22	O	1.106815	-0.181427	0.330100
O23	O	1.440148	0.151906	0.663433
O24	O	1.773481	0.485239	0.996766
O25	O	1.326650	-0.381580	0.320261
O26	O	1.659983	-0.048247	0.653594
O27	O	1.993316	0.285086	0.986928
O28	O	1.205858	-0.181433	0.429151
O29	O	1.539191	0.151900	0.762484
O30	O	1.872525	0.485233	1.095817
O31	O	1.101167	-0.295293	0.193774
O32	O	1.434500	0.038041	0.527107
O33	O	1.767833	0.371374	0.860440
O34	O	0.970457	-0.295287	0.324474
O35	O	1.303790	0.038046	0.657807
O36	O	1.637124	0.371379	0.991141
O37	O	1.096903	-0.381571	0.549991
O38	O	1.430236	-0.048238	0.883324
O39	O	1.763570	0.285096	1.216658
O40	O	0.966184	-0.381563	0.419263
O41	O	1.299518	-0.048230	0.752596
O42	O	1.632851	0.285103	1.085929
O43	O	1.200219	-0.295301	0.554253
O44	O	1.533552	0.038032	0.887587
O45	O	1.866886	0.371365	1.220920
O46	O	1.190292	-0.495440	0.314635
O47	O	1.523625	-0.162107	0.647969
O48	O	1.856959	0.171226	0.981302
O49	O	1.091255	-0.495436	0.413665
O50	O	1.424589	-0.162103	0.746998
O51	O	1.757922	0.171230	1.080332
C52	C	0.939065	-0.338424	0.371866
C53	C	1.272398	-0.005091	0.705199
C54	C	1.605731	0.328242	1.038532
C55	C	0.849443	-0.338437	0.371874
C56	C	1.182776	-0.005104	0.705208
C57	C	1.516109	0.328230	1.038541
C58	C	0.521267	-0.338442	0.371909
C59	C	0.854600	-0.005108	0.705242
C60	C	1.187934	0.328225	1.038575
C61	C	0.612576	-0.338438	0.371897
C62	C	0.945909	-0.005105	0.705230
C63	C	1.279242	0.328228	1.038563
C64	C	0.685352	-0.338440	0.371891
C65	C	1.018685	-0.005106	0.705224
C66	C	1.352019	0.328227	1.038558
C67	C	0.776666	-0.338436	0.371880
C68	C	1.110000	-0.005102	0.705214
C69	C	1.443333	0.328231	1.038547
C70	C	1.139532	-0.520924	0.362912
C71	C	1.472866	-0.187590	0.696245
C72	C	1.806199	0.145743	1.029579
C73	C	1.135746	-0.598993	0.359099
C74	C	1.469080	-0.265660	0.692432
C75	C	1.802413	0.067673	1.025766
C76	C	1.185496	-0.635613	0.408920
C77	C	1.518829	-0.302280	0.742253
C78	C	1.852162	0.031053	1.075587
C79	C	1.181935	-0.708968	0.405339
C80	C	1.515268	-0.375635	0.738672
C81	C	1.848602	-0.042301	1.072005
C82	C	1.128628	-0.745702	0.351932
C83	C	1.461962	-0.412368	0.685265
C84	C	1.795295	-0.079035	1.018598
C85	C	1.078873	-0.709076	0.302109
C86	C	1.412207	-0.375743	0.635442
C87	C	1.745540	-0.042410	0.968775
C88	C	1.082431	-0.635723	0.305695
C89	C	1.415764	-0.302390	0.639028
C90	C	1.749097	0.030944	0.972361
C91	C	1.115306	-0.967184	0.338526
C92	C	1.448640	-0.633851	0.671860
C93	C	1.781973	-0.300518	1.005193
C94	C	1.111754	-1.040543	0.334943
C95	C	1.445088	-0.707210	0.668276
C96	C	1.778421	-0.373876	1.001609
C97	C	1.214815	-1.040429	0.438174
C98	C	1.548149	-0.707096	0.771507
C99	C	1.881482	-0.373763	1.104841
C100	C	1.218371	-0.967075	0.441752
C101	C	1.551705	-0.633741	0.775085
C102	C	1.885038	-0.300408	1.108418
C103	C	1.168613	-0.930456	0.391932
C104	C	1.501947	-0.597123	0.725265
C105	C	1.835280	-0.263789	1.058598
C106	C	1.124989	-0.820682	0.348268
C107	C	1.458322	-0.487349	0.681601
C108	C	1.791656	-0.154015	1.014935
C109	C	1.172249	-0.855477	0.395600
C110	C	1.505582	-0.522144	0.728933
C111	C	1.838916	-0.188810	1.062267
C112	C	1.358863	-0.338445	0.371910
C113	C	1.692197	-0.005112	0.705244
C114	C	2.025530	0.328222	1.038577
C115	C	1.448484	-0.338450	0.371920
C116	C	1.781817	-0.005116	0.705253
C117	C	2.115151	0.328217	1.038587
C118	C	1.148562	-0.338436	0.582196
C119	C	1.481895	-0.005103	0.915530
C120	C	1.815229	0.328230	1.248863
C121	C	1.148565	-0.338437	0.671817
C122	C	1.481898	-0.005104	1.005151
C123	C	1.815232	0.328229	1.338484
C124	C	1.157635	-0.155233	0.380916
C125	C	1.490968	0.178101	0.714250
C126	C	1.824301	0.511434	1.047583
C127	C	1.161504	-0.077163	0.384764
C128	C	1.494837	0.256170	0.718097
C129	C	1.828171	0.589504	1.051430
C130	C	1.148531	-0.338443	0.999993
C131	C	1.481864	-0.005110	1.333326
C132	C	1.815198	0.328223	1.666660
C133	C	1.148538	-0.338444	0.908684
C134	C	1.481872	-0.005111	1.242018
C135	C	1.815205	0.328223	1.575351
C136	C	1.148548	-0.338441	0.835908
C137	C	1.481882	-0.005108	1.169241
C138	C	1.815215	0.328226	1.502575
C139	C	1.148555	-0.338440	0.744594
C140	C	1.481888	-0.005107	1.077927
C141	C	1.815221	0.328226	1.411260
C142	C	1.148539	-0.338447	1.162396
C143	C	1.481873	-0.005113	1.495730
C144	C	1.815206	0.328220	1.829063
C145	C	1.148532	-0.338441	1.072775
C146	C	1.481865	-0.005108	1.406109
C147	C	1.815198	0.328225	1.739442
H148	H	1.228907	-0.605710	0.452406
H149	H	1.562240	-0.272376	0.785739
H150	H	1.895574	0.060957	1.119073
H151	H	1.215648	-0.825566	0.439087
H152	H	1.548982	-0.492233	0.772420
H153	H	1.882315	-0.158900	1.105754
H154	H	1.035467	-0.738991	0.258627
H155	H	1.368800	-0.405657	0.591960
H156	H	1.702133	-0.072324	0.925294
H157	H	1.041918	-0.605908	0.265126
H158	H	1.375252	-0.272574	0.598459
H159	H	1.708585	0.060759	0.931793
O160	O	1.073172	-0.856445	0.296492
O161	O	1.406506	-0.523112	0.629825
O162	O	1.739839	-0.189778	0.963158
C163	C	1.018987	-0.898889	0.340275
C164	C	1.352321	-0.565556	0.673608
C165	C	1.685654	-0.232223	1.006941
H166	H	1.046841	-0.909830	0.400876
H167	H	1.380174	-0.576497	0.734209
H168	H	1.713508	-0.243163	1.067542
H169	H	1.005716	-0.950494	0.304905
H170	H	1.339049	-0.617160	0.638238
H171	H	1.672382	-0.283827	0.971572
H172	H	0.960591	-0.870667	0.350447
H173	H	1.293925	-0.537334	0.683781
H174	H	1.627258	-0.204001	1.017114
H175	H	1.222452	-0.738781	0.445902
H176	H	1.555786	-0.405448	0.779236
H177	H	1.889119	-0.072114	1.112569
H178	H	1.261778	-0.937168	0.485240
H179	H	1.595111	-0.603834	0.818573
H180	H	1.928444	-0.270501	1.151907
H181	H	1.255324	-1.070252	0.478736
H182	H	1.588658	-0.736919	0.812069
H183	H	1.921991	-0.403586	1.145402
H184	H	1.074793	-0.937375	0.297959
H185	H	1.408126	-0.604042	0.631293
H186	H	1.741460	-0.270708	0.964626
O187	O	1.059854	-1.076198	0.283151
O188	O	1.393187	-0.742865	0.616484
O189	O	1.726521	-0.409532	0.949818
C190	C	0.980344	-1.058326	0.301562
C191	C	1.313677	-0.724993	0.634896
C192	C	1.647010	-0.391660	0.968229
H193	H	0.977202	-1.038143	0.366958
H194	H	1.310535	-0.704809	0.700292
H195	H	1.643869	-0.371476	1.033625
H196	H	0.938181	-1.106604	0.292226
H197	H	1.271514	-0.773271	0.625560
H198	H	1.604848	-0.439938	0.958893
H199	H	0.961354	-1.015782	0.260392
H200	H	1.294687	-0.682448	0.593725
H201	H	1.628021	-0.349115	0.927059
