data_functionalizedCrystal
_audit_creation_method	'MofGen! by Chris Wilmer'
_symmetry_space_group_name_H-M	'P1'
_symmetry_Int_Tables_number	1
_symmetry_cell_setting	triclinic
loop_
_symmetry_equiv_pos_as_xyz
  x,y,z
_cell_length_a	15.944493
_cell_length_b	23.532407
_cell_length_c	14.421503
_cell_angle_alpha	89.999621
_cell_angle_beta	89.992936
_cell_angle_gamma	83.161861
loop_
_atom_site_label
_atom_site_type_symbol
_atom_site_fract_x
_atom_site_fract_y
_atom_site_fract_z
O1	O	1.113942	0.073285	-0.077109
O2	O	0.869309	0.082375	-0.077115
O3	O	0.999003	-0.005074	-0.077095
O4	O	0.984249	0.160734	-0.077129
O5	O	0.998981	-0.005061	0.077129
O6	O	0.869288	0.082388	0.077109
O7	O	1.113921	0.073298	0.077114
Cu8	Cu	0.991602	0.077844	0.091193
Cu9	Cu	0.991628	0.077829	-0.091194
O10	O	0.984227	0.160747	0.077094
C11	C	0.838007	0.082010	-0.000004
C12	C	0.744768	0.080896	-0.000005
C13	C	0.508574	0.132371	-0.000016
C14	C	0.458239	0.104619	0.076034
C15	C	0.574064	0.078832	-0.000003
C16	C	0.458265	0.104593	-0.076019
C17	C	0.409171	0.076843	-0.000005
C18	C	0.524957	0.051095	0.076110
C19	C	0.524986	0.051077	-0.076011
C20	C	0.474684	0.023286	0.000058
C21	C	0.669054	0.079980	-0.000001
C22	C	0.314184	0.075691	0.000000
C23	C	0.998616	-0.026285	0.000019
C24	C	0.997486	-0.089506	0.000026
C25	C	1.067151	-0.488350	-0.000023
C26	C	1.066102	-0.547754	-0.000030
O27	O	1.130682	-0.584257	-0.000063
N28	N	0.988999	-0.570668	-0.000031
C29	C	0.912941	-0.534174	-0.000034
O30	O	0.847263	-0.559119	-0.000037
C31	C	0.913991	-0.474771	-0.000034
C32	C	0.991099	-0.451861	-0.000023
C33	C	1.144253	-0.465439	-0.000013
C34	C	1.145302	-0.406038	-0.000004
C35	C	1.069249	-0.369549	-0.000005
C36	C	0.992148	-0.392460	-0.000015
C37	C	0.837934	-0.438278	-0.000044
C38	C	0.838991	-0.378872	-0.000044
C39	C	0.916098	-0.355962	-0.000034
C40	C	0.917144	-0.296571	-0.000007
N41	N	0.994247	-0.273657	-0.000005
C42	C	1.070300	-0.310146	-0.000005
C43	C	0.910741	-0.658925	-0.000037
C44	C	0.909690	-0.718327	-0.000031
C45	C	1.062852	-0.731902	-0.000028
C46	C	1.063902	-0.672499	-0.000027
C47	C	0.987844	-0.636011	-0.000036
C48	C	1.072497	-0.185401	0.000015
C49	C	1.073539	-0.125996	0.000027
C50	C	0.920378	-0.112425	0.000019
C51	C	0.919335	-0.171826	0.000012
C52	C	0.995402	-0.208313	0.000006
O53	O	0.852598	-0.260033	0.000022
O54	O	1.135967	-0.285193	-0.000014
C55	C	1.145223	0.073663	0.000001
C56	C	1.238462	0.074777	-0.000003
C57	C	0.984614	0.181958	-0.000022
C58	C	0.985743	0.245179	-0.000035
N59	N	0.991590	0.077855	0.219475
N60	N	0.991646	0.077814	-0.219475
C61	C	0.931610	0.118273	0.469119
C62	C	1.007419	0.129319	0.530921
C63	C	0.991611	0.077841	0.408636
C64	C	0.915821	0.066808	0.530928
C65	C	0.991624	0.077829	0.591357
C66	C	1.067458	0.088912	0.469077
C67	C	0.975811	0.026380	0.469079
C68	C	1.051675	0.037404	0.530853
C69	C	0.991602	0.077849	0.303375
C70	C	0.991641	0.077820	0.696616
H71	H	0.429145	0.127209	-0.140304
C72	C	0.754128	-0.463032	-0.000108
C73	C	0.687761	-0.418351	-0.000139
C74	C	0.610542	-0.441130	-0.000212
H75	H	0.750393	-0.485915	0.053655
H76	H	0.750496	-0.485903	-0.053915
H77	H	0.691391	-0.395489	0.053662
H78	H	0.691468	-0.395464	-0.053898
H79	H	0.606910	-0.464002	-0.054019
H80	H	0.606816	-0.464013	0.053552
H81	H	0.565503	-0.410818	-0.000242
C82	C	0.528856	0.193870	0.000257
C83	C	0.494920	0.221653	0.080059
C84	C	0.513599	0.278302	0.080353
H85	H	0.505029	0.213138	-0.053154
H86	H	0.588384	0.194182	-0.000248
H87	H	0.435404	0.221344	0.080556
H88	H	0.518742	0.202402	0.133483
H89	H	0.573126	0.278614	0.079848
H90	H	0.489770	0.297564	0.026939
H91	H	0.490582	0.297158	0.134502
H92	H	0.554132	0.028479	-0.140298
H93	H	1.134437	-0.215103	0.000006
H94	H	0.880920	0.152492	0.442013
C95	C	0.835683	-0.196784	-0.000136
C96	C	0.830628	-0.230495	-0.079479
C97	C	0.753585	-0.253498	-0.079649
H98	H	0.790465	-0.166603	-0.000179
H99	H	0.832075	-0.219713	0.053611
H100	H	0.834228	-0.207568	-0.133211
H101	H	0.875828	-0.260685	-0.079452
H102	H	0.749977	-0.276426	-0.025902
H103	H	0.708374	-0.223313	-0.079690
H104	H	0.750148	-0.276377	-0.133477
C105	C	1.157347	-0.101233	-0.000013
C106	C	1.223723	-0.145908	-0.000043
C107	C	1.300935	-0.123120	-0.000095
H108	H	1.161057	-0.078353	0.053756
H109	H	1.160994	-0.078357	-0.053813
H110	H	1.220078	-0.168774	0.053752
H111	H	1.220041	-0.168791	-0.053808
H112	H	1.304582	-0.100244	-0.053895
H113	H	1.304636	-0.100241	0.053676
H114	H	1.345980	-0.153428	-0.000123
H115	H	0.429102	0.127234	0.140318
H116	H	1.208091	-0.387391	0.000000
C117	C	0.825998	-0.743229	0.000157
C118	C	0.820893	-0.776927	0.079508
C119	C	0.743800	-0.799868	0.079713
H120	H	0.822326	-0.766156	-0.053564
H121	H	0.780833	-0.713001	0.000208
H122	H	0.866045	-0.807151	0.079449
H123	H	0.824549	-0.754013	0.133243
H124	H	0.698636	-0.769640	0.079764
H125	H	0.740136	-0.822792	0.025987
H126	H	0.740323	-0.822730	0.133555
H127	H	0.459607	-0.022867	0.000111
C128	C	0.756473	-0.339190	0.000094
C129	C	0.752591	-0.304682	0.079429
C130	C	0.676595	-0.268116	0.079584
H131	H	0.710337	-0.361275	0.000134
H132	H	0.753700	-0.315699	-0.053658
H133	H	0.755356	-0.328170	0.133167
H134	H	0.798710	-0.282585	0.079405
H135	H	0.673822	-0.244626	0.025833
H136	H	0.630465	-0.290206	0.079622
H137	H	0.673954	-0.244695	0.133407
H138	H	1.206187	-0.495143	-0.000016
H139	H	0.553966	0.028504	0.140468
C140	C	0.830393	0.054248	0.567099
C141	C	0.813459	0.000755	0.534439
C142	C	0.734775	-0.010833	0.567747
H143	H	0.787744	0.082959	0.545983
H144	H	0.831161	0.053952	0.632970
H145	H	0.812685	0.001055	0.468582
H146	H	0.856088	-0.027968	0.555552
H147	H	0.735543	-0.011129	0.633618
H148	H	0.692133	0.017881	0.546629
H149	H	0.723279	-0.047131	0.545600
H150	H	1.102477	0.003205	0.557788
C151	C	1.025089	0.187385	0.567098
C152	C	0.962071	0.229559	0.535846
C153	C	0.978308	0.283056	0.569161
H154	H	1.078486	0.195576	0.545033
H155	H	1.025439	0.186878	0.632970
H156	H	0.961729	0.230067	0.469988
H157	H	0.908667	0.221387	0.557910
H158	H	0.978658	0.282549	0.635033
H159	H	1.031707	0.291241	0.547093
H160	H	0.935549	0.311677	0.547968
H161	H	1.126690	-0.653850	-0.000020
C162	C	1.145401	-0.771553	-0.000230
C163	C	1.149280	-0.806038	-0.079593
C164	C	1.225312	-0.842566	-0.079818
H165	H	1.148250	-0.795066	0.053484
H166	H	1.191500	-0.749423	-0.000279
H167	H	1.103194	-0.828166	-0.079535
H168	H	1.146445	-0.782541	-0.133319
H169	H	1.271410	-0.820436	-0.079867
H170	H	1.228154	-0.866074	-0.026100
H171	H	1.227957	-0.865964	-0.133668
C172	C	0.828068	-0.619405	0.000016
C173	C	0.760328	-0.652193	0.000040
C174	C	0.684157	-0.615811	0.000099
H175	H	0.825173	-0.595936	-0.053749
H176	H	0.825238	-0.595959	0.053820
H177	H	0.763156	-0.675629	-0.053759
H178	H	0.763194	-0.675661	0.053801
H179	H	0.681328	-0.592365	0.053904
H180	H	0.681271	-0.592344	-0.053666
H181	H	0.638187	-0.638052	0.000124
C182	C	1.152855	0.101484	0.432831
C183	C	1.151822	0.101402	0.335752
C184	C	1.230458	0.113011	0.302328
H185	H	1.195605	0.072969	0.454343
H186	H	1.164139	0.137939	0.454487
H187	H	1.140548	0.064953	0.314104
H188	H	1.109089	0.129917	0.314214
H189	H	1.241742	0.149465	0.323984
H190	H	1.273202	0.084494	0.323847
H191	H	1.229765	0.112962	0.236457
H192	H	0.858458	-0.082705	0.000022
H193	H	0.962411	-0.017121	0.441894
