data_functionalizedCrystal
_audit_creation_method	'MofGen! by Chris Wilmer'
_symmetry_space_group_name_H-M	'P1'
_symmetry_Int_Tables_number	1
_symmetry_cell_setting	triclinic
loop_
_symmetry_equiv_pos_as_xyz
  x,y,z
_cell_length_a	10.723023
_cell_length_b	15.995350
_cell_length_c	9.198806
_cell_angle_alpha	89.999047
_cell_angle_beta	89.996513
_cell_angle_gamma	83.979961
loop_
_atom_site_label
_atom_site_type_symbol
_atom_site_fract_x
_atom_site_fract_y
_atom_site_fract_z
O1	O	1.655690	0.117432	-0.120870
O2	O	1.292394	0.128673	-0.120875
O3	O	1.483973	0.001222	-0.120871
O4	O	1.464111	0.244883	-0.120874
O5	O	1.483958	0.001221	0.120914
O6	O	1.292379	0.128673	0.120910
O7	O	1.655675	0.117431	0.120915
Cu8	Cu	1.474026	0.123052	0.142990
Cu9	Cu	1.474044	0.123052	-0.142949
O10	O	1.464096	0.244883	0.120911
C11	C	1.245898	0.127855	0.000017
C12	C	1.107374	0.125408	0.000014
C13	C	1.045608	0.124316	0.125265
C14	C	0.902438	0.121787	0.125266
C15	C	1.483144	-0.029978	0.000019
C16	C	1.480683	-0.122942	0.000011
C17	C	1.471842	-0.460741	0.000015
C18	C	1.335403	-0.414090	-0.000529
C19	C	1.337865	-0.317386	0.000016
C20	C	1.476227	-0.293155	0.000012
C21	C	1.543515	-0.333846	0.138082
C22	C	1.540088	-0.430502	0.138197
C23	C	1.542923	-0.430843	-0.136758
C24	C	1.542891	-0.333898	-0.138582
C25	C	1.478713	-0.198443	0.000015
C26	C	1.469361	-0.555453	0.000022
C27	C	1.702172	0.118249	0.000020
C28	C	1.840695	0.120696	0.000013
C29	C	1.464925	0.276082	0.000018
C30	C	1.467387	0.369047	0.000017
N31	N	1.474022	0.123051	0.344103
N32	N	1.474057	0.123047	-0.344063
C33	C	1.554464	0.069302	0.416302
C34	C	1.554483	0.069299	0.583714
H35	H	1.098723	0.125250	0.232496
F36	F	1.384039	0.183202	0.574796
F37	F	0.833013	0.120567	0.265431
F38	F	1.644243	0.009007	0.335104
F39	F	0.910109	0.121929	-0.140158
F40	F	1.475933	-0.454794	0.273098
H41	H	1.640259	-0.462175	0.144459
F42	F	1.037959	0.124175	-0.140150
H43	H	1.284972	-0.289267	-0.098958
F44	F	1.384015	0.183193	0.425302
H45	H	1.623357	0.023285	0.645802
H46	H	1.280876	-0.432935	-0.099541
F47	F	1.264249	-0.440391	0.127811
F48	F	1.676381	-0.314622	0.144795
F49	F	1.268245	-0.281360	0.129598
H50	H	1.496768	-0.305733	0.240831
H51	H	1.498321	-0.451639	-0.241406
F52	F	1.479083	-0.298260	-0.272107
H53	H	1.643791	-0.317957	-0.146922
F54	F	1.674408	-0.471602	-0.137978
