data_functionalizedCrystal
_audit_creation_method	'MofGen! by Chris Wilmer'
_symmetry_space_group_name_H-M	'P1'
_symmetry_Int_Tables_number	1
_symmetry_cell_setting	triclinic
loop_
_symmetry_equiv_pos_as_xyz
  x,y,z
_cell_length_a	18.215405
_cell_length_b	18.215407
_cell_length_c	18.215399
_cell_angle_alpha	89.983176
_cell_angle_beta	89.968171
_cell_angle_gamma	90.024268
loop_
_atom_site_label
_atom_site_type_symbol
_atom_site_fract_x
_atom_site_fract_y
_atom_site_fract_z
Zn1	Zn	-0.292966	1.125056	-0.416108
Zn2	Zn	0.207034	1.625056	0.083892
Zn3	Zn	-0.416042	1.124973	-0.293039
Zn4	Zn	0.083958	1.624973	0.206961
Zn5	Zn	-0.292995	1.001995	-0.293056
Zn6	Zn	0.207005	1.501995	0.206944
Zn7	Zn	-0.415996	1.001956	-0.416064
Zn8	Zn	0.084004	1.501956	0.083936
O9	O	-0.354500	1.063495	-0.354567
O10	O	0.145500	1.563495	0.145433
O11	O	-0.309299	1.228029	-0.399795
O12	O	0.190701	1.728029	0.100205
O13	O	-0.399751	1.108641	-0.190057
O14	O	0.100249	1.608641	0.309943
O15	O	-0.190007	1.018370	-0.309405
O16	O	0.309993	1.518370	0.190595
O17	O	-0.399723	1.227968	-0.309376
O18	O	0.100277	1.727968	0.190624
O19	O	-0.189985	1.108782	-0.399811
O20	O	0.310015	1.608782	0.100189
O21	O	-0.309349	1.018289	-0.190069
O22	O	0.190651	1.518289	0.309931
O23	O	-0.309304	0.899005	-0.309361
O24	O	0.190696	1.399005	0.190639
O25	O	-0.399644	1.018304	-0.519054
O26	O	0.100356	1.518304	-0.019054
O27	O	-0.399672	0.898977	-0.399735
O28	O	0.100328	1.398977	0.100265
O29	O	-0.309254	1.108745	-0.519087
O30	O	0.190746	1.608745	-0.019087
O31	O	-0.519020	1.108604	-0.309333
O32	O	-0.019020	1.608604	0.190667
O33	O	-0.518986	1.018224	-0.399719
O34	O	-0.018986	1.518224	0.100281
C35	C	-0.354487	0.872289	-0.354546
C36	C	0.145513	1.372289	0.145454
C37	C	-0.354499	0.790490	-0.354554
C38	C	0.145501	1.290490	0.145446
C39	C	-0.401628	0.602300	-0.401552
C40	C	0.098372	1.102300	0.098448
C41	C	-0.401630	0.525442	-0.401562
C42	C	0.098370	1.025442	0.098438
C43	C	-0.307384	0.525441	-0.307597
C44	C	0.192616	1.025441	0.192403
C45	C	-0.307379	0.602299	-0.307592
C46	C	0.192621	1.102299	0.192408
C47	C	-0.354505	0.640726	-0.354569
C48	C	0.145495	1.140726	0.145431
C49	C	-0.354513	0.487010	-0.354583
C50	C	0.145487	0.987010	0.145417
C51	C	-0.354515	0.403676	-0.354592
C52	C	0.145485	0.903676	0.145408
C53	C	-0.354502	0.724065	-0.354560
C54	C	0.145498	1.224065	0.145440
C55	C	-0.545706	1.063421	-0.354535
C56	C	-0.045706	1.563421	0.145465
C57	C	-0.627505	1.063456	-0.354546
C58	C	-0.127505	1.563456	0.145454
C59	C	-0.892555	1.110655	-0.307582
C60	C	-0.392555	1.610655	0.192418
C61	C	-0.815697	1.110624	-0.307565
C62	C	-0.315697	1.610624	0.192435
C63	C	-0.815702	1.016426	-0.401602
C64	C	-0.315702	1.516426	0.098398
C65	C	-0.892560	1.016453	-0.401614
C66	C	-0.392560	1.516453	0.098386
C67	C	-0.930984	1.063572	-0.354605
C68	C	-0.430984	1.563572	0.145395
C69	C	-0.777268	1.063514	-0.354576
C70	C	-0.277268	1.563514	0.145424
C71	C	-0.693935	1.063481	-0.354558
C72	C	-0.193935	1.563481	0.145442
C73	C	-1.014323	1.063604	-0.354622
C74	C	-0.514323	1.563604	0.145378
C75	C	-0.162547	1.063589	-0.354615
C76	C	0.337453	1.563589	0.145385
C77	C	-0.080748	1.063630	-0.354635
C78	C	0.419252	1.563630	0.145365
C79	C	-0.354441	1.063530	-0.546520
C80	C	0.145559	1.563530	-0.046520
C81	C	-0.354416	1.063544	-0.628319
C82	C	0.145584	1.563544	-0.128319
C83	C	-0.354513	1.255448	-0.354588
C84	C	0.145487	1.755448	0.145412
C85	C	-0.354518	1.337247	-0.354598
C86	C	0.145482	1.837247	0.145402
C87	C	-0.307311	1.016538	-0.816520
C88	C	0.192689	1.516538	-0.316520
C89	C	-0.307297	1.016551	-0.893379
C90	C	0.192703	1.516551	-0.393379
C91	C	-0.401432	1.110639	-0.893355
C92	C	0.098568	1.610639	-0.393355
C93	C	-0.401450	1.110622	-0.816498
C94	C	0.098550	1.610622	-0.316498
C95	C	-0.354386	1.063572	-0.778082
C96	C	0.145614	1.563572	-0.278082
C97	C	-0.354353	1.063602	-0.931798
C98	C	0.145647	1.563602	-0.431798
C99	C	-0.354337	1.063616	-1.015132
C100	C	0.145663	1.563616	-0.515132
C101	C	-0.354402	1.063557	-0.694743
C102	C	0.145598	1.563557	-0.194743
C103	C	-0.354505	1.063503	-0.163360
C104	C	0.145495	1.563503	0.336640
C105	C	-0.354323	1.063630	-0.081562
C106	C	0.145677	1.563630	0.418438
H107	H	-0.439999	0.633586	-0.439806
H108	H	0.060001	1.133586	0.060194
Br109	Br	-0.465302	1.174488	-0.945495
Br110	Br	0.034698	1.674488	-0.445495
Br111	Br	-0.243414	0.654453	-0.243831
Br112	Br	0.256586	1.154453	0.256169
Br113	Br	-0.944701	1.174599	-0.243783
Br114	Br	-0.444701	1.674599	0.256217
Br115	Br	-0.465583	0.473295	-0.465332
Br116	Br	0.034417	0.973295	0.034668
H117	H	-0.268989	0.978228	-0.785244
H118	H	0.231011	1.478228	-0.285244
H119	H	-0.784410	1.148963	-0.269273
H120	H	-0.284410	1.648963	0.230727
H121	H	-0.923849	0.978109	-0.439908
H122	H	-0.423849	1.478109	0.060092
Br123	Br	-0.243431	0.473285	-0.243846
Br124	Br	0.256569	0.973285	0.256154
Br125	Br	-0.763550	0.952488	-0.465402
Br126	Br	-0.263550	1.452488	0.034598
Br127	Br	-0.243420	0.952703	-0.945542
Br128	Br	0.256580	1.452703	-0.445542
Br129	Br	-0.465347	1.174453	-0.764327
Br130	Br	0.034653	1.674453	-0.264327
