data_functionalizedCrystal
_audit_creation_method	'MofGen! by Chris Wilmer'
_symmetry_space_group_name_H-M	'P1'
_symmetry_Int_Tables_number	1
_symmetry_cell_setting	triclinic
loop_
_symmetry_equiv_pos_as_xyz
  x,y,z
_cell_length_a	17.077404
_cell_length_b	19.805405
_cell_length_c	17.077396
_cell_angle_alpha	89.968350
_cell_angle_beta	89.981638
_cell_angle_gamma	90.024381
loop_
_atom_site_label
_atom_site_type_symbol
_atom_site_fract_x
_atom_site_fract_y
_atom_site_fract_z
Zn1	Zn	1.200035	-0.269500	-0.443802
Zn2	Zn	1.700035	0.230500	0.056198
Zn3	Zn	1.199934	-0.382693	-0.312528
Zn4	Zn	1.699934	0.117307	0.187472
Zn5	Zn	1.068767	-0.269519	-0.312552
Zn6	Zn	1.568767	0.230481	0.187448
Zn7	Zn	1.068727	-0.382648	-0.443754
Zn8	Zn	1.568727	0.117352	0.056246
O9	O	1.134366	-0.326090	-0.378159
O10	O	1.634366	0.173910	0.121841
O11	O	1.309869	-0.284526	-0.426398
O12	O	1.809869	0.215474	0.073602
O13	O	1.182509	-0.367707	-0.202684
O14	O	1.682509	0.132293	0.297316
O15	O	1.086239	-0.174800	-0.329992
O16	O	1.586239	0.325200	0.170008
O17	O	1.309795	-0.367688	-0.329952
O18	O	1.809795	0.132312	0.170048
O19	O	1.182681	-0.174786	-0.426421
O20	O	1.682681	0.325214	0.073579
O21	O	1.086141	-0.284559	-0.202702
O22	O	1.586141	0.215441	0.297298
O23	O	0.958915	-0.284515	-0.329947
O24	O	1.458915	0.215485	0.170053
O25	O	1.086171	-0.367612	-0.553608
O26	O	1.586171	0.132388	-0.053608
O27	O	0.958886	-0.367631	-0.426340
O28	O	1.458886	0.132369	0.073660
O29	O	1.182643	-0.284482	-0.553642
O30	O	1.682643	0.215518	-0.053642
O31	O	1.182470	-0.477404	-0.329906
O32	O	1.682470	0.022596	0.170094
O33	O	1.086073	-0.477371	-0.426317
O34	O	1.586073	0.022629	0.073683
C35	C	0.930418	-0.326071	-0.378141
C36	C	1.430418	0.173929	0.121859
C37	C	0.843168	-0.326079	-0.378153
C38	C	1.343168	0.173921	0.121847
C39	C	0.802218	-0.282853	-0.428449
C40	C	1.302218	0.217147	0.071551
C41	C	0.720237	-0.282858	-0.428452
C42	C	1.220237	0.217142	0.071548
C43	C	0.679209	-0.326092	-0.378163
C44	C	1.179209	0.173908	0.121837
C45	C	0.720165	-0.369319	-0.327862
C46	C	1.220165	0.130681	0.172138
C47	C	0.802144	-0.369311	-0.327855
C48	C	1.302144	0.130689	0.172145
C49	C	0.549295	-0.369335	-0.327881
C50	C	1.049295	0.130665	0.172119
C51	C	0.467311	-0.369344	-0.327889
C52	C	0.967311	0.130656	0.172111
C53	C	0.467388	-0.282881	-0.428479
C54	C	0.967388	0.217119	0.071521
C55	C	0.549367	-0.282873	-0.428472
C56	C	1.049367	0.217127	0.071528
C57	C	0.590318	-0.326102	-0.378171
C58	C	1.090318	0.173898	0.121829
C59	C	1.134278	-0.501946	-0.378121
C60	C	1.634278	-0.001946	0.121879
C61	C	1.134312	-0.577178	-0.378131
C62	C	1.634312	-0.077178	0.121869
C63	C	1.184555	-0.612517	-0.327982
C64	C	1.684555	-0.112517	0.172018
C65	C	1.184588	-0.683205	-0.328000
C66	C	1.684588	-0.183205	0.172000
C67	C	1.134374	-0.718554	-0.378162
C68	C	1.634374	-0.218554	0.121838
C69	C	1.084129	-0.683210	-0.428317
C70	C	1.584129	-0.183210	0.071683
C71	C	1.084100	-0.612523	-0.428303
C72	C	1.584100	-0.112523	0.071697
C73	C	1.084245	-0.968283	-0.428375
C74	C	1.584245	-0.468283	0.071625
C75	C	1.084276	-1.038975	-0.428383
C76	C	1.584276	-0.538975	0.071617
C77	C	1.184733	-1.038966	-0.328072
C78	C	1.684733	-0.538966	0.171928
C79	C	1.184704	-0.968278	-0.328058
C80	C	1.684704	-0.468278	0.171942
C81	C	1.134462	-0.932941	-0.378215
C82	C	1.634462	-0.432941	0.121785
C83	C	1.134427	-0.856293	-0.378196
C84	C	1.634427	-0.356293	0.121804
C85	C	1.134404	-0.795201	-0.378177
C86	C	1.634404	-0.295201	0.121823
C87	C	1.339110	-0.326110	-0.378177
C88	C	1.839110	0.173890	0.121823
C89	C	1.426360	-0.326118	-0.378185
C90	C	1.926360	0.173882	0.121815
C91	C	1.134414	-0.326040	-0.582903
C92	C	1.634414	0.173960	-0.082903
C93	C	1.134434	-0.326019	-0.670153
C94	C	1.634434	0.173981	-0.170153
C95	C	1.134476	-0.149547	-0.378214
C96	C	1.634476	0.350453	0.121786
C97	C	1.134523	-0.074315	-0.378238
C98	C	1.634523	0.425685	0.121762
C99	C	1.184668	-0.282730	-0.711163
C100	C	1.684668	0.217270	-0.211163
C101	C	1.184678	-0.282707	-0.793143
C102	C	1.684678	0.217293	-0.293143
C103	C	1.134456	-0.325978	-0.834113
C104	C	1.634456	0.174022	-0.334113
C105	C	1.084216	-0.369269	-0.793098
C106	C	1.584216	0.130731	-0.293098
C107	C	1.084203	-0.369287	-0.711119
C108	C	1.584203	0.130713	-0.211119
C109	C	1.084247	-0.369228	-0.963968
C110	C	1.584247	0.130772	-0.463968
C111	C	1.084261	-0.369211	-1.045952
C112	C	1.584261	0.130789	-0.545952
C113	C	1.184722	-0.282648	-1.045992
C114	C	1.684722	0.217352	-0.545992
C115	C	1.184709	-0.282666	-0.964013
C116	C	1.684709	0.217334	-0.464013
C117	C	1.134470	-0.325959	-0.923004
C118	C	1.634470	0.174041	-0.423004
C119	C	1.134364	-0.326091	-0.174211
C120	C	1.634364	0.173909	0.325789
C121	C	1.134496	-0.325921	-0.086962
C122	C	1.634496	0.174079	0.413038
H123	H	0.835485	-0.404509	-0.286898
H124	H	1.335485	0.095491	0.213102
Br125	Br	0.605048	-0.224205	-0.496731
Br126	Br	1.105048	0.275795	0.003269
Br127	Br	0.857891	-0.224180	-0.496708
Br128	Br	1.357891	0.275820	0.003292
H129	H	1.225609	-0.247436	-0.930658
H130	H	1.725609	0.252564	-0.430658
Br131	Br	1.252699	-0.564551	-0.259893
Br132	Br	1.752699	-0.064551	0.240107
Br133	Br	1.252893	-0.223986	-0.848796
Br134	Br	1.752893	0.276014	-0.348796
H135	H	1.043364	-0.404444	-1.079308
H136	H	1.543364	0.095556	-0.579308
Br137	Br	1.252783	-0.731163	-0.259942
Br138	Br	1.752783	-0.231163	0.240058
H139	H	1.043325	-0.404471	-0.930580
H140	H	1.543325	0.095529	-0.430580
H141	H	1.043188	-0.583751	-0.469140
H142	H	1.543188	-0.083751	0.030860
H143	H	1.043247	-0.711996	-0.469164
H144	H	1.543247	-0.211996	0.030836
Br145	Br	1.016052	-0.427990	-0.848698
Br146	Br	1.516052	0.072010	-0.348698
H147	H	1.043386	-1.067754	-0.469238
H148	H	1.543386	-0.567754	0.030762
Br149	Br	1.252852	-0.920309	-0.259976
Br150	Br	1.752852	-0.420309	0.240024
H151	H	0.434042	-0.247682	-0.469434
H152	H	0.934042	0.252318	0.030566
Br153	Br	1.016059	-0.920334	-0.496445
Br154	Br	1.516059	-0.420334	0.003555
H155	H	1.225567	-0.247496	-0.677811
H156	H	1.725567	0.252504	-0.177811
Br157	Br	1.252908	-0.223897	-1.101647
Br158	Br	1.752908	0.276103	-0.601647
Br159	Br	0.411630	-0.428039	-0.259661
Br160	Br	0.911630	0.071961	0.240339
H161	H	1.043289	-0.404531	-0.677730
H162	H	1.543289	0.095469	-0.177730
Br163	Br	0.604871	-0.428006	-0.259619
Br164	Br	1.104871	0.071994	0.240381
Br165	Br	0.664664	-0.224192	-0.496715
Br166	Br	1.164664	0.275808	0.003285
H167	H	0.686754	-0.404518	-0.286912
H168	H	1.186754	0.095482	0.213088
H169	H	1.225645	-1.067746	-0.287235
H170	H	1.725645	-0.567746	0.212765
