data_functionalizedCrystal
_audit_creation_method	'MofGen! by Chris Wilmer'
_symmetry_space_group_name_H-M	'P1'
_symmetry_Int_Tables_number	1
_symmetry_cell_setting	triclinic
loop_
_symmetry_equiv_pos_as_xyz
  x,y,z
_cell_length_a	19.188933
_cell_length_b	19.288865
_cell_length_c	18.366186
_cell_angle_alpha	90.011479
_cell_angle_beta	89.992367
_cell_angle_gamma	96.859092
loop_
_atom_site_label
_atom_site_type_symbol
_atom_site_fract_x
_atom_site_fract_y
_atom_site_fract_z
O1	O	0.926142	-0.086724	-0.060534
O2	O	0.722830	-0.098396	-0.060542
O3	O	0.830361	0.008570	-0.060523
O4	O	0.818611	-0.193690	-0.060552
O5	O	0.830342	0.008575	0.060576
O6	O	0.722812	-0.098391	0.060558
O7	O	0.926124	-0.086719	0.060566
Zn8	Zn	0.824465	-0.092554	0.079789
Zn9	Zn	0.824489	-0.092561	-0.079765
O10	O	0.818593	-0.193685	0.060547
C11	C	0.696810	-0.098015	0.000007
C12	C	0.619305	-0.096880	0.000005
C13	C	0.066061	-0.088780	-0.065997
C14	C	0.138885	-0.089842	-0.066000
C15	C	0.175292	-0.090374	0.000011
C16	C	0.138871	-0.089825	0.066029
C17	C	0.066049	-0.088756	0.066031
N18	N	0.284301	-0.131576	0.049140
N19	N	0.353479	-0.132594	0.049134
C20	C	0.394700	-0.093595	0.000011
N21	N	0.364130	-0.053549	-0.049117
N22	N	0.294945	-0.052535	-0.049113
C23	C	0.254255	-0.091534	0.000017
C24	C	0.510077	-0.095291	-0.066006
C25	C	0.582903	-0.096350	-0.066007
C26	C	0.582887	-0.096339	0.066025
C27	C	0.510063	-0.095274	0.066023
C28	C	0.473662	-0.094754	0.000006
C29	C	0.829973	0.034449	0.000029
C30	C	0.828839	0.111552	0.000035
C31	C	0.952144	-0.087100	0.000015
C32	C	1.029648	-0.088235	0.000013
C33	C	0.818980	-0.219564	-0.000006
C34	C	0.820115	-0.296668	-0.000018
N35	N	0.824453	-0.092549	0.188680
C36	C	0.891933	0.156244	0.000041
C37	C	0.890867	0.228691	0.000030
C38	C	0.826703	0.256443	0.000027
C39	C	0.763600	0.211742	0.000017
C40	C	0.764668	0.139297	0.000021
C41	C	0.776256	0.364737	0.042443
C42	C	0.775190	0.437181	0.042443
C43	C	0.823406	0.479889	0.000010
C44	C	0.872699	0.450145	-0.042414
C45	C	0.873767	0.377700	-0.042409
C46	C	0.825537	0.334998	0.000022
C47	C	0.885348	0.603137	0.000003
C48	C	0.884279	0.675585	-0.000013
C49	C	0.757011	0.658635	-0.000019
C50	C	0.758082	0.586188	-0.000010
C51	C	0.822252	0.558444	0.000004
N52	N	0.824506	-0.092561	-0.188656
C53	C	0.872084	-0.045208	0.226789
C54	C	0.872088	-0.045205	0.303016
C55	C	0.824469	-0.092555	0.341133
C56	C	0.776830	-0.139900	0.303015
C57	C	0.776822	-0.139897	0.226789
C58	C	0.815122	-0.155842	0.461884
C59	C	0.815135	-0.155846	0.538109
C60	C	0.824489	-0.092563	0.576240
C61	C	0.833845	-0.029275	0.538138
C62	C	0.833837	-0.029272	0.461911
C63	C	0.824472	-0.092563	0.423787
C64	C	0.872126	-0.045215	0.697004
C65	C	0.872126	-0.045211	0.773233
C66	C	0.776871	-0.139912	0.773230
C67	C	0.776868	-0.139910	0.697002
C68	C	0.824500	-0.092562	0.658894
H69	H	0.036402	-0.088315	0.119786
H70	H	0.168518	-0.090257	0.119776
F71	F	0.843805	0.038080	0.578714
H72	H	0.713288	0.102909	0.000016
F73	F	0.926223	0.346046	-0.087562
H74	H	0.910866	-0.006653	0.195763
H75	H	0.910910	-0.006656	0.804262
H76	H	0.480416	-0.094833	0.119776
H77	H	0.944185	0.133659	0.000050
F78	F	0.177645	-0.090423	-0.136260
F79	F	0.951437	0.723149	-0.000012
H80	H	0.942247	0.265085	0.000032
F81	F	0.471335	-0.094733	-0.136267
H82	H	0.612550	-0.096788	-0.119762
H83	H	0.911960	0.484917	-0.076967
F84	F	0.621631	-0.096896	0.136280
H85	H	0.910909	-0.006659	0.665975
H86	H	0.704768	0.681230	-0.000025
H87	H	0.937600	0.580546	0.000011
F88	F	0.726177	-0.190300	0.656441
F89	F	0.922785	0.005185	0.343581
F90	F	0.726187	-0.190301	0.813793
F91	F	0.690928	0.538623	-0.000014
F92	F	0.843788	0.038082	0.421362
F93	F	0.805182	-0.223202	0.578653
F94	F	0.805217	-0.223201	0.421309
F95	F	0.722732	0.468831	0.087597
F96	F	0.724936	0.319290	0.087611
H97	H	0.711357	0.234343	0.000013
F98	F	0.726126	-0.190286	0.186229
F99	F	0.027325	-0.088222	-0.136260
F100	F	0.726148	-0.190291	0.343581
