data_functionalizedCrystal
_audit_creation_method	'MofGen! by Chris Wilmer'
_symmetry_space_group_name_H-M	'P1'
_symmetry_Int_Tables_number	1
_symmetry_cell_setting	triclinic
loop_
_symmetry_equiv_pos_as_xyz
  x,y,z
_cell_length_a	19.288864
_cell_length_b	11.792241
_cell_length_c	18.366186
_cell_angle_alpha	89.993644
_cell_angle_beta	89.977106
_cell_angle_gamma	83.664831
loop_
_atom_site_label
_atom_site_type_symbol
_atom_site_fract_x
_atom_site_fract_y
_atom_site_fract_z
O1	O	0.922157	0.141582	-0.060784
O2	O	0.720005	0.160681	-0.060734
O3	O	0.825987	-0.014113	-0.060755
O4	O	0.816175	0.316377	-0.060763
O5	O	0.825968	-0.014122	0.060345
O6	O	0.719987	0.160673	0.060365
O7	O	0.922139	0.141574	0.060316
Zn8	Zn	0.821060	0.151122	0.079568
Zn9	Zn	0.821084	0.151133	-0.079986
O10	O	0.816157	0.316368	0.060337
C11	C	0.694116	0.160063	-0.000178
C12	C	0.617002	0.158218	-0.000159
C13	C	0.825361	-0.056399	-0.000205
C14	C	0.823517	-0.182385	-0.000206
C15	C	0.572888	0.260779	-0.000173
C16	C	0.500431	0.259046	-0.000181
C17	C	0.472091	0.154746	-0.000189
C18	C	0.516215	0.052171	-0.000171
C19	C	0.588670	0.053907	-0.000156
C20	C	0.363370	0.072757	-0.042638
C21	C	0.290915	0.071025	-0.042658
C22	C	0.248615	0.149387	-0.000233
C23	C	0.278777	0.229500	0.042202
C24	C	0.351232	0.231236	0.042217
C25	C	0.393526	0.152852	-0.000205
C26	C	0.125935	0.250076	-0.000255
C27	C	0.053477	0.248339	-0.000258
C28	C	0.069262	0.041460	-0.000256
C29	C	0.141718	0.043201	-0.000246
C30	C	0.170050	0.147512	-0.000248
C31	C	0.820125	-0.413045	-0.000217
C32	C	0.822009	-0.284689	-0.000211
C33	C	0.948028	0.142192	-0.000242
C34	C	1.025142	0.144037	-0.000266
C35	C	0.816783	0.358654	-0.000214
C36	C	0.818627	0.484640	-0.000219
N37	N	0.821049	0.151113	0.188459
N38	N	0.821101	0.151133	-0.188877
C39	C	0.867993	0.073752	0.226550
C40	C	0.867997	0.073747	0.302778
C41	C	0.821064	0.151123	0.340912
C42	C	0.774111	0.228490	0.302811
C43	C	0.774103	0.228485	0.226585
C44	C	0.812353	0.254534	0.461671
C45	C	0.812366	0.254540	0.537896
C46	C	0.821084	0.151137	0.576019
C47	C	0.829804	0.047723	0.537908
C48	C	0.829796	0.047719	0.461682
C49	C	0.821067	0.151136	0.423566
C50	C	0.868036	0.073764	0.696765
C51	C	0.868035	0.073757	0.772994
C52	C	0.774152	0.228510	0.773026
C53	C	0.774149	0.228507	0.696799
C54	C	0.821095	0.151135	0.658673
H55	H	0.595951	0.345717	-0.000176
H56	H	0.805242	0.338743	0.430637
F57	F	0.635621	-0.055258	-0.000141
H58	H	0.017560	0.331860	-0.000265
F59	F	0.258821	-0.014228	-0.087828
F60	F	0.724159	0.310835	0.343396
F61	F	0.724187	0.310850	0.656256
F62	F	0.039105	-0.069545	-0.000259
F63	F	0.486052	-0.058833	-0.000177
F64	F	0.408383	-0.010653	-0.087795
H65	H	0.177637	-0.040316	-0.000238
H66	H	0.906217	0.010749	0.195510
H67	H	0.906226	0.010748	0.333797
H68	H	0.836895	-0.036484	0.430655
H69	H	0.375787	0.296463	0.076772
H70	H	0.836903	-0.036477	0.568946
F71	F	0.917996	-0.008586	0.656188
H72	H	0.906261	0.010755	0.804009
F73	F	0.453473	0.368210	-0.000193
F74	F	0.156090	0.361091	-0.000252
F75	F	0.803090	0.364601	0.578449
F76	F	0.724198	0.310852	0.813608
H77	H	0.244337	0.293309	0.076749
F78	F	0.724137	0.310827	0.186044
