data_functionalizedCrystal
_audit_creation_method	'MofGen! by Chris Wilmer'
_symmetry_space_group_name_H-M	'P1'
_symmetry_Int_Tables_number	1
_symmetry_cell_setting	triclinic
loop_
_symmetry_equiv_pos_as_xyz
  x,y,z
_cell_length_a	12.759395
_cell_length_b	21.295417
_cell_length_c	12.759387
_cell_angle_alpha	90.038536
_cell_angle_beta	90.020509
_cell_angle_gamma	90.032044
loop_
_atom_site_label
_atom_site_type_symbol
_atom_site_fract_x
_atom_site_fract_y
_atom_site_fract_z
Zn1	Zn	1.606153	-0.250550	0.593949
Zn2	Zn	1.605995	-0.355833	0.418245
Zn3	Zn	1.430451	-0.250585	0.418285
Zn4	Zn	1.430395	-0.355788	0.593884
O5	O	1.518249	-0.303189	0.506091
O6	O	1.753153	-0.264521	0.570651
O7	O	1.582667	-0.341905	0.271229
O8	O	1.453848	-0.162491	0.441631
O9	O	1.753037	-0.341871	0.441563
O10	O	1.582936	-0.162465	0.570690
O11	O	1.453695	-0.264579	0.271259
O12	O	1.283423	-0.264536	0.441569
O13	O	1.453753	-0.341795	0.740914
O14	O	1.283382	-0.341828	0.570581
O15	O	1.582881	-0.264477	0.740961
O16	O	1.582612	-0.443917	0.441501
O17	O	1.453600	-0.443884	0.570542
C18	C	1.245281	-0.303181	0.506073
C19	C	1.128505	-0.303193	0.506090
C20	C	1.518111	-0.466741	0.506033
C21	C	1.518148	-0.536709	0.506043
C22	C	1.128500	-0.383808	0.640213
C23	C	1.073637	-0.424121	0.707277
C24	C	0.963916	-0.424129	0.707290
C25	C	0.909055	-0.383818	0.640233
C26	C	0.963918	-0.343506	0.573169
C27	C	1.073642	-0.343504	0.573161
C28	C	0.963922	-0.262888	0.439053
C29	C	1.073644	-0.262883	0.439034
C30	C	0.909061	-0.222578	0.371997
C31	C	0.963924	-0.182267	0.304926
C32	C	1.073652	-0.182262	0.304915
C33	C	1.128507	-0.222570	0.371969
C34	C	1.585385	-0.569572	0.438920
C35	C	1.585434	-0.635314	0.438944
C36	C	1.518228	-0.668191	0.506079
C37	C	1.450987	-0.635320	0.573215
C38	C	1.450947	-0.569579	0.573197
N39	N	1.426321	-0.771458	0.514083
N40	N	1.426362	-0.833909	0.514094
C41	C	1.518346	-0.866266	0.506139
N42	N	1.610289	-0.833812	0.498153
N43	N	1.610247	-0.771355	0.498137
C44	C	1.518264	-0.739477	0.506107
C45	C	1.585641	-0.970414	0.439039
C46	C	1.585692	-1.036158	0.439070
C47	C	1.451236	-1.036163	0.573336
C48	C	1.451194	-0.970421	0.573310
C49	C	1.518395	-0.937550	0.506156
C50	C	1.792282	-0.303197	0.506110
C51	C	1.909059	-0.303201	0.506118
C52	C	1.518328	-0.303127	0.780125
C53	C	1.518362	-0.303101	0.896901
C54	C	1.518416	-0.138999	0.506172
C55	C	1.518487	-0.069031	0.506207
C56	C	1.518230	-0.303205	0.233123
C57	C	1.518400	-0.303054	0.116347
C58	C	1.652833	-0.222595	0.896970
C59	C	1.720083	-0.182333	0.951865
C60	C	1.720108	-0.182310	1.061587
C61	C	1.652874	-0.222552	1.116416
C62	C	1.585624	-0.262815	1.061521
C63	C	1.585608	-0.262835	0.951797
C64	C	1.451150	-0.343316	1.061452
C65	C	1.451128	-0.343344	0.951730
C66	C	1.383916	-0.383559	1.116281
C67	C	1.316670	-0.423825	1.061386
C68	C	1.316648	-0.423847	0.951657
C69	C	1.383878	-0.383606	0.896835
H70	H	1.118317	-0.456940	0.761875
H71	H	1.774821	-0.149567	0.907212
H72	H	1.396439	-0.943662	0.627964
H73	H	1.217841	-0.383811	0.640201
C74	C	1.242719	-0.468087	1.121696
C75	C	1.242738	-0.468059	1.242386
C76	C	1.168787	-0.512322	1.302702
C77	C	1.094817	-0.556614	1.242327
C78	C	1.094795	-0.556644	1.121630
C79	C	1.168746	-0.512381	1.061315
H80	H	1.297498	-0.435269	1.287086
H81	H	1.168803	-0.512299	1.392050
H82	H	1.040073	-0.589380	1.286976
H83	H	1.040035	-0.589433	1.076931
H84	H	1.168729	-0.512404	0.971967
C85	C	1.659393	-0.671472	0.365097
C86	C	1.741886	-0.716601	0.410693
C87	C	1.815843	-0.752756	0.336844
C88	C	1.807308	-0.743781	0.217399
C89	C	1.724813	-0.698649	0.171797
C90	C	1.650855	-0.662495	0.245646
H91	H	1.748207	-0.723247	0.499119
H92	H	1.876912	-0.786165	0.370603
H93	H	1.862056	-0.770545	0.162732
H94	H	1.718492	-0.692004	0.083371
H95	H	1.589787	-0.629086	0.211887
H96	H	1.396520	-1.062931	0.628003
H97	H	1.640451	-1.062914	0.384412
C98	C	1.794084	-0.138023	1.121979
C99	C	1.868037	-0.093758	1.061680
C100	C	1.942012	-0.049472	1.122072
C101	C	1.942034	-0.049451	1.242762
C102	C	1.868079	-0.093718	1.303067
C103	C	1.794103	-0.138004	1.242676
H104	H	1.868023	-0.093771	0.972332
H105	H	1.996759	-0.016702	1.077429
H106	H	1.996795	-0.016668	1.287468
H107	H	1.868093	-0.093704	1.392415
H108	H	1.739356	-0.170773	1.287318
H109	H	0.919246	-0.456951	0.761905
C110	C	1.133998	-0.137915	0.231143
C111	C	1.073649	-0.093578	0.157392
C112	C	1.133990	-0.049230	0.083620
C113	C	1.254680	-0.049219	0.083599
C114	C	1.315035	-0.093557	0.157353
C115	C	1.254695	-0.137905	0.231125
H116	H	0.984301	-0.093585	0.157405
H117	H	1.089310	-0.016408	0.029023
H118	H	1.299348	-0.016390	0.028989
H119	H	1.404384	-0.093550	0.157340
H120	H	1.299375	-0.170728	0.285722
H121	H	0.819713	-0.383822	0.640259
H122	H	1.652829	-0.222616	0.807629
C123	C	1.242671	-0.468137	0.891274
C124	C	1.123244	-0.462986	0.906345
C125	C	1.049267	-0.507277	0.845966
C126	C	1.094717	-0.556719	0.770516
C127	C	1.214150	-0.561873	0.755442
C128	C	1.288127	-0.517582	0.815821
H129	H	1.089594	-0.426383	0.962200
H130	H	0.960855	-0.503461	0.857125
H131	H	1.039954	-0.589506	0.725820
H132	H	1.247800	-0.598476	0.699587
H133	H	1.376539	-0.521398	0.804662
H134	H	1.383871	-0.383622	0.807494
H135	H	0.819720	-0.222584	0.372017
C136	C	1.659315	-0.533418	0.365059
C137	C	1.650809	-0.542526	0.245619
C138	C	1.724743	-0.506372	0.171759
C139	C	1.807182	-0.461110	0.217339
C140	C	1.815692	-0.452000	0.336785
C141	C	1.741758	-0.488154	0.410646
H142	H	1.589780	-0.576033	0.211872
H143	H	1.718443	-0.513116	0.083336
H144	H	1.861912	-0.434347	0.162663
H145	H	1.876721	-0.418493	0.370532
H146	H	1.748058	-0.481410	0.499068
C147	C	1.377058	-0.671483	0.647064
C148	C	1.257621	-0.662512	0.638388
C149	C	1.183693	-0.698673	0.712243
C150	C	1.229203	-0.743806	0.794775
C151	C	1.348646	-0.752779	0.803454
C152	C	1.422573	-0.716617	0.729599
H153	H	1.223926	-0.629100	0.577290
H154	H	1.095273	-0.692031	0.705817
H155	H	1.174477	-0.770575	0.849447
H156	H	1.382340	-0.786190	0.864552
H157	H	1.510993	-0.723260	0.736025
C158	C	1.659569	-0.934252	0.365182
C159	C	1.733543	-0.970404	0.291356
C160	C	1.807471	-0.934243	0.217499
C161	C	1.807424	-0.861930	0.217468
C162	C	1.733446	-0.825774	0.291297
C163	C	1.659519	-0.861935	0.365154
H164	H	1.733581	-1.023938	0.291376
H165	H	1.862234	-0.961009	0.162847
H166	H	1.862149	-0.835162	0.162795
H167	H	1.733409	-0.772240	0.291277
H168	H	1.604756	-0.835169	0.419806
H169	H	0.919247	-0.149447	0.250339
H170	H	1.652892	-0.222525	1.205757
H171	H	1.383938	-0.383535	1.205622
H172	H	1.217848	-0.222571	0.371964
H173	H	1.396194	-0.542822	0.627858
