data_functionalizedCrystal
_audit_creation_method	'MofGen! by Chris Wilmer'
_symmetry_space_group_name_H-M	'P1'
_symmetry_Int_Tables_number	1
_symmetry_cell_setting	triclinic
loop_
_symmetry_equiv_pos_as_xyz
  x,y,z
_cell_length_a	11.792254
_cell_length_b	11.792241
_cell_length_c	10.868271
_cell_angle_alpha	90.005281
_cell_angle_beta	90.004259
_cell_angle_gamma	84.196007
loop_
_atom_site_label
_atom_site_type_symbol
_atom_site_fract_x
_atom_site_fract_y
_atom_site_fract_z
O1	O	1.506900	0.155637	0.102322
O2	O	1.756900	0.405637	0.352322
O3	O	2.006900	0.655637	0.602322
O4	O	2.256900	0.905637	0.852322
O5	O	1.176561	0.171655	0.102324
O6	O	1.426561	0.421655	0.352324
O7	O	1.676561	0.671655	0.602324
O8	O	1.926561	0.921655	0.852324
O9	O	1.349747	-0.001524	0.102314
O10	O	1.599747	0.248476	0.352314
O11	O	1.849747	0.498476	0.602314
O12	O	2.099747	0.748476	0.852314
O13	O	1.333714	0.328816	0.102332
O14	O	1.583714	0.578816	0.352332
O15	O	1.833714	0.828816	0.602332
O16	O	2.083714	1.078816	0.852332
O17	O	1.349732	-0.001531	-0.102330
O18	O	1.599732	0.248469	0.147670
O19	O	1.849732	0.498469	0.397670
O20	O	2.099732	0.748469	0.647670
O21	O	1.176546	0.171648	-0.102320
O22	O	1.426546	0.421648	0.147680
O23	O	1.676546	0.671648	0.397680
O24	O	1.926546	0.921648	0.647680
O25	O	1.506885	0.155630	-0.102323
O26	O	1.756885	0.405630	0.147677
O27	O	2.006885	0.655630	0.397677
O28	O	2.256885	0.905630	0.647677
Zn29	Zn	1.341714	0.163638	-0.134813
Zn30	Zn	1.591714	0.413638	0.115187
Zn31	Zn	1.841714	0.663638	0.365187
Zn32	Zn	2.091714	0.913638	0.615187
Zn33	Zn	1.341733	0.163647	0.134815
Zn34	Zn	1.591733	0.413647	0.384815
Zn35	Zn	1.841733	0.663647	0.634815
Zn36	Zn	2.091733	0.913647	0.884815
O37	O	1.333699	0.328809	-0.102313
O38	O	1.583699	0.578809	0.147687
O39	O	1.833699	0.828809	0.397687
O40	O	2.083699	1.078809	0.647687
C41	C	1.134263	0.170642	0.000002
C42	C	1.384263	0.420642	0.250002
C43	C	1.634263	0.670642	0.500002
C44	C	1.884263	0.920642	0.750002
C45	C	1.008250	0.167622	0.000003
C46	C	1.258250	0.417622	0.250003
C47	C	1.508250	0.667622	0.500003
C48	C	1.758250	0.917622	0.750003
C49	C	1.348732	-0.043819	-0.000008
C50	C	1.598732	0.206181	0.249992
C51	C	1.848732	0.456181	0.499992
C52	C	2.098732	0.706181	0.749992
C53	C	1.345718	-0.169832	-0.000006
C54	C	1.595718	0.080168	0.249994
C55	C	1.845718	0.330168	0.499994
C56	C	2.095718	0.580168	0.749994
C57	C	0.905913	0.165168	0.000008
C58	C	1.155913	0.415168	0.250008
C59	C	1.405913	0.665168	0.500008
C60	C	1.655913	0.915168	0.750008
C61	C	0.777527	0.162100	0.000009
C62	C	1.027527	0.412100	0.250009
C63	C	1.277527	0.662100	0.500009
C64	C	1.527527	0.912100	0.750009
C65	C	1.340175	-0.400545	0.000014
C66	C	1.590175	-0.150545	0.250014
C67	C	1.840175	0.099455	0.500014
C68	C	2.090175	0.349455	0.750014
C69	C	1.343255	-0.272160	0.000003
C70	C	1.593255	-0.022160	0.250003
C71	C	1.843255	0.227840	0.500003
C72	C	2.093255	0.477840	0.750003
C73	C	1.549183	0.156643	0.000002
C74	C	1.799183	0.406643	0.250002
C75	C	2.049183	0.656643	0.500002
C76	C	2.299183	0.906643	0.750002
C77	C	1.675196	0.159663	0.000009
C78	C	1.925196	0.409663	0.250009
C79	C	2.175196	0.659663	0.500009
C80	C	2.425196	0.909663	0.750009
C81	C	1.334714	0.371104	0.000012
C82	C	1.584714	0.621104	0.250012
C83	C	1.834714	0.871104	0.500012
C84	C	2.084714	1.121104	0.750012
C85	C	1.337728	0.497118	0.000019
C86	C	1.587728	0.747118	0.250019
C87	C	1.837728	0.997118	0.500019
C88	C	2.087728	1.247118	0.750019
N89	N	1.341709	0.163631	-0.318827
N90	N	1.591709	0.413631	-0.068827
N91	N	1.841709	0.663631	0.181173
N92	N	2.091709	0.913631	0.431173
C93	C	1.341727	0.163645	-0.569833
C94	C	1.591727	0.413645	-0.319833
C95	C	1.841727	0.663645	-0.069833
C96	C	2.091727	0.913645	0.180167
C97	C	1.341713	0.163640	-0.430156
C98	C	1.591713	0.413640	-0.180156
C99	C	1.841713	0.663640	0.069844
C100	C	2.091713	0.913640	0.319844
N101	N	1.341746	0.163645	0.318829
N102	N	1.591746	0.413645	0.568829
N103	N	1.841746	0.663645	0.818829
N104	N	2.091746	0.913645	1.068829
