data_functionalizedCrystal
_audit_creation_method	'MofGen! by Chris Wilmer'
_symmetry_space_group_name_H-M	'P1'
_symmetry_Int_Tables_number	1
_symmetry_cell_setting	triclinic
loop_
_symmetry_equiv_pos_as_xyz
  x,y,z
_cell_length_a	13.897447
_cell_length_b	13.032831
_cell_length_c	13.897441
_cell_angle_alpha	97.193526
_cell_angle_beta	90.029327
_cell_angle_gamma	82.824382
loop_
_atom_site_label
_atom_site_type_symbol
_atom_site_fract_x
_atom_site_fract_y
_atom_site_fract_z
Zn1	Zn	-0.571545	1.597699	0.732379
Zn2	Zn	-0.071545	2.097699	1.232379
Zn3	Zn	-0.732853	1.597579	0.571070
Zn4	Zn	-0.232853	2.097579	1.071070
Zn5	Zn	-0.551071	1.422933	0.550643
Zn6	Zn	-0.051071	1.922933	1.050643
Zn7	Zn	-0.712280	1.422908	0.711880
Zn8	Zn	-0.212280	1.922908	1.211880
O9	O	-0.641937	1.510280	0.641493
O10	O	-0.141937	2.010280	1.141493
O11	O	-0.610121	1.743924	0.728109
O12	O	-0.110121	2.243924	1.228109
O13	O	-0.708780	1.574372	0.433374
O14	O	-0.208780	2.074372	0.933374
O15	O	-0.418812	1.446177	0.574781
O16	O	0.081188	1.946177	1.074781
O17	O	-0.728633	1.743836	0.609596
O18	O	-0.228633	2.243836	1.109596
O19	O	-0.433855	1.574577	0.708302
O20	O	0.066145	2.074577	1.208302
O21	O	-0.575226	1.446060	0.418367
O22	O	-0.075226	1.946060	0.918367
O23	O	-0.555278	1.276689	0.554904
O24	O	-0.055278	1.776689	1.054904
O25	O	-0.693571	1.446134	0.849585
O26	O	-0.193571	1.946134	1.349585
O27	O	-0.673717	1.276670	0.673363
O28	O	-0.173717	1.776670	1.173363
O29	O	-0.590173	1.574553	0.864646
O30	O	-0.090173	2.074553	1.364646
O31	O	-0.865098	1.574347	0.589718
O32	O	-0.365098	2.074347	1.089718
O33	O	-0.849984	1.446017	0.693170
O34	O	-0.349984	1.946017	1.193170
C35	C	-0.610044	1.238761	0.609693
C36	C	-0.110044	1.738761	1.109693
C37	C	-0.596423	1.122604	0.596112
C38	C	-0.096423	1.622604	1.096112
C39	C	-0.892542	1.510195	0.641461
C40	C	-0.392542	2.010195	1.141461
C41	C	-0.999763	1.510254	0.641490
C42	C	-0.499763	2.010254	1.141490
C43	C	-0.649046	1.070836	0.648581
C44	C	-0.149046	1.570836	1.148581
C45	C	-0.634970	0.950781	0.634545
C46	C	-0.134970	1.450781	1.134545
C47	C	-1.086838	1.510305	0.641518
C48	C	-0.586838	2.010305	1.141518
C49	C	-1.196079	1.510378	0.641551
C50	C	-0.696079	2.010378	1.141551
C51	C	-0.390358	1.510394	0.641550
C52	C	0.109642	2.010394	1.141550
C53	C	-0.283150	1.510442	0.641574
C54	C	0.216850	2.010442	1.141574
C55	C	-0.641861	1.510354	0.893095
C56	C	-0.141861	2.010354	1.393095
C57	C	-0.641828	1.510386	1.000312
C58	C	-0.141828	2.010386	1.500312
C59	C	-0.673956	1.782859	0.673417
C60	C	-0.173956	2.282859	1.173417
C61	C	-0.687600	1.899016	0.687022
C62	C	-0.187600	2.399016	1.187022
C63	C	-0.641951	1.510266	0.390877
C64	C	-0.141951	2.010266	0.890877
C65	C	-0.641736	1.510437	0.283684
C66	C	-0.141736	2.010437	0.783684
C67	C	-0.641766	1.510414	1.196611
C68	C	-0.141766	2.010414	1.696611
C69	C	-0.641803	1.510395	1.087376
C70	C	-0.141803	2.010395	1.587376
H71	H	-0.704517	1.115395	0.703896
H72	H	-0.204517	1.615395	1.203896
H73	H	-0.540946	1.078045	0.540805
H74	H	-0.040946	1.578045	1.040805
N75	N	-0.565367	0.894881	0.565164
N76	N	-0.065367	1.394881	1.065164
N77	N	-0.554027	0.797436	0.553865
N78	N	-0.054027	1.297436	1.053865
H79	H	-0.504870	0.757954	0.504867
H80	H	-0.004870	1.257954	1.004867
H81	H	-0.743073	0.943570	0.742343
H82	H	-0.243073	1.443570	1.242343
