data_functionalizedCrystal
_audit_creation_method	'MofGen! by Chris Wilmer'
_symmetry_space_group_name_H-M	'P1'
_symmetry_Int_Tables_number	1
_symmetry_cell_setting	triclinic
loop_
_symmetry_equiv_pos_as_xyz
  x,y,z
_cell_length_a	11.792241
_cell_length_b	10.268362
_cell_length_c	14.971494
_cell_angle_alpha	89.999629
_cell_angle_beta	83.905487
_cell_angle_gamma	90.000426
loop_
_atom_site_label
_atom_site_type_symbol
_atom_site_fract_x
_atom_site_fract_y
_atom_site_fract_z
O1	O	1.506123	0.108168	0.122592
O2	O	1.175701	0.108198	0.135227
O3	O	1.349764	0.108180	-0.001255
O4	O	1.332061	0.108187	0.259074
O5	O	1.349747	-0.108421	-0.001250
O6	O	1.175685	-0.108402	0.135232
O7	O	1.506107	-0.108432	0.122597
Cu8	Cu	1.340894	-0.128195	0.128915
Cu9	Cu	1.340914	0.127961	0.128909
O10	O	1.332044	-0.108414	0.259078
C11	C	1.133407	-0.000098	0.134436
C12	C	1.007409	-0.000087	0.132060
C13	C	0.776724	-0.000124	0.127692
C14	C	0.905094	-0.000104	0.130119
N15	N	1.340888	-0.308360	0.128918
C16	C	1.340897	-0.426203	0.128918
C17	C	1.340911	-0.574041	0.128910
C18	C	1.548401	-0.000133	0.123388
C19	C	1.674399	-0.000136	0.125764
C20	C	1.348962	-0.000119	-0.034580
C21	C	1.346584	-0.000112	-0.133886
N22	N	1.340928	0.308127	0.128899
C23	C	1.345479	0.117958	-0.180538
C24	C	1.343238	0.117960	-0.273846
C25	C	1.342110	-0.000110	-0.320501
C26	C	1.343212	-0.118190	-0.273843
C27	C	1.345445	-0.118190	-0.180536
C28	C	1.338560	-0.118181	-0.468325
C29	C	1.336329	-0.118181	-0.561638
C30	C	1.336353	0.117970	-0.561635
C31	C	1.338586	0.117969	-0.468328
C32	C	1.339690	-0.000111	-0.421676
C33	C	1.332846	-0.000112	0.292404
C34	C	1.335224	-0.000110	0.391710
H35	H	1.346403	0.214105	-0.142558
H36	H	1.342342	0.214105	-0.311826
H37	H	1.335401	-0.214324	-0.599622
H38	H	1.342287	-0.214325	-0.311836
Cl39	Cl	1.340014	0.266403	-0.409677
H40	H	1.346329	-0.214336	-0.142551
Cl41	Cl	1.339953	-0.266627	-0.409678
H42	H	1.335452	0.214115	-0.599623
