data_functionalizedCrystal
_audit_creation_method	'MofGen! by Chris Wilmer'
_symmetry_space_group_name_H-M	'P1'
_symmetry_Int_Tables_number	1
_symmetry_cell_setting	triclinic
loop_
_symmetry_equiv_pos_as_xyz
  x,y,z
_cell_length_a	14.519709
_cell_length_b	17.038278
_cell_length_c	13.596369
_cell_angle_alpha	89.986926
_cell_angle_beta	90.000291
_cell_angle_gamma	87.395324
loop_
_atom_site_label
_atom_site_type_symbol
_atom_site_fract_x
_atom_site_fract_y
_atom_site_fract_z
O1	O	1.231710	0.102502	-0.081679
O2	O	0.964157	0.114573	-0.081711
O3	O	1.096344	-0.005280	-0.081670
O4	O	1.099522	0.222356	-0.081720
O5	O	1.096330	-0.005286	0.081913
O6	O	0.964142	0.114567	0.081872
O7	O	1.231695	0.102496	0.081904
Zn8	Zn	1.097916	0.108530	0.107860
Zn9	Zn	1.097936	0.108539	-0.107667
O10	O	1.099508	0.222349	0.081863
C11	C	0.929746	0.114008	0.000077
C12	C	0.827236	0.112322	0.000066
C13	C	1.093445	-0.034416	0.000125
C14	C	1.084816	-0.121223	0.000137
C15	C	0.451866	0.106116	0.000112
C16	C	0.556305	0.107839	0.000099
C17	C	0.639548	0.109219	0.000088
C18	C	0.743994	0.110942	0.000076
C19	C	1.031804	-0.611721	0.000041
C20	C	1.039919	-0.530157	0.000051
C21	C	1.127267	-0.498582	0.000075
C22	C	1.206505	-0.548575	0.000079
C23	C	1.198389	-0.630137	0.000061
C24	C	1.155938	-0.252778	0.000123
C25	C	1.164048	-0.171210	0.000143
C26	C	0.997461	-0.152797	0.000114
C27	C	0.989353	-0.234362	0.000103
C28	C	1.068591	-0.284348	0.000101
C29	C	1.135564	-0.415211	0.000089
C30	C	1.060293	-0.367717	0.000080
C31	C	1.266105	0.103062	0.000114
C32	C	1.368616	0.104748	0.000119
C33	C	1.102407	0.251486	0.000065
C34	C	1.111036	0.338292	0.000047
N35	N	1.097910	0.108524	0.254952
N36	N	1.097949	0.108539	-0.254759
C37	C	1.097934	0.108540	0.656243
C38	C	1.097925	0.108538	0.544592
C39	C	1.097923	0.108533	0.455601
C40	C	1.097912	0.108530	0.343943
H41	H	0.960676	-0.637422	0.000033
H42	H	1.235181	-0.145505	0.000163
F43	F	1.299468	-0.514969	0.000096
H44	H	1.206683	-0.389494	0.000141
H45	H	1.220460	-0.293468	0.000127
F46	F	1.282719	-0.683337	0.000063
H47	H	0.932950	-0.112090	0.000115
H48	H	0.918225	-0.260063	0.000072
F49	F	0.967334	-0.401323	0.000048
H50	H	0.975399	-0.489460	0.000043
