data_functionalizedCrystal
_audit_creation_method	'MofGen! by Chris Wilmer'
_symmetry_space_group_name_H-M	'P1'
_symmetry_Int_Tables_number	1
_symmetry_cell_setting	triclinic
loop_
_symmetry_equiv_pos_as_xyz
  x,y,z
_cell_length_a	15.186229
_cell_length_b	9.065218
_cell_length_c	9.065218
_cell_angle_alpha	85.015885
_cell_angle_beta	89.998095
_cell_angle_gamma	89.996565
loop_
_atom_site_label
_atom_site_type_symbol
_atom_site_fract_x
_atom_site_fract_y
_atom_site_fract_z
O1	O	0.073227	-1.960399	-0.216355
O2	O	0.323227	-1.710399	0.033645
O3	O	0.573227	-1.460399	0.283645
O4	O	0.823227	-1.210399	0.533645
O5	O	0.073228	-1.531114	-0.234101
O6	O	0.323228	-1.281114	0.015899
O7	O	0.573228	-1.031114	0.265899
O8	O	0.823228	-0.781114	0.515899
O9	O	0.073226	-1.754630	-0.010586
O10	O	0.323226	-1.504630	0.239414
O11	O	0.573226	-1.254630	0.489414
O12	O	0.823226	-1.004630	0.739414
O13	O	0.073229	-1.736884	-0.439871
O14	O	0.323229	-1.486884	-0.189871
O15	O	0.573229	-1.236884	0.060129
O16	O	0.823229	-0.986884	0.310129
O17	O	-0.073232	-1.754615	-0.010582
O18	O	0.176768	-1.504615	0.239418
O19	O	0.426768	-1.254615	0.489418
O20	O	0.676768	-1.004615	0.739418
O21	O	-0.073229	-1.531099	-0.234098
O22	O	0.176771	-1.281099	0.015902
O23	O	0.426771	-1.031099	0.265902
O24	O	0.676771	-0.781099	0.515902
O25	O	-0.073230	-1.960384	-0.216352
O26	O	0.176770	-1.710384	0.033648
O27	O	0.426770	-1.460384	0.283648
O28	O	0.676770	-1.210384	0.533648
Zn29	Zn	-0.096483	-1.745739	-0.225224
Zn30	Zn	0.153517	-1.495739	0.024776
Zn31	Zn	0.403517	-1.245739	0.274776
Zn32	Zn	0.653517	-0.995739	0.524776
Zn33	Zn	0.096481	-1.745759	-0.225229
Zn34	Zn	0.346481	-1.495759	0.024771
Zn35	Zn	0.596481	-1.245759	0.274771
Zn36	Zn	0.846481	-0.995759	0.524771
O37	O	-0.073228	-1.736868	-0.439867
O38	O	0.176772	-1.486868	-0.189867
O39	O	0.426772	-1.236868	0.060133
O40	O	0.676772	-0.986868	0.310133
C41	C	-0.000001	-1.476120	-0.232394
C42	C	0.249999	-1.226120	0.017606
C43	C	0.499999	-0.976120	0.267606
C44	C	0.749999	-0.726120	0.517606
C45	C	-0.000000	-1.312277	-0.227294
C46	C	0.250000	-1.062277	0.022706
C47	C	0.500000	-0.812277	0.272706
C48	C	0.750000	-0.562277	0.522706
N49	N	-0.228176	-1.745736	-0.225220
N50	N	0.021824	-1.495736	0.024780
N51	N	0.271824	-1.245736	0.274780
N52	N	0.521824	-0.995736	0.524780
C53	C	-0.000002	-1.752917	0.044403
C54	C	0.249998	-1.502917	0.294403
C55	C	0.499998	-1.252917	0.544403
C56	C	0.749998	-1.002917	0.794403
C57	C	0.000003	-1.747817	0.208245
C58	C	0.250003	-1.497817	0.458245
C59	C	0.500003	-1.247817	0.708245
C60	C	0.750003	-0.997817	0.958245
C61	C	-0.453900	-1.844744	-0.126282
C62	C	-0.203900	-1.594744	0.123718
C63	C	0.046100	-1.344744	0.373718
C64	C	0.296100	-1.094744	0.623718
C65	C	-0.546089	-1.844748	-0.126278
C66	C	-0.296089	-1.594748	0.123722
C67	C	-0.046089	-1.344748	0.373722
C68	C	0.203911	-1.094748	0.623722
C69	C	-0.546096	-1.646756	-0.324164
C70	C	-0.296096	-1.396756	-0.074164
C71	C	-0.046096	-1.146756	0.175836
C72	C	0.203904	-0.896756	0.425836
C73	C	-0.453908	-1.646745	-0.324159
C74	C	-0.203908	-1.396745	-0.074159
C75	C	0.046092	-1.146745	0.175841
C76	C	0.296092	-0.896745	0.425841
C77	C	-0.407812	-1.745747	-0.225220
C78	C	-0.157812	-1.495747	0.024780
C79	C	0.092188	-1.245747	0.274780
C80	C	0.342188	-0.995747	0.524780
C81	C	-0.592190	-1.745763	-0.225221
C82	C	-0.342190	-1.495763	0.024779
C83	C	-0.092190	-1.245763	0.274779
C84	C	0.157810	-0.995763	0.524779
C85	C	-0.692146	-1.745767	-0.225218
C86	C	-0.442146	-1.495767	0.024782
C87	C	-0.192146	-1.245767	0.274782
C88	C	0.057854	-0.995767	0.524782
C89	C	-0.307850	-1.745742	-0.225221
C90	C	-0.057850	-1.495742	0.024779
C91	C	0.192150	-1.245742	0.274779
C92	C	0.442150	-0.995742	0.524779
N93	N	0.228173	-1.745774	-0.225221
N94	N	0.478173	-1.495774	0.024779
N95	N	0.728173	-1.245774	0.274779
N96	N	0.978173	-0.995774	0.524779
C97	C	0.000000	-2.015378	-0.218059
C98	C	0.250000	-1.765378	0.031941
C99	C	0.500000	-1.515378	0.281941
C100	C	0.750000	-1.265378	0.531941
C101	C	0.000005	-2.179221	-0.223158
C102	C	0.250005	-1.929221	0.026842
C103	C	0.500005	-1.679221	0.276842
C104	C	0.750005	-1.429221	0.526842
C105	C	0.000001	-1.738582	-0.494855
C106	C	0.250001	-1.488582	-0.244855
C107	C	0.500001	-1.238582	0.005145
C108	C	0.750001	-0.988582	0.255145
C109	C	0.000003	-1.743681	-0.658698
C110	C	0.250003	-1.493681	-0.408698
C111	C	0.500003	-1.243681	-0.158698
C112	C	0.750003	-0.993681	0.091302
H113	H	-0.416370	-1.925355	-0.045717
H114	H	-0.166370	-1.675355	0.204283
H115	H	0.083630	-1.425355	0.454283
H116	H	0.333630	-1.175355	0.704283
H117	H	-0.583637	-1.566152	-0.404720
H118	H	-0.333637	-1.316152	-0.154720
H119	H	-0.083637	-1.066152	0.095280
H120	H	0.166363	-0.816152	0.345280
F121	F	-0.404855	-1.541369	-0.429462
F122	F	-0.154855	-1.291369	-0.179462
F123	F	0.095145	-1.041369	0.070538
F124	F	0.345145	-0.791369	0.320538
H125	H	-0.583611	-1.925358	-0.045712
H126	H	-0.333611	-1.675358	0.204288
H127	H	-0.083611	-1.425358	0.454288
H128	H	0.166389	-1.175358	0.704288
