data_functionalizedCrystal
_audit_creation_method	'MofGen! by Chris Wilmer'
_symmetry_space_group_name_H-M	'P1'
_symmetry_Int_Tables_number	1
_symmetry_cell_setting	triclinic
loop_
_symmetry_equiv_pos_as_xyz
  x,y,z
_cell_length_a	16.109301
_cell_length_b	10.654541
_cell_length_c	14.586319
_cell_angle_alpha	89.996435
_cell_angle_beta	89.999213
_cell_angle_gamma	83.972705
loop_
_atom_site_label
_atom_site_type_symbol
_atom_site_fract_x
_atom_site_fract_y
_atom_site_fract_z
O1	O	1.104090	0.161419	-0.076182
O2	O	0.862147	0.181508	-0.076196
O3	O	0.988682	-0.011352	-0.076183
O4	O	0.977554	0.354278	-0.076195
O5	O	0.988673	-0.011354	0.076298
O6	O	0.862138	0.181505	0.076284
O7	O	1.104081	0.161416	0.076299
Cu8	Cu	0.983109	0.171460	0.090214
Cu9	Cu	0.983119	0.171464	-0.090112
O10	O	0.977546	0.354276	0.076286
C11	C	0.831163	0.180692	0.000042
C12	C	0.738853	0.178253	0.000037
C13	C	0.517227	0.287019	0.000044
C14	C	0.430493	0.284717	0.000050
C15	C	0.449008	0.055896	0.000053
C16	C	0.535740	0.058200	0.000054
C17	C	0.569847	0.173765	0.000045
C18	C	0.396381	0.169159	0.000050
C19	C	0.302340	0.166662	0.000056
C20	C	0.663894	0.176262	0.000040
C21	C	0.987861	-0.058140	0.000057
C22	C	0.985418	-0.197550	0.000055
C23	C	1.136725	-0.227574	0.000076
C24	C	1.211227	-0.308079	0.000088
C25	C	1.208926	-0.439066	0.000085
C26	C	1.132115	-0.489549	0.000067
C27	C	1.057613	-0.409044	0.000055
C28	C	1.059922	-0.278056	0.000060
C29	C	0.906308	-0.379021	0.000027
C30	C	0.908607	-0.248034	0.000037
C31	C	0.829496	-0.429504	0.000010
C32	C	0.754992	-0.348998	0.000004
C33	C	0.757296	-0.218004	0.000008
C34	C	0.834104	-0.167529	0.000025
C35	C	1.135065	0.162231	0.000058
C36	C	1.227375	0.164671	0.000058
C37	C	0.978367	0.401064	0.000044
C38	C	0.980810	0.540474	0.000040
N39	N	0.983107	0.171457	0.217046
N40	N	0.983127	0.171457	-0.216944
C41	C	1.039156	0.086088	0.452058
C42	C	1.039158	0.086085	0.548040
C43	C	0.927072	0.256830	0.548037
C44	C	0.927067	0.256826	0.452058
C45	C	0.983113	0.171457	0.404071
C46	C	0.983121	0.171457	0.596032
C47	C	0.983123	0.171455	0.700099
C48	C	0.983110	0.171457	0.299997
H49	H	0.578586	-0.034032	0.000057
C50	C	0.866351	0.349586	0.399834
C51	C	0.911078	0.426453	0.344705
C52	C	0.855177	0.511900	0.296575
H53	H	0.832955	0.400557	0.442054
H54	H	0.831494	0.304427	0.362346
H55	H	0.945921	0.471609	0.382190
H56	H	0.944472	0.375517	0.302468
H57	H	0.820320	0.466741	0.259087
H58	H	0.821784	0.562862	0.338802
H59	H	0.885516	0.564057	0.259158
H60	H	1.138606	-0.120919	0.000090
H61	H	0.544993	0.381120	0.000043
C62	C	0.373501	0.407817	-0.000001
C63	C	0.421938	0.509509	-0.000032
C64	C	0.369467	0.622932	-0.000090
H65	H	0.339265	0.411855	0.053159
H66	H	0.339293	0.411745	-0.053195
H67	H	0.456131	0.505583	0.053157
H68	H	0.456173	0.505512	-0.053188
H69	H	0.335259	0.626860	-0.053283
H70	H	0.335233	0.626958	0.053071
H71	H	0.402324	0.691944	-0.000119
C72	C	0.411815	-0.069442	0.000008
C73	C	0.324595	-0.047222	-0.000019
C74	C	0.290307	-0.162655	-0.000076
H75	H	0.429738	-0.116174	0.053167
H76	H	0.429788	-0.116079	-0.053186
H77	H	0.306629	-0.000605	0.053170
H78	H	0.306649	-0.000509	-0.053175
H79	H	0.308280	-0.209293	-0.053271
H80	H	0.308236	-0.209379	0.053084
H81	H	0.231126	-0.147595	-0.000103
C82	C	0.866094	0.349373	0.600094
C83	C	0.784280	0.328945	0.576777
C84	C	0.728085	0.414162	0.624721
H85	H	0.875489	0.433247	0.584399
H86	H	0.874070	0.337142	0.664138
H87	H	0.776308	0.341186	0.512748
H88	H	0.774859	0.245088	0.592475
H89	H	0.736061	0.401931	0.688765
H90	H	0.737487	0.498030	0.609022
H91	H	0.672568	0.400306	0.608914
C92	C	0.671689	-0.404052	0.000030
C93	C	0.685620	-0.535995	0.000043
C94	C	0.608899	-0.586758	0.000080
H95	H	0.640922	-0.376547	-0.053132
H96	H	0.640966	-0.376505	0.053222
H97	H	0.716330	-0.563531	-0.053144
H98	H	0.716373	-0.563535	0.053200
H99	H	0.578176	-0.559210	0.053273
H100	H	0.578139	-0.559243	-0.053082
H101	H	0.618341	-0.676285	0.000098
C102	C	0.676314	-0.130812	0.000039
C103	C	0.608561	-0.203065	0.000043
C104	C	0.533946	-0.122792	0.000082
H105	H	0.673958	-0.079054	-0.053119
H106	H	0.674009	-0.079115	0.053235
H107	H	0.610865	-0.254740	-0.053149
H108	H	0.610890	-0.254820	0.053196
H109	H	0.531641	-0.071096	0.053279
H110	H	0.531599	-0.071038	-0.053076
H111	H	0.487968	-0.171804	0.000093
C112	C	1.100034	-0.006747	0.400123
C113	C	1.149098	-0.081532	0.462697
C114	C	1.205180	-0.167081	0.414891
H115	H	1.134980	0.038292	0.362671
H116	H	1.069844	-0.059106	0.362708
H117	H	1.179286	-0.029179	0.500096
H118	H	1.114176	-0.126598	0.500150
H119	H	1.174990	-0.219441	0.377476
H120	H	1.240120	-0.122032	0.377441
H121	H	1.238472	-0.217841	0.457339
H122	H	1.130248	-0.596207	0.000053
C123	C	1.099873	-0.006745	0.600189
C124	C	1.055150	-0.083666	0.655278
C125	C	1.111054	-0.169211	0.703321
H126	H	1.134763	0.038298	0.637702
H127	H	1.133237	-0.057658	0.557889
H128	H	1.021802	-0.032760	0.697573
H129	H	1.020264	-0.128737	0.617788
H130	H	1.144417	-0.220125	0.661021
H131	H	1.145940	-0.124158	0.740829
H132	H	1.080718	-0.221421	0.740698
H133	H	1.273765	-0.266961	0.000110
H134	H	1.269593	-0.504614	0.000087
H135	H	0.827628	-0.536161	0.000001
H136	H	0.835988	-0.060874	0.000034
