data_functionalizedCrystal
_audit_creation_method	'MofGen! by Chris Wilmer'
_symmetry_space_group_name_H-M	'P1'
_symmetry_Int_Tables_number	1
_symmetry_cell_setting	triclinic
loop_
_symmetry_equiv_pos_as_xyz
  x,y,z
_cell_length_a	18.050590
_cell_length_b	14.908178
_cell_length_c	14.908694
_cell_angle_alpha	90.159098
_cell_angle_beta	86.699464
_cell_angle_gamma	93.303973
loop_
_atom_site_label
_atom_site_type_symbol
_atom_site_fract_x
_atom_site_fract_y
_atom_site_fract_z
Zn1	Zn	1.140114	-0.387556	-0.487337
Zn2	Zn	1.473447	-0.054223	-0.154004
Zn3	Zn	1.806781	0.279111	0.179330
Zn4	Zn	1.125753	-0.529264	-0.328301
Zn5	Zn	1.459086	-0.195930	0.005033
Zn6	Zn	1.792420	0.137403	0.338366
Zn7	Zn	1.009197	-0.378889	-0.337038
Zn8	Zn	1.342531	-0.045555	-0.003704
Zn9	Zn	1.675864	0.287778	0.329629
Zn10	Zn	1.008352	-0.537854	-0.478654
Zn11	Zn	1.341685	-0.204521	-0.145320
Zn12	Zn	1.675019	0.128813	0.188013
O13	O	1.070854	-0.458391	-0.407832
O14	O	1.404187	-0.125057	-0.074499
O15	O	1.737521	0.208276	0.258834
O16	O	1.242131	-0.406386	-0.466218
O17	O	1.575464	-0.073053	-0.132885
O18	O	1.908798	0.260281	0.200449
O19	O	1.104635	-0.502094	-0.203636
O20	O	1.437969	-0.168760	0.129698
O21	O	1.771302	0.164573	0.463031
O22	O	1.032928	-0.254206	-0.364266
O23	O	1.366261	0.079128	-0.030933
O24	O	1.699594	0.412461	0.302401
O25	O	1.231580	-0.510498	-0.349375
O26	O	1.564913	-0.177165	-0.016041
O27	O	1.898247	0.156169	0.317292
O28	O	1.129112	-0.260574	-0.474690
O29	O	1.462445	0.072760	-0.141357
O30	O	1.795778	0.406093	0.191977
O31	O	1.019002	-0.391614	-0.210055
O32	O	1.352336	-0.058280	0.123278
O33	O	1.685669	0.275053	0.456612
O34	O	0.905163	-0.399943	-0.355846
O35	O	1.238496	-0.066610	-0.022513
O36	O	1.571830	0.266723	0.310821
O37	O	1.031487	-0.525139	-0.605629
O38	O	1.364820	-0.191806	-0.272296
O39	O	1.698154	0.141527	0.061037
O40	O	0.904542	-0.516735	-0.459890
O41	O	1.237875	-0.183401	-0.126557
O42	O	1.571209	0.149932	0.206776
O43	O	1.128292	-0.414716	-0.612009
O44	O	1.461625	-0.081383	-0.278676
O45	O	1.794959	0.251951	0.054658
O46	O	1.103816	-0.656236	-0.340955
O47	O	1.437149	-0.322903	-0.007621
O48	O	1.770482	0.010431	0.325712
O49	O	1.017561	-0.662547	-0.451418
O50	O	1.350895	-0.329214	-0.118085
O51	O	1.684228	0.004119	0.215248
C52	C	0.877907	-0.458331	-0.407875
C53	C	1.211240	-0.124998	-0.074541
C54	C	1.544573	0.208335	0.258792
C55	C	0.795363	-0.458329	-0.407913
C56	C	1.128696	-0.124996	-0.074579
C57	C	1.462030	0.208338	0.258754
C58	C	1.059059	-0.692020	-0.394316
C59	C	1.392393	-0.358686	-0.060982
C60	C	1.725726	-0.025353	0.272351
C61	C	1.054083	-0.791969	-0.388563
C62	C	1.387416	-0.458636	-0.055230
C63	C	1.720750	-0.125302	0.278103
C64	C	1.144822	-0.986272	-0.492862
C65	C	1.478155	-0.652939	-0.159529
C66	C	1.811488	-0.319606	0.173805
C67	C	1.140149	-1.080184	-0.487460
C68	C	1.473482	-0.746850	-0.154127
C69	C	1.806815	-0.413517	0.179206
C70	C	1.040061	-1.073705	-0.372363
C71	C	1.373394	-0.740372	-0.039030
C72	C	1.706727	-0.407038	0.294304
C73	C	1.044734	-0.979794	-0.377765
C74	C	1.378067	-0.646460	-0.044432
C75	C	1.711400	-0.313127	0.288902
C76	C	1.097117	-0.936081	-0.438016
C77	C	1.430450	-0.602747	-0.104682
C78	C	1.763783	-0.269414	0.228651
C79	C	1.101793	-0.842167	-0.443412
C80	C	1.435126	-0.508834	-0.110079
C81	C	1.768460	-0.175501	0.223254
C82	C	1.001702	-0.835691	-0.328320
C83	C	1.335035	-0.502357	0.005013
C84	C	1.668369	-0.169024	0.338347
C85	C	0.997029	-0.929602	-0.322918
C86	C	1.330362	-0.596269	0.010415
C87	C	1.663695	-0.262935	0.343748
C88	C	0.595581	-0.522004	-0.464340
C89	C	0.928914	-0.188670	-0.131006
C90	C	1.262248	0.144663	0.202327
C91	C	0.551287	-0.441287	-0.491197
C92	C	0.884620	-0.107953	-0.157864
C93	C	1.217954	0.225380	0.175469
C94	C	0.644228	-0.458377	-0.407866
C95	C	0.977561	-0.125043	-0.074533
C96	C	1.310895	0.208290	0.258801
C97	C	0.541438	-0.539141	-0.381004
C98	C	0.874771	-0.205807	-0.047671
C99	C	1.208105	0.127526	0.285662
C100	C	0.498238	-0.458430	-0.407822
C101	C	0.831572	-0.125097	-0.074489
C102	C	1.164905	0.208237	0.258845
C103	C	0.601025	-0.377619	-0.434769
C104	C	0.934359	-0.044285	-0.101436
C105	C	1.267692	0.289048	0.231897
C106	C	0.591176	-0.475525	-0.324535
C107	C	0.924510	-0.142192	0.008799
C108	C	1.257843	0.191141	0.342132
C109	C	0.546906	-0.394750	-0.351365
C110	C	0.880239	-0.061417	-0.018031
C111	C	1.213573	0.271917	0.315302
C112	C	0.728329	-0.458347	-0.407893
C113	C	1.061662	-0.125014	-0.074560
C114	C	1.394996	0.208319	0.258773
C115	C	0.414140	-0.458450	-0.407795
C116	C	0.747473	-0.125117	-0.074461
C117	C	1.080806	0.208216	0.258872
C118	C	1.264555	-0.458451	-0.407790
C119	C	1.597888	-0.125117	-0.074457
C120	C	1.931221	0.208216	0.258876
C121	C	1.347098	-0.458476	-0.407772
C122	C	1.680432	-0.125143	-0.074439
C123	C	2.013765	0.208190	0.258894
C124	C	1.081397	-0.471853	-0.642356
C125	C	1.414730	-0.138519	-0.309023
C126	C	1.748064	0.194814	0.024311
C127	C	1.085890	-0.477589	-0.742296
C128	C	1.419223	-0.144256	-0.408963
C129	C	1.752557	0.189077	-0.075630
C130	C	1.082716	-0.223850	-0.421421
C131	C	1.416049	0.109483	-0.088088
C132	C	1.749382	0.442816	0.245246
C133	C	1.087771	-0.123903	-0.427212
C134	C	1.421104	0.209430	-0.093879
C135	C	1.754437	0.542763	0.239455
C136	C	1.005145	-0.373329	-0.936780
C137	C	1.338478	-0.039996	-0.603447
C138	C	1.671812	0.293338	-0.270113
C139	C	1.009364	-0.378716	-1.030683
C140	C	1.342697	-0.045383	-0.697350
C141	C	1.676031	0.287951	-0.364016
C142	C	1.098542	-0.493755	-1.024006
C143	C	1.431876	-0.160422	-0.690673
C144	C	1.765209	0.172912	-0.357340
C145	C	1.094323	-0.488368	-0.930103
C146	C	1.427657	-0.155034	-0.596770
C147	C	1.760990	0.178299	-0.263437
C148	C	1.047624	-0.428152	-0.886494
C149	C	1.380957	-0.094818	-0.553160
C150	C	1.714291	0.238515	-0.219827
C151	C	1.043409	-0.422761	-0.792589
C152	C	1.376743	-0.089427	-0.459256
C153	C	1.710076	0.243906	-0.125923
C154	C	1.132583	-0.537803	-0.785914
C155	C	1.465917	-0.204470	-0.452581
C156	C	1.799250	0.128863	-0.119248
C157	C	1.136802	-0.543191	-0.879817
C158	C	1.470136	-0.209857	-0.546484
C159	C	1.803469	0.123476	-0.213150
C160	C	1.060398	-0.444916	-0.174224
C161	C	1.393731	-0.111583	0.159109
C162	C	1.727065	0.221751	0.492442
C163	C	1.056062	-0.438926	-0.074299
C164	C	1.389395	-0.105593	0.259034
C165	C	1.722729	0.227741	0.592367
H166	H	1.144448	-0.806577	-0.492469
H167	H	1.477781	-0.473244	-0.159135
H168	H	1.811114	-0.139910	0.174198
H169	H	0.967128	-0.324291	-0.901273
H170	H	1.300461	0.009043	-0.567940
H171	H	1.633794	0.342376	-0.234606
H172	H	1.136552	-0.542792	-1.059529
H173	H	1.469885	-0.209458	-0.726196
H174	H	1.803218	0.123875	-0.392862
H175	H	0.974773	-0.334074	-1.071623
H176	H	1.308107	-0.000740	-0.738289
H177	H	1.641440	0.332593	-0.404956
H178	H	0.954378	-0.965206	-0.273866
H179	H	1.287712	-0.631873	0.059467
H180	H	1.621045	-0.298540	0.392800
H181	H	1.187479	-0.950680	-0.541914
H182	H	1.520812	-0.617347	-0.208581
H183	H	1.854146	-0.284013	0.124752
Cl184	Cl	0.984704	-0.347060	-0.737767
Cl185	Cl	1.318038	-0.013726	-0.404434
Cl186	Cl	1.651371	0.319607	-0.071100
Cl187	Cl	1.195504	-0.618889	-0.934649
Cl188	Cl	1.528837	-0.285556	-0.601316
Cl189	Cl	1.862170	0.047777	-0.267983
Cl190	Cl	1.185990	-0.606726	-0.722692
Cl191	Cl	1.519323	-0.273393	-0.389358
Cl192	Cl	1.852657	0.059941	-0.056025
H193	H	1.178991	-1.121047	-0.532127
H194	H	1.512325	-0.787713	-0.198793
H195	H	1.845658	-0.454380	0.134540
H196	H	0.997410	-1.109313	-0.323314
H197	H	1.330743	-0.775980	0.010019
H198	H	1.664076	-0.442646	0.343352
H199	H	0.962859	-0.794814	-0.283658
H200	H	1.296193	-0.461480	0.049676
H201	H	1.629526	-0.128147	0.383009
H202	H	0.616973	-0.575725	-0.512159
H203	H	0.950306	-0.242392	-0.178826
H204	H	1.283640	0.090941	0.154507
H205	H	0.626943	-0.309324	-0.457549
H206	H	0.960276	0.024009	-0.124216
H207	H	1.293610	0.357342	0.209117
Cl208	Cl	0.523992	-0.418916	-0.599970
Cl209	Cl	0.857325	-0.085583	-0.266637
Cl210	Cl	1.190658	0.247751	0.066697
Cl211	Cl	0.514100	-0.311624	-0.277606
Cl212	Cl	0.847434	0.021709	0.055727
Cl213	Cl	1.180767	0.355042	0.389061
Cl214	Cl	0.501288	-0.644556	-0.345954
Cl215	Cl	0.834622	-0.311222	-0.012621
Cl216	Cl	1.167955	0.022111	0.320712
Cl217	Cl	0.618471	-0.497916	-0.215772
Cl218	Cl	0.951804	-0.164583	0.117561
Cl219	Cl	1.285138	0.168750	0.450895
