data_functionalizedCrystal
_audit_creation_method	'MofGen! by Chris Wilmer'
_symmetry_space_group_name_H-M	'P1'
_symmetry_Int_Tables_number	1
_symmetry_cell_setting	triclinic
loop_
_symmetry_equiv_pos_as_xyz
  x,y,z
_cell_length_a	13.897448
_cell_length_b	21.395362
_cell_length_c	21.395355
_cell_angle_alpha	90.043940
_cell_angle_beta	89.984371
_cell_angle_gamma	89.966429
loop_
_atom_site_label
_atom_site_type_symbol
_atom_site_fract_x
_atom_site_fract_y
_atom_site_fract_z
Zn1	Zn	-0.383718	-0.957916	-0.354598
Zn2	Zn	-0.544997	-0.957842	-0.249826
Zn3	Zn	-0.383763	-0.853131	-0.249799
Zn4	Zn	-0.545017	-0.853124	-0.354531
O5	O	-0.464374	-0.905503	-0.302189
O6	O	-0.405085	-1.045584	-0.340739
O7	O	-0.523620	-0.943924	-0.162145
O8	O	-0.248775	-0.867065	-0.263718
O9	O	-0.523576	-1.045530	-0.263764
O10	O	-0.248742	-0.944050	-0.340714
O11	O	-0.405161	-0.866993	-0.162125
O12	O	-0.405181	-0.765452	-0.263653
O13	O	-0.523610	-0.867053	-0.442218
O14	O	-0.523654	-0.765447	-0.340599
O15	O	-0.405104	-0.944043	-0.442267
O16	O	-0.679982	-0.943918	-0.263698
O17	O	-0.679996	-0.866981	-0.340624
C18	C	-0.464425	-0.742716	-0.302116
C19	C	-0.464470	-0.673074	-0.302100
C20	C	-0.714988	-0.905458	-0.302170
C21	C	-0.822202	-0.905495	-0.302184
C22	C	-0.464354	-0.905555	-0.465612
C23	C	-0.464346	-0.905578	-0.535253
C24	C	-1.018497	-0.905561	-0.302223
C25	C	-0.909265	-0.905523	-0.302203
C26	C	-0.212781	-0.905566	-0.302221
C27	C	-0.105567	-0.905593	-0.302234
C28	C	-0.464323	-1.068927	-0.302262
C29	C	-0.464302	-1.138568	-0.302293
C30	C	-0.526240	-0.640375	-0.342105
C31	C	-0.526217	-0.574940	-0.342133
C32	C	-0.464433	-0.542206	-0.302144
C33	C	-0.402650	-0.574913	-0.262136
C34	C	-0.402669	-0.640348	-0.262114
C35	C	-0.456662	-0.438480	-0.245739
C36	C	-0.456650	-0.373047	-0.245760
C37	C	-0.464370	-0.340385	-0.302214
C38	C	-0.472121	-0.373165	-0.358647
C39	C	-0.472140	-0.438599	-0.358625
C40	C	-0.464405	-0.471254	-0.302164
C41	C	-0.526118	-0.236734	-0.342253
C42	C	-0.526088	-0.171297	-0.342282
C43	C	-0.402526	-0.171272	-0.262279
C44	C	-0.402551	-0.236707	-0.262255
C45	C	-0.464352	-0.269434	-0.302242
C46	C	-0.402637	-0.945665	-0.567993
C47	C	-0.402596	-0.945664	-0.633429
C48	C	-0.464280	-0.905582	-0.666122
C49	C	-0.525993	-0.865488	-0.633374
C50	C	-0.526026	-0.865485	-0.567940
C51	C	-0.551135	-0.900619	-0.769788
C52	C	-0.551103	-0.900626	-0.835221
C53	C	-0.464178	-0.905586	-0.867942
C54	C	-0.377282	-0.910553	-0.835223
C55	C	-0.377315	-0.910550	-0.769788
C56	C	-0.464251	-0.905580	-0.737074
C57	C	-0.402419	-0.945675	-0.971635
C58	C	-0.402376	-0.945669	-1.037072
C59	C	-0.525782	-0.865496	-1.037016
C60	C	-0.525817	-0.865498	-0.971580
C61	C	-0.464137	-0.905591	-0.938894
C62	C	-0.464324	-0.905488	-0.139401
C63	C	-0.464060	-0.905587	-0.069760
H64	H	-0.576517	-0.548311	-0.374713
N65	N	-0.448758	-0.471830	-0.188064
N66	N	-0.441841	-0.442559	-0.137684
H67	H	-0.436254	-0.466111	-0.096952
H68	H	-0.478449	-0.465285	-0.404575
N69	N	-0.589186	-0.137903	-0.383159
N70	N	-0.644354	-0.167134	-0.418856
H71	H	-0.688918	-0.143549	-0.447727
H72	H	-0.306560	-0.914593	-0.743151
H73	H	-0.306499	-0.914593	-0.861863
N74	N	-0.339475	-0.270122	-0.221384
N75	N	-0.339502	-0.328545	-0.221367
H76	H	-0.294951	-0.352146	-0.192501
H77	H	-0.352365	-0.666971	-0.229536
N78	N	-0.448746	-0.339577	-0.188111
N79	N	-0.441845	-0.368745	-0.137711
H80	H	-0.436264	-0.345108	-0.096994
N81	N	-0.339631	-0.986622	-0.534616
N82	N	-0.284538	-1.022413	-0.563861
H83	H	-0.240038	-1.051340	-0.540288
H84	H	-0.352343	-0.548258	-0.229578
N85	N	-0.480036	-0.339801	-0.416311
N86	N	-0.480029	-0.281378	-0.416325
H87	H	-0.485630	-0.257812	-0.457048
N88	N	-0.589249	-0.270158	-0.383099
N89	N	-0.644394	-0.240951	-0.418820
H90	H	-0.688983	-0.264555	-0.447668
N91	N	-0.639874	-0.895530	-0.868623
N92	N	-0.703981	-0.935829	-0.861345
H93	H	-0.766682	-0.932217	-0.884928
H94	H	-0.575997	-0.832855	-1.063634
H95	H	-0.352190	-0.978317	-0.945020
H96	H	-0.576562	-0.667017	-0.374666
H97	H	-0.352120	-0.978312	-1.063727
N98	N	-0.639929	-0.895587	-0.736358
N99	N	-0.639950	-0.895605	-0.677936
H100	H	-0.702660	-0.892062	-0.654325
N101	N	-0.588859	-0.824547	-0.938143
N102	N	-0.643928	-0.788760	-0.967338
H103	H	-0.688453	-0.759834	-0.943724
N104	N	-0.339578	-0.986618	-0.666891
N105	N	-0.339566	-0.986616	-0.725313
H106	H	-0.295063	-1.015542	-0.748946
N107	N	-0.339409	-0.137834	-0.221442
N108	N	-0.339393	-0.079412	-0.221470
H109	H	-0.294811	-0.055792	-0.192631
H110	H	-0.576214	-0.832851	-0.659997
N111	N	-0.589066	-0.824529	-0.534503
N112	N	-0.644132	-0.788740	-0.563697
H113	H	-0.688656	-0.759814	-0.540081
