data_functionalizedCrystal
_audit_creation_method	'MofGen! by Chris Wilmer'
_symmetry_space_group_name_H-M	'P1'
_symmetry_Int_Tables_number	1
_symmetry_cell_setting	triclinic
loop_
_symmetry_equiv_pos_as_xyz
  x,y,z
_cell_length_a	6.817900
_cell_length_b	14.858329
_cell_length_c	16.255661
_cell_angle_alpha	95.053856
_cell_angle_beta	103.488922
_cell_angle_gamma	104.519616
loop_
_atom_site_label
_atom_site_type_symbol
_atom_site_fract_x
_atom_site_fract_y
_atom_site_fract_z
V1	V	-4.031897	-0.129422	-0.264114
O2	O	-4.013972	0.005446	-0.258838
O3	O	-3.988515	-0.255879	-0.262546
O4	O	-3.983393	-0.127771	-0.379194
O5	O	-4.019130	-0.123549	-0.141383
V6	V	-4.514888	-0.113250	-0.249405
O7	O	-4.294322	-0.164897	-0.296378
O8	O	-4.702661	-0.077776	-0.217140
O9	O	-4.335064	0.013206	-0.250973
O10	O	-4.650210	-0.248119	-0.254681
O11	O	-4.645052	-0.119124	-0.372136
O12	O	-4.340186	-0.114902	-0.134325
C13	C	-3.834740	-0.286696	-0.258441
C14	C	-3.880557	-0.390078	-0.257927
C15	C	-3.828205	-0.123280	-0.407236
C16	C	-3.869864	-0.122766	-0.501316
C17	C	-3.917759	-0.474035	-0.257501
C18	C	-3.964450	-0.579363	-0.256971
C19	C	-4.001679	-0.663314	-0.256549
C20	C	-4.048373	-0.768649	-0.256017
C21	C	-3.780175	-0.116631	-0.724123
C22	C	-3.939764	-0.195814	-0.793748
C23	C	-3.946210	-0.121803	-0.673563
C24	C	-3.860876	-0.041714	-0.771574
C25	C	-4.019941	-0.120869	-0.839945
C26	C	-4.105283	-0.201057	-0.741958
C27	C	-4.026331	-0.046887	-0.719768
C28	C	-4.186057	-0.126092	-0.789373
C29	C	-3.903731	-0.122342	-0.577715
C30	C	-4.062438	-0.120337	-0.935792
C31	C	-4.152181	0.044018	-0.255075
C32	C	-4.085603	0.147400	-0.255595
C33	C	-4.158716	-0.119396	-0.106278
C34	C	-4.096295	-0.119905	-0.012197
H35	H	-3.608265	-0.112734	-0.695636
O36	O	-4.069018	0.028264	-0.681201
C37	C	-3.934631	0.169386	-0.576662
C38	C	-3.886053	0.084298	-0.620260
H39	H	-3.786726	0.214723	-0.527394
H40	H	-4.063386	0.143580	-0.543379
H41	H	-3.989730	0.212883	-0.626989
H42	H	-3.830867	0.040765	-0.569986
H43	H	-3.757370	0.110167	-0.653561
H44	H	-4.208201	-0.268471	-0.728617
O45	O	-4.391182	-0.130716	-0.823220
C46	C	-4.636406	-0.055391	-0.899676
C47	C	-4.404024	-0.050019	-0.861363
H48	H	-4.646863	0.009834	-0.930540
H49	H	-4.721012	-0.059071	-0.846758
H50	H	-4.713383	-0.120957	-0.950151
H51	H	-4.326864	0.015542	-0.810900
H52	H	-4.319572	-0.046390	-0.914330
O53	O	-3.896271	-0.270850	-0.832118
C54	C	-3.633804	-0.350762	-0.842182
C55	C	-3.682778	-0.265733	-0.798681
H56	H	-3.461208	-0.346664	-0.815152
H57	H	-3.667557	-0.350023	-0.914151
H58	H	-3.736455	-0.418590	-0.829406
H59	H	-3.580159	-0.197861	-0.811390
H60	H	-3.649086	-0.266555	-0.726725
O61	O	-3.737787	0.038608	-0.787519
C62	C	-3.385301	0.134294	-0.772379
C63	C	-3.524466	0.043314	-0.754252
H64	H	-3.212804	0.138118	-0.745507
H65	H	-3.420379	0.197840	-0.740649
H66	H	-3.419717	0.134245	-0.844464
H67	H	-3.490130	0.043270	-0.682183
H68	H	-3.489364	-0.020192	-0.786040
