data_functionalizedCrystal
_audit_creation_method	'MofGen! by Chris Wilmer'
_symmetry_space_group_name_H-M	'P1'
_symmetry_Int_Tables_number	1
_symmetry_cell_setting	triclinic
loop_
_symmetry_equiv_pos_as_xyz
  x,y,z
_cell_length_a	21.295417
_cell_length_b	17.077404
_cell_length_c	17.077404
_cell_angle_alpha	89.994054
_cell_angle_beta	90.017027
_cell_angle_gamma	89.969268
loop_
_atom_site_label
_atom_site_type_symbol
_atom_site_fract_x
_atom_site_fract_y
_atom_site_fract_z
Zn1	Zn	-0.250706	-1.199908	0.443817
Zn2	Zn	-0.355949	-1.199829	0.312540
Zn3	Zn	-0.250698	-1.068671	0.312565
Zn4	Zn	-0.355942	-1.068590	0.443764
O5	O	-0.303324	-1.134249	0.378171
O6	O	-0.264673	-1.309744	0.426414
O7	O	-0.341987	-1.182431	0.202696
O8	O	-0.162610	-1.086147	0.330008
O9	O	-0.341995	-1.309686	0.329966
O10	O	-0.162615	-1.182566	0.426438
O11	O	-0.264660	-1.086070	0.202715
O12	O	-0.264653	-0.958813	0.329957
O13	O	-0.341982	-1.086009	0.553617
O14	O	-0.341974	-0.958754	0.426348
O15	O	-0.264666	-1.182488	0.553657
O16	O	-0.444038	-1.182353	0.329914
O17	O	-0.444032	-1.085932	0.426324
C18	C	-0.303312	-0.930302	0.378150
C19	C	-0.303323	-0.843052	0.378159
C20	C	-0.466875	-1.134147	0.378128
C21	C	-0.536843	-1.134174	0.378135
C22	C	-0.303324	-1.134249	0.582915
C23	C	-0.303324	-1.134248	0.670165
C24	C	-0.569692	-1.184425	0.327987
C25	C	-0.635435	-1.184462	0.328004
C26	C	-0.668326	-1.134234	0.378162
C27	C	-0.635469	-1.083980	0.428321
C28	C	-0.569728	-1.083950	0.428308
N29	N	-0.771593	-1.065564	0.384139
N30	N	-0.834045	-1.065594	0.384148
C31	C	-0.866401	-1.134322	0.378207
N32	N	-0.833946	-1.203019	0.372243
N33	N	-0.771489	-1.202988	0.372231
C34	C	-0.739611	-1.134261	0.378183
C35	C	-0.970535	-1.184617	0.328075
C36	C	-1.036279	-1.184655	0.328098
C37	C	-1.036312	-1.084166	0.428411
C38	C	-0.970570	-1.084135	0.428392
C39	C	-0.937685	-1.134359	0.378220
C40	C	-0.139133	-1.134374	0.378232
C41	C	-0.069165	-1.134427	0.378258
C42	C	-0.303336	-1.338994	0.378193
C43	C	-0.303341	-1.426243	0.378203
C44	C	-0.343645	-0.802051	0.428269
C45	C	-0.343646	-0.720071	0.428282
C46	C	-0.303328	-0.679092	0.378179
C47	C	-0.263001	-0.720099	0.328067
C48	C	-0.262997	-0.802078	0.328059
C49	C	-0.263014	-0.549229	0.328086
C50	C	-0.263019	-0.467244	0.328093
C51	C	-0.343663	-0.467222	0.428309
C52	C	-0.343659	-0.549201	0.428301
C53	C	-0.303333	-0.590201	0.378187
C54	C	-0.263064	-1.084080	0.711164
C55	C	-0.263069	-1.084077	0.793145
C56	C	-0.303331	-1.134246	0.834125
C57	C	-0.343595	-1.184416	0.793120
C58	C	-0.343593	-1.184415	0.711141
C59	C	-0.343597	-1.184416	0.963990
C60	C	-0.343598	-1.184419	1.045975
C61	C	-0.263073	-1.084078	1.045994
C62	C	-0.263071	-1.084077	0.964015
C63	C	-0.303334	-1.134248	0.923016
C64	C	-0.303338	-1.134246	1.174223
C65	C	-0.303339	-1.134251	1.086974
H66	H	-0.542919	-1.225322	0.287135
Br67	Br	-0.680025	-1.252664	0.259940
H68	H	-0.230289	-1.043228	1.079379
Br69	Br	-1.080943	-1.016006	0.496493
Br70	Br	-0.398234	-1.252514	1.101590
H71	H	-0.376481	-0.686692	0.469086
Br72	Br	-0.398383	-0.411580	0.496331
H73	H	-0.230171	-0.582609	0.287285
Br74	Br	-0.208277	-0.664486	0.260077
H75	H	-0.376493	-0.582563	0.469094
Br76	Br	-0.398244	-1.252502	0.908349
H77	H	-1.063023	-1.225580	0.287262
H78	H	-0.230289	-1.043222	0.826522
H79	H	-0.376381	-1.225261	0.826492
H80	H	-0.230181	-0.433881	0.287304
H81	H	-0.376371	-1.225273	0.677761
H82	H	-0.542982	-1.043029	0.469146
Br83	Br	-0.680106	-1.015819	0.496400
Br84	Br	-0.925902	-1.252774	0.259984
Br85	Br	-0.925986	-1.015932	0.496453
Br86	Br	-0.398370	-0.857657	0.496263
H87	H	-0.230275	-1.043231	0.677804
Br88	Br	-0.208269	-0.857722	0.260054
Br89	Br	-0.208423	-1.015997	0.908399
