data_functionalizedCrystal
_audit_creation_method	'MofGen! by Chris Wilmer'
_symmetry_space_group_name_H-M	'P1'
_symmetry_Int_Tables_number	1
_symmetry_cell_setting	triclinic
loop_
_symmetry_equiv_pos_as_xyz
  x,y,z
_cell_length_a	19.805407
_cell_length_b	14.908178
_cell_length_c	19.805399
_cell_angle_alpha	86.674164
_cell_angle_beta	89.984884
_cell_angle_gamma	93.311253
loop_
_atom_site_label
_atom_site_type_symbol
_atom_site_fract_x
_atom_site_fract_y
_atom_site_fract_z
Zn1	Zn	1.019205	-0.359259	-0.367131
Zn2	Zn	1.519205	0.140741	0.132869
Zn3	Zn	1.012611	-0.510139	-0.247410
Zn4	Zn	1.512611	-0.010139	0.252590
Zn5	Zn	0.906024	-0.359280	-0.253959
Zn6	Zn	1.406024	0.140720	0.246041
Zn7	Zn	0.899471	-0.510080	-0.360563
Zn8	Zn	1.399471	-0.010080	0.139437
O9	O	0.959328	-0.434689	-0.307266
O10	O	1.459328	0.065311	0.192734
O11	O	1.113046	-0.379289	-0.351258
O12	O	1.613046	0.120711	0.148742
O13	O	0.998454	-0.490161	-0.153560
O14	O	1.498454	0.009839	0.346440
O15	O	0.926541	-0.233023	-0.274461
O16	O	1.426541	0.266977	0.225539
O17	O	1.108201	-0.490140	-0.263300
O18	O	1.608201	0.009860	0.236700
O19	O	1.009694	-0.233007	-0.357608
O20	O	1.509694	0.266993	0.142392
O21	O	0.920146	-0.379326	-0.158372
O22	O	1.420146	0.120674	0.341628
O23	O	0.810439	-0.379269	-0.268091
O24	O	1.310439	0.120731	0.231909
O25	O	0.915372	-0.490040	-0.456152
O26	O	1.415372	0.009960	0.043848
O27	O	0.805625	-0.490061	-0.346413
O28	O	1.305625	0.009939	0.153587
O29	O	1.003340	-0.379232	-0.460978
O30	O	1.503340	0.120768	0.039022
O31	O	0.992100	-0.636385	-0.256930
O32	O	1.492100	-0.136385	0.243070
O33	O	0.908977	-0.636342	-0.340063
O34	O	1.408977	-0.136342	0.159937
C35	C	0.783473	-0.434661	-0.307250
C36	C	1.283473	0.065339	0.192750
C37	C	0.708241	-0.434671	-0.307259
C38	C	1.208241	0.065329	0.192741
C39	C	0.675416	-0.377053	-0.353121
C40	C	1.175416	0.122947	0.146879
C41	C	0.604727	-0.377058	-0.353123
C42	C	1.104727	0.122942	0.146877
C43	C	0.566865	-0.434686	-0.307267
C44	C	1.066865	0.065314	0.192733
C45	C	0.599694	-0.492306	-0.261400
C46	C	1.099694	0.007694	0.238600
C47	C	0.670382	-0.492296	-0.261395
C48	C	1.170382	0.007704	0.238605
C49	C	0.314619	-0.492347	-0.261419
C50	C	0.814619	0.007653	0.238581
C51	C	0.243927	-0.492354	-0.261429
C52	C	0.743927	0.007646	0.238571
C53	C	0.248964	-0.377108	-0.353147
C54	C	0.748964	0.122892	0.146853
C55	C	0.319652	-0.377098	-0.353142
C56	C	0.819652	0.122902	0.146858
C57	C	0.352476	-0.434715	-0.307273
C58	C	0.852476	0.065285	0.192727
C59	C	0.429125	-0.434708	-0.307271
C60	C	0.929125	0.065292	0.192729
C61	C	0.490217	-0.434698	-0.307272
C62	C	0.990217	0.065302	0.192728
C63	C	0.949130	-0.669100	-0.297088
C64	C	1.449130	-0.169100	0.202912
C65	C	0.944830	-0.769382	-0.292757
C66	C	1.444830	-0.269382	0.207243
C67	C	1.023270	-0.957655	-0.371292
C68	C	1.523270	-0.457655	0.128708
C69	C	1.019232	-1.051879	-0.367224
C70	C	1.519232	-0.551879	0.132776
C71	C	0.932711	-1.052054	-0.280558
C72	C	1.432711	-0.552054	0.219442
C73	C	0.936750	-0.957831	-0.284625
C74	C	1.436750	-0.457831	0.215375
C75	C	0.982031	-0.910635	-0.329993
C76	C	1.482031	-0.410635	0.170007
C77	C	0.986073	-0.816409	-0.334057
C78	C	1.486073	-0.316409	0.165943
C79	C	0.899549	-0.816586	-0.247394
C80	C	1.399549	-0.316586	0.252606
C81	C	0.895511	-0.910810	-0.243327
C82	C	1.395511	-0.410810	0.256673
C83	C	1.135869	-0.434719	-0.307281
C84	C	1.635869	0.065281	0.192719
C85	C	1.211101	-0.434731	-0.307288
C86	C	1.711101	0.065269	0.192712
C87	C	0.959360	-0.434627	-0.483811
C88	C	1.459360	0.065373	0.016189
C89	C	0.959374	-0.434600	-0.559044
C90	C	1.459374	0.065400	-0.059044
C91	C	0.969584	-0.199364	-0.317498
C92	C	1.469584	0.300636	0.182502
C93	C	0.973954	-0.099082	-0.321858
C94	C	1.473954	0.400918	0.178142
C95	C	0.918611	-0.376883	-0.596893
C96	C	1.418611	0.123117	-0.096893
C97	C	0.918622	-0.376865	-0.667583
C98	C	1.418622	0.123135	-0.167583
C99	C	0.959398	-0.434561	-0.700422
C100	C	1.459398	0.065439	-0.200422
C101	C	1.000163	-0.492285	-0.662567
C102	C	1.500163	0.007715	-0.162567
C103	C	1.000149	-0.492306	-0.591879
C104	C	1.500149	0.007694	-0.091879
C105	C	1.000220	-0.492201	-0.947644
C106	C	1.500220	0.007799	-0.447644
C107	C	1.000233	-0.492173	-1.018338
C108	C	1.500233	0.007827	-0.518338
C109	C	0.918693	-0.376760	-1.023348
C110	C	1.418693	0.123240	-0.523348
C111	C	0.918679	-0.376781	-0.952660
C112	C	1.418679	0.123219	-0.452660
C113	C	0.959440	-0.434508	-0.914811
C114	C	1.459440	0.065492	-0.414811
C115	C	0.959428	-0.434527	-0.838162
C116	C	1.459428	0.065473	-0.338162
C117	C	0.959415	-0.434538	-0.777070
C118	C	1.459415	0.065462	-0.277070
C119	C	0.959337	-0.434687	-0.131410
C120	C	1.459337	0.065313	0.368590
C121	C	0.959466	-0.434459	-0.056188
C122	C	1.459466	0.065541	0.443812
H123	H	0.350476	-0.330175	-0.390485
H124	H	0.850476	0.169825	0.109515
H125	H	0.222231	-0.330190	-0.390493
H126	H	0.722231	0.169810	0.109507
H127	H	0.213101	-0.539284	-0.224084
H128	H	0.713101	-0.039284	0.275916
H129	H	0.885477	-0.329796	-0.925926
H130	H	1.385477	0.170204	-0.425926
H131	H	0.885410	-0.329895	-0.570161
H132	H	1.385410	0.170105	-0.070161
F133	F	0.559397	-0.553634	-0.212592
F134	F	1.059397	-0.053634	0.287408
F135	F	1.043531	-0.553740	-0.551597
F136	F	1.543531	-0.053740	-0.051597
H137	H	0.341336	-0.539263	-0.224071
H138	H	0.841336	-0.039263	0.275929
F139	F	1.043556	-0.553695	-0.697519
F140	F	1.543556	-0.053695	-0.197519
F141	F	0.855661	-0.766537	-0.203434
F142	F	1.355661	-0.266537	0.296566
F143	F	1.043606	-0.553633	-0.907373
F144	F	1.543606	-0.053633	-0.407373
H145	H	1.022945	-0.777983	-0.370996
H146	H	1.522945	-0.277983	0.129004
F147	F	0.715706	-0.315720	-0.401931
F148	F	1.215706	0.184280	0.098069
H149	H	1.060145	-0.919228	-0.408227
H150	H	1.560145	-0.419228	0.091773
H151	H	0.858642	-0.949250	-0.206391
H152	H	1.358642	-0.449250	0.293609
H153	H	0.697107	-0.539214	-0.224049
H154	H	1.197107	-0.039214	0.275951
F155	F	0.875308	-0.315324	-1.063634
F156	F	1.375308	0.184676	-0.563634
H157	H	1.033439	-0.539159	-1.045073
H158	H	1.533439	-0.039159	-0.545073
F159	F	1.063122	-1.101919	-0.411182
F160	F	1.563122	-0.601919	0.088818
H161	H	0.895842	-1.090498	-0.243625
H162	H	1.395842	-0.590498	0.256375
H163	H	0.885426	-0.329870	-0.698396
H164	H	1.385426	0.170130	-0.198396
H165	H	0.578004	-0.330141	-0.390469
H166	H	1.078004	0.169859	0.109531
