data_functionalizedCrystal
_audit_creation_method	'MofGen! by Chris Wilmer'
_symmetry_space_group_name_H-M	'P1'
_symmetry_Int_Tables_number	1
_symmetry_cell_setting	triclinic
loop_
_symmetry_equiv_pos_as_xyz
  x,y,z
_cell_length_a	16.109301
_cell_length_b	11.295483
_cell_length_c	16.109301
_cell_angle_alpha	85.907540
_cell_angle_beta	83.461481
_cell_angle_gamma	94.101431
loop_
_atom_site_label
_atom_site_type_symbol
_atom_site_fract_x
_atom_site_fract_y
_atom_site_fract_z
O1	O	1.108729	0.098953	0.101271
O2	O	0.866669	0.098972	0.114569
O3	O	0.994348	0.098950	-0.013111
O4	O	0.981050	0.098975	0.228950
O5	O	0.983134	-0.099099	-0.001913
O6	O	0.855454	-0.099077	0.125766
O7	O	1.097515	-0.099096	0.112468
Cu8	Cu	0.975461	-0.117170	0.120139
Cu9	Cu	0.988723	0.117046	0.106897
O10	O	0.969836	-0.099074	0.240147
C11	C	0.830087	-0.000050	0.119629
C12	C	0.737792	-0.000043	0.118013
N13	N	0.966139	-0.281904	0.129452
C14	C	0.515519	-0.000049	0.190021
C15	C	0.428798	-0.000057	0.188497
C16	C	0.448672	-0.000068	0.037009
C17	C	0.535391	-0.000068	0.038534
C18	C	0.568812	-0.000053	0.115042
C19	C	0.395372	-0.000060	0.111994
C20	C	0.301346	-0.000069	0.110341
C21	C	0.662844	-0.000047	0.116695
C22	C	1.065156	-0.531211	0.030490
C23	C	1.058117	-0.655874	0.037534
C24	C	0.945019	-0.655894	0.150579
C25	C	0.952058	-0.531232	0.143536
C26	C	1.012129	-0.468895	0.083490
C27	C	1.019171	-0.344230	0.076451
C28	C	0.906070	-0.344252	0.189491
C29	C	0.899031	-0.468915	0.196535
C30	C	1.134097	-0.000071	0.107408
C31	C	1.226393	-0.000070	0.109023
C32	C	0.988202	-0.000075	-0.038487
C33	C	0.986587	-0.000077	-0.130782
N34	N	0.998051	0.281781	0.097578
C35	C	1.058595	-0.000064	-0.353055
C36	C	1.057072	-0.000054	-0.439776
C37	C	0.905583	-0.000046	-0.419902
C38	C	0.907108	-0.000048	-0.333183
C39	C	0.983616	-0.000062	-0.299762
C40	C	0.980568	-0.000051	-0.473202
C41	C	0.978916	-0.000040	-0.567228
C42	C	0.985269	-0.000071	-0.205730
C43	C	0.975982	-0.000046	0.265523
C44	C	0.977597	-0.000037	0.357818
H45	H	0.542727	-0.000046	0.252319
O46	O	1.123424	-0.470689	-0.027935
C47	C	1.108244	-0.501161	-0.108529
H48	H	1.039751	-0.535458	-0.107033
H49	H	1.122448	-0.419164	-0.154871
H50	H	1.150258	-0.573498	-0.128852
O51	O	0.840610	-0.529289	0.254879
C52	C	0.795331	-0.447550	0.300163
H53	H	0.799422	-0.358686	0.261056
H54	H	0.726899	-0.483580	0.314864
H55	H	0.823058	-0.434287	0.361184
H56	H	0.896105	-0.706665	0.199462
H57	H	1.118128	-0.000052	-0.483165
O58	O	0.376983	-0.000256	0.261321
C59	C	0.320410	-0.102812	0.270764
H60	H	0.348125	-0.174511	0.232297
H61	H	0.308690	-0.137230	0.339684
H62	H	0.258669	-0.079627	0.247948
O63	O	0.834303	0.000164	-0.281387
C64	C	0.836471	0.102722	-0.236411
H65	H	0.883051	0.174410	-0.272236
H66	H	0.771448	0.137157	-0.228581
H67	H	0.856666	0.079533	-0.172049
H68	H	1.120893	-0.000073	-0.325847
O69	O	0.831336	-0.000096	-0.452504
C70	C	0.846068	-0.000069	-0.540474
H71	H	0.908833	-0.037564	-0.558740
H72	H	0.793861	-0.057569	-0.563837
H73	H	0.847420	0.094944	-0.569980
H74	H	0.862894	-0.293500	0.232649
H75	H	0.421449	-0.000087	-0.025280
H76	H	0.578784	-0.000075	-0.022526
O77	O	1.077433	-0.283753	0.017997
C78	C	1.062203	-0.314286	-0.062569
H79	H	0.993699	-0.348553	-0.061030
H80	H	1.076408	-0.232329	-0.108948
H81	H	1.104186	-0.386664	-0.082879
O82	O	1.109656	-0.716538	-0.013827
C83	C	1.156881	-0.788609	0.034782
H84	H	1.122698	-0.807292	0.100888
H85	H	1.165093	-0.876270	0.005033
H86	H	1.221036	-0.740548	0.037730
