data_functionalizedCrystal
_audit_creation_method	'MofGen! by Chris Wilmer'
_symmetry_space_group_name_H-M	'P1'
_symmetry_Int_Tables_number	1
_symmetry_cell_setting	triclinic
loop_
_symmetry_equiv_pos_as_xyz
  x,y,z
_cell_length_a	10.723024
_cell_length_b	14.519709
_cell_length_c	9.798715
_cell_angle_alpha	89.995905
_cell_angle_beta	89.996609
_cell_angle_gamma	84.074007
loop_
_atom_site_label
_atom_site_type_symbol
_atom_site_fract_x
_atom_site_fract_y
_atom_site_fract_z
O1	O	1.655978	0.129347	-0.113485
O2	O	1.292710	0.141728	-0.113490
O3	O	1.483975	0.001349	-0.113475
O4	O	1.464712	0.269727	-0.113500
O5	O	1.483961	0.001348	0.113507
O6	O	1.292695	0.141728	0.113492
O7	O	1.655963	0.129347	0.113497
Zn8	Zn	1.474327	0.135537	0.149533
Zn9	Zn	1.474346	0.135538	-0.149526
O10	O	1.464698	0.269727	0.113482
C11	C	1.246211	0.140827	0.000000
C12	C	1.107682	0.138132	-0.000001
C13	C	1.483070	-0.033016	0.000016
C14	C	1.480380	-0.135411	0.000017
C15	C	1.031965	0.216681	-0.000009
C16	C	0.888788	0.213896	-0.000011
C17	C	1.470476	-0.510357	-0.000019
C18	C	1.473227	-0.406035	-0.000009
C19	C	1.475428	-0.322887	0.000000
C20	C	1.478179	-0.218559	0.000008
C21	C	1.702462	0.130248	0.000003
C22	C	1.840991	0.132944	-0.000004
C23	C	1.465603	0.304091	-0.000012
C24	C	1.468293	0.406486	-0.000022
N25	N	1.474323	0.135537	0.353632
N26	N	1.474359	0.135532	-0.353626
C27	C	1.554633	0.076335	0.421415
C28	C	1.554653	0.076332	0.578578
H29	H	1.073139	0.285991	-0.000008
H30	H	1.623371	0.025649	0.363098
C31	C	1.381465	0.204009	0.567637
N32	N	1.311496	0.255586	0.508322
H33	H	0.823726	0.281141	-0.000024
H34	H	1.623414	0.025651	0.636869
H35	H	0.906045	0.065696	-0.000006
C36	C	1.052065	0.044493	0.000007
N37	N	1.010175	-0.026038	0.000012
H38	H	1.405577	0.186216	0.411951
