data_functionalizedCrystal
_audit_creation_method	'MofGen! by Chris Wilmer'
_symmetry_space_group_name_H-M	'P1'
_symmetry_Int_Tables_number	1
_symmetry_cell_setting	triclinic
loop_
_symmetry_equiv_pos_as_xyz
  x,y,z
_cell_length_a	15.944551
_cell_length_b	14.044220
_cell_length_c	12.503572
_cell_angle_alpha	93.835250
_cell_angle_beta	93.522593
_cell_angle_gamma	91.656192
loop_
_atom_site_label
_atom_site_type_symbol
_atom_site_fract_x
_atom_site_fract_y
_atom_site_fract_z
O1	O	0.198062	-1.263178	-0.089210
O2	O	0.190753	-0.987210	-0.089237
O3	O	0.072697	-1.132730	-0.089213
O4	O	0.316117	-1.117659	-0.089234
O5	O	0.081592	-1.121786	0.089427
O6	O	0.199647	-0.976267	0.089403
O7	O	0.206956	-1.252235	0.089430
Cu8	Cu	0.204114	-1.113251	0.105728
Cu9	Cu	0.193595	-1.126194	-0.105535
O10	O	0.325012	-1.106715	0.089406
C11	C	0.192001	-0.946424	0.000079
C12	C	0.182459	-0.841198	0.000069
C13	C	0.045804	-1.126632	0.000107
C14	C	-0.047583	-1.124756	0.000107
C15	C	0.205708	-1.293021	0.000111
C16	C	0.215249	-1.398247	0.000114
C17	C	-0.269530	-1.030073	0.000083
C18	C	-0.322870	-1.068645	0.088168
C19	C	-0.218563	-1.121363	0.000099
C20	C	-0.331621	-1.079457	-0.087957
C21	C	-0.383722	-1.118079	0.000086
C22	C	-0.270669	-1.159956	0.088256
C23	C	-0.279418	-1.170759	-0.087948
C24	C	-0.332734	-1.209396	0.000158
C25	C	-0.123419	-1.123252	0.000107
C26	C	-0.478865	-1.116197	0.000085
C27	C	0.351905	-1.112813	0.000083
C28	C	0.445291	-1.114689	0.000076
N29	N	0.211512	-1.104155	0.254318
C30	C	0.165017	-0.648534	0.000092
C31	C	0.232688	-0.590906	0.000091
C32	C	0.222983	-0.483701	0.000104
C33	C	0.174721	-0.755749	0.000079
N34	N	0.186191	-1.135297	-0.254126
C35	C	0.222403	-1.090774	0.473431
C36	C	0.175303	-1.148675	0.526768
C37	C	0.181362	-1.141230	0.648690
C38	C	0.216344	-1.098218	0.351498
H39	H	-0.342162	-1.025471	0.162629
C40	C	0.283028	-1.016268	0.535435
H41	H	0.279204	-1.020985	0.610433
H42	H	0.268341	-0.954079	0.517080
H43	H	0.338949	-1.027793	0.517065
C44	C	-0.234753	-1.205896	0.188973
H45	H	-0.175226	-1.206771	0.188383
H46	H	-0.256913	-1.269390	0.189239
H47	H	-0.249950	-1.169847	0.251438
H48	H	-0.241893	-0.954293	0.000164
H49	H	-0.360211	-1.285235	0.000215
H50	H	-0.260107	-1.213901	-0.162413
C51	C	-0.367669	-1.033444	-0.188557
H52	H	-0.345916	-0.969740	-0.188448
H53	H	-0.427219	-1.033107	-0.188190
H54	H	-0.352092	-1.069088	-0.251101
H55	H	0.297911	-0.622081	0.000080
C56	C	0.076911	-0.606426	0.000093
H57	H	0.081865	-0.538851	0.000089
H58	H	0.050351	-0.623406	0.062384
H59	H	0.044164	-0.631023	-0.062216
H60	H	0.130429	-1.203838	0.480864
