data_functionalizedCrystal
_audit_creation_method	'MofGen! by Chris Wilmer'
_symmetry_space_group_name_H-M	'P1'
_symmetry_Int_Tables_number	1
_symmetry_cell_setting	triclinic
loop_
_symmetry_equiv_pos_as_xyz
  x,y,z
_cell_length_a	12.759401
_cell_length_b	16.959454
_cell_length_c	12.759393
_cell_angle_alpha	89.970403
_cell_angle_beta	89.981708
_cell_angle_gamma	90.020236
loop_
_atom_site_label
_atom_site_type_symbol
_atom_site_fract_x
_atom_site_fract_y
_atom_site_fract_z
Zn1	Zn	1.606214	-0.314640	-0.593988
Zn2	Zn	1.606093	-0.446839	-0.418310
Zn3	Zn	1.430517	-0.314679	-0.418327
Zn4	Zn	1.430488	-0.446781	-0.593952
O5	O	1.518328	-0.380735	-0.506144
O6	O	1.753219	-0.332185	-0.570692
O7	O	1.582763	-0.429349	-0.271291
O8	O	1.453886	-0.204063	-0.441651
O9	O	1.753130	-0.429311	-0.441622
O10	O	1.582970	-0.204035	-0.570708
O11	O	1.453768	-0.332251	-0.271304
O12	O	1.283492	-0.332195	-0.441616
O13	O	1.453838	-0.429212	-0.740978
O14	O	1.283471	-0.429249	-0.570647
O15	O	1.582943	-0.332128	-0.741004
O16	O	1.582735	-0.557442	-0.441588
O17	O	1.453720	-0.557400	-0.570631
C18	C	1.245360	-0.380720	-0.506130
C19	C	1.128584	-0.380733	-0.506149
C20	C	1.073738	-0.431350	-0.573224
C21	C	0.964014	-0.431360	-0.573235
C22	C	0.963991	-0.330134	-0.439087
C23	C	1.073713	-0.330120	-0.439082
C24	C	1.073751	-0.489795	-0.650670
C25	C	0.964027	-0.489805	-0.650681
C26	C	1.518240	-0.586101	-0.506126
C27	C	1.518298	-0.673958	-0.506154
C28	C	1.451247	-1.045441	-0.573330
C29	C	1.585701	-1.045426	-0.439066
C30	C	1.585665	-0.962880	-0.439056
C31	C	1.518417	-0.921611	-0.506183
C32	C	1.451206	-0.962887	-0.573320
C33	C	1.652867	-0.921597	-0.371913
C34	C	1.652832	-0.839046	-0.371900
C35	C	1.585589	-0.797775	-0.439033
C36	C	1.518376	-0.839057	-0.506173
C37	C	1.451128	-0.797788	-0.573300
C38	C	1.383920	-0.839068	-0.640447
C39	C	1.383962	-0.921617	-0.640453
C40	C	1.585546	-0.715227	-0.439027
C41	C	1.451087	-0.715235	-0.573291
C42	C	1.792361	-0.380750	-0.506159
C43	C	1.909138	-0.380757	-0.506165
C44	C	1.518400	-0.380659	-0.780178
C45	C	1.518431	-0.380627	-0.896954
C46	C	1.518445	-0.174567	-0.506185
C47	C	1.518495	-0.086710	-0.506203
C48	C	1.585602	-0.431166	-0.951807
C49	C	1.585634	-0.431133	-1.061532
C50	C	1.451315	-0.330018	-1.061540
C51	C	1.451289	-0.330048	-0.951818
C52	C	1.663147	-0.489547	-0.951803
C53	C	1.663179	-0.489513	-1.061528
C54	C	1.518316	-0.380753	-0.233177
C55	C	1.518489	-0.380563	-0.116401
H56	H	1.107758	-0.547915	-0.621387
H57	H	1.396651	-0.288838	-1.106223
H58	H	1.707609	-0.955204	-0.317254
H59	H	1.396601	-0.288888	-0.907161
C60	C	1.113567	-0.468191	-0.759248
C61	C	1.174455	-0.530103	-0.798704
C62	C	1.211137	-0.510235	-0.898726
H63	H	1.155007	-0.421759	-0.755065
H64	H	1.055699	-0.459163	-0.804524
H65	H	1.232314	-0.539121	-0.753440
H66	H	1.133037	-0.576541	-0.802913
H67	H	1.153269	-0.501207	-0.944002
H68	H	1.252573	-0.463803	-0.894533
H69	H	1.252446	-0.552241	-0.925514
C70	C	0.918749	-0.460816	-0.753915
C71	C	0.952784	-0.509886	-0.835302
C72	C	0.911084	-0.483209	-0.930408
H73	H	0.941733	-0.408409	-0.766719
H74	H	0.844383	-0.461856	-0.750423
H75	H	1.027134	-0.508839	-0.838795
H76	H	0.929801	-0.562295	-0.822532
H77	H	0.836717	-0.484248	-0.926916
H78	H	0.934070	-0.430802	-0.943201
H79	H	0.934162	-0.516503	-0.985638
H80	H	1.744520	-0.473166	-0.922038
C81	C	1.624399	-0.567164	-0.906467
C82	C	1.689477	-0.628490	-0.940477
C83	C	1.653808	-0.699998	-0.898729
H84	H	1.554727	-0.576678	-0.929433
H85	H	1.625750	-0.564561	-0.832103
H86	H	1.688115	-0.631094	-1.014826
H87	H	1.759151	-0.619003	-0.917513
H88	H	1.655159	-0.697395	-0.824365
H89	H	1.584136	-0.709504	-0.921698
H90	H	1.697963	-0.741615	-0.921791
H91	H	1.740500	-0.467584	-1.095568
C92	C	1.377961	-0.670574	-0.646217
C93	C	1.319101	-0.724395	-0.705001
C94	C	1.251719	-0.683283	-0.772182
H95	H	1.417994	-0.638324	-0.692114
H96	H	1.332129	-0.638433	-0.606010
H97	H	1.364928	-0.756522	-0.745205
H98	H	1.279046	-0.756647	-0.659131
H99	H	1.205887	-0.651143	-0.731975
H100	H	1.291761	-0.651035	-0.818072
H101	H	1.211768	-0.719795	-0.812068
C102	C	1.633921	-0.571052	-1.101370
C103	C	1.542942	-0.565887	-1.162307
C104	C	1.515963	-0.640979	-1.199037
H105	H	1.621687	-0.605144	-1.043553
H106	H	1.689570	-0.591399	-1.142787
H107	H	1.487306	-0.545551	-1.120892
H108	H	1.555151	-0.531810	-1.220139
H109	H	1.571612	-0.661325	-1.240454
H110	H	1.503734	-0.675064	-1.141214
H111	H	1.454237	-0.637483	-1.240394
H112	H	0.934224	-0.551008	-0.628750
H113	H	1.118364	-0.288898	-0.384470
H114	H	1.640261	-0.681620	-0.384352
C115	C	1.310822	-0.966333	-0.713284
C116	C	1.206877	-0.946302	-0.690332
C117	C	1.139471	-0.987473	-0.757409
H118	H	1.320331	-1.021418	-0.703740
H119	H	1.326090	-0.952750	-0.783905
H120	H	1.191615	-0.959891	-0.619728
H121	H	1.197335	-0.891224	-0.699883
H122	H	1.154739	-0.973890	-0.828030
H123	H	1.148990	-1.042556	-0.747860
H124	H	1.068938	-0.973883	-0.741852
C125	C	1.658577	-1.090169	-0.365990
C126	C	1.635712	-1.070141	-0.262029
C127	C	1.702818	-1.111346	-0.194671
H128	H	1.729191	-1.076627	-0.381282
H129	H	1.648979	-1.145256	-0.375517
H130	H	1.645318	-1.015067	-0.252507
H131	H	1.565111	-1.083686	-0.246704
H132	H	1.693220	-1.166432	-0.204198
H133	H	1.773427	-1.097800	-0.209973
H134	H	1.687306	-1.097768	-0.124126
H135	H	1.329161	-0.805458	-0.695097
H136	H	0.919302	-0.288926	-0.384485
H137	H	1.707558	-0.805440	-0.317227
H138	H	1.396530	-1.079055	-0.628001
