data_functionalizedCrystal
_audit_creation_method	'MofGen! by Chris Wilmer'
_symmetry_space_group_name_H-M	'P1'
_symmetry_Int_Tables_number	1
_symmetry_cell_setting	triclinic
loop_
_symmetry_equiv_pos_as_xyz
  x,y,z
_cell_length_a	14.853558
_cell_length_b	14.853567
_cell_length_c	14.048226
_cell_angle_alpha	89.997365
_cell_angle_beta	89.994068
_cell_angle_gamma	83.633032
loop_
_atom_site_label
_atom_site_type_symbol
_atom_site_fract_x
_atom_site_fract_y
_atom_site_fract_z
O1	O	1.196372	0.117666	-0.079141
O2	O	0.933912	0.131696	-0.079144
O3	O	1.072153	-0.006549	-0.079145
O4	O	1.058131	0.255911	-0.079140
O5	O	1.072136	-0.006557	0.079176
O6	O	0.933895	0.131688	0.079177
O7	O	1.196356	0.117658	0.079181
Zn8	Zn	1.065123	0.124672	0.104316
Zn9	Zn	1.065145	0.124683	-0.104279
O10	O	1.058115	0.255903	0.079182
C11	C	0.900314	0.131058	0.000016
C12	C	0.800230	0.129158	0.000014
C13	C	1.071509	-0.040141	0.000013
C14	C	1.069605	-0.140225	0.000004
C15	C	0.753219	0.128271	-0.086290
C16	C	0.753199	0.128251	0.086318
C17	C	0.659166	0.126461	0.086319
C18	C	0.612155	0.125574	0.000015
C19	C	0.659177	0.126477	-0.086292
C20	C	0.612137	0.125548	0.172624
C21	C	0.518098	0.123756	0.172629
C22	C	0.471084	0.122876	0.086323
C23	C	0.518113	0.123781	0.000013
C24	C	0.471101	0.122894	-0.086291
C25	C	0.518127	0.123805	-0.172602
C26	C	0.612164	0.125597	-0.172597
C27	C	0.377048	0.121084	0.086318
C28	C	0.377059	0.121100	-0.086292
C29	C	0.979439	-0.552756	0.000021
C30	C	1.143673	-0.574042	0.000023
C31	C	1.145463	-0.480009	0.000018
C32	C	1.064240	-0.422344	0.000015
C33	C	0.981227	-0.458713	0.000019
C34	C	1.228474	-0.443632	0.000024
C35	C	1.230268	-0.349593	0.000020
C36	C	1.149044	-0.291927	0.000011
C37	C	1.066027	-0.328301	0.000013
C38	C	0.984805	-0.270637	0.000010
C39	C	0.901787	-0.307009	0.000006
C40	C	0.900003	-0.401047	0.000009
C41	C	1.150828	-0.197890	0.000007
C42	C	0.986592	-0.176594	0.000008
C43	C	1.229953	0.118296	0.000018
C44	C	1.330037	0.120197	0.000014
C45	C	1.058758	0.289496	0.000022
C46	C	1.060662	0.389580	0.000024
N47	N	1.065114	0.124664	0.246676
N48	N	1.065160	0.124683	-0.246640
C49	C	1.126347	0.063474	0.296494
C50	C	1.126353	0.063474	0.396152
C51	C	1.065130	0.124668	0.445990
C52	C	1.003891	0.185860	0.396165
C53	C	1.003881	0.185856	0.296510
C54	C	1.003917	0.185867	0.603880
C55	C	1.003928	0.185873	0.703542
C56	C	1.126388	0.063485	0.703522
C57	C	1.126379	0.063480	0.603866
C58	C	1.065141	0.124674	0.554048
H59	H	0.338789	0.120384	-0.156573
H60	H	0.954073	0.235703	0.744116
H61	H	0.954038	0.235683	0.436749
H62	H	1.176205	0.013647	0.255922
H63	H	0.835656	-0.260047	0.000010
C64	C	0.882878	0.306856	0.613905
C65	C	0.936608	0.253137	0.549118
H66	H	0.841333	0.348390	0.580095
H67	H	0.850406	0.269274	0.652781
H68	H	0.920458	0.339349	0.652767
H69	H	0.899029	0.220639	0.510261
H70	H	0.969082	0.290724	0.510226
H71	H	1.176212	0.013648	0.436713
C72	C	0.281331	0.041611	0.186439
C73	C	0.325358	0.120080	0.181181
H74	H	0.249425	0.040991	0.245010
H75	H	0.239877	0.040838	0.135047
H76	H	0.324836	-0.010215	0.182842
H77	H	0.281852	0.171906	0.184771
H78	H	0.366815	0.120860	0.232588
H79	H	0.479839	0.123078	-0.242871
H80	H	0.650460	0.126337	-0.242867
H81	H	1.176235	0.013656	0.563288
H82	H	0.791511	0.129016	-0.156562
C83	C	1.306190	-0.585640	0.000023
C84	C	1.232950	-0.637423	0.000027
H85	H	1.361308	-0.624773	0.000029
H86	H	1.303476	-0.548523	-0.055187
H87	H	1.303463	-0.548515	0.055234
H88	H	1.235674	-0.674544	-0.055189
H89	H	1.235666	-0.674556	0.055242
C90	C	0.897341	0.130993	0.162955
C91	C	0.804872	0.129229	0.181180
H92	H	0.929241	0.131604	0.221523
H93	H	0.919561	0.078760	0.127500
H94	H	0.905934	0.183823	0.127494
H95	H	0.796278	0.076395	0.216635
H96	H	0.782645	0.181467	0.216650
C97	C	0.824343	-0.535746	0.000032
C98	C	0.808757	-0.441030	0.000018
H99	H	0.768011	-0.560431	0.000047
H100	H	0.857786	-0.555527	-0.055175
H101	H	0.857791	-0.555516	0.055246
H102	H	0.775314	-0.421260	-0.055199
H103	H	0.775299	-0.421241	0.055231
H104	H	0.954019	0.235682	0.255949
C105	C	0.402292	0.199161	0.272770
C106	C	0.466405	0.122756	0.267494
H107	H	0.370374	0.198539	0.331334
H108	H	0.432167	0.252382	0.269198
H109	H	0.360843	0.198370	0.221364
H110	H	0.507858	0.123551	0.318897
H111	H	0.436528	0.069522	0.271076
C112	C	0.651139	0.048631	0.319727
C113	C	0.663818	0.126515	0.267482
H114	H	0.683054	0.049228	0.378286
H115	H	0.588413	0.047438	0.332085
H116	H	0.673367	-0.003592	0.284244
H117	H	0.641584	0.178739	0.302962
H118	H	0.726557	0.127717	0.255126
C119	C	0.824070	-0.164999	0.000004
C120	C	0.897307	-0.113212	0.000006
H121	H	0.768951	-0.125868	0.000009
H122	H	0.826797	-0.202114	-0.055204
H123	H	0.826789	-0.202126	0.055217
H124	H	0.894592	-0.076090	-0.055211
H125	H	0.894579	-0.076081	0.055220
C126	C	1.392430	-0.380091	0.000015
C127	C	1.321517	-0.309617	0.000014
H128	H	1.448762	-0.355408	0.000003
H129	H	1.388313	-0.416320	0.055226
H130	H	1.388312	-0.416330	-0.055194
H131	H	1.325631	-0.273381	0.055227
H132	H	1.325636	-0.273372	-0.055203
H133	H	1.218419	-0.168279	0.000017
C134	C	1.145829	-0.059192	0.815582
C135	C	1.193702	-0.003788	0.758272
H136	H	1.187388	-0.100723	0.849378
H137	H	1.109378	-0.022752	0.859525
H138	H	1.108266	-0.091687	0.776704
H139	H	1.231261	0.028713	0.797150
H140	H	1.230168	-0.040233	0.714324
H141	H	0.911848	-0.582375	0.000014
H142	H	1.294601	-0.490589	0.000035
