data_functionalizedCrystal
_audit_creation_method	'MofGen! by Chris Wilmer'
_symmetry_space_group_name_H-M	'P1'
_symmetry_Int_Tables_number	1
_symmetry_cell_setting	triclinic
loop_
_symmetry_equiv_pos_as_xyz
  x,y,z
_cell_length_a	14.853567
_cell_length_b	10.654554
_cell_length_c	9.130313
_cell_angle_alpha	89.995116
_cell_angle_beta	90.000976
_cell_angle_gamma	84.060837
loop_
_atom_site_label
_atom_site_type_symbol
_atom_site_fract_x
_atom_site_fract_y
_atom_site_fract_z
O1	O	0.126643	1.666523	-0.121791
O2	O	0.138703	1.300920	-0.121791
O3	O	0.001495	1.493487	-0.121796
O4	O	0.263850	1.473956	-0.121787
O5	O	0.001496	1.493469	0.121803
O6	O	0.138703	1.300902	0.121807
O7	O	0.126643	1.666505	0.121808
Cu8	Cu	0.132673	1.483702	0.144050
Cu9	Cu	0.132673	1.483723	-0.144034
O10	O	0.263851	1.473937	0.121812
C11	C	0.137817	1.254122	0.000008
C12	C	0.135165	1.114707	0.000007
C13	C	0.213462	0.903385	0.000006
C14	C	0.215954	1.034380	0.000006
C15	C	0.051878	1.064032	-0.000007
C16	C	0.049387	0.933039	-0.000018
C17	C	0.308190	0.886267	0.000020
C18	C	0.310682	1.017262	0.000020
C19	C	-0.032098	1.492593	-0.000000
C20	C	-0.132196	1.489941	-0.000013
C21	C	-0.545403	1.364341	0.000015
C22	C	-0.565457	1.593116	0.000015
C23	C	-0.471410	1.595609	0.000006
C24	C	-0.414355	1.482467	0.000004
C25	C	-0.451347	1.366832	0.000010
C26	C	-0.434410	1.711243	0.000015
C27	C	-0.340358	1.713741	0.000008
C28	C	-0.283301	1.600598	-0.000005
C29	C	-0.320299	1.484957	-0.000000
C30	C	-0.263244	1.371815	-0.000003
C31	C	-0.300240	1.256174	-0.000008
C32	C	-0.394291	1.253688	-0.000002
C33	C	-0.189251	1.603083	-0.000011
C34	C	-0.169188	1.374306	-0.000007
C35	C	0.297444	1.474832	0.000014
C36	C	0.397542	1.477484	0.000017
C37	C	0.127529	1.713303	0.000005
C38	C	0.130181	1.852718	-0.000003
N39	N	0.132674	1.483695	0.346673
N40	N	0.132665	1.483739	-0.346656
C41	C	0.193402	1.398415	0.423364
C42	C	0.193400	1.398440	0.576701
C43	C	0.071934	1.569028	0.576642
C44	C	0.071941	1.569009	0.423307
C45	C	0.263527	1.299924	0.423400
C46	C	0.263525	1.299948	0.576737
H47	H	0.343887	0.844158	-0.101920
Br48	Br	-0.091763	1.220747	-0.000027
Br49	Br	0.372424	1.065556	0.169933
Br50	Br	0.379027	1.334444	0.354035
H51	H	0.241570	1.208963	0.375861
H52	H	0.340850	1.052590	-0.105160
H53	H	-0.018428	0.891792	-0.000044
Br54	Br	0.355891	0.809658	0.175318
Br55	Br	-0.642888	1.746658	0.000049
Br56	Br	-0.511844	1.864783	0.000057
Br57	Br	-0.222798	1.102630	0.000008
Br58	Br	-0.139044	1.760012	0.000032
Br59	Br	-0.444505	1.096760	-0.000020
Br60	Br	-0.595608	1.207406	-0.000014
Br61	Br	-0.290157	1.870679	-0.000007
H62	H	0.022499	1.638461	0.360867
Br63	Br	-0.010483	1.684809	0.680653
Br64	Br	0.372655	1.349688	0.656015
Br65	Br	0.237779	1.139372	0.646154
H66	H	-0.013902	1.129444	-0.000021
