data_functionalizedCrystal
_audit_creation_method	'MofGen! by Chris Wilmer'
_symmetry_space_group_name_H-M	'P1'
_symmetry_Int_Tables_number	1
_symmetry_cell_setting	triclinic
loop_
_symmetry_equiv_pos_as_xyz
  x,y,z
_cell_length_a	27.732048
_cell_length_b	17.699083
_cell_length_c	16.176319
_cell_angle_alpha	90.007696
_cell_angle_beta	90.001929
_cell_angle_gamma	82.962835
loop_
_atom_site_label
_atom_site_type_symbol
_atom_site_fract_x
_atom_site_fract_y
_atom_site_fract_z
O1	O	-0.641253	-0.090060	-0.068642
O2	O	-0.141253	0.409940	0.431358
O3	O	-0.500509	-0.103753	-0.068667
O4	O	-0.000509	0.396247	0.431333
O5	O	-0.574857	0.013318	-0.068646
O6	O	-0.074857	0.513318	0.431354
O7	O	-0.566904	-0.207130	-0.068662
O8	O	-0.066904	0.292870	0.431338
O9	O	-0.574847	0.013325	0.068847
O10	O	-0.074847	0.513325	0.568847
O11	O	-0.500498	-0.103746	0.068826
O12	O	-0.000498	0.396254	0.568826
O13	O	-0.641243	-0.090052	0.068851
O14	O	-0.141243	0.409948	0.568851
Cu15	Cu	-0.570870	-0.096898	0.081393
Cu16	Cu	-0.070870	0.403102	0.581393
Cu17	Cu	-0.570882	-0.096907	-0.081209
Cu18	Cu	-0.070882	0.403093	0.418791
O19	O	-0.566894	-0.207123	0.068831
O20	O	-0.066894	0.292877	0.568831
C21	C	-0.574567	0.041516	0.000100
C22	C	-0.074567	0.541516	0.500100
C23	C	-0.573712	0.125527	0.000100
C24	C	-0.073712	0.625527	0.500100
C25	C	-0.482496	-0.103462	0.000076
C26	C	0.017504	0.396538	0.500076
C27	C	-0.428838	-0.102596	0.000067
C28	C	0.071162	0.397404	0.500067
C29	C	-0.659256	-0.090343	0.000106
C30	C	-0.159256	0.409657	0.500106
C31	C	-0.712914	-0.091209	0.000110
C32	C	-0.212914	0.408791	0.500110
C33	C	-0.090252	-0.166329	0.000098
C34	C	0.409748	0.333671	0.500098
C35	C	0.111419	-0.163117	0.000106
C36	C	0.611419	0.336883	0.500106
O37	O	0.142466	-0.221396	0.000137
O38	O	0.642466	0.278604	0.500137
N39	N	0.130793	-0.093699	0.000109
N40	N	0.630793	0.406301	0.500109
C41	C	0.099745	-0.025079	0.000116
C42	C	0.599745	0.474921	0.500116
O43	O	0.120851	0.034039	0.000128
O44	O	0.620851	0.534039	0.500128
C45	C	-0.101925	-0.028291	0.000115
C46	C	0.398075	0.471709	0.500115
C47	C	-0.121296	-0.097714	0.000103
C48	C	0.378704	0.402286	0.500103
C49	C	-0.109623	-0.235746	0.000087
C50	C	0.390377	0.264254	0.500087
C51	C	-0.160037	-0.236548	0.000081
C52	C	0.339963	0.263452	0.500081
C53	C	-0.191081	-0.167933	0.000085
C54	C	0.308919	0.332067	0.500085
C55	C	-0.171710	-0.098516	0.000096
C56	C	0.328290	0.401484	0.500096
C57	C	-0.132972	0.040329	0.000128
C58	C	0.367028	0.540329	0.500128
C59	C	-0.183392	0.039519	0.000129
C60	C	0.316608	0.539519	0.500129
C61	C	-0.202763	-0.029903	0.000117
C62	C	0.297237	0.470097	0.500117
C63	C	-0.253169	-0.030703	0.000095
C64	C	0.246831	0.469297	0.500095
N65	N	-0.272543	-0.100121	0.000091
N66	N	0.227457	0.399879	0.500091
C67	C	-0.241499	-0.168736	0.000086
C68	C	0.258501	0.331264	0.500086
C69	C	0.205625	-0.023397	0.000116
C70	C	0.705625	0.476603	0.500116
C71	C	0.256042	-0.022594	0.000115
C72	C	0.756042	0.477406	0.500115
C73	C	0.267713	-0.160633	0.000106
C74	C	0.767713	0.339367	0.500106
C75	C	0.217295	-0.161435	0.000101
C76	C	0.717295	0.338565	0.500101
C77	C	0.186252	-0.092815	0.000112
C78	C	0.686252	0.407185	0.500112
C79	C	-0.347374	-0.170415	0.000072
C80	C	0.152626	0.329585	0.500072
C81	C	-0.397794	-0.171211	0.000062
C82	C	0.102206	0.328789	0.500062
C83	C	-0.409460	-0.033173	0.000076
C84	C	0.090540	0.466827	0.500076
C85	C	-0.359045	-0.032376	0.000081
C86	C	0.140955	0.467624	0.500081
C87	C	-0.328002	-0.101004	0.000082
C88	C	0.171998	0.398996	0.500082
O89	O	-0.284244	0.027545	0.000072
O90	O	0.215756	0.527545	0.500072
O91	O	-0.262614	-0.227845	0.000093
O92	O	0.237386	0.272155	0.500093
C93	C	-0.039837	-0.165526	0.000105
C94	C	0.460163	0.334474	0.500105
C95	C	-0.020466	-0.096109	0.000116
C96	C	0.479534	0.403891	0.500116
C97	C	-0.051510	-0.027494	0.000120
C98	C	0.448490	0.472506	0.500120
C99	C	0.029951	-0.095306	0.000115
C100	C	0.529951	0.404694	0.500115
C101	C	0.060995	-0.163921	0.000110
C102	C	0.560995	0.336079	0.500110
C103	C	0.041622	-0.233339	0.000106
C104	C	0.541622	0.266661	0.500106
C105	C	-0.008793	-0.234141	0.000100
C106	C	0.491207	0.265859	0.500100
C107	C	-0.032137	0.041924	0.000124
C108	C	0.467863	0.541924	0.500124
C109	C	0.018279	0.042720	0.000129
C110	C	0.518279	0.542720	0.500129
C111	C	0.049323	-0.025895	0.000125
C112	C	0.549323	0.474105	0.500125
C113	C	-0.567184	-0.235321	0.000082
C114	C	-0.067184	0.264679	0.500082
C115	C	-0.568039	-0.319332	0.000077
C116	C	-0.068039	0.180668	0.500077
N117	N	-0.570865	-0.096892	0.195758
N118	N	-0.070865	0.403108	0.695758
C119	C	-0.617353	0.174532	0.000109
C120	C	-0.117353	0.674532	0.500109
C121	C	-0.616547	0.253469	0.000102
C122	C	-0.116547	0.753469	0.500102
C123	C	-0.572099	0.283398	0.000091
C124	C	-0.072099	0.783398	0.500091
C125	C	-0.528455	0.234386	0.000080
C126	C	-0.028455	0.734386	0.500080
C127	C	-0.529262	0.155451	0.000081
C128	C	-0.029262	0.655451	0.500081
C129	C	-0.525201	0.552720	0.000073
C130	C	-0.025201	1.052720	0.500073
C131	C	-0.524398	0.631661	0.000074
C132	C	-0.024398	1.131661	0.500074
C133	C	-0.612486	0.650738	0.000093
C134	C	-0.112486	1.150738	0.500093
C135	C	-0.613293	0.571803	0.000095
C136	C	-0.113293	1.071803	0.500095
C137	C	-0.569649	0.522798	0.000079
C138	C	-0.069649	1.022798	0.500079
C139	C	-0.570524	0.437207	0.000085
C140	C	-0.070524	0.937207	0.500085
C141	C	-0.571224	0.368987	0.000091
C142	C	-0.071224	0.868987	0.500091
N143	N	-0.570891	-0.096907	-0.195574
N144	N	-0.070891	0.403093	0.304426
C145	C	-0.603796	-0.045074	0.239031
C146	C	-0.103796	0.454926	0.739031
C147	C	-0.603799	-0.045073	0.325579
C148	C	-0.103799	0.454927	0.825579
C149	C	-0.570872	-0.096894	0.368851
C150	C	-0.070872	0.403106	0.868851
C151	C	-0.537937	-0.148715	0.325571
C152	C	-0.037937	0.351285	0.825571
C153	C	-0.537932	-0.148711	0.239026
C154	C	-0.037932	0.351289	0.739026
C155	C	-0.537953	-0.148729	0.674600
C156	C	-0.037953	0.351271	1.174600
C157	C	-0.537961	-0.148730	0.761151
C158	C	-0.037961	0.351270	1.261151
C159	C	-0.603819	-0.045090	0.761152
C160	C	-0.103819	0.454910	1.261152
C161	C	-0.603815	-0.045087	0.674607
C162	C	-0.103815	0.454913	1.174607
C163	C	-0.570879	-0.096904	0.631335
C164	C	-0.070879	0.403096	1.131335
C165	C	-0.570876	-0.096904	0.537491
C166	C	-0.070876	0.403096	1.037491
C167	C	-0.570876	-0.096899	0.462693
C168	C	-0.070876	0.403101	0.962693
H169	H	-0.413562	-0.227746	0.000052
H170	H	0.086438	0.272254	0.500052
H171	H	-0.489663	0.512829	0.000060
H172	H	0.010337	1.012829	0.500060
H173	H	-0.511136	-0.190922	0.639375
H174	H	-0.011136	0.309078	1.139375
H175	H	-0.652084	0.293367	0.000111
H176	H	-0.152084	0.793367	0.500111
H177	H	-0.511124	-0.190906	0.360809
H178	H	-0.011124	0.309094	0.860809
H179	H	-0.057408	0.097800	0.000130
H180	H	0.442592	0.597800	0.500130
H181	H	-0.648023	0.690647	0.000102
H182	H	-0.148023	1.190647	0.500102
H183	H	-0.492265	0.258760	0.000066
H184	H	0.007735	0.758760	0.500066
H185	H	-0.653548	0.150171	0.000123
H186	H	-0.153548	0.650171	0.500123
H187	H	-0.493725	0.115551	0.000074
H188	H	0.006275	0.615551	0.500074
H189	H	0.201528	-0.217965	0.000096
H190	H	0.701528	0.282035	0.500096
H191	H	-0.511116	-0.190906	0.203794
H192	H	-0.011116	0.309094	0.703794
H193	H	-0.630637	-0.002895	0.796393
H194	H	-0.130637	0.497105	1.296393
H195	H	0.034045	0.099257	0.000132
H196	H	0.534045	0.599257	0.500132
H197	H	-0.630611	-0.002878	0.203805
H198	H	-0.130611	0.497122	0.703805
H199	H	-0.511146	-0.190930	0.796382
H200	H	-0.011146	0.309070	1.296382
H201	H	-0.208666	0.095399	0.000139
H202	H	0.291334	0.595399	0.500139
H203	H	-0.488201	0.656025	0.000067
H204	H	0.011799	1.156025	0.500067
H205	H	-0.322104	-0.226298	0.000076
H206	H	0.177896	0.273702	0.500076
H207	H	-0.649487	0.547440	0.000107
H208	H	-0.149487	1.047440	0.500107
H209	H	-0.630629	-0.002892	0.639377
H210	H	-0.130629	0.497108	1.139377
H211	H	-0.630613	-0.002878	0.360811
H212	H	-0.130613	0.497122	0.860811
H213	H	-0.343273	0.024153	0.000079
H214	H	0.156727	0.524153	0.500079
H215	H	-0.175804	-0.293079	0.000071
H216	H	0.324196	0.206921	0.500071
H217	H	0.292998	-0.216502	0.000102
H218	H	0.792998	0.283498	0.500102
H219	H	-0.084351	-0.291623	0.000086
H220	H	0.415649	0.208377	0.500086
H221	H	0.180353	0.032485	0.000125
H222	H	0.680353	0.532485	0.500125
H223	H	-0.117210	0.096860	0.000138
H224	H	0.382790	0.596860	0.500138
H225	H	0.271809	0.033937	0.000111
H226	H	0.771809	0.533937	0.500111
H227	H	-0.024559	-0.290672	0.000091
H228	H	0.475441	0.209328	0.500091
H229	H	0.066907	-0.289208	0.000099
H230	H	0.566907	0.210792	0.500099
H231	H	-0.434745	0.022692	0.000076
H232	H	0.065255	0.522692	0.500076
