data_functionalizedCrystal
_audit_creation_method	'MofGen! by Chris Wilmer'
_symmetry_space_group_name_H-M	'P1'
_symmetry_Int_Tables_number	1
_symmetry_cell_setting	triclinic
loop_
_symmetry_equiv_pos_as_xyz
  x,y,z
_cell_length_a	12.827893
_cell_length_b	18.050589
_cell_length_c	12.827893
_cell_angle_alpha	89.993168
_cell_angle_beta	90.003786
_cell_angle_gamma	89.965332
loop_
_atom_site_label
_atom_site_type_symbol
_atom_site_fract_x
_atom_site_fract_y
_atom_site_fract_z
Zn1	Zn	1.597370	0.295789	0.590851
Zn2	Zn	2.097370	0.795789	1.090851
Zn3	Zn	1.597252	0.419948	0.416113
Zn4	Zn	2.097252	0.919948	0.916113
Zn5	Zn	1.422658	0.295777	0.416125
Zn6	Zn	1.922658	0.795777	0.916125
Zn7	Zn	1.422537	0.419942	0.590813
Zn8	Zn	1.922537	0.919942	1.090813
O9	O	1.509954	0.357864	0.503476
O10	O	2.009954	0.857864	1.003476
O11	O	1.743590	0.312267	0.567683
O12	O	2.243590	0.812267	1.067683
O13	O	1.574093	0.403474	0.269879
O14	O	2.074093	0.903474	0.769879
O15	O	1.445934	0.191854	0.439324
O16	O	1.945934	0.691854	0.939324
O17	O	1.743504	0.403486	0.439304
O18	O	2.243504	0.903486	0.939304
O19	O	1.574294	0.191863	0.567695
O20	O	2.074294	0.691863	1.067695
O21	O	1.445820	0.312246	0.269887
O22	O	1.945820	0.812246	0.769887
O23	O	1.276406	0.312239	0.439287
O24	O	1.776406	0.812239	0.939287
O25	O	1.445728	0.403475	0.737054
O26	O	1.945728	0.903475	1.237054
O27	O	1.276317	0.403463	0.567629
O28	O	1.776317	0.903463	1.067629
O29	O	1.574176	0.312261	0.737082
O30	O	2.074176	0.812261	1.237082
O31	O	1.573976	0.523872	0.439266
O32	O	2.073976	1.023872	0.939266
O33	O	1.445614	0.523867	0.567617
O34	O	1.945614	1.023867	1.067617
C35	C	1.238444	0.357850	0.503456
C36	C	1.738444	0.857850	1.003456
C37	C	1.122291	0.357861	0.503472
C38	C	1.622291	0.857861	1.003472
C39	C	1.509797	0.550816	0.503459
C40	C	2.009797	1.050816	1.003459
C41	C	1.509826	0.633362	0.503487
C42	C	2.009826	1.133362	1.003487
C43	C	1.070490	0.403072	0.566882
C44	C	1.570490	0.903072	1.066882
C45	C	0.950440	0.403085	0.566900
C46	C	1.450440	0.903085	1.066900
C47	C	1.440060	0.832837	0.573261
C48	C	1.940060	1.332837	1.073261
C49	C	1.414601	0.882258	0.477904
C50	C	1.914601	1.382258	0.977904
C51	C	1.509905	0.784492	0.503501
C52	C	2.009905	1.284492	1.003501
C53	C	1.535391	0.882153	0.598870
C54	C	2.035391	1.382153	1.098870
C55	C	1.509979	0.930477	0.503524
C56	C	2.009979	1.430477	1.003524
C57	C	1.484396	0.832826	0.408094
C58	C	1.984396	1.332826	0.908094
C59	C	1.605231	0.832717	0.529124
C60	C	2.105231	1.332717	1.029124
C61	C	1.579808	0.882115	0.433702
C62	C	2.079808	1.382115	0.933702
C63	C	1.509859	0.700394	0.503490
C64	C	2.009859	1.200394	1.003490
C65	C	1.510024	1.014574	0.503524
C66	C	2.010024	1.514574	1.003524
C67	C	1.782524	0.357879	0.503496
C68	C	2.282524	0.857879	1.003496
C69	C	1.898678	0.357885	0.503505
C70	C	2.398678	0.857885	1.003505
C71	C	1.509952	0.357869	0.776046
C72	C	2.009952	0.857869	1.276046
C73	C	1.509951	0.357871	0.892199
C74	C	2.009951	0.857871	1.392199
C75	C	1.510100	1.164158	0.503516
C76	C	2.010100	1.664158	1.003516
C77	C	1.510060	1.081613	0.503537
C78	C	2.010060	1.581613	1.003537
C79	C	1.573504	0.312741	0.943997
C80	C	2.073504	0.812741	1.443997
C81	C	1.573504	0.312742	1.064048
C82	C	2.073504	0.812742	1.564048
C83	C	1.509949	0.357876	1.231966
C84	C	2.009949	0.857876	1.731966
C85	C	1.509950	0.357874	1.115813
C86	C	2.009950	0.857874	1.615813
H87	H	1.115018	0.441766	0.621160
H88	H	1.615018	0.941766	1.121160
Cl89	Cl	1.425943	0.417537	1.047050
Cl90	Cl	1.925943	0.917537	1.547050
Cl91	Cl	1.729611	0.799094	0.562623
Cl92	Cl	2.229611	1.299094	1.062623
Cl93	Cl	0.881668	0.462853	0.650715
Cl94	Cl	1.381668	0.962853	1.150715
H95	H	0.943218	0.319179	0.449211
H96	H	1.443218	0.819179	0.949211
H97	H	1.627918	0.274107	1.108593
H98	H	2.127918	0.774107	1.608593
H99	H	1.077763	0.319162	0.449202
H100	H	1.577763	0.819162	0.949202
H101	H	1.638906	0.903617	0.374650
H102	H	2.138906	1.403617	0.874650
H103	H	1.380917	0.811198	0.632171
H104	H	1.880917	1.311198	1.132171
H105	H	1.334022	0.904035	0.456253
H106	H	1.834022	1.404035	0.956253
H107	H	1.462775	0.811248	0.327429
H108	H	1.962775	1.311248	0.827429
H109	H	1.556919	0.903820	0.679513
H110	H	2.056919	1.403820	1.179513
Cl111	Cl	1.425935	0.417525	0.960941
Cl112	Cl	1.925935	0.917525	1.460941
H113	H	1.627910	0.274100	0.899467
H114	H	2.127910	0.774100	1.399467
