data_functionalizedCrystal
_audit_creation_method	'MofGen! by Chris Wilmer'
_symmetry_space_group_name_H-M	'P1'
_symmetry_Int_Tables_number	1
_symmetry_cell_setting	triclinic
loop_
_symmetry_equiv_pos_as_xyz
  x,y,z
_cell_length_a	17.699077
_cell_length_b	14.519709
_cell_length_c	16.776229
_cell_angle_alpha	89.992406
_cell_angle_beta	89.993415
_cell_angle_gamma	83.480361
loop_
_atom_site_label
_atom_site_type_symbol
_atom_site_fract_x
_atom_site_fract_y
_atom_site_fract_z
O1	O	1.004415	0.116598	-0.066279
O2	O	1.504415	0.616598	0.433721
O3	O	0.784080	0.131777	-0.066283
O4	O	1.284080	0.631777	0.433717
O5	O	0.900089	-0.010076	-0.066274
O6	O	1.400089	0.489924	0.433726
O7	O	0.888405	0.258451	-0.066289
O8	O	1.388405	0.758451	0.433711
O9	O	0.900074	-0.010085	0.066302
O10	O	1.400074	0.489915	0.566302
O11	O	0.784064	0.131768	0.066293
O12	O	1.284064	0.631768	0.566293
O13	O	1.004400	0.116589	0.066297
O14	O	1.504400	0.616589	0.566297
Zn15	Zn	0.894229	0.124177	0.087345
Zn16	Zn	1.394229	0.624177	0.587345
Zn17	Zn	0.894250	0.124189	-0.087331
Zn18	Zn	1.394250	0.624189	0.412669
O19	O	0.888390	0.258442	0.066288
O20	O	1.388390	0.758442	0.566288
C21	C	0.755873	0.131230	0.000004
C22	C	1.255873	0.631230	0.500004
C23	C	0.671850	0.129601	0.000003
C24	C	1.171850	0.629601	0.500003
C25	C	0.632372	0.128829	0.072271
C26	C	1.132372	0.628829	0.572271
C27	C	0.553425	0.127283	0.072272
C28	C	1.053425	0.627283	0.572272
C29	C	0.513957	0.126517	0.000004
C30	C	1.013957	0.626517	0.500004
C31	C	0.553441	0.127287	-0.072270
C32	C	1.053441	0.627287	0.427730
C33	C	0.632387	0.128825	-0.072270
C34	C	1.132387	0.628825	0.427730
C35	C	0.235060	0.121080	-0.072271
C36	C	0.735060	0.621080	0.427729
C37	C	0.156108	0.119544	-0.072265
C38	C	0.656108	0.619544	0.427735
C39	C	0.156098	0.119539	0.072271
C40	C	0.656098	0.619539	0.572271
C41	C	0.235044	0.121077	0.072271
C42	C	0.735044	0.621077	0.572271
C43	C	0.274522	0.121842	-0.000002
C44	C	0.774522	0.621842	0.499998
C45	C	0.360125	0.123515	-0.000002
C46	C	0.860125	0.623515	0.499998
C47	C	0.428354	0.124850	0.000003
C48	C	0.928354	0.624850	0.500003
C49	C	0.899537	-0.044438	0.000014
C50	C	1.399537	0.455562	0.500014
C51	C	0.897905	-0.146812	0.000015
C52	C	1.397905	0.353188	0.500015
C53	C	0.891898	-0.521682	-0.000006
C54	C	1.391898	-0.021682	0.499994
C55	C	0.893566	-0.417381	-0.000000
C56	C	1.393566	0.082619	0.500000
C57	C	0.894902	-0.334250	0.000005
C58	C	1.394902	0.165750	0.500005
C59	C	0.896570	-0.229943	0.000010
C60	C	1.396570	0.270057	0.500010
C61	C	1.032606	0.117137	0.000008
C62	C	1.532606	0.617137	0.500008
C63	C	1.116629	0.118766	0.000004
C64	C	1.616629	0.618766	0.500004
C65	C	0.888942	0.292804	-0.000002
C66	C	1.388942	0.792804	0.499998
C67	C	0.890574	0.395178	-0.000008
C68	C	1.390574	0.895178	0.499992
N69	N	0.894221	0.124169	0.206556
N70	N	1.394221	0.624169	0.706556
N71	N	0.894264	0.124190	-0.206542
N72	N	1.394264	0.624190	0.293458
C73	C	0.945606	0.061382	0.248277
C74	C	1.445606	0.561382	0.748277
C75	C	0.945610	0.061382	0.331729
C76	C	1.445610	0.561382	0.831729
C77	C	0.894233	0.124173	0.373459
C78	C	1.394233	0.624173	0.873459
C79	C	0.842842	0.186962	0.331732
C80	C	1.342842	0.686962	0.831732
C81	C	0.842835	0.186958	0.248281
C82	C	1.342835	0.686958	0.748281
C83	C	0.842870	0.186980	0.668279
C84	C	1.342870	0.686980	1.168279
C85	C	0.842882	0.186982	0.751735
C86	C	1.342882	0.686982	1.251735
C87	C	0.945645	0.061404	0.751727
C88	C	1.445645	0.561404	1.251727
C89	C	0.945638	0.061400	0.668276
C90	C	1.445638	0.561400	1.168276
C91	C	0.894245	0.124186	0.626557
C92	C	1.394245	0.624186	1.126557
C93	C	0.894240	0.124185	0.536068
C94	C	1.394240	0.624185	1.036068
C95	C	0.894240	0.124179	0.463945
C96	C	1.394240	0.624179	0.963945
H97	H	0.123946	0.118912	0.131120
H98	H	0.623946	0.618912	0.631120
H99	H	0.664529	0.129456	-0.131118
H100	H	1.164529	0.629456	0.368882
H101	H	0.123975	0.118920	-0.131118
H102	H	0.623975	0.618920	0.368882
O103	O	0.273280	0.121863	-0.142546
O104	O	0.773280	0.621863	0.357454
C105	C	0.221515	0.120835	-0.206328
C106	C	0.721515	0.620835	0.293672
H107	H	0.162144	0.148930	-0.185140
H108	H	0.662144	0.648930	0.314860
H109	H	0.239583	0.166032	-0.256880
H110	H	0.739583	0.666032	0.243120
H111	H	0.220959	0.046714	-0.228540
H112	H	0.720959	0.546714	0.271460
O113	O	0.793028	0.248104	0.627799
O114	O	1.293028	0.748104	1.127799
C115	C	0.805447	0.339376	0.648196
C116	C	1.305447	0.839376	1.148196
H117	H	0.866046	0.339727	0.671115
H118	H	1.366046	0.839727	1.171115
H119	H	0.796792	0.385679	0.593316
H120	H	1.296792	0.885679	1.093316
H121	H	0.763545	0.366526	0.696649
H122	H	1.263545	0.866526	1.196649
O123	O	0.792962	0.248082	0.372175
O124	O	1.292962	0.748082	0.872175
C125	C	0.805390	0.339357	0.351779
C126	C	1.305390	0.839357	0.851779
H127	H	0.834559	0.339195	0.291183
H128	H	1.334559	0.839195	0.791183
H129	H	0.748559	0.384859	0.348926
H130	H	1.248559	0.884859	0.848926
H131	H	0.843100	0.367826	0.398734
H132	H	1.343100	0.867826	0.898734
H133	H	0.521300	0.126656	-0.131112
H134	H	1.021300	0.626656	0.368888
H135	H	0.801042	0.238116	0.785710
H136	H	1.301042	0.738116	1.285710
O137	O	0.995503	0.000271	0.372165
O138	O	1.495503	0.500271	0.872165
C139	C	0.983080	-0.091009	0.351803
C140	C	1.483080	0.408991	0.851803
H141	H	0.953896	-0.090856	0.291222
H142	H	1.453896	0.409144	0.791222
H143	H	1.039915	-0.136502	0.348934
H144	H	1.539915	0.363498	0.848934
H145	H	0.945386	-0.119482	0.398786
H146	H	1.445386	0.380518	0.898786
O147	O	0.995396	0.000311	0.207675
O148	O	1.495396	0.500311	0.707675
C149	C	0.954758	-0.056536	0.159462
C150	C	1.454758	0.443464	0.659462
H151	H	0.895599	-0.019679	0.146949
H152	H	1.395599	0.480321	0.646949
H153	H	0.986323	-0.071238	0.100783
H154	H	1.486323	0.428762	0.600783
H155	H	0.949492	-0.124657	0.191668
H156	H	1.449492	0.375343	0.691668
H157	H	0.987476	0.010272	0.634303
H158	H	1.487476	0.510272	1.134303
O159	O	0.995491	0.000439	0.792379
O160	O	1.495491	0.500439	1.292379
C161	C	0.984495	0.013915	0.874983
C162	C	1.484495	0.513915	1.374983
H163	H	0.924370	0.048473	0.886391
H164	H	1.424370	0.548473	1.386391
H165	H	0.992830	-0.055940	0.906704
H166	H	1.492830	0.444060	1.406704
H167	H	1.027393	0.060106	0.898649
H168	H	1.527393	0.560106	1.398649
H169	H	0.267175	0.121706	0.131119
H170	H	0.767175	0.621706	0.631119
O171	O	0.670596	0.129529	0.142545
O172	O	1.170596	0.629529	0.642545
C173	C	0.618816	0.128536	0.206331
C174	C	1.118816	0.628536	0.706331
H175	H	0.565638	0.098257	0.185143
H176	H	1.065638	0.598257	0.685143
H177	H	0.646367	0.084219	0.256877
H178	H	1.146367	0.584219	0.756877
H179	H	0.602573	0.202328	0.228550
H180	H	1.102573	0.702328	0.728550
O181	O	0.515066	0.126362	0.142456
O182	O	1.015066	0.626362	0.642456
C183	C	0.477863	0.045636	0.146779
C184	C	0.977863	0.545636	0.646779
H185	H	0.507577	-0.009694	0.105764
H186	H	1.007577	0.490306	0.605764
H187	H	0.479816	0.018810	0.210698
H188	H	0.979816	0.518810	0.710698
H189	H	0.416115	0.062514	0.127373
H190	H	0.916115	0.562514	0.627373
O191	O	0.793025	0.247989	0.207662
O192	O	1.293025	0.747989	0.707662
C193	C	0.833625	0.304836	0.159386
C194	C	1.333625	0.804836	0.659386
H195	H	0.892798	0.268014	0.146877
H196	H	1.392798	0.768014	0.646877
H197	H	0.802049	0.319469	0.100708
H198	H	1.302049	0.819469	0.600708
H199	H	0.838857	0.372991	0.191534
H200	H	1.338857	0.872991	0.691534
