data_functionalizedCrystal
_audit_creation_method	'MofGen! by Chris Wilmer'
_symmetry_space_group_name_H-M	'P1'
_symmetry_Int_Tables_number	1
_symmetry_cell_setting	triclinic
loop_
_symmetry_equiv_pos_as_xyz
  x,y,z
_cell_length_a	12.759401
_cell_length_b	12.759394
_cell_length_c	12.759393
_cell_angle_alpha	90.029526
_cell_angle_beta	90.020938
_cell_angle_gamma	90.015381
loop_
_atom_site_label
_atom_site_type_symbol
_atom_site_fract_x
_atom_site_fract_y
_atom_site_fract_z
Zn1	Zn	1.606273	-0.418173	0.594027
Zn2	Zn	1.606166	-0.593889	0.418350
Zn3	Zn	1.430571	-0.418229	0.418362
Zn4	Zn	1.430566	-0.593815	0.593988
O5	O	1.518394	-0.506026	0.506182
O6	O	1.753279	-0.441489	0.570735
O7	O	1.582831	-0.570641	0.271331
O8	O	1.453925	-0.271200	0.441686
O9	O	1.753201	-0.570587	0.441666
O10	O	1.583012	-0.271159	0.570747
O11	O	1.453822	-0.441585	0.271340
O12	O	1.283550	-0.441513	0.441648
O13	O	1.453916	-0.570462	0.741014
O14	O	1.283545	-0.570516	0.570679
O15	O	1.583007	-0.441418	0.741043
O16	O	1.582826	-0.740900	0.441627
O17	O	1.453813	-0.740846	0.570667
C18	C	1.245427	-0.506013	0.506161
C19	C	1.128650	-0.506033	0.506177
C20	C	1.073813	-0.573307	0.573258
C21	C	0.964089	-0.573311	0.573279
C22	C	0.964048	-0.438765	0.439129
C23	C	1.073770	-0.438756	0.439114
C24	C	1.518336	-0.778994	0.506165
C25	C	1.518407	-0.895771	0.506192
C26	C	1.652724	-0.895570	0.640683
C27	C	1.719916	-0.950330	0.707937
C28	C	1.719979	-1.060051	0.707960
C29	C	1.652840	-1.115015	0.640724
C30	C	1.585648	-1.060255	0.573470
C31	C	1.585595	-0.950531	0.573453
C32	C	1.451326	-1.060456	0.438986
C33	C	1.451268	-0.950734	0.438956
C34	C	1.384187	-1.115420	0.371750
C35	C	1.316999	-1.060659	0.304490
C36	C	1.316940	-0.950931	0.304469
C37	C	1.384076	-0.895974	0.371703
C38	C	1.792427	-0.506040	0.506203
C39	C	1.909204	-0.506046	0.506213
C40	C	1.518473	-0.505925	0.780215
C41	C	1.518506	-0.505882	0.896992
C42	C	1.518481	-0.231993	0.506222
C43	C	1.518518	-0.115216	0.506239
C44	C	1.518376	-0.506051	0.233214
C45	C	1.518546	-0.505798	0.116438
C46	C	1.585729	-0.438679	0.951871
C47	C	1.585747	-0.438633	1.061595
C48	C	1.451316	-0.573005	1.061552
C49	C	1.451294	-0.573044	0.951830
H50	H	0.919446	-0.628091	0.627904
O51	O	0.910848	-0.373473	0.373837
C52	C	0.937582	-0.396322	0.269080
H53	H	1.017241	-0.436697	0.266821
H54	H	0.875803	-0.450302	0.233610
C55	C	0.844796	-0.244232	0.208391
C56	C	0.942638	-0.293814	0.205615
H57	H	0.847911	-0.181002	0.169240
H58	H	0.826781	-0.228840	0.278967
H59	H	0.793324	-0.289226	0.178834
H60	H	0.994106	-0.248825	0.235183
H61	H	0.960662	-0.309196	0.135042
H62	H	1.118419	-0.383967	0.384489
H63	H	1.640455	-0.383989	0.907225
H64	H	1.652690	-0.806228	0.640662
H65	H	1.774578	-0.905569	0.762682
O66	O	1.785336	-1.113088	0.773332
C67	C	1.844554	-1.041056	0.832699
H68	H	1.848186	-0.962869	0.789655
H69	H	1.806026	-1.029357	0.912451
C70	C	1.951919	-1.179820	0.900826
C71	C	1.956387	-1.083793	0.847955
H72	H	2.020902	-1.206183	0.910242
H73	H	1.912021	-1.228351	0.860833
H74	H	1.919808	-1.170059	0.967281
H75	H	1.988486	-1.093558	0.781496
H76	H	1.996294	-1.035264	0.887937
H77	H	1.262335	-1.105420	0.249757
O78	O	1.386133	-0.638213	1.114986
C79	C	1.400549	-0.623753	1.223598
H80	H	1.481644	-0.589346	1.238602
H81	H	1.338257	-0.567788	1.254735
C82	C	1.291292	-0.772294	1.261482
C83	C	1.390898	-0.730043	1.279912
H84	H	1.285335	-0.837856	1.296221
H85	H	1.281577	-0.782034	1.188308
H86	H	1.239394	-0.725646	1.287430
H87	H	1.442794	-0.776683	1.253953
H88	H	1.400623	-0.720312	1.353083
H89	H	1.640484	-0.383908	1.106273
H90	H	1.396545	-0.627768	0.907146
H91	H	1.652888	-1.204356	0.640757
H92	H	1.262221	-0.906351	0.249707
H93	H	1.118493	-0.628086	0.627867
H94	H	1.384239	-1.204761	0.371777
H95	H	1.384039	-0.806633	0.371688
