data_functionalizedCrystal
_audit_creation_method	'MofGen! by Chris Wilmer'
_symmetry_space_group_name_H-M	'P1'
_symmetry_Int_Tables_number	1
_symmetry_cell_setting	triclinic
loop_
_symmetry_equiv_pos_as_xyz
  x,y,z
_cell_length_a	17.077404
_cell_length_b	12.759394
_cell_length_c	17.077396
_cell_angle_alpha	90.026316
_cell_angle_beta	90.019501
_cell_angle_gamma	90.015062
loop_
_atom_site_label
_atom_site_type_symbol
_atom_site_fract_x
_atom_site_fract_y
_atom_site_fract_z
Zn1	Zn	1.200099	-0.418260	0.443855
Zn2	Zn	1.700099	0.081740	0.943855
Zn3	Zn	1.200024	-0.593961	0.312593
Zn4	Zn	1.700024	-0.093961	0.812593
Zn5	Zn	1.068830	-0.418297	0.312602
Zn6	Zn	1.568830	0.081703	0.812602
Zn7	Zn	1.068817	-0.593898	0.443817
Zn8	Zn	1.568817	-0.093898	0.943817
O9	O	1.134442	-0.506104	0.378217
O10	O	1.634442	-0.006104	0.878217
O11	O	1.309936	-0.441578	0.426454
O12	O	1.809936	0.058422	0.926454
O13	O	1.182595	-0.570700	0.202748
O14	O	1.682595	-0.070700	0.702748
O15	O	1.086280	-0.271271	0.330033
O16	O	1.586280	0.228729	0.830033
O17	O	1.309881	-0.570664	0.330017
O18	O	1.809881	-0.070664	0.830017
O19	O	1.182722	-0.271244	0.426463
O20	O	1.682722	0.228756	0.926463
O21	O	1.086208	-0.441641	0.202754
O22	O	1.586208	0.058359	0.702754
O23	O	0.958982	-0.441580	0.329996
O24	O	1.458982	0.058420	0.829996
O25	O	1.086257	-0.570558	0.553669
O26	O	1.586257	-0.070558	1.053669
O27	O	0.958972	-0.570594	0.426399
O28	O	1.458972	-0.070594	0.926399
O29	O	1.182709	-0.441517	0.553697
O30	O	1.682709	0.058483	1.053697
O31	O	1.182582	-0.740974	0.329981
O32	O	1.682582	-0.240974	0.829981
O33	O	1.086185	-0.740928	0.426391
O34	O	1.586185	-0.240928	0.926391
C35	C	0.930495	-0.506085	0.378195
C36	C	1.430495	-0.006085	0.878195
C37	C	0.843245	-0.506102	0.378205
C38	C	1.343245	-0.006102	0.878205
C39	C	0.802270	-0.573381	0.428321
C40	C	1.302270	-0.073381	0.928321
C41	C	0.720290	-0.573383	0.428334
C42	C	1.220290	-0.073383	0.928334
C43	C	0.679285	-0.506111	0.378225
C44	C	1.179285	-0.006111	0.878225
C45	C	0.720266	-0.438825	0.328107
C46	C	1.220266	0.061175	0.828107
C47	C	0.802245	-0.438818	0.328099
C48	C	1.302245	0.061182	0.828099
C49	C	0.549396	-0.438846	0.328125
C50	C	1.049396	0.061154	0.828125
C51	C	0.467411	-0.438854	0.328132
C52	C	0.967411	0.061146	0.828132
C53	C	0.467441	-0.573411	0.428360
C54	C	0.967441	-0.073411	0.928360
C55	C	0.549419	-0.573404	0.428352
C56	C	1.049419	-0.073404	0.928352
C57	C	0.590394	-0.506119	0.378233
C58	C	1.090394	-0.006119	0.878233
C59	C	1.134395	-0.779072	0.378198
C60	C	1.634395	-0.279072	0.878198
C61	C	1.134447	-0.895848	0.378216
C62	C	1.634447	-0.395848	0.878216
C63	C	1.234901	-0.895843	0.277900
C64	C	1.734901	-0.395843	0.777900
C65	C	1.285148	-0.950701	0.227751
C66	C	1.785148	-0.450701	0.727751
C67	C	1.285194	-1.060422	0.227773
C68	C	1.785194	-0.560422	0.727773
C69	C	1.234989	-1.115288	0.277950
C70	C	1.734989	-0.615288	0.777950
C71	C	1.184742	-1.060430	0.328099
C72	C	1.684742	-0.560430	0.828099
C73	C	1.184700	-0.950706	0.328070
C74	C	1.684700	-0.450706	0.828070
C75	C	1.084293	-1.060436	0.428417
C76	C	1.584293	-0.560436	0.928417
C77	C	1.084242	-0.950714	0.428393
C78	C	1.584242	-0.450714	0.928393
C79	C	1.034088	-1.115302	0.478594
C80	C	1.534088	-0.615302	0.978594
C81	C	0.983835	-1.060444	0.528740
C82	C	1.483835	-0.560444	1.028740
C83	C	0.983791	-0.950716	0.528716
C84	C	1.483791	-0.450716	1.028716
C85	C	1.033994	-0.895856	0.478542
C86	C	1.533994	-0.395856	0.978542
C87	C	1.339187	-0.506124	0.378239
C88	C	1.839187	-0.006124	0.878239
C89	C	1.426436	-0.506132	0.378249
C90	C	1.926436	-0.006132	0.878249
C91	C	1.134490	-0.506027	0.582961
C92	C	1.634490	-0.006027	1.082961
C93	C	1.134510	-0.505994	0.670211
C94	C	1.634510	-0.005994	1.170211
C95	C	1.134511	-0.232071	0.378253
C96	C	1.634511	0.267929	0.878253
C97	C	1.134540	-0.115294	0.378269
C98	C	1.634540	0.384706	0.878269
C99	C	1.134440	-0.506105	0.174269
C100	C	1.634440	-0.006105	0.674269
C101	C	1.134572	-0.505842	0.087020
C102	C	1.634572	-0.005842	0.587020
C103	C	1.184735	-0.438797	0.711217
C104	C	1.684735	0.061203	1.211217
C105	C	1.184744	-0.438762	0.793197
C106	C	1.684744	0.061238	1.293197
C107	C	1.134532	-0.505930	0.834171
C108	C	1.634532	-0.005930	1.334171
C109	C	1.084302	-0.573130	0.793159
C110	C	1.584302	-0.073130	1.293159
C111	C	1.084290	-0.573159	0.711180
C112	C	1.584290	-0.073159	1.211180
C113	C	1.084334	-0.573067	0.964029
C114	C	1.584334	-0.073067	1.464029
C115	C	1.084348	-0.573039	1.046014
C116	C	1.584348	-0.073039	1.546014
C117	C	1.184788	-0.438670	1.046047
C118	C	1.684788	0.061330	1.546047
C119	C	1.184776	-0.438699	0.964068
C120	C	1.684776	0.061301	1.464068
C121	C	1.134546	-0.505900	0.923062
C122	C	1.634546	-0.005900	1.423062
H123	H	0.686874	-0.384047	0.287311
H124	H	1.186874	0.115953	0.787311
O125	O	0.593648	-0.645954	0.482402
O126	O	1.093648	-0.145954	0.982402
H127	H	0.577896	-0.728392	0.468842
H128	H	1.077896	-0.228392	0.968842
O129	O	1.339301	-0.891531	0.173634
O130	O	1.839301	-0.391531	0.673634
H131	H	1.400908	-0.912515	0.187164
H132	H	1.900908	-0.412515	0.687164
H133	H	1.225686	-0.383950	1.079437
H134	H	1.725686	0.116050	1.579437
O135	O	1.238919	-0.366292	0.837428
O136	O	1.738919	0.133708	1.337428
H137	H	1.273840	-0.319602	0.795164
H138	H	1.773840	0.180398	1.295164
O139	O	0.593594	-0.366275	0.274069
O140	O	1.093594	0.133725	0.774069
H141	H	0.630923	-0.413233	0.234075
H142	H	1.130923	0.086767	0.734075
O143	O	0.423254	-0.645978	0.482427
O144	O	0.923254	-0.145978	0.982427
H145	H	0.359360	-0.634673	0.474024
H146	H	0.859360	-0.134673	0.974024
O147	O	1.033932	-0.777514	0.478521
O148	O	1.533932	-0.277514	0.978521
H149	H	1.093115	-0.748493	0.494433
H150	H	1.593115	-0.248493	0.994433
H151	H	1.225667	-0.384010	0.930709
H152	H	1.725667	0.115990	1.430709
H153	H	0.942876	-0.906056	0.569557
H154	H	1.442876	-0.406056	1.069557
H155	H	1.043416	-0.627816	0.826526
H156	H	1.543416	-0.127816	1.326526
O157	O	1.030158	-0.645548	0.919800
O158	O	1.530158	-0.145548	1.419800
H159	H	0.990224	-0.598530	0.882456
H160	H	1.490224	-0.098530	1.382456
H161	H	1.043459	-0.627731	1.079372
H162	H	1.543459	-0.127731	1.579372
H163	H	0.835606	-0.384028	0.287293
H164	H	1.335606	0.115972	0.787293
O165	O	1.238892	-0.366351	0.667025
O166	O	1.738892	0.133649	1.167025
H167	H	1.273812	-0.319612	0.709315
H168	H	1.773812	0.180388	1.209315
H169	H	1.326114	-1.105087	0.186941
H170	H	1.826114	-0.605087	0.686941
O171	O	0.423180	-0.366288	0.274097
O172	O	0.923180	0.133712	0.774097
H173	H	0.465443	-0.319485	0.239254
H174	H	0.965443	0.180515	0.739254
O175	O	0.676173	-0.646146	0.482305
O176	O	1.176173	-0.146146	0.982305
H177	H	0.691928	-0.628388	0.543962
H178	H	1.191928	-0.128388	1.043962
H179	H	1.235038	-1.204629	0.277970
H180	H	1.735038	-0.704629	0.777970
H181	H	1.234858	-0.806502	0.277868
H182	H	1.734858	-0.306502	0.777868
O183	O	0.929691	-1.119629	0.582849
O184	O	1.429691	-0.619629	1.082849
H185	H	0.943114	-1.098501	0.644465
H186	H	1.443114	-0.598501	1.144465
H187	H	1.034132	-1.204643	0.478612
H188	H	1.534132	-0.704643	0.978612
O189	O	1.030109	-0.645621	0.666946
O190	O	1.530109	-0.145621	1.166946
H191	H	0.995196	-0.692324	0.709208
H192	H	1.495196	-0.192324	1.209208
H193	H	0.835650	-0.628165	0.469123
H194	H	1.335650	-0.128165	0.969123
