data_functionalizedCrystal
_audit_creation_method	'MofGen! by Chris Wilmer'
_symmetry_space_group_name_H-M	'P1'
_symmetry_Int_Tables_number	1
_symmetry_cell_setting	triclinic
loop_
_symmetry_equiv_pos_as_xyz
  x,y,z
_cell_length_a	23.532407
_cell_length_b	23.532407
_cell_length_c	13.596369
_cell_angle_alpha	90.000007
_cell_angle_beta	89.989360
_cell_angle_gamma	82.848678
loop_
_atom_site_label
_atom_site_type_symbol
_atom_site_fract_x
_atom_site_fract_y
_atom_site_fract_z
O1	O	0.069136	0.755260	-0.081679
O2	O	0.569136	1.255260	0.418321
O3	O	0.079139	0.589397	-0.081709
O4	O	0.579139	1.089397	0.418291
O5	O	-0.008794	0.677330	-0.081675
O6	O	0.491206	1.177330	0.418325
O7	O	0.157069	0.667327	-0.081713
O8	O	0.657069	1.167327	0.418287
O9	O	-0.008799	0.677321	0.081908
O10	O	0.491201	1.177321	0.581908
O11	O	0.079134	0.589388	0.081874
O12	O	0.579134	1.089388	0.581874
O13	O	0.069131	0.755251	0.081904
O14	O	0.569131	1.255251	0.581904
Zn15	Zn	0.074132	0.672318	0.107862
Zn16	Zn	0.574132	1.172318	0.607862
Zn17	Zn	0.074138	0.672330	-0.107666
Zn18	Zn	0.574138	1.172330	0.392334
O19	O	0.157064	0.667318	0.081870
O20	O	0.657064	1.167318	0.581870
C21	C	0.078882	0.568176	0.000079
C22	C	0.578882	1.068176	0.500079
C23	C	0.078116	0.504959	0.000068
C24	C	0.578116	1.004959	0.500068
C25	C	0.125350	0.105856	0.000102
C26	C	0.625350	0.605856	0.500102
C27	C	0.124638	0.046456	0.000108
C28	C	0.624638	0.546456	0.500108
O29	O	0.168424	0.009711	0.000134
O30	O	0.668424	0.509711	0.500134
N31	N	0.072362	0.023830	0.000118
N32	N	0.572362	0.523830	0.500118
C33	C	0.020794	0.060607	0.000133
C34	C	0.520794	0.560607	0.500133
O35	O	-0.023737	0.035908	0.000143
O36	O	0.476263	0.535908	0.500143
C37	C	0.021506	0.120006	0.000133
C38	C	0.521506	0.620006	0.500133
C39	C	0.073785	0.142629	0.000113
C40	C	0.573785	0.642629	0.500113
C41	C	0.177625	0.128479	0.000083
C42	C	0.677625	0.628479	0.500083
C43	C	0.178336	0.187876	0.000075
C44	C	0.678336	0.687876	0.500075
C45	C	0.126772	0.224649	0.000086
C46	C	0.626772	0.724649	0.500086
C47	C	0.074496	0.202025	0.000105
C48	C	0.574496	0.702025	0.500105
C49	C	-0.030062	0.156783	0.000155
C50	C	0.469938	0.656783	0.500155
C51	C	-0.029345	0.216185	0.000156
C52	C	0.470655	0.716185	0.500156
C53	C	0.022934	0.238808	0.000136
C54	C	0.522934	0.738808	0.500136
C55	C	0.023643	0.298194	0.000108
C56	C	0.523643	0.798194	0.500108
N57	N	0.075920	0.320820	0.000098
N58	N	0.575920	0.820820	0.500098
C59	C	0.127484	0.284048	0.000087
C60	C	0.627484	0.784048	0.500087
C61	C	0.019302	-0.064135	0.000133
C62	C	0.519302	0.435865	0.500133
C63	C	0.018589	-0.123533	0.000125
C64	C	0.518589	0.376467	0.500125
C65	C	0.122434	-0.137680	0.000102
C66	C	0.622434	0.362320	0.500102
C67	C	0.123146	-0.078281	0.000103
C68	C	0.623146	0.421719	0.500103
C69	C	0.071578	-0.041509	0.000122
C70	C	0.571578	0.458491	0.500122
C71	C	0.128974	0.408784	0.000069
C72	C	0.628974	0.908784	0.500069
C73	C	0.129680	0.468186	0.000057
C74	C	0.629680	0.968186	0.500057
C75	C	0.025836	0.482329	0.000085
C76	C	0.525836	0.982329	0.500085
C77	C	0.025129	0.422932	0.000092
C78	C	0.525129	0.922932	0.500092
C79	C	0.076702	0.386160	0.000087
C80	C	0.576702	0.886160	0.500087
O81	O	-0.020119	0.334974	0.000087
O82	O	0.479881	0.834974	0.500087
O83	O	0.172007	0.308755	0.000090
O84	O	0.672007	0.808755	0.500090
C85	C	-0.030013	0.677071	0.000119
C86	C	0.469987	1.177071	0.500119
C87	C	-0.093230	0.676305	0.000127
C88	C	0.406770	1.176305	0.500127
C89	C	-0.492333	0.723539	0.000081
C90	C	0.007667	1.223539	0.500081
C91	C	-0.551733	0.722827	0.000074
C92	C	-0.051733	1.222827	0.500074
O93	O	-0.588478	0.766613	0.000045
O94	O	-0.088478	1.266613	0.500045
N95	N	-0.574359	0.670551	0.000065
N96	N	-0.074359	1.170551	0.500065
C97	C	-0.537582	0.618983	0.000054
C98	C	-0.037582	1.118983	0.500054
O99	O	-0.562281	0.574452	0.000044
O100	O	-0.062281	1.074452	0.500044
C101	C	-0.478182	0.619695	0.000054
C102	C	0.021818	1.119695	0.500054
C103	C	-0.455560	0.671974	0.000073
C104	C	0.044440	1.171974	0.500073
C105	C	-0.469710	0.775814	0.000099
C106	C	0.030290	1.275814	0.500099
C107	C	-0.410313	0.776525	0.000108
C108	C	0.089687	1.276525	0.500108
C109	C	-0.373540	0.724961	0.000100
C110	C	0.126460	1.224961	0.500100
C111	C	-0.396164	0.672685	0.000082
C112	C	0.103836	1.172685	0.500082
C113	C	-0.441406	0.568127	0.000036
C114	C	0.058594	1.068127	0.500036
C115	C	-0.382004	0.568844	0.000036
C116	C	0.117996	1.068844	0.500036
C117	C	-0.359381	0.621123	0.000055
C118	C	0.140619	1.121123	0.500055
C119	C	-0.299995	0.621832	0.000084
C120	C	0.200005	1.121832	0.500084
N121	N	-0.277368	0.674109	0.000092
N122	N	0.222632	1.174109	0.500092
C123	C	-0.314141	0.725673	0.000101
C124	C	0.185859	1.225673	0.500101
C125	C	-0.662324	0.617491	0.000051
C126	C	-0.162324	1.117491	0.500051
C127	C	-0.721722	0.616778	0.000057
C128	C	-0.221722	1.116778	0.500057
C129	C	-0.735869	0.720623	0.000075
C130	C	-0.235869	1.220623	0.500075
C131	C	-0.676470	0.721335	0.000076
C132	C	-0.176470	1.221335	0.500076
C133	C	-0.639698	0.669767	0.000060
C134	C	-0.139698	1.169767	0.500060
C135	C	-0.189405	0.727163	0.000121
C136	C	0.310595	1.227163	0.500121
C137	C	-0.130003	0.727869	0.000135
C138	C	0.369997	1.227869	0.500135
C139	C	-0.115860	0.624025	0.000111
C140	C	0.384140	1.124025	0.500111
C141	C	-0.175257	0.623318	0.000103
C142	C	0.324743	1.123318	0.500103
C143	C	-0.212029	0.674891	0.000105
C144	C	0.287971	1.174891	0.500105
O145	O	-0.263215	0.578070	0.000108
O146	O	0.236785	1.078070	0.500108
O147	O	-0.289433	0.770196	0.000097
O148	O	0.210567	1.270196	0.500097
C149	C	0.178283	0.667577	0.000074
C150	C	0.678283	1.167577	0.500074
C151	C	0.241500	0.668343	0.000060
C152	C	0.741500	1.168343	0.500060
C153	C	0.069388	0.776472	0.000114
C154	C	0.569388	1.276472	0.500114
C155	C	0.070154	0.839689	0.000119
C156	C	0.570154	1.339689	0.500119
N157	N	0.074128	0.672315	0.254953
N158	N	0.574128	1.172315	0.754953
N159	N	0.074138	0.672338	-0.254758
N160	N	0.574138	1.172338	0.245242
C161	C	0.074139	0.672329	0.656244
C162	C	0.574139	1.172329	1.156244
C163	C	0.074138	0.672323	0.544593
C164	C	0.574138	1.172323	1.044593
C165	C	0.074134	0.672322	0.455602
C166	C	0.574134	1.172322	0.955602
C167	C	0.074132	0.672316	0.343944
C168	C	0.574132	1.172316	0.843944
H169	H	-0.016146	0.512280	0.000090
H170	H	0.483854	1.012280	0.500090
H171	H	0.165717	-0.059867	0.000092
H172	H	0.665717	0.440133	0.500092
H173	H	-0.022693	-0.034198	0.000140
H174	H	0.477307	0.465802	0.500140
F175	F	-0.076714	0.569149	0.000103
F176	F	0.423286	1.069149	0.500103
F177	F	0.233980	0.211944	0.000058
F178	F	0.733980	0.711944	0.500058
H179	H	0.172255	0.486602	0.000040
H180	H	0.672255	0.986602	0.500040
F181	F	-0.084233	0.255318	0.000179
F182	F	0.415767	0.755318	0.500179
H183	H	-0.111587	0.770443	0.000153
H184	H	0.388413	1.270443	0.500153
H185	H	-0.023982	-0.141947	0.000126
H186	H	0.476018	0.358053	0.500126
F187	F	-0.085706	0.132720	0.000162
F188	F	0.414294	0.632720	0.500162
F189	F	-0.228531	0.782053	0.000123
F190	F	0.271469	1.282053	0.500123
F191	F	-0.652399	0.776978	0.000096
F192	F	-0.152399	1.276978	0.500096
H193	H	-0.352066	0.526850	0.000021
H194	H	0.147934	1.026850	0.500021
F195	F	-0.386245	0.832169	0.000107
F196	F	0.113755	1.332169	0.500107
F197	F	0.232512	0.089351	0.000071
F198	F	0.732512	0.589351	0.500071
F199	F	0.177314	-0.176827	0.000094
F200	F	0.677314	0.323173	0.500094
H201	H	-0.017441	0.404512	0.000094
H202	H	0.482559	0.904512	0.500094
F203	F	-0.508838	0.830701	0.000107
F204	F	-0.008838	1.330701	0.500107
H205	H	-0.765821	0.762610	0.000078
H206	H	-0.265821	1.262610	0.500078
F207	F	-0.745792	0.561135	0.000055
F208	F	-0.245792	1.061135	0.500055
F209	F	-0.623192	0.562602	0.000042
F210	F	-0.123192	1.062602	0.500042
H211	H	-0.459814	0.525555	0.000015
H212	H	0.040186	1.025555	0.500015
H213	H	0.170970	0.378851	0.000069
H214	H	0.670970	0.878851	0.500069
F215	F	-0.199335	0.567676	0.000101
F216	F	0.300665	1.067676	0.500101
