data_functionalizedCrystal
_audit_creation_method	'MofGen! by Chris Wilmer'
_symmetry_space_group_name_H-M	'P1'
_symmetry_Int_Tables_number	1
_symmetry_cell_setting	triclinic
loop_
_symmetry_equiv_pos_as_xyz
  x,y,z
_cell_length_a	16.974800
_cell_length_b	16.992695
_cell_length_c	9.730223
_cell_angle_alpha	89.995280
_cell_angle_beta	93.653525
_cell_angle_gamma	87.021674
loop_
_atom_site_label
_atom_site_type_symbol
_atom_site_fract_x
_atom_site_fract_y
_atom_site_fract_z
O1	O	1.055459	0.099873	0.003147
O2	O	1.555459	0.599873	0.503147
O3	O	0.826057	0.112614	-0.022381
O4	O	1.326057	0.612614	0.477619
O5	O	0.939839	-0.007898	-0.009708
O6	O	1.439839	0.492102	0.490292
O7	O	0.941678	0.220385	-0.009526
O8	O	1.441678	0.720385	0.490474
O9	O	0.939831	-0.007901	0.218871
O10	O	1.439831	0.492099	0.718871
O11	O	0.826049	0.112610	0.206198
O12	O	1.326049	0.612610	0.706198
O13	O	1.055451	0.099870	0.231726
O14	O	1.555451	0.599870	0.731726
Zn15	Zn	0.940749	0.106240	0.255254
Zn16	Zn	1.440749	0.606240	0.755254
Zn17	Zn	0.940760	0.106244	-0.045909
Zn18	Zn	1.440760	0.606244	0.454091
O19	O	0.941670	0.220382	0.219053
O20	O	1.441670	0.720382	0.719053
C21	C	0.796564	0.112130	0.088627
C22	C	1.296564	0.612130	0.588627
C23	C	0.708696	0.110682	0.078849
C24	C	1.208696	0.610682	0.578849
C25	C	0.667416	0.109998	0.198857
C26	C	1.167416	0.609998	0.698857
C27	C	0.584855	0.108626	0.189674
C28	C	1.084855	0.608626	0.689674
C29	C	0.543575	0.107943	0.060481
C30	C	1.043575	0.607943	0.560481
C31	C	0.584862	0.108624	-0.059536
C32	C	1.084862	0.608624	0.440464
C33	C	0.667422	0.109991	-0.050351
C34	C	1.167422	0.609991	0.449649
C35	C	0.296659	0.103850	0.019651
C36	C	0.796659	0.603850	0.519651
C37	C	0.214093	0.102485	0.010476
C38	C	0.714093	0.602485	0.510476
C39	C	0.214092	0.102486	0.259686
C40	C	0.714092	0.602486	0.759686
C41	C	0.296653	0.103857	0.268860
C42	C	0.796653	0.603857	0.768860
C43	C	0.337932	0.104534	0.148843
C44	C	0.837932	0.604534	0.648843
N45	N	0.459185	0.106542	0.051091
N46	N	0.959185	0.606542	0.551091
N47	N	0.422322	0.105929	0.158234
N48	N	0.922322	0.605929	0.658234
C49	C	0.937469	-0.037110	0.104318
C50	C	1.437469	0.462890	0.604318
C51	C	0.930409	-0.124146	0.103532
C52	C	1.430409	0.375854	0.603532
C53	C	0.998525	-0.174463	0.111113
C54	C	1.498525	0.325537	0.611113
C55	C	0.991887	-0.256242	0.110361
C56	C	1.491887	0.243758	0.610361
C57	C	0.917132	-0.287702	0.102038
C58	C	1.417132	0.212298	0.602038
C59	C	0.849012	-0.237378	0.094452
C60	C	1.349012	0.262622	0.594452
C61	C	0.855651	-0.155601	0.095194
C62	C	1.355651	0.344399	0.595194
C63	C	0.889618	-0.531269	0.098957
C64	C	1.389618	-0.031269	0.598957
C65	C	0.882984	-0.613053	0.098220
C66	C	1.382984	-0.113053	0.598220
C67	C	1.025860	-0.631911	0.114127
C68	C	1.525860	-0.131911	0.614127
C69	C	1.032492	-0.550131	0.114876
C70	C	1.532492	-0.050131	0.614876
C71	C	0.964371	-0.499815	0.107283
C72	C	1.464371	0.000185	0.607283
N73	N	0.910346	-0.371294	0.101274
N74	N	1.410346	0.128706	0.601274
N75	N	0.971159	-0.416225	0.108037
N76	N	1.471159	0.083775	0.608037
C77	C	1.084944	0.100354	0.120715
C78	C	1.584944	0.600354	0.620715
C79	C	1.172813	0.101802	0.130484
C80	C	1.672813	0.601802	0.630484
C81	C	0.944040	0.249593	0.105024
C82	C	1.444040	0.749593	0.605024
C83	C	0.951100	0.336630	0.105801
C84	C	1.451100	0.836630	0.605801
N85	N	0.940748	0.106236	0.460790
N86	N	1.440748	0.606236	0.960790
N87	N	0.940767	0.106241	-0.251444
N88	N	1.440767	0.606241	0.248556
C89	C	0.991150	0.052896	0.538330
C90	C	1.491150	0.552896	1.038330
C91	C	0.991158	0.052896	0.682213
C92	C	1.491158	0.552896	1.182213
C93	C	0.890359	0.159584	0.671005
C94	C	1.390359	0.659584	1.171005
C95	C	0.890348	0.159579	0.527124
C96	C	1.390348	0.659579	1.027124
H97	H	0.330259	0.104399	-0.078075
H98	H	0.830259	0.604399	0.421925
H99	H	0.180473	0.101933	0.357397
H100	H	0.680473	0.601933	0.857397
H101	H	1.032198	0.009461	0.745343
H102	H	1.532198	0.509461	1.245343
N103	N	0.836002	0.217116	0.742551
N104	N	1.336002	0.717116	1.242551
H105	H	0.843658	0.209028	0.845466
H106	H	1.343658	0.709028	1.345466
H107	H	0.848643	0.272733	0.718788
H108	H	1.348643	0.772733	1.218788
H109	H	0.849301	0.203016	0.463986
H110	H	1.349301	0.703016	0.963986
H111	H	0.701019	0.110561	0.304060
H112	H	1.201019	0.610561	0.804060
H113	H	0.551249	0.108056	0.287398
H114	H	1.051249	0.608056	0.787398
H115	H	1.059397	-0.148856	0.117899
H116	H	1.559397	0.351144	0.617899
H117	H	1.081319	-0.672888	0.120306
H118	H	1.581319	-0.172888	0.620306
N119	N	0.540344	0.107878	-0.198882
N120	N	1.040344	0.607878	0.301118
H121	H	0.481779	0.106909	-0.186493
H122	H	0.981779	0.606909	0.313507
H123	H	0.551433	0.156696	-0.252071
H124	H	1.051433	0.656696	0.247929
N125	N	0.802351	-0.646984	0.089240
N126	N	1.302351	-0.146984	0.589240
H127	H	0.772282	-0.628630	0.001152
H128	H	1.272282	-0.128630	0.501152
H129	H	0.808552	-0.706419	0.089989
H130	H	1.308552	-0.206419	0.589989
H131	H	0.701031	0.110549	-0.148074
H132	H	1.201031	0.610549	0.351926
H133	H	1.093364	-0.524523	0.121654
H134	H	1.593364	-0.024523	0.621654
N135	N	0.341174	0.104603	0.408203
N136	N	0.841174	0.604603	0.908203
H137	H	0.302494	0.103963	0.482837
H138	H	0.802494	0.603963	0.982837
H139	H	0.378775	0.056592	0.417827
H140	H	0.878775	0.556592	0.917827
H141	H	1.047354	-0.297208	0.116538
H142	H	1.547354	0.202792	0.616538
N143	N	0.169567	0.101755	-0.128874
N144	N	0.669567	0.601755	0.371126
H145	H	0.208244	0.102391	-0.203512
H146	H	0.708244	0.602391	0.296488
H147	H	0.138651	0.052610	-0.137732
H148	H	0.638651	0.552610	0.362268
H149	H	0.834149	-0.490310	0.092775
H150	H	1.334149	0.009690	0.592775
H151	H	0.788145	-0.262999	0.087666
H152	H	1.288145	0.237001	0.587666
H153	H	0.800183	-0.114632	0.089020
H154	H	1.300183	0.385368	0.589020
H155	H	1.032187	0.009460	0.484324
H156	H	1.532187	0.509460	0.984324
