data_functionalizedCrystal
_audit_creation_method	'MofGen! by Chris Wilmer'
_symmetry_space_group_name_H-M	'P1'
_symmetry_Int_Tables_number	1
_symmetry_cell_setting	triclinic
loop_
_symmetry_equiv_pos_as_xyz
  x,y,z
_cell_length_a	12.759401
_cell_length_b	12.759400
_cell_length_c	12.759393
_cell_angle_alpha	90.032368
_cell_angle_beta	90.022649
_cell_angle_gamma	90.018626
loop_
_atom_site_label
_atom_site_type_symbol
_atom_site_fract_x
_atom_site_fract_y
_atom_site_fract_z
Zn1	Zn	-1.606208	0.418278	-0.594092
Zn2	Zn	-1.606082	0.593997	-0.418409
Zn3	Zn	-1.430510	0.418324	-0.418419
Zn4	Zn	-1.430478	0.593907	-0.594038
O5	O	-1.518319	0.506127	-0.506240
O6	O	-1.753212	0.441605	-0.570806
O7	O	-1.582752	0.570750	-0.271390
O8	O	-1.453882	0.271297	-0.441748
O9	O	-1.753120	0.570705	-0.441733
O10	O	-1.582967	0.271263	-0.570815
O11	O	-1.453760	0.441685	-0.271396
O12	O	-1.283484	0.441598	-0.441696
O13	O	-1.453828	0.570553	-0.741066
O14	O	-1.283461	0.570598	-0.570723
O15	O	-1.582936	0.441519	-0.741106
O16	O	-1.582722	0.741006	-0.441681
O17	O	-1.453707	0.740940	-0.570714
C18	C	-1.245352	0.506094	-0.506205
C19	C	-1.128575	0.506105	-0.506216
C20	C	-1.073694	0.438845	-0.439152
C21	C	-0.963970	0.438867	-0.439160
C22	C	-0.964018	0.573412	-0.573304
C23	C	-1.073740	0.573395	-0.573290
C24	C	-1.073666	0.361163	-0.361708
C25	C	-0.963942	0.361184	-0.361716
C26	C	-1.518226	0.779094	-0.506214
C27	C	-1.518282	0.895871	-0.506238
C28	C	-0.792353	0.506153	-0.506261
C29	C	-0.909129	0.506144	-0.506237
C30	C	-1.585455	0.950635	-0.573496
C31	C	-1.585488	1.060359	-0.573518
C32	C	-1.451173	1.060545	-0.439015
C33	C	-1.451135	0.950822	-0.438999
C34	C	-1.663004	0.950529	-0.651147
C35	C	-1.663037	1.060253	-0.651169
C36	C	-1.518393	0.506021	-0.780273
C37	C	-1.518424	0.505975	-0.897050
C38	C	-1.518406	1.232093	-0.506280
C39	C	-1.518353	1.115317	-0.506276
C40	C	-1.585660	0.438781	-0.951934
C41	C	-1.585685	0.438743	-1.061658
C42	C	-1.451236	0.573103	-1.061604
C43	C	-1.451206	0.573135	-0.951882
C44	C	-1.663286	0.361212	-0.951966
C45	C	-1.663311	0.361174	-1.061690
C46	C	-1.518306	0.506156	-0.233272
C47	C	-1.518479	0.505906	-0.116496
H48	H	-0.929868	0.390241	-0.284370
H49	H	-1.396503	1.105300	-0.384272
H50	H	-1.118420	0.628175	-0.627890
H51	H	-0.919357	0.628197	-0.627913
N52	N	-1.765569	0.399883	-0.906761
H53	H	-1.752173	0.463941	-0.862184
H54	H	-1.815070	0.418517	-0.965653
H55	H	-1.740300	0.916465	-0.622065
H56	H	-0.934188	0.279844	-0.383652
H57	H	-1.396428	0.906234	-0.384242
N58	N	-1.624410	1.105305	-0.753525
H59	H	-1.560363	1.149919	-0.740239
H60	H	-1.605777	1.046315	-0.802923
N61	N	-1.378667	0.645606	-0.892707
H62	H	-1.421308	0.694326	-0.847171
H63	H	-1.329999	0.602838	-0.847255
H64	H	-1.641161	0.920710	-0.732494
N65	N	-1.770843	1.099661	-0.622409
H66	H	-1.818926	1.038105	-0.609551
H67	H	-1.766132	1.143719	-0.556791
H68	H	-1.396507	0.627780	-1.106262
H69	H	-1.641527	0.279847	-0.922210
N70	N	-1.624769	0.258766	-1.106789
H71	H	-1.671623	0.199822	-1.082386
H72	H	-1.626185	0.262568	-1.185837
N73	N	-1.113060	0.389886	-0.253874
H74	H	-1.051498	0.402724	-0.205762
H75	H	-1.157057	0.455507	-0.258506
N76	N	-1.118797	0.258826	-0.400491
H77	H	-1.059900	0.209391	-0.419238
H78	H	-1.163349	0.226476	-0.343651
H79	H	-1.744679	0.382971	-1.091474
