data_functionalizedCrystal
_audit_creation_method	'MofGen! by Chris Wilmer'
_symmetry_space_group_name_H-M	'P1'
_symmetry_Int_Tables_number	1
_symmetry_cell_setting	triclinic
loop_
_symmetry_equiv_pos_as_xyz
  x,y,z
_cell_length_a	14.044191
_cell_length_b	11.026607
_cell_length_c	10.065875
_cell_angle_alpha	100.731764
_cell_angle_beta	99.551392
_cell_angle_gamma	79.111103
loop_
_atom_site_label
_atom_site_type_symbol
_atom_site_fract_x
_atom_site_fract_y
_atom_site_fract_z
O1	O	1.319591	-0.281488	0.113356
O2	O	1.652925	0.051846	0.446689
O3	O	1.986258	0.385179	0.780022
O4	O	1.041788	-0.270718	0.113386
O5	O	1.375121	0.062615	0.446720
O6	O	1.708455	0.395948	0.780053
O7	O	1.157665	-0.096957	0.113369
O8	O	1.490998	0.236376	0.446702
O9	O	1.824332	0.569709	0.780035
O10	O	1.203714	-0.455249	0.113373
O11	O	1.537048	-0.121915	0.446707
O12	O	1.870381	0.211418	0.780040
O13	O	1.135594	-0.130236	-0.113617
O14	O	1.468927	0.203097	0.219717
O15	O	1.802260	0.536430	0.553050
O16	O	1.019716	-0.303997	-0.113599
O17	O	1.353050	0.029336	0.219734
O18	O	1.686383	0.362669	0.553068
O19	O	1.297520	-0.314767	-0.113630
O20	O	1.630853	0.018566	0.219704
O21	O	1.964187	0.351900	0.553037
Zn22	Zn	1.155114	-0.314666	-0.149653
Zn23	Zn	1.488447	0.018667	0.183680
Zn24	Zn	1.821781	0.352001	0.517013
Zn25	Zn	1.184194	-0.270819	0.149410
Zn26	Zn	1.517527	0.062514	0.482743
Zn27	Zn	1.850861	0.395847	0.816076
O28	O	1.181643	-0.488528	-0.113612
O29	O	1.514976	-0.155195	0.219721
O30	O	1.848309	0.178139	0.553055
C31	C	0.994634	-0.282648	-0.000102
C32	C	1.327968	0.050685	0.333231
C33	C	1.661301	0.384019	0.666564
C34	C	0.887013	-0.268599	-0.000091
C35	C	1.220346	0.064735	0.333243
C36	C	1.553679	0.398068	0.666576
C37	C	1.344674	-0.302837	-0.000138
C38	C	1.678007	0.030496	0.333195
C39	C	2.011340	0.363830	0.666529
C40	C	1.452296	-0.316885	-0.000141
C41	C	1.785630	0.016449	0.333192
C42	C	2.118963	0.349782	0.666526
C43	C	1.138134	-0.067466	-0.000122
C44	C	1.471468	0.265868	0.333212
C45	C	1.804801	0.599201	0.666545
C46	C	1.112811	0.069992	-0.000114
C47	C	1.446144	0.403325	0.333219
C48	C	1.779477	0.736658	0.666553
C49	C	1.689968	-0.242935	-0.000114
C50	C	2.023301	0.090398	0.333219
C51	C	2.356634	0.423732	0.666553
C52	C	1.649335	-0.342543	-0.000118
C53	C	1.982668	-0.009209	0.333216
C54	C	2.316001	0.324124	0.666549
C55	C	1.539692	-0.328263	-0.000131
C56	C	1.873025	0.005070	0.333203
C57	C	2.206359	0.338404	0.666536
C58	C	1.799620	-0.257213	-0.000101
C59	C	2.132953	0.076120	0.333232
C60	C	2.466287	0.409454	0.666566
C61	C	1.201174	-0.518019	-0.000119
C62	C	1.534507	-0.184686	0.333214
C63	C	1.867840	0.148648	0.666548
C64	C	1.226498	-0.655475	-0.000118
C65	C	1.559832	-0.322142	0.333216
C66	C	1.893165	0.011192	0.666549
N67	N	1.135274	-0.344590	-0.353756
N68	N	1.468608	-0.011257	-0.020422
N69	N	1.801941	0.322077	0.312911
C70	C	1.182735	0.136225	-0.000120
C71	C	1.516068	0.469558	0.333214
C72	C	1.849402	0.802892	0.666547
C73	C	1.156564	0.278294	-0.000112
C74	C	1.489897	0.611628	0.333222
C75	C	1.823230	0.944961	0.666555
C76	C	1.177284	-0.281222	-0.421541
C77	C	1.510617	0.052111	-0.088208
C78	C	1.843950	0.385444	0.245126
C79	C	1.162024	-0.304263	-0.578706
C80	C	1.495357	0.029070	-0.245373
C81	C	1.828691	0.362404	0.087961
N82	N	1.204039	-0.240886	0.353512
N83	N	1.537373	0.092447	0.686846
N84	N	1.870706	0.425781	1.020179
H85	H	1.696892	-0.438544	-0.000111
H86	H	2.030225	-0.105211	0.333223
H87	H	2.363559	0.228123	0.666556
H88	H	1.642414	-0.146942	-0.000122
H89	H	1.975747	0.186392	0.333212
H90	H	2.309080	0.519725	0.666545
H91	H	1.224543	-0.209908	-0.363224
H92	H	1.557876	0.123426	-0.029891
H93	H	1.891210	0.456759	0.303443
H94	H	1.261975	0.087751	-0.000137
H95	H	1.595308	0.421084	0.333197
H96	H	1.928641	0.754417	0.666530
Cl97	Cl	1.034215	0.353119	-0.000085
Cl98	Cl	1.367548	0.686452	0.333249
Cl99	Cl	1.700881	1.019785	0.666582
H100	H	1.305754	0.296074	-0.000024
H101	H	1.639087	0.629407	0.333310
H102	H	1.972421	0.962741	0.666643
H103	H	1.033571	0.118466	-0.000096
H104	H	1.366905	0.451799	0.333237
H105	H	1.700238	0.785132	0.666570
H106	H	1.114753	-0.375572	-0.637020
H107	H	1.448087	-0.042239	-0.303686
H108	H	1.781420	0.291094	0.029647
H109	H	1.251301	-0.169567	-0.588174
H110	H	1.584635	0.163766	-0.254841
H111	H	1.917968	0.497100	0.078493
H112	H	1.088007	-0.415895	-0.412075
H113	H	1.421340	-0.082561	-0.078741
H114	H	1.754674	0.250772	0.254592
