data_functionalizedCrystal
_audit_creation_method	'MofGen! by Chris Wilmer'
_symmetry_space_group_name_H-M	'P1'
_symmetry_Int_Tables_number	1
_symmetry_cell_setting	triclinic
loop_
_symmetry_equiv_pos_as_xyz
  x,y,z
_cell_length_a	15.944551
_cell_length_b	11.792241
_cell_length_c	10.868271
_cell_angle_alpha	90.005281
_cell_angle_beta	89.991490
_cell_angle_gamma	96.153923
loop_
_atom_site_label
_atom_site_type_symbol
_atom_site_fract_x
_atom_site_fract_y
_atom_site_fract_z
O1	O	1.115184	-0.146380	-0.102442
O2	O	1.615184	0.353620	0.397558
O3	O	0.870716	-0.164428	-0.102419
O4	O	1.370716	0.335572	0.397581
O5	O	0.998883	0.009815	-0.102422
O6	O	1.498883	0.509815	0.397578
O7	O	0.987018	-0.320623	-0.102439
O8	O	1.487018	0.179377	0.397561
O9	O	0.998872	0.009822	0.102222
O10	O	1.498872	0.509822	0.602222
O11	O	0.870706	-0.164421	0.102226
O12	O	1.370706	0.335579	0.602226
O13	O	1.115174	-0.146374	0.102202
O14	O	1.615174	0.353626	0.602202
Zn15	Zn	0.992938	-0.155396	0.134706
Zn16	Zn	1.492938	0.344604	0.634706
Zn17	Zn	0.992952	-0.155405	-0.134922
Zn18	Zn	1.492952	0.344595	0.365078
O19	O	0.987007	-0.320617	0.102206
O20	O	1.487007	0.179383	0.602206
C21	C	0.839414	-0.163675	-0.000093
C22	C	1.339414	0.336325	0.499907
C23	C	0.746157	-0.161429	-0.000084
C24	C	1.246157	0.338571	0.499916
C25	C	0.998132	0.052104	-0.000100
C26	C	1.498132	0.552104	0.499900
C27	C	0.995901	0.178099	-0.000101
C28	C	1.495901	0.678099	0.499899
C29	C	1.146476	-0.147126	-0.000126
C30	C	1.646476	0.352874	0.499874
C31	C	1.239733	-0.149372	-0.000143
C32	C	1.739733	0.350628	0.499857
C33	C	1.455101	-0.262745	-0.000121
C34	C	1.955101	0.237255	0.499879
C35	C	1.515889	-0.210102	-0.101017
C36	C	2.015889	0.289898	0.398983
C37	C	1.410477	-0.153436	-0.000125
C38	C	1.910477	0.346564	0.499875
C39	C	1.515856	-0.210069	0.100746
C40	C	2.015856	0.289931	0.600746
C41	C	1.575407	-0.157369	-0.000103
C42	C	2.075407	0.342631	0.499897
C43	C	1.470036	-0.100763	-0.101106
C44	C	1.970036	0.399237	0.398894
C45	C	1.469997	-0.100745	0.100749
C46	C	1.969997	0.399255	0.600749
C47	C	1.530767	-0.048023	-0.000173
C48	C	2.030767	0.451977	0.499827
C49	C	1.315464	-0.151173	-0.000139
C50	C	1.815464	0.348827	0.499861
C51	C	1.670419	-0.159623	-0.000098
C52	C	2.170419	0.340377	0.499902
C53	C	0.987758	-0.362905	-0.000119
C54	C	1.487758	0.137095	0.499881
C55	C	0.989989	-0.488900	-0.000126
C56	C	1.489989	0.011100	0.499874
N57	N	0.992935	-0.155389	0.318720
N58	N	1.492935	0.344611	0.818720
C59	C	0.991799	0.408777	-0.000122
C60	C	1.491799	0.908777	0.499878
C61	C	0.994079	0.280411	-0.000111
C62	C	1.494079	0.780411	0.499889
N63	N	0.992962	-0.155403	-0.318936
N64	N	1.492962	0.344597	0.181064
C65	C	0.992948	-0.155403	0.569726
C66	C	1.492948	0.344597	1.069726
C67	C	0.992938	-0.155399	0.430049
C68	C	1.492938	0.344601	0.930049
H69	H	1.536216	-0.256340	-0.186320
H70	H	2.036216	0.243660	0.313680
C71	C	1.443054	-0.039390	-0.215085
C72	C	1.943054	0.460610	0.284915
C73	C	1.387367	-0.113895	-0.284385
C74	C	1.887367	0.386105	0.215615
C75	C	1.362501	-0.057409	-0.389399
C76	C	1.862501	0.442591	0.110601
H77	H	1.415707	0.024841	-0.191137
H78	H	1.915707	0.524841	0.308863
H79	H	1.491311	-0.014781	-0.263276
H80	H	1.991311	0.485219	0.236724
H81	H	1.339118	-0.138487	-0.236204
H82	H	1.839118	0.361513	0.263796
H83	H	1.414695	-0.178126	-0.308365
H84	H	1.914695	0.321874	0.191635
H85	H	1.410758	-0.032800	-0.437590
H86	H	1.910758	0.467200	0.062410
H87	H	1.335158	0.006820	-0.365439
H88	H	1.835158	0.506820	0.134561
H89	H	1.324721	-0.107955	-0.436438
H90	H	1.824721	0.392045	0.063562
H91	H	1.563510	0.042791	-0.000219
H92	H	2.063510	0.542791	0.499781
H93	H	1.449651	-0.054549	0.186059
H94	H	1.949651	0.445451	0.686059
H95	H	1.536145	-0.256319	0.186046
H96	H	2.036145	0.243681	0.686046
H97	H	1.422204	-0.353478	-0.000225
H98	H	1.922204	0.146522	0.499775
