data_functionalizedCrystal
_audit_creation_method	'MofGen! by Chris Wilmer'
_symmetry_space_group_name_H-M	'P1'
_symmetry_Int_Tables_number	1
_symmetry_cell_setting	triclinic
loop_
_symmetry_equiv_pos_as_xyz
  x,y,z
_cell_length_a	8.597340
_cell_length_b	8.597304
_cell_length_c	14.048226
_cell_angle_alpha	82.293729
_cell_angle_beta	97.695678
_cell_angle_gamma	86.359595
loop_
_atom_site_label
_atom_site_type_symbol
_atom_site_fract_x
_atom_site_fract_y
_atom_site_fract_z
O1	O	2.085993	0.234297	0.072720
O2	O	1.629345	0.252275	0.033790
O3	O	1.866654	0.014956	0.072721
O4	O	1.848684	0.471616	0.033790
O5	O	1.866624	0.014941	0.231041
O6	O	1.629316	0.252260	0.192110
O7	O	2.085963	0.234283	0.231040
Zn8	Zn	1.857635	0.243269	0.236712
Zn9	Zn	1.857673	0.243288	0.028118
O10	O	1.848655	0.471602	0.192110
C11	C	1.570830	0.250337	0.108310
C12	C	1.396519	0.244567	0.094486
C13	C	1.864708	-0.043553	0.156519
C14	C	1.858936	-0.217869	0.170338
C15	C	2.144478	0.236220	0.156518
C16	C	2.318789	0.241990	0.170336
C17	C	1.850600	0.530110	0.108309
C18	C	1.856373	0.704427	0.094484
N19	N	1.857620	0.243255	0.379073
N20	N	1.857700	0.243290	-0.114240
C21	C	1.962734	0.138215	0.446128
C22	C	1.962745	0.138214	0.545787
C23	C	1.857648	0.243262	0.578388
C24	C	1.752522	0.348308	0.511324
C25	C	1.752505	0.348299	0.411667
C26	C	1.752567	0.348320	0.719041
C27	C	1.752586	0.348330	0.818704
C28	C	1.962808	0.138234	0.853160
C29	C	1.962791	0.138226	0.753504
C30	C	1.857666	0.243274	0.686447
H31	H	1.329705	0.242360	0.018962
H32	H	1.858590	-0.228741	0.018965
H33	H	1.856696	-0.284707	0.245860
C34	C	2.078351	0.022650	0.410278
N35	N	2.165432	-0.064402	0.383279
C36	C	2.078341	0.022623	0.619545
N37	N	2.165399	-0.064460	0.675100
C38	C	2.078440	0.022674	0.926925
N39	N	2.165533	-0.064359	0.982489
H40	H	2.048376	0.052696	0.726962
H41	H	1.667003	0.433870	0.845241
C42	C	1.409037	0.244992	0.272360
N43	N	1.477020	0.247266	0.349205
C44	C	1.636908	0.463862	0.645279
N45	N	1.549795	0.550886	0.589722
C46	C	1.636884	0.463865	0.337905
N47	N	1.549795	0.550913	0.282348
H48	H	1.666942	0.433835	0.537873
