data_functionalizedCrystal
_audit_creation_method	'MofGen! by Chris Wilmer'
_symmetry_space_group_name_H-M	'P1'
_symmetry_Int_Tables_number	1
_symmetry_cell_setting	triclinic
loop_
_symmetry_equiv_pos_as_xyz
  x,y,z
_cell_length_a	25.639242
_cell_length_b	16.994747
_cell_length_c	25.639233
_cell_angle_alpha	89.993240
_cell_angle_beta	90.022166
_cell_angle_gamma	90.006589
loop_
_atom_site_label
_atom_site_type_symbol
_atom_site_fract_x
_atom_site_fract_y
_atom_site_fract_z
Zn1	Zn	0.799326	-0.314218	0.295835
Zn2	Zn	0.799291	-0.446103	0.208438
Zn3	Zn	0.711902	-0.314207	0.208399
Zn4	Zn	0.711889	-0.446074	0.295828
O5	O	0.755602	-0.380150	0.252125
O6	O	0.872486	-0.331730	0.284261
O7	O	0.787690	-0.428614	0.135268
O8	O	0.723518	-0.203827	0.219984
O9	O	0.872461	-0.428625	0.220051
O10	O	0.787748	-0.203835	0.284223
O11	O	0.723485	-0.331710	0.135239
O12	O	0.638735	-0.331682	0.219977
O13	O	0.723497	-0.428575	0.368994
O14	O	0.638726	-0.428564	0.284211
O15	O	0.787736	-0.331702	0.368999
O16	O	0.787677	-0.556480	0.220044
O17	O	0.723463	-0.556459	0.284249
C18	C	0.619759	-0.380119	0.252090
C19	C	0.561645	-0.380125	0.252087
C20	C	0.755572	-0.585090	0.252149
C21	C	0.755575	-0.674412	0.252147
Zn22	Zn	0.711917	-0.945293	0.208384
Zn23	Zn	0.799349	-0.945283	0.295812
Zn24	Zn	0.711907	-0.813466	0.295819
Zn25	Zn	0.799301	-0.813358	0.208421
O26	O	0.755618	-0.879350	0.252109
O27	O	0.723539	-1.055673	0.219963
O28	O	0.787765	-0.927838	0.368978
O29	O	0.638743	-0.831003	0.284209
O30	O	0.787775	-1.055666	0.284196
O31	O	0.638750	-0.927855	0.219971
O32	O	0.723522	-0.830993	0.368984
O33	O	0.723476	-0.703071	0.284244
O34	O	0.787693	-0.830819	0.135251
O35	O	0.787683	-0.702991	0.220033
O36	O	0.723492	-0.927751	0.135224
O37	O	0.872508	-0.927734	0.284232
O38	O	0.872472	-0.830809	0.220026
C39	C	0.201286	-0.430681	0.285540
C40	C	0.146682	-0.430686	0.285548
O41	O	0.118449	-0.473632	0.313961
N42	N	0.119363	-0.380172	0.252159
C43	C	0.146651	-0.329644	0.218764
O44	O	0.118400	-0.286678	0.190365
C45	C	0.201254	-0.329636	0.218758
C46	C	0.228570	-0.380159	0.252146
C47	C	0.228603	-0.481199	0.318925
C48	C	0.283203	-0.481195	0.318916
C49	C	0.310487	-0.430673	0.285522
C50	C	0.283171	-0.380155	0.252137
C51	C	0.228541	-0.279105	0.185366
C52	C	0.283148	-0.279101	0.185364
C53	C	0.310464	-0.329624	0.218751
C54	C	0.365056	-0.329629	0.218733
N55	N	0.392375	-0.380143	0.252122
C56	C	0.365091	-0.430665	0.285517
C57	C	0.031980	-0.329664	0.218778
C58	C	-0.022622	-0.329676	0.218780
C59	C	-0.022587	-0.430717	0.285565
C60	C	0.032016	-0.430709	0.285560
C61	C	0.059299	-0.380178	0.252167
C62	C	0.479756	-0.430653	0.285495
C63	C	0.534361	-0.430647	0.285481
C64	C	0.534321	-0.329604	0.218698
C65	C	0.479721	-0.329612	0.218709
C66	C	0.452439	-0.380140	0.252112
O67	O	0.393324	-0.286702	0.190336
O68	O	0.393348	-0.473617	0.313916
C69	C	0.891975	-0.380182	0.252161
C70	C	0.950089	-0.380196	0.252176
C71	C	0.755619	-0.380137	0.388498
C72	C	0.755626	-0.380131	0.446612
C73	C	0.755635	-0.174410	0.252098
C74	C	0.755651	-0.085088	0.252087
C75	C	0.755615	-0.380107	0.116283
C76	C	0.755709	-0.379891	0.058169
C77	C	0.789118	-0.329539	0.806984
C78	C	0.789124	-0.329517	0.861588
O79	O	0.817558	-0.286595	0.889832
N80	N	0.755684	-0.379946	0.888895
C81	C	0.722231	-0.430394	0.861595
O82	O	0.693787	-0.473285	0.889835
C83	C	0.722222	-0.430411	0.806991
C84	C	0.755668	-0.379985	0.779687
C85	C	0.822561	-0.279115	0.779680
C86	C	0.822555	-0.279139	0.725079
C87	C	0.789106	-0.329585	0.697783
C88	C	0.755662	-0.380008	0.725087
C89	C	0.688767	-0.480855	0.779692
C90	C	0.688761	-0.480868	0.725085
C91	C	0.722207	-0.430441	0.697781
C92	C	0.722207	-0.430477	0.643190
N93	N	0.755648	-0.380048	0.615883
C94	C	0.789097	-0.329602	0.643179
C95	C	0.722251	-0.430353	0.976265
C96	C	0.722262	-0.430340	1.030868
C97	C	0.789155	-0.329462	1.030857
C98	C	0.789146	-0.329479	0.976254
C99	C	0.755691	-0.379924	0.948958
C100	C	0.789083	-0.329655	0.528514
C101	C	0.789075	-0.329684	0.473909
C102	C	0.722181	-0.430560	0.473924
C103	C	0.722190	-0.430533	0.528524
C104	C	0.755642	-0.380074	0.555818
O105	O	0.693787	-0.473375	0.614911
O106	O	0.817531	-0.286711	0.614932
C107	C	0.891461	-0.879261	0.252133
C108	C	0.949575	-0.879245	0.252159
C109	C	0.755588	-0.879274	0.115736
C110	C	0.755576	-0.879241	0.057622
C111	C	0.619245	-0.879442	0.252086
C112	C	0.561131	-0.879481	0.252077
C113	C	0.755611	-0.879471	0.387952
C114	C	0.755477	-0.879654	0.446065
C115	C	0.976869	-0.929749	0.285572
C116	C	1.031473	-0.929750	0.285597
C117	C	1.058783	-0.879243	0.252210
C118	C	1.031485	-0.828737	0.218793
C119	C	0.976881	-0.828741	0.218766
C120	C	0.722140	-0.929694	0.030314
C121	C	0.722118	-0.929663	-0.024290
C122	C	0.755534	-0.879184	-0.051586
C123	C	0.788971	-0.828726	-0.024274
C124	C	0.788991	-0.828753	0.030330
C125	C	0.533834	-0.829068	0.285518
C126	C	0.479229	-0.829089	0.285509
C127	C	0.451924	-0.879529	0.252061
C128	C	0.479225	-0.929944	0.218616
C129	C	0.533828	-0.929919	0.218623
C130	C	0.722207	-0.828952	0.473337
C131	C	0.722071	-0.829124	0.527941
C132	C	0.755210	-0.879994	0.555273
C133	C	0.788482	-0.930701	0.527998
C134	C	0.788615	-0.930533	0.473394
H135	H	0.556600	-0.471792	0.312670
C136	C	0.859047	-0.942018	0.412177
C137	C	0.825193	-0.986262	0.443420
H138	H	0.881627	-0.976426	0.393672
H139	H	0.879145	-0.907926	0.433580
H140	H	0.839325	-0.911705	0.388084
H141	H	0.844915	-1.016570	0.467516
H142	H	0.805093	-1.020367	0.422015
H143	H	0.556050	-0.970976	0.191392
C144	C	0.854146	-1.031085	0.522583
C145	C	0.824910	-0.986611	0.558045
H146	H	0.876634	-1.065601	0.541135
H147	H	0.874352	-0.996861	0.501384
H148	H	0.831279	-1.060966	0.501184
H149	H	0.847778	-0.956726	0.579442
H150	H	0.804703	-1.020840	0.579253
H151	H	0.755098	-0.880122	0.599734
H152	H	-0.044858	-0.288543	0.191587
H153	H	1.053692	-0.970877	0.312811
C154	C	0.656539	-0.728585	0.478778
C155	C	0.685771	-0.773039	0.443301
H156	H	0.634040	-0.694072	0.460237
H157	H	0.679405	-0.698709	0.500174
H158	H	0.636341	-0.762829	0.499979
H159	H	0.705973	-0.738795	0.422103
H160	H	0.662902	-0.802916	0.421897
C161	C	0.651633	-0.817613	0.589151
C162	C	0.685496	-0.773380	0.557911
H163	H	0.629051	-0.783198	0.607648
H164	H	0.671345	-0.847924	0.613245
H165	H	0.631532	-0.851706	0.567742
H166	H	0.705600	-0.739291	0.579320
H167	H	0.665782	-0.743055	0.533814
H168	H	0.457550	-0.471796	0.312696
C169	C	0.818713	-0.783965	0.114036
C170	C	0.825747	-0.773293	0.060344
H171	H	0.841404	-0.749718	0.132562
H172	H	0.826382	-0.836955	0.122977
H173	H	0.783584	-0.772445	0.122983
H174	H	0.860876	-0.784817	0.051396
H175	H	0.818082	-0.720291	0.051399
C176	C	0.277736	-0.581060	0.384934
C177	C	0.313225	-0.536724	0.355623
H178	H	0.296268	-0.615337	0.407599
H179	H	0.256430	-0.611182	0.362128
H180	H	0.256447	-0.546725	0.404960
H181	H	0.334511	-0.571058	0.335593
H182	H	0.334540	-0.506599	0.378432
H183	H	0.206394	-0.522341	0.346122
H184	H	-0.044812	-0.471852	0.312759
C185	C	0.026553	-0.530579	0.351575
C186	C	0.062039	-0.486237	0.322265
H187	H	0.045088	-0.564856	0.374239
H188	H	0.005248	-0.560703	0.328768
H189	H	0.005263	-0.496249	0.371603
H190	H	0.083327	-0.520567	0.302235
H191	H	0.083353	-0.456112	0.345075
H192	H	0.816178	-0.787627	-0.046506
C193	C	0.528340	-0.729373	0.351629
C194	C	0.563840	-0.773616	0.322286
H195	H	0.546863	-0.695133	0.374326
H196	H	0.507055	-0.763763	0.371619
H197	H	0.507031	-0.699208	0.328842
H198	H	0.585146	-0.803786	0.345073
H199	H	0.585134	-0.739222	0.302294
C200	C	0.417844	-0.818204	0.355837
C201	C	0.449226	-0.773676	0.322278
H202	H	0.399321	-0.783994	0.378534
H203	H	0.439155	-0.852572	0.375826
H204	H	0.393767	-0.848235	0.335908
H205	H	0.473306	-0.743649	0.342207
H206	H	0.427913	-0.739294	0.302286
H207	H	0.694888	-0.970753	-0.046520
C208	C	0.960056	-0.968340	0.374071
C209	C	0.946857	-0.985271	0.322275
H210	H	0.941532	-1.002624	0.396729
H211	H	0.951105	-0.915365	0.381755
H212	H	0.996484	-0.975564	0.378858
H213	H	0.910430	-0.978041	0.317487
H214	H	0.955805	-1.038259	0.314588
H215	H	0.456984	-0.971010	0.191383
C216	C	0.093347	-0.318539	0.148444
C217	C	0.061969	-0.274127	0.182062
H218	H	0.111861	-0.284251	0.125781
H219	H	0.072035	-0.352861	0.128422
H220	H	0.117433	-0.348615	0.168333
H221	H	0.037881	-0.244056	0.162173
H222	H	0.083284	-0.239792	0.202087
C223	C	0.234015	-0.179214	0.119366
C224	C	0.198525	-0.223560	0.148669
H225	H	0.215483	-0.144917	0.096713
H226	H	0.255297	-0.213535	0.099332
H227	H	0.255327	-0.149105	0.142182
H228	H	0.177215	-0.253674	0.125853
H229	H	0.177234	-0.189235	0.168705
H230	H	0.407462	-0.879539	0.252058
H231	H	0.305359	-0.237947	0.158173
C232	C	0.848029	-0.145576	0.708270
C233	C	0.859314	-0.223688	0.695078
H234	H	0.870721	-0.111338	0.689750
H235	H	0.852815	-0.138368	0.744694
H236	H	0.812899	-0.134044	0.699303
H237	H	0.894443	-0.235222	0.704049
H238	H	0.854533	-0.230899	0.658645
H239	H	0.457479	-0.288474	0.191521
H240	H	0.556546	-0.288472	0.191507
C241	C	0.855196	-0.229962	0.479392
C242	C	0.825840	-0.274248	0.443897
H243	H	0.877889	-0.195735	0.460864
H244	H	0.875191	-0.264326	0.500701
H245	H	0.832416	-0.199781	0.500676
H246	H	0.848619	-0.304433	0.422615
H247	H	0.805843	-0.239880	0.422578
H248	H	0.849800	-0.238032	0.801899
C249	C	0.859426	-0.318678	0.589928
C250	C	0.825855	-0.274194	0.558512
H251	H	0.882126	-0.284440	0.608450
H252	H	0.879411	-0.353055	0.568641
H253	H	0.839505	-0.348697	0.614007
H254	H	0.845776	-0.244178	0.534430
H255	H	0.805867	-0.239803	0.579801
C256	C	0.855265	-0.229764	0.981741
C257	C	0.825907	-0.274042	0.946244
H258	H	0.877957	-0.195535	0.963215
H259	H	0.875261	-0.264133	1.003047
H260	H	0.832487	-0.199587	1.003029
H261	H	0.848685	-0.304225	0.924958
H262	H	0.805910	-0.239670	0.924929
C263	C	0.818851	-0.284628	1.114561
C264	C	0.825915	-0.273996	1.060869
H265	H	0.841541	-0.250383	1.133088
H266	H	0.826502	-0.337617	1.123521
H267	H	0.783720	-0.273083	1.123486
H268	H	0.861046	-0.285548	1.051943
H269	H	0.818269	-0.220996	1.051905
H270	H	0.695032	-0.471411	1.053094
H271	H	0.695007	-0.471436	0.954045
H272	H	1.053728	-0.787616	0.191610
C273	C	0.622635	-0.580547	0.774194
C274	C	0.651996	-0.536280	0.809695
H275	H	0.599929	-0.614760	0.792717
H276	H	0.645407	-0.610734	0.752914
H277	H	0.602648	-0.546165	0.752881
H278	H	0.671985	-0.570661	0.831006
H279	H	0.629221	-0.506090	0.830984
C280	C	0.768865	-0.954193	-0.129800
C281	C	0.755523	-0.879168	-0.111607
H282	H	0.768864	-0.954186	-0.166855
H283	H	0.744175	-0.991465	-0.117455
H284	H	0.802610	-0.967804	-0.117435
H285	H	0.721777	-0.865560	-0.123969
H286	H	0.780215	-0.841885	-0.123957
H287	H	1.103244	-0.879248	0.252237
H288	H	0.661511	-0.521939	0.702864
H289	H	0.954663	-0.787610	0.191558
H290	H	0.694960	-0.471602	0.550757
H291	H	0.694949	-0.471634	0.451689
C292	C	0.656050	-1.029447	0.024800
C293	C	0.685401	-0.985181	0.060309
H294	H	0.633364	-1.063698	0.043316
H295	H	0.678829	-1.059594	0.003502
H296	H	0.636043	-0.995067	0.003505
H297	H	0.705411	-1.019562	0.081602
H298	H	0.662619	-0.955032	0.081616
