data_functionalizedCrystal
_audit_creation_method	'MofGen! by Chris Wilmer'
_symmetry_space_group_name_H-M	'P1'
_symmetry_Int_Tables_number	1
_symmetry_cell_setting	triclinic
loop_
_symmetry_equiv_pos_as_xyz
  x,y,z
_cell_length_a	34.408637
_cell_length_b	34.407814
_cell_length_c	34.404193
_cell_angle_alpha	60.004510
_cell_angle_beta	60.009006
_cell_angle_gamma	59.994604
loop_
_atom_site_label
_atom_site_type_symbol
_atom_site_fract_x
_atom_site_fract_y
_atom_site_fract_z
O1	O	0.053973	-0.567860	0.474801
O2	O	0.553973	-0.067860	0.974801
O3	O	0.020377	-0.442124	0.382567
O4	O	0.520377	0.057876	0.882567
O5	O	0.100004	-0.521670	0.382483
O6	O	0.600004	-0.021670	0.882483
O7	O	-0.025653	-0.488314	0.474886
O8	O	0.474347	0.011686	0.974886
O9	O	0.126426	-0.495253	0.408816
O10	O	0.626426	0.004747	0.908816
O11	O	0.046800	-0.415707	0.408900
O12	O	0.546800	0.084293	0.908900
O13	O	0.080396	-0.541443	0.501134
O14	O	0.580396	-0.041443	1.001134
Zn15	Zn	0.067793	-0.474381	0.459198
Zn16	Zn	0.567793	0.025619	0.959198
Zn17	Zn	0.032980	-0.509186	0.424503
Zn18	Zn	0.532980	-0.009186	0.924503
O19	O	0.000769	-0.461897	0.501219
O20	O	0.500769	0.038103	1.001219
N21	N	0.091552	-0.450631	0.482879
N22	N	0.591552	0.049369	0.982879
N23	N	0.009225	-0.532940	0.400823
N24	N	0.509225	-0.032940	0.900823
C25	C	0.142848	-0.268847	0.534081
C26	C	0.642848	0.231153	1.034081
C27	C	0.142979	-0.399386	0.664559
C28	C	0.642979	0.100614	1.164559
C29	C	0.142862	-0.399365	0.534081
C30	C	0.642862	0.100635	1.034081
C31	C	0.273409	-0.399338	0.533986
C32	C	0.773409	0.100662	1.033986
C33	C	0.157225	-0.311914	0.548422
C34	C	0.657225	0.188086	1.048422
C35	C	0.157300	-0.385019	0.621491
C36	C	0.657300	0.114981	1.121491
C37	C	0.230339	-0.384991	0.548370
C38	C	0.730339	0.115009	1.048370
C39	C	0.157235	-0.385007	0.548422
C40	C	0.657235	0.114993	1.048422
C41	C	0.124548	-0.214028	0.515827
C42	C	0.624548	0.285972	1.015827
C43	C	0.124571	-0.417639	0.515827
C44	C	0.624571	0.082361	1.015827
C45	C	0.175526	-0.366733	0.566676
C46	C	0.675526	0.133267	1.066676
C47	C	0.353121	-0.385580	0.491988
C48	C	0.853121	0.114420	0.991988
C49	C	0.402952	-0.402180	0.475348
C50	C	0.902952	0.097820	0.975348
C51	C	0.402981	-0.482812	0.506096
C52	C	0.902981	0.017188	1.006096
C53	C	0.353151	-0.466211	0.522737
C54	C	0.853151	0.033789	1.022737
C55	C	0.136544	-0.189099	0.466839
C56	C	0.636544	0.310901	0.966839
C57	C	0.119905	-0.139265	0.450247
C58	C	0.619905	0.360735	0.950247
C59	C	0.079280	-0.139291	0.531632
C60	C	0.579280	0.360709	1.031632
C61	C	0.095918	-0.189125	0.548224
C62	C	0.595918	0.310875	1.048224
C63	C	0.075577	-0.405615	0.527900
C64	C	0.575577	0.094385	1.027900
C65	C	0.058953	-0.422228	0.511301
C66	C	0.558953	0.077772	1.011301
C67	C	0.140315	-0.462889	0.470566
C68	C	0.640315	0.037111	0.970566
C69	C	0.156941	-0.446276	0.487159
C70	C	0.656941	0.053724	0.987159
C71	C	0.075772	-0.405653	0.744326
C72	C	0.575772	0.094347	1.244326
C73	C	0.059206	-0.422280	0.794159
C74	C	0.559206	0.077720	1.294159
C75	C	0.140607	-0.462951	0.794094
C76	C	0.640607	0.037049	1.294094
C77	C	0.157172	-0.446325	0.744260
C78	C	0.657172	0.053675	1.244260
C79	C	0.124753	-0.417674	0.719377
C80	C	0.624753	0.082326	1.219377
C81	C	0.328223	-0.417595	0.515681
C82	C	0.828223	0.082405	1.015681
C83	C	-0.172390	-0.583988	0.349141
C84	C	0.327610	-0.083988	0.849141
C85	C	-0.041751	-0.584138	0.218783
C86	C	0.458249	-0.084138	0.718783
C87	C	-0.041941	-0.584130	0.349402
C88	C	0.458059	-0.084130	0.849402
C89	C	-0.041957	-0.714607	0.349338
C90	C	0.458043	-0.214607	0.849338
C91	C	-0.129326	-0.598388	0.334853
C92	C	0.370674	-0.098388	0.834853
C93	C	-0.056165	-0.598473	0.261852
C94	C	0.443835	-0.098473	0.761852
C95	C	-0.056282	-0.671535	0.334962
C96	C	0.443718	-0.171535	0.834962
C97	C	-0.056272	-0.598469	0.334999
C98	C	0.443728	-0.098469	0.834999
C99	C	-0.227205	-0.565659	0.367327
C100	C	0.272795	-0.065659	0.867327
C101	C	-0.023703	-0.565882	0.367734
C102	C	0.476297	-0.065882	0.867734
C103	C	-0.074511	-0.616717	0.316667
C104	C	0.425489	-0.116717	0.816667
C105	C	-0.055754	-0.794298	0.391257
C106	C	0.444246	-0.294298	0.891257
C107	C	-0.039181	-0.844132	0.407888
C108	C	0.460819	-0.344132	0.907888
C109	C	0.041447	-0.844215	0.377269
C110	C	0.541447	-0.344215	0.877269
C111	C	0.024873	-0.794381	0.360637
C112	C	0.524873	-0.294381	0.860637
C113	C	-0.252183	-0.577666	0.416302
C114	C	0.247817	-0.077666	0.916302
C115	C	-0.302014	-0.561001	0.432833
C116	C	0.197986	-0.061001	0.932833
C117	C	-0.301886	-0.520329	0.351410
C118	C	0.198114	-0.020329	0.851410
C119	C	-0.252055	-0.536994	0.334880
C120	C	0.247945	-0.036994	0.834880
C121	C	-0.035709	-0.516892	0.355682
C122	C	0.464291	-0.016892	0.855682
C123	C	-0.019129	-0.500308	0.372353
C124	C	0.480871	-0.000308	0.872353
C125	C	0.021465	-0.581700	0.413115
C126	C	0.521465	-0.081700	0.913115
C127	C	0.004884	-0.598286	0.396450
C128	C	0.504884	-0.098286	0.896450
C129	C	-0.035389	-0.516907	0.139026
C130	C	0.464611	-0.016907	0.639026
C131	C	-0.018707	-0.500324	0.089193
C132	C	0.481293	-0.000324	0.589193
C133	C	0.021949	-0.581721	0.089240
C134	C	0.521949	-0.081721	0.589240
C135	C	0.005268	-0.598303	0.139074
C136	C	0.505268	-0.098303	0.639074
C137	C	-0.023402	-0.565894	0.163965
C138	C	0.476598	-0.065894	0.663965
C139	C	-0.023728	-0.769425	0.367633
C140	C	0.476272	-0.269425	0.867633
N141	N	0.427173	-0.450553	0.482630
N142	N	0.927173	0.049447	0.982630
O143	O	0.589997	-0.458460	0.365361
O144	O	1.089997	0.041540	0.865361
O145	O	0.590185	-0.550997	0.490963
O146	O	1.090185	-0.050997	0.990963
O147	O	0.590104	-0.550786	0.411309
O148	O	1.090104	-0.050786	0.911309
O149	O	0.590077	-0.458671	0.445016
O150	O	1.090077	0.041329	0.945016
O151	O	0.510940	-0.524462	0.437777
O152	O	1.010940	-0.024462	0.937777
O153	O	0.511020	-0.524674	0.517432
O154	O	1.011020	-0.024674	1.017432
O155	O	0.510832	-0.432136	0.391830
O156	O	1.010832	0.067864	0.891830
Zn157	Zn	0.498357	-0.474225	0.458833
Zn158	Zn	0.998357	0.025775	0.958833
Zn159	Zn	0.602660	-0.508908	0.423960
Zn160	Zn	1.102660	-0.008908	0.923960
O161	O	0.510913	-0.432348	0.471484
O162	O	1.010913	0.067652	0.971484
N163	N	0.673844	-0.532580	0.400158
N164	N	1.173844	-0.032580	0.900158
N165	N	0.091520	-0.115070	0.482873
N166	N	0.591520	0.384930	0.982873
O167	O	-0.025663	0.047841	0.474857
O168	O	0.474337	0.547841	0.974857
O169	O	0.099940	0.047877	0.382299
O170	O	0.599940	0.547877	0.882299
O171	O	0.020247	0.047844	0.382560
O172	O	0.520247	0.547844	0.882560
O173	O	0.054030	0.047874	0.474596
O174	O	0.554030	0.547874	0.974596
O175	O	0.046674	-0.031326	0.408942
O176	O	0.546674	0.468674	0.908942
O177	O	0.126367	-0.031293	0.408680
O178	O	0.626367	0.468707	0.908680
O179	O	0.000764	-0.031329	0.501238
O180	O	0.500764	0.468671	1.001238
Zn181	Zn	0.067761	-0.043881	0.459148
Zn182	Zn	0.567761	0.456119	0.959148
Zn183	Zn	0.032943	0.060429	0.424389
Zn184	Zn	0.532943	0.560429	0.924389
O185	O	0.080457	-0.031296	0.500977
O186	O	0.580457	0.468704	1.000977
N187	N	0.009178	0.131618	0.400665
N188	N	0.509178	0.631618	0.900665
N189	N	0.091852	-0.450680	0.818332
N190	N	0.591852	0.049320	1.318332
O191	O	0.083862	-0.567845	0.981235
O192	O	0.583862	-0.067845	1.481235
O193	O	-0.008657	-0.442198	0.981276
O194	O	0.491343	0.057802	1.481276
O195	O	-0.008441	-0.521875	0.981252
O196	O	0.491559	-0.021875	1.481252
O197	O	0.083646	-0.488168	0.981258
O198	O	0.583646	0.011832	1.481258
O199	O	0.017919	-0.495468	0.902085
O200	O	0.517919	0.004532	1.402085
O201	O	0.017703	-0.415791	0.902109
O202	O	0.517703	0.084209	1.402109
O203	O	0.110222	-0.541438	0.902067
O204	O	0.610222	-0.041438	1.402067
Zn205	Zn	0.068148	-0.474422	0.889518
Zn206	Zn	0.568148	0.025578	1.389518
Zn207	Zn	0.033417	-0.509214	0.993825
Zn208	Zn	0.533417	-0.009214	1.493825
O209	O	0.110006	-0.461761	0.902091
O210	O	0.610006	0.038239	1.402091
N211	N	0.009712	-0.532961	1.065011
N212	N	0.509712	-0.032961	1.565011
C213	C	0.030439	-0.413071	0.383027
C214	C	0.530439	0.086929	0.883027
C215	C	0.129046	-0.511580	0.382922
C216	C	0.629046	-0.011580	0.882922
C217	C	0.070334	-0.570496	0.500675
C218	C	0.570334	-0.070496	1.000675
C219	C	-0.028274	-0.471987	0.500780
C220	C	0.471726	0.028013	1.000780
C221	C	0.550625	-0.550579	0.520021
C222	C	1.050625	-0.050579	1.020021
C223	C	0.550527	-0.550317	0.421379
C224	C	1.050527	-0.050317	0.921379
C225	C	0.550389	-0.432554	0.362773
C226	C	1.050389	0.067446	0.862773
C227	C	0.550491	-0.432816	0.461414
C228	C	1.050491	0.067184	0.961414
C229	C	0.128944	0.008394	0.382712
C230	C	0.628944	0.508394	0.882712
C231	C	0.030287	0.008256	0.383068
C232	C	0.530287	0.508256	0.883068
C233	C	-0.028273	0.008252	0.500793
C234	C	0.471727	0.508252	1.000793
C235	C	0.070417	0.008292	0.500470
C236	C	0.570417	0.508292	1.000470
C237	C	-0.008218	-0.413165	0.941698
C238	C	0.491782	0.086835	1.441698
C239	C	-0.007945	-0.511830	0.941653
C240	C	0.492055	-0.011830	1.441653
C241	C	0.109783	-0.570471	0.941646
C242	C	0.609783	-0.070471	1.441646
C243	C	0.109516	-0.471800	0.941673
C244	C	0.609516	0.028200	1.441673
H245	H	0.049370	-0.382321	0.724071
H246	H	0.549370	0.117679	1.224071
H247	H	0.023260	-0.376951	0.354059
H248	H	0.523260	0.123049	0.854059
O249	O	-0.071340	0.008270	0.535398
O250	O	0.428660	0.508270	1.035398
C251	C	-0.149754	0.008231	0.557572
C252	C	0.350246	0.508231	1.057572
C253	C	-0.101004	0.008217	0.518339
C254	C	0.398996	0.508217	1.018339
H255	H	-0.173747	0.008178	0.543797
H256	H	0.326253	0.508178	1.043797
H257	H	-0.166872	0.041377	0.567940
H258	H	0.333128	0.541377	1.067940
H259	H	-0.144718	-0.024888	0.590040
H260	H	0.355282	0.475112	1.090040
H261	H	-0.105998	0.041314	0.485845
H262	H	0.394002	0.541314	0.985845
H263	H	-0.083902	-0.024951	0.508011
H264	H	0.416098	0.475049	1.008011
H265	H	0.550540	-0.579254	0.414165
H266	H	1.050540	-0.079254	0.914165
H267	H	0.138447	-0.464586	0.941669
H268	H	0.638447	0.035414	1.441669
O269	O	0.078822	-0.613552	0.535296
O270	O	0.578822	-0.113552	1.035296
C271	C	0.047608	-0.662514	0.615520
C272	C	0.547608	-0.162514	1.115520
C273	C	0.037936	-0.613729	0.576359
C274	C	0.537936	-0.113729	1.076359
H275	H	0.014555	-0.662676	0.648726
H276	H	0.514555	-0.162676	1.148726
H277	H	0.078748	-0.669454	0.624458
H278	H	0.578748	-0.169454	1.124458
H279	H	0.056674	-0.691543	0.602353
H280	H	0.556674	-0.191543	1.102353
H281	H	0.028849	-0.584669	0.589493
H282	H	0.528849	-0.084669	1.089493
H283	H	0.006809	-0.606830	0.567427
H284	H	0.506809	-0.106830	1.067427
H285	H	-0.036863	-0.519031	0.941619
H286	H	0.463137	-0.019031	1.441619
O287	O	0.011608	-0.410532	0.818316
O288	O	0.511608	0.089468	1.318316
C289	C	-0.067380	-0.368452	0.813115
C290	C	0.432620	0.131548	1.313115
C291	C	-0.013488	-0.381709	0.785698
C292	C	0.486512	0.118291	1.285698
H293	H	-0.087685	-0.345154	0.786754
H294	H	0.412315	0.154846	1.286754
H295	H	-0.077198	-0.348141	0.836434
H296	H	0.422802	0.151859	1.336434
H297	H	-0.077152	-0.402280	0.836458
H298	H	0.422848	0.097720	1.336458
H299	H	-0.003677	-0.347906	0.762328
H300	H	0.496323	0.152094	1.262328
H301	H	-0.003699	-0.402038	0.762409
H302	H	0.496301	0.097962	1.262409
O303	O	0.550502	-0.398248	0.469928
O304	O	1.050502	0.101752	0.969928
C305	C	0.550397	-0.318012	0.438809
C306	C	1.050397	0.181988	0.938809
C307	C	0.550393	-0.357121	0.429100
C308	C	1.050393	0.142879	0.929100
H309	H	0.550299	-0.284748	0.405810
H310	H	1.050299	0.215252	0.905810
H311	H	0.583559	-0.331152	0.447812
H312	H	1.083559	0.168848	0.947812
H313	H	0.517298	-0.309173	0.470010
H314	H	1.017298	0.190827	0.970010
H315	H	0.583469	-0.365977	0.397893
H316	H	1.083469	0.134023	0.897893
H317	H	0.517209	-0.343960	0.420125
H318	H	1.017209	0.156040	0.920125
H319	H	-0.064365	-0.464880	0.529794
H320	H	0.435635	0.035120	1.029794
H321	H	0.550329	-0.403500	0.326702
H322	H	1.050329	0.096500	0.826702
O323	O	0.172098	-0.520133	0.348319
O324	O	0.672098	-0.020133	0.848319
C325	C	0.229388	-0.568256	0.298073
C326	C	0.729388	-0.068256	0.798073
C327	C	0.180629	-0.558628	0.337269
C328	C	0.680629	-0.058628	0.837269
H329	H	0.236297	-0.599372	0.289120
H330	H	0.736297	-0.099372	0.789120
H331	H	0.258475	-0.577323	0.311163
H332	H	0.758475	-0.077323	0.811163
H333	H	0.229474	-0.535173	0.264893
H334	H	0.729474	-0.035173	0.764893
H335	H	0.180497	-0.591695	0.370463
H336	H	0.680497	-0.091695	0.870463
H337	H	0.151564	-0.549541	0.324140
H338	H	0.651564	-0.049541	0.824140
O339	O	-0.042814	-0.370076	0.941648
O340	O	0.457186	0.129924	1.441648
C341	C	-0.065831	-0.285393	0.900641
C342	C	0.434169	0.214607	1.400641
C343	C	-0.026608	-0.334158	0.900644
C344	C	0.473392	0.165842	1.400644
H345	H	-0.052747	-0.256341	0.867488
H346	H	0.447253	0.243659	1.367488
H347	H	-0.074808	-0.278387	0.933755
H348	H	0.425192	0.221613	1.433755
H349	H	-0.098995	-0.285354	0.900666
H350	H	0.401005	0.214646	1.400666
H351	H	0.006580	-0.334233	0.900602
H352	H	0.506580	0.165767	1.400602
H353	H	-0.017672	-0.341144	0.867533
H354	H	0.482328	0.158856	1.367533
H355	H	0.550674	-0.579628	0.556096
H356	H	1.050674	-0.079628	1.056096
H357	H	0.164941	0.008624	0.353583
H358	H	0.664941	0.508624	0.853583
H359	H	0.138832	-0.606554	0.941627
H360	H	0.638832	-0.106554	1.441627
H361	H	0.077653	0.008301	0.529384
H362	H	0.577653	0.508301	1.029384
O363	O	0.172163	-0.490791	0.818192
O364	O	0.672163	0.009209	1.318192
C365	C	0.254650	-0.529357	0.812868
C366	C	0.754650	-0.029357	1.312868
C367	C	0.218966	-0.497827	0.785519
C368	C	0.718966	0.002173	1.285519
H369	H	0.292498	-0.535048	0.786464
H370	H	0.792498	-0.035048	1.286464
H371	H	0.248965	-0.565228	0.836179
H372	H	0.748965	-0.065228	1.336179
H373	H	0.248899	-0.511108	0.836214
H374	H	0.748899	-0.011108	1.336214
H375	H	0.224695	-0.516035	0.762147
H376	H	0.724695	-0.016035	1.262147
H377	H	0.224659	-0.461958	0.762238
H378	H	0.724659	0.038042	1.262238
O379	O	0.204739	-0.457976	0.719953
O380	O	0.704739	0.042024	1.219953
C381	C	0.266338	-0.450365	0.643156
C382	C	0.766338	0.049635	1.143156
C383	C	0.212457	-0.437143	0.670624
C384	C	0.712457	0.062857	1.170624
H385	H	0.272594	-0.433520	0.603269
H386	H	0.772594	0.066480	1.103269
H387	H	0.283172	-0.490712	0.652903
H388	H	0.783172	0.009288	1.152903
H389	H	0.283137	-0.436623	0.652967
H390	H	0.783137	0.063377	1.152967
H391	H	0.195616	-0.450854	0.660827
H392	H	0.695616	0.049146	1.160827
H393	H	0.195657	-0.396794	0.660874
H394	H	0.695657	0.103206	1.160874
O395	O	0.044068	-0.377782	0.555722
O396	O	0.544068	0.122218	1.055722
C397	C	-0.038389	-0.339223	0.594393
C398	C	0.461611	0.160777	1.094393
C399	C	-0.002758	-0.370738	0.562872
C400	C	0.497242	0.129262	1.062872
H401	H	-0.076255	-0.333526	0.600192
H402	H	0.423745	0.166474	1.100192
H403	H	-0.032699	-0.303354	0.576141
H404	H	0.467301	0.196646	1.076141
H405	H	-0.032586	-0.357488	0.630213
H406	H	0.467414	0.142512	1.130213
H407	H	-0.008539	-0.352515	0.527047
H408	H	0.491461	0.147485	1.027047
H409	H	-0.008456	-0.406605	0.581161
H410	H	0.491544	0.093395	1.081161
H411	H	0.023050	0.008252	0.354152
H412	H	0.523050	0.508252	0.854152
H413	H	0.166679	-0.486211	0.447227
H414	H	0.666679	0.013789	0.947227
O415	O	0.011364	-0.410493	0.522946
O416	O	0.511364	0.089507	1.022946
C417	C	-0.054659	-0.372178	0.494374
C418	C	0.445341	0.127822	0.994374
C419	C	-0.000761	-0.385427	0.481120
C420	C	0.499239	0.114573	0.981120
H421	H	-0.064477	-0.351918	0.460565
H422	H	0.435523	0.148082	0.960565
H423	H	-0.074962	-0.348834	0.517695
H424	H	0.425038	0.151166	1.017695
H425	H	-0.064435	-0.406007	0.514680
H426	H	0.435565	0.093993	1.014680
H427	H	0.009058	-0.351625	0.460797
H428	H	0.509058	0.148375	0.960797
H429	H	0.019512	-0.408789	0.457821
H430	H	0.519512	0.091211	0.957821
O431	O	0.204545	-0.457928	0.475347
O432	O	0.704545	0.042072	0.975347
C433	C	0.279128	-0.454057	0.412124
C434	C	0.779128	0.045943	0.912124
C435	C	0.225226	-0.440844	0.425436
C436	C	0.725226	0.059156	0.925436
H437	H	0.295864	-0.440242	0.371772
H438	H	0.795864	0.059758	0.871772
H439	H	0.295985	-0.494407	0.425820
H440	H	0.795985	0.005593	0.925820
H441	H	0.285434	-0.437275	0.428934
H442	H	0.785434	0.062725	0.928934
H443	H	0.218878	-0.457595	0.408631
H444	H	0.718878	0.042405	0.908631
H445	H	0.208397	-0.400490	0.411749
H446	H	0.708397	0.099510	0.911749
O447	O	0.329040	-0.497374	0.545725
O448	O	0.829040	0.002626	1.045725
C449	C	0.334336	-0.579108	0.574488
C450	C	0.834336	-0.079108	1.074488
C451	C	0.361700	-0.543864	0.548438
C452	C	0.861700	-0.043864	1.048438
H453	H	0.360729	-0.616704	0.576699
H454	H	0.860729	-0.116704	1.076699
H455	H	0.310995	-0.569145	0.554136
H456	H	0.810995	-0.069145	1.054136
H457	H	0.311019	-0.577565	0.611950
H458	H	0.811019	-0.077565	1.111950
H459	H	0.385042	-0.545388	0.510976
H460	H	0.885042	-0.045388	1.010976
H461	H	0.385010	-0.553838	0.568827
H462	H	0.885010	-0.053838	1.068827
H463	H	0.423225	-0.376108	0.456057
H464	H	0.923225	0.123892	0.956057
O465	O	0.328978	-0.338341	0.485114
O466	O	0.828978	0.161659	0.985114
C467	C	0.334212	-0.260115	0.452833
C468	C	0.834212	0.239885	0.952833
C469	C	0.361610	-0.313601	0.460598
C470	C	0.861610	0.186399	0.960598
H471	H	0.360583	-0.240096	0.433002
H472	H	0.860583	0.259904	0.933002
H473	H	0.310918	-0.254541	0.488758
H474	H	0.810918	0.245459	0.988758
H475	H	0.310845	-0.246107	0.430960
H476	H	0.810845	0.253893	0.930960
H477	H	0.385002	-0.327645	0.482454
H478	H	0.885002	0.172355	0.982454
H479	H	0.384873	-0.319143	0.424657
H480	H	0.884873	0.180857	0.924657
H481	H	0.423275	-0.522397	0.511838
H482	H	0.923275	-0.022397	1.011838
H483	H	0.159856	-0.209371	0.440456
H484	H	0.659856	0.290629	0.940456
H485	H	0.129672	-0.118967	0.410356
H486	H	0.629672	0.381033	0.910356
H487	H	0.086148	-0.209418	0.588113
H488	H	0.586148	0.290582	1.088113
O489	O	0.051460	-0.115172	0.563167
O490	O	0.551460	0.384828	1.063167
C491	C	0.012956	-0.120458	0.645642
C492	C	0.512956	0.379542	1.145642
C493	C	0.044456	-0.147829	0.609981
C494	C	0.544456	0.352171	1.109981
H495	H	0.007291	-0.146849	0.683500
H496	H	0.507291	0.353151	1.183500
H497	H	-0.022926	-0.097150	0.639969
H498	H	0.477074	0.402850	1.139969
H499	H	0.031211	-0.097105	0.639855
H500	H	0.531211	0.402895	1.139855
H501	H	0.026243	-0.171208	0.615748
H502	H	0.526243	0.328792	1.115748
H503	H	0.080336	-0.171107	0.615664
H504	H	0.580336	0.328893	1.115664
H505	H	-0.028474	-0.460433	0.068892
H506	H	0.471526	0.039567	0.568892
H507	H	-0.058738	-0.490513	0.159288
H508	H	0.441262	0.009487	0.659288
H509	H	0.015032	-0.638195	0.159378
H510	H	0.515032	-0.138195	0.659378
O511	O	0.049802	-0.613268	0.065135
O512	O	0.549802	-0.113268	0.565135
C513	C	0.088333	-0.695752	0.070441
C514	C	0.588333	-0.195752	0.570441
C515	C	0.056793	-0.660080	0.097800
C516	C	0.556793	-0.160080	0.597800
H517	H	0.093986	-0.733608	0.096839
H518	H	0.593986	-0.233608	0.596839
H519	H	0.124216	-0.690093	0.047179
H520	H	0.624216	-0.190093	0.547179
H521	H	0.070115	-0.689961	0.047045
H522	H	0.570115	-0.189961	0.547045
H523	H	0.074968	-0.665849	0.121221
H524	H	0.574968	-0.165849	0.621221
H525	H	0.020911	-0.665748	0.121031
H526	H	0.520911	-0.165748	0.621031
H527	H	-0.028907	-0.460416	0.362542
H528	H	0.471093	0.039584	0.862542
O529	O	-0.063550	-0.485394	0.327865
O530	O	0.436450	0.014606	0.827865
C531	C	-0.136833	-0.420845	0.321377
C532	C	0.363167	0.079155	0.821377
C533	C	-0.105353	-0.456500	0.352934
C534	C	0.394647	0.043500	0.852934
H535	H	-0.170632	-0.397468	0.341629
H536	H	0.329368	0.102532	0.841629
H537	H	-0.146663	-0.441085	0.311540
H538	H	0.353337	0.058915	0.811540
H539	H	-0.116486	-0.397562	0.287580
H540	H	0.383514	0.102438	0.787580
H541	H	-0.125670	-0.479792	0.386751
H542	H	0.374330	0.020208	0.886751
H543	H	-0.095520	-0.436230	0.362732
H544	H	0.404480	0.063770	0.862732
O545	O	0.049287	-0.613226	0.440951
O546	O	0.549287	-0.113226	0.940951
C547	C	0.122595	-0.677734	0.447427
C548	C	0.622595	-0.177734	0.947427
C549	C	0.091129	-0.642068	0.415857
C550	C	0.591129	-0.142068	0.915857
H551	H	0.156436	-0.701055	0.427147
H552	H	0.656436	-0.201055	0.927147
H553	H	0.102298	-0.701069	0.481214
H554	H	0.602298	-0.201069	0.981214
H555	H	0.132358	-0.657454	0.457283
H556	H	0.632358	-0.157454	0.957283
H557	H	0.081357	-0.662309	0.405965
H558	H	0.581357	-0.162309	0.905965
H559	H	0.111444	-0.618733	0.382092
H560	H	0.611444	-0.118733	0.882092
O561	O	0.016467	-0.645871	0.408204
O562	O	0.516467	-0.145871	0.908204
C563	C	-0.012210	-0.711795	0.446453
C564	C	0.487790	-0.211795	0.946453
C565	C	-0.025397	-0.657903	0.433186
C566	C	0.474603	-0.157903	0.933186
H567	H	-0.046050	-0.721538	0.466644
H568	H	0.453950	-0.221538	0.966644
H569	H	0.011048	-0.732133	0.469865
H570	H	0.511048	-0.232133	0.969865
H571	H	0.008137	-0.721606	0.412637
H572	H	0.508137	-0.221606	0.912637
H573	H	-0.045761	-0.648048	0.466975
H574	H	0.454239	-0.148048	0.966975
H575	H	-0.048633	-0.637594	0.409755
H576	H	0.451367	-0.137594	0.909755
O577	O	0.056047	-0.770295	0.337717
O578	O	0.556047	-0.270295	0.837717
C579	C	0.137774	-0.775643	0.309082
C580	C	0.637774	-0.275643	0.809082
C581	C	0.102519	-0.802980	0.335055
C582	C	0.602519	-0.302980	0.835055
H583	H	0.175356	-0.802057	0.306913
H584	H	0.675356	-0.302057	0.806913
H585	H	0.127788	-0.752323	0.329466
H586	H	0.627788	-0.252323	0.829466
H587	H	0.136280	-0.752306	0.271605
H588	H	0.636280	-0.252306	0.771605
H589	H	0.103994	-0.826343	0.372532
H590	H	0.603994	-0.326343	0.872532
H591	H	0.112517	-0.826270	0.314635
H592	H	0.612517	-0.326270	0.814635
H593	H	-0.065262	-0.864385	0.427124
H594	H	0.434738	-0.364385	0.927124
O595	O	0.088643	-0.868479	0.370559
O596	O	0.588643	-0.368479	0.870559
C597	C	0.148851	-0.924810	0.407385
C598	C	0.648851	-0.424810	0.907385
C599	C	0.095390	-0.897349	0.415051
C600	C	0.595390	-0.397349	0.915051
H601	H	0.154323	-0.948166	0.443351
H602	H	0.654323	-0.448166	0.943351
H603	H	0.168917	-0.898494	0.387670
H604	H	0.668917	-0.398494	0.887670
H605	H	0.162891	-0.948127	0.385453
H606	H	0.662891	-0.448127	0.885453
H607	H	0.081308	-0.874032	0.436995
H608	H	0.581308	-0.374032	0.936995
H609	H	0.075357	-0.923691	0.434746
H610	H	0.575357	-0.423691	0.934746
H611	H	-0.095331	-0.773979	0.396956
H612	H	0.404669	-0.273979	0.896956
H613	H	-0.322352	-0.570775	0.472713
H614	H	0.177648	-0.070775	0.972713
O615	O	-0.228120	-0.605488	0.447887
O616	O	0.271880	-0.105488	0.947887
C617	C	-0.233506	-0.644088	0.530393
C618	C	0.266494	-0.144088	1.030393
C619	C	-0.260820	-0.612566	0.494678
C620	C	0.239180	-0.112566	0.994678
H621	H	-0.259932	-0.649828	0.568231
H622	H	0.240068	-0.149828	1.068231
H623	H	-0.210187	-0.625867	0.524735
H624	H	0.289813	-0.125867	1.024735
H625	H	-0.210173	-0.679935	0.524650
H626	H	0.289827	-0.179935	1.024650
H627	H	-0.284178	-0.576713	0.500400
H628	H	0.215822	-0.076713	1.000400
H629	H	-0.284109	-0.630824	0.500345
H630	H	0.215891	-0.130824	1.000345
H631	H	-0.322118	-0.496994	0.324987
H632	H	0.177882	0.003006	0.824987
H633	H	-0.231721	-0.527215	0.295000
H634	H	0.268279	-0.027215	0.795000
