data_functionalizedCrystal
_audit_creation_method	'MofGen! by Chris Wilmer'
_symmetry_space_group_name_H-M	'P1'
_symmetry_Int_Tables_number	1
_symmetry_cell_setting	triclinic
loop_
_symmetry_equiv_pos_as_xyz
  x,y,z
_cell_length_a	25.639242
_cell_length_b	18.101395
_cell_length_c	25.639234
_cell_angle_alpha	89.979024
_cell_angle_beta	89.973005
_cell_angle_gamma	90.026632
loop_
_atom_site_label
_atom_site_type_symbol
_atom_site_fract_x
_atom_site_fract_y
_atom_site_fract_z
Zn1	Zn	0.799278	-0.294965	-0.295755
Zn2	Zn	1.299278	0.205035	0.204245
Zn3	Zn	0.799205	-0.418800	-0.208325
Zn4	Zn	1.299205	0.081200	0.291675
Zn5	Zn	0.711846	-0.294967	-0.208319
Zn6	Zn	1.211846	0.205033	0.291681
Zn7	Zn	0.711811	-0.418760	-0.295715
Zn8	Zn	1.211811	0.081240	0.204285
O9	O	0.755535	-0.356873	-0.252029
O10	O	1.255535	0.143127	0.247971
O11	O	0.872433	-0.311408	-0.284177
O12	O	1.372433	0.188592	0.215823
O13	O	0.787602	-0.402391	-0.135159
O14	O	1.287602	0.097609	0.364841
O15	O	0.723490	-0.191334	-0.219932
O16	O	1.223490	0.308666	0.280068
O17	O	0.872380	-0.402389	-0.219942
O18	O	1.372380	0.097611	0.280058
O19	O	0.787725	-0.191333	-0.284171
O20	O	1.287725	0.308667	0.215829
O21	O	0.723420	-0.311411	-0.135155
O22	O	1.223420	0.188589	0.364845
O23	O	0.638677	-0.311373	-0.219893
O24	O	1.138677	0.188627	0.280107
O25	O	0.723428	-0.402321	-0.368886
O26	O	1.223428	0.097679	0.131114
O27	O	0.638650	-0.402323	-0.284103
O28	O	1.138650	0.097677	0.215897
O29	O	0.787690	-0.311369	-0.368915
O30	O	1.287690	0.188631	0.131085
O31	O	0.787567	-0.522428	-0.219903
O32	O	1.287567	-0.022428	0.280097
O33	O	0.723358	-0.522398	-0.284108
O34	O	1.223358	-0.022398	0.215892
C35	C	0.755465	-0.549284	-0.252013
C36	C	1.255465	-0.049284	0.247987
C37	C	0.755483	-0.631598	-0.252024
C38	C	1.255483	-0.131598	0.247976
C39	C	0.619692	-0.356844	-0.251993
C40	C	1.119692	0.143156	0.248007
C41	C	0.561578	-0.356849	-0.251991
C42	C	1.061578	0.143151	0.248009
C43	C	0.755598	-0.930689	-0.252052
C44	C	1.255598	-0.430689	0.247948
C45	C	0.715293	-0.899376	-0.292549
C46	C	1.215293	-0.399376	0.207451
C47	C	0.715102	-0.813758	-0.292422
C48	C	1.215102	-0.313758	0.207578
C49	C	0.755541	-0.782306	-0.252039
C50	C	1.255541	-0.282306	0.247961
C51	C	0.740624	-0.813447	-0.196933
C52	C	1.240624	-0.313447	0.303067
C53	C	0.740364	-0.899092	-0.197176
C54	C	1.240364	-0.399092	0.302824
C55	C	0.810907	-0.899041	-0.266177
C56	C	1.310907	-0.399041	0.233823
C57	C	0.810582	-0.813390	-0.267385
C58	C	1.310582	-0.313390	0.232615
C59	C	0.755509	-0.698447	-0.252028
C60	C	1.255509	-0.198447	0.247972
C61	C	0.755628	-1.014548	-0.252060
C62	C	1.255628	-0.514548	0.247940
C63	C	0.201210	-0.404310	-0.285431
C64	C	0.701210	0.095690	0.214569
C65	C	0.146606	-0.404314	-0.285439
C66	C	0.646606	0.095686	0.214561
O67	O	0.118365	-0.444631	-0.313841
O68	O	0.618365	0.055369	0.186159
N69	N	0.119296	-0.356894	-0.252063
N70	N	0.619296	0.143106	0.247937
C71	C	0.146593	-0.309460	-0.218680
C72	C	0.646593	0.190540	0.281320
O73	O	0.118349	-0.269124	-0.190292
O74	O	0.618349	0.230876	0.309708
C75	C	0.201196	-0.309452	-0.218675
C76	C	0.701196	0.190548	0.281325
C77	C	0.228504	-0.356881	-0.252049
C78	C	0.728504	0.143119	0.247951
C79	C	0.228518	-0.451735	-0.318803
C80	C	0.728518	0.048265	0.181197
C81	C	0.283118	-0.451731	-0.318794
C82	C	0.783118	0.048269	0.181206
C83	C	0.310412	-0.404302	-0.285413
C84	C	0.810412	0.095698	0.214587
C85	C	0.283104	-0.356878	-0.252040
C86	C	0.783104	0.143122	0.247960
C87	C	0.228492	-0.262015	-0.185295
C88	C	0.728492	0.237985	0.314705
C89	C	0.283099	-0.262011	-0.185293
C90	C	0.783099	0.237989	0.314707
C91	C	0.310406	-0.309440	-0.218668
C92	C	0.810406	0.190560	0.281332
C93	C	0.364998	-0.309445	-0.218650
C94	C	0.864998	0.190555	0.281350
N95	N	0.392308	-0.356866	-0.252026
N96	N	0.892308	0.143134	0.247974
C97	C	0.365015	-0.404295	-0.285407
C98	C	0.865015	0.095705	0.214593
C99	C	0.031922	-0.309479	-0.218694
C100	C	0.531922	0.190521	0.281306
C101	C	-0.022680	-0.309489	-0.218696
C102	C	0.477320	0.190511	0.281304
C103	C	-0.022663	-0.404343	-0.285456
C104	C	0.477337	0.095657	0.214544
C105	C	0.031940	-0.404336	-0.285451
C106	C	0.531940	0.095664	0.214549
C107	C	0.059232	-0.356899	-0.252070
C108	C	0.559232	0.143101	0.247930
C109	C	0.479680	-0.404284	-0.285386
C110	C	0.979680	0.095716	0.214614
C111	C	0.534285	-0.404278	-0.285372
C112	C	1.034285	0.095722	0.214628
C113	C	0.534263	-0.309421	-0.218614
C114	C	1.034263	0.190579	0.281386
C115	C	0.479663	-0.309430	-0.218626
C116	C	0.979663	0.190570	0.281374
C117	C	0.452372	-0.356863	-0.252016
C118	C	0.952372	0.143137	0.247984
O119	O	0.393273	-0.269147	-0.190264
O120	O	0.893273	0.230853	0.309736
O121	O	0.393265	-0.444616	-0.313796
O122	O	0.893265	0.055384	0.186204
C123	C	0.891908	-0.356903	-0.252065
C124	C	1.391908	0.143097	0.247935
C125	C	0.950022	-0.356916	-0.252080
C126	C	1.450022	0.143084	0.247920
C127	C	0.755563	-0.356840	-0.388402
C128	C	1.255563	0.143160	0.111598
C129	C	0.755575	-0.356827	-0.446516
C130	C	1.255575	0.143173	0.053484
C131	C	0.755619	-0.163711	-0.252056
C132	C	1.255619	0.336289	0.247944
C133	C	0.755655	-0.081397	-0.252067
C134	C	1.255655	0.418603	0.247933
C135	C	0.789009	-0.404139	-0.697704
C136	C	1.289009	0.095861	-0.197704
C137	C	0.789003	-0.404154	-0.643100
C138	C	1.289003	0.095846	-0.143100
O139	O	0.817405	-0.444463	-0.614859
O140	O	1.317405	0.055537	-0.114859
N141	N	0.755587	-0.356791	-0.615790
N142	N	1.255587	0.143209	-0.115790
C143	C	0.722170	-0.309414	-0.643087
C144	C	1.222170	0.190586	-0.143087
O145	O	0.693746	-0.269129	-0.614844
O146	O	1.193746	0.230871	-0.114844
C147	C	0.722173	-0.309403	-0.697690
C148	C	1.222173	0.190597	-0.197690
C149	C	0.755596	-0.356764	-0.724998
C150	C	1.255596	0.143236	-0.224998
C151	C	0.822428	-0.451497	-0.725011
C152	C	1.322428	0.048503	-0.225011
C153	C	0.822434	-0.451480	-0.779612
C154	C	1.322434	0.048520	-0.279612
C155	C	0.789021	-0.404105	-0.806905
C156	C	1.289021	0.095895	-0.306905
C157	C	0.755602	-0.356747	-0.779598
C158	C	1.255602	0.143253	-0.279598
C159	C	0.688754	-0.262030	-0.724987
C160	C	1.188754	0.237970	-0.224987
C161	C	0.688760	-0.262023	-0.779594
C162	C	1.188760	0.237977	-0.279594
C163	C	0.722182	-0.309385	-0.806901
C164	C	1.222182	0.190615	-0.306901
C165	C	0.722194	-0.309356	-0.861492
C166	C	1.222194	0.190644	-0.361492
N167	N	0.755611	-0.356720	-0.888802
N168	N	1.255611	0.143280	-0.388802
C169	C	0.789024	-0.404094	-0.861509
C170	C	1.289024	0.095906	-0.361509
C171	C	0.722165	-0.309442	-0.528416
C172	C	1.222165	0.190558	-0.028416
C173	C	0.722164	-0.309449	-0.473814
C174	C	1.222164	0.190551	0.026186
C175	C	0.788997	-0.404190	-0.473831
C176	C	1.288997	0.095810	0.026169
C177	C	0.789000	-0.404179	-0.528434
C178	C	1.289000	0.095821	-0.028434
C179	C	0.755581	-0.356805	-0.555726
C180	C	1.255581	0.143195	-0.055726
C181	C	0.789035	-0.404055	-0.976174
C182	C	1.289035	0.095945	-0.476174
C183	C	0.789039	-0.404032	-1.030779
C184	C	1.289039	0.095968	-0.530779
C185	C	0.722205	-0.309294	-1.030758
C186	C	1.222205	0.190706	-0.530758
C187	C	0.722202	-0.309314	-0.976157
C188	C	1.222202	0.190686	-0.476157
C189	C	0.755618	-0.356700	-0.948867
C190	C	1.255618	0.143300	-0.448867
O191	O	0.693805	-0.269070	-0.889768
O192	O	1.193805	0.230930	-0.389768
O193	O	0.817439	-0.444379	-0.889758
O194	O	1.317439	0.055621	-0.389758
C195	C	0.755537	-0.356852	-0.116186
C196	C	1.255537	0.143148	0.383814
C197	C	0.755626	-0.356658	-0.058073
C198	C	1.255626	0.143342	0.441927
H199	H	0.724434	-0.792701	-0.333282
H200	H	1.224434	-0.292701	0.166718
N201	N	0.450254	-0.455452	-0.321395
N202	N	0.950254	0.044548	0.178605
H203	H	0.427578	-0.489732	-0.300107
H204	H	0.927578	0.010268	0.199893
H205	H	0.427652	-0.425362	-0.345664
H206	H	0.927652	0.074638	0.154336
H207	H	0.661537	-0.223465	-0.702763
H208	H	1.161537	0.276535	-0.202763
H209	H	0.556517	-0.442903	-0.312550
H210	H	1.056517	0.057097	0.187450
H211	H	0.661546	-0.223445	-0.801813
H212	H	1.161546	0.276555	-0.301813
N213	N	0.825079	-0.455156	-0.946741
N214	N	1.325079	0.044844	-0.446741
H215	H	0.803818	-0.489482	-0.924074
H216	H	1.303818	0.010518	-0.424074
H217	H	0.846243	-0.485101	-0.972363
H218	H	1.346243	0.014899	-0.472363
H219	H	0.824507	-0.920596	-0.305675
H220	H	1.324507	-0.420596	0.194325
N221	N	0.686123	-0.258335	-0.557851
N222	N	1.186123	0.241665	-0.057851
H223	H	0.661879	-0.288418	-0.580490
H224	H	1.161879	0.211582	-0.080490
H225	H	0.664992	-0.228347	-0.532228
H226	H	1.164992	0.271653	-0.032228
H227	H	0.305347	-0.490351	-0.345972
H228	H	0.805347	0.009649	0.154028
H229	H	0.769057	-0.793075	-0.165937
H230	H	1.269057	-0.293075	0.334063
N231	N	-0.052106	-0.455497	-0.321464
N232	N	0.447894	0.044503	0.178536
H233	H	-0.042626	-0.508395	-0.313278
H234	H	0.457374	-0.008395	0.186722
H235	H	-0.090830	-0.448236	-0.316384
H236	H	0.409170	0.051764	0.183616
H237	H	0.768447	-0.919808	-0.165974
H238	H	1.268447	-0.419808	0.334026
H239	H	0.695002	-0.270721	-1.052990
H240	H	1.195002	0.229279	-0.552990
N241	N	0.686159	-0.258227	-0.946701
N242	N	1.186159	0.241773	-0.446701
H243	H	0.664994	-0.228212	-0.972279
H244	H	1.164994	0.271788	-0.472279
H245	H	0.661946	-0.288377	-0.924037
H246	H	1.161946	0.211623	-0.424037
H247	H	0.674546	-0.920956	-0.283310
H248	H	1.174546	-0.420956	0.216690
N249	N	0.727524	-0.926605	-0.346850
N250	N	1.227524	-0.426605	0.153150
H251	H	0.759310	-0.959504	-0.345728
H252	H	1.259310	-0.459504	0.154272
H253	H	0.696822	-0.955497	-0.360740
H254	H	1.196822	-0.455497	0.139260
N255	N	0.312535	-0.210842	-0.149292
N256	N	0.812535	0.289158	0.350708
H257	H	0.286947	-0.180799	-0.128153
H258	H	0.786947	0.319201	0.371847
H259	H	0.335168	-0.240931	-0.125052
H260	H	0.835168	0.259069	0.374948
H261	H	0.674105	-0.793329	-0.283066
H262	H	1.174105	-0.293329	0.216934
H263	H	0.206302	-0.490357	-0.345989
H264	H	0.706302	0.009643	0.154011
H265	H	0.699934	-0.919129	-0.185212
H266	H	1.199934	-0.419129	0.314788
N267	N	0.852460	-0.785031	-0.231159
N268	N	1.352460	-0.285031	0.268841
H269	H	0.869889	-0.828075	-0.213155
H270	H	1.369889	-0.328075	0.286845
H271	H	0.879242	-0.756522	-0.251910
H272	H	1.379242	-0.256522	0.248090
N273	N	0.858472	-0.502600	-0.695582
N274	N	1.358472	-0.002600	-0.195582
H275	H	0.895831	-0.491096	-0.705109
H276	H	1.395831	0.008904	-0.205109
H277	H	0.853363	-0.495407	-0.656855
H278	H	1.353363	0.004593	-0.156855
H279	H	0.700622	-0.792056	-0.184756
H280	H	1.200622	-0.292056	0.315244
N281	N	0.061392	-0.455485	-0.321451
N282	N	0.561392	0.044515	0.178549
H283	H	0.084026	-0.489760	-0.300160
H284	H	0.584026	0.010240	0.199840
H285	H	0.035780	-0.485481	-0.342589
H286	H	0.535780	0.014519	0.157411
H287	H	0.821830	-0.793034	-0.307940
H288	H	1.321830	-0.293034	0.192060
H289	H	-0.044909	-0.270875	-0.191514
H290	H	0.455091	0.229125	0.308486
N291	N	0.850686	-0.925857	-0.227110
N292	N	1.350686	-0.425857	0.272890
H293	H	0.832995	-0.958346	-0.200389
H294	H	1.332995	-0.458346	0.299611
H295	H	0.878577	-0.955081	-0.245757
H296	H	1.378577	-0.455081	0.254243
N297	N	0.061357	-0.258312	-0.182689
N298	N	0.561357	0.241688	0.317311
H299	H	0.035767	-0.228275	-0.161549
H300	H	0.535767	0.271725	0.338451
H301	H	0.083992	-0.288400	-0.158450
H302	H	0.583992	0.211600	0.341550
N303	N	0.199048	-0.210859	-0.149297
N304	N	0.699048	0.289141	0.350703
H305	H	0.224631	-0.180814	-0.128155
H306	H	0.724631	0.319186	0.371845
H307	H	0.176416	-0.176629	-0.170625
H308	H	0.676416	0.323371	0.329375
H309	H	0.457428	-0.270810	-0.191448
H310	H	0.957428	0.229190	0.308552
H311	H	0.556495	-0.270809	-0.191434
H312	H	1.056495	0.229191	0.308566
H313	H	0.816258	-0.442600	-1.053010
H314	H	1.316258	0.057400	-0.553010
H315	H	0.849648	-0.490049	-0.801840
H316	H	1.349648	0.009951	-0.301840
H317	H	0.816203	-0.442766	-0.451598
H318	H	1.316203	0.057234	0.048402
N319	N	0.825047	-0.455261	-0.557885
N320	N	1.325047	0.044739	-0.057885
H321	H	0.846213	-0.485271	-0.532304
H322	H	1.346213	0.014729	-0.032304
H323	H	0.803752	-0.489527	-0.580524
H324	H	1.303752	0.010473	-0.080524
H325	H	0.694954	-0.270874	-0.451585
H326	H	1.194954	0.229126	0.048415
