data_functionalizedCrystal
_audit_creation_method	'MofGen! by Chris Wilmer'
_symmetry_space_group_name_H-M	'P1'
_symmetry_Int_Tables_number	1
_symmetry_cell_setting	triclinic
loop_
_symmetry_equiv_pos_as_xyz
  x,y,z
_cell_length_a	8.559649
_cell_length_b	15.944551
_cell_length_c	7.088929
_cell_angle_alpha	83.774879
_cell_angle_beta	95.325015
_cell_angle_gamma	76.638701
loop_
_atom_site_label
_atom_site_type_symbol
_atom_site_fract_x
_atom_site_fract_y
_atom_site_fract_z
O1	O	2.103727	-0.018804	-0.158956
O2	O	1.638526	0.024575	-0.158968
O3	O	1.883832	-0.120210	-0.158944
O4	O	1.858421	0.125981	-0.158979
O5	O	1.916614	-0.139599	0.159034
O6	O	1.671309	0.005187	0.159010
O7	O	2.136509	-0.038193	0.159023
Cu8	Cu	1.906902	-0.018273	0.188050
Cu9	Cu	1.868133	0.004656	-0.187996
O10	O	1.891203	0.106593	0.158999
C11	C	1.595388	0.018169	0.000020
C12	C	1.418008	0.027954	0.000015
C13	C	1.899168	-0.161130	0.000045
C14	C	1.896006	-0.254172	0.000046
C15	C	1.736394	-0.458727	0.000015
C16	C	1.826675	-0.534087	0.156800
C17	C	1.890284	-0.424528	0.000031
C18	C	1.794391	-0.514957	-0.156702
C19	C	1.884745	-0.589082	0.000009
C20	C	1.980621	-0.498671	0.156945
C21	C	1.948300	-0.479525	-0.156697
C22	C	2.038697	-0.554877	0.000126
C23	C	1.893471	-0.329732	0.000046
C24	C	1.881571	-0.683878	0.000008
C25	C	2.179647	-0.031786	0.000031
C26	C	2.357025	-0.041571	0.000022
C27	C	1.875866	0.147513	0.000005
C28	C	1.879027	0.240556	-0.000008
N29	N	1.934182	-0.034401	0.452541
N30	N	1.840866	0.020776	-0.452487
H31	H	1.334507	0.094969	-0.000005
N32	N	1.467612	-0.130337	0.000061
H33	H	1.401721	-0.175342	0.000069
H34	H	1.525439	-0.130308	-0.117812
H35	H	2.166552	-0.596292	0.000218
N36	N	1.567219	-0.403697	0.000193
H37	H	1.521518	-0.423565	0.118735
H38	H	1.570540	-0.340733	-0.001093
N39	N	1.758583	-0.565861	0.332389
H40	H	1.644402	-0.530323	0.332278
H41	H	1.758042	-0.629098	0.331637
N42	N	2.062317	-0.110140	0.560699
H43	H	2.009675	-0.148386	0.643775
H44	H	2.121422	-0.145046	0.466934
H45	H	1.999667	-0.455510	-0.289250
N46	N	2.084895	-0.488479	0.332714
H47	H	2.086344	-0.425271	0.331668
H48	H	2.039343	-0.508903	0.450888
H49	H	1.744154	0.077957	0.465858
N50	N	1.690049	-0.525304	-0.332266
H51	H	1.575896	-0.489779	-0.332120
H52	H	1.734940	-0.504461	-0.450587
