data_functionalizedCrystal
_audit_creation_method	'MofGen! by Chris Wilmer'
_symmetry_space_group_name_H-M	'P1'
_symmetry_Int_Tables_number	1
_symmetry_cell_setting	triclinic
loop_
_symmetry_equiv_pos_as_xyz
  x,y,z
_cell_length_a	19.121063
_cell_length_b	19.121141
_cell_length_c	19.121277
_cell_angle_alpha	90.097536
_cell_angle_beta	85.243870
_cell_angle_gamma	89.873858
loop_
_atom_site_label
_atom_site_type_symbol
_atom_site_fract_x
_atom_site_fract_y
_atom_site_fract_z
Zn1	Zn	-0.343639	-1.039487	0.456076
Zn2	Zn	-0.010305	-0.706154	0.789409
Zn3	Zn	0.323028	-0.372821	1.122742
Zn4	Zn	-0.456253	-1.039423	0.343422
Zn5	Zn	-0.122920	-0.706090	0.676756
Zn6	Zn	0.210414	-0.372756	1.010089
Zn7	Zn	-0.333617	-0.927725	0.333449
Zn8	Zn	-0.000284	-0.594391	0.666782
Zn9	Zn	0.333049	-0.261058	1.000116
Zn10	Zn	-0.455808	-0.917234	0.455601
Zn11	Zn	-0.122474	-0.583900	0.788935
Zn12	Zn	0.210859	-0.250567	1.122268
O13	O	-0.397329	-0.980967	0.397137
O14	O	-0.063996	-0.647634	0.730470
O15	O	0.269338	-0.314301	1.063804
O16	O	-0.362957	-1.137389	0.445504
O17	O	-0.029624	-0.804055	0.778837
O18	O	0.303709	-0.470722	1.112171
O19	O	-0.435978	-1.028970	0.243832
O20	O	-0.102644	-0.695636	0.577166
O21	O	0.230689	-0.362303	0.910499
O22	O	-0.236680	-0.946968	0.345740
O23	O	0.096653	-0.613634	0.679074
O24	O	0.429987	-0.280301	1.012407
O25	O	-0.445695	-1.137341	0.362738
O26	O	-0.112361	-0.804008	0.696072
O27	O	0.220972	-0.470675	1.029405
O28	O	-0.244043	-1.029079	0.435833
O29	O	0.089291	-0.695746	0.769167
O30	O	0.422624	-0.362413	1.102500
O31	O	-0.345878	-0.946905	0.236505
O32	O	-0.012544	-0.613572	0.569838
O33	O	0.320789	-0.280239	0.903172
O34	O	-0.345446	-0.828423	0.345281
O35	O	-0.012113	-0.495090	0.678614
O36	O	0.321221	-0.161757	1.011947
O37	O	-0.444936	-0.929087	0.553931
O38	O	-0.111602	-0.595754	0.887265
O39	O	0.221731	-0.262421	1.220598
O40	O	-0.435218	-0.820716	0.435025
O41	O	-0.101885	-0.487382	0.768359
O42	O	0.231448	-0.154049	1.101692
O43	O	-0.362525	-1.018907	0.554280
O44	O	-0.029192	-0.685573	0.887613
O45	O	0.304141	-0.352240	1.220946
O46	O	-0.554460	-1.018797	0.362278
O47	O	-0.221127	-0.685464	0.695612
O48	O	0.112206	-0.352130	1.028945
O49	O	-0.554133	-0.929025	0.444696
O50	O	-0.220800	-0.595692	0.778029
O51	O	0.112533	-0.262358	1.111363
C52	C	-0.389197	-0.799182	0.389020
C53	C	-0.055864	-0.465849	0.722353
C54	C	0.277470	-0.132516	1.055686
C55	C	-0.385736	-0.721413	0.385564
C56	C	-0.052402	-0.388079	0.718898
C57	C	0.280931	-0.054746	1.052231
C58	C	-0.430914	-0.680882	0.430599
C59	C	-0.097581	-0.347548	0.763932
C60	C	0.235753	-0.014215	1.097265
C61	C	-0.427653	-0.607809	0.427355
C62	C	-0.094319	-0.274476	0.760688
C63	C	0.239014	0.058858	1.094022
C64	C	-0.379216	-0.575268	0.379073
C65	C	-0.045882	-0.241935	0.712407
C66	C	0.287451	0.091398	1.045740
C67	C	-0.334032	-0.615805	0.334037
C68	C	-0.000699	-0.282471	0.667370
C69	C	0.332634	0.050862	1.000704
C70	C	-0.337291	-0.688876	0.337285
C71	C	-0.003957	-0.355543	0.670618
C72	C	0.329376	-0.022210	1.003951
C73	C	-0.367032	-0.354840	0.366937
C74	C	-0.033699	-0.021507	0.700270
C75	C	0.299635	0.311827	1.033604
C76	C	-0.363778	-0.281763	0.363691
C77	C	-0.030445	0.051570	0.697025
C78	C	0.302888	0.384904	1.030358
C79	C	-0.457398	-0.273772	0.457011
C80	C	-0.124065	0.059561	0.790344
C81	C	0.209269	0.392894	1.123677
C82	C	-0.460655	-0.346845	0.460251
C83	C	-0.127322	-0.013512	0.793584
C84	C	0.206011	0.319821	1.126918
C85	C	-0.415469	-0.387375	0.415217
C86	C	-0.082136	-0.054042	0.748551
C87	C	0.251197	0.279291	1.081884
C88	C	-0.375882	-0.500576	0.375755
C89	C	-0.042549	-0.167243	0.709089
C90	C	0.290785	0.166090	1.042422
C91	C	-0.418800	-0.462066	0.418539
C92	C	-0.085467	-0.128733	0.751873
C93	C	0.247867	0.204601	1.085206
C94	C	-0.579778	-0.972784	0.404534
C95	C	-0.246444	-0.639450	0.737867
C96	C	0.086889	-0.306117	1.071201
C97	C	-0.657834	-0.969346	0.407725
C98	C	-0.324500	-0.636012	0.741058
C99	C	0.008833	-0.302679	1.074392
C100	C	-0.694655	-1.014503	0.366352
C101	C	-0.361322	-0.681170	0.699686
C102	C	-0.027988	-0.347837	1.033019
C103	C	-0.767997	-1.011274	0.369358
C104	C	-0.434664	-0.677940	0.702691
C105	C	-0.101331	-0.344607	1.036024
C106	C	-0.804517	-0.962883	0.413732
C107	C	-0.471183	-0.629550	0.747066
C108	C	-0.137850	-0.296216	1.080399
C109	C	-0.767691	-0.917724	0.455110
C110	C	-0.434357	-0.584390	0.788443
C111	C	-0.101024	-0.251057	1.121776
C112	C	-0.694350	-0.920957	0.452108
C113	C	-0.361017	-0.587624	0.785441
C114	C	-0.027683	-0.254290	1.118774
C115	C	-1.025951	-0.950784	0.424945
C116	C	-0.692618	-0.617450	0.758278
C117	C	-0.359284	-0.284117	1.091612
C118	C	-1.099297	-0.947552	0.427942
C119	C	-0.765963	-0.614219	0.761276
C120	C	-0.432630	-0.280886	1.094609
C121	C	-1.099598	-1.041104	0.342191
C122	C	-0.766265	-0.707770	0.675524
C123	C	-0.432932	-0.374437	1.008858
C124	C	-1.026256	-1.044330	0.339190
C125	C	-0.692923	-0.710997	0.672523
C126	C	-0.359589	-0.377663	1.005856
C127	C	-0.989436	-0.999173	0.380570
C128	C	-0.656103	-0.665840	0.713903
C129	C	-0.322770	-0.332506	1.047236
C130	C	-0.879484	-0.959579	0.416804
C131	C	-0.546151	-0.626246	0.750137
C132	C	-0.212818	-0.292913	1.083470
C133	C	-0.914471	-1.002481	0.377502
C134	C	-0.581137	-0.669147	0.710835
C135	C	-0.247804	-0.335814	1.044168
C136	C	-0.214170	-0.989201	0.389727
C137	C	0.119164	-0.655868	0.723061
C138	C	0.452497	-0.322534	1.056394
C139	C	-0.136118	-0.992710	0.386570
C140	C	0.197215	-0.659376	0.719903
C141	C	0.530549	-0.326043	1.053236
C142	C	-0.404799	-0.972834	0.580297
C143	C	-0.071465	-0.639501	0.913631
C144	C	0.261868	-0.306167	1.246964
C145	C	-0.407982	-0.969368	0.658349
C146	C	-0.074648	-0.636035	0.991683
C147	C	0.258685	-0.302701	1.325016
C148	C	-0.405490	-0.163462	0.405278
C149	C	-0.072156	0.169871	0.738611
C150	C	0.261177	0.503204	1.071945
C151	C	-0.408957	-0.241232	0.408726
C152	C	-0.075623	0.092101	0.742059
C153	C	0.257710	0.425434	1.075392
C154	C	-0.366573	-1.014502	0.695201
C155	C	-0.033239	-0.681168	1.028534
C156	C	0.300094	-0.347835	1.361868
C157	C	-0.369560	-1.011237	0.768539
C158	C	-0.036227	-0.677903	1.101872
C159	C	0.297106	-0.344570	1.435205
C160	C	-0.413961	-0.962841	0.805024
C161	C	-0.080628	-0.629508	1.138357
C162	C	0.252705	-0.296174	1.471691
C163	C	-0.455372	-0.917703	0.768167
C164	C	-0.122039	-0.584369	1.101500
C165	C	0.211294	-0.251036	1.434834
C166	C	-0.452380	-0.920965	0.694830
C167	C	-0.119047	-0.587632	1.028164
C168	C	0.214286	-0.254298	1.361497
C169	C	-0.425138	-0.950649	1.026444
C170	C	-0.091805	-0.617316	1.359777
C171	C	0.241528	-0.283982	1.693110
C172	C	-0.428129	-0.947392	1.099786
C173	C	-0.094795	-0.614058	1.433119
C174	C	0.238538	-0.280725	1.766452
C175	C	-0.342316	-1.040925	1.100152
C176	C	-0.008982	-0.707592	1.433486
C177	C	0.324351	-0.374258	1.766819
C178	C	-0.339331	-1.044186	1.026814
C179	C	-0.005997	-0.710852	1.360148
C180	C	0.327336	-0.377519	1.693481
C181	C	-0.380739	-0.999045	0.989964
C182	C	-0.047405	-0.665712	1.323297
C183	C	0.285928	-0.332378	1.656630
C184	C	-0.417018	-0.959504	0.879987
C185	C	-0.083685	-0.626171	1.213320
C186	C	0.249648	-0.292837	1.546654
C187	C	-0.377678	-1.002379	0.915002
C188	C	-0.044344	-0.669046	1.248335
C189	C	0.288989	-0.335712	1.581668
C190	C	-0.389904	-0.989062	1.214689
C191	C	-0.056570	-0.655729	1.548023
C192	C	0.276763	-0.322395	1.881356
C193	C	-0.386720	-0.992525	1.136637
C194	C	-0.053386	-0.659192	1.469971
C195	C	0.279947	-0.325858	1.803304
H196	H	-0.300498	-0.721876	0.300616
H197	H	0.032835	-0.388543	0.633950
H198	H	0.366169	-0.055209	0.967283
Br199	Br	-0.484532	-0.506229	0.484064
Br200	Br	-0.151199	-0.172896	0.817397
Br201	Br	0.182134	0.160438	1.150731
Br202	Br	-0.975991	-0.889499	0.481104
Br203	Br	-0.642658	-0.556166	0.814437
Br204	Br	-0.309324	-0.222833	1.147771
H205	H	-0.491522	-0.878296	0.797879
H206	H	-0.158189	-0.544962	1.131212
H207	H	0.175145	-0.211629	1.464546
H208	H	-0.294591	-0.589305	0.294728
H209	H	0.038743	-0.255971	0.628061
H210	H	0.372076	0.077362	0.961395
H211	H	-0.464287	-0.907980	1.129490
H212	H	-0.130954	-0.574647	1.462823
H213	H	0.202380	-0.241313	1.796157
H214	H	-0.464442	-0.574811	0.464026
H215	H	-0.131109	-0.241478	0.797359
H216	H	0.202224	0.091855	1.130693
Br217	Br	-0.305704	-0.409836	0.305823
Br218	Br	0.027629	-0.076502	0.639156
Br219	Br	0.360962	0.256831	0.972490
H220	H	-0.884734	-1.041883	0.341374
H221	H	-0.551401	-0.708550	0.674708
H222	H	-0.218068	-0.375216	1.008041
Br223	Br	-0.508576	-0.859706	0.644816
Br224	Br	-0.175243	-0.526372	0.978150
Br225	Br	0.158091	-0.193039	1.311483
Br226	Br	-0.317411	-1.068048	0.865485
Br227	Br	0.015922	-0.734715	1.198818
Br228	Br	0.349255	-0.401381	1.532151
H229	H	-1.129585	-1.077869	0.308503
H230	H	-0.796251	-0.744536	0.641836
H231	H	-0.462918	-0.411202	0.975170
H232	H	-0.336446	-0.474074	0.336443
H233	H	-0.003113	-0.140741	0.669776
H234	H	0.330221	0.192593	1.003109
H235	H	-0.453173	-0.920103	0.909702
H236	H	-0.119840	-0.586770	1.243035
H237	H	0.213494	-0.253437	1.576368
Br238	Br	-0.976699	-1.110014	0.278974
Br239	Br	-0.643366	-0.776681	0.612308
Br240	Br	-0.310032	-0.443347	0.945641
H241	H	-0.909227	-0.920178	0.452932
H242	H	-0.575893	-0.586845	0.786266
H243	H	-0.242560	-0.253512	1.119599
H244	H	-0.470359	-0.707370	0.469913
H245	H	-0.137026	-0.374037	0.803246
H246	H	0.196308	-0.040704	1.136579
Br247	Br	-1.148858	-0.881863	0.488157
Br248	Br	-0.815525	-0.548530	0.821490
Br249	Br	-0.482192	-0.215197	1.154823
H250	H	-0.324327	-0.255271	0.324378
H251	H	0.009006	0.078062	0.657712
H252	H	0.342340	0.411395	0.991045
Br253	Br	-0.526397	-0.391002	0.525775
Br254	Br	-0.193064	-0.057669	0.859108
Br255	Br	0.140269	0.275664	1.192441
H256	H	-0.664925	-1.053905	0.330215
H257	H	-0.331592	-0.720572	0.663548
H258	H	0.001742	-0.387238	0.996881
Br259	Br	-0.817967	-1.072566	0.313211
Br260	Br	-0.484633	-0.739233	0.646544
Br261	Br	-0.151300	-0.405899	0.979878
Br262	Br	-0.518721	-0.218764	0.518122
Br263	Br	-0.185387	0.114569	0.851455
Br264	Br	0.147946	0.447902	1.184788
Br265	Br	-0.817253	-0.852055	0.515340
Br266	Br	-0.483919	-0.518722	0.848673
Br267	Br	-0.150586	-0.185389	1.182006
Br268	Br	-0.644378	-0.859674	0.508263
Br269	Br	-0.311044	-0.526340	0.841596
Br270	Br	0.022289	-0.193007	1.174930
H271	H	-0.330419	-1.053913	0.665500
H272	H	0.002915	-0.720579	0.998834
H273	H	0.336248	-0.387246	1.332167
H274	H	-0.335842	-1.047991	0.798540
H275	H	-0.002509	-0.714657	1.131873
H276	H	0.330824	-0.381324	1.465207
H277	H	-0.303177	-1.083596	0.997113
H278	H	0.030157	-0.750263	1.330447
H279	H	0.363490	-0.416930	1.663780
H280	H	-0.308603	-1.077675	1.130164
H281	H	0.024731	-0.744342	1.463497
H282	H	0.358064	-0.411008	1.796830
H283	H	-0.458866	-0.913902	0.996450
H284	H	-0.125533	-0.580569	1.329783
H285	H	0.207800	-0.247235	1.663116
