data_functionalizedCrystal
_audit_creation_method	'MofGen! by Chris Wilmer'
_symmetry_space_group_name_H-M	'P1'
_symmetry_Int_Tables_number	1
_symmetry_cell_setting	triclinic
loop_
_symmetry_equiv_pos_as_xyz
  x,y,z
_cell_length_a	12.996460
_cell_length_b	10.654550
_cell_length_c	10.654550
_cell_angle_alpha	95.515069
_cell_angle_beta	90.005980
_cell_angle_gamma	89.997676
loop_
_atom_site_label
_atom_site_type_symbol
_atom_site_fract_x
_atom_site_fract_y
_atom_site_fract_z
O1	O	0.085490	-1.667843	0.176401
O2	O	0.085509	-1.302364	0.193207
O3	O	0.085492	-1.493507	0.002065
O4	O	0.085506	-1.476701	0.367544
O5	O	-0.085642	-1.493487	0.002054
O6	O	-0.085625	-1.302344	0.193197
O7	O	-0.085644	-1.667823	0.176391
Cu8	Cu	-0.101260	-1.485082	0.184793
Cu9	Cu	0.101125	-1.485106	0.184805
O10	O	-0.085628	-1.476680	0.367533
C11	C	-0.000056	-1.255556	0.191968
C12	C	-0.000049	-1.116113	0.188276
N13	N	-0.243608	-1.485074	0.184783
C14	C	-0.000074	-1.492263	-0.044738
C15	C	-0.000072	-1.488571	-0.184181
C16	C	-0.663422	-1.485104	0.184807
C17	C	-0.546617	-1.485092	0.184804
C18	C	-0.453518	-1.485090	0.184796
C19	C	-0.336706	-1.485076	0.184791
N20	N	0.243472	-1.485123	0.184805
C21	C	-0.000077	-1.714631	0.177630
C22	C	-0.000078	-1.854074	0.181322
C23	C	-0.000048	-1.036628	0.300818
C24	C	-0.000066	-0.905607	0.297341
C25	C	-0.000082	-0.933570	0.068772
C26	C	-0.000071	-1.064588	0.072250
C27	C	-0.000078	-1.601112	-0.263667
C28	C	-0.000065	-1.597636	-0.394688
C29	C	-0.000046	-1.369066	-0.366725
C30	C	-0.000051	-1.372544	-0.235706
C31	C	-0.000059	-1.477925	0.414336
C32	C	-0.000054	-1.481616	0.553779
H33	H	-0.000037	-1.078574	0.395294
H34	H	-0.000075	-1.129309	-0.019401
H35	H	-0.000093	-1.695588	-0.221720
H36	H	-0.000067	-1.689279	-0.459401
H37	H	-0.000030	-1.274601	-0.408693
H38	H	-0.000067	-0.840894	0.388984
H39	H	-0.000044	-1.280893	-0.170985
H40	H	-0.000106	-0.891602	-0.025693
