data_functionalizedCrystal
_audit_creation_method	'MofGen! by Chris Wilmer'
_symmetry_space_group_name_H-M	'P1'
_symmetry_Int_Tables_number	1
_symmetry_cell_setting	triclinic
loop_
_symmetry_equiv_pos_as_xyz
  x,y,z
_cell_length_a	14.908780
_cell_length_b	14.908520
_cell_length_c	14.910698
_cell_angle_alpha	83.660167
_cell_angle_beta	90.267033
_cell_angle_gamma	96.789949
loop_
_atom_site_label
_atom_site_type_symbol
_atom_site_fract_x
_atom_site_fract_y
_atom_site_fract_z
Zn1	Zn	-1.326584	0.317392	-0.604941
Zn2	Zn	-1.326338	0.460112	-0.462335
Zn3	Zn	-1.184797	0.316482	-0.445888
Zn4	Zn	-1.166449	0.477428	-0.604864
O5	O	-1.251042	0.392854	-0.529507
O6	O	-1.452804	0.329458	-0.592939
O7	O	-1.315138	0.433432	-0.333941
O8	O	-1.211388	0.189518	-0.460136
O9	O	-1.452623	0.434314	-0.488168
O10	O	-1.315557	0.190186	-0.576991
O11	O	-1.211149	0.327908	-0.321857
O12	O	-1.056111	0.344698	-0.460062
O13	O	-1.180115	0.463827	-0.731087
O14	O	-1.042631	0.462944	-0.576861
O15	O	-1.297766	0.346249	-0.731144
O16	O	-1.297347	0.589495	-0.488093
O17	O	-1.179877	0.602217	-0.592809
C18	C	-1.016635	0.405602	-0.516669
C19	C	-0.916352	0.411079	-0.511199
C20	C	-0.728076	0.312354	-0.610204
C21	C	-0.633851	0.317497	-0.605067
C22	C	-0.633677	0.426503	-0.495785
C23	C	-0.727901	0.421360	-0.500922
C24	C	-0.775098	0.364285	-0.558134
C25	C	-0.869323	0.359147	-0.563275
C26	C	-0.869148	0.468147	-0.453988
C27	C	-0.774923	0.473290	-0.448851
C28	C	-1.236617	0.628807	-0.542249
C29	C	-1.230527	0.729747	-0.547734
C30	C	-1.236921	0.407071	-0.764756
C31	C	-1.230904	0.413129	-0.865005
C32	C	-0.486365	0.380048	-0.542389
C33	C	-0.586648	0.374571	-0.547861
C34	C	-1.265547	0.155979	-0.516737
C35	C	-1.271728	0.055037	-0.511295
C36	C	-1.341517	0.906113	-0.449101
C37	C	-1.335798	1.000954	-0.454253
C38	C	-1.213374	1.014272	-0.563192
C39	C	-1.219093	0.919431	-0.558041
C40	C	-1.283166	0.865354	-0.500993
C41	C	-1.288880	0.770512	-0.495837
C42	C	-1.166462	0.783831	-0.604781
C43	C	-1.160743	0.878672	-0.609932
C44	C	-1.265164	0.378624	-0.295173
C45	C	-1.271372	0.372300	-0.194920
C46	C	-1.340949	0.301796	-0.053843
C47	C	-1.335127	0.307732	-0.148040
C48	C	-1.213433	0.430934	-0.147597
C49	C	-1.219255	0.424997	-0.053400
C50	C	-1.283017	0.360427	-0.006527
C51	C	-1.288843	0.354495	0.087671
C52	C	-1.167145	0.477692	0.088114
C53	C	-1.161322	0.483628	-0.006083
H54	H	-0.907442	0.510441	-0.411596
H55	H	-0.907749	0.312674	-0.609861
Br56	Br	-1.073796	0.952068	-0.687357
H57	H	-0.736484	0.519757	-0.402268
Br58	Br	-0.570038	0.247013	-0.675732
H59	H	-1.118946	0.750635	-0.647032
Br60	Br	-1.413750	0.228155	-0.212253
Br61	Br	-1.375378	0.266870	0.151285
H62	H	-1.119974	0.525436	0.126648
H63	H	-1.161521	0.483503	-0.185777
Br64	Br	-1.427491	0.214180	0.009774
H65	H	-1.341049	0.726483	-0.449383
H66	H	-0.595235	0.472960	-0.449195
Br67	Br	-1.126440	1.087675	-0.640625
H68	H	-1.109408	0.536198	-0.044260
Br69	Br	-1.414996	1.056268	-0.383831
Br70	Br	-0.792131	0.234910	-0.687858
Br71	Br	-1.428453	0.832720	-0.371663
