data_functionalizedCrystal
_audit_creation_method	'MofGen! by Chris Wilmer'
_symmetry_space_group_name_H-M	'P1'
_symmetry_Int_Tables_number	1
_symmetry_cell_setting	triclinic
loop_
_symmetry_equiv_pos_as_xyz
  x,y,z
_cell_length_a	17.019372
_cell_length_b	17.038272
_cell_length_c	15.500227
_cell_angle_alpha	86.966746
_cell_angle_beta	88.970414
_cell_angle_gamma	87.242864
loop_
_atom_site_label
_atom_site_type_symbol
_atom_site_fract_x
_atom_site_fract_y
_atom_site_fract_z
O1	O	1.053042	0.099898	-0.006440
O2	O	0.825040	0.111748	0.010534
O3	O	0.937686	-0.007996	0.002141
O4	O	0.940397	0.219642	0.001953
O5	O	0.930848	-0.000758	-0.141238
O6	O	0.818203	0.118986	-0.132846
O7	O	1.046204	0.107136	-0.149819
Cu8	Cu	0.931579	0.113722	-0.154424
Cu9	Cu	0.939665	0.105162	0.015139
O10	O	0.933559	0.226880	-0.141426
C11	C	0.792305	0.114776	-0.058973
C12	C	0.704948	0.113005	-0.052470
C13	C	0.211070	0.102765	-0.011712
C14	C	0.293150	0.104429	-0.017834
C15	C	0.330455	0.109213	-0.099052
C16	C	0.285675	0.112324	-0.174153
C17	C	0.203597	0.110654	-0.168030
C18	C	0.578091	0.114447	-0.121448
C19	C	0.660175	0.116119	-0.127565
C20	C	0.667644	0.108223	0.028754
C21	C	0.585564	0.106558	0.034869
C22	C	0.540792	0.109665	-0.040231
C23	C	0.414353	0.110916	-0.105311
C24	C	0.456895	0.107956	-0.033971
C25	C	0.931802	-0.033512	-0.069365
C26	C	0.924448	-0.120326	-0.068817
C27	C	0.991968	-0.170246	-0.073845
C28	C	0.985053	-0.251817	-0.073322
C29	C	0.910618	-0.283466	-0.067777
C30	C	0.843094	-0.233539	-0.062747
C31	C	0.850009	-0.151970	-0.063264
C32	C	0.886188	-0.529295	-0.065947
C33	C	0.879277	-0.610870	-0.065433
C34	C	1.021238	-0.629142	-0.076006
C35	C	1.028147	-0.547570	-0.076528
C36	C	0.960622	-0.497651	-0.071493
C37	C	0.903549	-0.366844	-0.067246
C38	C	0.967693	-0.414275	-0.072019
C39	C	1.078940	0.104108	-0.080310
C40	C	1.166297	0.105878	-0.086807
C41	C	0.939443	0.252396	-0.069918
C42	C	0.946797	0.339210	-0.070460
N43	N	0.925898	0.119742	-0.273686
C44	C	0.973648	0.069021	-0.322520
C45	C	0.969359	0.073581	-0.412773
C46	C	0.917323	0.128866	-0.454191
C47	C	0.869567	0.179589	-0.405350
C48	C	0.873852	0.175025	-0.315098
C49	C	0.901883	0.145295	-0.726507
C50	C	0.897602	0.149857	-0.816766
C51	C	0.997394	0.043848	-0.824183
C52	C	1.001679	0.039291	-0.733929
C53	C	0.953920	0.090012	-0.685096
C54	C	0.912939	0.133530	-0.546444
C55	C	0.958300	0.085343	-0.592844
N56	N	0.945353	0.099136	0.134400
H57	H	0.329602	0.101889	0.043316
Br58	Br	1.062205	-0.024985	-0.890459
H59	H	0.180703	0.098876	0.054424
Br60	Br	0.142832	0.114868	-0.269949
H61	H	1.052580	-0.144485	-0.078365
Br62	Br	1.076692	-0.319564	-0.080145
Br63	Br	0.837071	0.214129	-0.660238
H64	H	1.000665	0.040327	-0.559119
Br65	Br	0.728410	0.104001	0.130670
H66	H	1.076212	-0.669795	-0.080104
H67	H	0.555197	0.102662	0.101005
Br68	Br	0.798938	0.254615	-0.461555
Br69	Br	0.826978	0.224897	-0.872970
Br70	Br	0.778251	-0.653820	-0.057917
H71	H	0.834968	0.216326	-0.275337
Br72	Br	1.129171	-0.504626	-0.084024
Br73	Br	0.336302	0.118811	-0.284378
H74	H	1.044051	-0.005726	-0.700209
H75	H	0.831204	-0.488660	-0.061847
H76	H	0.690545	0.120019	-0.193706
H77	H	0.870571	0.178545	-0.580174
Br78	Br	0.758372	-0.084220	-0.056434
Br79	Br	0.517338	0.118685	-0.223372
H80	H	0.426519	0.104058	0.032156
H81	H	0.444736	0.114812	-0.171439
H82	H	1.008241	0.032279	-0.452534
H83	H	1.028298	-0.388504	-0.076514
Br84	Br	0.742074	-0.276491	-0.055208
H85	H	1.016025	0.024005	-0.288804
Br86	Br	0.802532	-0.409803	-0.059713
