data_functionalizedCrystal
_audit_creation_method	'MofGen! by Chris Wilmer'
_symmetry_space_group_name_H-M	'P1'
_symmetry_Int_Tables_number	1
_symmetry_cell_setting	triclinic
loop_
_symmetry_equiv_pos_as_xyz
  x,y,z
_cell_length_a	19.121241
_cell_length_b	19.121449
_cell_length_c	19.120904
_cell_angle_alpha	90.076803
_cell_angle_beta	89.875472
_cell_angle_gamma	89.915403
loop_
_atom_site_label
_atom_site_type_symbol
_atom_site_fract_x
_atom_site_fract_y
_atom_site_fract_z
Zn1	Zn	1.066081	-0.252666	-0.431900
Zn2	Zn	1.075963	-0.364500	-0.310107
Zn3	Zn	0.953829	-0.252250	-0.309687
Zn4	Zn	0.954212	-0.374414	-0.421889
O5	O	1.012521	-0.310957	-0.368396
O6	O	1.165323	-0.263525	-0.420109
O7	O	1.063737	-0.345287	-0.212123
O8	O	0.964423	-0.154377	-0.329912
O9	O	1.172584	-0.345689	-0.330628
O10	O	1.046894	-0.154682	-0.419702
O11	O	0.974006	-0.262818	-0.211814
O12	O	0.855949	-0.272431	-0.320205
O13	O	0.965076	-0.362586	-0.521146
O14	O	0.856230	-0.362184	-0.402640
O15	O	1.047266	-0.273139	-0.528500
O16	O	1.064109	-0.463744	-0.320921
O17	O	0.974659	-0.471027	-0.403048
C18	C	0.830697	-0.318339	-0.360291
C19	C	0.752912	-0.321514	-0.356840
C20	C	1.020516	-0.492777	-0.360960
C21	C	1.024000	-0.570559	-0.357805
C22	C	0.979035	-0.610918	-0.399043
C23	C	0.982311	-0.684002	-0.396076
C24	C	1.030556	-0.716725	-0.351874
C25	C	1.075522	-0.676361	-0.310632
C26	C	1.072242	-0.603278	-0.313595
C27	C	1.042788	-0.937197	-0.340785
C28	C	1.046066	-1.010285	-0.337826
C29	C	0.952853	-1.017921	-0.423271
C30	C	0.949581	-0.944837	-0.426233
C31	C	0.994544	-0.904479	-0.384988
C32	C	1.033907	-0.791429	-0.348842
C33	C	0.991189	-0.829776	-0.388017
C34	C	0.712589	-0.280301	-0.401872
C35	C	0.639502	-0.283281	-0.398623
C36	C	0.606738	-0.327478	-0.350346
C37	C	0.647067	-0.368692	-0.305309
C38	C	0.720153	-0.365708	-0.308555
C39	C	0.386255	-0.338621	-0.338208
C40	C	0.313164	-0.341603	-0.334967
C41	C	0.305604	-0.256191	-0.428281
C42	C	0.378691	-0.253214	-0.431526
C43	C	0.419013	-0.294425	-0.386487
C44	C	0.532032	-0.330526	-0.347025
C45	C	0.493719	-0.291373	-0.389804
C46	C	1.195056	-0.303548	-0.376532
C47	C	1.272841	-0.300390	-0.379999
C48	C	1.005111	-0.319015	-0.550925
C49	C	1.001954	-0.322448	-0.628708
C50	C	1.004514	-0.128427	-0.375877
C51	C	1.001101	-0.050644	-0.379065
C52	C	1.043260	-0.277493	-0.669080
C53	C	1.040284	-0.280717	-0.742165
C54	C	0.996006	-0.328900	-0.774876
C55	C	0.954695	-0.373857	-0.734498
C56	C	0.957667	-0.370630	-0.661415
C57	C	0.984887	-0.340973	-0.995350
C58	C	0.981919	-0.344198	-1.068439
C59	C	1.067507	-0.251057	-1.076102
C60	C	1.070479	-0.247836	-1.003016
C61	C	1.029166	-0.292791	-0.962644
C62	C	0.992965	-0.332198	-0.849581
C63	C	1.032203	-0.289489	-0.887941
C64	C	1.019940	-0.302879	-0.186581
C65	C	1.023225	-0.299243	-0.108812
H66	H	0.939752	-0.584280	-0.435041
Cl67	Cl	1.126146	-0.187260	-0.961899
Cl68	Cl	0.271977	-0.397186	-0.274286
H69	H	0.918640	-0.413087	-0.761137
Cl70	Cl	0.905735	-0.427145	-0.610660
Cl71	Cl	1.087858	-0.228911	-0.846817
H72	H	1.079400	-0.904342	-0.307203
Cl73	Cl	0.753769	-0.224740	-0.462570
Cl74	Cl	0.937305	-0.392772	-0.890710
Cl75	Cl	1.092247	-0.224228	-0.792917
Cl76	Cl	1.094562	-0.832573	-0.293283
H77	H	0.945690	-0.716860	-0.429650
H78	H	0.945860	-0.383437	-1.095070
Cl79	Cl	0.888930	-0.903705	-0.481807
H80	H	1.114801	-0.703010	-0.274638
Cl81	Cl	0.932950	-0.397488	-0.944607
Cl82	Cl	0.254910	-0.204384	-0.484897
Cl83	Cl	0.588813	-0.231470	-0.455240
Cl84	Cl	0.419874	-0.197655	-0.492225
H85	H	0.916246	-1.050789	-0.456850
H86	H	1.085356	-1.036925	-0.301832
H87	H	1.108856	-0.570418	-0.280014
Cl88	Cl	0.534908	-0.235811	-0.450492
H89	H	0.419077	-0.372179	-0.301535
Cl90	Cl	0.930540	-0.788638	-0.443582
Cl91	Cl	0.605879	-0.424250	-0.244613
Cl92	Cl	0.770845	-0.417521	-0.251941
H93	H	0.505348	-0.366511	-0.307717
H94	H	1.101141	-0.214456	-1.108980
H95	H	1.079318	-0.238259	-0.642453
