data_functionalizedCrystal
_audit_creation_method	'MofGen! by Chris Wilmer'
_symmetry_space_group_name_H-M	'P1'
_symmetry_Int_Tables_number	1
_symmetry_cell_setting	triclinic
loop_
_symmetry_equiv_pos_as_xyz
  x,y,z
_cell_length_a	16.974800
_cell_length_b	13.262508
_cell_length_c	16.053802
_cell_angle_alpha	108.475487
_cell_angle_beta	91.074188
_cell_angle_gamma	82.923469
loop_
_atom_site_label
_atom_site_type_symbol
_atom_site_fract_x
_atom_site_fract_y
_atom_site_fract_z
O1	O	1.048044	0.135751	0.032240
O2	O	1.548044	0.635751	0.532240
O3	O	0.818459	0.152053	0.020422
O4	O	1.318459	0.652053	0.520422
O5	O	0.940703	-0.011106	-0.008361
O6	O	1.440703	0.488894	0.491639
O7	O	0.925800	0.298909	0.061023
O8	O	1.425800	0.798909	0.561023
O9	O	0.933975	-0.002162	0.132073
O10	O	1.433975	0.497838	0.632073
O11	O	0.811730	0.160996	0.160857
O12	O	1.311730	0.660996	0.660857
O13	O	1.041316	0.144694	0.172675
O14	O	1.541316	0.644694	0.672675
Zn15	Zn	0.925455	0.154265	0.189063
Zn16	Zn	1.425455	0.654265	0.689063
Zn17	Zn	0.934320	0.142482	0.004034
Zn18	Zn	1.434320	0.642482	0.504034
O19	O	0.919072	0.307852	0.201458
O20	O	1.419072	0.807852	0.701458
C21	C	0.785737	0.155741	0.088477
C22	C	1.285737	0.655741	0.588477
C23	C	0.698263	0.153392	0.082030
C24	C	1.198263	0.653392	0.582030
C25	C	0.653504	0.157162	0.155554
C26	C	1.153504	0.657162	0.655554
C27	C	0.571314	0.154938	0.149496
C28	C	1.071314	0.654938	0.649496
C29	C	0.533883	0.148953	0.069914
C30	C	1.033883	0.648953	0.569914
C31	C	0.578648	0.145180	-0.003616
C32	C	1.078648	0.645180	0.496384
C33	C	0.660838	0.147396	0.002442
C34	C	1.160838	0.647396	0.502442
C35	C	0.288467	0.141797	0.043587
C36	C	0.788467	0.641797	0.543587
C37	C	0.206271	0.139584	0.037535
C38	C	0.706271	0.639584	0.537535
C39	C	0.198943	0.149341	0.190647
C40	C	0.698943	0.649341	0.690647
C41	C	0.281133	0.151562	0.196699
C42	C	0.781133	0.651562	0.696699
C43	C	0.325892	0.147784	0.123168
C44	C	0.825892	0.647784	0.623168
N45	N	0.449871	0.146684	0.063720
N46	N	0.949871	0.646684	0.563720
N47	N	0.409903	0.150045	0.129361
N48	N	0.909903	0.650045	0.629361
C49	C	0.937122	-0.046311	0.052830
C50	C	1.437122	0.453689	0.552830
C51	C	0.936467	-0.164536	0.025936
C52	C	1.436467	0.335464	0.525936
C53	C	0.919945	-0.478306	0.256340
C54	C	1.419945	0.021694	0.756340
C55	C	0.920555	-0.367226	0.281609
C56	C	1.420555	0.132774	0.781609
C57	C	0.924533	-0.316548	0.217693
C58	C	1.424533	0.183452	0.717693
C59	C	0.927901	-0.376961	0.128504
C60	C	1.427901	0.123039	0.628504
C61	C	0.927286	-0.488050	0.103232
C62	C	1.427286	0.011950	0.603232
C63	C	0.931874	-0.326293	0.064585
C64	C	1.431874	0.173707	0.564585
C65	C	0.935242	-0.386706	-0.024604
C66	C	1.435242	0.113294	0.475396
C67	C	0.934627	-0.497784	-0.049871
C68	C	1.434627	0.002216	0.450129
C69	C	0.930649	-0.548462	0.014045
C70	C	1.430649	-0.048462	0.514045
C71	C	0.932489	-0.215203	0.089857
C72	C	1.432489	0.284797	0.589857
C73	C	0.939830	-0.224948	-0.063251
C74	C	1.439830	0.275052	0.436749
C75	C	0.939221	-0.336028	-0.088520
C76	C	1.439221	0.163972	0.411480
C77	C	1.074037	0.141006	0.104618
C78	C	1.574037	0.641006	0.604618
C79	C	1.161512	0.143354	0.111059
C80	C	1.661512	0.643354	0.611059
C81	C	0.922652	0.343058	0.140264
C82	C	1.422652	0.843058	0.640264
C83	C	0.923308	0.461283	0.167153
C84	C	1.423308	0.961283	0.667153
N85	N	0.919411	0.162306	0.315340
N86	N	1.419411	0.662306	0.815340
N87	N	0.940370	0.134432	-0.122245
N88	N	1.440370	0.634432	0.377755
C89	C	0.971444	0.092907	0.346794
C90	C	1.471444	0.592907	0.846794
C91	C	0.967224	0.098542	0.435195
C92	C	1.467224	0.598542	0.935195
C93	C	0.910972	0.173583	0.492142
C94	C	1.410972	0.673583	0.992142
C95	C	0.858933	0.242985	0.460683
C96	C	1.358933	0.742985	0.960683
C97	C	0.863150	0.237344	0.372282
C98	C	1.363150	0.737344	0.872282
C99	C	0.892549	0.198193	0.757895
C100	C	1.392549	0.698193	1.257895
C101	C	0.888337	0.203831	0.846301
C102	C	1.388337	0.703831	1.346301
C103	C	0.996627	0.059386	0.820807
C104	C	1.496627	0.559386	1.320807
C105	C	1.000843	0.053756	0.732406
C106	C	1.500843	0.553756	1.232406
C107	C	0.948801	0.123155	0.700954
C108	C	1.448801	0.623155	1.200954
N109	N	0.906658	0.179347	0.582503
N110	N	1.406658	0.679347	1.082503
N111	N	0.953112	0.117385	0.610593
N112	N	1.453112	0.617385	1.110593
H113	H	0.324900	0.138716	-0.016289
H114	H	0.824900	0.638716	0.483711
F115	F	0.320963	0.157938	0.281402
F116	F	0.820963	0.657938	0.781402
H117	H	0.842528	0.264942	0.892666
H118	H	1.342528	0.764942	1.392666
H119	H	1.038996	0.002884	0.846424
H120	H	1.538996	0.502884	1.346424
F121	F	0.708473	0.143380	-0.075813
F122	F	1.208473	0.643380	0.424187
H123	H	0.850176	0.254702	0.732294
H124	H	1.350176	0.754702	1.232294
H125	H	0.813128	0.304081	0.507054
H126	H	1.313128	0.804081	1.007054
F127	F	0.151302	0.153359	0.268898
F128	F	0.651302	0.653359	0.768898
H129	H	0.683973	0.162044	0.220360
H130	H	1.183973	0.662044	0.720360
F131	F	0.915699	-0.532245	0.324353
F132	F	1.415699	-0.032245	0.824353
F133	F	1.022603	0.024679	0.468669
F134	F	1.522603	0.524679	0.968669
H135	H	0.548166	0.140300	-0.068415
H136	H	1.048166	0.640300	0.431585
F137	F	1.031319	0.013043	0.286195
F138	F	1.531319	0.513043	0.786195
H139	H	0.930156	-0.638913	-0.006525
H140	H	1.430156	-0.138913	0.493475
H141	H	0.175798	0.134714	-0.027272
H142	H	0.675798	0.634714	0.472728
H143	H	0.820778	0.293855	0.346674
H144	H	1.320778	0.793855	0.846674
F145	F	0.925179	-0.198326	0.244589
F146	F	1.425179	0.301674	0.744589
F147	F	0.523680	0.158965	0.227753
F148	F	1.023680	0.658965	0.727753
F149	F	0.928905	-0.150920	0.184775
F150	F	1.428905	0.349080	0.684775
H151	H	0.917820	-0.318047	0.354227
H152	H	1.417820	0.181953	0.854227
H153	H	0.937363	-0.546968	-0.122495
H154	H	1.437363	-0.046968	0.377505
F155	F	0.944051	-0.171017	-0.131281
F156	F	1.444051	0.328983	0.368719
F157	F	0.942807	-0.400336	-0.183440
F158	F	1.442807	0.099664	0.316560
H159	H	1.046647	-0.007347	0.686040
H160	H	1.546647	0.492653	1.186040
