data_functionalizedCrystal
_audit_creation_method	'MofGen! by Chris Wilmer'
_symmetry_space_group_name_H-M	'P1'
_symmetry_Int_Tables_number	1
_symmetry_cell_setting	triclinic
loop_
_symmetry_equiv_pos_as_xyz
  x,y,z
_cell_length_a	19.077105
_cell_length_b	21.295417
_cell_length_c	19.077174
_cell_angle_alpha	92.268346
_cell_angle_beta	85.483752
_cell_angle_gamma	87.726672
loop_
_atom_site_label
_atom_site_type_symbol
_atom_site_fract_x
_atom_site_fract_y
_atom_site_fract_z
Zn1	Zn	1.093669	-0.305856	-0.441813
Zn2	Zn	1.088842	-0.406716	-0.323916
Zn3	Zn	0.971055	-0.297057	-0.319212
Zn4	Zn	0.975736	-0.406675	-0.437034
O5	O	1.032326	-0.354076	-0.380494
O6	O	1.191679	-0.322935	-0.430143
O7	O	1.069238	-0.388505	-0.224642
O8	O	0.987382	-0.210138	-0.335507
O9	O	1.188132	-0.397037	-0.343524
O10	O	1.077466	-0.216603	-0.425582
O11	O	0.982701	-0.307938	-0.221186
O12	O	0.873027	-0.307898	-0.330872
O13	O	0.995359	-0.396967	-0.536317
O14	O	0.876465	-0.388434	-0.417435
O15	O	1.082004	-0.322895	-0.539829
O16	O	1.073777	-0.494797	-0.338889
O17	O	0.990679	-0.494767	-0.421997
C18	C	0.849167	-0.347207	-0.373125
C19	C	0.770812	-0.344285	-0.369989
C20	C	0.735806	-0.384900	-0.413514
C21	C	0.662183	-0.382146	-0.410571
C22	C	0.623567	-0.338778	-0.364100
C23	C	0.658578	-0.298158	-0.320573
C24	C	0.732200	-0.300910	-0.323520
C25	C	0.403188	-0.326043	-0.350464
C26	C	0.329561	-0.323295	-0.347519
C27	C	0.333172	-0.407283	-0.437519
C28	C	0.406795	-0.410033	-0.440459
C29	C	0.441799	-0.369411	-0.396935
N30	N	0.548312	-0.335963	-0.361089
N31	N	0.517052	-0.372223	-0.399949
C32	C	1.032232	-0.517623	-0.380451
C33	C	1.032257	-0.587592	-0.380459
C34	C	1.075568	-0.620457	-0.337233
C35	C	1.075602	-0.686201	-0.337250
C36	C	1.032311	-0.719078	-0.380485
C37	C	0.988997	-0.686205	-0.423720
C38	C	0.988970	-0.620462	-0.423707
N39	N	0.970858	-0.820236	-0.383378
N40	N	0.970886	-0.882688	-0.383387
C41	C	1.032392	-0.917157	-0.380529
N42	N	1.093870	-0.886813	-0.377648
N43	N	1.093842	-0.824354	-0.377636
C44	C	1.032337	-0.790365	-0.380505
C45	C	1.075744	-1.021309	-0.337319
C46	C	1.075779	-1.087055	-0.337341
C47	C	0.989168	-1.087057	-0.423807
C48	C	0.989139	-1.021313	-0.423789
C49	C	1.032426	-0.988443	-0.380541
C50	C	1.216199	-0.360972	-0.387892
C51	C	1.294555	-0.363911	-0.391044
C52	C	1.039742	-0.360908	-0.564367
C53	C	1.042903	-0.363819	-0.642723
C54	C	1.032440	-0.189892	-0.380553
C55	C	1.032489	-0.119927	-0.380578
C56	C	0.999334	-0.323241	-0.677734
C57	C	1.002301	-0.325982	-0.751358
C58	C	1.048841	-0.369298	-0.789968
C59	C	1.092411	-0.409880	-0.754951
C60	C	1.089440	-0.407142	-0.681329
C61	C	1.062554	-0.381988	-1.010348
C62	C	1.065523	-0.384721	-1.083976
C63	C	0.975412	-0.300823	-1.080377
C64	C	0.972448	-0.298087	-1.006754
C65	C	1.016016	-0.338671	-0.971743
N66	N	1.051876	-0.372099	-0.865223
N67	N	1.012976	-0.335873	-0.896489
C68	C	1.024979	-0.347227	-0.197338
C69	C	1.021955	-0.344143	-0.118988
H70	H	0.767243	-0.420217	-0.451354
O71	O	1.117691	-0.989339	-0.295238
C72	C	1.075739	-0.948159	-0.248062
H73	H	1.020053	-0.965779	-0.241431
H74	H	1.074146	-0.899045	-0.269748
C75	C	1.175681	-0.924078	-0.184340
C76	C	1.107288	-0.945722	-0.176190
H77	H	1.195143	-0.922572	-0.140006
H78	H	1.203946	-0.951820	-0.216124
H79	H	1.174345	-0.883152	-0.202413
H80	H	1.108626	-0.986651	-0.158126
H81	H	1.079023	-0.917987	-0.144401
H82	H	0.934549	-0.262816	-0.975322
O83	O	1.104909	-0.421315	-0.976266
C84	C	1.148758	-0.385601	-0.935538
H85	H	1.123481	-0.336556	-0.923527
H86	H	1.202150	-0.381698	-0.966014
C87	C	1.189721	-0.478351	-0.880856
C88	C	1.158673	-0.418115	-0.866099
H89	H	1.195841	-0.498408	-0.838024
H90	H	1.160182	-0.502413	-0.908297
H91	H	1.234211	-0.475090	-0.906254
H92	H	1.114180	-0.421377	-0.840709
H93	H	1.188205	-0.394054	-0.838652
O94	O	0.437257	-0.286675	-0.308149
C95	C	0.477962	-0.322343	-0.264231
H96	H	0.489980	-0.371413	-0.289437
H97	H	0.447463	-0.326189	-0.210842
C98	C	0.532632	-0.229557	-0.223373
C99	C	0.547397	-0.289823	-0.254334
H100	H	0.575462	-0.209496	-0.217264
H101	H	0.505207	-0.205526	-0.252959
H102	H	0.507214	-0.232770	-0.178885
H103	H	0.572807	-0.286609	-0.298824
H104	H	0.574829	-0.313853	-0.224755
O105	O	1.117874	-1.118883	-0.295284
C106	C	1.156084	-1.075770	-0.257125
H107	H	1.127090	-1.027759	-0.253490
H108	H	1.210645	-1.071686	-0.285131
C109	C	1.198895	-1.158017	-0.186986
C110	C	1.163281	-1.099050	-0.182517
H111	H	1.203338	-1.172377	-0.140965
H112	H	1.173155	-1.187063	-0.212696
H113	H	1.244359	-1.154605	-0.210327
H114	H	1.117815	-1.102464	-0.159184
H115	H	1.189014	-1.070004	-0.156801
H116	H	0.760700	-0.267833	-0.288081
O117	O	1.131661	-0.446621	-0.647279
C118	C	1.089775	-0.484175	-0.603051
H119	H	1.035146	-0.486804	-0.623007
H120	H	1.085106	-0.462546	-0.547165
C121	C	1.191216	-0.547634	-0.578767
C122	C	1.124122	-0.550867	-0.603280
H123	H	1.212404	-0.588772	-0.578905
H124	H	1.219437	-0.522332	-0.608562
H125	H	1.187317	-0.529607	-0.532197
H126	H	1.128023	-0.568886	-0.649852
H127	H	1.095903	-0.576174	-0.573493
O128	O	0.947137	-1.119081	-0.465744
C129	C	0.956464	-1.184157	-0.456505
H130	H	0.977403	-1.191987	-0.403051
H131	H	0.995670	-1.205721	-0.499862
C132	C	0.859688	-1.205917	-0.525703
C133	C	0.885400	-1.215534	-0.460048
H134	H	0.815854	-1.225274	-0.527891
H135	H	0.853405	-1.162075	-0.531930
H136	H	0.892366	-1.223888	-0.561826
H137	H	0.852727	-1.197557	-0.423926
H138	H	0.891676	-1.259375	-0.453814
O139	O	0.946993	-0.989480	-0.465792
C140	C	0.908802	-1.032593	-0.503970
H141	H	0.905241	-1.078308	-0.475007
H142	H	0.936735	-1.042495	-0.558571
C143	C	0.838534	-0.948410	-0.546614
C144	C	0.834156	-1.004556	-0.511038
H145	H	0.792490	-0.931115	-0.550977
H146	H	0.864265	-0.919363	-0.520895
H147	H	0.861814	-0.956669	-0.592111
H148	H	0.810884	-0.996294	-0.465540
H149	H	0.808419	-1.033601	-0.536750
O150	O	0.959954	-0.286498	-0.785258
C151	C	0.918232	-0.247687	-0.735393
H152	H	0.944993	-0.244641	-0.684075
H153	H	0.864358	-0.268434	-0.725398
C154	C	0.876415	-0.185121	-0.826773
C155	C	0.909286	-0.181375	-0.763746
H156	H	0.870894	-0.144217	-0.844263
H157	H	0.904522	-0.211270	-0.860369
H158	H	0.831524	-0.202413	-0.818436
H159	H	0.954181	-0.164091	-0.772086
H160	H	0.881187	-0.155221	-0.730151
H161	H	0.438231	-0.445349	-0.478299
O162	O	0.933061	-0.261342	-1.114277
C163	C	0.891333	-0.222537	-1.064410
H164	H	0.918094	-0.219488	-1.013093
H165	H	0.837463	-0.243291	-1.054416
C166	C	0.849506	-0.159975	-1.155789
C167	C	0.882376	-0.156226	-1.092762
H168	H	0.843977	-0.119072	-1.173278
H169	H	0.877616	-0.186120	-1.189386
H170	H	0.804617	-0.177273	-1.147452
H171	H	0.927267	-0.138935	-1.101101
H172	H	0.854273	-0.130076	-1.059167
O173	O	0.628289	-0.421672	-0.452870
C174	C	0.678160	-0.460534	-0.494524
H175	H	0.729469	-0.463553	-0.467746
H176	H	0.688172	-0.439852	-0.548432
C177	C	0.586782	-0.523137	-0.536265
C178	C	0.649799	-0.526849	-0.503373
H179	H	0.569288	-0.564043	-0.541727
H180	H	0.553183	-0.496954	-0.508204
H181	H	0.595134	-0.505900	-0.581185
H182	H	0.641445	-0.544079	-0.458450
H183	H	0.683397	-0.553037	-0.531426
H184	H	1.110874	-0.712965	-0.302050
O185	O	1.110751	-0.426859	-1.121375
C186	C	1.148581	-0.462083	-1.074688
H187	H	1.117588	-0.461231	-1.021046
H188	H	1.201823	-0.440751	-1.069019
C189	C	1.197918	-0.531569	-1.169696
C190	C	1.159848	-0.530529	-1.103813
H191	H	1.204871	-0.573790	-1.187662
H192	H	1.172433	-0.507837	-1.201151
H193	H	1.242282	-0.513790	-1.164963
H194	H	1.115482	-0.548300	-1.108549
H195	H	1.185325	-0.554265	-1.072360
H196	H	0.961440	-0.287965	-0.646303
H197	H	0.304663	-0.440354	-0.472954
H198	H	0.298121	-0.287973	-0.309681
O199	O	0.946996	-0.588512	-0.465775
C200	C	0.988915	-0.553611	-0.512929
H201	H	1.044620	-0.575618	-0.519568
H202	H	0.990460	-0.503076	-0.491219
C203	C	0.888952	-0.526996	-0.576645
C204	C	0.957369	-0.554028	-0.584803
H205	H	0.869492	-0.527250	-0.620979
H206	H	0.860710	-0.550508	-0.544874
H207	H	0.890249	-0.484886	-0.558551
H208	H	0.956070	-0.596140	-0.602888
H209	H	0.985610	-0.530524	-0.616578
H210	H	0.627131	-0.262845	-0.282738
H211	H	0.953751	-0.712977	-0.458924
H212	H	1.110817	-0.593696	-0.302020
H213	H	1.130301	-0.445152	-0.786394
