data_functionalizedCrystal
_audit_creation_method	'MofGen! by Chris Wilmer'
_symmetry_space_group_name_H-M	'P1'
_symmetry_Int_Tables_number	1
_symmetry_cell_setting	triclinic
loop_
_symmetry_equiv_pos_as_xyz
  x,y,z
_cell_length_a	19.077105
_cell_length_b	15.297327
_cell_length_c	19.076919
_cell_angle_alpha	101.510342
_cell_angle_beta	90.076224
_cell_angle_gamma	97.818066
loop_
_atom_site_label
_atom_site_type_symbol
_atom_site_fract_x
_atom_site_fract_y
_atom_site_fract_z
Zn1	Zn	0.997096	-0.436205	-0.496821
Zn2	Zn	1.497096	0.063795	0.003179
Zn3	Zn	0.981405	-0.581179	-0.398060
Zn4	Zn	1.481405	-0.081179	0.101940
Zn5	Zn	0.886008	-0.424127	-0.373052
Zn6	Zn	1.386008	0.075873	0.126948
Zn7	Zn	0.859303	-0.580636	-0.510742
Zn8	Zn	1.359303	-0.080636	-0.010742
O9	O	0.930953	-0.505537	-0.444669
O10	O	1.430953	-0.005537	0.055331
O11	O	1.092606	-0.460719	-0.488360
O12	O	1.592606	0.039281	0.011640
O13	O	0.973359	-0.555519	-0.295787
O14	O	1.473359	-0.055519	0.204213
O15	O	0.918487	-0.299557	-0.373179
O16	O	1.418487	0.200443	0.126821
O17	O	1.081077	-0.567231	-0.415800
O18	O	1.581077	-0.067231	0.084200
O19	O	1.000103	-0.308431	-0.464111
O20	O	1.500103	0.191569	0.035889
O21	O	0.903272	-0.440133	-0.277414
O22	O	1.403272	0.059867	0.222586
O23	O	0.784875	-0.439605	-0.386678
O24	O	1.284875	0.060395	0.113322
O25	O	0.872972	-0.566304	-0.607851
O26	O	1.372972	-0.066304	-0.107851
O27	O	0.765254	-0.554592	-0.487838
O28	O	1.265254	-0.054592	0.012162
O29	O	0.974208	-0.460192	-0.597623
O30	O	1.474208	0.039808	-0.097623
O31	O	0.947464	-0.707279	-0.429299
O32	O	1.447464	-0.207279	0.070701
O33	O	0.857757	-0.706880	-0.512086
O34	O	1.357757	-0.206880	-0.012086
C35	C	0.749760	-0.495730	-0.436055
C36	C	1.249760	0.004270	0.063945
C37	C	0.672241	-0.491557	-0.432390
C38	C	1.172241	0.008443	0.067610
C39	C	0.625617	-0.549547	-0.483277
C40	C	1.125617	-0.049547	0.016723
C41	C	0.552781	-0.545614	-0.479834
C42	C	1.052781	-0.045614	0.020166
C43	C	0.526571	-0.483695	-0.425502
C44	C	1.026571	0.016305	0.074498
C45	C	0.573201	-0.425698	-0.374613
C46	C	1.073201	0.074302	0.125387
C47	C	0.646036	-0.429627	-0.378058
C48	C	1.146036	0.070373	0.121942
C49	C	0.309833	-0.465511	-0.409558
C50	C	0.809833	0.034489	0.090442
C51	C	0.236992	-0.461589	-0.406115
C52	C	0.736992	0.038411	0.093885
C53	C	0.216578	-0.581504	-0.511338
C54	C	0.716578	-0.081504	-0.011338
C55	C	0.289415	-0.585431	-0.514776
C56	C	0.789415	-0.085431	-0.014776
C57	C	0.336039	-0.527431	-0.463889
C58	C	0.836039	-0.027431	0.036111
N59	N	0.452121	-0.479676	-0.421981
N60	N	0.952121	0.020324	0.078019
N61	N	0.410488	-0.531447	-0.467414
N62	N	0.910488	-0.031447	0.032586
C63	C	0.898028	-0.739796	-0.474933
C64	C	1.398028	-0.239796	0.025067
C65	C	0.884005	-0.840018	-0.487907
C66	C	1.384005	-0.340018	0.012093
C67	C	1.031451	-1.123247	-0.352197
C68	C	1.531451	-0.623247	0.147803
C69	C	1.044626	-1.029084	-0.340004
C70	C	1.544626	-0.529084	0.159996
C71	C	1.004472	-0.981812	-0.376979
C72	C	1.504472	-0.481812	0.123021
C73	C	0.951141	-1.028714	-0.426149
C74	C	1.451141	-0.528714	0.073851
C75	C	0.937961	-1.122886	-0.438339
C76	C	1.437961	-0.622886	0.061661
C77	C	0.910982	-0.981452	-0.463121
C78	C	1.410982	-0.481452	0.036879
C79	C	0.857651	-1.028353	-0.512291
C80	C	1.357651	-0.528353	-0.012291
C81	C	0.844474	-1.122517	-0.524480
C82	C	1.344474	-0.622517	-0.024480
C83	C	0.884628	-1.169788	-0.487505
C84	C	1.384628	-0.669788	0.012495
C85	C	0.924162	-0.887280	-0.450930
C86	C	1.424162	-0.387280	0.049070
C87	C	0.830672	-0.886919	-0.537073
C88	C	1.330672	-0.386919	-0.037073
C89	C	0.817497	-0.981082	-0.549266
C90	C	1.317497	-0.481082	-0.049266
C91	C	1.112853	-0.515383	-0.453317
C92	C	1.612853	-0.015383	0.046683
C93	C	1.190368	-0.519579	-0.457002
C94	C	1.690368	-0.019579	0.042998
C95	C	0.922362	-0.514535	-0.629112
C96	C	1.422362	-0.014535	-0.129112
C97	C	0.918700	-0.518369	-0.707711
C98	C	1.418700	-0.018369	-0.207711
C99	C	0.964025	-0.270365	-0.414303
C100	C	1.464025	0.229635	0.085697
C101	C	0.978118	-0.170148	-0.401362
C102	C	1.478118	0.329852	0.098638
C103	C	0.969686	-0.464926	-0.739314
C104	C	1.469686	0.035074	-0.239314
C105	C	0.966238	-0.468525	-0.813165
C106	C	1.466238	0.031475	-0.313165
C107	C	0.911807	-0.525572	-0.855413
C108	C	1.411807	-0.025572	-0.355413
C109	C	0.860816	-0.579017	-0.823806
C110	C	1.360816	-0.079017	-0.323806
C111	C	0.864262	-0.575413	-0.749955
C112	C	1.364262	-0.075413	-0.249955
C113	C	0.895847	-0.542271	-1.076853
C114	C	1.395847	-0.042271	-0.576853
C115	C	0.892406	-0.545873	-1.150709
C116	C	1.392406	-0.045873	-0.650709
C117	C	0.997828	-0.435379	-1.140063
C118	C	1.497828	0.064621	-0.640063
C119	C	1.001271	-0.431784	-1.066212
C120	C	1.501271	0.068216	-0.566212
C121	C	0.950279	-0.485225	-1.034610
C122	C	1.450279	0.014775	-0.534610
N123	N	0.908282	-0.529254	-0.930901
N124	N	1.408282	-0.029254	-0.430901
N125	N	0.953801	-0.481538	-0.959123
N126	N	1.453801	0.018462	-0.459123
C127	C	0.939560	-0.496511	-0.260936
C128	C	1.439560	0.003489	0.239064
C129	C	0.943392	-0.492430	-0.182311
C130	C	1.443392	0.007570	0.317689
H131	H	0.514822	-0.592837	-0.521271
H132	H	1.014822	-0.092837	-0.021271
H133	H	1.015202	-0.905140	-0.367047
H134	H	1.515202	-0.405140	0.132953
O135	O	1.054180	-0.376475	-1.025144
O136	O	1.554180	0.123525	-0.525144
C137	C	1.093991	-0.428130	-0.991160
C138	C	1.593991	0.071870	-0.491160
H139	H	1.087316	-0.500459	-1.022792
H140	H	1.587316	-0.000459	-0.522792
H141	H	1.152279	-0.398345	-0.988634
H142	H	1.652279	0.101655	-0.488634
H143	H	1.074574	-0.427355	-0.934577
H144	H	1.574574	0.072645	-0.434577
H145	H	1.039343	-0.391869	-1.165801
H146	H	1.539343	0.108131	-0.665801
O147	O	1.070495	-1.169023	-0.316199
O148	O	1.570495	-0.669023	0.183801
C149	C	1.120408	-1.107441	-0.270203
C150	C	1.620408	-0.607441	0.229797
H151	H	1.101355	-1.038680	-0.257688
H152	H	1.601355	-0.538680	0.242312
H153	H	1.126671	-1.132357	-0.218374
H154	H	1.626671	-0.632357	0.281626
H155	H	1.173558	-1.101490	-0.297351
H156	H	1.673558	-0.601490	0.202649
H157	H	0.178609	-0.628722	-0.552768
H158	H	0.678609	-0.128722	-0.052768
O159	O	0.211652	-0.401354	-0.353306
O160	O	0.711652	0.098646	0.146694
C161	C	0.268420	-0.351018	-0.309120
C162	C	0.768420	0.148982	0.190880
H163	H	0.319427	-0.352163	-0.340148
H164	H	0.819427	0.147837	0.159852
H165	H	0.257699	-0.278468	-0.291496
H166	H	0.757699	0.221532	0.208504
H167	H	0.274036	-0.381720	-0.259987
H168	H	0.774036	0.118280	0.240013
H169	H	0.848079	-0.592330	-1.185107
H170	H	1.348079	-0.092330	-0.685107
H171	H	0.873905	-1.246463	-0.497431
H172	H	1.373905	-0.746463	0.002569
H173	H	0.797974	-0.848431	-0.567180
H174	H	1.297974	-0.348431	-0.067180
H175	H	0.822738	-0.618923	-0.724225
H176	H	1.322738	-0.118923	-0.224225
H177	H	0.801040	-1.160700	-0.564509
H178	H	1.301040	-0.660700	-0.064509
O179	O	0.355175	-0.409304	-0.360108
O180	O	0.855175	0.090696	0.139892
C181	C	0.392215	-0.460581	-0.322966
C182	C	0.892215	0.039419	0.177034
H183	H	0.392375	-0.530759	-0.357169
H184	H	0.892375	-0.030759	0.142831
H185	H	0.449030	-0.426130	-0.311205
H186	H	0.949030	0.073870	0.188795
H187	H	0.365193	-0.466319	-0.270491
H188	H	0.865193	0.033681	0.229509
O189	O	0.975923	-0.841818	-0.403086
O190	O	1.475923	-0.341818	0.096914
C191	C	0.960781	-0.860604	-0.334856
C192	C	1.460781	-0.360604	0.165144
H193	H	0.924468	-0.927482	-0.340951
H194	H	1.424468	-0.427482	0.159049
H195	H	1.012166	-0.864968	-0.305993
H196	H	1.512166	-0.364968	0.194007
H197	H	0.933467	-0.804554	-0.302451
H198	H	1.433467	-0.304554	0.197549
H199	H	1.007757	-0.425008	-0.838892
H200	H	1.507757	0.074992	-0.338892
O201	O	0.846268	-0.594260	-1.046279
O202	O	1.346268	-0.094260	-0.546279
C203	C	0.797476	-0.645359	-1.099404
C204	C	1.297476	-0.145359	-0.599404
H205	H	0.823154	-0.652616	-1.153807
H206	H	1.323154	-0.152616	-0.653807
H207	H	0.781021	-0.714947	-1.086878
H208	H	1.281021	-0.214947	-0.586878
H209	H	0.748800	-0.609838	-1.100485
H210	H	1.248800	-0.109838	-0.600485
H211	H	0.774074	-1.019283	-0.589301
H212	H	1.274074	-0.519283	-0.089301
H213	H	0.551855	-0.375279	-0.330377
H214	H	1.051855	0.124721	0.169623
H215	H	1.014012	-0.418475	-0.704920
H216	H	1.514012	0.081525	-0.204920
H217	H	0.816495	-0.625463	-0.858210
H218	H	1.316495	-0.125463	-0.358210
H219	H	0.646951	-0.599971	-0.527518
H220	H	1.146951	-0.099971	-0.027518
O221	O	1.096339	-0.983480	-0.292160
O222	O	1.596339	-0.483480	0.207840
C223	C	1.066415	-0.924686	-0.237535
C224	C	1.566415	-0.424686	0.262465
H225	H	1.007716	-0.949940	-0.234196
H226	H	1.507716	-0.449940	0.265804
H227	H	1.094363	-0.922333	-0.184198
H228	H	1.594363	-0.422333	0.315802
H229	H	1.072968	-0.854245	-0.250040
H230	H	1.572968	-0.354245	0.249960
O231	O	0.314758	-0.645605	-0.567621
O232	O	0.814758	-0.145605	-0.067621
C233	C	0.257985	-0.695964	-0.611787
C234	C	0.757985	-0.195964	-0.111787
H235	H	0.211139	-0.656359	-0.607061
H236	H	0.711139	-0.156359	-0.107061
H237	H	0.275081	-0.709550	-0.669742
H238	H	0.775081	-0.209550	-0.169742
H239	H	0.241828	-0.762702	-0.594274
H240	H	0.741828	-0.262702	-0.094274
H241	H	0.683998	-0.382401	-0.336624
H242	H	1.183998	0.117599	0.163376
