data_functionalizedCrystal
_audit_creation_method	'MofGen! by Chris Wilmer'
_symmetry_space_group_name_H-M	'P1'
_symmetry_Int_Tables_number	1
_symmetry_cell_setting	triclinic
loop_
_symmetry_equiv_pos_as_xyz
  x,y,z
_cell_length_a	16.109301
_cell_length_b	12.837942
_cell_length_c	15.186229
_cell_angle_alpha	89.996774
_cell_angle_beta	89.999362
_cell_angle_gamma	89.145211
loop_
_atom_site_label
_atom_site_type_symbol
_atom_site_fract_x
_atom_site_fract_y
_atom_site_fract_z
O1	O	1.113716	0.133240	-0.073172
O2	O	0.872971	0.149822	-0.073186
O3	O	0.988005	-0.009370	-0.073174
O4	O	0.998681	0.292432	-0.073184
O5	O	0.987996	-0.009372	0.073283
O6	O	0.872962	0.149820	0.073271
O7	O	1.113707	0.133238	0.073285
Zn8	Zn	0.993333	0.141528	0.096532
Zn9	Zn	0.993345	0.141531	-0.096432
O10	O	0.998673	0.292430	0.073273
C11	C	0.841938	0.149149	0.000041
C12	C	0.749483	0.147135	0.000036
C13	C	0.984394	-0.047991	0.000054
C14	C	0.973637	-0.163064	0.000052
C15	C	0.534343	0.236914	0.000043
C16	C	0.447471	0.235014	0.000049
C17	C	0.452341	0.046138	0.000051
C18	C	0.539211	0.048040	0.000052
C19	C	0.580209	0.143431	0.000043
C20	C	0.406468	0.139629	0.000048
C21	C	0.312278	0.137568	0.000055
C22	C	0.674405	0.145492	0.000039
C23	C	1.102954	-0.404066	0.000041
C24	C	1.092851	-0.512188	0.000039
C25	C	0.943328	-0.487433	0.000040
C26	C	0.953431	-0.379311	0.000042
C27	C	1.033247	-0.337632	0.000044
C28	C	1.043349	-0.229507	0.000052
C29	C	0.893827	-0.204754	0.000046
C30	C	0.883724	-0.312876	0.000044
C31	C	1.144739	0.133911	0.000056
C32	C	1.237195	0.135924	0.000056
C33	C	1.002284	0.331050	0.000043
C34	C	1.013041	0.446124	0.000040
N35	N	0.993331	0.141526	0.228224
N36	N	0.993352	0.141526	-0.228125
C37	C	1.044289	0.071059	0.453952
C38	C	1.044292	0.071057	0.546142
C39	C	0.942388	0.211996	0.546141
C40	C	0.942382	0.211992	0.453953
C41	C	0.993337	0.141525	0.407861
C42	C	0.993346	0.141526	0.592239
C43	C	0.993348	0.141524	0.692195
C44	C	0.993334	0.141526	0.307898
H45	H	0.410130	0.311138	0.000050
H46	H	0.418949	-0.031526	0.000064
C47	C	1.201057	-0.296816	-0.075236
C48	C	1.190681	-0.358238	0.000048
H49	H	1.255216	-0.268520	-0.075227
H50	H	1.194019	-0.338479	-0.126300
H51	H	1.160980	-0.241781	-0.075229
H52	H	1.230755	-0.413278	0.000038
H53	H	1.197728	-0.316572	0.051126
H54	H	0.900903	0.269370	0.583678
H55	H	0.576557	-0.028091	0.000055
C56	C	1.141448	-0.122262	-0.075235
C57	C	1.131078	-0.183685	0.000051
H58	H	1.195608	-0.093971	-0.075233
H59	H	1.134400	-0.163923	-0.126298
H60	H	1.101374	-0.067223	-0.075221
H61	H	1.171149	-0.238728	0.000033
H62	H	1.138135	-0.142021	0.051128
C63	C	1.241660	-0.525792	0.000045
C64	C	1.169475	-0.585215	0.000041
H65	H	1.288966	-0.570878	0.000051
H66	H	1.242492	-0.483105	-0.051024
H67	H	1.242484	-0.483106	0.051122
H68	H	1.168648	-0.627895	-0.051039
H69	H	1.168643	-0.627920	0.051116
H70	H	0.837067	-0.150651	0.000055
H71	H	0.878346	-0.521388	0.000028
C72	C	0.736943	-0.277546	0.000041
C73	C	0.795994	-0.358695	0.000039
H74	H	0.682782	-0.305834	0.000032
H75	H	0.743992	-0.235900	0.051113
H76	H	0.744001	-0.235880	-0.051033
H77	H	0.788940	-0.400357	0.051116
H78	H	0.788942	-0.400359	-0.051039
H79	H	1.085779	0.013679	0.416427
C80	C	1.145026	-0.068243	0.536878
C81	C	1.100304	-0.006397	0.596806
H82	H	1.179609	-0.116058	0.568157
H83	H	1.107465	-0.105543	0.500928
H84	H	1.178344	-0.025069	0.500915
H85	H	1.066981	-0.049571	0.632765
H86	H	1.137869	0.030905	0.632771
C87	C	0.907775	0.391435	0.425549
C88	C	0.886374	0.289458	0.403281
H89	H	0.873201	0.439253	0.394262
H90	H	0.900483	0.401518	0.487041
H91	H	0.964154	0.402697	0.410431
H92	H	0.829996	0.278194	0.418406
H93	H	0.893659	0.279371	0.341776
C94	C	0.520801	0.423417	0.000052
C95	C	0.579409	0.341766	0.000045
H96	H	0.548623	0.488149	0.000061
H97	H	0.487023	0.418753	-0.051019
H98	H	0.487017	0.418731	0.051127
H99	H	0.613189	0.346447	-0.051034
H100	H	0.613201	0.346432	0.051121
