data_functionalizedCrystal
_audit_creation_method	'MofGen! by Chris Wilmer'
_symmetry_space_group_name_H-M	'P1'
_symmetry_Int_Tables_number	1
_symmetry_cell_setting	triclinic
loop_
_symmetry_equiv_pos_as_xyz
  x,y,z
_cell_length_a	15.995350
_cell_length_b	23.532407
_cell_length_c	14.472310
_cell_angle_alpha	89.994233
_cell_angle_beta	89.990621
_cell_angle_gamma	83.170526
loop_
_atom_site_label
_atom_site_type_symbol
_atom_site_fract_x
_atom_site_fract_y
_atom_site_fract_z
O1	O	1.110386	0.073404	-0.076772
O2	O	1.443719	0.406737	0.256561
O3	O	1.777053	0.740070	0.589894
O4	O	0.866535	0.082469	-0.076793
O5	O	1.199869	0.415802	0.256541
O6	O	1.533202	0.749135	0.589874
O7	O	0.995814	-0.004967	-0.076765
O8	O	1.329147	0.328366	0.256568
O9	O	1.662481	0.661699	0.589902
O10	O	0.981107	0.160840	-0.076800
O11	O	1.314441	0.494173	0.256533
O12	O	1.647774	0.827506	0.589867
O13	O	0.995781	-0.004962	0.076917
O14	O	1.329114	0.328371	0.410250
O15	O	1.662448	0.661705	0.743584
O16	O	0.866502	0.082474	0.076889
O17	O	1.199836	0.415807	0.410223
O18	O	1.533169	0.749140	0.743556
O19	O	1.110353	0.073409	0.076910
O20	O	1.443686	0.406742	0.410243
O21	O	1.777020	0.740075	0.743576
Cu22	Cu	0.988424	0.077942	0.090932
Cu23	Cu	1.321758	0.411275	0.424265
Cu24	Cu	1.655091	0.744608	0.757599
Cu25	Cu	0.988464	0.077936	-0.090815
Cu26	Cu	1.321797	0.411269	0.242518
Cu27	Cu	1.655130	0.744602	0.575852
O28	O	0.981074	0.160845	0.076882
O29	O	1.314408	0.494178	0.410215
O30	O	1.647741	0.827511	0.743549
C31	C	0.835327	0.082096	0.000046
C32	C	1.168660	0.415430	0.333379
C33	C	1.501994	0.748763	0.666713
C34	C	0.742386	0.080973	0.000039
C35	C	1.075719	0.414306	0.333372
C36	C	1.409053	0.747640	0.666706
C37	C	0.404672	0.076938	0.000059
C38	C	0.738005	0.410271	0.333393
C39	C	1.071339	0.743605	0.666726
C40	C	0.452624	0.014668	0.000415
C41	C	0.785957	0.348001	0.333749
C42	C	1.119291	0.681334	0.667082
C43	C	0.549305	0.015792	0.000062
C44	C	0.882638	0.349125	0.333395
C45	C	1.215972	0.682458	0.666729
C46	C	0.572216	0.078939	0.000050
C47	C	0.905549	0.412273	0.333383
C48	C	1.238883	0.745606	0.666716
C49	C	0.530892	0.109650	-0.087713
C50	C	0.864226	0.442984	0.245620
C51	C	1.197559	0.776317	0.578954
C52	C	0.434270	0.108086	-0.087780
C53	C	0.767603	0.441419	0.245554
C54	C	1.100936	0.774753	0.578887
C55	C	0.433882	0.109378	0.086985
C56	C	0.767216	0.442712	0.420319
C57	C	1.100549	0.776045	0.753652
C58	C	0.530828	0.109364	0.088139
C59	C	0.864161	0.442697	0.421472
C60	C	1.197494	0.776030	0.754805
C61	C	0.666904	0.080074	0.000041
C62	C	1.000237	0.413407	0.333375
C63	C	1.333571	0.746740	0.666708
C64	C	0.309984	0.075805	0.000061
C65	C	0.643317	0.409139	0.333395
C66	C	0.976650	0.742472	0.666728
C67	C	0.995423	-0.026182	0.000078
C68	C	1.328756	0.307151	0.333412
C69	C	1.662090	0.640484	0.666745
C70	C	0.994297	-0.089404	0.000085
C71	C	1.327630	0.243930	0.333419
C72	C	1.660964	0.577263	0.666752
C73	C	1.063739	-0.488239	0.000041
C74	C	1.397072	-0.154906	0.333374
C75	C	1.730406	0.178427	0.666707
C76	C	1.062693	-0.547644	0.000033
C77	C	1.396026	-0.214310	0.333367
C78	C	1.729360	0.119023	0.666700
O79	O	1.127067	-0.584141	0.000005
O80	O	1.460400	-0.250807	0.333338
O81	O	1.793733	0.082526	0.666671
N82	N	0.985837	-0.570566	0.000028
N83	N	1.319170	-0.237232	0.333361
N84	N	1.652504	0.096101	0.666694
C85	C	0.910022	-0.534080	0.000020
C86	C	1.243355	-0.200746	0.333353
C87	C	1.576689	0.132587	0.666686
O88	O	0.844554	-0.559031	0.000013
O89	O	1.177887	-0.225698	0.333347
O90	O	1.511220	0.107635	0.666680
C91	C	0.911069	-0.474677	0.000020
C92	C	1.244402	-0.141343	0.333354
C93	C	1.577735	0.191990	0.666687
C94	C	0.987930	-0.451758	0.000035
C95	C	1.321263	-0.118425	0.333369
C96	C	1.654597	0.214908	0.666702
C97	C	1.140594	-0.465320	0.000055
C98	C	1.473927	-0.131987	0.333388
C99	C	1.807261	0.201346	0.666721
C100	C	1.141640	-0.405920	0.000063
C101	C	1.474973	-0.072587	0.333397
C102	C	1.808306	0.260746	0.666730
C103	C	1.065830	-0.369439	0.000058
C104	C	1.399164	-0.036106	0.333392
C105	C	1.732497	0.297228	0.666725
C106	C	0.988975	-0.392358	0.000044
C107	C	1.322309	-0.059025	0.333377
C108	C	1.655642	0.274309	0.666711
C109	C	0.835255	-0.438192	0.000006
C110	C	1.168588	-0.104859	0.333339
C111	C	1.501921	0.228475	0.666672
C112	C	0.836308	-0.378785	0.000005
C113	C	1.169641	-0.045452	0.333339
C114	C	1.502975	0.287881	0.666672
C115	C	0.913169	-0.355867	0.000020
C116	C	1.246502	-0.022534	0.333354
C117	C	1.579836	0.310800	0.666687
C118	C	0.914212	-0.296477	0.000048
C119	C	1.247545	0.036857	0.333381
C120	C	1.580878	0.370190	0.666714
N121	N	0.991068	-0.273555	0.000053
N122	N	1.324401	0.059779	0.333387
N123	N	1.657735	0.393112	0.666720
C124	C	1.066877	-0.310036	0.000059
C125	C	1.400211	0.023297	0.333392
C126	C	1.733544	0.356631	0.666725
C127	C	0.907829	-0.658831	0.000017
C128	C	1.241163	-0.325497	0.333350
C129	C	1.574496	0.007836	0.666684
C130	C	0.906781	-0.718233	0.000023
C131	C	1.240115	-0.384899	0.333357
C132	C	1.573448	-0.051566	0.666690
C133	C	1.059453	-0.731793	0.000035
C134	C	1.392786	-0.398459	0.333369
C135	C	1.726120	-0.065126	0.666702
C136	C	1.060500	-0.672389	0.000036
C137	C	1.393833	-0.339056	0.333369
C138	C	1.727167	-0.005723	0.666702
C139	C	0.984685	-0.635909	0.000023
C140	C	1.318019	-0.302575	0.333356
C141	C	1.651352	0.030758	0.666689
C142	C	1.069067	-0.185291	0.000078
C143	C	1.402401	0.148043	0.333411
C144	C	1.735734	0.481376	0.666745
C145	C	1.070106	-0.125885	0.000091
C146	C	1.403440	0.207449	0.333424
C147	C	1.736773	0.540782	0.666757
C148	C	0.917435	-0.112330	0.000074
C149	C	1.250768	0.221003	0.333407
C150	C	1.584102	0.554337	0.666740
C151	C	0.916396	-0.171731	0.000066
C152	C	1.249729	0.161602	0.333399
C153	C	1.583062	0.494936	0.666733
C154	C	0.992219	-0.208210	0.000065
C155	C	1.325552	0.125123	0.333398
C156	C	1.658885	0.458456	0.666732
O157	O	0.849872	-0.259945	0.000073
O158	O	1.183205	0.073388	0.333406
O159	O	1.516539	0.406722	0.666739
O160	O	1.132335	-0.285076	0.000053
O161	O	1.465668	0.048257	0.333386
O162	O	1.799001	0.381591	0.666720
C163	C	1.141561	0.073781	0.000069
C164	C	1.474894	0.407114	0.333402
C165	C	1.808228	0.740448	0.666736
C166	C	1.234502	0.074905	0.000070
C167	C	1.567835	0.408238	0.333403
C168	C	1.901169	0.741571	0.666737
C169	C	0.981465	0.182060	0.000037
C170	C	1.314799	0.515393	0.333370
C171	C	1.648132	0.848726	0.666703
C172	C	0.982591	0.245281	0.000024
C173	C	1.315925	0.578614	0.333357
C174	C	1.649258	0.911948	0.666690
N175	N	0.988403	0.077946	0.218763
N176	N	1.321736	0.411279	0.552096
N177	N	1.655070	0.744612	0.885429
N178	N	0.988492	0.077927	-0.218646
N179	N	1.321825	0.411261	0.114688
N180	N	1.655158	0.744594	0.448021
C181	C	0.988463	0.077933	0.592854
C182	C	1.321796	0.411267	0.926187
C183	C	1.655129	0.744600	1.259521
C184	C	0.919059	0.124562	0.553673
C185	C	1.252392	0.457895	0.887007
C186	C	1.585725	0.791228	1.220340
C187	C	0.919217	0.124732	0.446585
C188	C	1.252550	0.458065	0.779919
C189	C	1.585883	0.791398	1.113252
C190	C	0.988432	0.077939	0.407263
C191	C	1.321766	0.411273	0.740596
C192	C	1.655099	0.744606	1.073930
C193	C	1.075689	0.090918	0.446104
C194	C	1.409022	0.424251	0.779437
C195	C	1.742356	0.757585	1.112771
C196	C	1.075298	0.091250	0.553226
C197	C	1.408632	0.424583	0.886559
C198	C	1.741965	0.757916	1.219892
C199	C	0.971390	0.018188	0.553394
C200	C	1.304724	0.351522	0.886728
C201	C	1.638057	0.684855	1.220061
C202	C	0.969383	0.018587	0.446267
C203	C	1.302717	0.351920	0.779600
C204	C	1.636050	0.685253	1.112933
C205	C	0.988421	0.077942	0.302375
C206	C	1.321754	0.411275	0.635708
C207	C	1.655087	0.744608	0.969042
C208	C	0.988480	0.077932	0.697742
C209	C	1.321813	0.411266	1.031076
C210	C	1.655147	0.744599	1.364409
H211	H	0.577379	-0.008516	-0.062950
H212	H	0.910712	0.324817	0.270384
H213	H	1.244045	0.658150	0.603717
F214	F	1.223446	-0.381537	0.000060
F215	F	1.556780	-0.048203	0.333393
F216	F	1.890113	0.285130	0.666726
F217	F	0.834408	0.114654	0.412260
F218	F	1.167741	0.447987	0.745593
F219	F	1.501074	0.781320	1.078926
F220	F	0.391620	0.167841	-0.092998
F221	F	0.724953	0.501174	0.240336
F222	F	1.058287	0.834507	0.573669
H223	H	1.121181	-0.761507	0.000036
H224	H	1.454514	-0.428173	0.333369
H225	H	1.787848	-0.094840	0.666703
H226	H	0.930067	0.169068	0.420943
H227	H	1.263401	0.502401	0.754276
H228	H	1.596734	0.835734	1.087610
F229	F	0.410599	0.078807	-0.173517
F230	F	0.743932	0.412141	0.159816
F231	F	1.077265	0.745474	0.493149
H232	H	0.413502	0.089023	0.153507
H233	H	0.746835	0.422356	0.486840
H234	H	1.080169	0.755690	0.820174
H235	H	0.929756	0.168648	0.580575
H236	H	1.263090	0.501981	0.913908
H237	H	1.596423	0.835315	1.247241
F238	F	1.037551	-0.027167	0.586512
F239	F	1.370885	0.306167	0.919845
F240	F	1.704218	0.639500	1.253178
H241	H	1.128548	0.057860	0.420631
H242	H	1.461881	0.391193	0.753965
H243	H	1.795215	0.724527	1.087298
F244	F	0.548870	0.170285	-0.092008
F245	F	0.882203	0.503618	0.241325
F246	F	1.215537	0.836952	0.574659
F247	F	1.031220	-0.028893	0.411296
F248	F	1.364553	0.304440	0.744629
F249	F	1.697887	0.637774	1.077962
F250	F	0.833981	0.114615	0.587357
F251	F	1.167314	0.447948	0.920691
F252	F	1.500647	0.781281	1.254024
F253	F	1.149767	-0.224107	0.000077
F254	F	1.483100	0.109226	0.333410
F255	F	1.816433	0.442560	0.666743
H256	H	0.401739	0.155290	0.087570
H257	H	0.735072	0.488623	0.420903
H258	H	1.068406	0.821956	0.754236
F259	F	1.095060	0.148201	0.585863
F260	F	1.428394	0.481534	0.919196
F261	F	1.761727	0.814868	1.252530
H262	H	1.091183	0.133993	0.419259
H263	H	1.424516	0.467327	0.752592
H264	H	1.757850	0.800660	1.085926
F265	F	1.142305	-0.648004	0.000052
F266	F	1.475638	-0.314670	0.333385
F267	F	1.808972	0.018663	0.666718
F268	F	0.586711	-0.015763	0.082293
F269	F	0.920044	0.317571	0.415626
F270	F	1.253378	0.650904	0.748959
F271	F	0.566675	0.080015	0.173002
F272	F	0.900008	0.413348	0.506335
F273	F	1.233342	0.746681	0.839669
F274	F	0.428663	-0.017864	0.082681
F275	F	0.761997	0.315470	0.416015
F276	F	1.095330	0.648803	0.749348
H277	H	1.132698	-0.107228	0.000105
H278	H	1.466032	0.226105	0.333439
H279	H	1.799365	0.559438	0.666772
H280	H	1.128531	0.058627	0.579142
H281	H	1.461864	0.391960	0.912475
H282	H	1.795197	0.725294	1.245809
H283	H	0.909171	0.005708	0.580460
H284	H	1.242505	0.339042	0.913793
H285	H	1.575838	0.672375	1.247126
H286	H	0.774569	-0.349085	-0.000006
H287	H	1.107902	-0.015752	0.333327
H288	H	1.441236	0.317582	0.666660
H289	H	1.202331	-0.495018	0.000055
H290	H	1.535664	-0.161685	0.333389
H291	H	1.868997	0.171648	0.666722
F292	F	0.824976	-0.742617	0.000024
F293	F	1.158309	-0.409284	0.333357
F294	F	1.491642	-0.075951	0.666690
H295	H	0.905199	0.008737	0.420881
H296	H	1.238532	0.342070	0.754215
H297	H	1.571866	0.675404	1.087548
H298	H	0.559458	0.088316	-0.153019
H299	H	0.892791	0.421649	0.180314
H300	H	1.226125	0.754982	0.513648
F301	F	0.827131	-0.620009	0.000012
F302	F	1.160465	-0.286676	0.333345
F303	F	1.493798	0.046657	0.666679
F304	F	0.427297	-0.017723	-0.081377
F305	F	0.760630	0.315610	0.251956
F306	F	1.093963	0.648944	0.585289
H307	H	0.545809	0.155413	0.093430
H308	H	0.879142	0.488746	0.426764
H309	H	1.212475	0.822080	0.760097
H310	H	0.772666	-0.456841	-0.000012
H311	H	1.106000	-0.123508	0.333321
H312	H	1.439333	0.209826	0.666654
F313	F	0.834592	-0.196123	0.000067
F314	F	1.167926	0.137210	0.333400
F315	F	1.501259	0.470543	0.666733
H316	H	0.855713	-0.082617	0.000073
H317	H	1.189047	0.250717	0.333406
H318	H	1.522380	0.584050	0.666739
