data_functionalizedCrystal
_audit_creation_method	'MofGen! by Chris Wilmer'
_symmetry_space_group_name_H-M	'P1'
_symmetry_Int_Tables_number	1
_symmetry_cell_setting	triclinic
loop_
_symmetry_equiv_pos_as_xyz
  x,y,z
_cell_length_a	23.532407
_cell_length_b	23.532407
_cell_length_c	22.610064
_cell_angle_alpha	89.999397
_cell_angle_beta	89.997161
_cell_angle_gamma	82.848678
loop_
_atom_site_label
_atom_site_type_symbol
_atom_site_fract_x
_atom_site_fract_y
_atom_site_fract_z
O1	O	0.755263	0.069127	-0.049117
O2	O	1.255263	0.569127	0.450883
O3	O	0.589400	0.079130	-0.049135
O4	O	1.089400	0.579130	0.450865
O5	O	0.677333	-0.008803	-0.049114
O6	O	1.177333	0.491197	0.450886
O7	O	0.667330	0.157060	-0.049137
O8	O	1.167330	0.657060	0.450863
O9	O	0.677318	-0.008790	0.049255
O10	O	1.177318	0.491210	0.549255
O11	O	0.589385	0.079143	0.049234
O12	O	1.089385	0.579143	0.549234
O13	O	0.755248	0.069140	0.049252
O14	O	1.255248	0.569140	0.549252
Zn15	Zn	0.672314	0.074144	0.064862
Zn16	Zn	1.172314	0.574144	0.564862
Zn17	Zn	0.672334	0.074127	-0.064744
Zn18	Zn	1.172334	0.574127	0.435256
O19	O	0.667315	0.157073	0.049232
O20	O	1.167315	0.657073	0.549232
C21	C	0.568176	0.078882	0.000048
C22	C	1.068176	0.578882	0.500048
C23	C	0.504959	0.078116	0.000041
C24	C	1.004959	0.578116	0.500041
C25	C	0.105856	0.125350	0.000061
C26	C	0.605856	0.625350	0.500061
C27	C	0.046456	0.124638	0.000065
C28	C	0.546456	0.624638	0.500065
O29	O	0.009711	0.168424	0.000081
O30	O	0.509711	0.668424	0.500081
N31	N	0.023830	0.072362	0.000071
N32	N	0.523830	0.572362	0.500071
C33	C	0.060607	0.020794	0.000080
C34	C	0.560607	0.520794	0.500080
O35	O	0.035908	-0.023737	0.000086
O36	O	0.535908	0.476263	0.500086
C37	C	0.120006	0.021506	0.000080
C38	C	0.620006	0.521506	0.500080
C39	C	0.142629	0.073785	0.000068
C40	C	0.642629	0.573785	0.500068
C41	C	0.128479	0.177625	0.000050
C42	C	0.628479	0.677625	0.500050
C43	C	0.187876	0.178336	0.000045
C44	C	0.687876	0.678336	0.500045
C45	C	0.224649	0.126772	0.000052
C46	C	0.724649	0.626772	0.500052
C47	C	0.202025	0.074497	0.000063
C48	C	0.702025	0.574497	0.500063
C49	C	0.156783	-0.030062	0.000093
C50	C	0.656783	0.469938	0.500093
C51	C	0.216185	-0.029345	0.000094
C52	C	0.716185	0.470655	0.500094
C53	C	0.238808	0.022934	0.000082
C54	C	0.738808	0.522934	0.500082
C55	C	0.298194	0.023643	0.000065
C56	C	0.798194	0.523643	0.500065
N57	N	0.320820	0.075920	0.000059
N58	N	0.820820	0.575920	0.500059
C59	C	0.284048	0.127484	0.000052
C60	C	0.784048	0.627484	0.500052
C61	C	-0.064135	0.019302	0.000080
C62	C	0.435865	0.519302	0.500080
C63	C	-0.123533	0.018589	0.000075
C64	C	0.376467	0.518589	0.500075
C65	C	-0.137680	0.122434	0.000061
C66	C	0.362320	0.622434	0.500061
C67	C	-0.078281	0.123146	0.000062
C68	C	0.421719	0.623146	0.500062
C69	C	-0.041509	0.071578	0.000074
C70	C	0.458491	0.571578	0.500074
C71	C	0.408784	0.128974	0.000042
C72	C	0.908784	0.628974	0.500042
C73	C	0.468186	0.129680	0.000034
C74	C	0.968186	0.629680	0.500034
C75	C	0.482329	0.025836	0.000051
C76	C	0.982329	0.525836	0.500051
C77	C	0.422932	0.025129	0.000055
C78	C	0.922932	0.525129	0.500055
C79	C	0.386160	0.076702	0.000052
C80	C	0.886160	0.576702	0.500052
O81	O	0.334974	-0.020119	0.000052
O82	O	0.834974	0.479881	0.500052
O83	O	0.308755	0.172007	0.000054
O84	O	0.808755	0.672007	0.500054
C85	C	0.677071	-0.030013	0.000072
C86	C	1.177071	0.469987	0.500072
C87	C	0.676305	-0.093230	0.000076
C88	C	1.176305	0.406770	0.500076
C89	C	0.723539	-0.492333	0.000049
C90	C	1.223539	0.007667	0.500049
C91	C	0.722827	-0.551733	0.000044
C92	C	1.222827	-0.051733	0.500044
O93	O	0.766613	-0.588478	0.000027
O94	O	1.266613	-0.088478	0.500027
N95	N	0.670551	-0.574359	0.000039
N96	N	1.170551	-0.074359	0.500039
C97	C	0.618983	-0.537582	0.000032
C98	C	1.118983	-0.037582	0.500032
O99	O	0.574452	-0.562281	0.000027
O100	O	1.074452	-0.062281	0.500027
C101	C	0.619695	-0.478182	0.000033
C102	C	1.119695	0.021818	0.500033
C103	C	0.671974	-0.455560	0.000044
C104	C	1.171974	0.044440	0.500044
C105	C	0.775814	-0.469710	0.000060
C106	C	1.275814	0.030290	0.500060
C107	C	0.776525	-0.410313	0.000065
C108	C	1.276525	0.089687	0.500065
C109	C	0.724961	-0.373540	0.000060
C110	C	1.224961	0.126460	0.500060
C111	C	0.672685	-0.396164	0.000050
C112	C	1.172685	0.103836	0.500050
C113	C	0.568127	-0.441406	0.000022
C114	C	1.068127	0.058594	0.500022
C115	C	0.568844	-0.382004	0.000021
C116	C	1.068844	0.117996	0.500021
C117	C	0.621123	-0.359381	0.000033
C118	C	1.121123	0.140619	0.500033
C119	C	0.621832	-0.299995	0.000050
C120	C	1.121832	0.200005	0.500050
N121	N	0.674109	-0.277368	0.000056
N122	N	1.174109	0.222632	0.500056
C123	C	0.725673	-0.314141	0.000061
C124	C	1.225673	0.185859	0.500061
C125	C	0.617491	-0.662324	0.000031
C126	C	1.117491	-0.162324	0.500031
C127	C	0.616778	-0.721722	0.000034
C128	C	1.116778	-0.221722	0.500034
C129	C	0.720623	-0.735869	0.000045
C130	C	1.220623	-0.235869	0.500045
C131	C	0.721335	-0.676470	0.000046
C132	C	1.221335	-0.176470	0.500046
C133	C	0.669767	-0.639698	0.000036
C134	C	1.169767	-0.139698	0.500036
C135	C	0.727163	-0.189405	0.000073
C136	C	1.227163	0.310595	0.500073
C137	C	0.727869	-0.130003	0.000081
C138	C	1.227869	0.369997	0.500081
C139	C	0.624025	-0.115860	0.000067
C140	C	1.124025	0.384140	0.500067
C141	C	0.623318	-0.175257	0.000062
C142	C	1.123318	0.324743	0.500062
C143	C	0.674891	-0.212029	0.000063
C144	C	1.174891	0.287971	0.500063
O145	O	0.578070	-0.263215	0.000065
O146	O	1.078070	0.236785	0.500065
O147	O	0.770196	-0.289433	0.000058
O148	O	1.270196	0.210567	0.500058
C149	C	0.776472	0.069388	0.000069
C150	C	1.276472	0.569388	0.500069
C151	C	0.839689	0.070154	0.000071
C152	C	1.339689	0.570154	0.500071
C153	C	0.667577	0.178283	0.000045
C154	C	1.167577	0.678283	0.500045
C155	C	0.668343	0.241500	0.000036
C156	C	1.168343	0.741500	0.500036
N157	N	0.672304	0.074155	0.153314
N158	N	1.172304	0.574155	0.653314
N159	N	0.672349	0.074111	-0.153196
N160	N	1.172349	0.574111	0.346804
C161	C	0.711273	0.035196	0.561965
C162	C	1.211273	0.535196	1.061965
C163	C	0.711276	0.035192	0.623884
C164	C	1.211276	0.535192	1.123884
O165	O	0.744384	0.002076	0.655911
O166	O	1.244384	0.502076	1.155911
N167	N	0.672334	0.074115	0.654851
N168	N	1.172334	0.574115	1.154851
C169	C	0.633383	0.113041	0.623895
C170	C	1.133383	0.613041	1.123895
O171	O	0.600259	0.146147	0.655920
O172	O	1.100259	0.646147	1.155920
C173	C	0.633377	0.113042	0.561976
C174	C	1.133377	0.613042	1.061976
C175	C	0.672326	0.074120	0.531013
C176	C	1.172326	0.574120	1.031013
C177	C	0.750218	-0.003724	0.531001
C178	C	1.250218	0.496276	1.031001
C179	C	0.750215	-0.003719	0.469085
C180	C	1.250215	0.496281	0.969085
C181	C	0.711268	0.035206	0.438133
C182	C	1.211268	0.535206	0.938133
C183	C	0.672323	0.074125	0.469097
C184	C	1.172323	0.574125	0.969097
C185	C	0.594424	0.151965	0.531021
C186	C	1.094424	0.651965	1.031021
C187	C	0.594422	0.151962	0.469098
C188	C	1.094422	0.651962	0.969098
C189	C	0.633370	0.113040	0.438134
C190	C	1.133370	0.613040	0.938134
C191	C	0.633374	0.113054	0.376229
C192	C	1.133374	0.613054	0.876229
N193	N	0.672316	0.074131	0.345262
N194	N	1.172316	0.574131	0.845262
C195	C	0.711263	0.035207	0.376214
C196	C	1.211263	0.535207	0.876214
C197	C	0.633396	0.113035	0.753928
C198	C	1.133396	0.613035	1.253928
C199	C	0.633403	0.113037	0.815846
C200	C	1.133403	0.613037	1.315846
C201	C	0.711296	0.035187	0.815831
C202	C	1.211296	0.535187	1.315831
C203	C	0.711291	0.035188	0.753913
C204	C	1.211291	0.535188	1.253913
C205	C	0.672338	0.074112	0.722962
C206	C	1.172338	0.574112	1.222962
C207	C	0.711255	0.035220	0.246187
C208	C	1.211255	0.535220	0.746187
C209	C	0.711251	0.035230	0.184266
C210	C	1.211251	0.535230	0.684266
C211	C	0.633357	0.113078	0.184286
C212	C	1.133357	0.613078	0.684286
C213	C	0.633363	0.113071	0.246202
C214	C	1.133363	0.613071	0.746202
C215	C	0.672314	0.074137	0.277151
C216	C	1.172314	0.574137	0.777151
O217	O	0.600281	0.146152	0.344163
O218	O	1.100281	0.646152	0.844163
O219	O	0.744376	0.002101	0.344182
O220	O	1.244376	0.502101	0.844182
H221	H	0.206289	0.220908	0.000035
H222	H	0.706289	0.720908	0.500035
C223	C	0.788251	-0.041729	0.239936
C224	C	1.288251	0.458271	0.739936
C225	C	0.754072	-0.007575	0.280200
C226	C	1.254072	0.492425	0.780200
H227	H	0.814686	-0.068145	0.260935
H228	H	1.314686	0.431855	0.760935
H229	H	0.764659	-0.062090	0.215788
H230	H	1.264659	0.437910	0.715788
H231	H	0.808594	-0.018114	0.215785
H232	H	1.308594	0.481886	0.715785
H233	H	0.733725	-0.031190	0.304349
H234	H	1.233725	0.468810	0.804349
H235	H	0.777667	0.012787	0.304358
H236	H	1.277667	0.512787	0.804358
H237	H	0.525555	-0.459814	0.000009
H238	H	1.025555	0.040186	0.500009
C239	C	0.558032	-0.587318	0.050596
C240	C	1.058032	-0.087318	0.550596
C241	C	0.560803	-0.621904	0.000029
C242	C	1.060803	-0.121904	0.500029
H243	H	0.523037	-0.562365	0.050591
H244	H	1.023037	-0.062365	0.550591
H245	H	0.559909	-0.610785	0.084892
H246	H	1.059909	-0.110785	0.584892
H247	H	0.589267	-0.565341	0.050592
H248	H	1.089267	-0.065341	0.550592
H249	H	0.529570	-0.643884	0.000034
H250	H	1.029570	-0.143884	0.500034
H251	H	0.558921	-0.598434	-0.034277
H252	H	1.058921	-0.098434	0.465723
C253	C	0.509383	-0.306999	0.050581
C254	C	1.009383	0.193001	0.550581
C255	C	0.512158	-0.341583	0.000012
C256	C	1.012158	0.158417	0.500012
H257	H	0.474389	-0.282044	0.050572
H258	H	0.974389	0.217956	0.550572
H259	H	0.511255	-0.330467	0.084876
H260	H	1.011255	0.169533	0.584876
H261	H	0.540619	-0.285023	0.050582
H262	H	1.040619	0.214977	0.550582
H263	H	0.480923	-0.363561	0.000013
H264	H	0.980923	0.136439	0.500013
H265	H	0.510280	-0.318112	-0.034292
H266	H	1.010280	0.181888	0.465708
C267	C	0.837582	-0.351731	-0.050499
C268	C	1.337582	0.148269	0.449501
C269	C	0.833993	-0.385452	0.000068
C270	C	1.333993	0.114548	0.500068
H271	H	0.873062	-0.336384	-0.050496
H272	H	1.373062	0.163616	0.449504
H273	H	0.835146	-0.374610	-0.084795
H274	H	1.335146	0.125390	0.415205
H275	H	0.806977	-0.321325	-0.050493
H276	H	1.306977	0.178675	0.449507
H277	H	0.864596	-0.415861	0.000060
H278	H	1.364596	0.084139	0.500060
H279	H	0.836435	-0.362572	0.034374
H280	H	1.336435	0.137428	0.534374
H281	H	0.138375	-0.072634	0.000103
H282	H	0.638375	0.427366	0.500103
C283	C	0.490361	-0.076883	0.000065
C284	C	0.990361	0.423117	0.500065
C285	C	0.522756	-0.030842	0.000056
C286	C	1.022756	0.469158	0.500056
H287	H	0.515322	-0.111873	0.000066
H288	H	1.015322	0.388127	0.500066
H289	H	0.466900	-0.074998	0.034367
H290	H	0.966900	0.425002	0.534367
H291	H	0.466898	-0.075005	-0.034241
H292	H	0.966898	0.424995	0.465759
H293	H	0.546216	-0.032717	0.034363
H294	H	1.046216	0.467283	0.534363
H295	H	0.546227	-0.032728	-0.034250
H296	H	1.046227	0.467272	0.465750
C297	C	0.364336	-0.035925	-0.050499
C298	C	0.864336	0.464075	0.449501
C299	C	0.398060	-0.032336	0.000063
C300	C	0.898060	0.467664	0.500063
H301	H	0.348987	-0.071404	-0.050490
H302	H	0.848987	0.428596	0.449510
H303	H	0.333936	-0.005321	-0.050495
H304	H	0.833936	0.494679	0.449505
H305	H	0.387217	-0.033494	-0.084803
H306	H	0.887217	0.466506	0.415197
H307	H	0.375178	-0.034763	0.034367
H308	H	0.875178	0.465237	0.534367
H309	H	0.428464	-0.062949	0.000065
H310	H	0.928464	0.437051	0.500065
H311	H	0.582043	-0.085909	0.000065
H312	H	1.082043	0.414091	0.500065
C313	C	0.788833	0.022384	0.684228
C314	C	1.288833	0.522384	1.184228
C315	C	0.754065	-0.007617	0.719860
C316	C	1.254065	0.492383	1.219860
H317	H	0.815232	-0.004050	0.663205
H318	H	1.315232	0.495950	1.163205
H319	H	0.765636	0.045576	0.656947
H320	H	1.265636	0.545576	1.156947
H321	H	0.809219	0.045968	0.708371
H322	H	1.309219	0.545968	1.208371
H323	H	0.733677	-0.031197	0.695717
H324	H	1.233677	0.468803	1.195717
H325	H	0.777265	-0.030818	0.747145
H326	H	1.277265	0.469182	1.247145
C327	C	0.556410	0.189987	0.809626
C328	C	1.056410	0.689987	1.309626
C329	C	0.590593	0.155825	0.849877
C330	C	1.090593	0.655825	1.349877
H331	H	0.529976	0.216398	0.830635
H332	H	1.029976	0.716398	1.330635
H333	H	0.579999	0.210353	0.785477
H334	H	1.079999	0.710353	1.285477
H335	H	0.536064	0.166376	0.785474
H336	H	1.036064	0.666376	1.285474
H337	H	0.610942	0.179435	0.874026
H338	H	1.110942	0.679435	1.374026
H339	H	0.567001	0.135457	0.874036
H340	H	1.067001	0.635457	1.374036
C341	C	0.788763	0.022378	0.114533
C342	C	1.288763	0.522378	0.614533
C343	C	0.753989	-0.007595	0.150187
C344	C	1.253989	0.492405	0.650187
H345	H	0.815125	-0.004073	0.093487
H346	H	1.315125	0.495927	0.593487
H347	H	0.765565	0.045594	0.087273
H348	H	1.265565	0.545594	0.587273
H349	H	0.809190	0.045934	0.138664
H350	H	1.309190	0.545934	0.638664
H351	H	0.733559	-0.031149	0.126056
H352	H	1.233559	0.468851	0.626056
H353	H	0.777190	-0.030821	0.177451
H354	H	1.277190	0.469179	0.677451
H355	H	0.580748	-0.193677	0.000069
H356	H	1.080748	0.306323	0.500069
C357	C	0.786607	-0.264408	0.050643
C358	C	1.286607	0.235592	0.550643
C359	C	0.783852	-0.229819	0.000077
C360	C	1.283852	0.270181	0.500077
H361	H	0.821603	-0.289360	0.050645
H362	H	1.321603	0.210640	0.550645
H363	H	0.784717	-0.240943	0.084941
H364	H	1.284717	0.259057	0.584941
H365	H	0.755373	-0.286386	0.050628
H366	H	1.255373	0.213614	0.550628
H367	H	0.815084	-0.207837	0.000094
H368	H	1.315084	0.292163	0.500094
H369	H	0.785747	-0.253287	-0.034229
H370	H	1.285747	0.246713	0.465771
C371	C	0.830446	-0.149963	0.000087
C372	C	1.330446	0.350037	0.500087
C373	C	0.785339	-0.105137	0.000089
C374	C	1.285339	0.394863	0.500089
H375	H	0.865924	-0.134612	0.000087
H376	H	1.365924	0.365388	0.500087
H377	H	0.828004	-0.172836	0.034386
H378	H	1.328004	0.327164	0.534386
H379	H	0.828007	-0.172834	-0.034221
H380	H	1.328007	0.327166	0.465779
H381	H	0.787776	-0.082268	0.034399
H382	H	1.287776	0.417732	0.534399
H383	H	0.787783	-0.082254	-0.034215
H384	H	1.287783	0.417746	0.465785
H385	H	0.817806	-0.499645	0.000061
H386	H	1.317806	0.000355	0.500061
C387	C	0.053485	0.237066	-0.050533
C388	C	0.553485	0.737066	0.449467
C389	C	0.088064	0.234311	0.000038
C390	C	0.588064	0.734311	0.500038
H391	H	0.028535	0.272063	-0.050541
H392	H	0.528535	0.772063	0.449459
H393	H	0.076957	0.235174	-0.084827
H394	H	0.576957	0.735174	0.415173
H395	H	0.031504	0.205834	-0.050520
H396	H	0.531504	0.705834	0.449480
H397	H	0.110047	0.265541	0.000022
H398	H	0.610047	0.765541	0.500022
H399	H	0.064589	0.236209	0.034341
H400	H	0.564589	0.736209	0.534341
C401	C	0.823907	-0.696434	0.000052
C402	C	1.323907	-0.196434	0.500052
C403	C	0.778802	-0.651607	0.000049
C404	C	1.278802	-0.151607	0.500049
H405	H	0.859386	-0.681085	0.000049
H406	H	1.359386	-0.181085	0.500049
H407	H	0.821464	-0.719303	0.034356
H408	H	1.321464	-0.219303	0.534356
H409	H	0.821466	-0.719310	-0.034252
H410	H	1.321466	-0.219310	0.465748
H411	H	0.781241	-0.628733	0.034356
H412	H	1.281241	-0.128733	0.534356
H413	H	0.781247	-0.628728	-0.034258
H414	H	1.281247	-0.128728	0.465742
C415	C	0.528057	-0.727938	-0.050545
C416	C	1.028057	-0.227938	0.449455
C417	C	0.559312	-0.746586	0.000027
C418	C	1.059312	-0.246586	0.500027
H419	H	0.492579	-0.743290	-0.050552
H420	H	0.992579	-0.243290	0.449448
H421	H	0.521107	-0.687304	-0.050537
H422	H	1.021107	-0.187304	0.449463
H423	H	0.549284	-0.740584	-0.084842
H424	H	1.049284	-0.240584	0.415158
H425	H	0.538085	-0.733936	0.034324
H426	H	1.038085	-0.233936	0.534324
H427	H	0.566260	-0.787228	0.000025
H428	H	1.066260	-0.287228	0.500025
H429	H	0.781933	-0.035423	0.556197
H430	H	1.281933	0.464577	1.056197
H431	H	0.743008	0.003492	0.841044
H432	H	1.243008	0.503492	1.341044
C433	C	0.827200	-0.080674	0.475310
C434	C	1.327200	0.419326	0.975310
C435	C	0.793022	-0.046510	0.435055
C436	C	1.293022	0.453490	0.935055
H437	H	0.853625	-0.107096	0.454303
H438	H	1.353625	0.392904	0.954303
H439	H	0.847551	-0.057070	0.499454
H440	H	1.347551	0.442930	0.999454
H441	H	0.803602	-0.101033	0.499465
H442	H	1.303602	0.398967	0.999465
H443	H	0.816620	-0.026148	0.410902
H444	H	1.316620	0.473852	0.910902
H445	H	0.772670	-0.070117	0.410901
H446	H	1.272670	0.429883	0.910901
H447	H	0.601677	0.144736	0.728731
H448	H	1.101677	0.644736	1.228731
H449	H	0.762610	-0.765821	0.000047
H450	H	1.262610	-0.265821	0.500047
H451	H	0.562709	0.183658	0.556223
H452	H	1.062709	0.683658	1.056223
H453	H	-0.141947	-0.023982	0.000076
H454	H	0.358053	0.476018	0.500076
H455	H	0.562700	0.183658	0.443901
H456	H	1.062700	0.683658	0.943901
H457	H	-0.034198	-0.022693	0.000084
H458	H	0.465802	0.477307	0.500084
H459	H	0.486602	0.172255	0.000024
H460	H	0.986602	0.672255	0.500024
H461	H	0.601653	0.144770	0.271413
H462	H	1.101653	0.644770	0.771413
C463	C	0.599346	0.211843	0.165212
C464	C	1.099346	0.711843	0.665212
C465	C	0.590548	0.155861	0.150254
C466	C	1.090548	0.655861	0.650254
H467	H	0.572917	0.238252	0.144197
H468	H	1.072917	0.738252	0.644197
H469	H	0.593767	0.217413	0.206514
H470	H	1.093767	0.717413	0.706514
H471	H	0.637319	0.217831	0.155061
H472	H	1.137319	0.717831	0.655061
H473	H	0.552575	0.149872	0.160410
H474	H	1.052575	0.649872	0.660410
H475	H	0.596121	0.150289	0.108943
H476	H	1.096121	0.650289	0.608943
C477	C	0.400783	0.231692	0.000016
C478	C	0.900783	0.731692	0.500016
C479	C	0.368371	0.185664	0.000031
C480	C	0.868371	0.685664	0.500031
H481	H	0.375833	0.266689	0.000003
H482	H	0.875833	0.766689	0.500003
H483	H	0.424241	0.229815	0.034318
H484	H	0.924241	0.729815	0.534318
H485	H	0.424250	0.229792	-0.034289
H486	H	0.924250	0.729792	0.465711
H487	H	0.344908	0.187561	0.034339
H488	H	0.844908	0.687561	0.534339
H489	H	0.344903	0.187542	-0.034274
H490	H	0.844903	0.687542	0.465726
H491	H	-0.059867	0.165717	0.000055
H492	H	0.440133	0.665717	0.500055
C493	C	0.224199	-0.132064	0.000109
C494	C	0.724199	0.367936	0.500109
C495	C	0.256605	-0.086032	0.000100
C496	C	0.756605	0.413968	0.500100
H497	H	0.249152	-0.167059	0.000107
H498	H	0.749152	0.332941	0.500107
H499	H	0.200739	-0.130177	0.034412
H500	H	0.700739	0.369823	0.534412
H501	H	0.200733	-0.130180	-0.034195
H502	H	0.700733	0.369820	0.465805
H503	H	0.280067	-0.087914	0.034407
H504	H	0.780067	0.412086	0.534407
H505	H	0.280074	-0.087921	-0.034207
H506	H	0.780074	0.412079	0.465793
C507	C	-0.212695	0.181868	-0.050507
C508	C	0.287305	0.681868	0.449493
C509	C	-0.178110	0.179116	0.000058
C510	C	0.321890	0.679116	0.500058
H511	H	-0.237657	0.216858	-0.050506
H512	H	0.262343	0.716858	0.449494
H513	H	-0.189229	0.179990	-0.084805
H514	H	0.310771	0.679990	0.415195
H515	H	-0.234664	0.150626	-0.050496
H516	H	0.265336	0.650626	0.449504
H517	H	-0.156138	0.210356	0.000045
H518	H	0.343862	0.710356	0.500045
H519	H	-0.201579	0.181000	0.034365
H520	H	0.298421	0.681000	0.534365
