data_functionalizedCrystal
_audit_creation_method	'MofGen! by Chris Wilmer'
_symmetry_space_group_name_H-M	'P1'
_symmetry_Int_Tables_number	1
_symmetry_cell_setting	triclinic
loop_
_symmetry_equiv_pos_as_xyz
  x,y,z
_cell_length_a	19.805407
_cell_length_b	15.297327
_cell_length_c	19.805383
_cell_angle_alpha	99.584692
_cell_angle_beta	89.935707
_cell_angle_gamma	99.704146
loop_
_atom_site_label
_atom_site_type_symbol
_atom_site_fract_x
_atom_site_fract_y
_atom_site_fract_z
Zn1	Zn	0.988534	-0.358515	-0.429219
Zn2	Zn	0.968763	-0.509543	-0.335632
Zn3	Zn	0.875229	-0.358726	-0.316075
Zn4	Zn	0.855750	-0.509294	-0.448751
O5	O	0.922069	-0.434020	-0.382419
O6	O	1.080626	-0.378564	-0.416816
O7	O	0.956233	-0.489730	-0.238346
O8	O	0.906685	-0.232479	-0.314725
O9	O	1.066100	-0.489524	-0.348058
O10	O	0.989930	-0.232324	-0.397852
O11	O	0.887514	-0.378926	-0.223977
O12	O	0.777931	-0.378684	-0.333663
O13	O	0.873487	-0.489100	-0.540851
O14	O	0.763620	-0.489305	-0.431140
O15	O	0.971042	-0.378323	-0.526502
O16	O	0.937345	-0.635729	-0.366996
O17	O	0.854316	-0.635546	-0.450104
C18	C	0.746217	-0.433991	-0.382399
C19	C	0.670983	-0.434001	-0.382409
C20	C	0.643190	-0.376326	-0.418291
C21	C	0.572501	-0.376331	-0.418294
C22	C	0.529606	-0.434016	-0.382419
C23	C	0.557404	-0.491693	-0.346534
C24	C	0.628092	-0.491683	-0.346527
C25	C	0.272325	-0.491734	-0.346560
C26	C	0.201632	-0.491741	-0.346571
C27	C	0.216734	-0.376381	-0.418327
C28	C	0.287423	-0.376371	-0.418320
C29	C	0.315215	-0.434045	-0.382431
C30	C	0.391864	-0.434038	-0.382427
C31	C	0.452957	-0.434028	-0.382427
C32	C	0.891590	-0.668365	-0.412807
C33	C	0.878612	-0.768618	-0.425829
C34	C	1.015099	-1.051473	-0.289576
C35	C	1.027291	-0.957279	-0.277337
C36	C	0.990123	-0.910109	-0.314459
C37	C	0.940759	-0.957142	-0.363822
C38	C	0.928562	-1.051345	-0.376058
C39	C	0.903586	-0.909982	-0.400941
C40	C	0.854223	-0.957014	-0.450304
C41	C	0.842028	-1.051208	-0.462538
C42	C	0.879196	-1.098378	-0.425416
C43	C	0.915783	-0.815779	-0.388705
C44	C	0.829247	-0.815651	-0.475187
C45	C	0.817054	-0.909845	-0.487426
C46	C	1.098608	-0.434048	-0.382440
C47	C	1.173838	-0.434061	-0.382449
C48	C	0.922297	-0.433660	-0.558916
C49	C	0.922394	-0.433507	-0.634128
C50	C	0.952686	-0.198759	-0.351928
C51	C	0.965733	-0.098505	-0.338934
C52	C	0.921889	-0.434313	-0.206601
C53	C	0.921956	-0.434212	-0.131356
C54	C	0.871458	-0.492256	-0.103346
C55	C	0.871518	-0.492153	-0.032645
C56	C	0.922079	-0.434010	0.010046
C57	C	0.972580	-0.375960	-0.017968
C58	C	0.972517	-0.376058	-0.088668
C59	C	0.972835	-0.375559	0.267157
C60	C	0.972896	-0.375466	0.337861
C61	C	0.871836	-0.491654	0.323180
C62	C	0.871773	-0.491752	0.252480
C63	C	0.922272	-0.433699	0.224473
C64	C	0.922205	-0.433810	0.147810
C65	C	0.922149	-0.433903	0.086706
H66	H	0.650720	-0.538647	-0.317308
H67	H	0.322345	-0.329401	-0.447535
H68	H	0.798980	-0.777246	-0.505414
H69	H	1.067482	-0.918989	-0.237146
H70	H	0.830404	-0.539429	-0.009845
H71	H	0.776862	-0.948152	-0.527618
H72	H	1.045352	-1.089887	-0.259352
H73	H	0.194098	-0.329417	-0.447546
H74	H	0.830288	-0.539607	-0.138101
H75	H	0.869273	-1.175078	-0.435380
H76	H	0.549876	-0.329368	-0.447514
H77	H	0.830603	-0.539102	0.217724
H78	H	1.013957	-0.328293	0.244362
H79	H	0.294944	-0.538696	-0.317338
H80	H	0.801825	-1.089499	-0.502725
H81	H	0.830716	-0.538921	0.345991
H82	H	1.014070	-0.328115	0.372619
H83	H	0.166708	-0.538717	-0.317355
H84	H	1.013745	-0.328615	0.016797
H85	H	1.013636	-0.328790	-0.111471
H86	H	0.522473	-0.538657	-0.317320
H87	H	0.678111	-0.329355	-0.447506
H88	H	0.955975	-0.777493	-0.348514
H89	H	1.000052	-0.833413	-0.304491
