data_functionalizedCrystal
_audit_creation_method	'MofGen! by Chris Wilmer'
_symmetry_space_group_name_H-M	'P1'
_symmetry_Int_Tables_number	1
_symmetry_cell_setting	triclinic
loop_
_symmetry_equiv_pos_as_xyz
  x,y,z
_cell_length_a	8.634740
_cell_length_b	10.723023
_cell_length_c	7.681481
_cell_angle_alpha	95.790803
_cell_angle_beta	83.377001
_cell_angle_gamma	92.518927
loop_
_atom_site_label
_atom_site_type_symbol
_atom_site_fract_x
_atom_site_fract_y
_atom_site_fract_z
O1	O	2.035885	0.417419	0.146429
O2	O	1.586571	0.383261	0.146432
O3	O	1.821593	0.219937	0.146423
O4	O	1.800863	0.580742	0.146438
O5	O	1.850541	0.199801	-0.146436
O6	O	1.615519	0.363124	-0.146427
O7	O	2.064832	0.397282	-0.146429
Zn8	Zn	1.844771	0.377006	-0.192926
Zn9	Zn	1.806632	0.403537	0.192928
O10	O	1.829810	0.560605	-0.146421
C11	C	1.543513	0.365454	0.000002
C12	C	1.372086	0.342382	0.000003
C13	C	1.834559	0.163199	-0.000004
C14	C	1.830045	0.024133	0.000001
C15	C	1.813038	-0.027429	0.151713
C16	C	1.808373	-0.171160	0.151723
C17	C	2.107890	0.415089	0.000004
C18	C	2.279316	0.438162	0.000014
C19	C	1.816844	0.617344	0.000010
C20	C	1.821356	0.756410	0.000016
N21	N	1.870812	0.358900	-0.456261
N22	N	1.780604	0.421635	0.456263
H23	H	1.331042	0.537812	0.000002
O24	O	1.310490	0.223444	-0.000303
C25	C	1.375226	0.150349	-0.151958
H26	H	1.420022	0.214288	-0.257974
H27	H	1.475966	0.095593	-0.117673
C28	C	1.194329	-0.020432	-0.090509
C29	C	1.249336	0.058099	-0.220725
H30	H	1.116677	-0.077340	-0.132925
H31	H	1.150717	0.028811	0.011667
H32	H	1.278291	-0.066049	-0.061950
H33	H	1.165378	0.103726	-0.249266
H34	H	1.292930	0.008861	-0.322909
H35	H	1.801924	0.034835	0.281592
H36	H	1.793812	-0.215542	0.281609
H37	H	1.835933	-0.199216	-0.129877
H38	H	1.962907	0.294877	-0.531461
H39	H	1.841143	-0.038131	-0.129878
O40	O	1.670926	0.498119	-0.453834
C41	C	1.744017	0.592433	-0.347209
H42	H	1.861579	0.559065	-0.319745
H43	H	1.762513	0.681199	-0.418151
C44	C	1.495671	0.661605	-0.205738
C45	C	1.640058	0.620618	-0.171993
H46	H	1.431543	0.678997	-0.097659
H47	H	1.446427	0.598067	-0.277577
H48	H	1.511106	0.735572	-0.264860
H49	H	1.624624	0.546645	-0.112892
H50	H	1.689297	0.684145	-0.100139
