data_functionalizedCrystal
_audit_creation_method	'MofGen! by Chris Wilmer'
_symmetry_space_group_name_H-M	'P1'
_symmetry_Int_Tables_number	1
_symmetry_cell_setting	triclinic
loop_
_symmetry_equiv_pos_as_xyz
  x,y,z
_cell_length_a	12.784905
_cell_length_b	12.837942
_cell_length_c	16.176319
_cell_angle_alpha	89.994101
_cell_angle_beta	89.991820
_cell_angle_gamma	83.968130
loop_
_atom_site_label
_atom_site_type_symbol
_atom_site_fract_x
_atom_site_fract_y
_atom_site_fract_z
O1	O	1.410971	0.006438	-0.068751
O2	O	1.910971	0.506438	0.431249
O3	O	1.105972	0.050430	-0.068752
O4	O	1.605972	0.550430	0.431248
O5	O	1.251709	-0.121859	-0.068747
O6	O	1.751709	0.378141	0.431253
O7	O	1.265235	0.178727	-0.068757
O8	O	1.765235	0.678727	0.431243
O9	O	1.251685	-0.121867	0.068747
O10	O	1.751685	0.378133	0.568747
O11	O	1.105949	0.050422	0.068741
O12	O	1.605949	0.550422	0.568741
O13	O	1.410948	0.006430	0.068742
O14	O	1.910948	0.506430	0.568742
Cu15	Cu	1.258446	0.028426	0.081296
Cu16	Cu	1.758446	0.528426	0.581296
Cu17	Cu	1.258474	0.028435	-0.081306
Cu18	Cu	1.758474	0.528435	0.418694
O19	O	1.265211	0.178719	0.068737
O20	O	1.765211	0.678719	0.568737
C21	C	1.066651	0.053288	-0.000005
C22	C	1.566651	0.553288	0.499995
C23	C	0.949519	0.061801	-0.000005
C24	C	1.449519	0.561801	0.499995
C25	C	0.735568	-0.111642	-0.000014
C26	C	1.235568	0.388358	0.499986
C27	C	0.625513	-0.103648	-0.000014
C28	C	1.125513	0.396352	0.499986
C29	C	0.619351	0.085781	-0.000012
C30	C	1.119351	0.585781	0.499988
C31	C	0.729407	0.077787	-0.000012
C32	C	1.229407	0.577787	0.499988
C33	C	0.787511	-0.020928	-0.000012
C34	C	1.287511	0.479072	0.499988
C35	C	0.897569	-0.028921	-0.000006
C36	C	1.397569	0.471079	0.499994
C37	C	0.891405	0.160508	-0.000009
C38	C	1.391405	0.660508	0.499991
C39	C	0.781350	0.168502	-0.000009
C40	C	1.281350	0.668502	0.499991
C41	C	1.247128	-0.160072	-0.000000
C42	C	1.747128	0.339928	0.500000
C43	C	1.233500	-0.273920	-0.000002
C44	C	1.733500	0.226080	0.499998
C45	C	1.397331	-0.529646	-0.000019
C46	C	1.897331	-0.029646	0.499981
C47	C	1.384532	-0.636618	-0.000020
C48	C	1.884532	-0.136618	0.499980
C49	C	1.195102	-0.594839	-0.000012
C50	C	1.695102	-0.094839	0.499988
C51	C	1.207901	-0.487867	-0.000010
C52	C	1.707901	0.012133	0.499990
C53	C	1.309019	-0.455275	-0.000013
C54	C	1.809019	0.044725	0.499987
C55	C	1.321818	-0.348301	-0.000005
C56	C	1.821818	0.151699	0.499995
C57	C	1.132389	-0.306523	-0.000003
C58	C	1.632389	0.193477	0.499997
C59	C	1.119589	-0.413495	-0.000004
C60	C	1.619589	0.086505	0.499996
C61	C	1.450269	0.003573	-0.000007
C62	C	1.950269	0.503573	0.499993
C63	C	1.567401	-0.004940	-0.000012
C64	C	2.067401	0.495060	0.499988
C65	C	1.269792	0.216932	-0.000011
C66	C	1.769792	0.716932	0.499989
C67	C	1.283420	0.330781	-0.000015
C68	C	1.783420	0.830781	0.499985
N69	N	1.258434	0.028417	0.195661
N70	N	1.758434	0.528417	0.695661
N71	N	1.258493	0.028434	-0.195671
N72	N	1.758493	0.528434	0.304329
C73	C	1.322991	-0.047846	0.238928
C74	C	1.822991	0.452154	0.738928
C75	C	1.322996	-0.047847	0.325475
C76	C	1.822996	0.452153	0.825475
C77	C	1.258450	0.028420	0.368754
C78	C	1.758450	0.528420	0.868754
C79	C	1.193886	0.104687	0.325481
C80	C	1.693886	0.604687	0.825481
C81	C	1.193876	0.104683	0.238936
C82	C	1.693876	0.604683	0.738936
C83	C	1.193924	0.104703	0.674509
C84	C	1.693924	0.604703	1.174509
C85	C	1.193941	0.104703	0.761061
C86	C	1.693941	0.604703	1.261061
C87	C	1.323044	-0.047827	0.761048
C88	C	1.823044	0.452173	1.261048
C89	C	1.323034	-0.047831	0.674503
C90	C	1.823034	0.452169	1.174503
C91	C	1.258467	0.028432	0.631238
C92	C	1.758467	0.528432	1.131238
C93	C	1.258460	0.028432	0.537394
C94	C	1.758460	0.528432	1.037394
C95	C	1.258461	0.028425	0.462596
C96	C	1.758461	0.528425	0.962596
H97	H	0.944876	-0.109300	-0.000004
H98	H	1.444876	0.390700	0.499996
H99	H	0.583225	-0.177517	-0.000018
H100	H	1.083225	0.322483	0.499982
H101	H	0.782878	-0.192020	-0.000009
H102	H	1.282878	0.307980	0.499991
Br103	Br	0.982365	-0.457738	-0.000012
Br104	Br	1.482365	0.042262	0.499988
H105	H	1.375598	-0.109931	0.639268
H106	H	1.875598	0.390069	1.139268
H107	H	1.112776	-0.621395	-0.000019
H108	H	1.612776	-0.121395	0.499981
Br109	Br	1.410673	-0.151332	0.819769
Br110	Br	1.910673	0.348668	1.319769
Br111	Br	1.534558	-0.485408	0.000004
Br112	Br	2.034558	0.014592	0.500004
Br113	Br	1.012529	-0.205584	0.000020
Br114	Br	1.512529	0.294416	0.500020
Br115	Br	1.106337	0.208216	0.819797
Br116	Br	1.606337	0.708216	1.319797
Br117	Br	1.106276	0.208188	0.384213
Br118	Br	1.606276	0.708188	0.884213
Br119	Br	0.540477	0.219740	-0.000035
Br120	Br	1.040477	0.719740	0.499965
H121	H	1.141353	0.166801	0.639290
H122	H	1.641353	0.666801	1.139290
Br123	Br	0.961904	0.283628	0.000013
Br124	Br	1.461904	0.783628	0.500013
Br125	Br	0.702484	0.302465	-0.000017
Br126	Br	1.202484	0.802465	0.499983
Br127	Br	1.459047	-0.304069	0.000000
Br128	Br	1.959047	0.195931	0.500000
Br129	Br	1.410604	-0.151350	0.180201
Br130	Br	1.910604	0.348650	0.680201
H131	H	1.141306	0.166783	0.203709
H132	H	1.641306	0.666783	0.703709
H133	H	1.456445	-0.697169	-0.000028
H134	H	1.956445	-0.197169	0.499972
Br135	Br	1.410606	-0.151352	0.384196
Br136	Br	1.910606	0.348648	0.884196
