data_functionalizedCrystal
_audit_creation_method	'MofGen! by Chris Wilmer'
_symmetry_space_group_name_H-M	'P1'
_symmetry_Int_Tables_number	1
_symmetry_cell_setting	triclinic
loop_
_symmetry_equiv_pos_as_xyz
  x,y,z
_cell_length_a	18.050589
_cell_length_b	12.759395
_cell_length_c	12.759387
_cell_angle_alpha	89.979491
_cell_angle_beta	90.029987
_cell_angle_gamma	89.970242
loop_
_atom_site_label
_atom_site_type_symbol
_atom_site_fract_x
_atom_site_fract_y
_atom_site_fract_z
Zn1	Zn	-0.295590	-1.606170	0.594011
Zn2	Zn	0.204410	-1.106170	1.094011
Zn3	Zn	-0.419799	-1.606019	0.418334
Zn4	Zn	0.080201	-1.106019	0.918334
Zn5	Zn	-0.295630	-1.430468	0.418348
Zn6	Zn	0.204370	-0.930468	0.918348
Zn7	Zn	-0.419746	-1.430419	0.593973
Zn8	Zn	0.080254	-0.930419	1.093973
O9	O	-0.357691	-1.518269	0.506166
O10	O	0.142309	-1.018269	1.006166
O11	O	-0.312072	-1.753171	0.570717
O12	O	0.187928	-1.253171	1.070717
O13	O	-0.403367	-1.582689	0.271315
O14	O	0.096633	-1.082689	0.771315
O15	O	-0.191700	-1.453859	0.441672
O16	O	0.308300	-0.953859	0.941672
O17	O	-0.403327	-1.753060	0.441648
O18	O	0.096673	-1.253060	0.941648
O19	O	-0.191671	-1.582946	0.570731
O20	O	0.308329	-1.082946	1.070731
O21	O	-0.312141	-1.453713	0.271325
O22	O	0.187859	-0.953713	0.771325
O23	O	-0.312089	-1.283441	0.441635
O24	O	0.187911	-0.783441	0.941635
O25	O	-0.403237	-1.453775	0.740999
O26	O	0.096763	-0.953775	1.240999
O27	O	-0.403277	-1.283405	0.570666
O28	O	0.096723	-0.783405	1.070666
O29	O	-0.312020	-1.582899	0.741027
O30	O	0.187980	-1.082899	1.241027
O31	O	-0.523716	-1.582642	0.441611
O32	O	-0.023716	-1.082642	0.941611
O33	O	-0.523677	-1.453629	0.570652
O34	O	-0.023677	-0.953629	1.070652
C35	C	-0.357682	-1.245302	0.506148
C36	C	0.142318	-0.745302	1.006148
C37	C	-0.357696	-1.128525	0.506166
C38	C	0.142304	-0.628525	1.006166
C39	C	-0.550643	-1.518142	0.506149
C40	C	-0.050643	-1.018142	1.006149
C41	C	-0.633189	-1.518184	0.506177
C42	C	-0.133189	-1.018184	1.006177
C43	C	-0.357618	-1.518348	0.780200
C44	C	0.142382	-1.018348	1.280200
C45	C	-0.357587	-1.518382	0.896977
C46	C	0.142413	-1.018382	1.396977
C47	C	-0.832646	-1.448096	0.576325
C48	C	-0.332646	-0.948096	1.076325
C49	C	-0.882094	-1.422480	0.480456
C50	C	-0.382094	-0.922480	0.980456
C51	C	-0.784319	-1.518287	0.506190
C52	C	-0.284319	-1.018287	1.006190
C53	C	-0.881953	-1.543955	0.602070
C54	C	-0.381953	-1.043955	1.102070
C55	C	-0.930304	-1.518385	0.506212
C56	C	-0.430304	-1.018385	1.006212
C57	C	-0.832681	-1.492621	0.410271
C58	C	-0.332681	-0.992621	0.910271
C59	C	-0.832535	-1.614141	0.531950
C60	C	-0.332535	-1.114141	1.031950
C61	C	-0.881961	-1.588561	0.436015
C62	C	-0.381961	-1.088561	0.936015
C63	C	-0.700221	-1.518228	0.506179
C64	C	-0.200221	-1.018228	1.006179
C65	C	-1.014401	-1.518444	0.506212
C66	C	-0.514401	-1.018444	1.006212
C67	C	-0.163986	-1.518425	0.506207
C68	C	0.336014	-1.018425	1.006207
C69	C	-0.081440	-1.518492	0.506224
C70	C	0.418560	-1.018492	1.006224
C71	C	-0.357701	-1.792302	0.506185
C72	C	0.142299	-1.292302	1.006185
C73	C	-0.357705	-1.909079	0.506193
C74	C	0.142295	-1.409079	1.006193
C75	C	-0.452803	-1.128526	0.640308
C76	C	0.047197	-0.628526	1.140308
C77	C	-0.500362	-1.073666	0.707383
C78	C	-0.000362	-0.573666	1.207383
C79	C	-0.500371	-0.963944	0.707395
C80	C	-0.000371	-0.463944	1.207395
C81	C	-0.452814	-0.909080	0.640329
C82	C	0.047186	-0.409080	1.140329
C83	C	-0.405255	-0.963940	0.573255
C84	C	0.094745	-0.463940	1.073255
C85	C	-0.405253	-1.073665	0.573247
C86	C	0.094747	-0.573665	1.073247
C87	C	-0.310146	-0.963939	0.439119
C88	C	0.189854	-0.463939	0.939119
C89	C	-0.310139	-1.073661	0.439099
C90	C	0.189861	-0.573661	0.939099
C91	C	-0.262589	-0.909076	0.372052
C92	C	0.237411	-0.409076	0.872052
C93	C	-0.215032	-0.963936	0.304971
C94	C	0.284968	-0.463936	0.804971
C95	C	-0.215026	-1.073664	0.304960
C96	C	0.284974	-0.573664	0.804960
C97	C	-0.262580	-1.128521	0.372025
C98	C	0.237420	-0.628521	0.872025
C99	C	-0.357710	-1.518251	0.233199
C100	C	0.142290	-1.018251	0.733199
C101	C	-0.357532	-1.518420	0.116423
C102	C	0.142468	-1.018420	0.616423
C103	C	-0.262609	-1.652848	0.897026
C104	C	0.237391	-1.152848	1.397026
C105	C	-0.215109	-1.720095	0.951911
C106	C	0.284891	-1.220095	1.451911
C107	C	-0.215082	-1.720121	1.061633
C108	C	0.284918	-1.220121	1.561633
C109	C	-0.262559	-1.652889	1.116472
C110	C	0.237441	-1.152889	1.616472
C111	C	-0.310059	-1.585642	1.061586
C112	C	0.189941	-1.085642	1.561586
C113	C	-0.310082	-1.585626	0.951862
C114	C	0.189918	-1.085626	1.451862
C115	C	-0.405032	-1.451173	1.061538
C116	C	0.094968	-0.951173	1.561538
C117	C	-0.405064	-1.451151	0.951816
C118	C	0.094936	-0.951151	1.451816
C119	C	-0.452509	-1.383942	1.116376
C120	C	0.047491	-0.883942	1.616376
C121	C	-0.500013	-1.316698	1.061491
C122	C	-0.000013	-0.816698	1.561491
C123	C	-0.500039	-1.316676	0.951763
C124	C	-0.000039	-0.816676	1.451763
C125	C	-0.452564	-1.383904	0.896931
C126	C	0.047436	-0.883904	1.396931
H127	H	-0.903879	-1.341466	0.458688
H128	H	-0.403879	-0.841466	0.958688
O129	O	-0.551664	-0.904734	0.779715
O130	O	-0.051664	-0.404734	1.279715
H131	H	-0.589387	-0.854701	0.732566
H132	H	-0.089387	-0.354701	1.232566
O133	O	-0.262519	-1.652907	1.234814
O134	O	0.237481	-1.152907	1.734814
H135	H	-0.303507	-1.594857	1.263726
H136	H	0.196493	-1.094857	1.763726
O137	O	-0.452601	-1.383875	0.778588
O138	O	0.047399	-0.883875	1.278588
H139	H	-0.396593	-1.362683	0.749665
H140	H	0.103407	-0.862683	1.249665
H141	H	-0.176312	-0.919257	0.250376
H142	H	0.323688	-0.419257	0.750376
O143	O	-0.803762	-1.721453	0.560921
O144	O	-0.303762	-1.221453	1.060921
H145	H	-0.742278	-1.720727	0.559955
H146	H	-0.242278	-1.220727	1.059955
H147	H	-0.903478	-1.647961	0.376645
H148	H	-0.403478	-1.147961	0.876645
O149	O	-0.452483	-1.383962	1.234719
O150	O	0.047517	-0.883962	1.734719
H151	H	-0.411484	-1.442024	1.263674
H152	H	0.088516	-0.942024	1.763674
H153	H	-0.538661	-1.261958	1.106150
H154	H	-0.038661	-0.761958	1.606150
O155	O	-0.163734	-1.132826	0.232600
O156	O	0.336266	-0.632826	0.732600
H157	H	-0.105465	-1.111806	0.250761
H158	H	0.394535	-0.611806	0.750761
H159	H	-0.810991	-1.388650	0.635551
H160	H	-0.310991	-0.888650	1.135551
O161	O	-0.262576	-1.246864	0.372006
O162	O	0.237424	-0.746864	0.872006
H163	H	-0.247635	-1.275842	0.451283
H164	H	0.252365	-0.775842	0.951283
H165	H	-0.538712	-1.261904	0.907082
H166	H	-0.038712	-0.761904	1.407082
O167	O	-0.910621	-1.572671	0.709461
O168	O	-0.410621	-1.072671	1.209461
H169	H	-0.890868	-1.514238	0.767511
H170	H	-0.390868	-1.014238	1.267511
H171	H	-0.452819	-0.819739	0.640355
H172	H	0.047181	-0.319739	1.140355
O173	O	-0.452800	-1.246869	0.640279
O174	O	0.047200	-0.746869	1.140279
H175	H	-0.437859	-1.275856	0.719553
H176	H	0.062141	-0.775856	1.219553
O177	O	-0.804141	-1.463783	0.302845
O178	O	-0.304141	-0.963783	0.802845
H179	H	-0.742652	-1.463926	0.303690
H180	H	-0.242652	-0.963926	0.803690
O181	O	-0.262587	-0.790733	0.372041
O182	O	0.237413	-0.290733	0.872041
H183	H	-0.277516	-0.761784	0.292749
H184	H	0.222484	-0.261784	0.792749
O185	O	-0.551638	-1.132836	0.779742
O186	O	-0.051638	-0.632836	1.279742
H187	H	-0.543643	-1.218349	0.768471
H188	H	-0.043643	-0.718349	1.268471
H189	H	-0.176454	-1.774831	0.907249
H190	H	0.323546	-1.274831	1.407249
O191	O	-0.262643	-1.652821	0.778683
O192	O	0.237357	-1.152821	1.278683
H193	H	-0.221649	-1.710862	0.749771
H194	H	0.278351	-1.210862	1.249771
O195	O	-0.163855	-1.792652	1.120841
O196	O	0.336145	-1.292652	1.620841
H197	H	-0.130849	-1.839402	1.064281
H198	H	0.369151	-1.339402	1.564281
