data_functionalizedCrystal
_audit_creation_method	'MofGen! by Chris Wilmer'
_symmetry_space_group_name_H-M	'P1'
_symmetry_Int_Tables_number	1
_symmetry_cell_setting	triclinic
loop_
_symmetry_equiv_pos_as_xyz
  x,y,z
_cell_length_a	14.472310
_cell_length_b	27.732046
_cell_length_c	15.995292
_cell_angle_alpha	96.944703
_cell_angle_beta	90.002121
_cell_angle_gamma	90.006914
loop_
_atom_site_label
_atom_site_type_symbol
_atom_site_fract_x
_atom_site_fract_y
_atom_site_fract_z
O1	O	-0.076704	-0.641352	0.099618
O2	O	-0.076733	-0.500622	0.114769
O3	O	-0.076719	-0.574848	-0.014748
O4	O	-0.076718	-0.567125	0.229134
O5	O	0.076963	-0.574829	-0.014740
O6	O	0.076949	-0.500602	0.114776
O7	O	0.076978	-0.641332	0.099626
Cu8	Cu	0.090996	-0.570966	0.107202
Cu9	Cu	-0.090751	-0.570988	0.107193
O10	O	0.076964	-0.567106	0.229142
C11	C	0.000104	-0.482604	0.114455
C12	C	0.000092	-0.428945	0.113498
N13	N	0.218827	-0.570953	0.107208
N14	N	-0.218582	-0.571005	0.107180
C15	C	0.000126	-0.090425	0.184008
C16	C	0.000130	0.111250	0.180457
O17	O	0.000170	0.142235	0.244931
N18	N	0.000128	0.130695	0.103660
C19	C	0.000130	0.099719	0.027746
O20	O	0.000138	0.120886	-0.037657
C21	C	0.000133	-0.101955	0.031297
C22	C	0.000126	-0.121397	0.108099
C23	C	0.000120	-0.109868	0.260804
C24	C	0.000114	-0.160284	0.261691
C25	C	0.000114	-0.191256	0.185782
C26	C	0.000120	-0.171813	0.108986
C27	C	0.000142	-0.132930	-0.044617
C28	C	0.000145	-0.183351	-0.043722
C29	C	0.000138	-0.202794	0.033080
C30	C	0.000113	-0.253201	0.033964
N31	N	0.000116	-0.272647	0.110761
C32	C	0.000116	-0.241675	0.186670
C33	C	0.000127	0.205601	0.025886
C34	C	0.000125	0.256019	0.024998
C35	C	0.000127	0.267546	0.177711
C36	C	0.000122	0.217127	0.178598
C37	C	0.000130	0.186155	0.102683
C38	C	0.000102	-0.347552	0.188527
C39	C	0.000092	-0.397972	0.189407
C40	C	0.000096	-0.409495	0.036695
C41	C	0.000101	-0.359079	0.035814
C42	C	0.000107	-0.328108	0.111737
O43	O	0.000084	-0.284215	-0.030475
O44	O	0.000129	-0.262851	0.252062
C45	C	0.000132	-0.040009	0.183121
C46	C	0.000138	-0.020566	0.106325
C47	C	0.000138	-0.051539	0.030416
C48	C	0.000136	0.029852	0.105437
C49	C	0.000136	0.060825	0.181346
C50	C	0.000138	0.041379	0.258143
C51	C	0.000132	-0.009037	0.259030
C52	C	0.000135	-0.032093	-0.046381
C53	C	0.000140	0.018323	-0.047261
C54	C	0.000141	0.049296	0.028648
C55	C	0.592918	-0.570988	0.107189
C56	C	0.553744	-0.531137	0.176262
C57	C	0.446656	-0.531229	0.176511
C58	C	0.407327	-0.570970	0.107199
C59	C	0.446175	-0.621402	0.125628
C60	C	0.553297	-0.621178	0.126118
C61	C	0.553444	-0.560856	0.019479
C62	C	0.446317	-0.559699	0.020079
C63	C	0.302439	-0.570964	0.107202
C64	C	0.697806	-0.570998	0.107188
C65	C	0.000120	-0.574524	-0.045935
C66	C	0.000112	-0.573582	-0.138876
C67	C	0.000134	0.340650	0.099943
C68	C	0.000125	0.286992	0.100907
C69	C	0.000120	-0.570117	-0.476570
C70	C	0.000475	-0.623692	-0.453951
C71	C	0.000125	-0.624711	-0.357289
C72	C	0.000117	-0.571837	-0.309036
C73	C	-0.087646	-0.545063	-0.337794
C74	C	-0.087716	-0.544418	-0.434577
C75	C	0.087049	-0.543302	-0.434411
C76	C	0.088206	-0.545287	-0.337944
C77	C	0.000112	-0.572805	-0.214352
C78	C	0.000119	-0.569147	-0.571253
C79	C	0.000123	-0.567430	0.260330
C80	C	0.000125	-0.568372	0.353271
H81	H	0.000111	-0.322340	0.250350
N82	N	0.585225	-0.597301	-0.045011
N83	N	0.561507	-0.595838	-0.119805
H84	H	0.583956	-0.621578	-0.165346
N85	N	-0.169990	-0.567707	-0.468546
N86	N	-0.184915	-0.571446	-0.546032
H87	H	-0.243021	-0.587897	-0.570022
H88	H	0.000108	-0.176109	0.324231
H89	H	0.093499	-0.506694	-0.304474
H90	H	0.000124	-0.084655	0.322622
N91	N	0.087807	-0.493830	-0.451310
N92	N	0.085604	-0.460209	-0.391776
H93	H	0.086137	-0.425270	-0.403714
H94	H	0.000127	0.292773	0.239518
N95	N	0.585826	-0.659514	0.065414
N96	N	0.670671	-0.666188	0.054981
H97	H	0.693644	-0.693270	0.012126
N98	N	0.079049	-0.651017	-0.333766
N99	N	0.134774	-0.668751	-0.388792
H100	H	0.190515	-0.687333	-0.372185
N101	N	0.412769	-0.593749	-0.047372
N102	N	0.436894	-0.590231	-0.121426
H103	H	0.413208	-0.614284	-0.169063
N104	N	0.000139	-0.063720	-0.123932
N105	N	0.000138	-0.046345	-0.192489
H106	H	0.000137	-0.068680	-0.247266
N107	N	-0.092752	-0.495142	-0.452194
N108	N	-0.159016	-0.481574	-0.493699
H109	H	-0.162580	-0.446774	-0.506136
H110	H	-0.062102	-0.644236	-0.483238
H111	H	0.578275	-0.630108	0.190065
H112	H	0.000128	-0.024862	0.321570
H113	H	0.000122	0.201301	0.241137
H114	H	0.579524	-0.493528	0.165567
H115	H	-0.062888	-0.645819	-0.339160
H116	H	0.000093	-0.343248	-0.026724
H117	H	0.000135	0.066606	0.319951
H118	H	0.000092	-0.434722	-0.025108
N119	N	0.000137	0.173961	-0.051657
N120	N	0.064919	0.144546	-0.068205
H121	H	0.064923	0.122201	-0.122971
H122	H	0.420698	-0.651764	0.076630
N123	N	0.000112	0.275868	-0.053461
N124	N	0.000111	0.248203	-0.121227
H125	H	0.000105	0.262219	-0.176642
N126	N	0.412504	-0.632871	0.204927
N127	N	0.359909	-0.603986	0.247999
H128	H	0.336128	-0.612082	0.304007
N129	N	0.587358	-0.515712	-0.002929
N130	N	0.641042	-0.490456	0.045481
H131	H	0.664991	-0.458569	0.029668
H132	H	-0.152952	-0.563671	-0.317978
N133	N	0.000079	-0.417824	0.267869
N134	N	0.000080	-0.390160	0.335637
H135	H	0.000071	-0.404178	0.391051
N136	N	0.000145	-0.113087	-0.123077
N137	N	0.000150	-0.140755	-0.190839
H138	H	0.000152	-0.126742	-0.246257
N139	N	0.000159	-0.214995	-0.121261
N140	N	0.064939	-0.244413	-0.137796
H141	H	0.064948	-0.266762	-0.192557
N142	N	0.413718	-0.484134	0.163267
N143	N	0.469845	-0.450969	0.153764
H144	H	0.446587	-0.417681	0.144567
N145	N	0.414465	-0.513158	0.002523
N146	N	0.363237	-0.488356	0.053939
H147	H	0.340735	-0.455486	0.041543
H148	H	0.580656	-0.537517	0.240998
N149	N	0.000136	0.038172	-0.125726
N150	N	0.000137	0.010506	-0.193492
H151	H	0.000140	0.024522	-0.248908
H152	H	0.063413	-0.644335	-0.482212
N153	N	0.414508	-0.539318	0.258197
N154	N	0.471185	-0.544917	0.315198
H155	H	0.448482	-0.550622	0.372897
H156	H	-0.090915	-0.506155	-0.305423
N157	N	0.170492	-0.564346	-0.470138
N158	N	0.166903	-0.599367	-0.527114
H159	H	0.225830	-0.614234	-0.552349
H160	H	0.153132	-0.564783	-0.319628
