data_functionalizedCrystal
_audit_creation_method	'MofGen! by Chris Wilmer'
_symmetry_space_group_name_H-M	'P1'
_symmetry_Int_Tables_number	1
_symmetry_cell_setting	triclinic
loop_
_symmetry_equiv_pos_as_xyz
  x,y,z
_cell_length_a	10.654562
_cell_length_b	15.944493
_cell_length_c	9.730223
_cell_angle_alpha	90.004543
_cell_angle_beta	89.996961
_cell_angle_gamma	83.982574
loop_
_atom_site_label
_atom_site_type_symbol
_atom_site_fract_x
_atom_site_fract_y
_atom_site_fract_z
O1	O	1.666261	0.118027	-0.114360
O2	O	1.300636	0.129256	-0.114342
O3	O	1.493471	0.001421	-0.114363
O4	O	1.473426	0.245861	-0.114339
O5	O	1.493468	0.001425	0.114217
O6	O	1.300633	0.129259	0.114238
O7	O	1.666259	0.118030	0.114219
Zn8	Zn	1.483446	0.123645	0.150521
Zn9	Zn	1.483449	0.123641	-0.150643
O10	O	1.473424	0.245864	0.114241
C11	C	1.253848	0.128431	-0.000049
C12	C	1.114438	0.125957	-0.000043
C13	C	1.048921	0.124805	0.124545
C14	C	0.917930	0.122488	0.124522
C15	C	0.917983	0.122478	-0.124689
C16	C	1.048973	0.124789	-0.124664
C17	C	1.048889	0.124814	0.268425
C18	C	0.917898	0.122497	0.268402
C19	C	1.492650	-0.029877	-0.000079
C20	C	1.490194	-0.123140	-0.000096
C21	C	1.603701	-0.358239	-0.000076
C22	C	1.542492	-0.409165	-0.112774
C23	C	1.485643	-0.293887	-0.000079
C24	C	1.542462	-0.409138	0.112588
C25	C	1.481256	-0.458822	-0.000057
C26	C	1.424466	-0.343584	-0.112870
C27	C	1.424453	-0.343554	0.112593
C28	C	1.363158	-0.394447	-0.000132
C29	C	1.488174	-0.198872	-0.000093
C30	C	1.478715	-0.553834	-0.000052
C31	C	1.713047	0.118855	-0.000076
C32	C	1.852456	0.121328	-0.000091
C33	C	1.474244	0.277162	-0.000046
C34	C	1.476700	0.370425	-0.000038
N35	N	1.483453	0.123647	0.356057
N36	N	1.483451	0.123632	-0.356179
C37	C	1.568862	0.067062	0.427974
C38	C	1.568859	0.067051	0.571857
C39	C	1.398033	0.180220	0.571894
C40	C	1.398032	0.180226	0.428014
C41	C	1.667490	0.001727	0.427954
C42	C	1.667487	0.001717	0.571837
H43	H	0.870842	0.180549	0.323643
N44	N	1.731274	-0.337898	-0.000231
N45	N	1.803350	-0.361747	-0.097158
H46	H	1.893448	-0.347381	-0.097274
H47	H	1.102314	0.125714	-0.226116
N48	N	1.310784	0.238022	0.645377
N49	N	1.234533	0.288542	0.581144
H50	H	1.172909	0.329368	0.633037
N51	N	1.235492	-0.414599	-0.000168
N52	N	1.162852	-0.389650	0.095685
H53	H	1.072688	-0.403883	0.095658
H54	H	1.763807	0.016112	0.610884
H55	H	1.592344	-0.437777	0.207859
H56	H	1.095918	0.066765	0.323672
N57	N	0.851091	0.121280	-0.251967
N58	N	0.734138	0.119209	-0.251974
H59	H	0.686895	0.118362	-0.341867
H60	H	1.374638	-0.314882	0.207881
H61	H	1.077652	0.186076	0.313074
H62	H	1.328474	0.226295	0.369460
N63	N	1.630225	-0.074813	0.627838
N64	N	1.625558	-0.084378	0.755172
H65	H	1.599233	-0.138423	0.794727
H66	H	1.646903	-0.062837	0.388894
H67	H	0.889121	0.061237	0.313041
N68	N	1.605046	-0.445106	-0.232308
N69	N	1.718863	-0.436507	-0.252400
H70	H	1.763050	-0.461887	-0.336818
N71	N	1.781543	0.027403	0.371994
N72	N	1.885085	-0.013619	0.398952
H73	H	1.965634	0.004523	0.359438
N74	N	1.361963	-0.307790	-0.232521
N75	N	1.353832	-0.229909	-0.251864
H76	H	1.309694	-0.204627	-0.336367
