data_functionalizedCrystal
_audit_creation_method	'MofGen! by Chris Wilmer'
_symmetry_space_group_name_H-M	'P1'
_symmetry_Int_Tables_number	1
_symmetry_cell_setting	triclinic
loop_
_symmetry_equiv_pos_as_xyz
  x,y,z
_cell_length_a	17.699083
_cell_length_b	14.519731
_cell_length_c	16.176319
_cell_angle_alpha	90.008567
_cell_angle_beta	89.995231
_cell_angle_gamma	83.485934
loop_
_atom_site_label
_atom_site_type_symbol
_atom_site_fract_x
_atom_site_fract_y
_atom_site_fract_z
O1	O	1.004413	0.116625	0.068632
O2	O	1.337746	0.449959	0.401966
O3	O	1.671080	0.783292	0.735299
O4	O	0.784079	0.131798	0.068660
O5	O	1.117412	0.465132	0.401993
O6	O	1.450746	0.798465	0.735326
O7	O	0.900079	-0.010050	0.068638
O8	O	1.233413	0.323283	0.401971
O9	O	1.566746	0.656616	0.735305
O10	O	0.888413	0.258474	0.068654
O11	O	1.221746	0.591807	0.401988
O12	O	1.555079	0.925140	0.735321
O13	O	0.900077	-0.010063	-0.068855
O14	O	1.233411	0.323270	0.264478
O15	O	1.566744	0.656603	0.597811
O16	O	0.784077	0.131785	-0.068833
O17	O	1.117410	0.465119	0.264500
O18	O	1.450744	0.798452	0.597833
O19	O	1.004411	0.116612	-0.068861
O20	O	1.337744	0.449946	0.264473
O21	O	1.671078	0.783279	0.597806
Cu22	Cu	0.894244	0.124198	-0.081401
Cu23	Cu	1.227577	0.457531	0.251932
Cu24	Cu	1.560910	0.790864	0.585265
Cu25	Cu	0.894246	0.124213	0.081200
Cu26	Cu	1.227580	0.457546	0.414534
Cu27	Cu	1.560913	0.790880	0.747867
O28	O	0.888410	0.258461	-0.068839
O29	O	1.221744	0.591794	0.264494
O30	O	1.555077	0.925127	0.597828
C31	C	0.755879	0.131248	-0.000083
C32	C	1.089213	0.464581	0.333250
C33	C	1.422546	0.797915	0.666583
C34	C	0.671857	0.129617	-0.000073
C35	C	1.005190	0.462950	0.333260
C36	C	1.338523	0.796284	0.666593
C37	C	0.899532	-0.044414	-0.000109
C38	C	1.232865	0.288920	0.333224
C39	C	1.566198	0.622253	0.666558
C40	C	0.897894	-0.146787	-0.000109
C41	C	1.231227	0.186546	0.333224
C42	C	1.564560	0.519880	0.666558
C43	C	0.623479	0.212879	-0.000068
C44	C	0.956812	0.546212	0.333265
C45	C	1.290146	0.879546	0.666598
C46	C	0.544531	0.211341	-0.000079
C47	C	0.877865	0.544674	0.333254
C48	C	1.211198	0.878008	0.666588
C49	C	0.513962	0.126540	-0.000089
C50	C	0.847296	0.459873	0.333244
C51	C	1.180629	0.793207	0.666578
C52	C	0.562346	0.043272	-0.000096
C53	C	0.895679	0.376605	0.333237
C54	C	1.229013	0.709938	0.666570
C55	C	0.641292	0.044811	-0.000091
C56	C	0.974626	0.378144	0.333242
C57	C	1.307959	0.711477	0.666575
C58	C	0.243965	0.037063	-0.000117
C59	C	0.577298	0.370396	0.333216
C60	C	0.910631	0.703730	0.666550
C61	C	0.165012	0.035531	-0.000119
C62	C	0.498346	0.368864	0.333214
C63	C	0.831679	0.702197	0.666547
C64	C	0.147204	0.203594	-0.000105
C65	C	0.480537	0.536927	0.333228
C66	C	0.813871	0.870260	0.666562
C67	C	0.226150	0.205133	-0.000100
C68	C	0.559483	0.538466	0.333233
C69	C	0.892817	0.871799	0.666567
C70	C	0.274527	0.121865	-0.000112
C71	C	0.607860	0.455198	0.333222
C72	C	0.941193	0.788531	0.666555
C73	C	0.360131	0.123533	-0.000102
C74	C	0.693464	0.456867	0.333232
C75	C	1.026797	0.790200	0.666565
C76	C	0.428360	0.124870	-0.000093
C77	C	0.761693	0.458204	0.333240
C78	C	1.095027	0.791537	0.666574
C79	C	0.896563	-0.229926	-0.000107
C80	C	1.229896	0.103408	0.333226
C81	C	1.563229	0.436741	0.666560
C82	C	0.894899	-0.334227	-0.000101
C83	C	1.228233	-0.000894	0.333233
C84	C	1.561566	0.332439	0.666566
C85	C	0.893579	-0.417361	-0.000095
C86	C	1.226913	-0.084027	0.333238
C87	C	1.560246	0.249306	0.666572
C88	C	0.891916	-0.521669	-0.000090
C89	C	1.225250	-0.188336	0.333243
C90	C	1.558583	0.144998	0.666577
C91	C	1.032611	0.117162	-0.000116
C92	C	1.365944	0.450496	0.333218
C93	C	1.699277	0.783829	0.666551
C94	C	1.116633	0.118793	-0.000121
C95	C	1.449967	0.452127	0.333213
C96	C	1.783300	0.785460	0.666546
C97	C	0.888958	0.292824	-0.000090
C98	C	1.222292	0.626158	0.333243
C99	C	1.555625	0.959491	0.666576
C100	C	0.890596	0.395198	-0.000085
C101	C	1.223930	0.728531	0.333249
C102	C	1.557263	1.061864	0.666582
N103	N	0.894248	0.124217	0.195566
N104	N	1.227582	0.457550	0.528899
N105	N	1.560915	0.790884	0.862232
N106	N	0.894247	0.124186	-0.195767
N107	N	1.227581	0.457519	0.137567
N108	N	1.560914	0.790853	0.470900
C109	C	0.945709	0.061530	0.238820
C110	C	1.279043	0.394863	0.572153
C111	C	1.612376	0.728197	0.905487
C112	C	0.945712	0.061528	0.325367
C113	C	1.279046	0.394861	0.658700
C114	C	1.612379	0.728195	0.992034
C115	C	0.894250	0.124209	0.368658
C116	C	1.227583	0.457543	0.701991
C117	C	1.560917	0.790876	1.035325
C118	C	0.842787	0.186903	0.325398
C119	C	1.176120	0.520236	0.658731
C120	C	1.509453	0.853570	0.992064
C121	C	0.842788	0.186909	0.238852
C122	C	1.176121	0.520242	0.572185
C123	C	1.509455	0.853575	0.905519
C124	C	0.842781	0.186882	0.674426
C125	C	1.176114	0.520215	1.007759
C126	C	1.509448	0.853549	1.341093
C127	C	0.842782	0.186869	0.760977
C128	C	1.176116	0.520203	1.094311
C129	C	1.509449	0.853536	1.427644
C130	C	0.945705	0.061501	0.760941
C131	C	1.279039	0.394835	1.094274
C132	C	1.612372	0.728168	1.427608
C133	C	0.945707	0.061507	0.674395
C134	C	1.279040	0.394840	1.007729
C135	C	1.612373	0.728174	1.341062
C136	C	0.894246	0.124203	0.631142
C137	C	1.227580	0.457537	0.964476
C138	C	1.560913	0.790870	1.297809
C139	C	0.894245	0.124206	0.537298
C140	C	1.227578	0.457539	0.870632
C141	C	1.560911	0.790873	1.203965
C142	C	0.894248	0.124203	0.462501
C143	C	1.227581	0.457536	0.795834
C144	C	1.560914	0.790870	1.129167
H145	H	0.648362	0.281934	-0.000060
H146	H	0.981695	0.615267	0.333274
H147	H	1.315028	0.948600	0.666607
O148	O	0.787276	0.254515	0.372078
O149	O	1.120610	0.587848	0.705411
O150	O	1.453943	0.921182	1.038745
H151	H	0.728297	0.242716	0.355453
H152	H	1.061630	0.576049	0.688787
H153	H	1.394963	0.909383	1.022120
O154	O	0.787293	0.254531	0.192192
O155	O	1.120627	0.587864	0.525526
O156	O	1.453960	0.921198	0.858859
H157	H	0.751507	0.298116	0.236833
H158	H	1.084840	0.631449	0.570167
H159	H	1.418173	0.964783	0.903500
H160	H	0.987613	0.010484	0.203578
H161	H	1.320946	0.343817	0.536912
H162	H	1.654279	0.677151	0.870245
H163	H	0.107806	0.271394	-0.000100
H164	H	0.441139	0.604728	0.333234
H165	H	0.774472	0.938061	0.666567
H166	H	0.987616	0.010484	0.360585
H167	H	1.320949	0.343817	0.693918
H168	H	1.654283	0.677151	1.027251
H169	H	0.987609	0.010463	0.639151
H170	H	1.320943	0.343796	0.972484
H171	H	1.654276	0.677130	1.305817
H172	H	0.800879	0.237930	0.639216
H173	H	1.134212	0.571263	0.972549
H174	H	1.467546	0.904596	1.305883
O175	O	1.001203	-0.006138	0.807590
O176	O	1.334537	0.327196	1.140924
O177	O	1.667870	0.660529	1.474257
H178	H	0.992560	0.004385	0.875044
H179	H	1.325894	0.337718	1.208378
H180	H	1.659227	0.671051	1.541711
H181	H	0.537451	-0.025775	-0.000116
H182	H	0.870784	0.307558	0.333217
H183	H	1.204117	0.640892	0.666551
O184	O	0.492355	0.301148	-0.000076
O185	O	0.825688	0.634481	0.333257
O186	O	1.159022	0.967815	0.666590
H187	H	0.455946	0.304469	0.055956
H188	H	0.789279	0.637803	0.389289
H189	H	1.122612	0.971136	0.722622
O190	O	0.787278	0.254477	0.807681
O191	O	1.120611	0.587810	1.141014
O192	O	1.453945	0.921143	1.474348
H193	H	0.796914	0.326396	0.791100
H194	H	1.130247	0.659730	1.124433
H195	H	1.463580	0.993063	1.457766
H196	H	0.251035	0.274186	-0.000088
H197	H	0.584368	0.607519	0.333245
H198	H	0.917701	0.940853	0.666578
O199	O	0.132041	-0.055940	-0.000146
O200	O	0.465374	0.277394	0.333187
O201	O	0.798708	0.610727	0.666521
H202	H	0.151461	-0.095951	0.055882
H203	H	0.484794	0.237382	0.389215
H204	H	0.818128	0.570716	0.722549
O205	O	0.296138	-0.052742	-0.000129
O206	O	0.629472	0.280591	0.333204
O207	O	0.962805	0.613924	0.666537
H208	H	0.261616	-0.111965	-0.000130
H209	H	0.594949	0.221368	0.333204
H210	H	0.928283	0.554702	0.666537
H211	H	0.680681	-0.022990	-0.000095
H212	H	1.014014	0.310343	0.333238
H213	H	1.347348	0.643677	0.666572
