data_functionalizedCrystal
_audit_creation_method	'MofGen! by Chris Wilmer'
_symmetry_space_group_name_H-M	'P1'
_symmetry_Int_Tables_number	1
_symmetry_cell_setting	triclinic
loop_
_symmetry_equiv_pos_as_xyz
  x,y,z
_cell_length_a	10.654550
_cell_length_b	15.944551
_cell_length_c	9.130313
_cell_angle_alpha	89.994529
_cell_angle_beta	89.999724
_cell_angle_gamma	83.991834
loop_
_atom_site_label
_atom_site_type_symbol
_atom_site_fract_x
_atom_site_fract_y
_atom_site_fract_z
O1	O	1.666313	0.117977	-0.121694
O2	O	2.166313	0.617977	0.378306
O3	O	1.300689	0.129217	-0.121721
O4	O	1.800689	0.629217	0.378279
O5	O	1.493485	0.001379	-0.121693
O6	O	1.993485	0.501379	0.378307
O7	O	1.473517	0.245814	-0.121721
O8	O	1.973517	0.745814	0.378279
O9	O	1.493472	0.001376	0.121906
O10	O	1.993472	0.501376	0.621906
O11	O	1.300676	0.129213	0.121878
O12	O	1.800676	0.629213	0.621878
O13	O	1.666300	0.117973	0.121905
O14	O	2.166300	0.617973	0.621905
Cu15	Cu	1.483487	0.123592	0.144134
Cu16	Cu	1.983487	0.623592	0.644134
Cu17	Cu	1.483502	0.123597	-0.143950
Cu18	Cu	1.983502	0.623597	0.356050
O19	O	1.473503	0.245810	0.121878
O20	O	1.973503	0.745810	0.621878
C21	C	1.253895	0.128389	0.000075
C22	C	1.753895	0.628389	0.500075
C23	C	1.114484	0.125920	0.000065
C24	C	1.614484	0.625920	0.500065
C25	C	1.034024	0.201189	0.000061
C26	C	1.534024	0.701189	0.500061
C27	C	0.903034	0.198863	0.000087
C28	C	1.403034	0.698863	0.500087
C29	C	0.932975	0.045995	0.000115
C30	C	1.432975	0.545995	0.500115
C31	C	1.063963	0.048321	0.000100
C32	C	1.563963	0.548321	0.500100
C33	C	1.492650	-0.029921	0.000106
C34	C	1.992650	0.470079	0.500106
C35	C	1.490165	-0.123182	0.000107
C36	C	1.990165	0.376818	0.500107
C37	C	1.364720	-0.338764	0.000077
C38	C	1.864720	0.161236	0.500077
C39	C	1.422966	-0.399446	0.120191
C40	C	1.922966	0.100554	0.620191
C41	C	1.485668	-0.293933	0.000095
C42	C	1.985668	0.206067	0.500095
C43	C	1.423007	-0.399426	-0.119979
C44	C	1.923007	0.100574	0.380021
C45	C	1.481317	-0.458871	0.000078
C46	C	1.981317	0.041129	0.500078
C47	C	1.543947	-0.353387	0.120308
C48	C	2.043947	0.146613	0.620308
C49	C	1.543972	-0.353360	-0.119969
C50	C	2.043972	0.146640	0.380031
C51	C	1.602306	-0.414024	0.000173
C52	C	2.102306	0.085976	0.500173
C53	C	1.488172	-0.198917	0.000107
C54	C	1.988172	0.301083	0.500107
C55	C	1.478822	-0.553887	0.000077
C56	C	1.978822	-0.053887	0.500077
C57	C	1.713094	0.118800	0.000106
C58	C	2.213094	0.618800	0.500106
C59	C	1.852505	0.121269	0.000106
C60	C	2.352505	0.621269	0.500106
C61	C	1.474339	0.277110	0.000075
C62	C	1.974339	0.777110	0.500075
C63	C	1.476824	0.370371	0.000065
C64	C	1.976824	0.870371	0.500065
N65	N	1.483485	0.123589	0.346757
N66	N	1.983485	0.623589	0.846757
N67	N	1.483514	0.123594	-0.346572
N68	N	1.983514	0.623594	0.153428
C69	C	1.568884	0.067007	0.423421
C70	C	2.068884	0.567007	0.923421
C71	C	1.568896	0.067007	0.576758
C72	C	2.068896	0.567007	1.076758
C73	C	1.398106	0.180179	0.576753
C74	C	1.898106	0.680179	1.076753
C75	C	1.398089	0.180174	0.423419
C76	C	1.898089	0.680174	0.923419
H77	H	0.837528	0.260155	0.000086
H78	H	1.337528	0.760155	0.500086
H79	H	1.264327	-0.306038	0.000190
H80	H	1.764327	0.193962	0.500190
C81	C	1.304196	0.242461	0.339083
C82	C	1.804196	0.742461	0.839083
N83	N	1.233498	0.289386	0.275562
N84	N	1.733498	0.789386	0.775562
C85	C	1.353878	-0.426959	-0.257160
C86	C	1.853878	0.073041	0.242840
N87	N	1.301802	-0.447693	-0.360480
N88	N	1.801802	0.052307	0.139520
H89	H	1.638433	0.020931	0.639173
H90	H	2.138433	0.520931	1.139173
C91	C	1.152475	-0.034485	0.000105
C92	C	1.652475	0.465515	0.500105
N93	N	1.219141	-0.096851	0.000113
N94	N	1.719141	0.403149	0.500113
C95	C	1.662811	0.004755	0.339098
C96	C	2.162811	0.504755	0.839098
N97	N	1.733557	-0.042138	0.275590
N98	N	2.233557	0.457862	0.775590
C99	C	1.304173	0.242417	0.661095
C100	C	1.804173	0.742417	1.161095
N101	N	1.233421	0.289297	0.724621
N102	N	1.733421	0.789297	1.224621
C103	C	1.353848	-0.427019	0.257361
C104	C	1.853848	0.072981	0.757361
N105	N	1.301780	-0.447784	0.360673
N106	N	1.801780	0.052216	0.860673
H107	H	1.595055	-0.333102	0.221966
H108	H	2.095055	0.166898	0.721966
C109	C	1.738046	-0.458043	0.000278
C110	C	2.238046	0.041957	0.500278
N111	N	1.840283	-0.491201	0.000367
N112	N	2.340283	0.008799	0.500367
H113	H	0.891824	-0.017184	0.000152
H114	H	1.391824	0.482816	0.500152
C115	C	1.089592	0.286550	0.000041
C116	C	1.589592	0.786550	0.500041
N117	N	1.131442	0.350846	0.000034
N118	N	1.631442	0.850846	0.500034
C119	C	1.613029	-0.325759	-0.257152
C120	C	2.113029	0.174241	0.242848
N121	N	1.665034	-0.304968	-0.360491
N122	N	2.165034	0.195032	0.139509
