data_functionalizedCrystal
_audit_creation_method	'MofGen! by Chris Wilmer'
_symmetry_space_group_name_H-M	'P1'
_symmetry_Int_Tables_number	1
_symmetry_cell_setting	triclinic
loop_
_symmetry_equiv_pos_as_xyz
  x,y,z
_cell_length_a	16.959455
_cell_length_b	16.959447
_cell_length_c	14.908520
_cell_angle_alpha	93.266153
_cell_angle_beta	93.319742
_cell_angle_gamma	89.980656
loop_
_atom_site_label
_atom_site_type_symbol
_atom_site_fract_x
_atom_site_fract_y
_atom_site_fract_z
Zn1	Zn	1.190232	-0.465109	-0.359165
Zn2	Zn	1.690232	0.034891	0.140835
Zn3	Zn	1.182514	-0.340554	-0.510042
Zn4	Zn	1.682514	0.159446	-0.010042
Zn5	Zn	1.058052	-0.332942	-0.359199
Zn6	Zn	1.558052	0.167058	0.140801
Zn7	Zn	1.050394	-0.472684	-0.509979
Zn8	Zn	1.550394	0.027316	-0.009979
O9	O	1.120298	-0.402822	-0.434596
O10	O	1.620298	0.097178	0.065404
O11	O	1.299818	-0.448602	-0.379191
O12	O	1.799818	0.051398	0.120809
O13	O	1.165979	-0.228936	-0.490072
O14	O	1.665979	0.271064	0.009928
O15	O	1.082021	-0.344119	-0.232950
O16	O	1.582021	0.155881	0.267050
O17	O	1.294148	-0.357092	-0.490039
O18	O	1.794148	0.142908	0.009961
O19	O	1.179132	-0.441221	-0.232925
O20	O	1.679132	0.058779	0.267075
O21	O	1.074538	-0.223343	-0.379249
O22	O	1.574538	0.276657	0.120751
O23	O	0.946426	-0.351464	-0.379188
O24	O	1.446426	0.148536	0.120812
O25	O	1.068968	-0.582288	-0.489933
O26	O	1.568968	-0.082288	0.010067
O27	O	0.940799	-0.454132	-0.489966
O28	O	1.440799	0.045868	0.010034
O29	O	1.171707	-0.576723	-0.379131
O30	O	1.671707	-0.076723	0.120869
O31	O	1.158553	-0.364438	-0.636278
O32	O	1.658553	0.135562	-0.136278
O33	O	1.061485	-0.461513	-0.636232
O34	O	1.561485	0.038487	-0.136232
C35	C	0.914933	-0.402795	-0.434575
C36	C	1.414933	0.097205	0.065425
C37	C	0.827076	-0.402802	-0.434587
C38	C	1.327076	0.097198	0.065413
C39	C	0.788712	-0.349425	-0.376828
C40	C	1.288712	0.150575	0.123172
C41	C	0.782885	-0.456192	-0.492353
C42	C	1.282885	0.043808	0.007647
C43	C	0.700339	-0.456204	-0.492363
C44	C	1.200339	0.043796	0.007637
C45	C	0.661975	-0.402827	-0.434604
C46	C	1.161975	0.097173	0.065396
C47	C	0.706158	-0.349437	-0.376835
C48	C	1.206158	0.150563	0.123165
C49	C	0.656151	-0.509598	-0.550125
C50	C	1.156151	-0.009598	-0.050125
C51	C	0.573599	-0.509613	-0.550137
C52	C	1.073599	-0.009613	-0.050137
C53	C	0.535234	-0.456231	-0.492382
C54	C	1.035234	0.043769	0.007618
C55	C	0.579421	-0.402839	-0.434611
C56	C	1.079421	0.097161	0.065389
C57	C	0.541058	-0.349461	-0.376852
C58	C	1.041058	0.150539	0.123148
C59	C	0.585244	-0.296064	-0.319084
C60	C	1.085244	0.203936	0.180916
C61	C	0.667792	-0.296055	-0.319079
C62	C	1.167792	0.203945	0.180921
C63	C	0.452685	-0.456240	-0.492387
C64	C	0.952685	0.043760	0.007613
C65	C	0.458504	-0.349473	-0.376858
C66	C	0.958504	0.150527	0.123142
C67	C	1.120344	-0.608987	-0.434521
C68	C	1.620344	-0.108987	0.065479
C69	C	1.120364	-0.696842	-0.434489
C70	C	1.620364	-0.196842	0.065511
C71	C	1.072829	-1.065407	-0.376693
C72	C	1.572829	-0.565407	0.123307
C73	C	1.168047	-1.071218	-0.492095
C74	C	1.668047	-0.571218	0.007905
C75	C	1.168033	-0.988674	-0.492116
C76	C	1.668033	-0.488674	0.007884
C77	C	1.120414	-0.944492	-0.434426
C78	C	1.620414	-0.444492	0.065574
C79	C	1.072811	-0.982855	-0.376715
C80	C	1.572811	-0.482855	0.123285
C81	C	1.215629	-0.950305	-0.549833
C82	C	1.715629	-0.450305	-0.049833
C83	C	1.215616	-0.867755	-0.549857
C84	C	1.715616	-0.367755	-0.049857
C85	C	1.168001	-0.823571	-0.492161
C86	C	1.668001	-0.323571	0.007839
C87	C	1.120396	-0.861939	-0.434447
C88	C	1.620396	-0.361939	0.065553
C89	C	1.072778	-0.817758	-0.376757
C90	C	1.572778	-0.317758	0.123243
C91	C	1.025177	-0.856124	-0.319037
C92	C	1.525177	-0.356124	0.180963
C93	C	1.025196	-0.938672	-0.319019
C94	C	1.525196	-0.438672	0.180981
C95	C	1.167982	-0.741024	-0.492179
C96	C	1.667982	-0.241024	0.007821
C97	C	1.072760	-0.735205	-0.376778
C98	C	1.572760	-0.235205	0.123222
C99	C	1.326465	-0.402851	-0.434618
C100	C	1.826465	0.097149	0.065382
C101	C	1.414321	-0.402863	-0.434628
C102	C	1.914321	0.097137	0.065372
C103	C	1.108372	-0.414640	-0.668989
C104	C	1.608372	0.085360	-0.168989
C105	C	1.103342	-0.419723	-0.769263
C106	C	1.603342	0.080277	-0.269263
C107	C	1.120301	-0.197457	-0.434606
C108	C	1.620301	0.302543	0.065394
C109	C	1.120447	-0.109589	-0.434384
C110	C	1.620447	0.390411	0.065616
C111	C	1.195072	-0.328270	-0.957675
C112	C	1.695072	0.171730	-0.457675
C113	C	1.190349	-0.333042	-1.051892
C114	C	1.690349	0.166958	-0.551892
C115	C	1.089178	-0.434044	-1.051914
C116	C	1.589178	0.065956	-0.551914
C117	C	1.093901	-0.429271	-0.957697
C118	C	1.593901	0.070729	-0.457697
C119	C	1.146849	-0.376382	-0.910581
C120	C	1.646849	0.123618	-0.410581
C121	C	1.151568	-0.371606	-0.816363
C122	C	1.651568	0.128394	-0.316363
C123	C	1.050401	-0.472611	-0.816387
C124	C	1.550401	0.027389	-0.316387
C125	C	1.045678	-0.477383	-0.910604
C126	C	1.545678	0.022617	-0.410604
C127	C	1.132292	-0.390975	-0.199288
C128	C	1.632292	0.109025	0.300712
C129	C	1.137403	-0.385927	-0.099014
C130	C	1.637403	0.114073	0.400986
H131	H	0.703776	-0.252583	-0.272048
H132	H	1.203776	0.247417	0.227952
H133	H	1.011132	-0.511784	-0.778033
H134	H	1.511132	-0.011784	-0.278033
H135	H	1.046075	-0.477110	-1.090292
H136	H	1.546075	0.022890	-0.590292
H137	H	0.553997	-0.252608	-0.272053
H138	H	1.053997	0.247392	0.227947
Br139	Br	1.232659	-1.131180	-0.570396
Br140	Br	1.732659	-0.631180	-0.070396
Br141	Br	0.973828	-0.549163	-0.974555
Br142	Br	1.473828	-0.049163	-0.474555
Br143	Br	1.008235	-1.117472	-0.298357
Br144	Br	1.508235	-0.617472	0.201643
Br145	Br	1.008138	-0.675250	-0.298472
Br146	Br	1.508138	-0.175250	0.201528
H147	H	1.229619	-0.293866	-1.090232
H148	H	1.729619	0.206134	-0.590232
Br149	Br	0.708218	-0.582021	-0.628524
Br150	Br	1.208218	-0.082021	-0.128524
Br151	Br	0.960554	-0.796153	-0.240747
Br152	Br	1.460554	-0.296153	0.259253
H153	H	0.824691	-0.305949	-0.329798
H154	H	1.324691	0.194051	0.170202
H155	H	1.194679	-0.328538	-0.778002
H156	H	1.694679	0.171462	-0.278002
Br157	Br	0.960599	-0.990744	-0.240694
Br158	Br	1.460599	-0.490744	0.259306
H159	H	1.254388	-0.986284	-0.596811
H160	H	1.754388	-0.486284	-0.096811
Br161	Br	1.266913	-0.256479	-0.893727
Br162	Br	1.766913	0.243521	-0.393727
Br163	Br	0.834950	-0.528625	-0.570742
Br164	Br	1.334950	-0.028625	-0.070742
H165	H	0.537630	-0.553091	-0.597176
H166	H	1.037630	-0.053091	-0.097176
Br167	Br	0.406445	-0.277022	-0.298474
Br168	Br	0.906445	0.222978	0.201526
Br169	Br	1.280218	-0.815693	-0.628185
Br170	Br	1.780218	-0.315693	-0.128185
Br171	Br	1.232569	-0.688958	-0.570515
Br172	Br	1.732569	-0.188958	-0.070515
Br173	Br	0.392722	-0.528708	-0.570770
Br174	Br	0.892722	-0.028708	-0.070770
