data_functionalizedCrystal
_audit_creation_method	'MofGen! by Chris Wilmer'
_symmetry_space_group_name_H-M	'P1'
_symmetry_Int_Tables_number	1
_symmetry_cell_setting	triclinic
loop_
_symmetry_equiv_pos_as_xyz
  x,y,z
_cell_length_a	12.759401
_cell_length_b	16.959454
_cell_length_c	12.759393
_cell_angle_alpha	90.030714
_cell_angle_beta	90.018496
_cell_angle_gamma	90.020236
loop_
_atom_site_label
_atom_site_type_symbol
_atom_site_fract_x
_atom_site_fract_y
_atom_site_fract_z
Zn1	Zn	1.606216	-0.314632	0.593988
Zn2	Zn	1.606094	-0.446833	0.418310
Zn3	Zn	1.430518	-0.314673	0.418327
Zn4	Zn	1.430490	-0.446772	0.593952
O5	O	1.518330	-0.380727	0.506144
O6	O	1.753221	-0.332177	0.570692
O7	O	1.582764	-0.429345	0.271291
O8	O	1.453888	-0.204057	0.441651
O9	O	1.753131	-0.429304	0.441622
O10	O	1.582972	-0.204026	0.570708
O11	O	1.453769	-0.332247	0.271304
O12	O	1.283493	-0.332188	0.441616
O13	O	1.453840	-0.429201	0.740978
O14	O	1.283473	-0.429241	0.570647
O15	O	1.582945	-0.332118	0.741004
O16	O	1.582737	-0.557436	0.441588
O17	O	1.453722	-0.557391	0.570631
C18	C	1.245362	-0.380713	0.506130
C19	C	1.128586	-0.380726	0.506149
C20	C	1.518242	-0.586094	0.506126
C21	C	1.518300	-0.673950	0.506154
C22	C	1.073740	-0.431342	0.573224
C23	C	0.964016	-0.431352	0.573235
C24	C	0.963992	-0.330127	0.439087
C25	C	1.073714	-0.330114	0.439082
C26	C	1.128612	-0.481954	0.640291
C27	C	1.073766	-0.532575	0.707370
C28	C	0.964042	-0.532585	0.707382
C29	C	0.909164	-0.481974	0.640313
C30	C	1.451249	-1.045433	0.573330
C31	C	1.585703	-1.045419	0.439066
C32	C	1.585666	-0.962873	0.439056
C33	C	1.518419	-0.921603	0.506183
C34	C	1.451208	-0.962879	0.573320
C35	C	1.652869	-0.921591	0.371913
C36	C	1.652834	-0.839040	0.371900
C37	C	1.585591	-0.797769	0.439033
C38	C	1.518378	-0.839050	0.506173
C39	C	1.451130	-0.797780	0.573300
C40	C	1.383922	-0.839059	0.640447
C41	C	1.383965	-0.921607	0.640453
C42	C	1.585548	-0.715220	0.439027
C43	C	1.451089	-0.715226	0.573291
C44	C	1.792363	-0.380743	0.506159
C45	C	1.909140	-0.380749	0.506165
C46	C	1.518403	-0.380648	0.780178
C47	C	1.518435	-0.380614	0.896954
C48	C	1.518447	-0.174559	0.506185
C49	C	1.518496	-0.086703	0.506203
C50	C	1.518317	-0.380750	0.233177
C51	C	1.518489	-0.380561	0.116401
C52	C	1.585669	-0.330058	0.951832
C53	C	1.585694	-0.330029	1.061556
C54	C	1.451247	-0.431119	1.061516
C55	C	1.451218	-0.431143	0.951793
C56	C	1.652886	-0.279528	0.896993
C57	C	1.720126	-0.228968	0.951870
C58	C	1.720151	-0.228940	1.061594
C59	C	1.652935	-0.279471	1.116441
H60	H	1.118456	-0.573776	0.761982
H61	H	1.118370	-0.288892	0.384471
H62	H	0.919390	-0.573797	0.762009
C63	C	0.795783	-0.285217	0.379517
C64	C	0.903671	-0.274510	0.365354
H65	H	0.758546	-0.250886	0.333987
H66	H	0.777832	-0.273706	0.450123
H67	H	0.777799	-0.338319	0.364027
H68	H	0.921656	-0.221409	0.380851
H69	H	0.921629	-0.286015	0.294731
H70	H	1.329164	-0.805447	0.695097
C71	C	1.400002	-0.564999	0.917940
C72	C	1.377342	-0.486727	0.891448
H73	H	1.354401	-0.599314	0.880676
H74	H	1.390379	-0.572218	0.991123
H75	H	1.470592	-0.576551	0.899971
H76	H	1.306753	-0.475173	0.909425
H77	H	1.386956	-0.479505	0.818250
H78	H	1.217954	-0.481953	0.640287
C79	C	1.318192	-0.723532	0.706014
C80	C	1.377168	-0.669865	0.647082
H81	H	1.272554	-0.695526	0.751565
H82	H	1.363965	-0.755681	0.746241
H83	H	1.278046	-0.755776	0.660200
H84	H	1.417320	-0.637625	0.692896
H85	H	1.331389	-0.637702	0.606852
H86	H	1.396533	-1.079046	0.628001
H87	H	0.819819	-0.481980	0.640337
H88	H	1.652949	-0.279434	1.205786
C89	C	1.324314	-1.048153	0.700065
C90	C	1.310083	-0.966983	0.714244
H91	H	1.278696	-1.076167	0.745614
H92	H	1.394893	-1.061634	0.715511
H93	H	1.308988	-1.061709	0.629457
H94	H	1.325418	-0.953426	0.784851
H95	H	1.239489	-0.953497	0.698805
C96	C	1.436630	-0.537418	1.184865
C97	C	1.377377	-0.486670	1.121798
H98	H	1.391025	-0.571717	1.222073
H99	H	1.476665	-0.507303	1.233248
H100	H	1.482372	-0.567659	1.142039
H101	H	1.331640	-0.456424	1.164625
H102	H	1.337325	-0.516787	1.073409
H103	H	1.640447	-1.079026	0.384408
H104	H	1.707610	-0.955199	0.317254
H105	H	1.640263	-0.681615	0.384352
C106	C	1.785752	-0.847328	0.239192
C107	C	1.726718	-0.793670	0.298106
H108	H	1.831371	-0.819316	0.193643
H109	H	1.740015	-0.879562	0.198964
H110	H	1.825921	-0.879488	0.285018
H111	H	1.686542	-0.761514	0.252280
H112	H	1.772461	-0.761422	0.338337
H113	H	1.652875	-0.279547	0.807650
H114	H	1.774894	-0.187766	1.106273
H115	H	1.774844	-0.187823	0.907207
