data_functionalizedCrystal
_audit_creation_method	'MofGen! by Chris Wilmer'
_symmetry_space_group_name_H-M	'P1'
_symmetry_Int_Tables_number	1
_symmetry_cell_setting	triclinic
loop_
_symmetry_equiv_pos_as_xyz
  x,y,z
_cell_length_a	23.532407
_cell_length_b	23.532357
_cell_length_c	15.500227
_cell_angle_alpha	92.804145
_cell_angle_beta	87.176055
_cell_angle_gamma	82.838519
loop_
_atom_site_label
_atom_site_type_symbol
_atom_site_fract_x
_atom_site_fract_y
_atom_site_fract_z
O1	O	0.757910	0.066480	-0.071899
O2	O	0.592045	0.076482	-0.071914
O3	O	0.679994	-0.011452	-0.071889
O4	O	0.669962	0.154414	-0.071925
O5	O	0.674657	-0.006137	0.071999
O6	O	0.586709	0.081798	0.071973
O7	O	0.752573	0.071795	0.071988
Cu8	Cu	0.669154	0.077282	0.085118
Cu9	Cu	0.675465	0.070996	-0.085045
O10	O	0.664625	0.159729	0.071962
C11	C	0.568161	0.078885	0.000027
C12	C	0.504944	0.078119	0.000023
C13	C	0.238786	0.022924	0.000058
C14	C	0.298186	0.023635	0.000058
O15	O	0.334937	-0.020150	0.000097
N16	N	0.320803	0.075912	0.000040
C17	C	0.284017	0.127481	0.000032
O18	O	0.308709	0.172012	0.000018
C19	C	0.224617	0.126769	0.000039
C20	C	0.202004	0.074489	0.000047
C21	C	0.216171	-0.029353	0.000068
C22	C	0.156775	-0.030064	0.000067
C23	C	0.119994	0.021501	0.000056
C24	C	0.142608	0.073778	0.000046
C25	C	0.187832	0.178338	0.000037
C26	C	0.128429	0.177622	0.000044
C27	C	0.105816	0.125341	0.000053
C28	C	0.046430	0.124631	0.000034
N29	N	0.023813	0.072354	0.000052
C30	C	0.060594	0.020789	0.000062
C31	C	0.408759	0.128972	0.000020
C32	C	0.468158	0.129684	0.000007
C33	C	0.482323	0.025838	0.000034
C34	C	0.422923	0.025126	0.000041
C35	C	0.386142	0.076695	0.000037
C36	C	-0.064142	0.019300	0.000059
C37	C	-0.123544	0.018593	0.000054
C38	C	-0.137704	0.122439	0.000032
C39	C	-0.078307	0.123146	0.000032
C40	C	-0.041527	0.071572	0.000048
O41	O	0.009644	0.168394	-0.000002
O42	O	0.035893	-0.023734	0.000088
C43	C	0.677074	-0.030011	0.000058
C44	C	0.676319	-0.093229	0.000066
C45	C	0.674493	-0.488140	-0.078414
C46	C	0.673776	-0.547539	-0.078419
O47	O	0.675860	-0.580720	-0.145123
N48	N	0.670512	-0.574353	0.000012
C49	C	0.667958	-0.541763	0.078454
O50	O	0.665115	-0.570025	0.145166
C51	C	0.668671	-0.482364	0.078458
C52	C	0.671942	-0.455554	0.000022
C53	C	0.677763	-0.461329	-0.156845
C54	C	0.678481	-0.401934	-0.156839
C55	C	0.675930	-0.369349	-0.078404
C56	C	0.672660	-0.396159	0.000027
C57	C	0.666113	-0.449775	0.156899
C58	C	0.666826	-0.390372	0.156897
C59	C	0.670097	-0.363562	0.078460
C60	C	0.670826	-0.304178	0.078468
N61	N	0.674091	-0.277364	0.000036
C62	C	0.676643	-0.309950	-0.078400
C63	C	0.666460	-0.666505	0.078440
C64	C	0.665751	-0.725904	0.078437
C65	C	0.671568	-0.731676	-0.078437
C66	C	0.672281	-0.672276	-0.078433
C67	C	0.669725	-0.639691	0.000008
C68	C	0.678151	-0.185215	-0.078382
C69	C	0.678871	-0.125814	-0.078370
C70	C	0.673051	-0.120047	0.078503
C71	C	0.672333	-0.179443	0.078492
C72	C	0.674882	-0.212025	0.000042
O73	O	0.668742	-0.270961	0.145138
O74	O	0.679478	-0.281679	-0.145100
C75	C	0.776458	0.069392	0.000044
C76	C	0.839675	0.070158	0.000043
C77	C	0.667545	0.178288	0.000014
C78	C	0.668300	0.241506	0.000000
N79	N	0.664719	0.081702	0.204802
N80	N	0.679904	0.066570	-0.204728
C81	C	0.701998	0.044455	0.250090
C82	C	0.698649	0.047804	0.340661
C83	C	0.658023	0.088403	0.385944
C84	C	0.620740	0.125652	0.340650
C85	C	0.624086	0.122300	0.250080
C86	C	0.645968	0.100468	0.659407
C87	C	0.642625	0.103818	0.749984
C88	C	0.720534	0.025969	0.749989
C89	C	0.723879	0.022623	0.659417
C90	C	0.686594	0.059870	0.614131
C91	C	0.654600	0.091828	0.478523
C92	C	0.690015	0.056442	0.521554
H93	H	0.512281	-0.016149	0.000043
C94	C	0.597930	0.148480	0.799793
N95	N	0.564267	0.182118	0.837309
H96	H	-0.034202	-0.022697	0.000072
H97	H	0.663096	-0.747728	0.142308
C98	C	0.674369	-0.767530	-0.164719
N99	N	0.676478	-0.794537	-0.229702
H100	H	0.664380	-0.639978	0.142320
H101	H	0.615609	0.130797	0.622543
H102	H	-0.141952	-0.023982	0.000059
H103	H	0.663451	-0.471593	0.220771
H104	H	0.587658	0.158707	0.377524
C105	C	0.664016	-0.354532	0.243191
N106	N	0.661901	-0.327539	0.308187
C107	C	0.131908	-0.087576	0.000097
N108	N	0.113182	-0.130898	0.000128
H109	H	0.593729	0.152630	0.213208
C110	C	0.761541	-0.015005	0.799811
N111	N	0.792426	-0.045870	0.837337
C112	C	0.734697	0.011779	0.471740
N113	N	0.768352	-0.021861	0.434213
C114	C	0.668741	-0.208936	0.164776
N115	N	0.666030	-0.231144	0.229766
C116	C	0.256623	-0.086084	0.000076
N117	N	0.287088	-0.128818	0.000075
H118	H	0.404516	-0.017445	0.000049
C119	C	0.493026	0.187197	-0.000009
N120	N	0.511754	0.230518	-0.000015
H121	H	0.621523	0.124885	0.515400
C122	C	0.368304	0.185706	0.000007
N123	N	0.337837	0.228438	-0.000002
H124	H	0.206233	0.220911	0.000026
C125	C	-0.053431	0.180656	0.000013
N126	N	-0.034699	0.223975	0.000006
C127	C	0.087973	0.234354	0.000037
N128	N	0.057502	0.277084	0.000029
C129	C	-0.178175	0.179158	0.000025
N130	N	-0.208660	0.221879	0.000029
C131	C	0.670238	-0.084192	0.164779
N132	N	0.668114	-0.057183	0.229762
C133	C	0.680964	-0.221048	-0.164681
N134	N	0.683089	-0.248038	-0.229682
H135	H	0.681536	-0.103989	-0.142246
H136	H	0.681142	-0.380111	-0.220711
H137	H	0.674944	-0.650452	-0.142304
H138	H	0.735082	0.011397	0.213226
C139	C	0.680595	-0.497168	-0.243138
N140	N	0.682741	-0.524159	-0.308140
H141	H	0.729005	0.017474	0.377534
C142	C	0.768568	-0.022042	0.609613
N143	N	0.802229	-0.055684	0.572100
