data_functionalizedCrystal
_audit_creation_method	'MofGen! by Chris Wilmer'
_symmetry_space_group_name_H-M	'P1'
_symmetry_Int_Tables_number	1
_symmetry_cell_setting	triclinic
loop_
_symmetry_equiv_pos_as_xyz
  x,y,z
_cell_length_a	19.288866
_cell_length_b	19.288874
_cell_length_c	18.366186
_cell_angle_alpha	89.993232
_cell_angle_beta	90.007516
_cell_angle_gamma	96.861565
loop_
_atom_site_label
_atom_site_type_symbol
_atom_site_fract_x
_atom_site_fract_y
_atom_site_fract_z
O1	O	-0.921355	0.086651	-0.060524
O2	O	-0.421355	0.586651	0.439476
O3	O	-0.719095	0.098339	-0.060532
O4	O	-0.219095	0.598339	0.439468
O5	O	-0.826066	-0.008634	-0.060522
O6	O	-0.326066	0.491366	0.439478
O7	O	-0.814384	0.193625	-0.060534
O8	O	-0.314384	0.693625	0.439466
O9	O	-0.826048	-0.008640	0.060577
O10	O	-0.326048	0.491360	0.560577
O11	O	-0.719077	0.098334	0.060568
O12	O	-0.219077	0.598334	0.560568
O13	O	-0.921337	0.086646	0.060575
O14	O	-0.421337	0.586646	0.560575
Zn15	Zn	-0.820204	0.092489	0.079799
Zn16	Zn	-0.320204	0.592489	0.579799
Zn17	Zn	-0.820228	0.092496	-0.079755
Zn18	Zn	-0.320228	0.592496	0.420245
O19	O	-0.814366	0.193620	0.060566
O20	O	-0.314366	0.693620	0.560566
C21	C	-0.693210	0.097961	0.000017
C22	C	-0.193210	0.597961	0.500017
C23	C	-0.616106	0.096831	0.000015
C24	C	-0.116106	0.596831	0.500015
C25	C	-0.060550	0.088700	-0.065988
C26	C	0.439450	0.588700	0.434012
C27	C	-0.132998	0.089757	-0.065991
C28	C	0.367002	0.589757	0.434009
C29	C	-0.169216	0.090286	0.000020
C30	C	0.330784	0.590286	0.500020
C31	C	-0.132984	0.089740	0.066039
C32	C	0.367016	0.589740	0.566039
C33	C	-0.060539	0.088676	0.066040
C34	C	0.439461	0.588676	0.566040
C35	C	-0.278538	0.132651	0.050591
C36	C	0.221462	0.632651	0.550591
C37	C	-0.350981	0.133719	0.050587
C38	C	0.149019	0.633719	0.550587
C39	C	-0.392662	0.093564	0.000020
C40	C	0.107338	0.593564	0.500020
C41	C	-0.361890	0.052350	-0.050555
C42	C	0.138110	0.552350	0.449445
C43	C	-0.289445	0.051286	-0.050554
C44	C	0.210555	0.551286	0.449446
C45	C	-0.247771	0.091439	0.000027
C46	C	0.252229	0.591439	0.500027
C47	C	-0.507443	0.095251	-0.065997
C48	C	-0.007443	0.595251	0.434003
C49	C	-0.579892	0.096304	-0.065997
C50	C	-0.079892	0.596304	0.434003
C51	C	-0.579876	0.096294	0.066035
C52	C	-0.079876	0.596294	0.566035
C53	C	-0.507429	0.095234	0.066033
C54	C	-0.007429	0.595234	0.566033
C55	C	-0.471216	0.094716	0.000015
C56	C	0.028784	0.594716	0.500015
C57	C	-0.825680	-0.034513	0.000028
C58	C	-0.325680	0.465487	0.500028
C59	C	-0.824548	-0.111617	0.000027
C60	C	-0.324548	0.388383	0.500027
C61	C	-0.816413	-0.667189	0.066020
C62	C	-0.316413	-0.167189	0.566020
C63	C	-0.817468	-0.594741	0.066024
C64	C	-0.317468	-0.094741	0.566024
C65	C	-0.818010	-0.558507	0.000014
C66	C	-0.318010	-0.058507	0.500014
C67	C	-0.817477	-0.594724	-0.066005
C68	C	-0.317477	-0.094724	0.433995
C69	C	-0.816414	-0.667170	-0.066007
C70	C	-0.316414	-0.167170	0.433993
C71	C	-0.860382	-0.449173	-0.050556
C72	C	-0.360382	0.050827	0.449444
C73	C	-0.861450	-0.376730	-0.050551
C74	C	-0.361450	0.123270	0.449449
C75	C	-0.821284	-0.335061	0.000018
C76	C	-0.321284	0.164939	0.500018
C77	C	-0.780061	-0.365845	0.050594
C78	C	-0.280061	0.134155	0.550594
C79	C	-0.778998	-0.438291	0.050591
C80	C	-0.278998	0.061709	0.550591
C81	C	-0.819162	-0.479952	0.000009
C82	C	-0.319162	0.020048	0.500009
C83	C	-0.822957	-0.220295	0.066037
C84	C	-0.322957	0.279705	0.566037
C85	C	-0.824008	-0.147846	0.066038
C86	C	-0.324008	0.352154	0.566038
C87	C	-0.824024	-0.147831	-0.065993
C88	C	-0.324024	0.352169	0.434007
C89	C	-0.822965	-0.220279	-0.065993
C90	C	-0.322965	0.279721	0.434007
C91	C	-0.822435	-0.256507	0.000025
C92	C	-0.322435	0.243493	0.500025
C93	C	0.052777	0.087026	0.000025
C94	C	0.552777	0.587026	0.500025
C95	C	-0.024326	0.088158	0.000022
C96	C	0.475674	0.588158	0.500022
C97	C	-0.814752	0.219499	0.000014
C98	C	-0.314752	0.719499	0.500014
C99	C	-0.815884	0.296602	0.000010
C100	C	-0.315884	0.796602	0.500010
N101	N	-0.820193	0.092484	0.188690
N102	N	-0.320193	0.592484	0.688690
N103	N	-0.820245	0.092496	-0.188646
N104	N	-0.320245	0.592496	0.311354
C105	C	-0.867575	0.045139	0.226794
C106	C	-0.367575	0.545139	0.726794
C107	C	-0.867580	0.045136	0.303022
C108	C	-0.367580	0.545136	0.803022
C109	C	-0.820208	0.092490	0.341142
C110	C	-0.320208	0.592490	0.841142
C111	C	-0.772817	0.139838	0.303029
C112	C	-0.272817	0.639838	0.803029
C113	C	-0.772810	0.139836	0.226802
C114	C	-0.272810	0.639836	0.726802
C115	C	-0.810912	0.155777	0.461899
C116	C	-0.310912	0.655777	0.961899
C117	C	-0.810925	0.155781	0.538124
C118	C	-0.310925	0.655781	1.038124
C119	C	-0.820228	0.092499	0.576250
C120	C	-0.320228	0.592499	1.076250
C121	C	-0.829534	0.029210	0.538142
C122	C	-0.329534	0.529210	1.038142
C123	C	-0.829526	0.029207	0.461915
C124	C	-0.329526	0.529207	0.961915
C125	C	-0.820211	0.092498	0.423797
C126	C	-0.320211	0.592498	0.923797
C127	C	-0.867618	0.045147	0.697010
C128	C	-0.367618	0.545147	1.197010
C129	C	-0.867617	0.045143	0.773239
C130	C	-0.367617	0.545143	1.273239
C131	C	-0.772858	0.139851	0.773244
C132	C	-0.272858	0.639851	1.273244
C133	C	-0.772856	0.139849	0.697016
C134	C	-0.272856	0.639849	1.197016
C135	C	-0.820239	0.092497	0.658903
C136	C	-0.320239	0.592497	1.158903
H137	H	-0.244607	0.165346	0.091777
H138	H	0.255393	0.665346	0.591777
H139	H	-0.815983	-0.696651	-0.119763
H140	H	-0.315983	-0.196651	0.380237
C141	C	-0.720750	0.191941	0.815172
C142	C	-0.220750	0.691941	1.315172
N143	N	-0.681500	0.231177	0.846755
N144	N	-0.181500	0.731177	1.346755
H145	H	-0.162478	0.090169	0.119786
H146	H	0.337522	0.590169	0.619786
C147	C	-0.904567	-0.495002	-0.106191
C148	C	-0.404567	0.004998	0.393809
N149	N	-0.937845	-0.529519	-0.148096
N150	N	-0.437845	-0.029519	0.351904
H151	H	-0.815980	-0.696681	0.119777
H152	H	-0.315980	-0.196681	0.619777
H153	H	-0.817915	-0.565218	-0.119752
H154	H	-0.317915	-0.065218	0.380248
H155	H	-0.906156	0.006582	0.195765
H156	H	-0.406156	0.506582	0.695765
C157	C	-0.720713	0.191951	0.184886
C158	C	-0.220713	0.691951	0.684886
N159	N	-0.681485	0.231217	0.153313
N160	N	-0.181485	0.731217	0.653313
H161	H	-0.376028	0.167295	0.091754
H162	H	0.123972	0.667295	0.591754
H163	H	-0.824437	-0.118365	0.119794
H164	H	-0.324437	0.381635	0.619794
C165	C	-0.619714	0.096868	0.138648
C166	C	-0.119714	0.596868	0.638648
N167	N	-0.649723	0.097297	0.193342
N168	N	-0.149723	0.597297	0.693342
C169	C	-0.818057	-0.554904	0.138644
C170	C	-0.318057	-0.054904	0.638644
N171	N	-0.818502	-0.524901	0.193342
N172	N	-0.318502	-0.024901	0.693342
H173	H	-0.824456	-0.118329	-0.119740
H174	H	-0.324456	0.381671	0.380260
H175	H	-0.837109	-0.022321	0.569182
H176	H	-0.337109	0.477679	1.069182
H177	H	-0.906165	0.006581	0.334053
H178	H	-0.406165	0.506581	0.834053
H179	H	-0.906198	0.006588	0.665977
H180	H	-0.406198	0.506588	1.165977
H181	H	-0.031070	0.088276	-0.119745
H182	H	0.468930	0.588276	0.380255
C183	C	-0.407734	0.008175	-0.106183
C184	C	0.092266	0.508175	0.393817
N185	N	-0.442267	-0.025095	-0.148081
N186	N	0.057733	0.474905	0.351919
C187	C	-0.720706	0.191925	0.344962
C188	C	-0.220706	0.691925	0.844962
N189	N	-0.681452	0.231155	0.376547
N190	N	-0.181452	0.731155	0.876547
C191	C	-0.839752	-0.040410	0.419999
C192	C	-0.339752	0.459590	0.919999
N193	N	-0.847451	-0.092846	0.388428
N194	N	-0.347451	0.407154	0.888428
H195	H	-0.906199	0.006585	0.804264
H196	H	-0.406199	0.506585	1.304264
C197	C	-0.822365	-0.260148	0.138657
C198	C	-0.322365	0.239852	0.638657
N199	N	-0.821917	-0.290162	0.193355
N200	N	-0.321917	0.209838	0.693355
C201	C	-0.720781	0.191983	0.655099
C202	C	-0.220781	0.691983	1.155099
N203	N	-0.681571	0.231268	0.623528
N204	N	-0.181571	0.731268	1.123528
C205	C	-0.733647	-0.472150	0.106217
C206	C	-0.233647	0.027850	0.606217
N207	N	-0.699484	-0.497653	0.148113
N208	N	-0.199484	0.002347	0.648113
H209	H	-0.162497	0.090202	-0.119746
H210	H	0.337503	0.590202	0.380254
H211	H	-0.264393	0.017727	-0.091734
H212	H	0.235607	0.517727	0.408266
C213	C	-0.906798	-0.342874	-0.106182
C214	C	-0.406798	0.157126	0.393818
N215	N	-0.940956	-0.317376	-0.148086
N216	N	-0.440956	0.182624	0.351914
C217	C	-0.467607	0.094673	-0.138617
C218	C	0.032393	0.594673	0.361383
N219	N	-0.437605	0.094236	-0.193316
N220	N	0.062395	0.594236	0.306684
C221	C	-0.619740	0.096892	-0.138617
C222	C	-0.119740	0.596892	0.361383
N223	N	-0.649754	0.097333	-0.193316
N224	N	-0.149754	0.597333	0.306684
C225	C	-0.467578	0.094654	0.138650
C226	C	0.032422	0.594654	0.638650
N227	N	-0.437563	0.094220	0.193349
N228	N	0.062437	0.594220	0.693349
C229	C	-0.020689	0.088089	0.138659
C230	C	0.479311	0.588089	0.638659
N231	N	0.009327	0.087652	0.193357
N232	N	0.509327	0.587652	0.693357
C233	C	-0.735875	-0.320014	0.106223
C234	C	-0.235875	0.179986	0.606223
N235	N	-0.702597	-0.285492	0.148123
N236	N	-0.202597	0.214508	0.648123
C237	C	-0.800682	0.225400	0.580035
C238	C	-0.300682	0.725400	1.080035
N239	N	-0.792963	0.277839	0.611602
N240	N	-0.292963	0.777839	1.111602
H241	H	-0.822540	-0.249761	-0.119746
H242	H	-0.322540	0.250239	0.380254
H243	H	-0.803325	0.207313	0.430863
H244	H	-0.303325	0.707313	0.930863
