data_functionalizedCrystal
_audit_creation_method	'MofGen! by Chris Wilmer'
_symmetry_space_group_name_H-M	'P1'
_symmetry_Int_Tables_number	1
_symmetry_cell_setting	triclinic
loop_
_symmetry_equiv_pos_as_xyz
  x,y,z
_cell_length_a	14.519731
_cell_length_b	14.519731
_cell_length_c	16.776229
_cell_angle_alpha	89.992369
_cell_angle_beta	89.992771
_cell_angle_gamma	83.688853
loop_
_atom_site_label
_atom_site_type_symbol
_atom_site_fract_x
_atom_site_fract_y
_atom_site_fract_z
O1	O	1.223868	0.120986	-0.066292
O2	O	1.557201	0.454319	0.267042
O3	O	1.890535	0.787652	0.600375
O4	O	0.955395	0.135202	-0.066293
O5	O	1.288728	0.468535	0.267040
O6	O	1.622061	0.801868	0.600373
O7	O	1.096739	-0.006143	-0.066285
O8	O	1.430073	0.327190	0.267048
O9	O	1.763406	0.660524	0.600382
O10	O	1.082523	0.262330	-0.066300
O11	O	1.415857	0.595664	0.267034
O12	O	1.749190	0.928997	0.600367
O13	O	1.096720	-0.006152	0.066291
O14	O	1.430054	0.327182	0.399625
O15	O	1.763387	0.660515	0.732958
O16	O	0.955376	0.135193	0.066283
O17	O	1.288709	0.468526	0.399617
O18	O	1.622043	0.801860	0.732950
O19	O	1.223849	0.120977	0.066285
O20	O	1.557182	0.454310	0.399618
O21	O	1.890516	0.787644	0.732951
Zn22	Zn	1.089610	0.128084	0.087333
Zn23	Zn	1.422943	0.461417	0.420667
Zn24	Zn	1.756276	0.794750	0.754000
Zn25	Zn	1.089634	0.128095	-0.087342
Zn26	Zn	1.422968	0.461428	0.245992
Zn27	Zn	1.756301	0.794762	0.579325
O28	O	1.082505	0.262322	0.066277
O29	O	1.415838	0.595655	0.399610
O30	O	1.749171	0.928988	0.732943
C31	C	0.921026	0.134531	-0.000005
C32	C	1.254359	0.467864	0.333328
C33	C	1.587693	0.801198	0.666662
C34	C	0.818645	0.132535	-0.000005
C35	C	1.151979	0.465868	0.333328
C36	C	1.485312	0.799202	0.666661
C37	C	0.735501	0.130913	-0.000008
C38	C	1.068835	0.464247	0.333325
C39	C	1.402168	0.797580	0.666658
C40	C	0.631192	0.128887	-0.000009
C41	C	0.964526	0.462220	0.333325
C42	C	1.297859	0.795553	0.666658
C43	C	0.548053	0.127278	-0.000009
C44	C	0.881386	0.460612	0.333325
C45	C	1.214720	0.793945	0.666658
C46	C	0.443738	0.125252	-0.000010
C47	C	0.777071	0.458585	0.333323
C48	C	1.110404	0.791919	0.666656
C49	C	1.096064	-0.040507	0.000003
C50	C	1.429397	0.292827	0.333337
C51	C	1.762730	0.626160	0.666670
C52	C	1.094068	-0.142887	0.000004
C53	C	1.427401	0.190446	0.333337
C54	C	1.760734	0.523780	0.666670
C55	C	1.092446	-0.226031	0.000002
C56	C	1.425779	0.107302	0.333335
C57	C	1.759113	0.440635	0.666669
C58	C	1.090419	-0.330340	-0.000004
C59	C	1.423753	0.002993	0.333329
C60	C	1.757086	0.336326	0.666662
C61	C	1.088811	-0.413479	-0.000009
C62	C	1.422144	-0.080146	0.333324
C63	C	1.755478	0.253187	0.666657
C64	C	1.086785	-0.517795	-0.000014
C65	C	1.420118	-0.184462	0.333319
C66	C	1.753451	0.148872	0.666653
C67	C	1.258218	0.121648	-0.000005
C68	C	1.591551	0.454981	0.333328
C69	C	1.924885	0.788314	0.666662
C70	C	1.360598	0.123644	-0.000010
C71	C	1.693932	0.456977	0.333323
C72	C	2.027265	0.790310	0.666657
C73	C	1.083180	0.296685	-0.000013
C74	C	1.416513	0.630019	0.333320
C75	C	1.749847	0.963352	0.666653
C76	C	1.085176	0.399066	-0.000019
C77	C	1.418509	0.732399	0.333314
C78	C	1.751843	1.065732	0.666648
N79	N	1.089599	0.128075	0.206545
N80	N	1.422933	0.461408	0.539878
N81	N	1.756266	0.794742	0.873211
N82	N	1.089652	0.128096	-0.206553
N83	N	1.422985	0.461430	0.126780
N84	N	1.756318	0.794763	0.460114
C85	C	1.152206	0.065514	0.248265
C86	C	1.485539	0.398847	0.581599
C87	C	1.818873	0.732180	0.914932
C88	C	1.152211	0.065513	0.331717
C89	C	1.485544	0.398846	0.665051
C90	C	1.818878	0.732179	0.998384
C91	C	1.089613	0.128079	0.373448
C92	C	1.422947	0.461412	0.706781
C93	C	1.756280	0.794745	1.040114
C94	C	1.027000	0.190643	0.331721
C95	C	1.360333	0.523977	0.665054
C96	C	1.693667	0.857310	0.998388
C97	C	1.026991	0.190639	0.248270
C98	C	1.360325	0.523972	0.581604
C99	C	1.693658	0.857306	0.914937
C100	C	1.027033	0.190662	0.668268
C101	C	1.360367	0.523995	1.001602
C102	C	1.693700	0.857328	1.334935
C103	C	1.027049	0.190663	0.751725
C104	C	1.360382	0.523996	1.085058
C105	C	1.693716	0.857330	1.418391
C106	C	1.152253	0.065535	0.751715
C107	C	1.485587	0.398869	1.085049
C108	C	1.818920	0.732202	1.418382
C109	C	1.152244	0.065531	0.668265
C110	C	1.485578	0.398864	1.001598
C111	C	1.818911	0.732198	1.334931
C112	C	1.089628	0.128092	0.626545
C113	C	1.422962	0.461425	0.959879
C114	C	1.756295	0.794759	1.293212
C115	C	1.089622	0.128091	0.536057
C116	C	1.422956	0.461424	0.869390
C117	C	1.756289	0.794757	1.202724
C118	C	1.089623	0.128085	0.463934
C119	C	1.422956	0.461418	0.797268
C120	C	1.756290	0.794752	1.130601
H121	H	1.203184	0.014569	0.214294
H122	H	1.536517	0.347902	0.547627
H123	H	1.869851	0.681236	0.880961
N124	N	1.216165	0.001598	0.374321
N125	N	1.549498	0.334931	0.707655
N126	N	1.882831	0.668264	1.040988
N127	N	1.272053	-0.054257	0.337053
N128	N	1.605386	0.279076	0.670387
N129	N	1.938720	0.612409	1.003720
H130	H	1.317223	-0.099402	0.367141
H131	H	1.650556	0.233931	0.700475
H132	H	1.983890	0.567265	1.033808
H133	H	1.203220	0.014587	0.634291
H134	H	1.536554	0.347920	0.967624
H135	H	1.869887	0.681254	1.300957
N136	N	1.216206	0.001631	0.794344
N137	N	1.549539	0.334964	1.127677
N138	N	1.882873	0.668297	1.461011
N139	N	1.216207	0.001636	0.868853
N140	N	1.549540	0.334969	1.202186
N141	N	1.882874	0.668302	1.535519
H142	H	1.261373	-0.043495	0.898959
H143	H	1.594706	0.289839	1.232292
H144	H	1.928039	0.623172	1.565626
N145	N	0.963097	0.254583	0.794340
N146	N	1.296431	0.587916	1.127674
N147	N	1.629764	0.921249	1.461007
N148	N	0.907195	0.310435	0.757083
N149	N	1.240528	0.643768	1.090416
N150	N	1.573862	0.977102	1.423750
H151	H	0.862032	0.355577	0.787179
H152	H	1.195365	0.688910	1.120513
H153	H	1.528698	1.022244	1.453846
H154	H	0.976027	0.241583	0.365702
H155	H	1.309361	0.574916	0.699036
H156	H	1.642694	0.908249	1.032369
N157	N	0.963066	0.254566	0.625673
N158	N	1.296399	0.587899	0.959006
N159	N	1.629733	0.921233	1.292339
N160	N	0.907181	0.310421	0.662944
N161	N	1.240515	0.643755	0.996278
N162	N	1.573848	0.977088	1.329611
H163	H	0.862000	0.355557	0.632859
H164	H	1.195333	0.688890	0.966192
H165	H	1.528666	1.022224	1.299526
N166	N	0.963030	0.254547	0.205663
N167	N	1.296364	0.587880	0.538997
N168	N	1.629697	0.921213	0.872330
N169	N	0.907143	0.310405	0.242929
N170	N	1.240476	0.643738	0.576263
N171	N	1.573809	0.977071	0.909596
H172	H	0.861965	0.355540	0.212840
H173	H	1.195298	0.688873	0.546173
H174	H	1.528631	1.022206	0.879506
