data_functionalizedCrystal
_audit_creation_method	'MofGen! by Chris Wilmer'
_symmetry_space_group_name_H-M	'P1'
_symmetry_Int_Tables_number	1
_symmetry_cell_setting	triclinic
loop_
_symmetry_equiv_pos_as_xyz
  x,y,z
_cell_length_a	13.897449
_cell_length_b	29.839131
_cell_length_c	13.897441
_cell_angle_alpha	89.958174
_cell_angle_beta	89.981404
_cell_angle_gamma	90.036508
loop_
_atom_site_label
_atom_site_type_symbol
_atom_site_fract_x
_atom_site_fract_y
_atom_site_fract_z
Zn1	Zn	1.474565	-0.178828	-0.545299
Zn2	Zn	1.474415	-0.253962	-0.383966
Zn3	Zn	1.313260	-0.178848	-0.384018
Zn4	Zn	1.313186	-0.253933	-0.545219
O5	O	1.393857	-0.216393	-0.464626
O6	O	1.609527	-0.188798	-0.523910
O7	O	1.453006	-0.244018	-0.248992
O8	O	1.334751	-0.115978	-0.405467
O9	O	1.609417	-0.243998	-0.405380
O10	O	1.453261	-0.115964	-0.523960
O11	O	1.334606	-0.188832	-0.249029
O12	O	1.178268	-0.188805	-0.405389
O13	O	1.334625	-0.243950	-0.680211
O14	O	1.178214	-0.243970	-0.523823
O15	O	1.453189	-0.188771	-0.680270
O16	O	1.452935	-0.316825	-0.405302
O17	O	1.334480	-0.316804	-0.523773
C18	C	1.143242	-0.216387	-0.464604
C19	C	1.036028	-0.216395	-0.464617
C20	C	0.839733	-0.216397	-0.464642
C21	C	0.948966	-0.216394	-0.464626
C22	C	1.393709	-0.333115	-0.464544
C23	C	1.393735	-0.383050	-0.464542
C24	C	1.455551	-0.692651	-0.526413
C25	C	1.455656	-0.880324	-0.526471
O26	O	1.508070	-0.904552	-0.579015
N27	N	1.394020	-0.903835	-0.464733
C28	C	1.332350	-0.880425	-0.402980
O29	O	1.279920	-0.904729	-0.350476
C30	C	1.332241	-0.692753	-0.402928
C31	C	1.393887	-0.669244	-0.464663
C32	C	1.517192	-0.669142	-0.588144
C33	C	1.517169	-0.622226	-0.588125
C34	C	1.455505	-0.598820	-0.526375
C35	C	1.393864	-0.622328	-0.464644
C36	C	1.270566	-0.669344	-0.341181
C37	C	1.270543	-0.622423	-0.341175
C38	C	1.332189	-0.598914	-0.402910
C39	C	1.332177	-0.552006	-0.402876
N40	N	1.393813	-0.528495	-0.464614
C41	C	1.455477	-0.551902	-0.526363
C42	C	1.332413	-0.978955	-0.403011
C43	C	1.332441	-1.025873	-0.403022
C44	C	1.455746	-1.025769	-0.526515
C45	C	1.455722	-0.978850	-0.526497
C46	C	1.394048	-0.955444	-0.464749
C47	C	1.455424	-0.453376	-0.526319
C48	C	1.455399	-0.406456	-0.526292
C49	C	1.332090	-0.406565	-0.402803
C50	C	1.332119	-0.453481	-0.402827
C51	C	1.393789	-0.476885	-0.464592
O52	O	1.279783	-0.527749	-0.350366
O53	O	1.507883	-0.527590	-0.578874
C54	C	1.455574	-0.739566	-0.526432
C55	C	1.393934	-0.763075	-0.464701
C56	C	1.332270	-0.739668	-0.402951
C57	C	1.393962	-0.809993	-0.464712
C58	C	1.455626	-0.833399	-0.526462
C59	C	1.517261	-0.809888	-0.588200
C60	C	1.517238	-0.762973	-0.588181
C61	C	1.270634	-0.763179	-0.341213
C62	C	1.270663	-0.810095	-0.341236
C63	C	1.332327	-0.833502	-0.402986
C64	C	1.645449	-0.216399	-0.464648
C65	C	1.752663	-0.216402	-0.464658
C66	C	1.393916	-0.216355	-0.716219
C67	C	1.393941	-0.216339	-0.823433
C68	C	1.394030	-0.099214	-0.464728
C69	C	1.394105	-0.049280	-0.464772
C70	C	1.393961	-0.216326	-0.910503
C71	C	1.393988	-0.216306	-1.019735
C72	C	1.393853	-0.216398	-0.214011
C73	C	1.394015	-0.216287	-0.106798
H74	H	1.505602	-0.387317	-0.576564
O75	O	1.521938	-0.478618	-0.592932
H76	H	1.597645	-0.469589	-0.576443
O77	O	1.265964	-1.051224	-0.336418
H78	H	1.276343	-1.087783	-0.346785
H79	H	1.567364	-0.603088	-0.638398
O80	O	1.265653	-0.478843	-0.336226
H81	H	1.216565	-0.500224	-0.379357
H82	H	1.220367	-0.688477	-0.290909
H83	H	1.220317	-0.603368	-0.290893
O84	O	1.583710	-0.694384	-0.654747
H85	H	1.626565	-0.670147	-0.697658
O86	O	1.522244	-1.051020	-0.593129
H87	H	1.571353	-1.072398	-0.550015
H88	H	1.282189	-0.959902	-0.352725
H89	H	1.220465	-0.829232	-0.290955
H90	H	1.505919	-0.959712	-0.576768
O91	O	1.265580	-0.381316	-0.336205
H92	H	1.275918	-0.344742	-0.346578
O93	O	1.583738	-0.737619	-0.654757
H94	H	1.626614	-0.761784	-0.697693
O95	O	1.204136	-0.737936	-0.274594
H96	H	1.161295	-0.762171	-0.231664
H97	H	1.567474	-0.828954	-0.638476
