data_functionalizedCrystal
_audit_creation_method	'MofGen! by Chris Wilmer'
_symmetry_space_group_name_H-M	'P1'
_symmetry_Int_Tables_number	1
_symmetry_cell_setting	triclinic
loop_
_symmetry_equiv_pos_as_xyz
  x,y,z
_cell_length_a	6.817900
_cell_length_b	15.301048
_cell_length_c	12.908943
_cell_angle_alpha	95.516544
_cell_angle_beta	100.860631
_cell_angle_gamma	104.176180
loop_
_atom_site_label
_atom_site_type_symbol
_atom_site_fract_x
_atom_site_fract_y
_atom_site_fract_z
V1	V	-3.999623	-0.123633	-0.329004
O2	O	-3.984114	0.007099	-0.322407
O3	O	-3.954729	-0.246257	-0.327075
O4	O	-3.937833	-0.121223	-0.472347
O5	O	-4.001126	-0.118800	-0.176129
V6	V	-4.484531	-0.108056	-0.310680
O7	O	-4.257842	-0.157802	-0.369199
O8	O	-4.676510	-0.073886	-0.270484
O9	O	-4.306219	0.014568	-0.312608
O10	O	-4.617437	-0.238787	-0.317277
O11	O	-4.600424	-0.112888	-0.463555
O12	O	-4.323114	-0.110466	-0.167337
C13	C	-3.801016	-0.276166	-0.321968
C14	C	-3.845507	-0.376409	-0.321347
C15	C	-4.005495	-0.795643	-0.222064
C16	C	-3.963685	-0.701455	-0.222654
C17	C	-3.974414	-0.666910	-0.319522
C18	C	-4.026939	-0.726559	-0.415806
C19	C	-4.068734	-0.820745	-0.415215
C20	C	-3.939826	-0.530243	-0.417032
C21	C	-3.898032	-0.436051	-0.417623
C22	C	-3.834777	-0.410953	-0.224471
C23	C	-3.876572	-0.505139	-0.223880
C24	C	-3.929098	-0.564782	-0.320164
C25	C	-3.779463	-0.116671	-0.507275
C26	C	-3.810250	-0.115512	-0.624461
C27	C	-4.231608	-0.122283	-0.855426
C28	C	-4.260545	-0.121194	-0.965533
C29	C	-3.897059	-0.112240	-0.954783
C30	C	-3.868122	-0.113329	-0.844676
C31	C	-4.035406	-0.118351	-0.795002
C32	C	-4.006470	-0.119446	-0.684894
C33	C	-3.642983	-0.110486	-0.674145
C34	C	-3.671920	-0.109398	-0.784252
C35	C	-4.123274	0.044473	-0.317713
C36	C	-4.058020	0.144715	-0.318341
C37	C	-4.144827	-0.115020	-0.132403
C38	C	-4.093279	-0.116174	-0.015216
H39	H	-3.996762	-0.823762	-0.143183
Br40	Br	-3.892391	-0.620515	-0.091987
H41	H	-3.535728	-0.105305	-0.824712
Br42	Br	-3.763398	-0.330008	-0.093796
Br43	Br	-4.011174	-0.611188	-0.547706
H44	H	-3.483219	-0.107289	-0.624937
H45	H	-3.867848	-0.533263	-0.145002
Br46	Br	-3.912605	-0.389168	-0.549089
H47	H	-4.035659	-0.698425	-0.494677
H48	H	-4.111497	-0.869305	-0.493613
H49	H	-4.142684	-0.123540	-0.644452
Br50	Br	-4.526826	-0.126523	-1.047534
Br51	Br	-3.670062	-0.105427	-1.022218
H52	H	-4.367822	-0.126382	-0.814982
