data_functionalizedCrystal
_audit_creation_method	'MofGen! by Chris Wilmer'
_symmetry_space_group_name_H-M	'P1'
_symmetry_Int_Tables_number	1
_symmetry_cell_setting	triclinic
loop_
_symmetry_equiv_pos_as_xyz
  x,y,z
_cell_length_a	11.792241
_cell_length_b	17.038272
_cell_length_c	10.868271
_cell_angle_alpha	89.994627
_cell_angle_beta	89.999893
_cell_angle_gamma	87.652486
loop_
_atom_site_label
_atom_site_type_symbol
_atom_site_fract_x
_atom_site_fract_y
_atom_site_fract_z
O1	O	1.516303	0.107207	-0.102203
O2	O	2.016303	0.607207	0.397797
O3	O	1.186930	0.118256	-0.102232
O4	O	1.686930	0.618256	0.397768
O5	O	1.349659	-0.001093	-0.102208
O6	O	1.849659	0.498907	0.397792
O7	O	1.353574	0.226555	-0.102227
O8	O	1.853574	0.726555	0.397773
O9	O	1.349644	-0.001097	0.102436
O10	O	1.849644	0.498903	0.602436
O11	O	1.186915	0.118251	0.102412
O12	O	1.686915	0.618251	0.602412
O13	O	1.516288	0.107202	0.102441
O14	O	2.016288	0.607202	0.602441
Zn15	Zn	1.351599	0.112726	0.134919
Zn16	Zn	1.851599	0.612726	0.634919
Zn17	Zn	1.351618	0.112732	-0.134710
Zn18	Zn	1.851618	0.612732	0.365290
O19	O	1.353559	0.226551	0.102417
O20	O	1.853559	0.726551	0.602417
C21	C	1.144571	0.117559	0.000086
C22	C	1.644571	0.617559	0.500086
C23	C	1.018375	0.115482	0.000076
C24	C	1.518375	0.615482	0.500076
C25	C	0.787328	0.111662	0.000111
C26	C	1.287328	0.611662	0.500111
C27	C	0.915899	0.113785	0.000092
C28	C	1.415899	0.613785	0.500092
C29	C	1.346090	-0.030239	0.000114
C30	C	1.846090	0.469761	0.500114
C31	C	1.335466	-0.117079	0.000112
C32	C	1.835466	0.382921	0.500112
C33	C	1.433006	-0.166762	0.000122
C34	C	1.933006	0.333238	0.500122
C35	C	1.423017	-0.248357	0.000110
C36	C	1.923017	0.251643	0.500110
C37	C	1.315487	-0.280267	0.000096
C38	C	1.815487	0.219733	0.500096
C39	C	1.217940	-0.230577	0.000083
C40	C	1.717940	0.269423	0.500083
C41	C	1.227930	-0.148984	0.000086
C42	C	1.727930	0.351016	0.500086
C43	C	1.280194	-0.526181	0.000076
C44	C	1.780194	-0.026181	0.500076
C45	C	1.270211	-0.607780	0.000076
C46	C	1.770211	-0.107780	0.500076
C47	C	1.475289	-0.625554	0.000101
C48	C	1.975289	-0.125554	0.500101
C49	C	1.485270	-0.543958	0.000112
C50	C	1.985270	-0.043958	0.500112
C51	C	1.387723	-0.494276	0.000092
C52	C	1.887723	0.005724	0.500092
C53	C	1.305274	-0.363669	0.000087
C54	C	1.805274	0.136331	0.500087
C55	C	1.397937	-0.410875	0.000092
C56	C	1.897937	0.089125	0.500092
C57	C	1.558647	0.107899	0.000120
C58	C	2.058647	0.607899	0.500120
C59	C	1.684843	0.109976	0.000122
C60	C	2.184843	0.609976	0.500122
C61	C	1.357127	0.255697	0.000093
C62	C	1.857127	0.755697	0.500093
C63	C	1.367751	0.342537	0.000086
C64	C	1.867751	0.842537	0.500086
N65	N	1.351594	0.112721	0.318933
N66	N	1.851594	0.612721	0.818933
N67	N	1.351632	0.112731	-0.318724
N68	N	1.851632	0.612731	0.181276
C69	C	1.351612	0.112730	0.569939
C70	C	1.851612	0.612730	1.069939
C71	C	1.351599	0.112728	0.430261
C72	C	1.851599	0.612728	0.930261
H73	H	1.520568	-0.140788	0.000141
H74	H	2.020568	0.359212	0.500141
H75	H	1.200764	-0.485738	0.000060
H76	H	1.700764	0.014262	0.500060
H77	H	1.485487	-0.384890	0.000076
H78	H	1.985487	0.115110	0.500076
C79	C	1.163844	-0.724967	0.000077
C80	C	1.663844	-0.224967	0.500077
C81	C	1.152006	-0.642858	0.000062
C82	C	1.652006	-0.142858	0.500062
H83	H	1.090872	-0.746621	0.000080
H84	H	1.590872	-0.246621	0.500080
H85	H	1.204338	-0.741982	-0.071277
H86	H	1.704338	-0.241982	0.428723
H87	H	1.204335	-0.741981	0.071452
H88	H	1.704335	-0.241981	0.571452
H89	H	1.111522	-0.625843	-0.071318
H90	H	1.611522	-0.125843	0.428682
H91	H	1.111495	-0.625835	0.071423
H92	H	1.611495	-0.125835	0.571423
H93	H	1.502445	-0.288806	0.000120
H94	H	2.002445	0.211194	0.500120
C95	C	1.686978	-0.569726	0.000135
C96	C	2.186978	-0.069726	0.500135
C97	C	1.603471	-0.508886	0.000129
C98	C	2.103471	-0.008886	0.500129
H99	H	1.759949	-0.548072	0.000144
H100	H	2.259949	-0.048072	0.500144
H101	H	1.678806	-0.601186	0.071489
H102	H	2.178806	-0.101186	0.571489
H103	H	1.678821	-0.601175	-0.071240
H104	H	2.178821	-0.101175	0.428760
H105	H	1.611623	-0.477440	0.071508
H106	H	2.111623	0.022560	0.571508
H107	H	1.611646	-0.477413	-0.071233
H108	H	2.111646	0.022587	0.428767
H109	H	1.148503	-0.108532	0.000078
H110	H	1.648503	0.391468	0.500078
C111	C	1.551039	-0.758522	0.000093
C112	C	2.051039	-0.258522	0.500093
C113	C	1.582508	-0.680166	0.000105
C114	C	2.082508	-0.180166	0.500105
H115	H	1.617237	-0.792236	0.000085
H116	H	2.117237	-0.292236	0.500085
H117	H	1.507279	-0.768246	0.071451
H118	H	2.007279	-0.268246	0.571451
H119	H	1.507274	-0.768228	-0.071278
H120	H	2.007274	-0.268228	0.428722
H121	H	1.626267	-0.670459	0.071482
H122	H	2.126267	-0.170459	0.571482
H123	H	1.626287	-0.670439	-0.071260
H124	H	2.126287	-0.170439	0.428740
C125	C	1.111567	-0.347760	0.000080
C126	C	1.611567	0.152240	0.500080
C127	C	1.099740	-0.265651	0.000072
C128	C	1.599740	0.234349	0.500072
H129	H	1.038592	-0.369409	0.000085
H130	H	1.538592	0.130591	0.500085
H131	H	1.152056	-0.364776	-0.071276
H132	H	1.652056	0.135224	0.428724
H133	H	1.152058	-0.364779	0.071453
H134	H	1.652058	0.135221	0.571453
H135	H	1.059256	-0.248631	-0.071305
H136	H	1.559256	0.251369	0.428695
H137	H	1.059234	-0.248628	0.071436
H138	H	1.559234	0.251372	0.571436
H139	H	1.217723	-0.389660	0.000079
H140	H	1.717723	0.110340	0.500079
