data_functionalizedCrystal
_audit_creation_method	'MofGen! by Chris Wilmer'
_symmetry_space_group_name_H-M	'P1'
_symmetry_Int_Tables_number	1
_symmetry_cell_setting	triclinic
loop_
_symmetry_equiv_pos_as_xyz
  x,y,z
_cell_length_a	13.897448
_cell_length_b	13.897449
_cell_length_c	10.686551
_cell_angle_alpha	94.398514
_cell_angle_beta	94.407384
_cell_angle_gamma	90.018519
loop_
_atom_site_label
_atom_site_type_symbol
_atom_site_fract_x
_atom_site_fract_y
_atom_site_fract_z
Zn1	Zn	-0.342075	1.516575	0.713555
Zn2	Zn	-0.008741	1.849908	1.046888
Zn3	Zn	0.324592	2.183241	1.380222
Zn4	Zn	-0.515784	1.504086	0.502545
Zn5	Zn	-0.182450	1.837420	0.835878
Zn6	Zn	0.150883	2.170753	1.169212
Zn7	Zn	-0.354506	1.342882	0.502557
Zn8	Zn	-0.021172	1.676216	0.835891
Zn9	Zn	0.312161	2.009549	1.169224
Zn10	Zn	-0.503336	1.355241	0.713485
Zn11	Zn	-0.170003	1.688575	1.046818
Zn12	Zn	0.163331	2.021908	1.380152
O13	O	-0.428925	1.429696	0.608036
O14	O	-0.095592	1.763029	0.941369
O15	O	0.237742	2.096363	1.274702
O16	O	-0.365125	1.649901	0.685588
O17	O	-0.031791	1.983234	1.018922
O18	O	0.301542	2.316568	1.352255
O19	O	-0.504801	1.472304	0.325964
O20	O	-0.171468	1.805637	0.659297
O21	O	0.161865	2.138970	0.992631
O22	O	-0.217873	1.365977	0.530581
O23	O	0.115460	1.699310	0.863914
O24	O	0.448794	2.032644	1.197248
O25	O	-0.492748	1.640726	0.530560
O26	O	-0.159414	1.974059	0.863893
O27	O	0.173919	2.307393	1.197227
O28	O	-0.208740	1.493588	0.685600
O29	O	0.124593	1.826921	1.018934
O30	O	0.457927	2.160255	1.352267
O31	O	-0.386311	1.353868	0.325973
O32	O	-0.052978	1.687201	0.659306
O33	O	0.280355	2.020534	0.992640
O34	O	-0.374241	1.209539	0.530513
O35	O	-0.040908	1.542872	0.863847
O36	O	0.292425	1.876205	1.197180
O37	O	-0.471533	1.387041	0.890077
O38	O	-0.138199	1.720375	1.223410
O39	O	0.195134	2.053708	1.556744
O40	O	-0.483586	1.218619	0.685481
O41	O	-0.150253	1.551952	1.018814
O42	O	0.183080	1.885285	1.352148
O43	O	-0.353055	1.505572	0.890128
O44	O	-0.019721	1.838905	1.223462
O45	O	0.313612	2.172239	1.556795
O46	O	-0.649116	1.484288	0.530492
O47	O	-0.315783	1.817621	0.863825
O48	O	0.017551	2.150954	1.197159
O49	O	-0.639971	1.374932	0.685469
O50	O	-0.306638	1.708265	1.018802
O51	O	0.026696	2.041599	1.352136
C52	C	-0.428913	1.179079	0.607992
C53	C	-0.095579	1.512412	0.941325
C54	C	0.237754	1.845746	1.274658
C55	C	-0.428929	1.071866	0.608003
C56	C	-0.095596	1.405199	0.941336
C57	C	0.237738	1.738533	1.274669
C58	C	-0.428931	0.984797	0.608024
C59	C	-0.095598	1.318131	0.941357
C60	C	0.237736	1.651464	1.274690
C61	C	-0.428935	0.875567	0.608062
C62	C	-0.095602	1.208900	0.941395
C63	C	0.237731	1.542234	1.274729
C64	C	-0.679542	1.429624	0.607999
C65	C	-0.346208	1.762957	0.941332
C66	C	-0.012875	2.096290	1.274666
C67	C	-0.786754	1.429683	0.608026
C68	C	-0.453421	1.763017	0.941359
C69	C	-0.120087	2.096350	1.274692
C70	C	-0.983044	1.429789	0.608105
C71	C	-0.649711	1.763122	0.941438
C72	C	-0.316378	2.096456	1.274771
C73	C	-0.873814	1.429728	0.608065
C74	C	-0.540481	1.763061	0.941398
C75	C	-0.207147	2.096394	1.274731
C76	C	-0.177328	1.429797	0.608100
C77	C	0.156005	1.763130	0.941433
C78	C	0.489338	2.096463	1.274767
C79	C	-0.070113	1.429840	0.608127
C80	C	0.263221	1.763173	0.941461
C81	C	0.596554	2.096506	1.274794
C82	C	-0.409519	1.449078	0.937169
C83	C	-0.076185	1.782412	1.270502
C84	C	0.257148	2.115745	1.603835
C85	C	-0.401249	1.457338	1.077426
C86	C	-0.067915	1.790671	1.410759
C87	C	0.265418	2.124004	1.744092
C88	C	-0.428938	1.681292	0.608080
C89	C	-0.095605	2.014625	0.941414
C90	C	0.237729	2.347958	1.274747
C91	C	-0.428944	1.788507	0.608100
C92	C	-0.095610	2.121840	0.941433
C93	C	0.237723	2.455173	1.274766
C94	C	-0.448186	1.410445	0.280183
C95	C	-0.114853	1.743778	0.613516
C96	C	0.218480	2.077111	0.946850
C97	C	-0.456184	1.402372	0.139927
C98	C	-0.122851	1.735706	0.473260
C99	C	0.210482	2.069039	0.806593
H100	H	-0.509547	1.348998	1.086136
H101	H	-0.176213	1.682331	1.419469
H102	H	0.157120	2.015664	1.752803
H103	H	-0.347890	1.510723	1.131223
H104	H	-0.014556	1.844056	1.464556
H105	H	0.318777	2.177389	1.797890
