data_functionalizedCrystal
_audit_creation_method	'MofGen! by Chris Wilmer'
_symmetry_space_group_name_H-M	'P1'
_symmetry_Int_Tables_number	1
_symmetry_cell_setting	triclinic
loop_
_symmetry_equiv_pos_as_xyz
  x,y,z
_cell_length_a	6.817900
_cell_length_b	17.982723
_cell_length_c	19.453114
_cell_angle_alpha	96.129620
_cell_angle_beta	101.709288
_cell_angle_gamma	102.447564
loop_
_atom_site_label
_atom_site_type_symbol
_atom_site_fract_x
_atom_site_fract_y
_atom_site_fract_z
V1	V	-4.001665	-0.106207	-0.219300
O2	O	-3.994950	0.004287	-0.214818
O3	O	-3.948262	-0.209806	-0.218096
O4	O	-3.944642	-0.104932	-0.314809
O5	O	-3.998596	-0.101313	-0.117435
V6	V	-4.487059	-0.092949	-0.207080
O7	O	-4.258820	-0.135292	-0.246105
O8	O	-4.680101	-0.063864	-0.180275
O9	O	-4.317255	0.010650	-0.208284
O10	O	-4.611171	-0.203443	-0.211562
O11	O	-4.607525	-0.097843	-0.308945
O12	O	-4.320875	-0.094224	-0.111571
C13	C	-3.792325	-0.235050	-0.214712
C14	C	-3.829892	-0.319746	-0.214364
C15	C	-4.242158	-0.843516	-0.215704
C16	C	-4.206850	-0.763936	-0.216034
C17	C	-4.007591	-0.720256	-0.212684
C18	C	-3.843626	-0.756159	-0.208996
C19	C	-3.878932	-0.835737	-0.208661
C20	C	-3.701234	-0.435230	-0.210347
C21	C	-3.665940	-0.355647	-0.210684
C22	C	-4.029152	-0.363428	-0.217719
C23	C	-4.064459	-0.443006	-0.217384
C24	C	-3.900489	-0.478902	-0.213693
C25	C	-3.938776	-0.565192	-0.213334
C26	C	-3.969306	-0.633969	-0.213048
C27	C	-3.787706	-0.101272	-0.338079
C28	C	-3.822333	-0.100914	-0.416161
C29	C	-4.020199	-0.104571	-0.456428
C30	C	-4.052736	-0.104235	-0.529794
C31	C	-3.887403	-0.100258	-0.562892
C32	C	-3.689508	-0.096597	-0.522614
C33	C	-3.656973	-0.096925	-0.449249
N34	N	-3.825717	-0.140494	-0.681795
N35	N	-3.856637	-0.140184	-0.751489
C36	C	-3.985417	-0.099268	-0.783937
N37	N	-4.082145	-0.058683	-0.744059
N38	N	-4.051229	-0.058996	-0.674359
C39	C	-3.922661	-0.099901	-0.642444
C40	C	-4.218575	-0.102559	-0.903756
C41	C	-4.251102	-0.102219	-0.977123
C42	C	-3.887872	-0.094588	-0.969942
C43	C	-3.855347	-0.094921	-0.896576
C44	C	-4.020707	-0.098910	-0.863488
C45	C	-4.136534	0.035890	-0.211666
C46	C	-4.078205	0.120585	-0.212018
C47	C	-4.141154	-0.097887	-0.088297
C48	C	-4.085765	-0.098240	-0.010215
H49	H	-4.340362	-0.734712	-0.219037
Cl50	Cl	-3.408209	-0.092332	-0.398624
H51	H	-3.567710	-0.464445	-0.207332
Cl52	Cl	-4.492669	-0.898422	-0.219921
H53	H	-3.694229	-0.091952	-0.863791
H54	H	-4.412228	-0.105191	-1.009907
H55	H	-3.503673	-0.320084	-0.207956
Cl56	Cl	-4.301500	-0.108827	-0.580425
H57	H	-4.353220	-0.105805	-0.876814
H58	H	-4.162659	-0.334192	-0.220722
H59	H	-3.554894	-0.093356	-0.549566
H60	H	-4.226714	-0.478568	-0.220116
Cl61	Cl	-3.593121	-0.701245	-0.204774
H62	H	-3.753251	-0.091343	-0.996889
H63	H	-3.745426	-0.864965	-0.205666
Cl64	Cl	-4.228080	-0.109581	-0.414835
