data_functionalizedCrystal
_audit_creation_method	'MofGen! by Chris Wilmer'
_symmetry_space_group_name_H-M	'P1'
_symmetry_Int_Tables_number	1
_symmetry_cell_setting	triclinic
loop_
_symmetry_equiv_pos_as_xyz
  x,y,z
_cell_length_a	18.050591
_cell_length_b	19.121063
_cell_length_c	18.050583
_cell_angle_alpha	92.401387
_cell_angle_beta	89.977979
_cell_angle_gamma	92.465257
loop_
_atom_site_label
_atom_site_type_symbol
_atom_site_fract_x
_atom_site_fract_y
_atom_site_fract_z
Zn1	Zn	1.122689	-0.279636	-0.432625
Zn2	Zn	1.622689	0.220364	0.067375
Zn3	Zn	1.117299	-0.397107	-0.313726
Zn4	Zn	1.617299	0.102893	0.186274
Zn5	Zn	0.998504	-0.279667	-0.308438
Zn6	Zn	1.498504	0.220333	0.191562
Zn7	Zn	0.993161	-0.397042	-0.437858
Zn8	Zn	1.493161	0.102958	0.062142
O9	O	1.057914	-0.338363	-0.373162
O10	O	1.557914	0.161637	0.126838
O11	O	1.225898	-0.295233	-0.416876
O12	O	1.725898	0.204767	0.083124
O13	O	1.101522	-0.381568	-0.209102
O14	O	1.601522	0.118432	0.290898
O15	O	1.019470	-0.181379	-0.320508
O16	O	1.519470	0.318621	0.179492
O17	O	1.221938	-0.381538	-0.329521
O18	O	1.721938	0.118462	0.170479
O19	O	1.110707	-0.181356	-0.411749
O20	O	1.610707	0.318644	0.088251
O21	O	1.014243	-0.295286	-0.205216
O22	O	1.514243	0.204714	0.294784
O23	O	0.893872	-0.295223	-0.325583
O24	O	1.393872	0.204777	0.174417
O25	O	1.010363	-0.381427	-0.541087
O26	O	1.510363	0.118573	-0.041087
O27	O	0.889946	-0.381457	-0.420668
O28	O	1.389946	0.118543	0.079332
O29	O	1.105526	-0.295170	-0.537242
O30	O	1.605526	0.204830	-0.037242
O31	O	1.096340	-0.495382	-0.334595
O32	O	1.596340	0.004618	0.165405
O33	O	1.005137	-0.495334	-0.425795
O34	O	1.505137	0.004666	0.074205
C35	C	0.864963	-0.338337	-0.373120
C36	C	1.364963	0.161663	0.126880
C37	C	0.782417	-0.338342	-0.373120
C38	C	1.282417	0.161658	0.126880
C39	C	0.585082	-0.291394	-0.321525
C40	C	1.085082	0.208606	0.178475
C41	C	0.532772	-0.355457	-0.306134
C42	C	1.032772	0.144543	0.193866
C43	C	0.631285	-0.338364	-0.373154
C44	C	1.131285	0.161636	0.126846
C45	C	0.536512	-0.274323	-0.388544
C46	C	1.036512	0.225677	0.111456
C47	C	0.485299	-0.338379	-0.373186
C48	C	0.985299	0.161621	0.126814
C49	C	0.580062	-0.402461	-0.357730
C50	C	1.080062	0.097539	0.142270
C51	C	0.583807	-0.321283	-0.440170
C52	C	1.083807	0.178717	0.059830
C53	C	0.531518	-0.385391	-0.424807
C54	C	1.031518	0.114609	0.075193
C55	C	0.715384	-0.338354	-0.373134
C56	C	1.215384	0.161646	0.126866
C57	C	0.401202	-0.338395	-0.373207
C58	C	0.901202	0.161605	0.126793
C59	C	1.049594	-0.520842	-0.381353
C60	C	1.549594	-0.020842	0.118647
C61	C	1.046103	-0.598907	-0.384882
C62	C	1.546103	-0.098907	0.115118
C63	C	1.091985	-0.635584	-0.339097
C64	C	1.591985	-0.135584	0.160903
C65	C	1.088706	-0.708935	-0.342420
C66	C	1.588706	-0.208935	0.157580
C67	C	1.039541	-0.745607	-0.391526
C68	C	1.539541	-0.245607	0.108474
C69	C	0.993657	-0.708925	-0.437316
C70	C	1.493657	-0.208925	0.062684
C71	C	0.996940	-0.635576	-0.433996
C72	C	1.496940	-0.135576	0.066004
C73	C	1.027253	-0.967075	-0.403928
C74	C	1.527253	-0.467075	0.096072
C75	C	1.023972	-1.040429	-0.407243
C76	C	1.523972	-0.540429	0.092757
C77	C	1.119022	-1.040434	-0.312347
C78	C	1.619022	-0.540434	0.187653
C79	C	1.122297	-0.967083	-0.309028
C80	C	1.622297	-0.467083	0.190972
C81	C	1.076417	-0.930407	-0.354822
C82	C	1.576417	-0.430407	0.145178
C83	C	1.036186	-0.820583	-0.394923
C84	C	1.536186	-0.320583	0.105077
C85	C	1.079775	-0.855432	-0.351428
C86	C	1.579775	-0.355432	0.148572
C87	C	1.251618	-0.338390	-0.373205
C88	C	1.751618	0.161610	0.126795
C89	C	1.334163	-0.338401	-0.373223
C90	C	1.834163	0.161599	0.126777
C91	C	1.057950	-0.338288	-0.566864
C92	C	1.557950	0.161712	-0.066864
C93	C	1.057965	-0.338256	-0.649409
C94	C	1.557965	0.161744	-0.149409
C95	C	1.066286	-0.155171	-0.364955
C96	C	1.566286	0.344829	0.135045
C97	C	1.069853	-0.077106	-0.361458
C98	C	1.569853	0.422894	0.138542
C99	C	1.109766	-0.291327	-0.846768
C100	C	1.609766	0.208673	-0.346768
C101	C	1.042808	-0.274132	-0.895381
C102	C	1.542808	0.225868	-0.395381
C103	C	1.057995	-0.338244	-0.800538
C104	C	1.557995	0.161756	-0.300538
C105	C	1.124983	-0.355393	-0.899005
C106	C	1.624983	0.144607	-0.399005
C107	C	1.058031	-0.338231	-0.946523
C108	C	1.558031	0.161769	-0.446523
C109	C	0.991003	-0.321017	-0.848063
C110	C	1.491003	0.178983	-0.348063
C111	C	1.073222	-0.402308	-0.851684
C112	C	1.573222	0.097692	-0.351684
C113	C	1.006217	-0.385138	-0.900276
C114	C	1.506217	0.114862	-0.400276
C115	C	1.057976	-0.338250	-0.716440
C116	C	1.557976	0.161750	-0.216440
C117	C	1.058042	-0.338225	-1.030619
C118	C	1.558042	0.161775	-0.530619
C119	C	1.057922	-0.338387	-0.180211
C120	C	1.557922	0.161613	0.319789
C121	C	1.058060	-0.338221	-0.097658
C122	C	1.558060	0.161779	0.402342
H123	H	1.132017	-0.605730	-0.299106
H124	H	1.632017	-0.105730	0.200894
H125	H	0.934354	-0.306443	-0.825801
H126	H	1.434354	0.193557	-0.325801
H127	H	0.606217	-0.306806	-0.496812
H128	H	1.106217	0.193194	0.003188
H129	H	0.953629	-0.738790	-0.477302
H130	H	1.453629	-0.238790	0.022698
H131	H	0.962403	-0.424809	-0.923566
H132	H	1.462403	0.075191	-0.423566
H133	H	0.510381	-0.369915	-0.249474
H134	H	1.010381	0.130085	0.250526
H135	H	0.996154	-0.850450	-0.434903
H136	H	1.496154	-0.350450	0.065097
H137	H	1.153479	-0.251625	-0.823337
H138	H	1.653479	0.248375	-0.323337
H139	H	1.126067	-0.738794	-0.305136
H140	H	1.626067	-0.238794	0.194864
H141	H	1.029939	-0.219950	-0.914670
H142	H	1.529939	0.280050	-0.414670
H143	H	1.086112	-0.456475	-0.832379
H144	H	1.586112	0.043525	-0.332379
H145	H	1.181618	-0.369903	-0.921357
H146	H	1.681618	0.130097	-0.421357
H147	H	0.508204	-0.425164	-0.468484
H148	H	1.008204	0.074836	0.031516
H149	H	0.608528	-0.251715	-0.277820
H150	H	1.108528	0.248285	0.222180
H151	H	1.162331	-0.937226	-0.269043
H152	H	1.662331	-0.437226	0.230957
H153	H	0.517247	-0.220165	-0.401523
H154	H	1.017247	0.279835	0.098477
H155	H	0.599196	-0.456642	-0.344663
H156	H	1.099196	0.043358	0.155337
H157	H	0.989894	-0.937219	-0.441213
H158	H	1.489894	-0.437219	0.058787
H159	H	0.983945	-1.070286	-0.447244
H160	H	1.483945	-0.570286	0.052756
H161	H	1.156376	-1.070303	-0.275066
H162	H	1.656376	-0.570303	0.224934
H163	H	0.959580	-0.605714	-0.471280
H164	H	1.459580	-0.105714	0.028720
H165	H	1.119808	-0.825572	-0.311449
H166	H	1.619808	-0.325572	0.188551
