data_functionalizedCrystal
_audit_creation_method	'MofGen! by Chris Wilmer'
_symmetry_space_group_name_H-M	'P1'
_symmetry_Int_Tables_number	1
_symmetry_cell_setting	triclinic
loop_
_symmetry_equiv_pos_as_xyz
  x,y,z
_cell_length_a	31.640172
_cell_length_b	17.052679
_cell_length_c	17.052862
_cell_angle_alpha	78.841478
_cell_angle_beta	70.258183
_cell_angle_gamma	53.477119
loop_
_atom_site_label
_atom_site_type_symbol
_atom_site_fract_x
_atom_site_fract_y
_atom_site_fract_z
Zr1	Zr	0.333825	0.811000	0.244571
O2	O	0.269573	0.869126	0.366603
O3	O	0.365434	0.673569	0.184535
O4	O	0.374929	0.696635	0.333954
O5	O	0.239038	0.963928	0.125058
O6	O	0.444485	0.696633	0.333939
O7	O	0.260078	0.846060	0.217184
O8	O	0.427500	0.655373	0.066655
O9	O	0.256023	1.005188	0.392342
O10	O	0.416432	0.759467	0.186255
O11	O	0.348821	0.847432	0.117514
O12	O	0.360000	0.874589	0.293436
O13	O	0.292389	0.962553	0.224695
Zr14	Zr	0.411202	0.998983	0.097615
Zr15	Zr	0.444759	0.810998	0.244546
Zr16	Zr	0.300269	0.998985	0.097640
Zr17	Zr	0.312214	1.028004	0.285621
Zr18	Zr	0.432814	0.781979	0.056566
O19	O	0.379594	1.136414	0.157652
O20	O	0.427307	0.869122	0.366568
O21	O	0.221860	1.136417	0.157687
O22	O	0.475455	0.940857	-0.024417
O23	O	0.523167	0.673566	0.184500
O24	O	0.317721	0.940861	-0.024382
O25	O	0.505989	0.846055	0.217129
O26	O	0.370099	1.113348	0.008232
O27	O	0.300543	1.113350	0.008248
O28	O	0.484949	0.963923	0.125003
O29	O	0.344200	1.005186	0.392322
O30	O	0.400827	0.804797	-0.050136
O31	O	0.489005	0.804795	-0.050155
O32	O	0.515678	0.655371	0.066635
O33	O	0.229350	1.154611	0.275551
O34	O	0.317527	1.154610	0.275532
O35	O	0.385028	0.935394	0.048750
O36	O	0.452639	0.847430	0.117491
O37	O	0.396207	0.962551	0.224672
O38	O	0.328596	1.050516	0.155931
C39	C	0.399546	0.633553	0.119746
C40	C	0.408721	0.541429	0.102319
C41	C	0.297800	0.321864	0.312995
C42	C	0.289177	0.408426	0.329360
C43	C	0.319062	0.441681	0.272602
C44	C	0.357572	0.388366	0.199475
C45	C	0.366194	0.301800	0.183105
C46	C	0.387455	0.421617	0.142712
C47	C	0.425966	0.368302	0.069585
C48	C	0.434586	0.281745	0.053219
C49	C	0.404700	0.248490	0.109977
C50	C	0.378834	0.508182	0.159081
C51	C	0.447227	0.488119	0.029191
C52	C	0.455851	0.401557	0.012826
C53	C	0.233753	0.904994	0.171124
C54	C	0.186658	0.904995	0.171135
C55	C	-0.075896	0.844906	0.115130
C56	C	-0.252882	0.844903	0.115112
O57	O	-0.250721	0.793828	0.067506
N58	N	-0.304468	0.904993	0.171061
C59	C	-0.311808	0.965093	0.227013
O60	O	-0.359748	1.016211	0.274595
C61	C	-0.134823	0.965101	0.227026
C62	C	-0.083236	0.904999	0.171080
C63	C	-0.024311	0.784810	0.059188
C64	C	0.019933	0.784808	0.059196
C65	C	0.012593	0.844901	0.115146
C66	C	-0.038992	0.904997	0.171088
C67	C	-0.142165	1.025205	0.282974
C68	C	-0.097913	1.025203	0.282971
C69	C	-0.046326	0.965102	0.227025
C70	C	-0.002088	0.965087	0.227046
N71	N	0.049498	0.904997	0.171098
C72	C	0.056839	0.844904	0.115148
C73	C	-0.404725	0.965084	0.227004
C74	C	-0.448971	0.965081	0.227002
C75	C	-0.390042	0.844892	0.115100
C76	C	-0.345795	0.844890	0.115106
C77	C	-0.353139	0.904994	0.171056
C78	C	0.149753	0.844902	0.115169
C79	C	0.193999	0.844902	0.115184
C80	C	0.135065	0.965095	0.227083
C81	C	0.090824	0.965091	0.227071
C82	C	0.098171	0.904992	0.171107
O83	O	-0.004210	1.016143	0.274621
O84	O	0.104779	0.793810	0.067561
C85	C	-0.120140	0.844909	0.115122
C86	C	-0.171725	0.905004	0.171064
C87	C	-0.179065	0.965097	0.227014
C88	C	-0.215971	0.905001	0.171062
C89	C	-0.208630	0.844908	0.115112
C90	C	-0.157044	0.784818	0.059164
C91	C	-0.112800	0.784816	0.059172
C92	C	-0.230651	1.025188	0.282962
C93	C	-0.274893	1.025184	0.282950
C94	C	-0.267553	0.965091	0.227000
C95	C	0.511275	0.904989	0.171062
C96	C	0.558369	0.904988	0.171052
C97	C	0.357572	0.868694	-0.064042
C98	C	0.352501	0.856375	-0.143845
C99	C	0.345481	1.176430	0.222440
C100	C	0.336307	1.268554	0.239867
C101	C	0.413811	1.005310	-0.512377
C102	C	0.418580	1.016880	-0.437401
C103	C	0.402060	0.976756	-0.364008
C104	C	0.380772	0.925058	-0.365599
C105	C	0.376007	0.913480	-0.440583
C106	C	0.364256	0.884925	-0.292215
C107	C	0.342967	0.833227	-0.293805
C108	C	0.338203	0.821653	-0.368784
C109	C	0.354722	0.861777	-0.442176
C110	C	0.369021	0.896503	-0.217230
C111	C	0.331217	0.804673	-0.145437
C112	C	0.326448	0.793102	-0.220413
C113	C	0.387455	0.941289	0.406228
C114	C	0.392526	0.953608	0.486031
C115	C	0.414488	0.669850	0.354881
C116	C	0.428733	0.590045	0.417257
C117	C	0.538307	0.633550	0.119715
C118	C	0.594576	0.541425	0.102278
C119	C	0.496333	0.868691	-0.064073
C120	C	0.538357	0.856371	-0.143886
C121	C	0.248694	0.941292	0.406259
C122	C	0.206671	0.953612	0.486072
C123	C	0.206720	1.176433	0.222471
C124	C	0.150451	1.268558	0.239909
C125	C	0.330540	1.140133	-0.012695
C126	C	0.316294	1.219937	-0.075071
C127	C	0.405967	0.612662	0.502504
C128	C	0.419354	0.537686	0.561122
C129	C	0.455504	0.440095	0.534490
C130	C	0.478273	0.417479	0.449234
C131	C	0.464889	0.492454	0.390618
C132	C	0.602102	0.452239	0.129989
C133	C	0.654971	0.365673	0.113621
C134	C	0.700312	0.368294	0.069536
C135	C	0.692783	0.457490	0.041825
C136	C	0.639916	0.544055	0.058198
C137	C	0.593388	0.804669	-0.145485
C138	C	0.632878	0.793098	-0.220470
C139	C	0.617335	0.833224	-0.293856
C140	C	0.562298	0.884933	-0.292254
C141	C	0.522809	0.896509	-0.217269
C142	C	0.151639	1.005324	0.487673
C143	C	0.112146	1.016922	0.562663
C144	C	0.127688	0.976801	0.636051
C145	C	0.182726	0.925086	0.634448
C146	C	0.222216	0.913495	0.559459
C147	C	0.142926	1.357745	0.212205
C148	C	0.090059	1.444315	0.228594
C149	C	0.044718	1.441694	0.272681
C150	C	0.052246	1.352498	0.300389
C151	C	0.105113	1.265931	0.284005
C152	C	0.280142	1.317516	-0.048414
C153	C	0.266746	1.392510	-0.107014
C154	C	0.289506	1.369924	-0.192270
C155	C	0.325660	1.272336	-0.218927
C156	C	0.339053	1.197344	-0.160327
H157	H	0.273468	0.294784	0.359197
Cl158	Cl	0.664422	0.253553	0.148461
H159	H	0.350839	0.852363	-0.503230
Cl160	Cl	0.395783	0.961493	-0.215239
Cl161	Cl	0.749789	0.460767	-0.013600
H162	H	0.649495	0.823791	-0.354909
H163	H	0.507709	0.338011	0.427561
H164	H	0.466398	0.379055	0.582228
H165	H	0.633795	0.616670	0.035625
H166	H	0.317768	0.771996	-0.085679
Cl167	Cl	0.221294	1.515183	-0.073484
H168	H	0.015322	1.350379	0.336287
Cl169	Cl	0.545111	0.448920	0.185417
Cl170	Cl	0.132087	1.055771	0.395425
Cl171	Cl	0.330423	0.575195	0.251010
Cl172	Cl	0.042961	1.081932	0.564658
Cl173	Cl	0.493507	0.464005	0.283449
H174	H	0.478001	0.938606	-0.215979
Cl175	Cl	0.504261	0.334526	-0.079102
Cl176	Cl	0.080608	1.556433	0.193750
H177	H	0.435915	1.058969	-0.436112
Cl178	Cl	-0.047952	0.709257	-0.011166
Cl179	Cl	0.078036	0.991379	0.730316
Cl180	Cl	0.202256	0.874649	0.726713
H181	H	0.427264	1.037966	-0.572138
Cl182	Cl	-0.380822	0.769347	0.044762
H183	H	0.405944	0.986179	-0.302961
H184	H	0.743356	0.297799	0.056209
H185	H	-0.490971	1.014010	0.272568
H186	H	0.001674	1.512190	0.286017
Cl187	Cl	0.612940	0.754224	-0.053237
H188	H	0.111233	1.193314	0.306564
H189	H	0.677689	0.750990	-0.221760
Cl190	Cl	0.311443	0.756656	-0.370782
Cl191	Cl	0.251522	1.345935	0.058762
Cl192	Cl	0.384507	1.074675	-0.193854
Cl193	Cl	0.291401	0.848471	0.557459
H194	H	0.309115	0.751009	-0.221720
Cl195	Cl	0.272665	1.464214	-0.265928
H196	H	0.179838	1.359896	0.176301
H197	H	0.312038	0.512164	0.285930
Cl198	Cl	0.240763	0.475446	0.421284
H199	H	0.129098	1.014018	0.272639
H200	H	-0.410713	1.014026	0.272570
Cl201	Cl	0.542768	0.935370	-0.384520
H202	H	0.411717	0.178009	0.096654
Cl203	Cl	0.482990	0.214734	-0.038721
H204	H	0.471561	0.515196	-0.017028
Cl205	Cl	0.354270	1.243958	-0.326110
H206	H	0.236004	0.795960	0.069624
Cl207	Cl	0.360525	0.735341	0.536006
Cl208	Cl	0.084780	0.709255	-0.011147
Cl209	Cl	0.158997	0.769346	0.044816
Cl210	Cl	-0.280946	0.769334	0.044770
Cl211	Cl	-0.015070	0.709256	-0.011161
Cl212	Cl	0.390722	0.566139	0.668294
Cl213	Cl	-0.207011	1.100775	0.353304
H214	H	0.048820	1.014019	0.272636
Cl215	Cl	-0.107152	1.100768	0.353311
H216	H	-0.316896	1.074124	0.328517
Cl217	Cl	-0.147824	0.709271	-0.011171
H218	H	-0.236636	1.074122	0.328526
