data_functionalizedCrystal
_audit_creation_method	'MofGen! by Chris Wilmer'
_symmetry_space_group_name_H-M	'P1'
_symmetry_Int_Tables_number	1
_symmetry_cell_setting	triclinic
loop_
_symmetry_equiv_pos_as_xyz
  x,y,z
_cell_length_a	6.817900
_cell_length_b	9.582860
_cell_length_c	10.773894
_cell_angle_alpha	94.946203
_cell_angle_beta	96.645922
_cell_angle_gamma	111.206767
loop_
_atom_site_label
_atom_site_type_symbol
_atom_site_fract_x
_atom_site_fract_y
_atom_site_fract_z
V1	V	-3.987869	-0.201559	-0.388722
V2	V	-3.487869	0.298441	0.111278
O3	O	-3.934976	0.015345	-0.381557
O4	O	-3.434976	0.515345	0.118443
O5	O	-3.979226	-0.405101	-0.385837
O6	O	-3.479226	0.094899	0.114163
O7	O	-3.904451	-0.195976	-0.558360
O8	O	-3.404451	0.304024	-0.058360
O9	O	-4.010268	-0.195228	-0.207840
O10	O	-3.510268	0.304772	0.292160
V11	V	-4.470883	-0.175909	-0.367114
V12	V	-3.970883	0.324091	0.132886
O13	O	-4.250244	-0.257827	-0.436119
O14	O	-3.750244	0.242173	0.063881
O15	O	-4.658705	-0.119641	-0.319717
O16	O	-4.158705	0.380359	0.180283
O17	O	-4.256320	0.027633	-0.369999
O18	O	-3.756320	0.527633	0.130001
O19	O	-4.641173	-0.392813	-0.374279
O20	O	-4.141173	0.107187	0.125721
O21	O	-4.565881	-0.182240	-0.547996
O22	O	-4.065881	0.317760	-0.047996
O23	O	-4.331094	-0.181492	-0.197476
O24	O	-3.831094	0.318508	0.302524
C25	C	-3.835031	-0.454798	-0.379646
C26	C	-3.335031	0.045202	0.120354
C27	C	-3.909018	-0.621180	-0.378418
C28	C	-3.409018	-0.121180	0.121582
C29	C	-3.739648	-0.188036	-0.599715
C30	C	-3.239648	0.311964	-0.099715
C31	C	-3.752992	-0.184818	-0.738393
C32	C	-3.252992	0.315182	-0.238393
C33	C	-3.932156	-0.190395	-0.806249
C34	C	-3.432156	0.309605	-0.306249
C35	C	-3.945951	-0.187069	-0.949581
C36	C	-3.445951	0.312931	-0.449581
C37	C	-4.063858	0.077322	-0.376186
C38	C	-3.563858	0.577322	0.123814
C39	C	-3.969109	0.243702	-0.377422
C40	C	-3.469109	0.743702	0.122578
C41	C	-4.159242	-0.189437	-0.156114
C42	C	-3.659242	0.310563	0.343886
C43	C	-4.125136	-0.192648	-0.017435
C44	C	-3.625136	0.307352	0.482565
H45	H	-4.075327	-0.197623	-0.758230
H46	H	-3.575327	0.302377	-0.258230
H47	H	-4.268329	-0.199892	-0.969424
H48	H	-3.768329	0.300108	-0.469424
C49	C	-3.755069	-0.177183	-1.013723
C50	C	-3.255069	0.322817	-0.513723
C51	C	-3.692295	-0.045927	-1.071524
C52	C	-3.192295	0.454073	-0.571524
C53	C	-3.516487	-0.036780	-1.130639
C54	C	-3.016487	0.463220	-0.630639
H55	H	-3.640683	-0.174028	-0.952693
H56	H	-3.140683	0.325972	-0.452693
H57	H	-3.792798	-0.263168	-1.075669
H58	H	-3.292798	0.236832	-0.575669
H59	H	-3.654557	0.040035	-1.009585
H60	H	-3.154557	0.540035	-0.509585
H61	H	-3.806629	-0.049053	-1.132572
H62	H	-3.306629	0.450947	-0.632572
H63	H	-3.554216	-0.122764	-1.192584
H64	H	-3.054216	0.377236	-0.692584
H65	H	-3.402116	-0.033630	-1.069600
H66	H	-2.902116	0.466370	-0.569600
H67	H	-3.473885	0.052269	-1.169873
H68	H	-2.973885	0.552269	-0.669873
H69	H	-3.609811	-0.177570	-0.786410
H70	H	-3.109811	0.322430	-0.286410
