data_functionalizedCrystal
_audit_creation_method	'MofGen! by Chris Wilmer'
_symmetry_space_group_name_H-M	'P1'
_symmetry_Int_Tables_number	1
_symmetry_cell_setting	triclinic
loop_
_symmetry_equiv_pos_as_xyz
  x,y,z
_cell_length_a	14.519731
_cell_length_b	13.596369
_cell_length_c	10.654550
_cell_angle_alpha	90.005825
_cell_angle_beta	84.086892
_cell_angle_gamma	90.005416
loop_
_atom_site_label
_atom_site_type_symbol
_atom_site_fract_x
_atom_site_fract_y
_atom_site_fract_z
O1	O	1.224711	0.081793	0.164753
O2	O	1.474711	0.331793	0.414753
O3	O	1.724711	0.581793	0.664753
O4	O	1.974711	0.831793	0.914753
O5	O	0.956337	0.081795	0.184111
O6	O	1.206337	0.331795	0.434111
O7	O	1.456337	0.581795	0.684111
O8	O	1.706337	0.831795	0.934111
O9	O	1.096694	0.081788	-0.008366
O10	O	1.346694	0.331788	0.241634
O11	O	1.596694	0.581788	0.491634
O12	O	1.846694	0.831788	0.741634
O13	O	1.084353	0.081800	0.357230
O14	O	1.334353	0.331800	0.607230
O15	O	1.584353	0.581800	0.857230
O16	O	1.834353	0.831800	1.107230
O17	O	1.096680	-0.081795	-0.008376
O18	O	1.346680	0.168205	0.241624
O19	O	1.596680	0.418205	0.491624
O20	O	1.846680	0.668205	0.741624
O21	O	0.956323	-0.081788	0.184101
O22	O	1.206323	0.168212	0.434101
O23	O	1.456323	0.418212	0.684101
O24	O	1.706323	0.668212	0.934101
O25	O	1.224696	-0.081790	0.164742
O26	O	1.474696	0.168210	0.414742
O27	O	1.724696	0.418210	0.664742
O28	O	1.974696	0.668210	0.914742
Zn29	Zn	1.090507	-0.107761	0.174420
Zn30	Zn	1.340507	0.142239	0.424420
Zn31	Zn	1.590507	0.392239	0.674420
Zn32	Zn	1.840507	0.642239	0.924420
Zn33	Zn	1.090526	0.107766	0.174434
Zn34	Zn	1.340526	0.357766	0.424434
Zn35	Zn	1.590526	0.607766	0.674434
Zn36	Zn	1.840526	0.857766	0.924434
O37	O	1.084339	-0.081783	0.357220
O38	O	1.334339	0.168217	0.607220
O39	O	1.584339	0.418217	0.857220
O40	O	1.834339	0.668217	1.107220
C41	C	0.921965	0.000003	0.183199
C42	C	1.171965	0.250003	0.433199
C43	C	1.421965	0.500003	0.683199
C44	C	1.671965	0.750003	0.933199
C45	C	0.819571	0.000004	0.180481
C46	C	1.069571	0.250004	0.430481
C47	C	1.319571	0.500004	0.680481
C48	C	1.569571	0.750004	0.930481
C49	C	0.736416	0.000008	0.178272
C50	C	0.986416	0.250008	0.428272
C51	C	1.236416	0.500008	0.678272
C52	C	1.486416	0.750008	0.928272
C53	C	0.632093	0.000008	0.175513
C54	C	0.882093	0.250008	0.425513
C55	C	1.132093	0.500008	0.675513
C56	C	1.382093	0.750008	0.925513
C57	C	0.548942	0.000008	0.173322
C58	C	0.798942	0.250008	0.423322
C59	C	1.048942	0.500008	0.673322
C60	C	1.298942	0.750008	0.923322
C61	C	0.444612	0.000010	0.170563
C62	C	0.694612	0.250010	0.420563
C63	C	0.944612	0.500010	0.670563
C64	C	1.194612	0.750010	0.920563
N65	N	1.090501	-0.254853	0.174410
N66	N	1.340501	-0.004853	0.424410
N67	N	1.590501	0.245147	0.674410
N68	N	1.840501	0.495147	0.924410
C69	C	1.090525	-0.656144	0.174435
C70	C	1.340525	-0.406144	0.424435
C71	C	1.590525	-0.156144	0.674435
C72	C	1.840525	0.093856	0.924435
C73	C	1.090515	-0.544493	0.174432
C74	C	1.340515	-0.294493	0.424432
C75	C	1.590515	-0.044493	0.674432
C76	C	1.840515	0.205507	0.924432
C77	C	1.090513	-0.455502	0.174423
C78	C	1.340513	-0.205502	0.424423
C79	C	1.590513	0.044498	0.674423
C80	C	1.840513	0.294498	0.924423
C81	C	1.090503	-0.343844	0.174419
C82	C	1.340503	-0.093844	0.424419
C83	C	1.590503	0.156156	0.674419
C84	C	1.840503	0.406156	0.924419
C85	C	1.259068	0.000004	0.165655
C86	C	1.509068	0.250004	0.415655
C87	C	1.759068	0.500004	0.665655
C88	C	2.009068	0.750004	0.915655
C89	C	1.361462	0.000010	0.168373
C90	C	1.611462	0.250010	0.418373
C91	C	1.861462	0.500010	0.668373
C92	C	2.111462	0.750010	0.918373
C93	C	1.095781	-0.000003	-0.055160
C94	C	1.345781	0.249997	0.194840
C95	C	1.595781	0.499997	0.444840
C96	C	1.845781	0.749997	0.694840
C97	C	1.093070	-0.000002	-0.194578
C98	C	1.343070	0.249998	0.055422
C99	C	1.593070	0.499998	0.305422
C100	C	1.843070	0.749998	0.555422
N101	N	1.090539	0.254858	0.174434
N102	N	1.340539	0.504858	0.424434
N103	N	1.590539	0.754858	0.674434
N104	N	1.840539	1.004858	0.924434
C105	C	1.175710	-0.000002	-0.274850
C106	C	1.425710	0.249998	-0.024850
C107	C	1.675710	0.499998	0.225150
C108	C	1.925710	0.749998	0.475150
C109	C	1.173157	0.000010	-0.405846
C110	C	1.423157	0.250010	-0.155846
C111	C	1.673157	0.500010	0.094154
C112	C	1.923157	0.750010	0.344154
C113	C	1.005317	0.000018	-0.376286
C114	C	1.255317	0.250018	-0.126286
C115	C	1.505317	0.500018	0.123714
C116	C	1.755317	0.750018	0.373714
C117	C	1.007871	0.000013	-0.245293
C118	C	1.257871	0.250013	0.004707
C119	C	1.507871	0.500013	0.254707
C120	C	1.757871	0.750013	0.504707
C121	C	1.085252	0.000010	0.404014
C122	C	1.335252	0.250010	0.654014
C123	C	1.585252	0.500010	0.904014
C124	C	1.835252	0.750010	1.154014
C125	C	1.087963	0.000015	0.543432
C126	C	1.337963	0.250015	0.793432
C127	C	1.587963	0.500015	1.043432
C128	C	1.837963	0.750015	1.293432
H129	H	1.245085	-0.000012	-0.233562
H130	H	1.495085	0.249988	0.016438
H131	H	1.745085	0.499988	0.266438
H132	H	1.995085	0.749988	0.516438
H133	H	1.240451	0.000012	-0.471199
H134	H	1.490451	0.250012	-0.221199
H135	H	1.740451	0.500012	0.028801
H136	H	1.990451	0.750012	0.278801
H137	H	0.940571	0.000016	-0.179931
H138	H	1.190571	0.250016	0.070069
H139	H	1.440571	0.500016	0.320069
H140	H	1.690571	0.750016	0.570069
O141	O	0.922638	-0.000020	-0.425762
O142	O	1.172638	0.249980	-0.175762
O143	O	1.422638	0.499980	0.074238
O144	O	1.672638	0.749980	0.324238
C145	C	0.938102	0.000006	-0.558595
C146	C	1.188102	0.250006	-0.308595
C147	C	1.438102	0.500006	-0.058595
C148	C	1.688102	0.750006	0.191405
H149	H	1.009871	-0.030965	-0.589192
H150	H	1.259871	0.219035	-0.339192
H151	H	1.509871	0.469035	-0.089192
H152	H	1.759871	0.719035	0.160808
H153	H	0.883532	-0.047486	-0.598946
H154	H	1.133532	0.202514	-0.348946
H155	H	1.383532	0.452514	-0.098946
H156	H	1.633532	0.702514	0.151054
H157	H	0.933406	0.078485	-0.595057
H158	H	1.183406	0.328485	-0.345057
H159	H	1.433406	0.578485	-0.095057
H160	H	1.683406	0.828485	0.154943
