data_functionalizedCrystal
_audit_creation_method	'MofGen! by Chris Wilmer'
_symmetry_space_group_name_H-M	'P1'
_symmetry_Int_Tables_number	1
_symmetry_cell_setting	triclinic
loop_
_symmetry_equiv_pos_as_xyz
  x,y,z
_cell_length_a	16.974800
_cell_length_b	14.044190
_cell_length_c	15.455313
_cell_angle_alpha	92.904485
_cell_angle_beta	90.973911
_cell_angle_gamma	88.281173
loop_
_atom_site_label
_atom_site_type_symbol
_atom_site_fract_x
_atom_site_fract_y
_atom_site_fract_z
O1	O	1.057573	0.120854	0.002126
O2	O	1.390906	0.454187	0.335459
O3	O	1.724240	0.787521	0.668792
O4	O	0.829158	0.135332	-0.013917
O5	O	1.162492	0.468666	0.319416
O6	O	1.495825	0.801999	0.652749
O7	O	0.939933	-0.009900	-0.006120
O8	O	1.273267	0.323434	0.327213
O9	O	1.606600	0.656767	0.660547
O10	O	0.946798	0.266086	-0.005672
O11	O	1.280131	0.599420	0.327661
O12	O	1.613464	0.932753	0.660995
O13	O	0.933596	-0.001629	0.137696
O14	O	1.266930	0.331704	0.471030
O15	O	1.600263	0.665038	0.804363
O16	O	0.822821	0.143603	0.129899
O17	O	1.156155	0.476936	0.463232
O18	O	1.489488	0.810270	0.796565
O19	O	1.051236	0.129125	0.145942
O20	O	1.384569	0.462458	0.479275
O21	O	1.717903	0.795792	0.812608
Cu22	Cu	0.936450	0.137119	0.151052
Cu23	Cu	1.269783	0.470452	0.484385
Cu24	Cu	1.603117	0.803786	0.817718
Cu25	Cu	0.943944	0.127338	-0.019027
Cu26	Cu	1.277278	0.460671	0.314306
Cu27	Cu	1.610611	0.794005	0.647639
O28	O	0.940461	0.274357	0.138144
O29	O	1.273794	0.607690	0.471478
O30	O	1.607127	0.941024	0.804811
C31	C	0.796581	0.138766	0.055925
C32	C	1.129914	0.472099	0.389259
C33	C	1.463248	0.805432	0.722592
C34	C	0.708952	0.136662	0.049771
C35	C	1.042285	0.469995	0.383105
C36	C	1.375618	0.803328	0.716438
C37	C	0.664333	0.140180	0.125276
C38	C	0.997667	0.473513	0.458610
C39	C	1.331000	0.806846	0.791943
C40	C	0.581996	0.138188	0.119496
C41	C	0.915330	0.471521	0.452830
C42	C	1.248663	0.804855	0.786163
C43	C	0.544279	0.132685	0.038211
C44	C	0.877613	0.466019	0.371544
C45	C	1.210946	0.799352	0.704877
C46	C	0.588904	0.129164	-0.037300
C47	C	0.922237	0.462498	0.296033
C48	C	1.255570	0.795831	0.629367
C49	C	0.671239	0.131149	-0.031519
C50	C	1.004573	0.464483	0.301814
C51	C	1.337906	0.797816	0.635148
C52	C	0.298403	0.126259	0.012516
C53	C	0.631736	0.459592	0.345849
C54	C	0.965070	0.792926	0.679182
C55	C	0.216061	0.124277	0.006740
C56	C	0.549395	0.457610	0.340074
C57	C	0.882728	0.790944	0.673407
C58	C	0.209160	0.133299	0.163537
C59	C	0.542493	0.466632	0.496871
C60	C	0.875826	0.799966	0.830204
C61	C	0.291497	0.135289	0.169311
C62	C	0.624830	0.468623	0.502644
C63	C	0.958164	0.801956	0.835978
C64	C	0.336114	0.131763	0.093800
C65	C	0.669448	0.465097	0.427134
C66	C	1.002781	0.798430	0.760467
N67	N	0.460118	0.130652	0.032301
N68	N	0.793451	0.463986	0.365634
N69	N	1.126784	0.797319	0.698967
N70	N	0.420275	0.133789	0.099711
N71	N	0.753608	0.467123	0.433045
N72	N	1.086941	0.800456	0.766378
C73	C	0.933763	-0.041087	0.065580
C74	C	1.267096	0.292247	0.398913
C75	C	1.600429	0.625580	0.732247
C76	C	0.924807	-0.146336	0.064958
C77	C	1.258140	0.186997	0.398292
C78	C	1.591474	0.520331	0.731625
C79	C	0.971949	-0.396499	0.068236
C80	C	1.305283	-0.063165	0.401569
C81	C	1.638616	0.270168	0.734902
C82	C	0.908449	-0.339039	0.063782
C83	C	1.241782	-0.005706	0.397115
C84	C	1.575115	0.327628	0.730448
C85	C	0.917553	-0.231809	0.064436
C86	C	1.250886	0.101524	0.397770
C87	C	1.584219	0.434857	0.731103
C88	C	0.962847	-0.503738	0.067581
C89	C	1.296180	-0.170405	0.400914
C90	C	1.629513	0.162928	0.734247
C91	C	1.083813	0.125692	0.076097
C92	C	1.417147	0.459025	0.409430
C93	C	1.750480	0.792358	0.742764
C94	C	1.171443	0.127795	0.082245
C95	C	1.504776	0.461128	0.415579
C96	C	1.838110	0.794462	0.748912
C97	C	0.946632	0.305544	0.066443
C98	C	1.279965	0.638877	0.399776
C99	C	1.613298	0.972210	0.733109
C100	C	0.955588	0.410793	0.067058
C101	C	1.288921	0.744126	0.400392
C102	C	1.622254	1.077460	0.733725
N103	N	0.931185	0.143998	0.270677
N104	N	1.264518	0.477331	0.604010
N105	N	1.597851	0.810665	0.937343
N106	N	0.949215	0.120452	-0.138652
N107	N	1.282549	0.453785	0.194681
N108	N	1.615882	0.787118	0.528015
C109	C	0.978265	0.082321	0.319385
C110	C	1.311599	0.415654	0.652718
C111	C	1.644932	0.748988	0.986051
C112	C	0.974291	0.087532	0.409913
C113	C	1.307624	0.420866	0.743246
C114	C	1.640958	0.754199	1.076580
C115	C	0.923240	0.154425	0.451732
C116	C	1.256573	0.487759	0.785065
C117	C	1.589907	0.821092	1.118398
C118	C	0.876154	0.216105	0.403017
C119	C	1.209487	0.549438	0.736350
C120	C	1.542821	0.882772	1.069683
C121	C	0.880125	0.210889	0.312490
C122	C	1.213458	0.544222	0.645823
C123	C	1.546791	0.877555	0.979157
C124	C	0.906100	0.176915	0.722107
C125	C	1.239433	0.510248	1.055440
C126	C	1.572767	0.843582	1.388773
C127	C	0.902135	0.182129	0.812640
C128	C	1.235468	0.515462	1.145973
C129	C	1.568801	0.848795	1.479307
C130	C	1.000271	0.053554	0.819530
C131	C	1.333604	0.386887	1.152863
C132	C	1.666938	0.720221	1.486197
C133	C	1.004241	0.048347	0.729001
C134	C	1.337574	0.381681	1.062335
C135	C	1.670907	0.715014	1.395668
C136	C	0.957152	0.110024	0.680294
C137	C	1.290485	0.443357	1.013628
C138	C	1.623818	0.776690	1.346961
N139	N	0.919178	0.159755	0.544266
N140	N	1.252512	0.493089	0.877599
N141	N	1.585845	0.826422	1.210933
N142	N	0.961210	0.104688	0.587761
N143	N	1.294543	0.438022	0.921095
N144	N	1.627876	0.771355	1.254428
H145	H	0.695036	0.144668	0.191468
H146	H	1.028369	0.478002	0.524801
H147	H	1.361703	0.811335	0.858135
H148	H	0.558188	0.124677	-0.103484
H149	H	0.891521	0.458010	0.229849
H150	H	1.224855	0.791344	0.563182
H151	H	1.033146	-0.365161	0.072543
H152	H	1.366480	-0.031828	0.405876
H153	H	1.699813	0.301505	0.739209
H154	H	0.172824	0.136168	0.225014
H155	H	0.506157	0.469501	0.558347
H156	H	0.839490	0.802835	0.891680
H157	H	1.019840	0.027854	0.285343
H158	H	1.353173	0.361187	0.618676
H159	H	1.686507	0.694520	0.952009
H160	H	0.867760	0.227136	0.682456
H161	H	1.201093	0.560469	1.015790
H162	H	1.534426	0.893803	1.349123
Br163	Br	1.038184	0.003823	0.476020
Br164	Br	1.371517	0.337157	0.809353
Br165	Br	1.704851	0.670490	1.142686
H166	H	1.045810	-0.006122	0.694955
H167	H	1.379144	0.327211	1.028288
H168	H	1.712477	0.660544	1.361621
Br169	Br	1.064173	-0.030147	0.885635
Br170	Br	1.397506	0.303186	1.218968
Br171	Br	1.730839	0.636519	1.552302
Br172	Br	0.806440	-0.391267	0.056613
Br173	Br	1.139773	-0.057933	0.389946
Br174	Br	1.473106	0.275400	0.723280
H175	H	0.707567	0.128286	-0.093003
H176	H	1.040900	0.461620	0.240330
H177	H	1.374233	0.794953	0.573663
H178	H	0.860561	0.236605	0.846684
H179	H	1.193894	0.569938	1.180017
H180	H	1.527227	0.903272	1.513351
H181	H	0.834583	0.270568	0.437070
H182	H	1.167916	0.603901	0.770404
H183	H	1.501250	0.937234	1.103737
Br184	Br	0.816221	0.294591	0.246385
Br185	Br	1.149554	0.627924	0.579719
Br186	Br	1.482888	0.961258	0.913052
H187	H	0.545672	0.141037	0.180981
H188	H	0.879005	0.474370	0.514314
H189	H	1.212339	0.807703	0.847647
H190	H	0.322201	0.139766	0.235502
H191	H	0.655534	0.473099	0.568836
H192	H	0.988867	0.806432	0.902169
Br193	Br	0.164874	0.116815	-0.103583
Br194	Br	0.498207	0.450149	0.229750
Br195	Br	0.831540	0.783482	0.563083
Br196	Br	0.358945	0.121472	-0.089964
Br197	Br	0.692278	0.454806	0.243370
Br198	Br	1.025612	0.788139	0.576703
