data_functionalizedCrystal
_audit_creation_method	'MofGen! by Chris Wilmer'
_symmetry_space_group_name_H-M	'P1'
_symmetry_Int_Tables_number	1
_symmetry_cell_setting	triclinic
loop_
_symmetry_equiv_pos_as_xyz
  x,y,z
_cell_length_a	16.109318
_cell_length_b	16.176319
_cell_length_c	16.109301
_cell_angle_alpha	90.008225
_cell_angle_beta	83.465022
_cell_angle_gamma	90.003834
loop_
_atom_site_label
_atom_site_type_symbol
_atom_site_fract_x
_atom_site_fract_y
_atom_site_fract_z
O1	O	1.103126	0.068680	0.106938
O2	O	1.603126	0.568680	0.606938
O3	O	0.861066	0.068697	0.120222
O4	O	1.361066	0.568697	0.620222
O5	O	0.988746	0.068680	-0.007451
O6	O	1.488746	0.568680	0.492549
O7	O	0.975447	0.068698	0.234611
O8	O	1.475447	0.568698	0.734611
O9	O	0.988728	-0.068813	-0.007459
O10	O	1.488728	0.431187	0.492541
O11	O	0.861049	-0.068796	0.120214
O12	O	1.361049	0.431204	0.620214
O13	O	1.103109	-0.068813	0.106930
O14	O	1.603109	0.431187	0.606930
Cu15	Cu	0.982077	-0.081358	0.113571
Cu16	Cu	1.482077	0.418642	0.613571
Cu17	Cu	0.982098	0.081243	0.113581
Cu18	Cu	1.482098	0.581243	0.613581
O19	O	0.975429	-0.068795	0.234602
O20	O	1.475429	0.431205	0.734602
C21	C	0.830083	-0.000047	0.119677
C22	C	1.330083	0.499953	0.619677
C23	C	0.737788	-0.000041	0.118057
C24	C	1.237788	0.499959	0.618057
C25	C	0.438724	0.074892	0.112826
C26	C	0.938724	0.574892	0.612826
C27	C	0.525445	0.074897	0.114343
C28	C	1.025445	0.574897	0.614343
C29	C	0.525445	-0.075006	0.114323
C30	C	1.025445	0.424994	0.614323
C31	C	0.438726	-0.075010	0.112800
C32	C	0.938726	0.424990	0.612800
C33	C	0.395367	-0.000059	0.112056
C34	C	0.895367	0.499941	0.612056
C35	C	0.568807	-0.000049	0.115096
C36	C	1.068807	0.499951	0.615096
C37	C	0.662835	-0.000044	0.116742
C38	C	1.162835	0.499956	0.616742
C39	C	0.301334	-0.000064	0.110409
C40	C	0.801334	0.499936	0.610409
N41	N	0.982068	-0.195724	0.113564
N42	N	1.482068	0.304276	0.613564
C43	C	1.038622	-0.238996	0.057053
C44	C	1.538622	0.261004	0.557053
C45	C	1.038626	-0.325543	0.057053
C46	C	1.538626	0.174457	0.557053
C47	C	0.982080	-0.368816	0.113567
C48	C	1.482080	0.131184	0.613567
C49	C	0.925521	-0.325538	0.170080
C50	C	1.425521	0.174462	0.670080
C51	C	0.925513	-0.238993	0.170076
C52	C	1.425513	0.261007	0.670076
C53	C	0.925549	-0.674567	0.170095
C54	C	1.425549	-0.174567	0.670095
C55	C	0.925563	-0.761118	0.170096
C56	C	1.425563	-0.261118	0.670096
C57	C	1.038662	-0.761116	0.057072
C58	C	1.538662	-0.261116	0.557072
C59	C	1.038655	-0.674571	0.057068
C60	C	1.538655	-0.174571	0.557068
C61	C	0.982093	-0.631301	0.113578
C62	C	1.482093	-0.131301	0.613578
C63	C	0.982088	-0.537456	0.113577
C64	C	1.482088	-0.037456	0.613577
C65	C	0.982088	-0.462659	0.113572
C66	C	1.482088	0.037341	0.613572
C67	C	1.134092	-0.000066	0.107474
C68	C	1.634092	0.499934	0.607474
C69	C	1.226387	-0.000067	0.109095
C70	C	1.726387	0.499933	0.609095
C71	C	0.988198	-0.000067	-0.038430
C72	C	1.488198	0.499933	0.461570
C73	C	0.986583	-0.000068	-0.130725
C74	C	1.486583	0.499932	0.369275
N75	N	0.982113	0.195608	0.113581
N76	N	1.482113	0.695608	0.613581
C77	C	1.058590	-0.000060	-0.352993
C78	C	1.558590	0.499940	0.147007
C79	C	1.057066	-0.000053	-0.439713
C80	C	1.557066	0.499947	0.060287
C81	C	0.905579	-0.000046	-0.419848
C82	C	1.405579	0.499954	0.080152
C83	C	0.907104	-0.000047	-0.333130
C84	C	1.407104	0.499953	0.166870
C85	C	0.983612	-0.000058	-0.299704
C86	C	1.483612	0.499942	0.200296
C87	C	0.980563	-0.000050	-0.473144
C88	C	1.480563	0.499950	0.026856
C89	C	0.978910	-0.000043	-0.567170
C90	C	1.478910	0.499957	-0.067170
C91	C	0.985265	-0.000064	-0.205672
C92	C	1.485265	0.499936	0.294328
C93	C	0.975976	-0.000047	0.265581
C94	C	1.475976	0.499953	0.765581
C95	C	0.977592	-0.000040	0.357877
C96	C	1.477592	0.499960	0.857877
H97	H	0.403424	-0.136047	0.112172
H98	H	0.903424	0.363953	0.612172
H99	H	0.879496	-0.639343	0.216109
H100	H	1.379496	-0.139343	0.716109
O101	O	0.396548	0.147674	0.112243
O102	O	0.896548	0.647674	0.612243
C103	C	0.336938	0.152152	0.183314
C104	C	0.836938	0.652152	0.683314
H105	H	0.356476	0.109624	0.234066
H106	H	0.856476	0.609624	0.734066
H107	H	0.332788	0.218442	0.207457
H108	H	0.832788	0.718442	0.707457
H109	H	0.273348	0.132012	0.165888
H110	H	0.773348	0.632012	0.665888
H111	H	0.846043	-0.000043	-0.289740
H112	H	1.346043	0.499957	0.210260
O113	O	0.567428	0.147778	0.115130
O114	O	1.067428	0.647778	0.615130
C115	C	0.510562	0.213926	0.114124
C116	C	1.010562	0.713926	0.614124
H117	H	0.445298	0.191948	0.139342
H118	H	0.945298	0.691948	0.639342
H119	H	0.530329	0.266346	0.154911
H120	H	1.030329	0.766346	0.654911
H121	H	0.510076	0.236972	0.047306
H122	H	1.010076	0.736972	0.547306
O123	O	1.132855	0.000048	-0.320423
O124	O	1.632855	0.500048	0.179577
C125	C	1.138281	0.071267	-0.270862
C126	C	1.638281	0.571267	0.229138
H127	H	1.072749	0.095006	-0.249244
H128	H	1.572749	0.595006	0.250756
H129	H	1.171410	0.055252	-0.214088
H130	H	1.671410	0.555252	0.285912
H131	H	1.175073	0.121131	-0.309178
H132	H	1.675073	0.621131	0.190822
H133	H	0.560758	-0.136028	0.114931
H134	H	1.060758	0.363972	0.614931
O135	O	1.093470	-0.197019	0.002024
O136	O	1.593470	0.302981	0.502024
C137	C	1.079974	-0.218229	-0.080270
C138	C	1.579974	0.281771	0.419730
H139	H	1.013408	-0.242017	-0.080677
H140	H	1.513408	0.257983	0.419323
H141	H	1.089551	-0.161337	-0.122019
H142	H	1.589551	0.338663	0.377981
H143	H	1.126050	-0.268480	-0.104660
H144	H	1.626050	0.231520	0.395340
O145	O	0.870545	-0.803028	0.225024
O146	O	1.370545	-0.303028	0.725024
C147	C	0.820631	-0.746279	0.274912
C148	C	1.320631	-0.246279	0.774912
H149	H	0.819698	-0.684591	0.240824
H150	H	1.319698	-0.184591	0.740824
H151	H	0.754238	-0.771298	0.287562
H152	H	1.254238	-0.271298	0.787562
H153	H	0.847594	-0.737059	0.336691
H154	H	1.347594	-0.237059	0.836691
H155	H	1.084676	-0.360774	0.011037
H156	H	1.584676	0.139226	0.511037
O157	O	1.093614	-0.632664	0.002090
O158	O	1.593614	-0.132664	0.502090
C159	C	1.143545	-0.689417	-0.047777
C160	C	1.643545	-0.189417	0.452223
H161	H	1.109468	-0.751116	-0.048726
H162	H	1.609468	-0.251116	0.451274
H163	H	1.156245	-0.664421	-0.114171
H164	H	1.656245	-0.164421	0.385829
H165	H	1.205297	-0.698604	-0.020759
H166	H	1.705297	-0.198604	0.479241
O167	O	0.870671	-0.367700	0.224947
O168	O	1.370671	0.132300	0.724947
C169	C	0.882791	-0.453367	0.212822
C170	C	1.382791	0.046633	0.712822
H171	H	0.948899	-0.465182	0.181774
H172	H	1.448899	0.034818	0.681774
H173	H	0.873525	-0.486246	0.275784
H174	H	1.373525	0.013754	0.775784
H175	H	0.835752	-0.477944	0.171106
H176	H	1.335752	0.022056	0.671106
O177	O	0.870548	-0.197084	0.225053
O178	O	1.370548	0.302916	0.725053
C179	C	0.820627	-0.253834	0.274922
C180	C	1.320627	0.246166	0.774922
H181	H	0.854717	-0.315521	0.275879
H182	H	1.354717	0.184479	0.775879
H183	H	0.807918	-0.228816	0.341313
H184	H	1.307918	0.271184	0.841313
H185	H	0.758879	-0.263055	0.247901
H186	H	1.258879	0.236945	0.747901
H187	H	1.084716	-0.796356	0.011056
H188	H	1.584716	-0.296356	0.511056
H189	H	0.843288	-0.000038	-0.447074
H190	H	1.343288	0.499962	0.052926
O191	O	1.129977	-0.000094	-0.491359
O192	O	1.629977	0.499906	0.008641
C193	C	1.197827	-0.000082	-0.443257
C194	C	1.697827	0.499918	0.056743
H195	H	1.176705	-0.026114	-0.378534
H196	H	1.676705	0.473886	0.121466
H197	H	1.250356	-0.040002	-0.475265
H198	H	1.750356	0.459998	0.024735
H199	H	1.221287	0.065878	-0.437075
H200	H	1.721287	0.565878	0.062925
