data_functionalizedCrystal
_audit_creation_method	'MofGen! by Chris Wilmer'
_symmetry_space_group_name_H-M	'P1'
_symmetry_Int_Tables_number	1
_symmetry_cell_setting	triclinic
loop_
_symmetry_equiv_pos_as_xyz
  x,y,z
_cell_length_a	18.215407
_cell_length_b	29.839132
_cell_length_c	18.215399
_cell_angle_alpha	90.033088
_cell_angle_beta	89.982632
_cell_angle_gamma	89.957293
loop_
_atom_site_label
_atom_site_type_symbol
_atom_site_fract_x
_atom_site_fract_y
_atom_site_fract_z
Zn1	Zn	1.124968	0.178889	-0.416041
Zn2	Zn	1.458301	0.512222	-0.082708
Zn3	Zn	1.791634	0.845555	0.250626
Zn4	Zn	1.124832	0.254018	-0.292964
Zn5	Zn	1.458166	0.587351	0.040370
Zn6	Zn	1.791499	0.920685	0.373703
Zn7	Zn	1.001900	0.178899	-0.292994
Zn8	Zn	1.335234	0.512233	0.040340
Zn9	Zn	1.668567	0.845566	0.373673
Zn10	Zn	1.001822	0.253989	-0.415994
Zn11	Zn	1.335156	0.587322	-0.082661
Zn12	Zn	1.668489	0.920656	0.250673
O13	O	1.063381	0.216449	-0.354498
O14	O	1.396714	0.549782	-0.021165
O15	O	1.730047	0.883115	0.312168
O16	O	1.227934	0.188862	-0.399722
O17	O	1.561267	0.522196	-0.066388
O18	O	1.894601	0.855529	0.266945
O19	O	1.108501	0.244070	-0.189983
O20	O	1.441834	0.577403	0.143350
O21	O	1.775168	0.910737	0.476683
O22	O	1.018315	0.116031	-0.309349
O23	O	1.351648	0.449364	0.023985
O24	O	1.684981	0.782697	0.357318
O25	O	1.227835	0.244059	-0.309297
O26	O	1.561168	0.577393	0.024036
O27	O	1.894501	0.910726	0.357369
O28	O	1.108732	0.116023	-0.399751
O29	O	1.442065	0.449356	-0.066418
O30	O	1.775398	0.782690	0.266916
O31	O	1.018183	0.188881	-0.190005
O32	O	1.351517	0.522214	0.143328
O33	O	1.684850	0.855547	0.476661
O34	O	0.898906	0.188853	-0.309303
O35	O	1.232239	0.522186	0.024030
O36	O	1.565572	0.855519	0.357364
O37	O	1.018182	0.244010	-0.518985
O38	O	1.351515	0.577343	-0.185651
O39	O	1.684849	0.910677	0.147682
O40	O	0.898848	0.244021	-0.399671
O41	O	1.232182	0.577354	-0.066337
O42	O	1.565515	0.910687	0.266996
O43	O	1.108656	0.188834	-0.519019
O44	O	1.441990	0.522168	-0.185686
O45	O	1.775323	0.855501	0.147647
O46	O	1.108426	0.316881	-0.309252
O47	O	1.441759	0.650215	0.024082
O48	O	1.775092	0.983548	0.357415
O49	O	1.018051	0.316860	-0.399642
O50	O	1.351384	0.650193	-0.066308
O51	O	1.684717	0.983527	0.267025
C52	C	0.872174	0.216435	-0.354485
C53	C	1.205508	0.549768	-0.021152
C54	C	1.538841	0.883102	0.312181
C55	C	0.790376	0.216440	-0.354497
C56	C	1.123709	0.549773	-0.021164
C57	C	1.457042	0.883106	0.312169
C58	C	0.602232	0.187758	-0.401656
C59	C	0.935566	0.521091	-0.068322
C60	C	1.268899	0.854424	0.265011
C61	C	0.525374	0.187762	-0.401658
C62	C	0.858707	0.521095	-0.068325
C63	C	1.192040	0.854428	0.265009
C64	C	0.525281	0.245152	-0.307354
C65	C	0.858614	0.578486	0.025980
C66	C	1.191948	0.911819	0.359313
C67	C	0.602138	0.245146	-0.307348
C68	C	0.935472	0.578479	0.025985
C69	C	1.268805	0.911812	0.359319
C70	C	0.640612	0.216449	-0.354503
C71	C	0.973945	0.549783	-0.021170
C72	C	1.307279	0.883116	0.312163
C73	C	0.486896	0.216460	-0.354511
C74	C	0.820229	0.549793	-0.021178
C75	C	1.153563	0.883126	0.312155
C76	C	0.403562	0.216464	-0.354514
C77	C	0.736896	0.549797	-0.021180
C78	C	1.070229	0.883131	0.312153
C79	C	0.723951	0.216444	-0.354500
C80	C	1.057284	0.549777	-0.021167
C81	C	1.390618	0.883111	0.312167
C82	C	1.063235	0.333171	-0.354454
C83	C	1.396568	0.666505	-0.021121
C84	C	1.729902	0.999838	0.312212
C85	C	1.063240	0.383106	-0.354460
C86	C	1.396573	0.716439	-0.021127
C87	C	1.729907	1.049772	0.312207
C88	C	1.110472	0.692748	-0.307471
C89	C	1.443805	1.026081	0.025863
C90	C	1.777139	1.359414	0.359196
C91	C	1.110542	0.880421	-0.307488
C92	C	1.443876	1.213754	0.025846
C93	C	1.777209	1.547087	0.359179
O94	O	1.150622	0.904684	-0.267523
O95	O	1.483955	1.238017	0.065811
O96	O	1.817288	1.571351	0.399144
N97	N	1.063458	0.903891	-0.354510
N98	N	1.396791	1.237224	-0.021177
N99	N	1.730124	1.570557	0.312157
C100	C	1.016356	0.880440	-0.401535
C101	C	1.349689	1.213773	-0.068202
C102	C	1.683022	1.547107	0.265131
O103	O	0.976314	0.904709	-0.441537
O104	O	1.309648	1.238042	-0.108203
O105	O	1.642981	1.571376	0.225130
C106	C	1.016290	0.692768	-0.401522
C107	C	1.349623	1.026101	-0.068189
C108	C	1.682956	1.359434	0.265145
C109	C	1.063372	0.669300	-0.354491
C110	C	1.396705	1.002633	-0.021158
C111	C	1.730039	1.335967	0.312176
C112	C	1.157551	0.669280	-0.260444
C113	C	1.490885	1.002613	0.072889
C114	C	1.824218	1.335946	0.406222
C115	C	1.157530	0.622364	-0.260438
C116	C	1.490864	0.955698	0.072896
C117	C	1.824197	1.289031	0.406229
C118	C	1.110430	0.598917	-0.307458
C119	C	1.443764	0.932250	0.025876
C120	C	1.777097	1.265583	0.359209
C121	C	1.063351	0.622384	-0.354484
C122	C	1.396685	0.955718	-0.021151
C123	C	1.730018	1.289051	0.312182
C124	C	0.969192	0.669318	-0.448550
C125	C	1.302525	1.002651	-0.115217
C126	C	1.635859	1.335984	0.218116
C127	C	0.969181	0.622397	-0.448544
C128	C	1.302514	0.955730	-0.115211
C129	C	1.635848	1.289063	0.218123
C130	C	1.016263	0.598929	-0.401513
C131	C	1.349597	0.932262	-0.068180
C132	C	1.682930	1.265595	0.265154
C133	C	1.016230	0.552021	-0.401498
C134	C	1.349564	0.885355	-0.068165
C135	C	1.682897	1.218688	0.265169
N136	N	1.063315	0.528551	-0.354475
N137	N	1.396648	0.861884	-0.021142
N138	N	1.729982	1.195218	0.312191
C139	C	1.110415	0.551999	-0.307455
C140	C	1.443748	0.885332	0.025878
C141	C	1.777082	1.218665	0.359211
C142	C	1.016393	0.978970	-0.401538
C143	C	1.349726	1.312304	-0.068205
C144	C	1.683059	1.645637	0.265129
C145	C	1.016408	1.025888	-0.401541
C146	C	1.349741	1.359222	-0.068207
C147	C	1.683075	1.692555	0.265126
C148	C	1.110596	1.025866	-0.307494
C149	C	1.443929	1.359199	0.025840
C150	C	1.777262	1.692532	0.359173
C151	C	1.110576	0.978947	-0.307488
C152	C	1.443909	1.312280	0.025845
C153	C	1.777243	1.645614	0.359179
C154	C	1.063477	0.955500	-0.354515
C155	C	1.396810	1.288834	-0.021182
C156	C	1.730144	1.622167	0.312151
C157	C	1.110367	0.453473	-0.307445
C158	C	1.443700	0.786806	0.025889
C159	C	1.777034	1.120140	0.359222
C160	C	1.110340	0.406553	-0.307440
C161	C	1.443673	0.739887	0.025893
C162	C	1.777007	1.073220	0.359227
C163	C	1.016155	0.406580	-0.401490
C164	C	1.349488	0.739913	-0.068156
C165	C	1.682822	1.073247	0.265177
C166	C	1.016179	0.453495	-0.401492
C167	C	1.349513	0.786829	-0.068158
C168	C	1.682846	1.120162	0.265175
C169	C	1.063291	0.476941	-0.354467
C170	C	1.396625	0.810274	-0.021133
C171	C	1.729958	1.143607	0.312200
O172	O	0.976178	0.527729	-0.441448
O173	O	1.309511	0.861062	-0.108114
O174	O	1.642845	1.194396	0.225219
O175	O	1.150462	0.527722	-0.267471
O176	O	1.483795	0.861055	0.065862
O177	O	1.817128	1.194388	0.399195
C178	C	1.110493	0.739663	-0.307477
C179	C	1.443826	1.072996	0.025856
C180	C	1.777160	1.406330	0.359189
C181	C	1.063414	0.763131	-0.354504
C182	C	1.396747	1.096464	-0.021171
C183	C	1.730080	1.429797	0.312163
C184	C	1.016314	0.739683	-0.401524
C185	C	1.349647	1.073016	-0.068191
C186	C	1.682980	1.406350	0.265143
C187	C	1.063429	0.810049	-0.354507
C188	C	1.396763	1.143382	-0.021173
C189	C	1.730096	1.476715	0.312160
C190	C	1.110529	0.833496	-0.307486
C191	C	1.443863	1.166830	0.025847
C192	C	1.777196	1.500163	0.359180
C193	C	1.157614	0.810026	-0.260464
C194	C	1.490947	1.143359	0.072869
C195	C	1.824280	1.476693	0.406203
C196	C	1.157593	0.763111	-0.260457
C197	C	1.490926	1.096444	0.072876
C198	C	1.824260	1.429777	0.406209
C199	C	0.969229	0.763153	-0.448547
C200	C	1.302563	1.096487	-0.115213
C201	C	1.635896	1.429820	0.218120
C202	C	0.969253	0.810069	-0.448549
C203	C	1.302587	1.143402	-0.115215
C204	C	1.635920	1.476736	0.218118
C205	C	1.016353	0.833516	-0.401529
C206	C	1.349687	1.166850	-0.068195
C207	C	1.683020	1.500183	0.265138
C208	C	1.255334	0.216463	-0.354512
C209	C	1.588667	0.549796	-0.021178
C210	C	1.922000	0.883130	0.312155
C211	C	1.337132	0.216469	-0.354517
C212	C	1.670466	0.549802	-0.021184
C213	C	2.003799	0.883136	0.312149
C214	C	1.063426	0.216418	-0.546451
C215	C	1.396759	0.549751	-0.213118
C216	C	1.730092	0.883084	0.120215
C217	C	1.063445	0.216405	-0.628250
C218	C	1.396778	0.549738	-0.294917
C219	C	1.730111	0.883071	0.038417
C220	C	1.063519	1.099270	-0.354542
C221	C	1.396853	1.432604	-0.021209
C222	C	1.730186	1.765937	0.312124
C223	C	1.063508	1.049336	-0.354521
C224	C	1.396841	1.382669	-0.021187
C225	C	1.730175	1.716003	0.312146
C226	C	1.110572	0.187648	-0.816463
C227	C	1.443905	0.520981	-0.483130
C228	C	1.777238	0.854314	-0.149797
C229	C	1.110580	0.187634	-0.893322
C230	C	1.443914	0.520968	-0.559989
C231	C	1.777247	0.854301	-0.226655
C232	C	1.016370	0.245092	-0.893275
C233	C	1.349703	0.578425	-0.559942
C234	C	1.683036	0.911759	-0.226608
C235	C	1.016358	0.245103	-0.816417
C236	C	1.349691	0.578436	-0.483084
C237	C	1.683024	0.911769	-0.149751
C238	C	1.063463	0.216381	-0.778014
C239	C	1.396796	0.549714	-0.444680
C240	C	1.730130	0.883048	-0.111347
C241	C	1.063484	0.216357	-0.931730
C242	C	1.396817	0.549691	-0.598397
C243	C	1.730150	0.883024	-0.265063
C244	C	1.063493	0.216343	-1.015064
C245	C	1.396826	0.549677	-0.681730
C246	C	1.730159	0.883010	-0.348397
C247	C	1.063453	0.216394	-0.694675
C248	C	1.396786	0.549728	-0.361341
C249	C	1.730120	0.883061	-0.028008
C250	C	1.063378	0.216447	-0.163292
C251	C	1.396712	0.549780	0.170041
C252	C	1.730045	0.883114	0.503375
C253	C	1.063502	0.216334	-0.081493
C254	C	1.396835	0.549667	0.251840
C255	C	1.730169	0.883000	0.585173
H256	H	0.493946	0.268516	-0.268962
H257	H	0.827280	0.601850	0.064371
H258	H	1.160613	0.935183	0.397704
O259	O	0.643727	0.156803	-0.452509
O260	O	0.977060	0.490137	-0.119176
O261	O	1.310393	0.823470	0.214157
H262	H	0.703619	0.161621	-0.444590
H263	H	1.036952	0.494954	-0.111257
H264	H	1.370286	0.828287	0.222076
O265	O	1.161392	0.156640	-0.934785
O266	O	1.494725	0.489973	-0.601452
O267	O	1.828059	0.823306	-0.268118
H268	H	1.128487	0.133772	-0.969798
H269	H	1.461820	0.467105	-0.636465
H270	H	1.795154	0.800438	-0.303132
H271	H	0.978020	0.268477	-0.924553
H272	H	1.311353	0.601810	-0.591219
H273	H	1.644687	0.935144	-0.257886
H274	H	1.195962	0.829125	-0.222176
H275	H	1.529296	1.162459	0.111157
H276	H	1.862629	1.495792	0.444490
H277	H	0.494128	0.164398	-0.440053
H278	H	0.827462	0.497731	-0.106720
H279	H	1.160795	0.831064	0.226614
O280	O	0.965524	0.276082	-0.774938
O281	O	1.298858	0.609415	-0.441605
O282	O	1.632191	0.942748	-0.108271
H283	H	0.932771	0.296052	-0.814553
H284	H	1.266104	0.629385	-0.481220
H285	H	1.599438	0.962718	-0.147886
O286	O	0.918469	0.835379	-0.499279
O287	O	1.251803	1.168713	-0.165946
O288	O	1.585136	1.502046	0.167388
H289	H	0.885723	0.811188	-0.531976
H290	H	1.219056	1.144521	-0.198643
H291	H	1.552389	1.477854	0.134690
H292	H	0.633388	0.268510	-0.268947
H293	H	0.966721	0.601844	0.064386
H294	H	1.300055	0.935177	0.397720
H295	H	1.148680	0.387447	-0.269139
H296	H	1.482013	0.720781	0.064194
H297	H	1.815347	1.054114	0.397527
O298	O	1.161173	0.478758	-0.256721
O299	O	1.494506	0.812091	0.076613
O300	O	1.827839	1.145424	0.409946
H301	H	1.193896	0.454551	-0.224018
H302	H	1.527230	0.787884	0.109316
H303	H	1.860563	1.121217	0.442649
H304	H	1.148915	0.959842	-0.269192
H305	H	1.482248	1.293176	0.064142
H306	H	1.815582	1.626509	0.397475
O307	O	1.161412	1.051159	-0.256790
O308	O	1.494746	1.384492	0.076543
O309	O	1.828079	1.717826	0.409876
H310	H	1.153516	1.087726	-0.264706
H311	H	1.486849	1.421059	0.068627
H312	H	1.820183	1.754392	0.401961
O313	O	1.208323	0.597055	-0.209723
O314	O	1.541656	0.930388	0.123611
O315	O	1.874990	1.263721	0.456944
H316	H	1.241080	0.621248	-0.177039
H317	H	1.574414	0.954581	0.156294
H318	H	1.907747	1.287915	0.489628
O319	O	1.161375	0.156670	-0.775041
O320	O	1.494709	0.490004	-0.441707
O321	O	1.828042	0.823337	-0.108374
H322	H	1.128465	0.133819	-0.740026
H323	H	1.461798	0.467153	-0.406693
H324	H	1.795132	0.800486	-0.073359
H325	H	1.195910	0.688366	-0.222155
H326	H	1.529243	1.021699	0.111179
H327	H	1.862576	1.355033	0.444512
H328	H	0.930849	0.688417	-0.486844
H329	H	1.264182	1.021750	-0.153511
H330	H	1.597515	1.355084	0.179822
H331	H	0.930828	0.603308	-0.486842
H332	H	1.264161	0.936642	-0.153509
H333	H	1.597495	1.269975	0.179825
O334	O	0.965619	1.051200	-0.452257
O335	O	1.298952	1.384533	-0.118923
O336	O	1.632286	1.717866	0.214410
H337	H	0.978209	1.042167	-0.510026
H338	H	1.311542	1.375501	-0.176693
H339	H	1.644876	1.708834	0.156641
O340	O	0.965573	0.953683	-0.452246
O341	O	1.298906	1.287017	-0.118913
O342	O	1.632239	1.620350	0.214421
H343	H	0.932829	0.977890	-0.484929
H344	H	1.266162	1.311224	-0.151596
H345	H	1.599496	1.644557	0.181737
H346	H	0.977843	0.472604	-0.439790
H347	H	1.311177	0.805937	-0.106457
H348	H	1.644510	1.139271	0.226876
O349	O	0.965359	0.381286	-0.452207
O350	O	1.298692	0.714620	-0.118874
O351	O	1.632025	1.047953	0.214460
H352	H	0.973266	0.344720	-0.444304
H353	H	1.306599	0.678053	-0.110970
H354	H	1.639933	1.011386	0.222363
H355	H	1.195932	0.744007	-0.222160
H356	H	1.529265	1.077340	0.111173
H357	H	1.862599	1.410673	0.444506
H358	H	0.930876	0.744066	-0.486837
H359	H	1.264209	1.077399	-0.153504
H360	H	1.597542	1.410733	0.179830
