data_functionalizedCrystal
_audit_creation_method	'MofGen! by Chris Wilmer'
_symmetry_space_group_name_H-M	'P1'
_symmetry_Int_Tables_number	1
_symmetry_cell_setting	triclinic
loop_
_symmetry_equiv_pos_as_xyz
  x,y,z
_cell_length_a	10.654550
_cell_length_b	9.065218
_cell_length_c	9.130313
_cell_angle_alpha	90.000552
_cell_angle_beta	89.996220
_cell_angle_gamma	84.750394
loop_
_atom_site_label
_atom_site_type_symbol
_atom_site_fract_x
_atom_site_fract_y
_atom_site_fract_z
O1	O	1.668655	0.207228	-0.121914
O2	O	1.303255	0.226972	-0.121889
O3	O	1.493507	0.002416	-0.121899
O4	O	1.478402	0.431784	-0.121904
O5	O	1.493505	0.002422	0.121700
O6	O	1.303252	0.226978	0.121709
O7	O	1.668653	0.207234	0.121685
Cu8	Cu	1.485952	0.217107	0.143940
Cu9	Cu	1.485955	0.217100	-0.144144
O10	O	1.478400	0.431790	0.121695
C11	C	1.256450	0.225525	-0.000087
C12	C	1.116989	0.221188	-0.000078
C13	C	1.038027	0.353403	-0.000101
C14	C	0.906990	0.349319	-0.000126
C15	C	0.933890	0.080793	-0.000112
C16	C	1.064925	0.084879	-0.000076
C17	C	1.022496	0.508434	-0.000115
C18	C	0.891459	0.504350	-0.000141
C19	C	1.492055	-0.052559	-0.000102
C20	C	1.487714	-0.216378	-0.000109
C21	C	1.715457	0.208681	-0.000120
C22	C	1.854918	0.213018	-0.000139
C23	C	1.479852	0.486766	-0.000106
C24	C	1.484193	0.650585	-0.000108
N25	N	1.485959	0.217111	0.346563
N26	N	1.485957	0.217084	-0.346767
C27	C	1.570225	0.117712	0.423210
C28	C	1.570222	0.117694	0.576547
C29	C	1.401682	0.316488	0.576575
C30	C	1.401681	0.316497	0.423241
C31	C	1.667534	0.002944	0.423195
C32	C	1.667531	0.002926	0.576532
H33	H	1.058348	0.557796	-0.105288
H34	H	1.333064	0.397404	0.639023
O35	O	0.883104	-0.051484	-0.000183
C36	C	0.750517	-0.026743	-0.000175
H37	H	0.721071	0.088082	-0.046302
H38	H	0.709322	-0.114045	-0.070906
H39	H	0.713944	-0.034261	0.116684
H40	H	1.333054	0.397423	0.360836
O41	O	0.841726	0.574023	-0.121664
C42	C	0.709777	0.569746	-0.121476
H43	H	0.675786	0.554246	-0.004566
H44	H	0.663101	0.678089	-0.167556
H45	H	0.683747	0.473449	-0.192153
O46	O	1.776476	0.046034	0.366636
C47	C	1.793136	0.190835	0.414468
H48	H	1.737609	0.215049	0.519819
H49	H	1.897449	0.200806	0.435764
H50	H	1.757825	0.273738	0.326504
O51	O	1.641620	-0.132388	0.373452
C52	C	1.743131	-0.194380	0.287652
H53	H	1.832583	-0.142068	0.319320
H54	H	1.757154	-0.318976	0.307371
H55	H	1.721742	-0.172227	0.166887
H56	H	1.636593	-0.104243	0.624083
O57	O	1.057996	0.580782	0.121400
C58	C	1.189978	0.584732	0.121221
H59	H	1.226861	0.571422	0.004315
H60	H	1.214724	0.695308	0.167290
H61	H	1.235072	0.490663	0.191912
O62	O	0.837354	0.560096	0.125468
C63	C	0.886691	0.476435	0.245910
H64	H	0.982787	0.418758	0.215739
H65	H	0.897240	0.553034	0.343291
H66	H	0.819941	0.389866	0.276094
O67	O	1.782826	0.032823	0.626263
C68	C	1.835185	-0.086708	0.712024
H69	H	1.790294	-0.191584	0.680339
H70	H	1.941175	-0.103685	0.692280
H71	H	1.816428	-0.061510	0.832799
O72	O	1.141448	-0.043692	-0.000101
C73	C	1.067391	-0.164871	-0.000069
H74	H	0.970057	-0.128432	-0.046224
H75	H	1.114679	-0.257606	-0.070763
H76	H	1.057555	-0.206564	0.116801
