data_functionalizedCrystal
_audit_creation_method	'MofGen! by Chris Wilmer'
_symmetry_space_group_name_H-M	'P1'
_symmetry_Int_Tables_number	1
_symmetry_cell_setting	triclinic
loop_
_symmetry_equiv_pos_as_xyz
  x,y,z
_cell_length_a	16.109301
_cell_length_b	19.288864
_cell_length_c	15.186229
_cell_angle_alpha	90.021780
_cell_angle_beta	89.986602
_cell_angle_gamma	96.701137
loop_
_atom_site_label
_atom_site_type_symbol
_atom_site_fract_x
_atom_site_fract_y
_atom_site_fract_z
O1	O	0.103723	-0.921599	-0.073514
O2	O	0.437056	-0.588265	0.259820
O3	O	0.770390	-0.254932	0.593153
O4	O	0.117714	-0.719371	-0.073454
O5	O	0.451047	-0.386038	0.259879
O6	O	0.784381	-0.052705	0.593213
O7	O	-0.010331	-0.826040	-0.073477
O8	O	0.323002	-0.492707	0.259857
O9	O	0.656335	-0.159374	0.593190
O10	O	0.231769	-0.814930	-0.073491
O11	O	0.565102	-0.481596	0.259842
O12	O	0.898435	-0.148263	0.593175
O13	O	-0.010352	-0.826026	0.072981
O14	O	0.322981	-0.492692	0.406314
O15	O	0.656315	-0.159359	0.739647
O16	O	0.117694	-0.719357	0.073003
O17	O	0.451027	-0.386023	0.406337
O18	O	0.784360	-0.052690	0.739670
O19	O	0.103702	-0.921584	0.072944
O20	O	0.437036	-0.588251	0.406277
O21	O	0.770369	-0.254917	0.739610
Zn22	Zn	0.110695	-0.820468	0.096227
Zn23	Zn	0.444028	-0.487135	0.429560
Zn24	Zn	0.777361	-0.153801	0.762893
Zn25	Zn	0.110722	-0.820487	-0.096737
Zn26	Zn	0.444055	-0.487154	0.236596
Zn27	Zn	0.777389	-0.153821	0.569930
O28	O	0.231748	-0.814915	0.072966
O29	O	0.565081	-0.481582	0.406299
O30	O	0.898415	-0.148248	0.739633
C31	C	-0.041315	-0.825583	-0.000247
C32	C	0.292018	-0.492250	0.333086
C33	C	0.625352	-0.158916	0.666419
C34	C	-0.133606	-0.824234	-0.000246
C35	C	0.199728	-0.490900	0.333088
C36	C	0.533061	-0.157567	0.666421
C37	C	0.117254	-0.693487	-0.000218
C38	C	0.450587	-0.360153	0.333116
C39	C	0.783920	-0.026820	0.666449
C40	C	0.115902	-0.616380	-0.000194
C41	C	0.449236	-0.283046	0.333139
C42	C	0.782569	0.050287	0.666472
C43	C	0.104163	-0.947469	-0.000295
C44	C	0.437496	-0.614136	0.333038
C45	C	0.770830	-0.280802	0.666372
C46	C	0.105514	-1.024576	-0.000324
C47	C	0.438848	-0.691242	0.333010
C48	C	0.772181	-0.357909	0.666343
C49	C	-0.356084	-0.884391	-0.000277
C50	C	-0.022751	-0.551058	0.333056
C51	C	0.310583	-0.217725	0.666389
C52	C	-0.442800	-0.883118	-0.000284
C53	C	-0.109467	-0.549785	0.333049
C54	C	0.223867	-0.216452	0.666382
C55	C	-0.422493	-0.756559	-0.000243
C56	C	-0.089159	-0.423226	0.333090
C57	C	0.244174	-0.089892	0.666423
C58	C	-0.335778	-0.757833	-0.000243
C59	C	-0.002445	-0.424500	0.333091
C60	C	0.330888	-0.091166	0.666424
C61	C	-0.302577	-0.821751	-0.000255
C62	C	0.030757	-0.488418	0.333078
C63	C	0.364090	-0.155085	0.666411
C64	C	-0.476007	-0.819204	-0.000263
C65	C	-0.142674	-0.485871	0.333071
C66	C	0.190660	-0.152537	0.666404
C67	C	-0.570028	-0.817823	-0.000270
C68	C	-0.236695	-0.484490	0.333063
C69	C	0.096638	-0.151156	0.666396
C70	C	-0.208549	-0.823133	-0.000250
C71	C	0.124784	-0.489799	0.333084
C72	C	0.458117	-0.156466	0.666417
C73	C	0.262732	-0.815372	-0.000265
C74	C	0.596065	-0.482039	0.333068
C75	C	0.929398	-0.148706	0.666402
C76	C	0.355022	-0.816722	-0.000273
C77	C	0.688356	-0.483388	0.333061
C78	C	1.021689	-0.150055	0.666394
N79	N	0.110676	-0.820460	0.227919
N80	N	0.444009	-0.487127	0.561253
N81	N	0.777342	-0.153794	0.894586
C82	C	0.191034	-0.571863	-0.000213
C83	C	0.524367	-0.238530	0.333121
C84	C	0.857700	0.094804	0.666454
C85	C	0.189764	-0.499413	-0.000222
C86	C	0.523097	-0.166079	0.333111
C87	C	0.856431	0.167254	0.666444
C88	C	0.113359	-0.471483	-0.000231
C89	C	0.446692	-0.138149	0.333102
C90	C	0.780025	0.195184	0.666435
C91	C	0.038218	-0.516009	-0.000208
C92	C	0.371551	-0.182676	0.333125
C93	C	0.704884	0.150657	0.666459
C94	C	0.039489	-0.588458	-0.000190
C95	C	0.372823	-0.255125	0.333144
C96	C	0.706156	0.078209	0.666477
C97	C	0.053303	-0.363082	-0.051568
C98	C	0.386636	-0.029749	0.281765
C99	C	0.719970	0.303584	0.615099
C100	C	0.052034	-0.290635	-0.051592
C101	C	0.385368	0.042698	0.281742
C102	C	0.718701	0.376032	0.615075
C103	C	0.109433	-0.248028	-0.000284
C104	C	0.442766	0.085306	0.333049
C105	C	0.776100	0.418639	0.666382
C106	C	0.168115	-0.277876	0.051035
C107	C	0.501448	0.055458	0.384369
C108	C	0.834781	0.388791	0.717702
C109	C	0.169386	-0.350324	0.051054
C110	C	0.502720	-0.016991	0.384387
C111	C	0.836053	0.316343	0.717721
C112	C	0.111971	-0.392925	-0.000251
C113	C	0.445305	-0.059592	0.333082
C114	C	0.778638	0.273741	0.666416
C115	C	0.183193	-0.124952	-0.000312
C116	C	0.516526	0.208382	0.333021
C117	C	0.849860	0.541715	0.666355
C118	C	0.181920	-0.052501	-0.000316
C119	C	0.515254	0.280833	0.333017
C120	C	0.848587	0.614166	0.666350
C121	C	0.030372	-0.069099	-0.000311
C122	C	0.363705	0.264234	0.333023
C123	C	0.697038	0.597568	0.666356
C124	C	0.031647	-0.141548	-0.000298
C125	C	0.364980	0.191785	0.333036
C126	C	0.698313	0.525118	0.666369
C127	C	0.108060	-0.169470	-0.000303
C128	C	0.441393	0.163863	0.333031
C129	C	0.774726	0.497196	0.666364
N130	N	0.110734	-0.820501	-0.228430
N131	N	0.444068	-0.487167	0.104904
N132	N	0.777401	-0.153834	0.438237
C133	C	0.060417	-0.778370	0.545888
C134	C	0.393750	-0.445037	0.879221
C135	C	0.727083	-0.111703	1.212555
C136	C	0.060405	-0.778364	0.453698
C137	C	0.393738	-0.445031	0.787032
C138	C	0.727071	-0.111698	1.120365
C139	C	0.160995	-0.862596	0.453608
C140	C	0.494329	-0.529262	0.786941
C141	C	0.827662	-0.195929	1.120275
C142	C	0.161002	-0.862605	0.545796
C143	C	0.494336	-0.529271	0.879129
C144	C	0.827669	-0.195938	1.212463
C145	C	0.110715	-0.820488	0.591934
C146	C	0.444048	-0.487155	0.925267
C147	C	0.777381	-0.153821	1.258600
C148	C	0.110695	-0.820473	0.407556
C149	C	0.444029	-0.487140	0.740889
C150	C	0.777362	-0.153806	1.074223
C151	C	0.110683	-0.820467	0.307600
C152	C	0.444016	-0.487134	0.640933
C153	C	0.777349	-0.153800	0.974267
C154	C	0.110726	-0.820495	0.691896
C155	C	0.444059	-0.487162	1.025229
C156	C	0.777392	-0.153828	1.358563
H157	H	-0.329054	-0.936438	-0.000290
H158	H	0.004279	-0.603104	0.333044
H159	H	0.337612	-0.269771	0.666377
Cl160	Cl	0.276380	0.003465	-0.000335
Cl161	Cl	0.609714	0.336799	0.332998
Cl162	Cl	0.943047	0.670132	0.666332
Cl163	Cl	-0.065682	-0.033994	-0.000312
Cl164	Cl	0.267652	0.299339	0.333022
Cl165	Cl	0.600985	0.632673	0.666355
H166	H	0.201961	-0.896906	0.583287
H167	H	0.535295	-0.563572	0.916621
H168	H	0.868628	-0.230239	1.249954
H169	H	0.006560	-0.397768	-0.093354
H170	H	0.339894	-0.064435	0.239980
H171	H	0.673227	0.268899	0.573313
Cl172	Cl	-0.510063	-0.961870	-0.000314
Cl173	Cl	-0.176730	-0.628536	0.333020
Cl174	Cl	0.156603	-0.295203	0.666353
Cl175	Cl	-0.464239	-0.676209	-0.000227
Cl176	Cl	-0.130905	-0.342876	0.333106
Cl177	Cl	0.202428	-0.009543	0.666439
Cl178	Cl	-0.002806	-0.725427	0.603886
Cl179	Cl	0.330528	-0.392094	0.937220
Cl180	Cl	0.663861	-0.058760	1.270553
Cl181	Cl	-0.002825	-0.725410	0.395816
Cl182	Cl	0.330508	-0.392076	0.729149
Cl183	Cl	0.663842	-0.058743	1.062483
Cl184	Cl	0.284222	-0.443438	-0.000244
Cl185	Cl	0.617555	-0.110105	0.333090
Cl186	Cl	0.950889	0.223229	0.666423
Cl187	Cl	-0.268507	-0.679079	-0.000223
Cl188	Cl	0.064827	-0.345745	0.333110
Cl189	Cl	0.398160	-0.012412	0.666444
Cl190	Cl	0.287095	-0.606961	-0.000215
Cl191	Cl	0.620429	-0.273627	0.333119
Cl192	Cl	0.953762	0.059706	0.666452
H193	H	-0.029534	-0.177795	-0.000287
H194	H	0.303800	0.155538	0.333046
H195	H	0.637133	0.488871	0.666379
H196	H	0.217164	-0.374623	0.092843
H197	H	0.550498	-0.041290	0.426176
H198	H	0.883831	0.292043	0.759510
H199	H	0.214854	-0.243186	0.092815
H200	H	0.548187	0.090147	0.426149
H201	H	0.881520	0.423481	0.759482
Cl202	Cl	-0.057835	-0.480899	-0.000214
Cl203	Cl	0.275499	-0.147565	0.333119
Cl204	Cl	0.608832	0.185768	0.666453
Cl205	Cl	0.279253	-0.160057	-0.000309
Cl206	Cl	0.612586	0.173277	0.333024
Cl207	Cl	0.945919	0.506610	0.666357
Cl208	Cl	-0.021728	-0.253119	-0.116116
Cl209	Cl	0.311606	0.080215	0.217217
Cl210	Cl	0.644939	0.413548	0.550550
Cl211	Cl	-0.054970	-0.644425	-0.000167
Cl212	Cl	0.278364	-0.311092	0.333166
Cl213	Cl	0.611697	0.022241	0.666499
Cl214	Cl	0.224214	-0.915536	0.395600
Cl215	Cl	0.557548	-0.582203	0.728934
Cl216	Cl	0.890881	-0.248869	1.062267
