data_functionalizedCrystal
_audit_creation_method	'MofGen! by Chris Wilmer'
_symmetry_space_group_name_H-M	'P1'
_symmetry_Int_Tables_number	1
_symmetry_cell_setting	triclinic
loop_
_symmetry_equiv_pos_as_xyz
  x,y,z
_cell_length_a	17.038272
_cell_length_b	10.654550
_cell_length_c	9.130313
_cell_angle_alpha	90.004369
_cell_angle_beta	89.997839
_cell_angle_gamma	87.798243
loop_
_atom_site_label
_atom_site_type_symbol
_atom_site_fract_x
_atom_site_fract_y
_atom_site_fract_z
O1	O	-1.038890	-0.272864	-0.121616
O2	O	-0.811235	-0.268532	-0.121659
O3	O	-0.930297	-0.088445	-0.121627
O4	O	-0.919828	-0.452951	-0.121647
O5	O	-0.930288	-0.088438	0.121972
O6	O	-0.811227	-0.268525	0.121940
O7	O	-1.038882	-0.272858	0.121983
Cu8	Cu	-0.925053	-0.270691	0.144204
Cu9	Cu	-0.925063	-0.270699	-0.143880
O10	O	-0.919820	-0.452945	0.121951
C11	C	-0.782081	-0.264588	0.000135
C12	C	-0.695222	-0.252831	0.000119
C13	C	-0.929524	-0.041572	0.000171
C14	C	-0.927224	0.098084	0.000169
C15	C	-1.068036	-0.276802	0.000186
C16	C	-1.154895	-0.288559	0.000193
C17	C	-0.645711	-0.360775	0.000114
C18	C	-0.564098	-0.349720	0.000135
C19	C	-0.531999	-0.230720	0.000150
C20	C	-0.581517	-0.122768	0.000159
C21	C	-0.663127	-0.133824	0.000149
C22	C	-0.286023	-0.191663	0.000192
C23	C	-0.204406	-0.180615	0.000197
C24	C	-0.186993	-0.407568	0.000176
C25	C	-0.268606	-0.418614	0.000157
C26	C	-0.318117	-0.310661	0.000174
C27	C	-0.448578	-0.219418	0.000167
C28	C	-0.401536	-0.321965	0.000167
C29	C	-0.920593	-0.499817	0.000150
C30	C	-0.922892	-0.639474	0.000143
N31	N	-0.925052	-0.270686	0.346827
C32	C	-0.997326	0.171061	0.000182
C33	C	-0.995160	0.302283	0.000163
C34	C	-0.852785	0.287540	0.000126
C35	C	-0.854952	0.156320	0.000133
N36	N	-0.925070	-0.270695	-0.346502
C37	C	-0.977791	-0.190981	0.423493
C38	C	-0.977798	-0.190982	0.576829
C39	C	-0.872326	-0.350403	0.576821
C40	C	-0.872316	-0.350395	0.423487
H41	H	-0.671839	-0.457677	0.000101
H42	H	-0.797863	0.096900	0.000119
Cl43	Cl	-0.408218	-0.069822	0.000179
H44	H	-0.427675	-0.418854	0.000163
H45	H	-0.703439	-0.045924	0.000152
H46	H	-0.523789	-0.437620	0.000129
Cl47	Cl	-0.308954	-0.568219	0.000128
Cl48	Cl	-1.044099	-0.090774	0.673205
Cl49	Cl	-1.083292	0.394019	0.000176
Cl50	Cl	-1.044085	-0.090770	0.327126
H51	H	-0.793943	0.334971	0.000100
Cl52	Cl	-0.806035	-0.450610	0.673201
Cl53	Cl	-0.164054	-0.031004	0.000250
Cl54	Cl	-1.088182	0.097854	0.000222
H55	H	-0.146674	-0.495456	0.000165
Cl56	Cl	-0.348254	-0.055949	0.000211
Cl57	Cl	-0.806007	-0.450597	0.327097
H58	H	-0.555375	-0.025876	0.000193
