data_functionalizedCrystal
_audit_creation_method	'MofGen! by Chris Wilmer'
_symmetry_space_group_name_H-M	'P1'
_symmetry_Int_Tables_number	1
_symmetry_cell_setting	triclinic
loop_
_symmetry_equiv_pos_as_xyz
  x,y,z
_cell_length_a	13.262390
_cell_length_b	13.339070
_cell_length_c	11.804366
_cell_angle_alpha	74.890833
_cell_angle_beta	93.566173
_cell_angle_gamma	80.572731
loop_
_atom_site_label
_atom_site_type_symbol
_atom_site_fract_x
_atom_site_fract_y
_atom_site_fract_z
O1	O	1.349479	-0.246514	0.536145
O2	O	1.062585	-0.242268	0.443225
O3	O	1.173110	-0.094787	0.478995
O4	O	1.238954	-0.393995	0.500375
O5	O	1.202278	-0.056054	0.290379
O6	O	1.091754	-0.203535	0.254609
O7	O	1.378647	-0.207781	0.347529
Cu8	Cu	1.237864	-0.202122	0.283847
Cu9	Cu	1.203369	-0.247927	0.506907
O10	O	1.268122	-0.355262	0.311759
C11	C	1.039700	-0.219578	0.336781
C12	C	0.928050	-0.209664	0.300618
C13	C	0.549731	-0.266157	0.609954
C14	C	0.654631	-0.275468	0.643933
C15	C	0.722991	-0.259018	0.558107
C16	C	0.686441	-0.233255	0.438297
C17	C	0.581530	-0.223935	0.404315
C18	C	0.754790	-0.216796	0.352467
C19	C	0.718240	-0.191033	0.232657
C20	C	0.613339	-0.181715	0.198681
C21	C	0.544979	-0.198165	0.284506
C22	C	0.859701	-0.226116	0.386449
C23	C	0.891499	-0.183894	0.180810
C24	C	0.786600	-0.174583	0.146831
C25	C	1.176571	-0.036941	0.381080
C26	C	1.143416	0.077715	0.370329
C27	C	1.401236	0.424233	0.453777
C28	C	1.432391	0.316510	0.463874
C29	C	1.360150	0.256806	0.440489
C30	C	1.256748	0.304836	0.407005
C31	C	1.225592	0.412572	0.396899
C32	C	1.184505	0.245144	0.383610
C33	C	1.081104	0.293174	0.350126
C34	C	1.049952	0.400900	0.340022
C35	C	1.122193	0.460604	0.363407
C36	C	1.215662	0.137408	0.393716
C37	C	1.040017	0.125747	0.336837
C38	C	1.008862	0.233470	0.326741
C39	C	1.401532	-0.230471	0.453976
C40	C	1.513180	-0.240387	0.490146
C41	C	1.264667	0.586900	0.409639
C42	C	1.297838	0.472265	0.420286
N43	N	1.179105	-0.280137	0.663795
N44	N	1.262133	-0.169904	0.126961
C45	C	1.320427	-0.092568	1.083482
C46	C	1.338793	-0.068208	0.964764
C47	C	1.298873	-0.121188	0.889516
C48	C	1.240583	-0.198532	0.932997
C49	C	1.222209	-0.222889	1.051724
C50	C	1.200655	-0.251509	0.857759
C51	C	1.142365	-0.328853	0.901240
C52	C	1.123994	-0.353206	1.019956
C53	C	1.163914	-0.300225	1.095204
C54	C	1.219029	-0.227153	0.739032
C55	C	1.120811	-0.357474	0.707274
C56	C	1.102445	-0.381834	0.825992
H57	H	1.299852	0.098313	0.420978
N58	N	0.694063	-0.303265	0.773144
H59	H	0.727592	-0.244738	0.788801
H60	H	0.634801	-0.312297	0.822283
N61	N	0.965215	-0.166159	0.088225
H62	H	0.944628	-0.091976	0.034339
H63	H	1.037193	-0.176033	0.128017
H64	H	0.889449	-0.247094	0.484000
N65	N	1.393741	0.140615	0.451388
H66	H	1.446534	0.131308	0.395068
H67	H	1.424866	0.102674	0.534942
H68	H	0.808404	-0.266602	0.585780
H69	H	1.516581	0.277412	0.491134
N70	N	0.573910	-0.153911	0.069460
H71	H	0.633020	-0.144184	0.020209
H72	H	0.540996	-0.212792	0.053746
N73	N	1.144107	-0.326505	1.223254
H74	H	1.178247	-0.281209	1.264321
H75	H	1.067590	-0.312380	1.228398
N76	N	1.061108	-0.436613	1.066839
H77	H	1.095633	-0.506448	1.056361
H78	H	1.055535	-0.443912	1.153447
N79	N	1.318692	-0.094934	0.761475
H80	H	1.251041	-0.069069	0.709511
H81	H	1.361711	-0.037931	0.745452
H82	H	1.460045	0.472855	0.472804
N83	N	0.476003	-0.283880	0.702513
H84	H	0.404001	-0.274062	0.662803
H85	H	0.496672	-0.358061	0.756379
N86	N	0.897344	0.285291	0.290614
H87	H	0.875181	0.278357	0.210017
H88	H	0.853632	0.249612	0.349931
N89	N	0.431832	-0.188110	0.247855
H90	H	0.409603	-0.257485	0.283059
H91	H	0.391119	-0.130783	0.277026
H92	H	0.965757	0.440004	0.312749
N93	N	1.039575	-0.465251	0.872894
H94	H	1.033996	-0.472637	0.959519
H95	H	0.968539	-0.443861	0.828086
N96	N	1.401696	0.015173	0.917880
H97	H	1.424213	0.045027	0.983565
H98	H	1.464251	-0.017510	0.886457
H99	H	0.756826	-0.153606	0.049280
H100	H	1.096831	0.548321	0.355193
H101	H	0.981193	0.077137	0.317790
H102	H	1.266488	-0.164179	0.703640
N103	N	1.363461	-0.035438	1.164656
H104	H	1.440928	-0.048291	1.168083
H105	H	1.335249	0.042850	1.133770
N106	N	1.077742	-0.414620	0.626127
H107	H	1.098229	-0.387457	0.544322
H108	H	1.105883	-0.492919	0.657067
