data_functionalizedCrystal
_audit_creation_method	'MofGen! by Chris Wilmer'
_symmetry_space_group_name_H-M	'P1'
_symmetry_Int_Tables_number	1
_symmetry_cell_setting	triclinic
loop_
_symmetry_equiv_pos_as_xyz
  x,y,z
_cell_length_a	27.732048
_cell_length_b	15.455283
_cell_length_c	16.974813
_cell_angle_alpha	83.332430
_cell_angle_beta	83.020085
_cell_angle_gamma	86.997501
loop_
_atom_site_label
_atom_site_type_symbol
_atom_site_fract_x
_atom_site_fract_y
_atom_site_fract_z
O1	O	0.643346	-0.078859	0.097455
O2	O	1.143346	0.421141	0.597455
O3	O	0.502636	-0.079893	0.111805
O4	O	1.002636	0.420107	0.611805
O5	O	0.576703	-0.071264	-0.010868
O6	O	1.076703	0.428736	0.489132
O7	O	0.569279	-0.087488	0.220128
O8	O	1.069279	0.412512	0.720128
O9	O	0.572932	0.073433	-0.017059
O10	O	1.072932	0.573433	0.482941
O11	O	0.498864	0.064805	0.105614
O12	O	0.998864	0.564805	0.605614
O13	O	0.639575	0.065838	0.091265
O14	O	1.139575	0.565838	0.591265
Cu15	Cu	0.568875	0.078533	0.097874
Cu16	Cu	1.068875	0.578533	0.597874
Cu17	Cu	0.573335	-0.092588	0.105195
Cu18	Cu	1.073335	0.407412	0.605195
O19	O	0.565507	0.057209	0.213938
O20	O	1.065507	0.557209	0.713938
C21	C	0.482741	-0.007526	0.108408
C22	C	0.982741	0.492474	0.608408
C23	C	0.429081	-0.007472	0.107502
C24	C	0.929081	0.492528	0.607502
N25	N	0.576473	-0.212945	0.110338
N26	N	1.076473	0.287055	0.610338
C27	C	0.574465	0.003158	-0.043507
C28	C	1.074465	0.503158	0.456493
C29	C	0.573409	0.009334	-0.131537
C30	C	1.073409	0.509334	0.368463
C31	C	0.090647	-0.012125	0.174282
C32	C	0.590647	0.487875	0.674282
C33	C	-0.111032	-0.011881	0.170917
C34	C	0.388968	0.488119	0.670917
O35	O	-0.141939	-0.016133	0.231982
O36	O	0.358061	0.483867	0.731982
N37	N	-0.130571	-0.006774	0.098177
N38	N	0.369429	0.493226	0.598177
C39	C	-0.099688	-0.001721	0.026273
C40	C	0.400312	0.498279	0.526273
O41	O	-0.120936	0.002637	-0.035674
O42	O	0.379064	0.502637	0.464326
C43	C	0.101990	-0.001959	0.029639
C44	C	0.601990	0.498041	0.529639
C45	C	0.121527	-0.007076	0.102384
C46	C	0.621527	0.492924	0.602384
C47	C	0.110185	-0.017240	0.247021
C48	C	0.610185	0.482760	0.747021
C49	C	0.160602	-0.017306	0.247862
C50	C	0.660602	0.482694	0.747862
C51	C	0.191481	-0.012257	0.175964
C52	C	0.691481	0.487743	0.675964
C53	C	0.171944	-0.007141	0.103225
C54	C	0.671944	0.492859	0.603225
C55	C	0.132872	0.003099	-0.042264
C56	C	0.632872	0.503099	0.457736
C57	C	0.183294	0.003042	-0.041416
C58	C	0.683294	0.503042	0.458584
C59	C	0.202831	-0.002075	0.031329
C60	C	0.702831	0.497925	0.531329
C61	C	0.253240	-0.002158	0.032167
C62	C	0.753240	0.497842	0.532167
N63	N	0.272780	-0.007265	0.104907
N64	N	0.772780	0.492735	0.604907
C65	C	0.241900	-0.012315	0.176805
C66	C	0.741900	0.487685	0.676805
C67	C	-0.205572	-0.001598	0.024511
C68	C	0.294428	0.498402	0.524511
C69	C	-0.255991	-0.001540	0.023670
C70	C	0.244009	0.498460	0.523670
C71	C	-0.267332	-0.011699	0.168313
C72	C	0.232668	0.488301	0.668313
C73	C	-0.216911	-0.011763	0.169154
C74	C	0.283089	0.488237	0.669154
C75	C	-0.186033	-0.006706	0.097251
C76	C	0.313967	0.493294	0.597251
C77	C	0.347780	-0.012453	0.178565
C78	C	0.847780	0.487547	0.678565
C79	C	0.398202	-0.012522	0.179400
C80	C	0.898202	0.487478	0.679400
C81	C	0.409538	-0.002359	0.034757
C82	C	0.909538	0.497641	0.534757
C83	C	0.359120	-0.002295	0.033922
C84	C	0.859120	0.497705	0.533922
C85	C	0.328242	-0.007339	0.105833
C86	C	0.828242	0.492661	0.605833
O87	O	0.284176	0.002101	-0.028866
O88	O	0.784176	0.502101	0.471134
O89	O	0.263157	-0.016653	0.238743
O90	O	0.763157	0.483347	0.738743
C91	C	0.040230	-0.012059	0.173441
C92	C	0.540230	0.487941	0.673441
C93	C	0.020693	-0.006944	0.100702
C94	C	0.520693	0.493056	0.600702
C95	C	0.051572	-0.001895	0.028804
C96	C	0.551572	0.498105	0.528804
C97	C	-0.029726	-0.006886	0.099861
C98	C	0.470274	0.493114	0.599861
C99	C	-0.060606	-0.011936	0.171759
C100	C	0.439394	0.488064	0.671759
C101	C	-0.041066	-0.017043	0.244499
C102	C	0.458934	0.482957	0.744499
C103	C	0.009351	-0.017109	0.245339
C104	C	0.509351	0.482891	0.745339
C105	C	0.032033	0.003213	-0.043935
C106	C	0.532033	0.503213	0.456065
C107	C	-0.018385	0.003277	-0.044770
C108	C	0.481615	0.503277	0.455230
C109	C	-0.049264	-0.001773	0.027128
C110	C	0.450736	0.498227	0.527128
C111	C	0.659469	-0.006530	0.094661
C112	C	1.159469	0.493470	0.594661
C113	C	0.713129	-0.006590	0.095568
C114	C	1.213129	0.493410	0.595568
C115	C	0.548354	-0.255111	0.064403
C116	C	1.048354	0.244889	0.564403
C117	C	0.550734	-0.346191	0.068270
C118	C	1.050734	0.153809	0.568270
C119	C	0.581230	-0.395103	0.118079
C120	C	1.081230	0.104897	0.618079
C121	C	0.609352	-0.352930	0.164016
C122	C	1.109352	0.147070	0.664016
C123	C	0.606975	-0.261852	0.160143
C124	C	1.106975	0.238148	0.660143
C125	C	0.591486	-0.667858	0.134790
C126	C	1.091486	-0.167858	0.634790
C127	C	0.593860	-0.758943	0.138661
C128	C	1.093860	-0.258943	0.638661
C129	C	0.535242	-0.752197	0.042913
C130	C	1.035242	-0.252197	0.542913
C131	C	0.532865	-0.661118	0.039049
C132	C	1.032865	-0.161118	0.539049
C133	C	0.560989	-0.618953	0.084983
C134	C	1.060989	-0.118953	0.584983
N135	N	0.583662	-0.488201	0.122035
N136	N	1.083662	0.011799	0.622035
N137	N	0.558559	-0.525856	0.081022
N138	N	1.058559	-0.025856	0.581022
N139	N	0.565741	0.198891	0.092725
N140	N	1.065741	0.698891	0.592725
C141	C	0.574970	-0.066638	-0.169515
C142	C	1.074970	0.433362	0.330485
C143	C	0.573974	-0.060831	-0.252228
C144	C	1.073974	0.439169	0.247772
C145	C	0.571422	0.020948	-0.296962
C146	C	1.071422	0.520948	0.203038
C147	C	0.569859	0.096926	-0.258978
C148	C	1.069859	0.596926	0.241022
C149	C	0.570851	0.091118	-0.176266
C150	C	1.070851	0.591118	0.323734
C151	C	0.568231	0.046774	-0.544697
C152	C	1.068231	0.546774	-0.044697
C153	C	0.567241	0.052575	-0.627415
C154	C	1.067241	0.552575	-0.127415
C155	C	0.571355	-0.105182	-0.620659
C156	C	1.071355	0.394818	-0.120659
C157	C	0.572350	-0.110982	-0.537946
C158	C	1.072350	0.389018	-0.037946
C159	C	0.570785	-0.035005	-0.499969
C160	C	1.070785	0.464995	0.000031
N161	N	0.570406	0.026885	-0.381509
N162	N	1.070406	0.526885	0.118491
N163	N	0.571797	-0.040943	-0.415423
N164	N	1.071797	0.459057	0.084577
C165	C	0.567745	-0.017214	0.246577
C166	C	1.067745	0.482786	0.746577
C167	C	0.568802	-0.023397	0.334607
C168	C	1.068802	0.476603	0.834607
H169	H	0.414106	-0.016689	0.238640
H170	H	0.914106	0.483311	0.738640
H171	H	0.057171	0.007327	-0.102485
H172	H	0.557171	0.507327	0.397515
H173	H	0.512346	-0.786538	0.005516
H174	H	1.012346	-0.286538	0.505516
F175	F	0.569189	0.171978	-0.135848
F176	F	1.069189	0.671978	0.364152
F177	F	-0.073939	-0.022422	0.321018
F178	F	0.426061	0.477578	0.821018
H179	H	0.116974	0.007267	-0.101500
H180	H	0.616974	0.507267	0.398500
F181	F	0.567137	0.183962	-0.306589
F182	F	1.067137	0.683962	0.193411
F183	F	0.520794	-0.391065	0.019398
F184	F	1.020794	0.108935	0.519398
H185	H	0.572628	-0.167039	-0.651589
H186	H	1.072628	0.332961	-0.151589
F187	F	0.575068	-0.198023	-0.490342
F188	F	1.075068	0.301977	0.009658
H189	H	0.618693	-0.798765	0.179226
H190	H	1.118693	-0.298765	0.679226
H191	H	-0.201008	-0.015924	0.228389
H192	H	0.298992	0.484076	0.728389
F193	F	0.500405	-0.609069	-0.013960
F194	F	1.000405	-0.109069	0.486040
F195	F	0.314924	-0.017821	0.255101
F196	F	0.814924	0.482179	0.755101
F197	F	0.181387	-0.022748	0.325287
F198	F	0.681387	0.477252	0.825287
H199	H	0.565159	0.119173	-0.663836
H200	H	1.065159	0.619173	-0.163836
H201	H	0.085047	-0.021349	0.305572
H202	H	0.585047	0.478651	0.805572
F203	F	-0.300205	-0.017072	0.244833
F204	F	0.199795	0.482928	0.744833
F205	F	0.575636	-0.141692	-0.292643
F206	F	1.075636	0.358308	0.207357
H207	H	-0.271893	0.002612	-0.035566
H208	H	0.228107	0.502612	0.464434
F209	F	0.216155	0.008426	-0.117948
F210	F	0.716155	0.508426	0.382052
H211	H	0.614386	-0.633539	0.172193
H212	H	1.114386	-0.133539	0.672193
F213	F	0.636904	-0.216976	0.209032
F214	F	1.136904	0.283024	0.709032
F215	F	-0.039171	0.008712	-0.122200
F216	F	0.460829	0.508712	0.377800
F217	F	0.566559	0.127637	-0.504288
F218	F	1.066559	0.627637	-0.004288
H219	H	0.523518	-0.215294	0.023848
H220	H	1.023518	0.284706	0.523848
F221	F	0.641811	-0.404988	0.217022
F222	F	1.141811	0.095012	0.717022
F223	F	0.338327	0.003151	-0.043501
F224	F	0.838327	0.503151	0.456499
F225	F	-0.172714	0.003784	-0.052023
F226	F	0.327286	0.503784	0.447977
H227	H	0.577051	-0.133231	-0.133098
H228	H	1.077051	0.366769	0.366902
F229	F	0.442410	0.003016	-0.041758
F230	F	0.942410	0.503016	0.458242
H231	H	0.025253	-0.021274	0.304575
H232	H	0.525253	0.478726	0.804575
