data_functionalizedCrystal
_audit_creation_method	'MofGen! by Chris Wilmer'
_symmetry_space_group_name_H-M	'P1'
_symmetry_Int_Tables_number	1
_symmetry_cell_setting	triclinic
loop_
_symmetry_equiv_pos_as_xyz
  x,y,z
_cell_length_a	11.792254
_cell_length_b	14.971486
_cell_length_c	13.448316
_cell_angle_alpha	90.006811
_cell_angle_beta	90.006694
_cell_angle_gamma	83.906363
loop_
_atom_site_label
_atom_site_type_symbol
_atom_site_fract_x
_atom_site_fract_y
_atom_site_fract_z
O1	O	-1.506112	-0.122653	-0.082692
O2	O	-1.175692	-0.135276	-0.082694
O3	O	-1.349758	0.001200	-0.082686
O4	O	-1.332046	-0.259129	-0.082700
O5	O	-1.349736	0.001208	0.082698
O6	O	-1.175670	-0.135268	0.082690
O7	O	-1.506090	-0.122645	0.082692
Cu8	Cu	-1.340878	-0.128955	0.097792
Cu9	Cu	-1.340904	-0.128965	-0.097794
O10	O	-1.332024	-0.259120	0.082684
C11	C	-1.133395	-0.134477	-0.000002
C12	C	-1.007398	-0.132097	-0.000003
C13	C	-1.548387	-0.123444	-0.000002
C14	C	-1.674385	-0.125824	-0.000007
C15	C	-0.905073	-0.130163	-0.000007
C16	C	-0.776702	-0.127745	-0.000007
C17	C	-1.348955	0.034532	0.000006
C18	C	-1.346581	0.133838	0.000005
C19	C	-1.332827	-0.292453	-0.000010
C20	C	-1.335201	-0.391759	-0.000015
N21	N	-1.340868	-0.128948	0.235356
C22	C	-1.448841	0.190650	0.000007
C23	C	-1.446603	0.283959	-0.000003
C24	C	-1.342106	0.320454	-0.000008
C25	C	-1.239839	0.263634	-0.000012
C26	C	-1.242077	0.170328	-0.000009
C27	C	-1.235180	0.458116	-0.000016
C28	C	-1.232942	0.551429	-0.000017
C29	C	-1.439707	0.571747	-0.000010
C30	C	-1.441945	0.478440	-0.000007
C31	C	-1.339678	0.421627	-0.000010
N32	N	-1.340923	-0.128966	-0.235358
C33	C	-1.417969	-0.068541	0.287400
C34	C	-1.417976	-0.068541	0.391504
C35	C	-1.340887	-0.128951	0.443561
C36	C	-1.263778	-0.189361	0.391510
C37	C	-1.263767	-0.189356	0.287408
C38	C	-1.263810	-0.189367	0.608490
C39	C	-1.263822	-0.189372	0.712598
C40	C	-1.418019	-0.068551	0.712585
C41	C	-1.418007	-0.068547	0.608484
C42	C	-1.340900	-0.128957	0.556440
H43	H	-1.529874	0.330212	-0.000000
H44	H	-1.480784	-0.019360	0.566099
C45	C	-1.067416	-0.240807	0.744703
C46	C	-1.179073	-0.255759	0.769831
H47	H	-1.015096	-0.281786	0.780044
H48	H	-1.056371	-0.249463	0.675267
H49	H	-1.055055	-0.181035	0.761773
H50	H	-1.191438	-0.315529	0.752755
H51	H	-1.190123	-0.247111	0.839283
H52	H	-1.201017	-0.238557	0.566119
C53	C	-1.615240	0.617814	0.085013
C54	C	-1.552120	0.634196	-0.000011
H55	H	-1.684632	0.656375	0.085017
H56	H	-1.631529	0.557030	0.085012
H57	H	-1.572371	0.628942	0.142675
H58	H	-1.594986	0.623062	-0.057674
H59	H	-1.535834	0.694994	-0.000019
C60	C	-1.111363	-0.308791	0.297871
C61	C	-1.179020	-0.255761	0.230197
H62	H	-1.059046	-0.349789	0.262550
H63	H	-1.070498	-0.271341	0.338487
H64	H	-1.158663	-0.341218	0.338460
H65	H	-1.131721	-0.223329	0.189612
H66	H	-1.219888	-0.293215	0.189564
H67	H	-1.527036	0.448730	0.000004
H68	H	-1.158807	0.124072	-0.000011
H69	H	-1.480748	-0.019352	0.245022
H70	H	-1.147850	0.581139	-0.000004
C71	C	-1.030571	0.447399	-0.000015
C72	C	-1.122767	0.395665	-0.000017
H73	H	-0.961176	0.408843	-0.000007
H74	H	-1.034004	0.484205	-0.057686
H75	H	-1.034001	0.484225	0.057661
H76	H	-1.119342	0.358844	-0.057697
H77	H	-1.119332	0.358843	0.057660
C78	C	-1.614431	-0.017089	0.744611
C79	C	-1.502778	-0.002149	0.769792
H80	H	-1.666756	0.023897	0.779939
H81	H	-1.625453	-0.008437	0.675172
H82	H	-1.626809	-0.076858	0.761663
H83	H	-1.490397	0.057619	0.752734
H84	H	-1.491751	-0.010793	0.839247
C85	C	-1.109370	-0.207946	0.508618
C86	C	-1.179041	-0.255764	0.448734
H87	H	-1.057063	-0.248944	0.543948
H88	H	-1.068493	-0.170502	0.468023
H89	H	-1.155305	-0.171973	0.554507
H90	H	-1.133106	-0.291732	0.402839
H91	H	-1.219921	-0.293223	0.489332
C92	C	-1.442486	0.053068	0.508576
C93	C	-1.502735	-0.002140	0.448703
H94	H	-1.494819	0.094066	0.543880
H95	H	-1.396589	0.017096	0.554478
H96	H	-1.395204	0.085494	0.467968
H97	H	-1.550012	-0.034572	0.489312
H98	H	-1.548652	0.033836	0.402795
C99	C	-1.625768	0.179231	-0.085016
C100	C	-1.563708	0.150537	0.000006
H101	H	-1.696680	0.154463	-0.085021
H102	H	-1.639068	0.242924	-0.085009
H103	H	-1.583648	0.159752	-0.142680
H104	H	-1.605823	0.170022	0.057670
H105	H	-1.550411	0.086830	0.000008
H106	H	-1.154755	0.293356	-0.000022
