data_functionalizedCrystal
_audit_creation_method	'MofGen! by Chris Wilmer'
_symmetry_space_group_name_H-M	'P1'
_symmetry_Int_Tables_number	1
_symmetry_cell_setting	triclinic
loop_
_symmetry_equiv_pos_as_xyz
  x,y,z
_cell_length_a	14.519709
_cell_length_b	14.519731
_cell_length_c	16.776229
_cell_angle_alpha	89.992369
_cell_angle_beta	89.998478
_cell_angle_gamma	83.684499
loop_
_atom_site_label
_atom_site_type_symbol
_atom_site_fract_x
_atom_site_fract_y
_atom_site_fract_z
O1	O	1.223880	0.120892	-0.066186
O2	O	1.557213	0.454225	0.267147
O3	O	1.890547	0.787559	0.600480
O4	O	0.955404	0.135129	-0.066211
O5	O	1.288738	0.468462	0.267123
O6	O	1.622071	0.801795	0.600456
O7	O	1.096750	-0.006227	-0.066191
O8	O	1.430083	0.327107	0.267143
O9	O	1.763417	0.660440	0.600476
O10	O	1.082534	0.262248	-0.066206
O11	O	1.415867	0.595581	0.267127
O12	O	1.749201	0.928914	0.600460
O13	O	1.096731	-0.006235	0.066386
O14	O	1.430065	0.327098	0.399719
O15	O	1.763398	0.660431	0.733053
O16	O	0.955385	0.135120	0.066366
O17	O	1.288719	0.468453	0.399699
O18	O	1.622052	0.801787	0.733032
O19	O	1.223861	0.120883	0.066390
O20	O	1.557195	0.454217	0.399724
O21	O	1.890528	0.787550	0.733057
Zn22	Zn	1.089620	0.128000	0.087427
Zn23	Zn	1.422954	0.461334	0.420761
Zn24	Zn	1.756287	0.794667	0.754094
Zn25	Zn	1.089645	0.128012	-0.087248
Zn26	Zn	1.422978	0.461345	0.246085
Zn27	Zn	1.756312	0.794678	0.579419
O28	O	1.082515	0.262239	0.066370
O29	O	1.415849	0.595572	0.399703
O30	O	1.749182	0.928905	0.733037
C31	C	1.096075	-0.040591	0.000098
C32	C	1.429408	0.292743	0.333431
C33	C	1.762741	0.626076	0.666764
C34	C	1.094079	-0.142971	0.000098
C35	C	1.427412	0.190363	0.333431
C36	C	1.760745	0.523696	0.666765
C37	C	0.921035	0.134461	0.000074
C38	C	1.254368	0.467794	0.333408
C39	C	1.587702	0.801127	0.666741
C40	C	0.818654	0.132473	0.000065
C41	C	1.151987	0.465806	0.333399
C42	C	1.485320	0.799139	0.666732
C43	C	1.092457	-0.226115	0.000096
C44	C	1.425790	0.107218	0.333429
C45	C	1.759123	0.440552	0.666763
C46	C	1.090430	-0.330424	0.000090
C47	C	1.423763	0.002910	0.333423
C48	C	1.757097	0.336243	0.666756
C49	C	1.088822	-0.413563	0.000084
C50	C	1.422155	-0.080229	0.333418
C51	C	1.755488	0.253104	0.666751
C52	C	1.086795	-0.517878	0.000080
C53	C	1.420129	-0.184545	0.333413
C54	C	1.753462	0.148789	0.666746
C55	C	0.443757	0.125153	0.000102
C56	C	0.777091	0.458486	0.333435
C57	C	1.110424	0.791820	0.666769
C58	C	0.548065	0.127186	0.000091
C59	C	0.881399	0.460519	0.333425
C60	C	1.214732	0.793852	0.666758
C61	C	0.631202	0.128813	0.000083
C62	C	0.964535	0.462146	0.333416
C63	C	1.297869	0.795479	0.666749
C64	C	0.735517	0.130846	0.000074
C65	C	1.068850	0.464179	0.333407
C66	C	1.402183	0.797512	0.666741
C67	C	1.258230	0.121551	0.000103
C68	C	1.591564	0.454885	0.333437
C69	C	1.924897	0.788218	0.666770
C70	C	1.360612	0.123539	0.000107
C71	C	1.693945	0.456873	0.333441
C72	C	2.027279	0.790206	0.666774
C73	C	1.083191	0.296603	0.000080
C74	C	1.416524	0.629936	0.333413
C75	C	1.749858	0.963269	0.666747
C76	C	1.085187	0.398983	0.000074
C77	C	1.418520	0.732316	0.333408
C78	C	1.751854	1.065649	0.666741
N79	N	1.089610	0.127992	0.206639
N80	N	1.422943	0.461325	0.539972
N81	N	1.756277	0.794658	0.873305
N82	N	1.089663	0.128013	-0.206459
N83	N	1.422996	0.461346	0.126874
N84	N	1.756329	0.794680	0.460208
C85	C	1.152217	0.065425	0.248365
C86	C	1.485551	0.398759	0.581698
C87	C	1.818884	0.732092	0.915031
C88	C	1.152222	0.065425	0.331817
C89	C	1.485556	0.398758	0.665150
C90	C	1.818889	0.732091	0.998483
C91	C	1.089624	0.127995	0.373541
C92	C	1.422957	0.461329	0.706875
C93	C	1.756291	0.794662	1.040208
C94	C	1.027010	0.190565	0.331810
C95	C	1.360344	0.523898	0.665143
C96	C	1.693677	0.857231	0.998476
C97	C	1.027001	0.190560	0.248359
C98	C	1.360335	0.523894	0.581692
C99	C	1.693668	0.857227	0.915026
C100	C	1.027044	0.190583	0.668357
C101	C	1.360377	0.523916	1.001690
C102	C	1.693710	0.857250	1.335023
C103	C	1.027059	0.190584	0.751813
C104	C	1.360392	0.523918	1.085147
C105	C	1.693726	0.857251	1.418480
C106	C	1.152265	0.065447	0.751815
C107	C	1.485598	0.398781	1.085148
C108	C	1.818931	0.732114	1.418481
C109	C	1.152256	0.065443	0.668364
C110	C	1.485589	0.398776	1.001697
C111	C	1.818922	0.732110	1.335031
C112	C	1.089639	0.128009	0.626639
C113	C	1.422972	0.461342	0.959973
C114	C	1.756306	0.794675	1.293306
C115	C	1.089633	0.128007	0.536151
C116	C	1.422967	0.461341	0.869484
C117	C	1.756300	0.794674	1.202818
C118	C	1.089634	0.128002	0.464028
C119	C	1.422967	0.461335	0.797362
C120	C	1.756300	0.794668	1.130695
H121	H	1.203201	0.014478	0.365790
H122	H	1.536534	0.347811	0.699123
H123	H	1.869868	0.681145	1.032456
O124	O	1.219766	-0.002048	0.623359
O125	O	1.553100	0.331285	0.956692
O126	O	1.886433	0.664619	1.290025
H127	H	1.263296	-0.045563	0.666394
H128	H	1.596630	0.287770	0.999728
H129	H	1.929963	0.621103	1.333061
H130	H	0.976061	0.241528	0.634391
H131	H	1.309394	0.574861	0.967725
H132	H	1.642727	0.908194	1.301058
H133	H	1.203248	0.014500	0.785796
H134	H	1.536581	0.347833	1.119129
H135	H	1.869915	0.681167	1.452462
H136	H	0.976081	0.241539	0.785784
H137	H	1.309414	0.574872	1.119118
H138	H	1.642747	0.908205	1.452451
H139	H	0.976037	0.241508	0.365787
H140	H	1.309370	0.574841	0.699120
H141	H	1.642704	0.908175	1.032453
O142	O	0.959480	0.258046	0.203348
O143	O	1.292814	0.591380	0.536681
O144	O	1.626147	0.924713	0.870015
H145	H	0.915959	0.301564	0.246380
H146	H	1.249292	0.634897	0.579713
H147	H	1.582626	0.968230	0.913046
H148	H	1.203196	0.014477	0.214398
H149	H	1.536529	0.347810	0.547731
H150	H	1.869862	0.681144	0.881065
