data_functionalizedCrystal
_audit_creation_method	'MofGen! by Chris Wilmer'
_symmetry_space_group_name_H-M	'P1'
_symmetry_Int_Tables_number	1
_symmetry_cell_setting	triclinic
loop_
_symmetry_equiv_pos_as_xyz
  x,y,z
_cell_length_a	13.635800
_cell_length_b	10.992723
_cell_length_c	11.102300
_cell_angle_alpha	88.113369
_cell_angle_beta	108.605850
_cell_angle_gamma	71.229715
loop_
_atom_site_label
_atom_site_type_symbol
_atom_site_fract_x
_atom_site_fract_y
_atom_site_fract_z
V1	V	2.056196	-0.177762	0.396245
O2	O	2.035261	0.008543	0.388714
O3	O	2.045008	-0.352473	0.393524
O4	O	2.044580	-0.175028	0.569067
O5	O	2.035692	-0.170131	0.211956
V6	V	2.294693	-0.155478	0.374204
O7	O	2.193986	-0.226645	0.444594
O8	O	2.382003	-0.106596	0.325855
O9	O	2.194278	0.019233	0.376925
O10	O	2.374327	-0.341783	0.381736
O11	O	2.373896	-0.163109	0.558493
O12	O	2.194706	-0.158213	0.201383
V13	V	2.556196	-0.177762	0.396245
O14	O	2.535261	0.008543	0.388714
O15	O	2.545008	-0.352473	0.393524
O16	O	2.544580	-0.175028	0.569067
O17	O	2.535692	-0.170131	0.211956
V18	V	2.794693	-0.155478	0.374204
O19	O	2.693986	-0.226645	0.444594
O20	O	2.882003	-0.106596	0.325855
O21	O	2.694278	0.019233	0.376925
O22	O	2.874327	-0.341783	0.381736
O23	O	2.873896	-0.163109	0.558493
O24	O	2.694706	-0.158213	0.201383
C25	C	1.970267	-0.395064	0.387270
C26	C	2.001847	-0.537892	0.386198
C27	C	2.157799	-0.748833	0.391848
C28	C	2.125157	-0.600354	0.393455
C29	C	1.990103	-0.607104	0.503910
C30	C	2.023687	-0.755778	0.502940
C31	C	1.958578	-0.717503	0.259979
C32	C	1.927402	-0.568782	0.259633
C33	C	1.969720	-0.168713	0.611190
C34	C	2.000950	-0.167633	0.752473
C35	C	2.100691	0.061817	0.383176
C36	C	2.058730	0.204644	0.384257
C37	C	2.101237	-0.164532	0.159252
C38	C	2.059626	-0.165605	0.017969
C39	C	2.470267	-0.395064	0.387270
C40	C	2.501847	-0.537892	0.386198
C41	C	2.469720	-0.168713	0.611190
C42	C	2.500950	-0.167633	0.752473
C43	C	2.107644	-0.173543	0.825321
C44	C	2.136981	-0.172524	0.958070
C45	C	1.952922	-0.159691	0.945110
C46	C	1.923584	-0.160701	0.812362
C47	C	2.600691	0.061817	0.383176
C48	C	2.558730	0.204644	0.384257
C49	C	2.601237	-0.164532	0.159252
C50	C	2.559626	-0.165605	0.017969
C51	C	2.608703	-0.611537	0.392034
C52	C	2.638372	-0.745741	0.391036
C53	C	2.454317	-0.732641	0.378360
C54	C	2.424652	-0.598441	0.379367
C55	C	2.607644	-0.173543	0.825321
C56	C	2.636981	-0.172524	0.958070
C57	C	2.452922	-0.159691	0.945110
C58	C	2.423584	-0.160701	0.812362
H59	H	2.137808	-0.553203	0.309320
Cl60	Cl	1.789444	-0.153268	0.720774
H61	H	2.725383	-0.805698	0.395790
Cl62	Cl	2.705752	-0.535425	0.400633
Cl63	Cl	2.704902	-0.182251	0.750034
Cl64	Cl	2.355675	-0.150993	1.020412
Cl65	Cl	2.771114	-0.179954	1.049646
H66	H	2.094192	-0.807599	0.596523
H67	H	1.978529	-0.742960	0.169737
H68	H	2.391472	-0.781956	0.372796
H69	H	1.889938	-0.154049	0.993889
H70	H	1.951486	-0.786809	0.502614
H71	H	2.336696	-0.155878	0.753045
H72	H	2.186776	-0.774000	0.307211
Cl73	Cl	2.272358	-0.832419	0.530269
H74	H	1.901666	-0.566667	0.503072
Cl75	Cl	2.072886	-0.575942	0.648513
Cl76	Cl	2.215336	-0.571556	0.533681
H77	H	1.936530	-0.522188	0.172475
Cl78	Cl	2.290310	-0.505853	0.372038
Cl79	Cl	1.843760	-0.762577	0.249586
Cl80	Cl	2.204902	-0.182251	0.750034
Cl81	Cl	1.786473	-0.500807	0.240087
H82	H	2.223858	-0.177335	1.017377
