data_functionalizedCrystal
_audit_creation_method	'MofGen! by Chris Wilmer'
_symmetry_space_group_name_H-M	'P1'
_symmetry_Int_Tables_number	1
_symmetry_cell_setting	triclinic
loop_
_symmetry_equiv_pos_as_xyz
  x,y,z
_cell_length_a	23.532361
_cell_length_b	23.532407
_cell_length_c	11.892095
_cell_angle_alpha	93.859970
_cell_angle_beta	86.130527
_cell_angle_gamma	82.839173
loop_
_atom_site_label
_atom_site_type_symbol
_atom_site_fract_x
_atom_site_fract_y
_atom_site_fract_z
O1	O	0.758935	0.065350	-0.093900
O2	O	1.258935	0.565350	0.406100
O3	O	0.593069	0.075380	-0.093929
O4	O	1.093069	0.575380	0.406071
O5	O	0.681003	-0.012566	-0.093893
O6	O	1.181003	0.487434	0.406107
O7	O	0.671001	0.153297	-0.093936
O8	O	1.171001	0.653297	0.406064
O9	O	0.673671	-0.005245	0.094111
O10	O	1.173671	0.494755	0.594111
O11	O	0.585737	0.082702	0.094076
O12	O	1.085737	0.582702	0.594076
O13	O	0.751603	0.072672	0.094104
O14	O	1.251603	0.572672	0.594104
Zn15	Zn	0.667506	0.078849	0.123940
Zn16	Zn	1.167506	0.578849	0.623940
Zn17	Zn	0.677166	0.069203	-0.123764
Zn18	Zn	1.177166	0.569203	0.376236
O19	O	0.663669	0.160619	0.094068
O20	O	1.163669	0.660619	0.594068
C21	C	0.568187	0.078790	0.000070
C22	C	1.068187	0.578790	0.500070
C23	C	0.504968	0.078034	0.000060
C24	C	1.004968	0.578034	0.500060
C25	C	0.235721	0.070740	-0.102414
C26	C	0.735721	0.570740	0.397586
C27	C	0.295121	0.071455	-0.102417
C28	C	0.795121	0.571455	0.397583
O29	O	0.329246	0.068411	-0.189571
O30	O	0.829246	0.568411	0.310429
N31	N	0.320830	0.075807	0.000065
N32	N	0.820830	0.575807	0.500065
C33	C	0.287137	0.079439	0.102556
C34	C	0.787137	0.579439	0.602556
O35	O	0.314459	0.083206	0.189724
O36	O	0.814459	0.583206	0.689724
C37	C	0.227738	0.078720	0.102558
C38	C	0.727738	0.578720	0.602558
C39	C	0.202032	0.074373	0.000070
C40	C	0.702032	0.574373	0.500070
C41	C	0.210014	0.066393	-0.204894
C42	C	0.710014	0.566393	0.295106
C43	C	0.150618	0.065679	-0.204890
C44	C	0.650618	0.565679	0.295110
C45	C	0.116929	0.069312	-0.102407
C46	C	0.616929	0.569312	0.397593
C47	C	0.142636	0.073659	0.000073
C48	C	0.642636	0.573659	0.500073
C49	C	0.194047	0.082347	0.205048
C50	C	0.694047	0.582347	0.705048
C51	C	0.134645	0.081628	0.205041
C52	C	0.634645	0.581628	0.705041
C53	C	0.108938	0.077281	0.102553
C54	C	0.608938	0.577281	0.602553
C55	C	0.049551	0.076579	0.102560
C56	C	0.549551	0.576579	0.602560
N57	N	0.023842	0.072227	0.000078
N58	N	0.523842	0.572227	0.500078
C59	C	0.057531	0.068594	-0.102405
C60	C	0.557531	0.568594	0.397595
C61	C	0.411877	0.080947	0.102545
C62	C	0.911877	0.580947	0.602545
C63	C	0.471274	0.081670	0.102544
C64	C	0.971274	0.581670	0.602544
C65	C	0.479254	0.073685	-0.102429
C66	C	0.979254	0.573685	0.397571
C67	C	0.419856	0.072966	-0.102428
C68	C	0.919856	0.572966	0.397572
C69	C	0.386168	0.076595	0.000063
C70	C	0.886168	0.576595	0.500063
C71	C	-0.067205	0.067096	-0.102390
C72	C	0.432795	0.567096	0.397610
C73	C	-0.126607	0.066385	-0.102378
C74	C	0.373393	0.566385	0.397622
C75	C	-0.134582	0.074367	0.102595
C76	C	0.365418	0.574367	0.602595
C77	C	-0.075185	0.075081	0.102583
C78	C	0.424815	0.575081	0.602583
C79	C	-0.041498	0.071443	0.000081
C80	C	0.458502	0.571443	0.500081
O81	O	0.015391	0.079618	0.189670
O82	O	0.515391	0.579618	0.689670
O83	O	0.030202	0.064820	-0.189559
O84	O	0.530202	0.564820	0.310441
C85	C	0.677082	-0.030121	0.000112
C86	C	1.177082	0.469879	0.500112
C87	C	0.676316	-0.093338	0.000121
C88	C	1.176316	0.406662	0.500121
C89	C	0.723552	-0.492451	0.000067
C90	C	1.223552	0.007549	0.500067
C91	C	0.722841	-0.551852	0.000058
C92	C	1.222841	-0.051852	0.500058
O93	O	0.766629	-0.588605	0.000024
O94	O	1.266629	-0.088605	0.500024
N95	N	0.670564	-0.574469	0.000050
N96	N	1.170564	-0.074469	0.500050
C97	C	0.618995	-0.537684	0.000039
C98	C	1.118995	-0.037684	0.500039
O99	O	0.574464	-0.562376	0.000030
O100	O	1.074464	-0.062376	0.500030
C101	C	0.619707	-0.478285	0.000040
C102	C	1.119707	0.021715	0.500040
C103	C	0.671987	-0.455670	0.000059
C104	C	1.171987	0.044330	0.500059
C105	C	0.775828	-0.469836	0.000085
C106	C	1.275828	0.030164	0.500085
C107	C	0.776539	-0.410439	0.000096
C108	C	1.276539	0.089561	0.500096
C109	C	0.724974	-0.373658	0.000088
C110	C	1.224974	0.126342	0.500088
C111	C	0.672698	-0.396273	0.000070
C112	C	1.172698	0.103727	0.500070
C113	C	0.568139	-0.441500	0.000020
C114	C	1.068139	0.058500	0.500020
C115	C	0.568856	-0.382098	0.000020
C116	C	1.068856	0.117902	0.500020
C117	C	0.621136	-0.359483	0.000040
C118	C	1.121136	0.140517	0.500040
C119	C	0.621844	-0.300096	0.000073
C120	C	1.121844	0.199904	0.500073
N121	N	0.674121	-0.277478	0.000081
N122	N	1.174121	0.222522	0.500081
C123	C	0.725686	-0.314259	0.000089
C124	C	1.225686	0.185741	0.500089
C125	C	0.617504	-0.662426	0.000036
C126	C	1.117504	-0.162426	0.500036
C127	C	0.616791	-0.721823	0.000043
C128	C	1.116791	-0.221823	0.500043
C129	C	0.720637	-0.735988	0.000060
C130	C	1.220637	-0.235988	0.500060
C131	C	0.721349	-0.676589	0.000061
C132	C	1.221349	-0.176589	0.500061
C133	C	0.669781	-0.639808	0.000044
C134	C	1.169781	-0.139808	0.500044
C135	C	0.727175	-0.189522	0.000113
C136	C	1.227175	0.310478	0.500113
C137	C	0.727881	-0.130119	0.000128
C138	C	1.227881	0.369881	0.500128
C139	C	0.624035	-0.115961	0.000105
C140	C	1.124035	0.384039	0.500105
C141	C	0.623328	-0.175358	0.000096
C142	C	1.123328	0.324642	0.500096
C143	C	0.674903	-0.212138	0.000096
C144	C	1.174903	0.287862	0.500096
O145	O	0.578079	-0.263308	0.000103
O146	O	1.078079	0.236692	0.500103
O147	O	0.770210	-0.289559	0.000083
O148	O	1.270210	0.210441	0.500083
C149	C	0.776485	0.069262	0.000103
C150	C	1.276485	0.569262	0.500103
C151	C	0.839704	0.070018	0.000106
C152	C	1.339704	0.570018	0.500106
C153	C	0.667590	0.178174	0.000061
C154	C	1.167590	0.678174	0.500061
C155	C	0.668357	0.241390	0.000045
C156	C	1.168357	0.741390	0.500045
N157	N	0.660918	0.085432	0.292991
N158	N	1.160918	0.585432	0.792991
N159	N	0.683759	0.062615	-0.292816
N160	N	1.183759	0.562615	0.207184
C161	C	0.729604	0.016774	0.529667
C162	C	1.229604	0.516774	1.029667
C163	C	0.725003	0.021380	0.648007
C164	C	1.225003	0.521380	1.148007
C165	C	0.647112	0.099246	0.648013
C166	C	1.147112	0.599246	1.148013
C167	C	0.651713	0.094641	0.529673
C168	C	1.151713	0.594641	1.029673
C169	C	0.692961	0.053404	0.470504
C170	C	1.192961	0.553404	0.970504
C171	C	0.697565	0.048801	0.352162
C172	C	1.197565	0.548801	0.852162
C173	C	0.619671	0.126665	0.352171
C174	C	1.119671	0.626665	0.852171
C175	C	0.615070	0.131270	0.470511
C176	C	1.115070	0.631270	0.970511
H177	H	0.506695	0.070726	-0.185877
H178	H	1.006695	0.570726	0.314123
Br179	Br	0.255725	0.061459	-0.343998
Br180	Br	0.755725	0.561459	0.156002
H181	H	0.526861	-0.352153	0.000005
H182	H	1.026861	0.147847	0.500005
Br183	Br	0.552375	-0.206049	0.000095
Br184	Br	1.052375	0.293951	0.500095
H185	H	0.770455	-0.111710	0.000147
H186	H	1.270455	0.388290	0.500147
Br187	Br	0.559090	0.187230	0.550818
Br188	Br	1.059090	0.687230	1.050818
H189	H	0.762625	-0.765946	0.000062
H190	H	1.262625	-0.265946	0.500062
H191	H	-0.039784	0.064134	-0.185857
H192	H	0.460216	0.564134	0.314143
Br193	Br	0.554057	-0.066032	0.000095
Br194	Br	1.054057	0.433968	0.500095
Br195	Br	0.797170	-0.239428	0.000111
Br196	Br	1.297170	0.260572	0.500111
Br197	Br	-0.040298	0.080989	0.241675
Br198	Br	0.459702	0.580989	0.741675
H199	H	-0.147534	0.062847	-0.185840
H200	H	0.352466	0.562847	0.314160
Br201	Br	0.753546	-0.007160	0.271863
Br202	Br	1.253546	0.492840	0.771863
H203	H	0.384451	0.083910	0.186010
H204	H	0.884451	0.583910	0.686010
H205	H	0.817821	-0.499778	0.000087
H206	H	1.317821	0.000222	0.500087
H207	H	0.129694	0.062137	-0.288347
H208	H	0.629694	0.562137	0.211653
Br209	Br	0.384975	0.067067	-0.241523
Br210	Br	0.884975	0.567067	0.258477
H211	H	0.214967	0.085885	0.288505
H212	H	0.714967	0.585885	0.788505
H213	H	0.492197	0.085219	0.186000
H214	H	0.992197	0.585219	0.686000
H215	H	0.107218	0.084588	0.288503
H216	H	0.607218	0.584588	0.788503
Br217	Br	-0.180314	0.079300	0.241673
Br218	Br	0.319686	0.579300	0.741673
H219	H	0.574218	-0.740230	0.000047
H220	H	1.074218	-0.240230	0.500047
Br221	Br	0.785590	-0.039181	0.449363
Br222	Br	1.285590	0.460819	0.949363
Br223	Br	0.847496	-0.379759	0.000091
Br224	Br	1.347496	0.120241	0.500091
Br225	Br	0.774732	-0.028337	0.728297
Br226	Br	1.274732	0.471663	1.228297
H227	H	0.763920	-0.658180	0.000076
H228	H	1.263920	-0.158180	0.500076
Br229	Br	0.547511	-0.612514	0.000022
Br230	Br	1.047511	-0.112514	0.500022
H231	H	0.613525	0.132817	0.696204
H232	H	1.113525	0.632817	1.196204
Br233	Br	0.569944	0.176384	0.271868
Br234	Br	1.069944	0.676384	0.771868
H235	H	0.525567	-0.459902	-0.000002
H236	H	1.025567	0.040098	0.499998
