data_functionalizedCrystal
_audit_creation_method	'MofGen! by Chris Wilmer'
_symmetry_space_group_name_H-M	'P1'
_symmetry_Int_Tables_number	1
_symmetry_cell_setting	triclinic
loop_
_symmetry_equiv_pos_as_xyz
  x,y,z
_cell_length_a	23.532355
_cell_length_b	23.532357
_cell_length_c	22.610064
_cell_angle_alpha	89.998517
_cell_angle_beta	89.997644
_cell_angle_gamma	82.827896
loop_
_atom_site_label
_atom_site_type_symbol
_atom_site_fract_x
_atom_site_fract_y
_atom_site_fract_z
O1	O	0.755270	0.068988	-0.049111
O2	O	1.255270	0.568988	0.450889
O3	O	0.589401	0.079022	-0.049131
O4	O	1.089401	0.579022	0.450869
O5	O	0.677352	-0.008929	-0.049108
O6	O	1.177352	0.491071	0.450892
O7	O	0.667319	0.156940	-0.049134
O8	O	1.167319	0.656940	0.450866
O9	O	0.677337	-0.008917	0.049261
O10	O	1.177337	0.491083	0.549261
O11	O	0.589385	0.079035	0.049238
O12	O	1.089385	0.579035	0.549238
O13	O	0.755255	0.069001	0.049258
O14	O	1.255255	0.569001	0.549258
Zn15	Zn	0.672318	0.074020	0.064866
Zn16	Zn	1.172318	0.574020	0.564866
Zn17	Zn	0.672338	0.074003	-0.064739
Zn18	Zn	1.172338	0.574003	0.435261
O19	O	0.667303	0.156953	0.049235
O20	O	1.167303	0.656953	0.549235
C21	C	0.568177	0.078778	0.000051
C22	C	1.068177	0.578778	0.500051
C23	C	0.504958	0.078024	0.000044
C24	C	1.004958	0.578024	0.500044
C25	C	0.112937	0.073293	0.053691
C26	C	0.612937	0.573293	0.553691
C27	C	0.053537	0.072575	0.053693
C28	C	0.553537	0.572575	0.553693
O29	O	0.022812	0.072191	0.099295
O30	O	0.522812	0.572191	0.599295
N31	N	0.023837	0.072212	0.000072
N32	N	0.523837	0.572212	0.500072
C33	C	0.053541	0.072561	-0.053554
C34	C	0.553541	0.572561	0.446446
O35	O	0.022824	0.072186	-0.099163
O36	O	0.522824	0.572186	0.400837
C37	C	0.112939	0.073275	-0.053556
C38	C	0.612939	0.573275	0.446444
C39	C	0.142636	0.073643	0.000068
C40	C	0.642636	0.573643	0.500068
C41	C	0.142633	0.073661	0.107311
C42	C	0.642633	0.573661	0.607311
C43	C	0.202028	0.074379	0.107308
C44	C	0.702028	0.574379	0.607308
C45	C	0.231727	0.074730	0.053686
C46	C	0.731727	0.574730	0.553686
C47	C	0.202031	0.074362	0.000066
C48	C	0.702031	0.574362	0.500066
C49	C	0.142642	0.073620	-0.107182
C50	C	0.642642	0.573620	0.392818
C51	C	0.202045	0.074333	-0.107179
C52	C	0.702045	0.574333	0.392821
C53	C	0.231741	0.074701	-0.053555
C54	C	0.731741	0.574701	0.446445
C55	C	0.291124	0.075431	-0.053560
C56	C	0.791124	0.575431	0.446440
N57	N	0.320824	0.075794	0.000061
N58	N	0.820824	0.575794	0.500061
C59	C	0.291126	0.075443	0.053684
C60	C	0.791126	0.575443	0.553684
C61	C	-0.071201	0.071062	-0.053546
C62	C	0.428799	0.571062	0.446454
C63	C	-0.130599	0.070353	-0.053545
C64	C	0.369401	0.570353	0.446455
C65	C	-0.130598	0.070366	0.053702
C66	C	0.369402	0.570366	0.553702
C67	C	-0.071199	0.071079	0.053701
C68	C	0.428801	0.571079	0.553701
C69	C	-0.041501	0.071425	0.000074
C70	C	0.458499	0.571425	0.500074
C71	C	0.415859	0.076952	0.053674
C72	C	0.915859	0.576952	0.553674
C73	C	0.475259	0.077673	0.053667
C74	C	0.975259	0.577673	0.553667
C75	C	0.475254	0.077657	-0.053581
C76	C	0.975254	0.577657	0.446419
C77	C	0.415858	0.076940	-0.053574
C78	C	0.915858	0.576940	0.446426
C79	C	0.386163	0.076585	0.000059
C80	C	0.886163	0.576585	0.500059
O81	O	0.321888	0.075813	-0.099138
O82	O	0.821888	0.575813	0.400862
O83	O	0.321850	0.075811	0.099285
O84	O	0.821850	0.575811	0.599285
C85	C	0.677094	-0.030140	0.000078
C86	C	1.177094	0.469860	0.500078
C87	C	0.676339	-0.093358	0.000084
C88	C	1.176339	0.406642	0.500084
C89	C	0.671611	-0.485375	-0.053570
C90	C	1.171611	0.014625	0.446430
C91	C	0.670893	-0.544775	-0.053573
C92	C	1.170893	-0.044775	0.446427
O93	O	0.670510	-0.575497	-0.099176
O94	O	1.170510	-0.075497	0.400824
N95	N	0.670529	-0.574479	0.000047
N96	N	1.170529	-0.074479	0.500047
C97	C	0.670877	-0.544780	0.053674
C98	C	1.170877	-0.044780	0.553674
O99	O	0.670500	-0.575500	0.099282
O100	O	1.170500	-0.075500	0.599282
C101	C	0.671590	-0.485381	0.053677
C102	C	1.171590	0.014619	0.553677
C103	C	0.671960	-0.455681	0.000053
C104	C	1.171960	0.044319	0.500053
C105	C	0.671980	-0.455675	-0.107189
C106	C	1.171980	0.044325	0.392811
C107	C	0.672698	-0.396280	-0.107186
C108	C	1.172698	0.103720	0.392814
C109	C	0.673047	-0.366585	-0.053563
C110	C	1.173047	0.133415	0.446437
C111	C	0.672678	-0.396286	0.000057
C112	C	1.172678	0.103714	0.500057
C113	C	0.671933	-0.455682	0.107303
C114	C	1.171933	0.044318	0.607303
C115	C	0.672646	-0.396280	0.107302
C116	C	1.172646	0.103720	0.607302
C117	C	0.673016	-0.366579	0.053678
C118	C	1.173016	0.133421	0.553678
C119	C	0.673745	-0.307196	0.053684
C120	C	1.173745	0.192804	0.553684
N121	N	0.674109	-0.277492	0.000063
N122	N	1.174109	0.222508	0.500063
C123	C	0.673760	-0.307186	-0.053560
C124	C	1.173760	0.192814	0.446440
C125	C	0.669378	-0.669521	0.053664
C126	C	1.169378	-0.169521	0.553664
C127	C	0.668669	-0.728919	0.053662
C128	C	1.168669	-0.228919	0.553662
C129	C	0.668685	-0.728910	-0.053586
C130	C	1.168685	-0.228910	0.446414
C131	C	0.669398	-0.669511	-0.053583
C132	C	1.169398	-0.169511	0.446417
C133	C	0.669742	-0.639817	0.000044
C134	C	1.169742	-0.139817	0.500044
C135	C	0.675269	-0.182453	-0.053548
C136	C	1.175269	0.317547	0.446452
C137	C	0.675990	-0.123053	-0.053540
C138	C	1.175990	0.376947	0.446460
C139	C	0.675971	-0.123067	0.053708
C140	C	1.175971	0.376933	0.553708
C141	C	0.675253	-0.182462	0.053700
C142	C	1.175253	0.317538	0.553700
C143	C	0.674901	-0.212153	0.000067
C144	C	1.174901	0.287847	0.500067
O145	O	0.674126	-0.276436	0.099263
O146	O	1.174126	0.223564	0.599263
O147	O	0.674129	-0.276458	-0.099160
O148	O	1.174129	0.223542	0.400840
C149	C	0.776479	0.069245	0.000074
C150	C	1.276479	0.569245	0.500074
C151	C	0.839698	0.069999	0.000078
C152	C	1.339698	0.569999	0.500078
C153	C	0.667562	0.178163	0.000048
C154	C	1.167562	0.678163	0.500048
C155	C	0.668317	0.241381	0.000038
C156	C	1.168317	0.741381	0.500038
N157	N	0.672308	0.074031	0.153319
N158	N	1.172308	0.574031	0.653319
N159	N	0.672352	0.073987	-0.153192
N160	N	1.172352	0.573987	0.346808
C161	C	0.711285	0.035064	0.561970
C162	C	1.211285	0.535064	1.061970
C163	C	0.711288	0.035060	0.623890
C164	C	1.211288	0.535060	1.123890
O165	O	0.744403	0.001937	0.655917
O166	O	1.244403	0.501937	1.155917
N167	N	0.672338	0.073991	0.654856
N168	N	1.172338	0.573991	1.154856
C169	C	0.633378	0.112926	0.623899
C170	C	1.133378	0.612926	1.123899
O171	O	0.600249	0.146039	0.655923
O172	O	1.100249	0.646039	1.155923
C173	C	0.633373	0.112927	0.561980
C174	C	1.133373	0.612927	1.061980
C175	C	0.672330	0.073996	0.531017
C176	C	1.172330	0.573996	1.031017
C177	C	0.750237	-0.003863	0.531008
C178	C	1.250237	0.496137	1.031008
C179	C	0.750235	-0.003858	0.469092
C180	C	1.250235	0.496142	0.969092
C181	C	0.711280	0.035074	0.438139
C182	C	1.211280	0.535074	0.938139
C183	C	0.672327	0.074001	0.469102
C184	C	1.172327	0.574001	0.969102
C185	C	0.594412	0.151858	0.531024
C186	C	1.094412	0.651858	1.031024
C187	C	0.594410	0.151855	0.469101
C188	C	1.094410	0.651855	0.969101
C189	C	0.633366	0.112925	0.438138
C190	C	1.133366	0.612925	0.938138
C191	C	0.633370	0.112939	0.376233
C192	C	1.133370	0.612939	0.876233
N193	N	0.672320	0.074007	0.345267
N194	N	1.172320	0.574007	0.845267
C195	C	0.711275	0.035075	0.376220
C196	C	1.211275	0.535075	0.876220
C197	C	0.633392	0.112920	0.753932
C198	C	1.133392	0.612920	1.253932
C199	C	0.633399	0.112922	0.815850
C200	C	1.133399	0.612922	1.315850
C201	C	0.711308	0.035056	0.815837
C202	C	1.211308	0.535056	1.315837
C203	C	0.711302	0.035057	0.753918
C204	C	1.211302	0.535057	1.253918
C205	C	0.672342	0.073989	0.722966
C206	C	1.172342	0.573989	1.222966
C207	C	0.711267	0.035089	0.246193
C208	C	1.211267	0.535089	0.746193
C209	C	0.711263	0.035099	0.184272
C210	C	1.211263	0.535099	0.684272
C211	C	0.633353	0.112963	0.184290
C212	C	1.133353	0.612963	0.684290
C213	C	0.633359	0.112955	0.246206
C214	C	1.133359	0.612955	0.746206
C215	C	0.672318	0.074013	0.277156
C216	C	1.172318	0.574013	0.777156
O217	O	0.600270	0.146043	0.344166
O218	O	1.100270	0.646043	0.844166
O219	O	0.744394	0.001962	0.344188
O220	O	1.244394	0.501962	0.844188
H221	H	-0.154774	0.070062	-0.097212
H222	H	0.345226	0.570062	0.402788
F223	F	0.752732	-0.006358	0.279123
F224	F	1.252732	0.493642	0.779123
H225	H	0.781955	-0.035560	0.443886
H226	H	1.281955	0.464440	0.943886
F227	F	0.668309	-0.760523	-0.110657
F228	F	1.168309	-0.260523	0.389343
F229	F	0.673088	-0.364678	-0.164260
F230	F	1.173088	0.135322	0.335740
H231	H	0.743026	0.003354	0.841050
H232	H	1.243026	0.503354	1.341050
F233	F	0.591902	0.154396	0.279157
F234	F	1.091902	0.654396	0.779157
F235	F	0.233626	0.074768	0.164383
F236	F	0.733626	0.574768	0.664383
H237	H	0.601637	0.144663	0.159078
H238	H	1.101637	0.644663	0.659078
F239	F	0.384264	0.076574	0.110756
F240	F	0.884264	0.576574	0.610756
H241	H	0.118459	0.073374	0.150979
H242	H	0.618459	0.573374	0.650979
H243	H	0.118474	0.073319	-0.150849
H244	H	0.618474	0.573319	0.349151
H245	H	0.671633	-0.479854	0.150970
H246	H	1.171633	0.020146	0.650970
F247	F	-0.162216	0.069991	0.110773
F248	F	0.337784	0.569991	0.610773
F249	F	0.506860	0.078067	0.110744
F250	F	1.006860	0.578067	0.610744
H251	H	0.743024	0.003356	0.728712
H252	H	1.243024	0.503356	1.228712
H253	H	0.601683	0.144629	0.841055
H254	H	1.101683	0.644629	1.341055
H255	H	0.674958	-0.206646	0.097365
H256	H	1.174958	0.293354	0.597365
F257	F	0.506872	0.078029	-0.110647
F258	F	1.006872	0.578029	0.389353
F259	F	0.674894	-0.214044	-0.110630
F260	F	1.174894	0.285956	0.389370
H261	H	-0.047025	0.071380	0.097366
H262	H	0.452975	0.571380	0.597366
F263	F	0.752728	-0.006336	0.151322
F264	F	1.252728	0.493664	0.651322
H265	H	0.226222	0.074614	-0.150849
H266	H	0.726222	0.574614	0.349151
F267	F	0.671608	-0.487269	-0.164268
F268	F	1.171608	0.012731	0.335732
H269	H	0.669698	-0.645333	-0.097248
H270	H	1.169698	-0.145333	0.402752
F271	F	0.791701	-0.045305	0.563942
F272	F	1.291701	0.454695	1.063942
H273	H	0.672917	-0.372104	0.150972
H274	H	1.172917	0.127896	0.650972
F275	F	0.676385	-0.091447	-0.110616
F276	F	1.176385	0.408553	0.389384
H277	H	0.676258	-0.098879	0.097366
H278	H	1.176258	0.401121	0.597366
F279	F	0.591925	0.154363	0.720996
F280	F	1.091925	0.654363	1.220996
F281	F	0.552949	0.193292	0.563965
F282	F	1.052949	0.693292	1.063965
F283	F	-0.039599	0.071436	-0.110627
F284	F	0.460401	0.571436	0.389373
H285	H	0.668376	-0.753097	0.097328
H286	H	1.168376	-0.253097	0.597328
F287	F	0.552940	0.193292	0.436164
F288	F	1.052940	0.693292	0.936164
H289	H	0.391677	0.076649	-0.097239
H290	H	0.891677	0.576649	0.402761
H291	H	0.669660	-0.645348	0.097336
H292	H	1.169660	-0.145348	0.597336
