data_functionalizedCrystal
_audit_creation_method	'MofGen! by Chris Wilmer'
_symmetry_space_group_name_H-M	'P1'
_symmetry_Int_Tables_number	1
_symmetry_cell_setting	triclinic
loop_
_symmetry_equiv_pos_as_xyz
  x,y,z
_cell_length_a	13.330367
_cell_length_b	19.288864
_cell_length_c	19.288853
_cell_angle_alpha	83.134502
_cell_angle_beta	89.984882
_cell_angle_gamma	89.978603
loop_
_atom_site_label
_atom_site_type_symbol
_atom_site_fract_x
_atom_site_fract_y
_atom_site_fract_z
O1	O	0.083768	-0.921349	-0.086648
O2	O	0.083703	-0.719088	-0.098336
O3	O	0.083704	-0.826066	0.008639
O4	O	0.083767	-0.814371	-0.193623
O5	O	-0.083143	-0.826050	0.008641
O6	O	-0.083145	-0.719072	-0.098334
O7	O	-0.083079	-0.921333	-0.086645
Cu8	Cu	-0.098346	-0.820201	-0.092489
Cu9	Cu	0.098970	-0.820220	-0.092492
O10	O	-0.083081	-0.814355	-0.193620
C11	C	0.000270	-0.693204	-0.097959
C12	C	0.000243	-0.616100	-0.096830
N13	N	-0.237128	-0.820194	-0.092487
C14	C	0.000274	-0.825683	0.034517
C15	C	0.000255	-0.824556	0.111620
C16	C	-0.709751	-0.772848	-0.139842
C17	C	-0.709718	-0.867610	-0.045137
C18	C	-0.604700	-0.867602	-0.045134
C19	C	-0.552202	-0.820217	-0.092488
C20	C	-0.604723	-0.772840	-0.139843
C21	C	-0.552171	-0.914984	0.002215
C22	C	-0.447146	-0.914978	0.002219
C23	C	-0.394647	-0.867589	-0.045132
C24	C	-0.447174	-0.820209	-0.092488
C25	C	-0.394677	-0.772824	-0.139842
C26	C	-0.447202	-0.725441	-0.187196
C27	C	-0.552224	-0.725451	-0.187193
C28	C	-0.289625	-0.867579	-0.045134
C29	C	-0.289649	-0.772816	-0.139842
N30	N	0.237751	-0.820233	-0.092489
C31	C	0.000356	-0.947217	-0.087023
C32	C	0.000389	-1.024321	-0.088152
C33	C	0.000279	-0.571402	-0.159598
C34	C	0.000289	-0.498955	-0.158538
C35	C	0.000285	-0.471209	-0.094705
C36	C	0.000244	-0.515917	-0.031929
C37	C	0.000223	-0.588363	-0.032991
C38	C	0.058757	-0.362954	-0.044527
C39	C	0.058784	-0.290510	-0.043467
C40	C	0.000345	-0.247764	-0.091425
C41	C	-0.058109	-0.277470	-0.140456
C42	C	-0.058130	-0.349915	-0.141518
C43	C	0.000307	-0.392655	-0.093546
C44	C	0.000390	-0.124510	-0.153048
C45	C	0.000395	-0.052062	-0.151985
C46	C	0.000360	-0.069026	-0.025374
C47	C	0.000345	-0.141472	-0.026439
C48	C	0.000365	-0.169209	-0.090278
C49	C	0.000147	-0.879704	0.675662
C50	C	0.000158	-0.880769	0.603215
C51	C	0.000149	-0.817999	0.558508
C52	C	0.000103	-0.754160	0.586254
C53	C	0.000082	-0.753097	0.658699
C54	C	0.058618	-0.771191	0.437234
C55	C	0.058645	-0.772256	0.364790
C56	C	0.000210	-0.821275	0.335062
C57	C	-0.058240	-0.869240	0.377789
C58	C	-0.058262	-0.868177	0.450234
C59	C	0.000171	-0.819145	0.479953
C60	C	0.000260	-0.886264	0.228771
C61	C	0.000265	-0.887326	0.156322
C62	C	0.000221	-0.760716	0.139362
C63	C	0.000206	-0.759656	0.211809
C64	C	0.000230	-0.822432	0.256509
C65	C	0.000284	-0.814741	0.780502
C66	C	0.000107	-0.815873	0.703399
H67	H	-0.246912	-0.734227	-0.178401
F68	F	-0.391320	-0.675015	-0.237595
H69	H	-0.105855	-0.907230	0.485019
F70	F	-0.608129	-0.675027	-0.237588
H71	H	-0.752520	-0.734267	-0.178395
H72	H	0.000279	-0.937381	0.265168
F73	F	0.120812	-0.719011	0.468864
F74	F	0.000090	-0.687356	0.538673
H75	H	-0.752465	-0.906193	-0.006586
H76	H	0.000161	-0.930822	0.712053
F77	F	0.000324	-0.451375	-0.225347
H78	H	-0.594918	-0.953567	0.040766
F79	F	-0.120309	-0.231982	-0.191502
H80	H	0.000392	-0.147094	-0.205029
F81	F	0.000427	-0.004490	-0.218795
H82	H	-0.404386	-0.953559	0.040777
F83	F	-0.233730	-0.918008	0.005256
H84	H	-0.105728	-0.374099	-0.181438
F85	F	0.000297	-0.600918	-0.227542
H86	H	0.000418	-0.046436	0.026600
H87	H	0.106385	-0.266329	-0.003546
F88	F	0.120861	-0.721213	0.319325
H89	H	0.000322	-0.177867	0.024674
F90	F	0.120960	-0.408442	0.006522
H91	H	0.000255	-0.493322	0.020044
H92	H	0.000195	-0.624757	0.018124
H93	H	0.000190	-0.932749	0.580627
H94	H	-0.105832	-0.909151	0.353586
F95	F	0.000200	-0.693911	0.091786
H96	H	0.000291	-0.939307	0.133741
H97	H	0.000180	-0.707678	0.234392
F98	F	0.000041	-0.685157	0.688219
