data_functionalizedCrystal
_audit_creation_method	'MofGen! by Chris Wilmer'
_symmetry_space_group_name_H-M	'P1'
_symmetry_Int_Tables_number	1
_symmetry_cell_setting	triclinic
loop_
_symmetry_equiv_pos_as_xyz
  x,y,z
_cell_length_a	17.699097
_cell_length_b	10.268362
_cell_length_c	17.699083
_cell_angle_alpha	89.997763
_cell_angle_beta	96.714278
_cell_angle_gamma	90.008200
loop_
_atom_site_label
_atom_site_type_symbol
_atom_site_fract_x
_atom_site_fract_y
_atom_site_fract_z
O1	O	1.004070	0.108411	-0.095755
O2	O	1.504070	0.608411	0.404245
O3	O	0.783693	0.108390	-0.108197
O4	O	1.283693	0.608390	0.391803
O5	O	0.900108	0.108390	0.008213
O6	O	1.400108	0.608390	0.508213
O7	O	0.887655	0.108411	-0.212165
O8	O	1.387655	0.608411	0.287835
O9	O	0.900097	-0.108211	0.008209
O10	O	1.400097	0.391789	0.508209
O11	O	0.783682	-0.108210	-0.108201
O12	O	1.283682	0.391790	0.391799
O13	O	1.004059	-0.108190	-0.095759
O14	O	1.504059	0.391810	0.404241
Cu15	Cu	0.893869	-0.127977	-0.101981
Cu16	Cu	1.393869	0.372023	0.398019
Cu17	Cu	0.893883	0.128178	-0.101976
Cu18	Cu	1.393883	0.628178	0.398024
O19	O	0.887644	-0.108189	-0.212169
O20	O	1.387644	0.391811	0.287831
C21	C	0.755491	0.000087	-0.107752
C22	C	1.255491	0.500087	0.392248
C23	C	0.671473	0.000079	-0.106409
C24	C	1.171473	0.500079	0.393591
C25	C	0.155761	0.118200	-0.098177
C26	C	0.655761	0.618200	0.401823
C27	C	0.234705	0.118193	-0.099434
C28	C	0.734705	0.618193	0.400566
C29	C	0.274165	0.000119	-0.100065
C30	C	0.774165	0.500119	0.399935
C31	C	0.234678	-0.117957	-0.099433
C32	C	0.734678	0.382043	0.400567
C33	C	0.155736	-0.117949	-0.098171
C34	C	0.655736	0.382051	0.401829
C35	C	0.553042	-0.117990	-0.104520
C36	C	1.053042	0.382010	0.395480
C37	C	0.631989	-0.117989	-0.105784
C38	C	1.131989	0.382011	0.394216
C39	C	0.632011	0.118152	-0.105783
C40	C	1.132011	0.618152	0.394217
C41	C	0.553069	0.118159	-0.104521
C42	C	1.053069	0.618159	0.395479
C43	C	0.513589	0.000085	-0.103885
C44	C	1.013589	0.500085	0.396115
C45	C	0.427989	0.000093	-0.102521
C46	C	0.927989	0.500093	0.397479
C47	C	0.359763	0.000109	-0.101434
C48	C	0.859763	0.500109	0.398566
N49	N	0.893866	-0.308143	-0.101983
N50	N	1.393866	0.191857	0.398017
C51	C	0.893871	-0.425986	-0.101984
C52	C	1.393871	0.074014	0.398016
C53	C	0.893881	-0.573824	-0.101977
C54	C	1.393881	-0.073824	0.398023
C55	C	1.032261	0.000116	-0.096205
C56	C	1.532261	0.500116	0.403795
C57	C	1.116279	0.000133	-0.097547
C58	C	1.616279	0.500133	0.402453
C59	C	0.899656	0.000089	0.036408
C60	C	1.399656	0.500089	0.536408
C61	C	0.898317	0.000088	0.120426
C62	C	1.398317	0.500088	0.620426
N63	N	0.893892	0.308344	-0.101967
N64	N	1.393892	0.808344	0.398033
C65	C	0.888096	0.000114	-0.240364
C66	C	1.388096	0.500114	0.259636
C67	C	0.889435	0.000123	-0.324382
C68	C	1.389435	0.500123	0.175618
C69	C	0.966650	0.000093	0.169044
C70	C	1.466650	0.500093	0.669044
C71	C	0.965388	0.000104	0.247987
C72	C	1.465388	0.500104	0.747987
C73	C	0.895792	0.000102	0.278311
C74	C	1.395792	0.500102	0.778311
C75	C	0.827454	0.000101	0.229687
C76	C	1.327454	0.500101	0.729687
C77	C	0.828717	0.000099	0.150745
C78	C	1.328717	0.500099	0.650745
C79	C	0.822359	0.000111	0.548050
C80	C	1.322359	0.500111	1.048050
C81	C	0.821101	0.000110	0.626998
C82	C	1.321101	0.500110	1.126998
C83	C	0.959030	0.000117	0.645292
C84	C	1.459030	0.500117	1.145292
C85	C	0.960293	0.000115	0.566350
C86	C	1.460293	0.500115	1.066350
C87	C	0.891955	0.000121	0.517733
C88	C	1.391955	0.500121	1.017733
C89	C	0.893325	0.000111	0.432134
C90	C	1.393325	0.500111	0.932134
C91	C	0.894422	0.000102	0.363909
C92	C	1.394422	0.500102	0.863909
H93	H	0.520944	0.214308	-0.104011
H94	H	1.020944	0.714308	0.395989
N95	N	0.758924	0.000105	0.101068
N96	N	1.258924	0.500105	0.601068
N97	N	0.744252	0.091409	0.054976
N98	N	1.244252	0.591409	0.554976
H99	H	0.694960	0.091420	0.019890
H100	H	1.194960	0.591420	0.519890
N101	N	0.750013	0.000104	0.657988
N102	N	1.250013	0.500104	1.157988
N103	N	0.733917	-0.091201	0.700000
N104	N	1.233917	0.408799	1.200000
H105	H	0.683715	-0.091208	0.721889
H106	H	1.183715	0.408792	1.221889
N107	N	0.512733	-0.238608	-0.103868
N108	N	1.012733	0.261392	0.396132
N109	N	0.547977	-0.344018	-0.104433
N110	N	1.047977	0.155982	0.395567
H111	H	0.519506	-0.429211	-0.103973
H112	H	1.019506	0.070789	0.396027
H113	H	1.021032	0.000105	0.287569
H114	H	1.521032	0.500105	0.787569
N115	N	1.037736	0.000110	0.138060
N116	N	1.537736	0.500110	0.638060
N117	N	1.038857	0.000111	0.067576
N118	N	1.538857	0.500111	0.567576
H119	H	1.089063	0.000127	0.045694
H120	H	1.589063	0.500127	0.545694
N121	N	0.672298	-0.238604	-0.106443
N122	N	1.172298	0.261396	0.393557
N123	N	0.656401	-0.317659	-0.159633
N124	N	1.156401	0.182341	0.340367
H125	H	0.684870	-0.402838	-0.160102
H126	H	1.184870	0.097162	0.339898
N127	N	0.756356	0.000075	0.260647
N128	N	1.256356	0.500075	0.760647
N129	N	0.695349	0.000061	0.217227
N130	N	1.195349	0.500061	0.717227
H131	H	0.645133	0.000033	0.239090
H132	H	1.145133	0.500033	0.739090
H133	H	0.766714	0.000116	0.508475
H134	H	1.266714	0.500116	1.008475
H135	H	0.266848	0.214335	-0.099942
H136	H	0.766848	0.714335	0.400058
H137	H	0.266813	-0.214095	-0.099942
H138	H	0.766813	0.285905	0.400058
H139	H	1.016965	0.000110	0.541665
H140	H	1.516965	0.500110	1.041665
N141	N	1.028838	0.000096	0.694954
N142	N	1.528838	0.500096	1.194954
N143	N	1.043515	-0.091208	0.741047
N144	N	1.543515	0.408792	1.241047
H145	H	1.092816	-0.091229	0.776119
H146	H	1.592816	0.408771	1.276119
N147	N	0.115468	0.238824	-0.097539
N148	N	0.615468	0.738824	0.402461
N149	N	0.150733	0.344231	-0.098101
N150	N	0.650733	0.844231	0.401899
H151	H	0.122279	0.429427	-0.097648
H152	H	0.622279	0.929427	0.402352
N153	N	0.115414	-0.238564	-0.097538
N154	N	0.615414	0.261436	0.402462
N155	N	0.117148	-0.317619	-0.151010
N156	N	0.617148	0.182381	0.348990
H157	H	0.088673	-0.402808	-0.150560
H158	H	0.588673	0.097192	0.349440
N159	N	0.672352	0.238755	-0.106431
N160	N	1.172352	0.738755	0.393569
N161	N	0.742835	0.238741	-0.107555
N162	N	1.242835	0.738741	0.392445
H163	H	0.771326	0.323914	-0.108014
H164	H	1.271326	0.823914	0.391986
