data_functionalizedCrystal
_audit_creation_method	'MofGen! by Chris Wilmer'
_symmetry_space_group_name_H-M	'P1'
_symmetry_Int_Tables_number	1
_symmetry_cell_setting	triclinic
loop_
_symmetry_equiv_pos_as_xyz
  x,y,z
_cell_length_a	11.792241
_cell_length_b	16.992695
_cell_length_c	15.455313
_cell_angle_alpha	92.847427
_cell_angle_beta	87.304628
_cell_angle_gamma	87.430819
loop_
_atom_site_label
_atom_site_type_symbol
_atom_site_fract_x
_atom_site_fract_y
_atom_site_fract_z
O1	O	1.520363	0.104106	-0.072047
O2	O	1.190930	0.115185	-0.072067
O3	O	1.354325	-0.004502	-0.072050
O4	O	1.356967	0.223794	-0.072064
O5	O	1.344979	0.002314	0.072211
O6	O	1.181583	0.122001	0.072194
O7	O	1.511017	0.110922	0.072214
Cu8	Cu	1.345447	0.117084	0.085376
Cu9	Cu	1.356500	0.109023	-0.085229
O10	O	1.347621	0.230610	0.072197
C11	C	1.346254	-0.030321	0.000080
C12	C	1.336116	-0.117409	0.000079
C13	C	1.143909	0.117897	0.000061
C14	C	1.017725	0.115814	0.000053
C15	C	1.433934	-0.167233	0.000086
C16	C	1.424402	-0.249060	0.000077
C17	C	1.317051	-0.281062	0.000068
C18	C	1.219227	-0.231231	0.000058
C19	C	1.228760	-0.149406	0.000061
C20	C	1.277539	-0.524828	0.000053
C21	C	1.268013	-0.606660	0.000053
C22	C	1.473190	-0.624484	0.000071
C23	C	1.482713	-0.542656	0.000079
C24	C	1.384889	-0.492832	0.000065
N25	N	1.307305	-0.364702	0.000062
N26	N	1.394636	-0.409194	0.000065
C27	C	0.786698	0.111984	0.000078
C28	C	0.915258	0.114112	0.000065
C29	C	1.558038	0.108210	0.000084
C30	C	1.684222	0.110293	0.000086
C31	C	1.355692	0.256428	0.000065
C32	C	1.365831	0.343516	0.000060
N33	N	1.337681	0.122753	0.205371
N34	N	1.364274	0.103348	-0.205224
C35	C	1.407124	0.071924	0.250772
C36	C	1.401263	0.076219	0.341580
C37	C	1.325962	0.131346	0.386984
C38	C	1.256511	0.182177	0.341576
C39	C	1.262368	0.177878	0.250771
C40	C	1.300680	0.149880	0.658563
C41	C	1.294830	0.154177	0.749375
C42	C	1.439581	0.048217	0.749372
C43	C	1.445436	0.043926	0.658565
C44	C	1.375981	0.094754	0.613165
N45	N	1.319971	0.135739	0.479804
N46	N	1.381967	0.090357	0.520347
H47	H	1.521350	-0.141184	0.000099
H48	H	1.496127	0.006834	0.786345
H49	H	1.552832	-0.665058	0.000081
O50	O	1.233112	0.199150	0.614426
C51	C	1.162659	0.154339	0.561895
H52	H	1.153354	0.093765	0.589271
H53	H	1.075388	0.185883	0.560866
H54	H	1.202264	0.147133	0.493074
H55	H	1.180590	-0.632711	0.000060
H56	H	1.506752	-0.000963	0.621598
O57	O	1.115030	-0.262443	0.000087
C58	C	1.127589	-0.345350	0.000068
H59	H	1.212681	-0.362898	0.027385
H60	H	1.055735	-0.368777	0.041946
H61	H	1.124505	-0.371415	-0.069142
H62	H	1.195193	0.227060	0.378550
H63	H	1.205818	0.219267	0.213806
O64	O	1.519534	-0.297345	0.000129
C65	C	1.616329	-0.251554	0.000123
H66	H	1.591274	-0.189325	0.027434
H67	H	1.682603	-0.279454	0.042016
H68	H	1.653380	-0.248857	-0.069081
O69	O	1.587084	-0.511704	0.000052
C70	C	1.671377	-0.573226	0.000082
H71	H	1.636285	-0.630230	-0.027241
H72	H	1.748599	-0.557791	-0.041787
H73	H	1.697411	-0.581407	0.069296
H74	H	1.197883	-0.484271	0.000042
O75	O	1.133623	-0.101114	0.000093
C76	C	1.036828	-0.146904	0.000062
H77	H	1.058334	-0.206556	0.027378
H78	H	0.965117	-0.115049	0.041935
H79	H	1.008762	-0.156134	-0.069151
H80	H	1.468447	0.027037	0.213810
H81	H	1.457808	0.034830	0.378545
O82	O	1.221568	0.207745	0.793348
C83	C	1.161534	0.251696	0.733806
H84	H	1.161519	0.216469	0.669080
H85	H	1.070251	0.264467	0.760054
H86	H	1.204285	0.309689	0.724137
