data_functionalizedCrystal
_audit_creation_method	'MofGen! by Chris Wilmer'
_symmetry_space_group_name_H-M	'P1'
_symmetry_Int_Tables_number	1
_symmetry_cell_setting	triclinic
loop_
_symmetry_equiv_pos_as_xyz
  x,y,z
_cell_length_a	27.440280
_cell_length_b	23.196402
_cell_length_c	27.440280
_cell_angle_alpha	60.001523
_cell_angle_beta	90.007570
_cell_angle_gamma	59.998982
loop_
_atom_site_label
_atom_site_type_symbol
_atom_site_fract_x
_atom_site_fract_y
_atom_site_fract_z
Zr1	Zr	0.469510	0.630938	-0.063874
O2	O	0.391686	0.751220	-0.141696
O3	O	0.493365	0.510667	-0.040020
O4	O	0.493358	0.630941	-0.141688
O5	O	0.391701	0.630940	0.040172
O6	O	0.573560	0.630930	-0.141678
O7	O	0.391693	0.630947	-0.040028
O8	O	0.573574	0.415782	0.040187
O9	O	0.391688	0.846088	-0.141693
O10	O	0.563396	0.560124	-0.029836
O11	O	0.503547	0.560127	0.030010
O12	O	0.503539	0.701734	-0.089691
O13	O	0.443690	0.701737	-0.029845
Zr14	Zr	0.597437	0.630910	0.064053
Zr15	Zr	0.597424	0.630920	-0.063858
Zr16	Zr	0.469523	0.630927	0.064037
Zr17	Zr	0.469513	0.782240	-0.063868
Zr18	Zr	0.597433	0.479607	0.064048
O19	O	0.573581	0.751180	0.040200
O20	O	0.573563	0.751195	-0.141674
O21	O	0.391704	0.751205	0.040177
O22	O	0.675261	0.510627	0.141876
O23	O	0.675242	0.510642	-0.039997
O24	O	0.493383	0.510652	0.141853
O25	O	0.675245	0.630908	-0.039993
O26	O	0.573589	0.630907	0.141868
O27	O	0.493386	0.630918	0.141857
O28	O	0.675253	0.630901	0.040208
O29	O	0.493363	0.846074	-0.141680
O30	O	0.573584	0.415774	0.141860
O31	O	0.675259	0.415760	0.141872
O32	O	0.675248	0.415768	0.040200
O33	O	0.391698	0.846079	-0.040021
O34	O	0.493373	0.846065	-0.040008
O35	O	0.563408	0.560114	0.089870
O36	O	0.623256	0.560110	0.030025
O37	O	0.563399	0.701721	-0.029830
O38	O	0.503551	0.701724	0.030015
C39	C	0.533469	0.441668	0.000083
C40	C	0.533467	0.377436	0.000081
C41	C	0.564703	0.347264	-0.031160
C42	C	0.564709	0.286903	-0.031156
C43	C	0.533467	0.256728	0.000082
C44	C	0.502230	0.286904	0.031330
C45	C	0.502230	0.347258	0.031329
C46	C	0.481133	0.194706	-0.004383
C47	C	0.481131	0.134356	-0.004387
C48	C	0.533468	0.070573	0.000088
C49	C	0.585806	0.067153	0.004554
C50	C	0.585806	0.127507	0.004554
C51	C	0.533464	0.191283	0.000087
C52	C	0.564713	-0.025051	-0.031149
C53	C	0.564721	-0.085416	-0.031140
C54	C	0.502235	-0.085408	0.031342
C55	C	0.502234	-0.025049	0.031336
C56	C	0.533471	0.005129	0.000088
C57	C	0.373472	0.630946	0.000070
C58	C	0.319169	0.630954	0.000063
C59	C	0.013716	0.556991	0.031350
C60	C	-0.037302	0.556987	0.031355
O61	O	-0.037118	0.494122	0.057945
N62	N	-0.094064	0.630905	0.000111
C63	C	-0.099806	0.704833	-0.031136
O64	O	-0.152771	0.767705	-0.057711
C65	C	-0.048788	0.704836	-0.031137
C66	C	0.007973	0.630913	0.000104
C67	C	0.070475	0.483074	0.062590
C68	C	0.121489	0.483079	0.062583
C69	C	0.115746	0.557001	0.031337
C70	C	0.058987	0.630918	0.000098
C71	C	-0.054531	0.778763	-0.062380
C72	C	-0.003507	0.778760	-0.062379
C73	C	0.053254	0.704837	-0.031137
C74	C	0.104259	0.704845	-0.031154
N75	N	0.161020	0.630926	0.000090
C76	C	0.166764	0.557005	0.031336
C77	C	-0.206945	0.704819	-0.031130
C78	C	-0.257962	0.704816	-0.031132
C79	C	-0.195455	0.556970	0.031360
C80	C	-0.144437	0.556974	0.031359
C81	C	-0.150183	0.630901	0.000115
C82	C	0.273896	0.557020	0.031320
C83	C	0.324913	0.557032	0.031309
C84	C	0.262401	0.704877	-0.031181
C85	C	0.211389	0.704866	-0.031172
C86	C	0.217140	0.630931	0.000082
O87	O	0.104120	0.767678	-0.057729
O88	O	0.219730	0.494142	0.057913
C89	C	0.693474	0.630902	0.000110
C90	C	0.747777	0.630894	0.000117
C91	C	0.533457	0.630937	-0.159908
C92	C	0.533452	0.630942	-0.214209
C93	C	0.533478	0.820180	0.000097
C94	C	0.533479	0.884412	0.000099
C95	C	0.489286	0.630919	-0.448902
C96	C	0.489283	0.630920	-0.397883
O97	O	0.451717	0.630898	-0.371487
N98	N	0.533465	0.630920	-0.372364
C99	C	0.577656	0.630910	-0.397864
O100	O	0.615237	0.630909	-0.371473
C101	C	0.577661	0.630903	-0.448880
C102	C	0.533473	0.630911	-0.474400
C103	C	0.445101	0.630926	-0.474421
C104	C	0.445104	0.630926	-0.525438
C105	C	0.489290	0.630918	-0.550936
C106	C	0.533475	0.630911	-0.525416
C107	C	0.621854	0.630887	-0.474377
C108	C	0.621856	0.630878	-0.525396
C109	C	0.577667	0.630887	-0.550916
C110	C	0.577664	0.630903	-0.601931
N111	N	0.533482	0.630903	-0.627449
C112	C	0.489295	0.630910	-0.601952
C113	C	0.577644	0.630925	-0.290726
C114	C	0.577637	0.630938	-0.239713
C115	C	0.489264	0.630947	-0.239735
C116	C	0.489269	0.630939	-0.290751
C117	C	0.533462	0.630925	-0.316245
C118	C	0.489303	0.630911	-0.709091
C119	C	0.489308	0.630914	-0.760114
C120	C	0.577682	0.630901	-0.760086
C121	C	0.577676	0.630902	-0.709070
C122	C	0.533484	0.630904	-0.683572
O123	O	0.615212	0.630921	-0.628358
O124	O	0.451726	0.630900	-0.628344
C125	C	0.533489	0.630911	0.160087
C126	C	0.533495	0.630906	0.214389
C127	C	0.693470	0.441645	0.000103
C128	C	0.747771	0.377406	0.000107
C129	C	0.533485	0.441654	0.160080
C130	C	0.533489	0.377418	0.214380
C131	C	0.693486	0.441632	0.160100
C132	C	0.747793	0.377388	0.214406
C133	C	0.373460	0.820216	-0.159921
C134	C	0.319153	0.884459	-0.214227
C135	C	0.373476	0.820202	0.000077
C136	C	0.319175	0.884442	0.000072
C137	C	0.533461	0.820193	-0.159901
C138	C	0.533458	0.884430	-0.214200
C139	C	0.742025	0.347245	-0.031142
C140	C	0.793042	0.286894	-0.031150
C141	C	0.849805	0.256700	0.000096
C142	C	0.855550	0.286867	0.031347
C143	C	0.804533	0.347221	0.031350
C144	C	0.564737	0.347245	0.271131
C145	C	0.564739	0.286897	0.322156
C146	C	0.533495	0.256718	0.316428
C147	C	0.502243	0.286897	0.259671
C148	C	0.502238	0.347248	0.208647
C149	C	0.804542	0.347217	0.208670
C150	C	0.855574	0.286861	0.259692
C151	C	0.849856	0.256674	0.316449
C152	C	0.793101	0.286851	0.322184
C153	C	0.742070	0.347210	0.271163
C154	C	0.262405	0.914638	-0.208491
C155	C	0.211373	0.975012	-0.259512
C156	C	0.217091	1.005203	-0.316269
C157	C	0.273845	0.975022	-0.322004
C158	C	0.324876	0.914653	-0.270983
C159	C	0.324921	0.914609	0.031317
C160	C	0.273904	0.974977	0.031310
C161	C	0.217141	1.005172	0.000063
C162	C	0.211397	0.975003	-0.031186
C163	C	0.262413	0.914640	-0.031183
C164	C	0.564707	0.914589	-0.208453
C165	C	0.564715	0.974938	-0.259468
C166	C	0.533470	1.005130	-0.316230
C167	C	0.502219	0.974965	-0.321976
C168	C	0.502215	0.914613	-0.270961
H169	H	0.590146	0.262332	-0.056596
H170	H	0.901781	0.262297	0.255012
Cl171	Cl	0.603994	0.876644	-0.137102
H172	H	0.175533	1.054359	-0.357809
Cl173	Cl	0.389554	0.630928	-0.557511
H174	H	0.165174	0.999598	-0.056627
Cl175	Cl	0.603975	0.385196	-0.070443
H176	H	0.409119	0.630930	-0.453665
H177	H	0.788353	0.262340	-0.056598
H178	H	0.613653	0.630907	-0.688296
Cl179	Cl	-0.188243	0.464039	0.070642
H180	H	0.590163	0.999492	-0.254778
H181	H	0.476765	0.890064	-0.275649
Cl182	Cl	0.926913	0.248897	0.070627
Cl183	Cl	0.462934	1.012938	-0.393338
Cl184	Cl	0.433717	0.630947	-0.322826
H185	H	0.628421	0.124719	0.008192
H186	H	0.257734	0.765062	-0.056623
Cl187	Cl	0.651604	-0.013026	0.010177
H188	H	-0.211632	0.765023	-0.056575
H189	H	0.590151	-0.000481	-0.056591
H190	H	0.657844	0.630864	-0.546150
Cl191	Cl	0.811767	0.385124	0.070645
Cl192	Cl	0.281024	1.012981	-0.393360
H193	H	0.590180	0.371810	0.275806
Cl194	Cl	0.433752	0.630926	-0.792193
H195	H	0.590190	0.262332	0.368365
H196	H	0.809209	0.371786	0.162461
H197	H	0.453285	0.630952	-0.218964
Cl198	Cl	0.785923	0.248892	0.393540
H199	H	0.590160	-0.109986	-0.056578
H200	H	0.891413	0.207526	0.357988
Cl201	Cl	0.533508	0.180845	0.380579
H202	H	0.695865	0.371768	0.275841
H203	H	0.371135	0.890028	0.056766
Cl204	Cl	0.462959	-0.123336	0.070612
Cl205	Cl	0.633184	0.630944	-0.207644
Cl206	Cl	0.462969	0.248948	0.252480
H207	H	0.476795	-0.000480	0.056774
H208	H	0.453318	0.630911	-0.688336
Cl209	Cl	0.281140	1.012888	0.070600
Cl210	Cl	0.415336	0.138663	-0.010005
H211	H	-0.304176	0.765012	-0.056580
H212	H	0.257726	0.890080	-0.056624
Cl213	Cl	0.415332	0.274890	-0.010010
H214	H	0.257738	0.890060	-0.162281
H215	H	0.476793	0.262331	0.056764
H216	H	0.695811	0.371829	-0.056594
Cl217	Cl	0.533478	1.081005	-0.380357
H218	H	0.371130	0.496832	0.056751
Cl219	Cl	0.462958	0.385191	0.070607
H220	H	0.891341	0.207555	0.000088
Cl221	Cl	0.281135	0.464072	0.070610
H222	H	0.175605	1.054324	0.000065
Cl223	Cl	0.140032	1.012939	-0.252289
Cl224	Cl	0.462954	0.385168	0.137304
Cl225	Cl	0.396216	0.876715	-0.278205
H226	H	0.613630	0.630919	-0.311483
Cl227	Cl	0.077710	0.390131	0.101877
Cl228	Cl	0.192841	0.390142	0.101866
Cl229	Cl	-0.073084	0.464039	0.070637
Cl230	Cl	-0.125878	0.871701	-0.101652
H231	H	-0.008193	0.838962	-0.087814
Cl232	Cl	0.633229	0.630892	-0.792148
H233	H	0.165170	0.765060	-0.056620
H234	H	0.657837	0.630879	-0.453606
