data_functionalizedCrystal
_audit_creation_method	'MofGen! by Chris Wilmer'
_symmetry_space_group_name_H-M	'P1'
_symmetry_Int_Tables_number	1
_symmetry_cell_setting	triclinic
loop_
_symmetry_equiv_pos_as_xyz
  x,y,z
_cell_length_a	12.759401
_cell_length_b	16.120444
_cell_length_c	12.759393
_cell_angle_alpha	92.864613
_cell_angle_beta	89.981287
_cell_angle_gamma	92.928028
loop_
_atom_site_label
_atom_site_type_symbol
_atom_site_fract_x
_atom_site_fract_y
_atom_site_fract_z
Zn1	Zn	1.584953	-0.331833	-0.615188
Zn2	Zn	1.575905	-0.471269	-0.448403
Zn3	Zn	1.409256	-0.331878	-0.439526
Zn4	Zn	1.400301	-0.471211	-0.624036
O5	O	1.492604	-0.401548	-0.531788
O6	O	1.730773	-0.350336	-0.593076
O7	O	1.553759	-0.452822	-0.300207
O8	O	1.440097	-0.215206	-0.455410
O9	O	1.724126	-0.452779	-0.470539
O10	O	1.569181	-0.215173	-0.584468
O11	O	1.431323	-0.350411	-0.293685
O12	O	1.261047	-0.350355	-0.463990
O13	O	1.424835	-0.452679	-0.769881
O14	O	1.254468	-0.452722	-0.599549
O15	O	1.560498	-0.350279	-0.763380
O16	O	1.545076	-0.587928	-0.479119
O17	O	1.416061	-0.587885	-0.608156
C18	C	1.219637	-0.401538	-0.531767
C19	C	1.102859	-0.401553	-0.531784
C20	C	1.044594	-0.454937	-0.602269
C21	C	0.934870	-0.454941	-0.602290
C22	C	0.941686	-0.348174	-0.461332
C23	C	1.051408	-0.348167	-0.461317
C24	C	0.783050	-0.484855	-0.728059
C25	C	0.724780	-0.538252	-0.798535
C26	C	0.755157	-0.619614	-0.819673
C27	C	0.843801	-0.647595	-0.770320
C28	C	0.902065	-0.594203	-0.699836
C29	C	0.871690	-0.512829	-0.678718
C30	C	1.203230	-0.318260	-0.335547
C31	C	1.261496	-0.264872	-0.265057
C32	C	1.231121	-0.183509	-0.243908
C33	C	1.142473	-0.155530	-0.293243
C34	C	1.084207	-0.208919	-0.363733
C35	C	1.114590	-0.290281	-0.384883
C36	C	1.478644	-0.618156	-0.545584
C37	C	1.472768	-0.710822	-0.551521
C38	C	1.523343	-0.921766	-0.501216
C39	C	1.462059	-0.880479	-0.562372
C40	C	1.468019	-0.786073	-0.556333
C41	C	1.517384	-1.016180	-0.507254
C42	C	1.766636	-0.401559	-0.531811
C43	C	1.883413	-0.401563	-0.531820
C44	C	1.492677	-0.401468	-0.805817
C45	C	1.492708	-0.401434	-0.922591
C46	C	1.506647	-0.184094	-0.517962
C47	C	1.512631	-0.091428	-0.512070
C48	C	1.422093	-0.454728	-0.980838
C49	C	1.422132	-0.454698	-1.090561
C50	C	1.563406	-0.348070	-1.083778
C51	C	1.563370	-0.348105	-0.974059
C52	C	1.378290	-0.552970	-1.246764
C53	C	1.307659	-0.606257	-1.305014
C54	C	1.204307	-0.619063	-1.270215
C55	C	1.171565	-0.578569	-1.177167
C56	C	1.242192	-0.525276	-1.118922
C57	C	1.345558	-0.512485	-1.153720
C58	C	1.607201	-0.249832	-0.817853
C59	C	1.677823	-0.196534	-0.759606
C60	C	1.781178	-0.183719	-0.794402
C61	C	1.813916	-0.224198	-0.887453
C62	C	1.743294	-0.277497	-0.945700
C63	C	1.639941	-0.290313	-0.910897
C64	C	1.492595	-0.401568	-0.258822
C65	C	1.492783	-0.401367	-0.142033
H66	H	1.012031	-0.186130	-0.403910
H67	H	1.334326	-0.639227	-1.380774
H68	H	1.769957	-0.310453	-1.021470
H69	H	1.462451	-0.542556	-1.275099
H70	H	1.580281	-0.886216	-0.444326
H71	H	1.117729	-0.089283	-0.276006
H72	H	1.620935	-0.304651	-1.125697
H73	H	0.758316	-0.418602	-0.710864
H74	H	1.364549	-0.498147	-0.938937
H75	H	1.215533	-0.492304	-1.043167
H76	H	1.898074	-0.213759	-0.915789
H77	H	1.087401	-0.588993	-1.148849
H78	H	1.405116	-0.916033	-0.619264
H79	H	1.146798	-0.662451	-1.317651
H80	H	1.838674	-0.140309	-0.746974
H81	H	1.651156	-0.163567	-0.683844
H82	H	1.523042	-0.260265	-0.789510
H83	H	0.974236	-0.616985	-0.659654
H84	H	1.086482	-0.498406	-0.659650
H85	H	0.707706	-0.663090	-0.877058
H86	H	0.652607	-0.515462	-0.838719
H87	H	0.868519	-0.713851	-0.787528
H88	H	0.899781	-0.304709	-0.403958
H89	H	1.278566	-0.140043	-0.186501
H90	H	1.333676	-0.287659	-0.224886
H91	H	1.227976	-0.384511	-0.352771
