data_functionalizedCrystal
_audit_creation_method	'MofGen! by Chris Wilmer'
_symmetry_space_group_name_H-M	'P1'
_symmetry_Int_Tables_number	1
_symmetry_cell_setting	triclinic
loop_
_symmetry_equiv_pos_as_xyz
  x,y,z
_cell_length_a	27.731994
_cell_length_b	27.731996
_cell_length_c	26.210047
_cell_angle_alpha	89.989354
_cell_angle_beta	89.989666
_cell_angle_gamma	82.620961
loop_
_atom_site_label
_atom_site_type_symbol
_atom_site_fract_x
_atom_site_fract_y
_atom_site_fract_z
O1	O	0.640942	0.057393	-0.042363
O2	O	0.974275	0.390726	0.290971
O3	O	1.307609	0.724059	0.624304
O4	O	0.500143	0.066166	-0.042381
O5	O	0.833477	0.399499	0.290953
O6	O	1.166810	0.732832	0.624286
O7	O	0.574929	-0.008620	-0.042360
O8	O	0.908262	0.324713	0.290973
O9	O	1.241595	0.658046	0.624307
O10	O	0.566157	0.132179	-0.042383
O11	O	0.899490	0.465512	0.290950
O12	O	1.232823	0.798845	0.624283
O13	O	0.574905	-0.008620	0.042498
O14	O	0.908239	0.324713	0.375831
O15	O	1.241572	0.658046	0.709165
O16	O	0.500120	0.066166	0.042477
O17	O	0.833453	0.399499	0.375811
O18	O	1.166787	0.732832	0.709144
O19	O	0.640919	0.057393	0.042495
O20	O	0.974252	0.390726	0.375829
O21	O	1.307585	0.724059	0.709162
Cu22	Cu	0.570517	0.061779	0.050235
Cu23	Cu	0.903850	0.395112	0.383568
Cu24	Cu	1.237184	0.728446	0.716901
Cu25	Cu	0.570545	0.061779	-0.050120
Cu26	Cu	0.903878	0.395112	0.283213
Cu27	Cu	1.237211	0.728446	0.616547
O28	O	0.566133	0.132179	0.042475
O29	O	0.899467	0.465512	0.375808
O30	O	1.232800	0.798845	0.709141
C31	C	0.482124	0.065986	0.000046
C32	C	0.815457	0.399319	0.333380
C33	C	1.148791	0.732652	0.666713
C34	C	0.428468	0.065443	0.000040
C35	C	0.761801	0.398777	0.333373
C36	C	1.095135	0.732110	0.666707
C37	C	0.095737	0.062027	0.046316
C38	C	0.429071	0.395361	0.379650
C39	C	0.762404	0.728694	0.712983
C40	C	-0.105920	0.059966	0.046322
C41	C	0.227413	0.393299	0.379656
C42	C	0.560746	0.726632	0.712989
O43	O	-0.132004	0.059678	0.085661
O44	O	0.201330	0.393012	0.418995
O45	O	0.534663	0.726345	0.752328
N46	N	-0.131122	0.059710	0.000066
N47	N	0.202211	0.393043	0.333400
N48	N	0.535544	0.726376	0.666733
C49	C	-0.105906	0.059966	-0.046195
C50	C	0.227427	0.393299	0.287139
C51	C	0.560760	0.726633	0.620472
O52	O	-0.131969	0.059696	-0.085538
O53	O	0.201365	0.393029	0.247795
O54	O	0.534698	0.726362	0.581129
C55	C	0.095751	0.062024	-0.046200
C56	C	0.429084	0.395357	0.287133
C57	C	0.762418	0.728691	0.620467
C58	C	0.120950	0.062285	0.000059
C59	C	0.454283	0.395618	0.333392
C60	C	0.787616	0.728952	0.666726
C61	C	0.120936	0.062288	0.092572
C62	C	0.454270	0.395621	0.425905
C63	C	0.787603	0.728955	0.759238
C64	C	0.171347	0.062806	0.092570
C65	C	0.504681	0.396139	0.425903
C66	C	0.838014	0.729473	0.759236
C67	C	0.196560	0.063064	0.046312
C68	C	0.529893	0.396397	0.379646
C69	C	0.863226	0.729730	0.712979
C70	C	0.171361	0.062803	0.000057
C71	C	0.504694	0.396136	0.333390
C72	C	0.838027	0.729470	0.666724
C73	C	0.120966	0.062277	-0.092460
C74	C	0.454300	0.395610	0.240873
C75	C	0.787633	0.728944	0.574206
C76	C	0.171384	0.062790	-0.092458
C77	C	0.504717	0.396124	0.240876
C78	C	0.838051	0.729457	0.574209
C79	C	0.196583	0.063051	-0.046199
C80	C	0.529916	0.396384	0.287135
C81	C	0.863249	0.729718	0.620468
C82	C	0.246984	0.063579	-0.046202
C83	C	0.580317	0.396912	0.287131
C84	C	0.913651	0.730245	0.620464
N85	N	0.272186	0.063835	0.000054
N86	N	0.605519	0.397168	0.333387
N87	N	0.938853	0.730502	0.666720
C88	C	0.246974	0.063577	0.046311
C89	C	0.580307	0.396911	0.379644
C90	C	0.913640	0.730244	0.712978
C91	C	-0.211780	0.058886	-0.046188
C92	C	0.121554	0.392220	0.287145
C93	C	0.454887	0.725553	0.620478
C94	C	-0.262194	0.058373	-0.046187
C95	C	0.071140	0.391706	0.287146
C96	C	0.404473	0.725039	0.620480
C97	C	-0.262204	0.058372	0.046330
C98	C	0.071129	0.391705	0.379663
C99	C	0.404463	0.725038	0.712997
C100	C	-0.211789	0.058889	0.046328
C101	C	0.121544	0.392222	0.379662
C102	C	0.454877	0.725555	0.712995
C103	C	-0.186578	0.059142	0.000068
C104	C	0.146756	0.392476	0.333401
C105	C	0.480089	0.725809	0.666734
C106	C	0.352841	0.064666	0.046303
C107	C	0.686174	0.397999	0.379637
C108	C	1.019507	0.731332	0.712970
C109	C	0.403256	0.065186	0.046297
C110	C	0.736589	0.398519	0.379631
C111	C	1.069922	0.731852	0.712964
C112	C	0.403262	0.065184	-0.046220
C113	C	0.736595	0.398517	0.287114
C114	C	1.069929	0.731851	0.620447
C115	C	0.352851	0.064667	-0.046214
C116	C	0.686184	0.398000	0.287120
C117	C	1.019517	0.731333	0.620453
C118	C	0.327642	0.064406	0.000052
C119	C	0.660975	0.397739	0.333385
C120	C	0.994308	0.731072	0.666718
O121	O	0.273099	0.063861	-0.085521
O122	O	0.606432	0.397194	0.247813
O123	O	0.939766	0.730528	0.581146
O124	O	0.273046	0.063837	0.085649
O125	O	0.606380	0.397170	0.418982
O126	O	0.939713	0.730503	0.752315
C127	C	0.045326	0.061509	0.046318
C128	C	0.378660	0.394843	0.379652
C129	C	0.711993	0.728176	0.712985
C130	C	0.020127	0.061249	0.000063
C131	C	0.353461	0.394582	0.333396
C132	C	0.686794	0.727916	0.666730
C133	C	0.045340	0.061507	-0.046194
C134	C	0.378673	0.394840	0.287139
C135	C	0.712006	0.728173	0.620472
C136	C	-0.030287	0.060735	0.000064
C137	C	0.303047	0.394069	0.333398
C138	C	0.636380	0.727402	0.666731
C139	C	-0.055499	0.060478	0.046322
C140	C	0.277834	0.393811	0.379655
C141	C	0.611168	0.727144	0.712988
C142	C	-0.030297	0.060734	0.092578
C143	C	0.303036	0.394067	0.425911
C144	C	0.636370	0.727400	0.759244
C145	C	0.020114	0.061252	0.092576
C146	C	0.353448	0.394585	0.425909
C147	C	0.686781	0.727918	0.759242
C148	C	0.020138	0.061251	-0.092450
C149	C	0.353471	0.394584	0.240883
C150	C	0.686804	0.727917	0.574216
C151	C	-0.030274	0.060733	-0.092445
C152	C	0.303060	0.394066	0.240889
C153	C	0.636393	0.727400	0.574222
C154	C	-0.055486	0.060475	-0.046187
C155	C	0.277848	0.393809	0.287146
C156	C	0.611181	0.727142	0.620479
C157	C	0.574737	-0.026628	0.000071
C158	C	0.908070	0.306706	0.333404
C159	C	1.241403	0.640039	0.666737
C160	C	0.574194	-0.080284	0.000076
C161	C	0.907527	0.253050	0.333409
C162	C	1.240861	0.586383	0.666742
C163	C	0.570792	-0.412999	-0.046206
C164	C	0.904125	-0.079666	0.287128
C165	C	1.237459	0.253667	0.620461
C166	C	0.568731	-0.614657	-0.046215
C167	C	0.902064	-0.281324	0.287118
C168	C	1.235398	0.052009	0.620452
O169	O	0.568454	-0.640728	-0.085554
O170	O	0.901788	-0.307394	0.247779
O171	O	1.235121	0.025939	0.581112
N172	N	0.568462	-0.639874	0.000041
N173	N	0.901795	-0.306541	0.333374
N174	N	1.235129	0.026792	0.666707
C175	C	0.568706	-0.614673	0.046302
C176	C	0.902039	-0.281340	0.379635
C177	C	1.235372	0.051993	0.712969
O178	O	0.568425	-0.640748	0.085645
O179	O	0.901758	-0.307415	0.418978
O180	O	1.235091	0.025918	0.752312
C181	C	0.570763	-0.413016	0.046311
C182	C	0.904096	-0.079683	0.379644
C183	C	1.237430	0.253651	0.712977
C184	C	0.571037	-0.387802	0.000052
C185	C	0.904370	-0.054469	0.333385
C186	C	1.237703	0.278864	0.666719
C187	C	0.571065	-0.387785	-0.092461
C188	C	0.904398	-0.054452	0.240873
C189	C	1.237732	0.278881	0.574206
C190	C	0.571583	-0.337374	-0.092458
C191	C	0.904916	-0.004041	0.240875
C192	C	1.238250	0.329292	0.574209
C193	C	0.571828	-0.312177	-0.046200
C194	C	0.905161	0.021156	0.287133
C195	C	1.238494	0.354489	0.620466
C196	C	0.571555	-0.337391	0.000055
C197	C	0.904888	-0.004058	0.333388
C198	C	1.238221	0.329276	0.666721
C199	C	0.571003	-0.387816	0.092571
C200	C	0.904336	-0.054482	0.425905
C201	C	1.237670	0.278851	0.759238
C202	C	0.571516	-0.337398	0.092569
C203	C	0.904850	-0.004064	0.425903
C204	C	1.238183	0.329269	0.759236
C205	C	0.571790	-0.312184	0.046311
C206	C	0.905123	0.021149	0.379644
C207	C	1.238457	0.354483	0.712977
C208	C	0.572317	-0.261783	0.046315
C209	C	0.905651	0.071550	0.379649
C210	C	1.238984	0.404884	0.712982
N211	N	0.572586	-0.236566	0.000060
N212	N	0.905919	0.096768	0.333393
N213	N	1.239253	0.430101	0.666726
C214	C	0.572341	-0.261763	-0.046198
C215	C	0.905675	0.071570	0.287135
C216	C	1.239008	0.404904	0.620469
C217	C	0.567626	-0.720547	0.046294
C218	C	0.900960	-0.387213	0.379627
C219	C	1.234293	-0.053880	0.712961
C220	C	0.567113	-0.770961	0.046292
C221	C	0.900446	-0.437627	0.379625
C222	C	1.233779	-0.104294	0.712959
C223	C	0.567137	-0.770941	-0.046225
C224	C	0.900471	-0.437608	0.287108
C225	C	1.233804	-0.104274	0.620442
C226	C	0.567654	-0.720526	-0.046222
C227	C	0.900988	-0.387193	0.287111
C228	C	1.234321	-0.053860	0.620444
C229	C	0.567895	-0.695329	0.000038
C230	C	0.901228	-0.361996	0.333372
C231	C	1.234562	-0.028663	0.666705
C232	C	0.573429	-0.155896	-0.046189
C233	C	0.906763	0.177437	0.287145
C234	C	1.240096	0.510770	0.620478
C235	C	0.573949	-0.105481	-0.046182
C236	C	0.907283	0.227852	0.287151
C237	C	1.240616	0.561186	0.620485
C238	C	0.573922	-0.105505	0.046335
C239	C	0.907255	0.227829	0.379668
C240	C	1.240589	0.561162	0.713002
C241	C	0.573405	-0.155916	0.046328
C242	C	0.906738	0.177417	0.379662
C243	C	1.240071	0.510751	0.712995
C244	C	0.573157	-0.181110	0.000062
C245	C	0.906490	0.152223	0.333396
C246	C	1.239823	0.485556	0.666729
O247	O	0.572589	-0.235680	0.085634
O248	O	0.905922	0.097653	0.418967
O249	O	1.239255	0.430986	0.752301
O250	O	0.572611	-0.235678	-0.085535
O251	O	0.905945	0.097656	0.247798
O252	O	1.239278	0.430989	0.581131
C253	C	0.570274	-0.463410	-0.046209
C254	C	0.903607	-0.130077	0.287125
C255	C	1.236941	0.203256	0.620458
C256	C	0.570001	-0.488624	0.000046
C257	C	0.903334	-0.155291	0.333380
C258	C	1.236668	0.178042	0.666713
C259	C	0.570246	-0.463427	0.046304
C260	C	0.903579	-0.130094	0.379637
C261	C	1.236912	0.203239	0.712971
C262	C	0.569487	-0.539039	0.000044
C263	C	0.902821	-0.205705	0.333378
C264	C	1.236154	0.127628	0.666711
C265	C	0.569243	-0.564236	-0.046213
C266	C	0.902576	-0.230902	0.287120
C267	C	1.235909	0.102431	0.620453
C268	C	0.569511	-0.539019	-0.092469
C269	C	0.902845	-0.205685	0.240864
C270	C	1.236178	0.127648	0.574198
C271	C	0.570029	-0.488608	-0.092466
C272	C	0.903363	-0.155274	0.240867
C273	C	1.236696	0.178059	0.574200
C274	C	0.569977	-0.488644	0.092560
C275	C	0.903310	-0.155311	0.425893
C276	C	1.236644	0.178022	0.759226
C277	C	0.569460	-0.539055	0.092553
C278	C	0.902793	-0.205722	0.425887
C279	C	1.236126	0.127611	0.759220
C280	C	0.569215	-0.564253	0.046296
C281	C	0.902548	-0.230919	0.379629
C282	C	1.235882	0.102414	0.712962
C283	C	0.658938	0.057573	0.000067
C284	C	0.992271	0.390906	0.333401
C285	C	1.325604	0.724239	0.666734
C286	C	0.712594	0.058115	0.000070
C287	C	1.045927	0.391448	0.333404
C288	C	1.379261	0.724782	0.666737
C289	C	0.566325	0.150186	0.000043
C290	C	0.899658	0.483519	0.333376
C291	C	1.232992	0.816853	0.666710
C292	C	0.566868	0.203842	0.000034
C293	C	0.900201	0.537175	0.333368
C294	C	1.233535	0.870509	0.666701
N295	N	0.570501	0.061779	0.120818
N296	N	0.903835	0.395112	0.454152
N297	N	1.237168	0.728446	0.787485
N298	N	0.570565	0.061776	-0.120704
N299	N	0.903898	0.395109	0.212629
N300	N	1.237231	0.728442	0.545963
C301	C	0.599632	0.090885	0.473331
C302	C	0.932965	0.424218	0.806665
C303	C	1.266299	0.757552	1.139998
C304	C	0.599646	0.090885	0.686990
C305	C	0.932980	0.424218	1.020323
C306	C	1.266313	0.757551	1.353657
O307	O	0.624403	0.115626	0.714611
O308	O	0.957737	0.448960	1.047944
O309	O	1.291070	0.782293	1.381278
N310	N	0.570556	0.061774	0.713712
N311	N	0.903890	0.395107	1.047046
N312	N	1.237223	0.728441	1.380379
C313	C	0.541463	0.032659	0.687017
C314	C	0.874796	0.365993	1.020350
C315	C	1.208130	0.699326	1.353684
O316	O	0.516724	0.007895	0.714648
O317	O	0.850057	0.341229	1.047982
O318	O	1.183391	0.674562	1.381315
C319	C	0.541452	0.032658	0.473359
C320	C	0.874785	0.365991	0.806693
C321	C	1.208118	0.699324	1.140026
C322	C	0.570540	0.061774	0.446640
C323	C	0.903873	0.395107	0.779973
C324	C	1.237207	0.728440	1.113306
C325	C	0.628718	0.119998	0.446612
C326	C	0.962052	0.453332	0.779945
C327	C	1.295385	0.786665	1.113278
C328	C	0.628713	0.120000	0.393200
C329	C	0.962046	0.453333	0.726534
C330	C	1.295379	0.786667	1.059867
C331	C	0.599620	0.090889	0.366509
C332	C	0.932954	0.424222	0.699842
C333	C	1.266287	0.757555	1.033175
C334	C	0.570534	0.061775	0.393228
C335	C	0.903867	0.395109	0.726562
C336	C	1.237201	0.728442	1.059895
C337	C	0.512361	0.003541	0.446665
C338	C	0.845695	0.336874	0.779998
C339	C	1.179028	0.670207	1.113331
C340	C	0.512362	0.003542	0.393247
C341	C	0.845695	0.336875	0.726580
C342	C	1.179029	0.670208	1.059914
C343	C	0.541450	0.032658	0.366527
C344	C	0.874783	0.365991	0.699861
C345	C	1.208117	0.699324	1.033194
C346	C	0.541436	0.032666	0.313125
C347	C	0.874769	0.365999	0.646458
C348	C	1.208103	0.699332	0.979792
N349	N	0.570526	0.061776	0.286403
N350	N	0.903859	0.395110	0.619736
N351	N	1.237193	0.728443	0.953069
C352	C	0.599618	0.090888	0.313094
C353	C	0.932952	0.424221	0.646428
C354	C	1.266285	0.757554	0.979761
C355	C	0.541470	0.032663	0.799190
C356	C	0.874804	0.365996	1.132523
C357	C	1.208137	0.699330	1.465857
C358	C	0.541472	0.032664	0.852604
C359	C	0.874806	0.365998	1.185938
C360	C	1.208139	0.699331	1.519271
C361	C	0.599657	0.090889	0.852574
C362	C	0.932990	0.424222	1.185907
C363	C	1.266323	0.757555	1.519241
C364	C	0.599652	0.090890	0.799159
C365	C	0.932985	0.424223	1.132492
C366	C	1.266318	0.757557	1.465825
C367	C	0.570560	0.061774	0.772468
C368	C	0.903894	0.395107	1.105801
C369	C	1.237227	0.728440	1.439134
C370	C	0.599603	0.090890	0.200926
C371	C	0.932937	0.424223	0.534260
C372	C	1.266270	0.757556	0.867593
C373	C	0.599593	0.090890	0.147510
C374	C	0.932927	0.424224	0.480844
C375	C	1.266260	0.757557	0.814177
C376	C	0.541411	0.032664	0.147545
C377	C	0.874745	0.365997	0.480879
C378	C	1.208078	0.699331	0.814212
C379	C	0.541419	0.032665	0.200957
C380	C	0.874752	0.365998	0.534290
C381	C	1.208086	0.699332	0.867624
C382	C	0.570519	0.061779	0.227646
C383	C	0.903852	0.395112	0.560979
C384	C	1.237186	0.728446	0.894313
O385	O	0.516696	0.007933	0.285471
O386	O	0.850029	0.341266	0.618804
O387	O	1.183363	0.674600	0.952138
O388	O	0.624361	0.115640	0.285454
O389	O	0.957695	0.448973	0.618787
O390	O	1.291028	0.782306	0.952120
C391	C	0.599638	0.090883	0.526743
C392	C	0.932971	0.424217	0.860076
C393	C	1.266305	0.757550	1.193410
C394	C	0.570552	0.061770	0.553463
C395	C	0.903885	0.395103	0.886796
C396	C	1.237218	0.728437	1.220129
C397	C	0.541459	0.032659	0.526771
C398	C	0.874793	0.365992	0.860104
C399	C	1.208126	0.699325	1.193437
C400	C	0.570554	0.061771	0.606877
C401	C	0.903887	0.395104	0.940210
C402	C	1.237220	0.728438	1.273543
C403	C	0.599646	0.090882	0.633569
C404	C	0.932979	0.424216	0.966902
C405	C	1.266313	0.757549	1.300235
C406	C	0.628736	0.119993	0.606846
C407	C	0.962069	0.453326	0.940179
C408	C	1.295403	0.786659	1.273513
C409	C	0.628730	0.119995	0.553435
C410	C	0.962063	0.453328	0.886768
C411	C	1.295397	0.786661	1.220101
C412	C	0.512369	0.003548	0.553493
C413	C	0.845703	0.336882	0.886826
C414	C	1.179036	0.670215	1.220160
C415	C	0.512377	0.003549	0.606905
C416	C	0.845710	0.336883	0.940238
C417	C	1.179044	0.670216	1.273571
C418	C	0.541469	0.032661	0.633596
C419	C	0.874803	0.365994	0.966930
C420	C	1.208136	0.699327	1.300263
H421	H	0.100414	0.062077	0.130242
H422	H	0.433747	0.395410	0.463575
H423	H	0.767081	0.728744	0.796909
H424	H	-0.050834	0.060526	0.130242
H425	H	0.282500	0.393860	0.463575
H426	H	0.615833	0.727193	0.796909
Br427	Br	0.639131	0.130404	0.762902
Br428	Br	0.972464	0.463738	1.096235
Br429	Br	1.305798	0.797071	1.429569
H430	H	0.488679	-0.020159	0.531766
H431	H	0.822013	0.313174	0.865099
H432	H	1.155346	0.646507	1.198433
H433	H	0.517780	0.008961	0.874355
H434	H	0.851113	0.342294	1.207688
H435	H	1.184447	0.675628	1.541022
H436	H	0.569241	-0.559581	0.130225
H437	H	0.902574	-0.226247	0.463559
H438	H	1.235907	0.107086	0.796892
Br439	Br	0.501976	-0.006846	0.762974
Br440	Br	0.835309	0.326487	1.096308
Br441	Br	1.168642	0.659820	1.429641
Br442	Br	0.318650	0.064322	-0.108994
Br443	Br	0.651983	0.397656	0.224339
Br444	Br	0.985317	0.730989	0.557672
H445	H	0.517727	0.008963	0.222713
H446	H	0.851060	0.342296	0.556047
H447	H	1.184394	0.675629	0.889380
H448	H	0.623343	0.114594	0.874315
H449	H	0.956676	0.447928	1.207649
H450	H	1.290009	0.781261	1.540982
H451	H	0.191860	0.063015	0.130239
H452	H	0.525193	0.396349	0.463572
H453	H	0.858527	0.729682	0.796905
H454	H	0.573225	-0.176403	-0.083863
H455	H	0.906558	0.156930	0.249470
H456	H	1.239892	0.490264	0.582804
H457	H	0.623300	0.114597	0.222651
H458	H	0.956633	0.447930	0.555984
H459	H	1.289966	0.781263	0.889317
H460	H	0.488675	-0.020169	0.468411
H461	H	0.822008	0.313164	0.801744
H462	H	1.155342	0.646497	1.135077
H463	H	0.423799	0.065396	-0.083881
H464	H	0.757132	0.398729	0.249452
H465	H	1.090465	0.732063	0.582786
Br466	Br	0.566803	-0.805146	-0.109003
Br467	Br	0.900136	-0.471813	0.224330
Br468	Br	1.233470	-0.138480	0.557664
H469	H	0.652411	0.143704	0.468339
H470	H	0.985745	0.477038	0.801672
H471	H	1.319078	0.810371	1.135005
Br472	Br	0.668215	0.159504	0.643081
Br473	Br	1.001548	0.492837	0.976415
Br474	Br	1.334882	0.826170	1.309748
Br475	Br	0.054346	0.061599	-0.155235
Br476	Br	0.387680	0.394932	0.178099
Br477	Br	0.721013	0.728265	0.511432
Br478	Br	-0.296388	0.058030	-0.108970
Br479	Br	0.036946	0.391364	0.224364
Br480	Br	0.370279	0.724697	0.557697
Br481	Br	0.437451	0.065543	0.109082
Br482	Br	0.770784	0.398876	0.442415
Br483	Br	1.104117	0.732210	0.775748
Br484	Br	0.472884	-0.035981	0.357027
Br485	Br	0.806217	0.297352	0.690360
Br486	Br	1.139551	0.630685	1.023693
Br487	Br	0.574256	-0.071299	0.109110
Br488	Br	0.907589	0.262034	0.442444
Br489	Br	1.240922	0.595368	0.775777
Br490	Br	0.566753	-0.805175	0.109074
Br491	Br	0.900086	-0.471841	0.442408
Br492	Br	1.233420	-0.138508	0.775741
Br493	Br	0.318636	0.064310	0.109093
Br494	Br	0.651969	0.397643	0.442426
Br495	Br	0.985303	0.730977	0.775759
Br496	Br	0.472892	-0.035966	0.643160
Br497	Br	0.806226	0.297368	0.976494
Br498	Br	1.139559	0.630701	1.309827
H499	H	-0.191276	0.059102	0.083997
H500	H	0.142057	0.392435	0.417330
H501	H	0.475391	0.725768	0.750663
H502	H	0.570781	-0.408336	0.130240
H503	H	0.904114	-0.075003	0.463574
H504	H	1.237448	0.258331	0.796907
H505	H	0.571804	-0.316850	-0.130126
H506	H	0.905137	0.016484	0.203207
H507	H	1.238471	0.349817	0.536540
Br508	Br	0.574323	-0.071266	-0.108966
Br509	Br	0.907657	0.262068	0.224368
Br510	Br	1.240990	0.595401	0.557701
Br511	Br	-0.064466	0.060383	-0.155231
Br512	Br	0.268867	0.393717	0.178102
Br513	Br	0.602201	0.727050	0.511436
H514	H	0.570252	-0.468083	-0.130135
H515	H	0.903585	-0.134750	0.203199
H516	H	1.236918	0.198584	0.536532
H517	H	0.517724	0.008964	0.125803
H518	H	0.851057	0.342297	0.459137
H519	H	1.184390	0.675630	0.792470
H520	H	0.652417	0.143704	0.531684
H521	H	0.985750	0.477037	0.865018
H522	H	1.319084	0.810371	1.198351
Br523	Br	-0.296430	0.058022	0.109108
Br524	Br	0.036903	0.391355	0.442441
Br525	Br	0.370237	0.724688	0.775774
Br526	Br	0.569183	-0.573225	-0.155247
Br527	Br	0.902516	-0.239892	0.178087
Br528	Br	1.235850	0.093441	0.511420
H529	H	0.100458	0.062064	-0.130130
H530	H	0.433792	0.395397	0.203204
H531	H	0.767125	0.728730	0.536537
Br532	Br	0.668182	0.159526	0.356946
Br533	Br	1.001516	0.492860	0.690280
Br534	Br	1.334849	0.826193	1.023613
H535	H	-0.191257	0.059092	-0.083861
H536	H	0.142077	0.392426	0.249472
H537	H	0.475410	0.725759	0.582805
Br538	Br	0.573045	-0.190137	0.109108
Br539	Br	0.906378	0.143196	0.442442
Br540	Br	1.239711	0.476529	0.775775
H541	H	0.623280	0.114602	0.125758
H542	H	0.956614	0.447936	0.459091
H543	H	1.289947	0.781269	0.792424
Br544	Br	0.205598	0.063132	-0.155244
Br545	Br	0.538931	0.396465	0.178090
Br546	Br	0.872264	0.729798	0.511423
H547	H	0.040627	0.061464	0.130245
H548	H	0.373960	0.394798	0.463578
H549	H	0.707293	0.728131	0.796911
H550	H	0.570864	-0.408295	-0.130131
H551	H	0.904197	-0.074962	0.203202
H552	H	1.237531	0.258371	0.536535
H553	H	0.571705	-0.316884	0.130242
H554	H	0.905038	0.016449	0.463575
H555	H	1.238372	0.349783	0.796908
H556	H	0.567825	-0.700036	0.083967
H557	H	0.901158	-0.366703	0.417301
H558	H	1.234491	-0.033370	0.750634
Br559	Br	0.568025	-0.686313	-0.109004
Br560	Br	0.901359	-0.352980	0.224329
Br561	Br	1.234692	-0.019646	0.557663
H562	H	0.570177	-0.468134	0.130229
H563	H	0.903510	-0.134801	0.463563
H564	H	1.236844	0.198533	0.796896
