data_functionalizedCrystal
_audit_creation_method	'MofGen! by Chris Wilmer'
_symmetry_space_group_name_H-M	'P1'
_symmetry_Int_Tables_number	1
_symmetry_cell_setting	triclinic
loop_
_symmetry_equiv_pos_as_xyz
  x,y,z
_cell_length_a	15.995350
_cell_length_b	17.038272
_cell_length_c	14.472310
_cell_angle_alpha	89.999298
_cell_angle_beta	89.990621
_cell_angle_gamma	87.301966
loop_
_atom_site_label
_atom_site_type_symbol
_atom_site_fract_x
_atom_site_fract_y
_atom_site_fract_z
O1	O	1.118175	0.100774	-0.076763
O2	O	1.618175	0.600774	0.423237
O3	O	0.875286	0.113219	-0.076782
O4	O	1.375286	0.613219	0.423218
O5	O	0.995287	-0.006819	-0.076766
O6	O	1.495287	0.493181	0.423234
O7	O	0.998174	0.220812	-0.076780
O8	O	1.498174	0.720812	0.423220
O9	O	0.995254	-0.006812	0.076916
O10	O	1.495254	0.493188	0.576916
O11	O	0.875253	0.113226	0.076900
O12	O	1.375253	0.613226	0.576900
O13	O	1.118142	0.100781	0.076919
O14	O	1.618142	0.600781	0.576919
Cu15	Cu	0.996695	0.107004	0.090942
Cu16	Cu	1.496695	0.607004	0.590942
Cu17	Cu	0.996733	0.106996	-0.090805
Cu18	Cu	1.496733	0.606996	0.409195
O19	O	0.998141	0.220819	0.076902
O20	O	1.498141	0.720819	0.576902
C21	C	0.844038	0.112708	0.000056
C22	C	1.344038	0.612708	0.500056
C23	C	0.750978	0.111165	0.000049
C24	C	1.250978	0.611165	0.500049
C25	C	0.412836	0.105626	0.000069
C26	C	0.912836	0.605626	0.500069
C27	C	0.454180	0.020137	0.000417
C28	C	0.954180	0.520137	0.500417
C29	C	0.550981	0.021680	0.000064
C30	C	1.050981	0.521680	0.500064
C31	C	0.580592	0.108374	0.000060
C32	C	1.080592	0.608374	0.500060
C33	C	0.542527	0.150536	-0.087699
C34	C	1.042527	0.650536	0.412301
C35	C	0.445739	0.148388	-0.087766
C36	C	0.945739	0.648388	0.412234
C37	C	0.445488	0.150162	0.086999
C38	C	0.945488	0.650162	0.586999
C39	C	0.542432	0.150142	0.088152
C40	C	1.042432	0.650142	0.588152
C41	C	0.675401	0.109931	0.000051
C42	C	1.175401	0.609931	0.500051
C43	C	0.318027	0.104071	0.000071
C44	C	0.818027	0.604071	0.500071
C45	C	0.992645	-0.035945	0.000075
C46	C	1.492645	0.464055	0.500075
C47	C	0.984810	-0.122740	0.000074
C48	C	1.484810	0.377260	0.500074
C49	C	1.056739	-0.172836	0.000081
C50	C	1.556739	0.327164	0.500081
C51	C	1.049373	-0.254389	0.000072
C52	C	1.549373	0.245611	0.500072
C53	C	0.970077	-0.285843	0.000062
C54	C	1.470077	0.214157	0.500062
C55	C	0.898143	-0.235740	0.000053
C56	C	1.398143	0.264260	0.500053
C57	C	0.905510	-0.154189	0.000056
C58	C	1.405510	0.345811	0.500056
C59	C	0.944051	-0.531607	0.000047
C60	C	1.444051	-0.031607	0.500047
C61	C	0.936689	-0.613164	0.000048
C62	C	1.436689	-0.113164	0.500048
C63	C	1.087920	-0.631807	0.000065
C64	C	1.587920	-0.131807	0.500065
C65	C	1.095280	-0.550254	0.000073
C66	C	1.595280	-0.050254	0.500073
C67	C	1.023346	-0.500158	0.000059
C68	C	1.523346	-0.000158	0.500059
C69	C	0.962546	-0.369202	0.000056
C70	C	1.462546	0.130798	0.500056
C71	C	1.030878	-0.416801	0.000059
C72	C	1.530878	0.083199	0.500059
C73	C	1.149390	0.101292	0.000078
C74	C	1.649390	0.601292	0.500078
C75	C	1.242450	0.102834	0.000079
C76	C	1.742450	0.602834	0.500079
C77	C	1.000784	0.249944	0.000059
C78	C	1.500784	0.749944	0.500059
C79	C	1.008618	0.336739	0.000054
C80	C	1.508618	0.836739	0.500054
N81	N	0.996674	0.107009	0.218773
N82	N	1.496674	0.607009	0.718773
N83	N	0.996761	0.106984	-0.218636
N84	N	1.496761	0.606984	0.281364
C85	C	0.996732	0.106993	0.592864
C86	C	1.496732	0.606993	1.092864
C87	C	0.932276	0.171007	0.553689
C88	C	1.432276	0.671007	1.053689
C89	C	0.932452	0.171241	0.446601
C90	C	1.432452	0.671241	0.946601
C91	C	0.996702	0.107001	0.407273
C92	C	1.496702	0.607001	0.907273
C93	C	1.085336	0.124819	0.446115
C94	C	1.585336	0.624819	0.946115
C95	C	1.084981	0.125274	0.553237
C96	C	1.584981	0.625274	1.053237
C97	C	0.973320	0.024970	0.553397
C98	C	1.473320	0.524970	1.053397
C99	C	0.971356	0.025517	0.446269
C100	C	1.471356	0.525517	0.946269
C101	C	0.996691	0.107004	0.302385
C102	C	1.496691	0.607004	0.802385
C103	C	0.996749	0.106991	0.697752
C104	C	1.496749	0.606991	1.197752
H105	H	0.418217	0.213193	0.087589
H106	H	0.918217	0.713193	0.587589
F107	F	1.149884	0.066589	0.587110
F108	F	1.649884	0.566589	1.087110
F109	F	0.575165	0.109850	0.173012
F110	F	1.075165	0.609850	0.673012
H111	H	0.422948	0.122217	0.153518
H112	H	0.922948	0.622217	0.653518
F113	F	0.852288	-0.646637	0.000042
F114	F	1.352288	-0.146637	0.500042
H115	H	0.885477	-0.490828	0.000036
H116	H	1.385477	0.009172	0.500036
F117	F	0.878156	-0.402685	0.000042
F118	F	1.378156	0.097315	0.500042
F119	F	0.425416	-0.024331	-0.081380
F120	F	0.925416	0.475669	0.418620
H121	H	1.121310	-0.147233	0.000094
H122	H	1.621310	0.352767	0.500094
F123	F	0.828954	-0.100872	0.000046
F124	F	1.328954	0.399128	0.500046
H125	H	0.833579	-0.261356	0.000039
H126	H	1.333579	0.238644	0.500039
F127	F	0.568395	0.232778	0.095076
F128	F	1.068395	0.732778	0.595076
F129	F	0.584295	-0.021762	-0.082432
F130	F	1.084295	0.478238	0.417568
H131	H	1.134688	0.079434	0.420639
H132	H	1.634688	0.579434	0.920639
F133	F	1.125930	-0.307702	0.000080
F134	F	1.625930	0.192298	0.500080
F135	F	0.576903	0.112253	-0.173065
F136	F	1.076903	0.612253	0.326935
H137	H	0.948007	0.232108	0.420964
H138	H	1.448007	0.732108	0.920964
F139	F	1.164471	-0.685128	0.000078
F140	F	1.664471	-0.185128	0.500078
H141	H	1.095440	-0.391187	0.000046
H142	H	1.595440	0.108813	0.500046
F143	F	1.111565	0.202114	0.411036
F144	F	1.611565	0.702114	0.911036
F145	F	0.846573	0.157405	0.412274
F146	F	1.346573	0.657405	0.912274
F147	F	0.846142	0.157351	0.587372
F148	F	1.346142	0.657351	1.087372
F149	F	0.952380	0.250121	0.588842
F150	F	1.452380	0.750121	1.088842
H151	H	1.159850	-0.524651	0.000081
H152	H	1.659850	-0.024651	0.500081
H153	H	0.433211	-0.014032	0.063353
H154	H	0.933211	0.485968	0.563353
F155	F	1.110786	0.203461	0.585882
F156	F	1.610786	0.703461	1.085882
F157	F	0.890251	0.002587	0.588744
F158	F	1.390251	0.502587	1.088744
F159	F	0.418961	0.108192	-0.173508
F160	F	0.918961	0.608192	0.326492
H161	H	0.577035	-0.011462	0.062974
H162	H	1.077035	0.488538	0.562974
F163	F	0.886095	0.007841	0.413089
F164	F	1.386095	0.507841	0.913089
F165	F	1.028154	-0.039666	0.411292
F166	F	1.528154	0.460334	0.911292
F167	F	1.034669	-0.037296	0.586508
F168	F	1.534669	0.462704	1.086508
H169	H	0.417962	0.211153	-0.091752
H170	H	0.917962	0.711153	0.408248
H171	H	0.561190	0.214227	-0.090966
H172	H	1.061190	0.714227	0.409034
