data_functionalizedCrystal
_audit_creation_method	'MofGen! by Chris Wilmer'
_symmetry_space_group_name_H-M	'P1'
_symmetry_Int_Tables_number	1
_symmetry_cell_setting	triclinic
loop_
_symmetry_equiv_pos_as_xyz
  x,y,z
_cell_length_a	13.897449
_cell_length_b	29.839131
_cell_length_c	13.897441
_cell_angle_alpha	89.957203
_cell_angle_beta	89.979267
_cell_angle_gamma	90.036508
loop_
_atom_site_label
_atom_site_type_symbol
_atom_site_fract_x
_atom_site_fract_y
_atom_site_fract_z
Zn1	Zn	1.474585	-0.178824	-0.545299
Zn2	Zn	1.474430	-0.253959	-0.383966
Zn3	Zn	1.313274	-0.178845	-0.384018
Zn4	Zn	1.313207	-0.253929	-0.545219
O5	O	1.393874	-0.216389	-0.464626
O6	O	1.609546	-0.188794	-0.523910
O7	O	1.453015	-0.244016	-0.248992
O8	O	1.334766	-0.115975	-0.405467
O9	O	1.609432	-0.243995	-0.405380
O10	O	1.453280	-0.115959	-0.523960
O11	O	1.334615	-0.188830	-0.249029
O12	O	1.178284	-0.188802	-0.405389
O13	O	1.334650	-0.243945	-0.680211
O14	O	1.178234	-0.243966	-0.523823
O15	O	1.453215	-0.188765	-0.680270
O16	O	1.452950	-0.316822	-0.405302
O17	O	1.334500	-0.316800	-0.523773
C18	C	1.143260	-0.216383	-0.464604
C19	C	1.036046	-0.216391	-0.464617
C20	C	0.839750	-0.216393	-0.464642
C21	C	0.948983	-0.216391	-0.464626
C22	C	1.393727	-0.333112	-0.464544
C23	C	1.393752	-0.383046	-0.464542
C24	C	1.455571	-0.692646	-0.526413
C25	C	1.455676	-0.880319	-0.526471
O26	O	1.508092	-0.904548	-0.579015
N27	N	1.394038	-0.903831	-0.464733
C28	C	1.332365	-0.880422	-0.402980
O29	O	1.279933	-0.904726	-0.350476
C30	C	1.332256	-0.692750	-0.402928
C31	C	1.393905	-0.669240	-0.464663
C32	C	1.517214	-0.669137	-0.588144
C33	C	1.517191	-0.622222	-0.588125
C34	C	1.455525	-0.598816	-0.526375
C35	C	1.393882	-0.622325	-0.464644
C36	C	1.270579	-0.669341	-0.341181
C37	C	1.270555	-0.622420	-0.341175
C38	C	1.332204	-0.598911	-0.402910
C39	C	1.332192	-0.552003	-0.402876
N40	N	1.393830	-0.528492	-0.464614
C41	C	1.455496	-0.551898	-0.526364
C42	C	1.332428	-0.978952	-0.403011
C43	C	1.332456	-1.025870	-0.403022
C44	C	1.455766	-1.025765	-0.526515
C45	C	1.455742	-0.978846	-0.526497
C46	C	1.394065	-0.955441	-0.464749
C47	C	1.455444	-0.453372	-0.526319
C48	C	1.455418	-0.406452	-0.526292
C49	C	1.332105	-0.406562	-0.402804
C50	C	1.332134	-0.453477	-0.402827
C51	C	1.393807	-0.476881	-0.464592
O52	O	1.279796	-0.527746	-0.350366
O53	O	1.507905	-0.527585	-0.578874
C54	C	1.455594	-0.739562	-0.526432
C55	C	1.393951	-0.763071	-0.464701
C56	C	1.332285	-0.739665	-0.402951
C57	C	1.393979	-0.809989	-0.464712
C58	C	1.455645	-0.833395	-0.526462
C59	C	1.517283	-0.809883	-0.588200
C60	C	1.517260	-0.762968	-0.588181
C61	C	1.270647	-0.763177	-0.341213
C62	C	1.270676	-0.810092	-0.341236
C63	C	1.332342	-0.833498	-0.402986
C64	C	1.645467	-0.216395	-0.464648
C65	C	1.752681	-0.216398	-0.464658
C66	C	1.393942	-0.216349	-0.716219
C67	C	1.393971	-0.216332	-0.823433
C68	C	1.394048	-0.099211	-0.464728
C69	C	1.394122	-0.049276	-0.464772
C70	C	1.393998	-0.216302	-1.019728
C71	C	1.393980	-0.216320	-0.910495
C72	C	1.393861	-0.216396	-0.214011
C73	C	1.394019	-0.216287	-0.106798
H74	H	1.505657	-0.472422	-0.576621
H75	H	1.282266	-1.045007	-0.352741
H76	H	1.567430	-0.688189	-0.638434
H77	H	1.567388	-0.603083	-0.638398
H78	H	1.505623	-0.387312	-0.576564
C79	C	1.202749	-0.695191	-0.273279
C80	C	1.210651	-0.688776	-0.163629
C81	C	1.142811	-0.714624	-0.095726
C82	C	1.067069	-0.746887	-0.137475
C83	C	1.059164	-0.753303	-0.247131
C84	C	1.127004	-0.727455	-0.315034
H85	H	1.266723	-0.664892	-0.132719
H86	H	1.148663	-0.709874	-0.014551
H87	H	1.016850	-0.766021	-0.087210
H88	H	1.003092	-0.777187	-0.278041
H89	H	1.121152	-0.732205	-0.396209
C90	C	1.523550	-0.952988	-0.594412
C91	C	1.633213	-0.959398	-0.586641
C92	C	1.701022	-0.933542	-0.654561
C93	C	1.659169	-0.901277	-0.730251
C94	C	1.549500	-0.894865	-0.738025
C95	C	1.481690	-0.920721	-0.670105
H96	H	1.664200	-0.983284	-0.530608
H97	H	1.782206	-0.938289	-0.648806
H98	H	1.709365	-0.882137	-0.780529
H99	H	1.518513	-0.870979	-0.794058
H100	H	1.400506	-0.915975	-0.675860
H101	H	1.220328	-0.603366	-0.290893
C102	C	1.264326	-0.479338	-0.334910
C103	C	1.188582	-0.511602	-0.376650
C104	C	1.120765	-0.537458	-0.308739
C105	C	1.128692	-0.531050	-0.199088
C106	C	1.204440	-0.498785	-0.157343
C107	C	1.272257	-0.472929	-0.225254
H108	H	1.182711	-0.516347	-0.457825
H109	H	1.064691	-0.561343	-0.339642
H110	H	1.078490	-0.550191	-0.148816
H111	H	1.210311	-0.494040	-0.076168
H112	H	1.328330	-0.449044	-0.194351
H113	H	1.282202	-0.959899	-0.352725
H114	H	1.505978	-1.044830	-0.576793
H115	H	1.281900	-0.387497	-0.352524
C116	C	1.585069	-0.737112	-0.656100
C117	C	1.694731	-0.743527	-0.648336
C118	C	1.762541	-0.717676	-0.716261
C119	C	1.720690	-0.685409	-0.791950
C120	C	1.611022	-0.678993	-0.799718
C121	C	1.543212	-0.704845	-0.731792
H122	H	1.725717	-0.767414	-0.592303
H123	H	1.843725	-0.722425	-0.710511
H124	H	1.770887	-0.666272	-0.842233
H125	H	1.580036	-0.655106	-0.855750
H126	H	1.462028	-0.700095	-0.737543
C127	C	1.202853	-0.835949	-0.273322
C128	C	1.210766	-0.829539	-0.163671
C129	C	1.142937	-0.855393	-0.095768
C130	C	1.067197	-0.887657	-0.137516
C131	C	1.059281	-0.894067	-0.247173
C132	C	1.127109	-0.868213	-0.315076
H133	H	1.266836	-0.805655	-0.132761
H134	H	1.148797	-0.850648	-0.014592
H135	H	1.016986	-0.906795	-0.087250
H136	H	1.003210	-0.917952	-0.278083
H137	H	1.121249	-0.872959	-0.396252
H138	H	1.567497	-0.828949	-0.638476
H139	H	1.220430	-0.744123	-0.290930
