data_functionalizedCrystal
_audit_creation_method	'MofGen! by Chris Wilmer'
_symmetry_space_group_name_H-M	'P1'
_symmetry_Int_Tables_number	1
_symmetry_cell_setting	triclinic
loop_
_symmetry_equiv_pos_as_xyz
  x,y,z
_cell_length_a	9.065218
_cell_length_b	17.666332
_cell_length_c	9.065218
_cell_angle_alpha	89.995443
_cell_angle_beta	94.984115
_cell_angle_gamma	90.009401
loop_
_atom_site_label
_atom_site_type_symbol
_atom_site_fract_x
_atom_site_fract_y
_atom_site_fract_z
O1	O	1.960412	0.062947	-0.216360
O2	O	1.531127	0.062948	-0.234106
O3	O	1.754642	0.062946	-0.010590
O4	O	1.736896	0.062949	-0.439875
O5	O	1.754603	-0.062951	-0.010578
O6	O	1.531087	-0.062949	-0.234093
O7	O	1.960372	-0.062950	-0.216347
Cu8	Cu	1.745726	-0.074445	-0.225219
Cu9	Cu	1.745773	0.074443	-0.225234
O10	O	1.736856	-0.062948	-0.439863
C11	C	1.476120	-0.000001	-0.232394
C12	C	1.312277	-0.000000	-0.227294
N13	N	1.745703	-0.179164	-0.225208
C14	C	1.844709	-0.218775	-0.126285
C15	C	1.844718	-0.298022	-0.126278
C16	C	1.745735	-0.337656	-0.225219
C17	C	1.646710	-0.298036	-0.324150
C18	C	1.646694	-0.218790	-0.324144
N19	N	1.728697	-0.462074	-0.355532
N20	N	1.728720	-0.537355	-0.355533
C21	C	1.745774	-0.576420	-0.225241
N22	N	1.762832	-0.537362	-0.094943
N23	N	1.762816	-0.462075	-0.094943
C24	C	1.745740	-0.423586	-0.225236
C25	C	1.844794	-0.701960	-0.126302
C26	C	1.844793	-0.781209	-0.126292
C27	C	1.646792	-0.781222	-0.324178
C28	C	1.646787	-0.701974	-0.324174
C29	C	1.745796	-0.662348	-0.225238
C30	C	2.015378	0.000000	-0.218059
C31	C	2.179221	0.000005	-0.223158
C32	C	1.752917	-0.000001	0.044403
C33	C	1.747817	0.000002	0.208245
N34	N	1.745807	0.179162	-0.225234
C35	C	1.738582	0.000001	-0.494855
C36	C	1.743681	0.000002	-0.658698
H37	H	1.925324	-0.186514	-0.045721
H38	H	1.566070	-0.186538	-0.404701
H39	H	1.566114	-0.330310	-0.404708
H40	H	1.925343	-0.330279	-0.045719
H41	H	1.925411	-0.813461	-0.045729
C42	C	1.539396	-0.824147	-0.431838
C43	C	1.565223	-0.804845	-0.577171
C44	C	1.466298	-0.844369	-0.676384
H45	H	1.553478	-0.877028	-0.417877
H46	H	1.440678	-0.811157	-0.414526
H47	H	1.663917	-0.817841	-0.594476
H48	H	1.551129	-0.751971	-0.591179
H49	H	1.367581	-0.831379	-0.659072
H50	H	1.480389	-0.897249	-0.662410
H51	H	1.483799	-0.831274	-0.775003
C52	C	1.539546	-0.658868	-0.431676
C53	C	1.619344	-0.613345	-0.523071
C54	C	1.520598	-0.573620	-0.622111
H55	H	1.480558	-0.693735	-0.490747
H56	H	1.477430	-0.627921	-0.377785
H57	H	1.681434	-0.644291	-0.576958
H58	H	1.678326	-0.578464	-0.464041
H59	H	1.458482	-0.542672	-0.568219
H60	H	1.461616	-0.608492	-0.681171
H61	H	1.574726	-0.542722	-0.684125
H62	H	1.925409	-0.669696	-0.045737
