data_functionalizedCrystal
_audit_creation_method	'MofGen! by Chris Wilmer'
_symmetry_space_group_name_H-M	'P1'
_symmetry_Int_Tables_number	1
_symmetry_cell_setting	triclinic
loop_
_symmetry_equiv_pos_as_xyz
  x,y,z
_cell_length_a	14.853566
_cell_length_b	14.853568
_cell_length_c	13.930277
_cell_angle_alpha	90.006322
_cell_angle_beta	89.987070
_cell_angle_gamma	96.365199
loop_
_atom_site_label
_atom_site_type_symbol
_atom_site_fract_x
_atom_site_fract_y
_atom_site_fract_z
O1	O	1.196347	-0.117692	0.079757
O2	O	0.933888	-0.131715	0.079772
O3	O	1.072128	0.006526	0.079769
O4	O	1.058107	-0.255933	0.079760
O5	O	1.072153	0.006518	-0.079893
O6	O	0.933912	-0.131723	-0.079890
O7	O	1.196372	-0.117701	-0.079904
Zn8	Zn	1.065146	-0.124714	-0.105247
Zn9	Zn	1.065114	-0.124702	0.105114
O10	O	1.058132	-0.255942	-0.079902
C11	C	0.900311	-0.131084	-0.000057
C12	C	0.800228	-0.129181	-0.000051
C13	C	0.377029	-0.121125	0.086964
C14	C	0.377078	-0.121135	-0.087105
C15	C	0.471112	-0.122923	-0.087102
C16	C	0.518109	-0.123813	-0.000065
C17	C	0.471072	-0.122916	0.086970
C18	C	0.518155	-0.123829	-0.174135
C19	C	0.612194	-0.125618	-0.174136
C20	C	0.659194	-0.126501	-0.087097
C21	C	0.612151	-0.125603	-0.000059
C22	C	0.659148	-0.126493	0.086978
C23	C	0.612108	-0.125588	0.174018
C24	C	0.518071	-0.123799	0.174009
C25	C	0.753231	-0.128290	-0.087088
C26	C	0.753191	-0.128283	0.086984
C27	C	1.071505	0.040111	-0.000058
C28	C	1.069601	0.140194	-0.000049
C29	C	0.979434	0.552728	-0.000056
C30	C	1.143667	0.574009	-0.000065
C31	C	1.145457	0.479976	-0.000060
C32	C	1.064235	0.422313	-0.000055
C33	C	0.981222	0.458685	-0.000054
C34	C	1.228469	0.443597	-0.000071
C35	C	1.230262	0.349558	-0.000068
C36	C	1.149039	0.291894	-0.000056
C37	C	1.066023	0.328271	-0.000054
C38	C	0.984800	0.270608	-0.000049
C39	C	0.901783	0.306983	-0.000040
C40	C	0.899999	0.401021	-0.000042
C41	C	1.150823	0.197856	-0.000054
C42	C	0.986588	0.176566	-0.000048
C43	C	1.229948	-0.118332	-0.000073
C44	C	1.330032	-0.120235	-0.000073
C45	C	1.058754	0.710474	-0.000068
C46	C	1.060657	0.610390	-0.000061
N47	N	1.065092	-0.124688	0.248681
N48	N	1.065175	-0.124721	-0.248813
C49	C	1.003836	-0.185807	0.700951
C50	C	1.126496	-0.063628	0.700918
C51	C	1.126482	-0.063621	0.600422
C52	C	1.065143	-0.124708	0.550186
C53	C	1.003818	-0.185801	0.600446
C54	C	1.187799	-0.002523	0.550155
C55	C	1.187787	-0.002513	0.449653
C56	C	1.126451	-0.063605	0.399415
C57	C	1.065124	-0.124701	0.449681
C58	C	1.003785	-0.185787	0.399445
C59	C	0.942462	-0.246889	0.449709
C60	C	0.942482	-0.246892	0.550208
C61	C	1.126431	-0.063602	0.298916
C62	C	1.003767	-0.185781	0.298940
H63	H	0.479763	-0.123062	0.244871
H64	H	0.953820	-0.235528	0.258044
C65	C	0.897321	-0.131024	0.164290
C66	C	0.804848	-0.129260	0.182660
H67	H	0.929211	-0.131622	0.223357
H68	H	0.905925	-0.183850	0.128538
H69	H	0.919545	-0.078787	0.128528
H70	H	0.782622	-0.181501	0.218416
H71	H	0.796239	-0.076429	0.218427
C72	C	0.728003	-0.050188	-0.275110
C73	C	0.663899	-0.126600	-0.269806
H74	H	0.759927	-0.050797	-0.334171
H75	H	0.698119	0.003028	-0.271492
H76	H	0.769447	-0.050984	-0.223271
H77	H	0.622450	-0.125801	-0.321641
H78	H	0.693784	-0.179830	-0.273433
H79	H	0.338726	-0.120385	0.157829
C80	C	0.630996	-0.203576	0.322383
C81	C	0.663776	-0.126574	0.269686
H82	H	0.662902	-0.204187	0.381440
H83	H	0.568271	-0.202368	0.334845
H84	H	0.639601	-0.256397	0.286607
H85	H	0.655164	-0.073753	0.305460
H86	H	0.726516	-0.127775	0.257228
C87	C	0.232947	-0.118403	-0.164398
C88	C	0.325420	-0.120161	-0.182773
H89	H	0.201056	-0.117796	-0.223464
H90	H	0.210727	-0.170637	-0.128646
H91	H	0.224343	-0.065574	-0.128636
H92	H	0.334025	-0.172994	-0.218530
H93	H	0.347646	-0.067922	-0.218541
H94	H	1.297860	0.319950	-0.000074
H95	H	0.479882	-0.123110	-0.244997
H96	H	1.237736	0.047216	0.591060
H97	H	1.176433	-0.013889	0.741823
H98	H	1.294596	0.490552	-0.000084
C99	C	1.179436	0.092312	0.267981
C100	C	1.193823	0.003559	0.243663
H101	H	1.221046	0.133775	0.233873
H102	H	1.119291	0.102312	0.251538
H103	H	1.188228	0.101042	0.335026
H104	H	1.185024	-0.005173	0.176620
H105	H	1.253982	-0.006446	0.260100
C106	C	0.869049	-0.052878	-0.188062
C107	C	0.804941	-0.129286	-0.182749
H108	H	0.900976	-0.053497	-0.247120
H109	H	0.839168	0.000341	-0.184455
H110	H	0.910491	-0.053669	-0.136219
H111	H	0.763495	-0.128492	-0.234588
H112	H	0.834823	-0.182519	-0.186365
C113	C	1.240832	0.153399	0.418726
C114	C	1.255200	0.064640	0.394411
H115	H	1.282458	0.194853	0.384624
H116	H	1.180694	0.163415	0.402272
H117	H	1.249617	0.162126	0.485771
H118	H	1.246409	0.055911	0.327366
H119	H	1.315353	0.054620	0.410858
H120	H	0.920446	0.129622	-0.000039
H121	H	0.835652	0.260023	-0.000043
H122	H	0.832410	0.430646	-0.000036
C123	C	0.838889	0.563539	0.082038
C124	C	0.888186	0.592708	-0.000043
H125	H	0.782558	0.588228	0.082047
H126	H	0.828332	0.499289	0.082027
H127	H	0.872339	0.583332	0.137706
H128	H	0.854738	0.572909	-0.055712
H129	H	0.898739	0.656971	-0.000041
C130	C	0.821235	-0.367669	0.540146
C131	C	0.875077	-0.314047	0.605459
H132	H	0.779626	-0.409129	0.574260
H133	H	0.788835	-0.330013	0.500970
H134	H	0.858732	-0.400243	0.500924
H135	H	0.837580	-0.281467	0.644677
H136	H	0.907479	-0.351708	0.644651
H137	H	0.953910	-0.235557	0.741879
H138	H	1.209795	0.620963	-0.000076
C139	C	1.312980	0.228343	-0.000062
C140	C	1.242066	0.157872	-0.000056
H141	H	1.369311	0.203657	-0.000055
H142	H	1.308876	0.264565	-0.055741
H143	H	1.308850	0.264589	0.055615
H144	H	1.246192	0.121629	-0.055737
H145	H	1.246172	0.121634	0.055628
H146	H	0.892515	-0.296622	0.408796
