data_functionalizedCrystal
_audit_creation_method	'MofGen! by Chris Wilmer'
_symmetry_space_group_name_H-M	'P1'
_symmetry_Int_Tables_number	1
_symmetry_cell_setting	triclinic
loop_
_symmetry_equiv_pos_as_xyz
  x,y,z
_cell_length_a	16.974829
_cell_length_b	16.992695
_cell_length_c	14.048226
_cell_angle_alpha	89.993436
_cell_angle_beta	86.338224
_cell_angle_gamma	87.025716
loop_
_atom_site_label
_atom_site_type_symbol
_atom_site_fract_x
_atom_site_fract_y
_atom_site_fract_z
O1	O	1.055466	0.099962	-0.160470
O2	O	0.826063	0.112684	-0.142800
O3	O	0.939845	-0.007818	-0.151556
O4	O	0.941685	0.220465	-0.151713
O5	O	0.939830	-0.007826	0.006766
O6	O	0.826048	0.112677	0.015523
O7	O	1.055451	0.099955	-0.002147
Zn8	Zn	0.940747	0.106315	0.031825
Zn9	Zn	0.940767	0.106324	-0.176772
O10	O	0.941669	0.220458	0.006609
C11	C	0.796567	0.112195	-0.061367
C12	C	0.708698	0.110741	-0.054599
C13	C	0.214088	0.102578	-0.007235
C14	C	0.296650	0.103945	-0.013597
C15	C	0.337939	0.104626	-0.103081
C16	C	0.296662	0.103949	-0.186209
C17	C	0.214101	0.102588	-0.179846
C18	C	0.584860	0.108702	-0.131364
C19	C	0.667427	0.110061	-0.137720
C20	C	0.667409	0.110059	0.034892
C21	C	0.584847	0.108693	0.041247
C22	C	0.543576	0.108020	-0.041881
N23	N	0.422331	0.106021	-0.109586
N24	N	0.459186	0.106631	-0.035375
C25	C	0.937472	-0.037032	-0.072213
C26	C	0.930412	-0.124069	-0.071670
C27	C	0.998528	-0.174381	-0.076915
C28	C	0.991890	-0.256160	-0.076413
C29	C	0.917135	-0.287627	-0.070658
C30	C	0.849015	-0.237308	-0.065415
C31	C	0.855653	-0.155530	-0.065924
C32	C	0.889621	-0.531195	-0.068552
C33	C	0.882987	-0.612980	-0.068040
C34	C	1.025863	-0.631827	-0.079040
C35	C	1.032495	-0.550046	-0.079543
C36	C	0.964374	-0.499735	-0.074305
N37	N	0.910349	-0.371218	-0.070142
N38	N	0.971162	-0.416145	-0.074828
C39	C	1.084948	0.100444	-0.083582
C40	C	1.172817	0.101899	-0.090357
C41	C	0.944043	0.249671	-0.072736
C42	C	0.951103	0.336708	-0.073286
N43	N	0.940740	0.106308	0.174186
N44	N	0.940781	0.106325	-0.319134
C45	C	0.991141	0.052972	0.220125
C46	C	0.991146	0.052971	0.319782
C47	C	0.940754	0.106312	0.373498
C48	C	0.890347	0.159651	0.327553
C49	C	0.890339	0.159647	0.227897
C50	C	0.890371	0.159656	0.535265
C51	C	0.890380	0.159661	0.634927
C52	C	0.991178	0.052981	0.627150
C53	C	0.991169	0.052977	0.527495
C54	C	0.940763	0.106317	0.481556
H55	H	0.551235	0.108121	0.114114
H56	H	0.849322	0.203089	0.497866
H57	H	0.330249	0.104497	0.054089
H58	H	0.701043	0.110622	-0.210592
H59	H	1.047357	-0.297122	-0.080683
H60	H	0.849345	0.203096	0.678658
H61	H	1.032179	0.009539	0.176395
Cl62	Cl	1.126476	-0.510495	-0.086809
Cl63	Cl	0.826992	0.226705	0.395080
Cl64	Cl	0.755037	-0.276866	-0.058192
H65	H	1.059401	-0.148768	-0.081596
H66	H	0.701020	0.110608	0.102570
Cl67	Cl	0.162217	0.101738	-0.284346
Cl68	Cl	0.826971	0.226699	0.170147
Cl69	Cl	0.532989	0.107851	-0.235868
Cl70	Cl	1.054545	-0.014073	0.684905
Cl71	Cl	0.348570	0.104806	-0.298704
Cl72	Cl	0.789003	-0.652535	-0.060799
H73	H	1.081323	-0.672798	-0.083307
Cl74	Cl	1.054524	-0.014075	0.459964
Cl75	Cl	0.803982	-0.467958	-0.061969
Cl76	Cl	0.162189	0.101715	0.105265
Cl77	Cl	0.770018	-0.092280	-0.059333
Cl78	Cl	1.054507	-0.014082	0.377536
