data_functionalizedCrystal
_audit_creation_method	'MofGen! by Chris Wilmer'
_symmetry_space_group_name_H-M	'P1'
_symmetry_Int_Tables_number	1
_symmetry_cell_setting	triclinic
loop_
_symmetry_equiv_pos_as_xyz
  x,y,z
_cell_length_a	6.817900
_cell_length_b	17.284672
_cell_length_c	17.284648
_cell_angle_alpha	88.655147
_cell_angle_beta	103.040472
_cell_angle_gamma	103.040903
loop_
_atom_site_label
_atom_site_type_symbol
_atom_site_fract_x
_atom_site_fract_y
_atom_site_fract_z
V1	V	-4.005488	-0.094267	-0.239956
V2	V	-3.505488	0.405733	0.260044
O3	O	-4.000074	0.020178	-0.242328
O4	O	-3.500074	0.520178	0.257672
O5	O	-3.950737	-0.201965	-0.231640
O6	O	-3.450737	0.298035	0.268360
O7	O	-3.950734	-0.085951	-0.347654
O8	O	-3.450734	0.414049	0.152346
O9	O	-4.000077	-0.096640	-0.125511
O10	O	-3.500077	0.403360	0.374489
V11	V	-4.490762	-0.081389	-0.227078
V12	V	-3.990762	0.418611	0.272922
O13	O	-4.262905	-0.122515	-0.268204
O14	O	-3.762905	0.377485	0.231796
O15	O	-4.683542	-0.053141	-0.198830
O16	O	-4.183542	0.446859	0.301170
O17	O	-4.322306	0.026309	-0.235394
O18	O	-3.822306	0.526309	0.264606
O19	O	-4.613572	-0.195834	-0.224706
O20	O	-4.113572	0.304166	0.275294
O21	O	-4.613570	-0.079017	-0.341523
O22	O	-4.113570	0.420983	0.158477
O23	O	-4.322308	-0.089705	-0.119380
O24	O	-3.822308	0.410295	0.380620
C25	C	-3.794398	-0.228434	-0.226133
C26	C	-3.294398	0.271566	0.273867
C27	C	-3.830878	-0.316435	-0.220051
C28	C	-3.330878	0.183565	0.279949
C29	C	-3.883249	-0.364613	-0.288954
C30	C	-3.383249	0.135387	0.211046
C31	C	-3.917504	-0.447298	-0.283233
C32	C	-3.417504	0.052702	0.216767
C33	C	-3.899400	-0.481803	-0.208608
C34	C	-3.399400	0.018197	0.291392
C35	C	-3.847017	-0.433618	-0.139700
C36	C	-3.347017	0.066382	0.360300
C37	C	-3.812749	-0.350935	-0.145422
C38	C	-3.312749	0.149065	0.354578
C39	C	-3.998094	-0.728358	-0.183800
C40	C	-3.498094	-0.228358	0.316200
C41	C	-4.032373	-0.811048	-0.178083
C42	C	-3.532373	-0.311048	0.321917
C43	C	-4.102854	-0.824722	-0.321616
C44	C	-3.602854	-0.324722	0.178384
C45	C	-4.068594	-0.742036	-0.327332
C46	C	-3.568594	-0.242036	0.172668
C47	C	-4.016204	-0.693858	-0.258424
C48	C	-3.516204	-0.193858	0.241576
N49	N	-3.934418	-0.566321	-0.202758
N50	N	-3.434418	-0.066321	0.297242
N51	N	-3.981172	-0.609342	-0.264274
N52	N	-3.481172	-0.109342	0.235726
C53	C	-3.794394	-0.080445	-0.374119
C54	C	-3.294394	0.419555	0.125881
C55	C	-3.830869	-0.074359	-0.462119
C56	C	-3.330869	0.425641	0.037881
C57	C	-3.883233	-0.143262	-0.510297
C58	C	-3.383233	0.356738	-0.010297
C59	C	-3.917513	-0.137541	-0.592982
C60	C	-3.417513	0.362459	-0.092982
C61	C	-3.899414	-0.062917	-0.627488
C62	C	-3.399414	0.437083	-0.127488
C63	C	-3.847051	0.005991	-0.579304
C64	C	-3.347051	0.505991	-0.079304
C65	C	-3.812786	0.000270	-0.496620
C66	C	-3.312786	0.500270	0.003380
C67	C	-3.998127	-0.038110	-0.874043
C68	C	-3.498127	0.461890	-0.374043
C69	C	-4.032391	-0.032394	-0.956732
C70	C	-3.532391	0.467606	-0.456732
C71	C	-4.102855	-0.175927	-0.970405
C72	C	-3.602855	0.324073	-0.470405
C73	C	-4.068574	-0.181641	-0.887719
C74	C	-3.568574	0.318359	-0.387719
C75	C	-4.016225	-0.112734	-0.839543
C76	C	-3.516225	0.387266	-0.339543
N77	N	-3.934446	-0.057068	-0.712006
N78	N	-3.434446	0.442932	-0.212006
N79	N	-3.981207	-0.118584	-0.755027
N80	N	-3.481207	0.381416	-0.255027
C81	C	-4.141986	0.052774	-0.240899
C82	C	-3.641986	0.552774	0.259101
C83	C	-4.084745	0.140774	-0.246986
C84	C	-3.584745	0.640774	0.253014
C85	C	-4.141991	-0.095214	-0.092911
C86	C	-3.641991	0.404786	0.407089
C87	C	-4.084755	-0.101296	-0.004910
C88	C	-3.584755	0.398704	0.495090
H89	H	-3.955455	-0.689141	-0.127690
H90	H	-3.455455	-0.189141	0.372310
H91	H	-3.898023	-0.336527	-0.349722
H92	H	-3.398023	0.163473	0.150278
N93	N	-4.159341	-0.876694	-0.395927
N94	N	-3.659341	-0.376694	0.104073
H95	H	-4.045259	-0.862722	-0.425782
H96	H	-3.545259	-0.362722	0.074218
H97	H	-4.292352	-0.867852	-0.430755
H98	H	-3.792352	-0.367852	0.069245
H99	H	-4.083311	-0.713948	-0.388099
H100	H	-3.583311	-0.213948	0.111901
N101	N	-4.013089	-0.848311	-0.097615
N102	N	-3.513089	-0.348311	0.402385
H103	H	-3.902298	-0.879779	-0.089496
H104	H	-3.402298	-0.379779	0.410504
H105	H	-4.149458	-0.884821	-0.094706
H106	H	-3.649458	-0.384821	0.405294
H107	H	-3.770150	0.056378	-0.457394
H108	H	-3.270150	0.556378	0.042606
H109	H	-3.770095	-0.311708	-0.089313
H110	H	-3.270095	0.188292	0.410687
N111	N	-3.973987	-0.499263	-0.357549
N112	N	-3.473987	0.000737	0.142451
H113	H	-3.980269	-0.464858	-0.405691
H114	H	-3.480269	0.035142	0.094309
H115	H	-4.113265	-0.536444	-0.360814
H116	H	-3.613265	-0.036444	0.139186
N117	N	-3.827660	-0.470833	-0.059214
N118	N	-3.327660	0.029167	0.440786
H119	H	-3.857384	-0.530526	-0.066044
H120	H	-3.357384	-0.030526	0.433956
H121	H	-3.929884	-0.455944	-0.031447
H122	H	-3.429884	0.044056	0.468553
H123	H	-3.897961	-0.204028	-0.482209
H124	H	-3.397961	0.295972	0.017791
H125	H	-4.083323	-0.242409	-0.859631
H126	H	-3.583323	0.257591	-0.359631
H127	H	-3.832329	0.066752	-0.607405
H128	H	-3.332329	0.566752	-0.107405
N129	N	-3.974017	-0.211858	-0.644947
N130	N	-3.474017	0.288142	-0.144947
H131	H	-3.980277	-0.260000	-0.610542
H132	H	-3.480277	0.240000	-0.110542
H133	H	-3.866254	-0.210097	-0.676981
H134	H	-3.366254	0.289903	-0.176981
H135	H	-4.145482	-0.232027	-1.009639
H136	H	-3.645482	0.267973	-0.509639
H137	H	-4.017691	0.028377	-0.984824
H138	H	-3.517691	0.528377	-0.484824
N139	N	-3.941661	0.036209	-0.822087
N140	N	-3.441661	0.536209	-0.322087
H141	H	-3.935387	0.084349	-0.856495
H142	H	-3.435387	0.584349	-0.356495
H143	H	-3.802382	0.039479	-0.784906
H144	H	-3.302382	0.539479	-0.284906
