data_functionalizedCrystal
_audit_creation_method	'MofGen! by Chris Wilmer'
_symmetry_space_group_name_H-M	'P1'
_symmetry_Int_Tables_number	1
_symmetry_cell_setting	triclinic
loop_
_symmetry_equiv_pos_as_xyz
  x,y,z
_cell_length_a	10.654550
_cell_length_b	10.654551
_cell_length_c	9.130313
_cell_angle_alpha	89.998309
_cell_angle_beta	89.999724
_cell_angle_gamma	84.485146
loop_
_atom_site_label
_atom_site_type_symbol
_atom_site_fract_x
_atom_site_fract_y
_atom_site_fract_z
O1	O	1.667840	0.176399	-0.121680
O2	O	1.302362	0.193205	-0.121706
O3	O	1.493503	0.002063	-0.121693
O4	O	1.476699	0.367541	-0.121693
O5	O	1.493490	0.002057	0.121906
O6	O	1.302349	0.193199	0.121893
O7	O	1.667827	0.176393	0.121919
Cu8	Cu	1.485087	0.184796	0.144148
Cu9	Cu	1.485102	0.184802	-0.143935
O10	O	1.476685	0.367535	0.121906
C11	C	1.255557	0.191968	0.000090
C12	C	1.116114	0.188276	0.000080
C13	C	1.036629	0.300818	0.000084
C14	C	0.905608	0.297341	0.000110
C15	C	0.933570	0.068772	0.000120
C16	C	1.064588	0.072249	0.000105
C17	C	1.492262	-0.044738	0.000103
C18	C	1.488570	-0.184181	0.000093
C19	C	1.486845	-0.249690	-0.132690
C20	C	1.483365	-0.380711	-0.132684
C21	C	1.483340	-0.380702	0.132901
C22	C	1.486811	-0.249683	0.132893
C23	C	1.486865	-0.249697	-0.286024
C24	C	1.483384	-0.380717	-0.286018
C25	C	1.714631	0.177630	0.000120
C26	C	1.854075	0.181322	0.000120
C27	C	1.477926	0.414336	0.000107
C28	C	1.481619	0.553779	0.000107
N29	N	1.485085	0.184790	0.346771
N30	N	1.485114	0.184798	-0.346558
C31	C	1.569751	0.100188	0.423429
C32	C	1.569763	0.100189	0.576765
C33	C	1.400438	0.269404	0.576774
C34	C	1.400421	0.269396	0.423440
H35	H	1.129309	-0.019401	0.000106
H36	H	1.331470	0.338290	0.361021
H37	H	1.400079	-0.203415	-0.344910
H38	H	1.578466	-0.220129	-0.333592
H39	H	1.488209	-0.196350	0.241018
H40	H	1.481906	-0.434050	0.241022
C41	C	1.282084	-0.313236	-0.392470
C42	C	1.359740	-0.420645	-0.350266
H43	H	1.205756	-0.337891	-0.432135
H44	H	1.263770	-0.260805	-0.309567
H45	H	1.324058	-0.268181	-0.464351
H46	H	1.317770	-0.465695	-0.278376
H47	H	1.378053	-0.473097	-0.433179
C48	C	1.601715	-0.399531	-0.510054
C49	C	1.600554	-0.443221	-0.365466
H50	H	1.674052	-0.438114	-0.559093
H51	H	1.527824	-0.420216	-0.559087
H52	H	1.604077	-0.310630	-0.510035
H53	H	1.598183	-0.532121	-0.365485
H54	H	1.674465	-0.422545	-0.316420
C55	C	1.737141	-0.067059	0.561345
C56	C	1.662837	0.007197	0.661027
H57	H	1.794606	-0.124465	0.613368
H58	H	1.684472	-0.112725	0.501554
H59	H	1.782753	-0.014342	0.501526
H60	H	1.617217	-0.045520	0.720840
H61	H	1.715512	0.052866	0.720843
H62	H	0.891602	-0.025693	0.000150
C63	C	1.183670	0.341117	0.624028
C64	C	1.307385	0.362400	0.661059
H65	H	1.126224	0.398527	0.676070
H66	H	1.171547	0.353228	0.521750
H67	H	1.169332	0.257164	0.649174
H68	H	1.321726	0.446351	0.635903
H69	H	1.319512	0.350299	0.763360
H70	H	1.078576	0.395294	0.000074
H71	H	1.638687	0.031295	0.361009
H72	H	0.840895	0.388984	0.000116
