data_functionalizedCrystal
_audit_creation_method	'MofGen! by Chris Wilmer'
_symmetry_space_group_name_H-M	'P1'
_symmetry_Int_Tables_number	1
_symmetry_cell_setting	triclinic
loop_
_symmetry_equiv_pos_as_xyz
  x,y,z
_cell_length_a	27.732064
_cell_length_b	27.732048
_cell_length_c	15.186229
_cell_angle_alpha	89.991324
_cell_angle_beta	90.004285
_cell_angle_gamma	82.646040
loop_
_atom_site_label
_atom_site_type_symbol
_atom_site_fract_x
_atom_site_fract_y
_atom_site_fract_z
O1	O	0.640921	0.057555	-0.073081
O2	O	0.500129	0.066292	-0.073118
O3	O	0.574898	-0.008473	-0.073082
O4	O	0.566152	0.132320	-0.073118
O5	O	0.574893	-0.008474	0.073376
O6	O	0.500124	0.066291	0.073339
O7	O	0.640916	0.057554	0.073376
Zn8	Zn	0.570519	0.061922	0.096611
Zn9	Zn	0.570526	0.061923	-0.096353
O10	O	0.566147	0.132319	0.073340
C11	C	0.482120	0.066106	0.000106
C12	C	0.428465	0.065551	0.000092
C13	C	0.051392	0.017583	0.000154
C14	C	0.253053	0.019630	0.000131
O15	O	0.284305	-0.017591	0.000173
N16	N	0.272180	0.063964	0.000116
C17	C	0.240889	0.107790	0.000112
O18	O	0.261785	0.145546	0.000108
C19	C	0.039230	0.105743	0.000142
C20	C	0.020105	0.061406	0.000148
C21	C	0.032267	-0.026750	0.000162
C22	C	-0.018145	-0.027261	0.000163
C23	C	-0.049432	0.016561	0.000157
C24	C	-0.030307	0.060895	0.000149
C25	C	0.007940	0.149568	0.000145
C26	C	-0.042478	0.149053	0.000154
C27	C	-0.061602	0.104716	0.000161
C28	C	-0.112006	0.104206	0.000144
N29	N	-0.131134	0.059872	0.000159
C30	C	-0.099846	0.016049	0.000166
C31	C	0.346763	0.108861	0.000095
C32	C	0.397178	0.109373	0.000086
C33	C	0.409338	0.021213	0.000106
C34	C	0.358923	0.020701	0.000109
C35	C	0.327636	0.064527	0.000110
C36	C	-0.205716	0.014979	0.000167
C37	C	-0.256133	0.014472	0.000164
C38	C	-0.268289	0.102632	0.000149
C39	C	-0.217876	0.103140	0.000147
C40	C	-0.186590	0.059309	0.000159
O41	O	-0.143287	0.141407	0.000112
O42	O	-0.120752	-0.021701	0.000190
C43	C	0.101805	0.018094	0.000153
C44	C	0.120930	0.062428	0.000146
C45	C	0.089642	0.106250	0.000140
C46	C	0.171344	0.062940	0.000137
C47	C	0.202631	0.019117	0.000143
C48	C	0.183504	-0.025217	0.000159
C49	C	0.133092	-0.025728	0.000160
C50	C	0.108770	0.150585	0.000125
C51	C	0.159183	0.151092	0.000123
C52	C	0.190470	0.107270	0.000129
C53	C	0.574712	-0.026481	0.000149
C54	C	0.574159	-0.080136	0.000156
C55	C	0.614862	-0.418948	0.000122
C56	C	0.612811	-0.620608	0.000109
O57	O	0.650032	-0.651862	0.000081
N58	N	0.568476	-0.639735	0.000098
C59	C	0.524651	-0.608442	0.000085
O60	O	0.486895	-0.629338	0.000066
C61	C	0.526703	-0.406784	0.000091
C62	C	0.571040	-0.387660	0.000111
C63	C	0.659196	-0.399824	0.000141
C64	C	0.659709	-0.349412	0.000149
C65	C	0.615887	-0.318124	0.000138
C66	C	0.571553	-0.337248	0.000119
C67	C	0.482878	-0.375493	0.000071
C68	C	0.483395	-0.325075	0.000071
C69	C	0.527733	-0.305952	0.000091
C70	C	0.528243	-0.255548	0.000116
N71	N	0.572578	-0.236422	0.000127
C72	C	0.616400	-0.267710	0.000138
C73	C	0.523577	-0.714317	0.000083
C74	C	0.523064	-0.764731	0.000083
C75	C	0.611225	-0.776893	0.000106
C76	C	0.611737	-0.726478	0.000112
C77	C	0.567912	-0.695190	0.000094
C78	C	0.617472	-0.161841	0.000156
C79	C	0.617981	-0.111424	0.000167
C80	C	0.529821	-0.099266	0.000140
C81	C	0.529312	-0.149679	0.000133
C82	C	0.573142	-0.180965	0.000138
O83	O	0.491043	-0.224267	0.000135
O84	O	0.654151	-0.246805	0.000137
C85	C	0.614350	-0.469360	0.000114
C86	C	0.570016	-0.488484	0.000095
C87	C	0.526194	-0.457196	0.000084
C88	C	0.569503	-0.538899	0.000095
C89	C	0.613325	-0.570187	0.000106
C90	C	0.657660	-0.551060	0.000117
C91	C	0.658172	-0.500648	0.000125
C92	C	0.481859	-0.476323	0.000073
C93	C	0.481351	-0.526735	0.000066
C94	C	0.525172	-0.558023	0.000077
C95	C	0.658925	0.057739	0.000150
C96	C	0.712580	0.058295	0.000158
C97	C	0.566333	0.150326	0.000107
C98	C	0.566886	0.203981	0.000094
N99	N	0.570518	0.061921	0.228304
N100	N	0.570531	0.061921	-0.228046
C101	C	0.603637	0.028826	0.454043
C102	C	0.603639	0.028825	0.546232
C103	C	0.537408	0.095017	0.546209
C104	C	0.537405	0.095016	0.454021
C105	C	0.570522	0.061920	0.407940
C106	C	0.570527	0.061921	0.592318
C107	C	0.570528	0.061920	0.692274
C108	C	0.570520	0.061921	0.307978
H109	H	-0.180248	-0.020712	0.000177
H110	H	0.083300	0.186271	0.000121
C111	C	0.501401	0.130971	0.596082
C112	C	0.472389	0.159944	0.535973
C113	C	0.439209	0.193066	0.581881
H114	H	0.518581	0.151022	0.632042
H115	H	0.481386	0.113731	0.632031
H116	H	0.492402	0.177182	0.500039
H117	H	0.455199	0.139906	0.500011
H118	H	0.419194	0.175826	0.617830
H119	H	0.456393	0.213114	0.617840
H120	H	0.419518	0.212725	0.541104
H121	H	0.447706	-0.299603	0.000055
C122	C	0.481125	-0.170350	0.000068
C123	C	0.442858	-0.132156	0.000041
C124	C	0.398461	-0.151176	-0.000042
H125	H	0.479018	-0.189766	0.051118
H126	H	0.479070	-0.189740	-0.051034
H127	H	0.444912	-0.112775	0.051138
H128	H	0.444949	-0.112737	-0.051006
H129	H	0.396406	-0.170566	-0.051145
H130	H	0.396359	-0.170592	0.051009
H131	H	0.372491	-0.125265	-0.000069
H132	H	0.412744	0.145477	0.000068
H133	H	0.487888	-0.688846	0.000068
H134	H	0.446173	-0.450852	0.000062
C135	C	0.434689	-0.396152	-0.000000
C136	C	0.396428	-0.357952	-0.000039
C137	C	0.352026	-0.376963	-0.000118
H138	H	0.432577	-0.415563	0.051055
H139	H	0.432631	-0.415545	-0.051098
H140	H	0.398484	-0.338567	0.051054
H141	H	0.398523	-0.338538	-0.051090
H142	H	0.349968	-0.396356	-0.051215
H143	H	0.349919	-0.396374	0.050938
H144	H	0.326061	-0.351048	-0.000152
C145	C	0.501473	0.130898	0.403801
C146	C	0.508550	0.123803	0.313204
C147	C	0.475456	0.156841	0.266914
H148	H	0.506450	0.163145	0.418790
H149	H	0.469242	0.125867	0.418857
H150	H	0.540773	0.128838	0.298154
H151	H	0.503569	0.091562	0.298189
H152	H	0.443226	0.151810	0.281970
H153	H	0.480436	0.189087	0.281910
H154	H	0.480251	0.152029	0.205440
H155	H	0.630602	0.001877	0.416526
C156	C	0.028716	0.197696	-0.000056
C157	C	0.057282	0.200580	-0.075425
C158	C	0.076419	0.244916	-0.075651
H159	H	0.048167	0.199785	0.050951
H160	H	0.002865	0.223728	-0.000106
H161	H	0.083129	0.174556	-0.075366
H162	H	0.037841	0.198500	-0.126444
H163	H	0.050568	0.270947	-0.075702
H164	H	0.095868	0.247001	-0.024641
H165	H	0.095799	0.246880	-0.126792
C166	C	0.666171	-0.090756	0.000140
C167	C	0.704437	-0.128952	0.000121
C168	C	0.748835	-0.109933	0.000082
H169	H	0.668274	-0.071357	0.051202
H170	H	0.668232	-0.071351	-0.050951
H171	H	0.702377	-0.148349	0.051206
H172	H	0.702351	-0.148355	-0.050937
H173	H	0.750896	-0.090528	-0.051009
H174	H	0.750932	-0.090534	0.051144
H175	H	0.774804	-0.135845	0.000061
H176	H	-0.271701	-0.021634	0.000167
C177	C	0.639571	-0.007183	0.596174
C178	C	0.632097	-0.054632	0.573743
C179	C	0.665194	-0.087817	0.619722
H180	H	0.634866	-0.002513	0.657691
H181	H	0.671800	-0.002183	0.581046
H182	H	0.599876	-0.059630	0.588877
H183	H	0.636807	-0.059317	0.512234
H184	H	0.697424	-0.082816	0.604595
H185	H	0.660486	-0.083142	0.681237
H186	H	0.660131	-0.120014	0.604504
H187	H	0.057737	-0.062438	0.000170
C188	C	-0.038810	-0.075450	0.000228
C189	C	-0.000612	-0.113713	0.000260
C190	C	-0.019626	-0.158113	0.000338
H191	H	-0.058221	-0.077557	-0.050825
H192	H	-0.058204	-0.077509	0.051327
H193	H	0.018774	-0.111654	-0.050833
H194	H	0.018802	-0.111622	0.051310
H195	H	-0.039020	-0.160173	0.051437
H196	H	-0.039037	-0.160215	-0.050717
H197	H	0.006288	-0.184080	0.000368
H198	H	0.434821	-0.014469	0.000108
C199	C	0.338134	-0.027422	-0.000059
C200	C	0.309548	-0.030298	-0.075412
C201	C	0.290398	-0.074626	-0.075600
H202	H	0.318693	-0.029506	0.050959
H203	H	0.363979	-0.053459	-0.000106
H204	H	0.283707	-0.004267	-0.075356
H205	H	0.328978	-0.028222	-0.126442
H206	H	0.316243	-0.100664	-0.075647
H207	H	0.270960	-0.076706	-0.024579
H208	H	0.271005	-0.076585	-0.126730
H209	H	0.646906	-0.802377	0.000115
C210	C	0.312879	0.156499	0.000044
C211	C	0.340427	0.195429	0.000003
C212	C	0.309231	0.239320	-0.000060
H213	H	0.292952	0.158205	0.051105
H214	H	0.292962	0.158161	-0.051048
H215	H	0.360335	0.193767	0.051089
H216	H	0.360353	0.193739	-0.051054
H217	H	0.289314	0.240982	-0.051152
H218	H	0.289306	0.241021	0.051002
H219	H	0.327918	0.265739	-0.000096
H220	H	-0.067950	0.184742	0.000159
C221	C	-0.197203	0.151326	0.000176
C222	C	-0.235396	0.189594	0.000187
C223	C	-0.216375	0.233991	0.000234
H224	H	-0.177797	0.153430	-0.050881
H225	H	-0.177803	0.153384	0.051271
H226	H	-0.254788	0.187538	-0.050904
H227	H	-0.254806	0.187507	0.051240
H228	H	-0.196975	0.236048	0.051329
H229	H	-0.196970	0.236089	-0.050824
H230	H	-0.242286	0.259961	0.000250
C231	C	0.112426	-0.073917	0.000218
C232	C	0.150625	-0.112179	0.000247
C233	C	0.131610	-0.156580	0.000314
H234	H	0.093017	-0.076021	-0.050838
H235	H	0.093032	-0.075979	0.051315
H236	H	0.170011	-0.110118	-0.050845
H237	H	0.170037	-0.110091	0.051299
H238	H	0.112216	-0.158642	0.051411
H239	H	0.112201	-0.158679	-0.050743
H240	H	0.157525	-0.182546	0.000342
H241	H	0.494142	-0.073782	0.000134
C242	C	0.179873	0.199271	-0.000025
C243	C	0.163922	0.225748	-0.075365
C244	C	0.182963	0.270134	-0.075517
H245	H	0.214377	0.193376	-0.000068
H246	H	0.169096	0.217319	0.051020
H247	H	0.174702	0.207703	-0.126396
H248	H	0.129420	0.231655	-0.075337
H249	H	0.172186	0.288182	-0.024472
H250	H	0.217467	0.264234	-0.075558
H251	H	0.172140	0.288105	-0.126630
H252	H	0.695813	-0.333847	0.000162
C253	C	0.665043	-0.195828	-0.000015
C254	C	0.667341	-0.225110	-0.075377
C255	C	0.711159	-0.256420	-0.075563
H256	H	0.666723	-0.215798	0.050997
H257	H	0.691531	-0.177229	-0.000048
H258	H	0.640861	-0.243707	-0.075335
H259	H	0.665671	-0.205152	-0.126401
H260	H	0.737647	-0.237821	-0.075597
H261	H	0.712834	-0.276387	-0.024548
H262	H	0.712726	-0.276288	-0.126699
C263	C	0.706743	-0.433847	0.000292
C264	C	0.709019	-0.463159	0.075632
C265	C	0.752811	-0.494507	0.075802
H266	H	0.733256	-0.415292	0.000347
H267	H	0.708386	-0.453792	-0.050753
H268	H	0.707380	-0.443216	0.126664
H269	H	0.682515	-0.481724	0.075593
H270	H	0.754455	-0.514452	0.024757
H271	H	0.779321	-0.475948	0.075855
H272	H	0.754359	-0.514402	0.126914
C273	C	0.659840	-0.705651	-0.000012
C274	C	0.662709	-0.677050	-0.075352
C275	C	0.707013	-0.657854	-0.075493
H276	H	0.685904	-0.731459	-0.000050
H277	H	0.661877	-0.686212	0.051033
H278	H	0.660676	-0.696487	-0.126384
H279	H	0.636655	-0.651234	-0.075331
H280	H	0.709051	-0.638415	-0.024448
H281	H	0.733074	-0.683665	-0.075528
H282	H	0.708964	-0.638442	-0.126606
H283	H	-0.293772	0.138311	0.000139
H284	H	0.208987	-0.060899	0.000158
H285	H	0.486960	-0.780296	0.000082
H286	H	0.445243	-0.542300	0.000058
H287	H	0.693341	-0.576544	0.000130
H288	H	0.694276	-0.485083	0.000141
