data_functionalizedCrystal
_audit_creation_method	'MofGen! by Chris Wilmer'
_symmetry_space_group_name_H-M	'P1'
_symmetry_Int_Tables_number	1
_symmetry_cell_setting	triclinic
loop_
_symmetry_equiv_pos_as_xyz
  x,y,z
_cell_length_a	14.519709
_cell_length_b	19.288840
_cell_length_c	18.366186
_cell_angle_alpha	89.983729
_cell_angle_beta	90.000036
_cell_angle_gamma	96.596919
loop_
_atom_site_label
_atom_site_type_symbol
_atom_site_fract_x
_atom_site_fract_y
_atom_site_fract_z
O1	O	-0.114935	0.921777	-0.060662
O2	O	-0.130478	0.719570	-0.060635
O3	O	0.011567	0.826035	-0.060656
O4	O	-0.256980	0.815313	-0.060641
O5	O	0.011573	0.826017	0.060444
O6	O	-0.130471	0.719552	0.060464
O7	O	-0.114928	0.921759	0.060438
Zn8	Zn	-0.122699	0.820653	0.079678
Zn9	Zn	-0.122708	0.820677	-0.079875
O10	O	-0.256973	0.815294	0.060458
C11	C	-0.129979	0.693683	-0.000082
C12	C	-0.128489	0.616573	-0.000072
C13	C	-0.127777	0.580377	-0.066086
C14	C	-0.126367	0.507925	-0.066095
C15	C	-0.125650	0.471673	-0.000087
C16	C	-0.126367	0.507878	0.065935
C17	C	-0.127787	0.580328	0.065942
C18	C	-0.069381	0.362136	0.050471
C19	C	-0.067956	0.289688	0.050462
C20	C	-0.121276	0.248214	-0.000106
C21	C	-0.176010	0.279198	-0.050676
C22	C	-0.177429	0.351648	-0.050669
C23	C	-0.124112	0.393114	-0.000087
C24	C	-0.119037	0.133457	-0.066133
C25	C	-0.117633	0.061003	-0.066140
C26	C	-0.117624	0.060959	0.065892
C27	C	-0.119037	0.133410	0.065896
C28	C	-0.119740	0.169655	-0.000118
C29	C	-0.291333	0.815803	-0.000090
C30	C	-0.393704	0.817301	-0.000085
C31	C	-0.768565	0.822813	-0.000115
C32	C	-0.664266	0.821283	-0.000106
C33	C	-0.581138	0.820057	-0.000099
C34	C	-0.476833	0.818526	-0.000092
C35	C	0.045927	0.825526	-0.000109
C36	C	0.148298	0.824029	-0.000119
C37	C	-0.115428	0.947647	-0.000117
C38	C	-0.116917	1.024757	-0.000131
N39	N	-0.122692	0.820642	0.188569
N40	N	-0.122707	0.820693	-0.188767
C41	C	-0.059825	0.867800	0.226661
C42	C	-0.059821	0.867804	0.302889
C43	C	-0.122699	0.820657	0.341022
C44	C	-0.185571	0.773490	0.302922
C45	C	-0.185567	0.773482	0.226695
C46	C	-0.206729	0.811661	0.461788
C47	C	-0.206734	0.811674	0.538013
C48	C	-0.122711	0.820677	0.576130
C49	C	-0.038679	0.829682	0.538012
C50	C	-0.038675	0.829674	0.461786
C51	C	-0.122710	0.820660	0.423677
C52	C	-0.059835	0.867842	0.696876
C53	C	-0.059829	0.867842	0.773105
C54	C	-0.185587	0.773531	0.773137
C55	C	-0.185584	0.773528	0.696909
C56	C	-0.122709	0.820687	0.658783
H57	H	-0.128349	0.609883	-0.119840
H58	H	-0.236780	0.735140	0.804185
Br59	Br	-0.248380	0.222921	-0.119307
H60	H	-0.119618	0.162968	-0.119887
H61	H	0.029740	0.837013	0.569045
Br62	Br	0.025506	0.931797	0.174918
H63	H	-0.119611	0.162882	0.119652
Br64	Br	-0.116678	0.011877	-0.155737
Br65	Br	0.025507	0.931809	0.354593
Br66	Br	-0.125403	0.458790	-0.155690
H67	H	-0.221997	0.376872	-0.091843
Br68	Br	-0.128755	0.629454	0.155539
H69	H	-0.117046	0.031443	0.119637
Br70	Br	-0.270910	0.709527	0.645208
Br71	Br	0.075361	0.841889	0.410057
Br72	Br	-0.270891	0.709476	0.174995
H73	H	-0.275155	0.804318	0.430759
Br74	Br	0.025504	0.931841	0.824805
Br75	Br	-0.320774	0.799460	0.589736
Br76	Br	-0.270901	0.709499	0.354671
Br77	Br	0.002984	0.418414	0.119108
Br78	Br	0.006300	0.247643	0.119105
Br79	Br	0.025498	0.931841	0.645132
Br80	Br	-0.125405	0.458681	0.155518
