data_functionalizedCrystal
_audit_creation_method	'MofGen! by Chris Wilmer'
_symmetry_space_group_name_H-M	'P1'
_symmetry_Int_Tables_number	1
_symmetry_cell_setting	triclinic
loop_
_symmetry_equiv_pos_as_xyz
  x,y,z
_cell_length_a	26.210047
_cell_length_b	16.992694
_cell_length_c	16.974813
_cell_angle_alpha	92.975366
_cell_angle_beta	86.349936
_cell_angle_gamma	90.003955
loop_
_atom_site_label
_atom_site_type_symbol
_atom_site_fract_x
_atom_site_fract_y
_atom_site_fract_z
O1	O	-0.049286	-1.040218	0.167637
O2	O	-0.049225	-0.811935	0.165797
O3	O	-0.044516	-0.932440	0.052017
O4	O	-0.053994	-0.919713	0.281417
O5	O	0.040341	-0.932416	0.052034
O6	O	0.035633	-0.811912	0.165815
O7	O	0.035572	-1.040195	0.167654
Cu8	Cu	0.043350	-0.926051	0.166736
Cu9	Cu	-0.057003	-0.926079	0.166715
O10	O	0.030864	-0.919690	0.281435
C11	C	-0.006700	-0.782713	0.163440
C12	C	-0.006414	-0.695677	0.156381
N13	N	0.113934	-0.926038	0.166750
N14	N	-0.127586	-0.926099	0.166695
C15	C	0.468534	-0.979433	0.116345
C16	C	0.682193	-0.979450	0.116335
O17	O	0.711588	-1.024818	0.073480
N18	N	0.706830	-0.926083	0.166698
C19	C	0.678049	-0.872704	0.217064
O20	O	0.703907	-0.827307	0.259894
C21	C	0.464391	-0.872684	0.217069
C22	C	0.439757	-0.926060	0.166708
C23	C	0.443899	-1.032804	0.065988
C24	C	0.390487	-1.032802	0.065994
C25	C	0.361710	-0.979429	0.116357
C26	C	0.386345	-0.926058	0.166714
C27	C	0.435612	-0.819302	0.267430
C28	C	0.382194	-0.819300	0.267425
C29	C	0.357559	-0.872676	0.217065
C30	C	0.304156	-0.872683	0.217084
N31	N	0.279519	-0.926050	0.166721
C32	C	0.308296	-0.979423	0.116357
C33	C	0.790223	-0.872720	0.217058
C34	C	0.843637	-0.872726	0.217058
C35	C	0.847777	-0.979471	0.116329
C36	C	0.794361	-0.979468	0.116333
C37	C	0.765585	-0.926087	0.166696
C38	C	0.196127	-0.979415	0.116374
C39	C	0.142711	-0.979411	0.116387
C40	C	0.138576	-0.872663	0.217114
C41	C	0.191987	-0.872670	0.217104
C42	C	0.220762	-0.926049	0.166728
O43	O	0.274729	-0.827332	0.259910
O44	O	0.282429	-1.024802	0.073521
C45	C	0.521945	-0.979435	0.116339
C46	C	0.546580	-0.926064	0.166696
C47	C	0.517803	-0.872691	0.217059
C48	C	0.599994	-0.926070	0.166696
C49	C	0.628771	-0.979443	0.116333
C50	C	0.604134	-1.032810	0.065970
C51	C	0.550722	-1.032808	0.065976
C52	C	0.542440	-0.819324	0.267422
C53	C	0.595852	-0.819330	0.267413
C54	C	0.624629	-0.872704	0.217050
C55	C	-0.000871	-0.931944	0.022537
C56	C	0.002756	-0.930491	-0.065331
C57	C	-0.006954	-1.069417	0.170011
C58	C	-0.007243	-1.156453	0.177071
C59	C	-0.009228	-0.645363	0.224495
C60	C	-0.008947	-0.563584	0.217858
C61	C	-0.005855	-0.532119	0.143104
C62	C	-0.003040	-0.582439	0.074984
C63	C	-0.003318	-0.664217	0.081623
C64	C	-0.004705	-0.288551	0.115590
C65	C	-0.004429	-0.206767	0.108956
C66	C	-0.010335	-0.187917	0.251830
C67	C	-0.010616	-0.269697	0.258462
C68	C	-0.007797	-0.320010	0.190342
N69	N	-0.005569	-0.448528	0.136317
N70	N	-0.008080	-0.403600	0.197130
C71	C	-0.041796	-0.929823	-0.106616
C72	C	-0.038387	-0.928453	-0.189177
C73	C	0.009575	-0.927756	-0.230451
C74	C	0.054130	-0.928422	-0.189160
C75	C	0.050720	-0.929787	-0.106600
C76	C	0.024732	-0.923669	-0.477367
C77	C	0.028138	-0.922307	-0.559932
C78	C	-0.064378	-0.922336	-0.559944
C79	C	-0.067784	-0.923705	-0.477383
C80	C	-0.023229	-0.924367	-0.436098
N81	N	0.013061	-0.926359	-0.314842
N82	N	-0.026715	-0.925759	-0.351709
C83	C	-0.012783	-0.920186	0.310915
C84	C	-0.016413	-0.921639	0.398782
H85	H	0.219550	-1.022880	0.075353
C86	C	0.462698	-0.760594	0.322834
H87	H	0.437902	-0.728808	0.352820
H88	H	0.482100	-0.788760	0.357549
H89	H	0.484796	-0.727983	0.292314
H90	H	-0.106839	-0.924274	-0.443783
C91	C	-0.113385	-0.921618	-0.605355
H92	H	-0.142437	-0.922238	-0.568949
H93	H	-0.114119	-0.875393	-0.634428
H94	H	-0.113840	-0.966797	-0.640696
H95	H	0.519014	-0.775860	0.308433
C96	C	0.106915	-0.813952	0.272503
H97	H	0.071576	-0.821593	0.265281
H98	H	0.113466	-0.822395	0.325817
H99	H	0.116164	-0.761638	0.260564
C100	C	0.870731	-0.814021	0.272461
H101	H	0.906665	-0.821667	0.265257
H102	H	0.862471	-0.761707	0.260537
H103	H	0.859777	-0.822481	0.325774
C104	C	0.523631	-1.091516	0.010573
H105	H	0.548426	-1.123294	-0.019423
H106	H	0.501533	-1.124124	0.041090
H107	H	0.504229	-1.063346	-0.024144
H108	H	-0.000516	-0.556814	0.014118
C109	C	0.350543	-0.760583	0.322829
H110	H	0.372868	-0.728804	0.352822
H111	H	0.330964	-0.727978	0.292311
H112	H	0.328276	-0.788751	0.357548
C113	C	-0.000228	-0.719562	0.006696
H114	H	0.001648	-0.689112	-0.038775
H115	H	0.029377	-0.751857	0.006320
H116	H	-0.029810	-0.751853	0.006313
C117	C	-0.012044	-0.508242	0.292784
H118	H	-0.013931	-0.538694	0.338255
H119	H	0.017534	-0.475949	0.293176
H120	H	-0.041653	-0.475949	0.293155
H121	H	-0.013139	-0.295309	0.319335
C122	C	-0.012629	-0.679967	0.306725
H123	H	-0.014260	-0.638287	0.346340
H124	H	-0.042451	-0.711478	0.312280
H125	H	0.016736	-0.711475	0.312290
C126	C	-0.094552	-0.930592	-0.061218
H127	H	-0.090204	-0.931508	-0.006136
H128	H	-0.113134	-0.884675	-0.071610
H129	H	-0.112865	-0.976079	-0.077896
H130	H	-0.012628	-0.146944	0.307290
C131	C	0.758575	-0.814003	0.272467
H132	H	0.780902	-0.782231	0.302463
H133	H	0.738998	-0.781391	0.241954
H134	H	0.736307	-0.842172	0.307184
H135	H	-0.001912	-0.181152	0.048080
H136	H	-0.074665	-0.927912	-0.222788
H137	H	-0.002410	-0.329506	0.060121
C138	C	0.080898	-0.921532	-0.605332
H139	H	0.106945	-0.922113	-0.568920
H140	H	0.084287	-0.966698	-0.640680
H141	H	0.084012	-0.875294	-0.634396
C142	C	0.106886	-0.927659	-0.234559
H143	H	0.102537	-0.926760	-0.289643
H144	H	0.125203	-0.882179	-0.217887
H145	H	0.125464	-0.973583	-0.224165
C146	C	0.622947	-0.760615	0.322813
H147	H	0.658881	-0.768257	0.315605
H148	H	0.614683	-0.708303	0.310886
H149	H	0.611996	-0.769072	0.376128
H150	H	0.086999	-0.930320	-0.072986
C151	C	0.115616	-1.038123	0.060985
H152	H	0.140408	-1.069903	0.030985
H153	H	0.093519	-1.070728	0.091506
H154	H	0.096212	-1.009951	0.026271
C155	C	0.363396	-1.091507	0.010587
H156	H	0.388191	-1.123284	-0.019410
H157	H	0.341297	-1.124116	0.041101
H158	H	0.343996	-1.063333	-0.024128
H159	H	0.061012	-0.924223	-0.443764
H160	H	0.467325	-1.076267	0.024973
H161	H	0.212045	-0.829214	0.258120
H162	H	0.774307	-1.022931	0.075325
H163	H	0.627573	-1.076271	0.024965
C164	C	0.879438	-1.038173	0.060924
H165	H	0.914777	-1.030523	0.068136
H166	H	0.870194	-1.090492	0.072834
H167	H	0.872884	-1.029703	0.007612
