data_functionalizedCrystal
_audit_creation_method	'MofGen! by Chris Wilmer'
_symmetry_space_group_name_H-M	'P1'
_symmetry_Int_Tables_number	1
_symmetry_cell_setting	triclinic
loop_
_symmetry_equiv_pos_as_xyz
  x,y,z
_cell_length_a	16.120297
_cell_length_b	12.759401
_cell_length_c	12.759400
_cell_angle_alpha	89.982372
_cell_angle_beta	87.124600
_cell_angle_gamma	92.881900
loop_
_atom_site_label
_atom_site_type_symbol
_atom_site_fract_x
_atom_site_fract_y
_atom_site_fract_z
Zn1	Zn	-0.471320	1.576122	0.448329
Zn2	Zn	0.028680	2.076122	0.948329
Zn3	Zn	-0.331915	1.584929	0.615114
Zn4	Zn	0.168085	2.084929	1.115114
Zn5	Zn	-0.331932	1.409336	0.439459
Zn6	Zn	0.168068	1.909336	0.939459
Zn7	Zn	-0.471291	1.400415	0.623974
Zn8	Zn	0.028709	1.900415	1.123974
O9	O	-0.401615	1.492700	0.531719
O10	O	0.098385	1.992700	1.031719
O11	O	-0.452833	1.724311	0.470458
O12	O	0.047167	2.224311	0.970458
O13	O	-0.215254	1.569056	0.584392
O14	O	0.284746	2.069056	1.084392
O15	O	-0.350441	1.431508	0.293616
O16	O	0.149559	1.931508	0.793616
O17	O	-0.350413	1.730782	0.592993
O18	O	0.149587	2.230782	1.092993
O19	O	-0.452849	1.554045	0.300133
O20	O	0.047151	2.054045	0.800133
O21	O	-0.215266	1.440048	0.455340
O22	O	0.284734	1.940048	0.955340
O23	O	-0.350413	1.261132	0.463932
O24	O	0.149587	1.761132	0.963932
O25	O	-0.587958	1.416303	0.608095
O26	O	-0.087958	1.916303	1.108095
O27	O	-0.452800	1.254577	0.599494
O28	O	0.047200	1.754577	1.099494
O29	O	-0.587980	1.545395	0.479049
O30	O	-0.087980	2.045395	0.979049
O31	O	-0.350385	1.560405	0.763309
O32	O	0.149615	2.060405	1.263309
O33	O	-0.452783	1.424843	0.769819
O34	O	0.047217	1.924843	1.269819
C35	C	-0.401606	1.219734	0.531712
C36	C	0.098394	1.719734	1.031712
C37	C	-0.401621	1.102956	0.531736
C38	C	0.098379	1.602956	1.031736
C39	C	-0.619064	1.478871	0.545550
C40	C	-0.119064	1.978871	1.045550
C41	C	-0.711728	1.472978	0.551444
C42	C	-0.211728	1.972978	1.051444
C43	C	-0.401597	1.492639	0.804685
C44	C	0.098403	1.992639	1.304685
C45	C	-0.401618	1.492707	0.921463
C46	C	0.098382	1.992707	1.421463
C47	C	-0.881387	1.462181	0.562181
C48	C	-0.381387	1.962181	1.062181
C49	C	-0.922694	1.523427	0.500943
C50	C	-0.422694	2.023427	1.000943
C51	C	-1.017098	1.517419	0.506917
C52	C	-0.517098	2.017419	1.006917
C53	C	-0.786975	1.468187	0.556208
C54	C	-0.286975	1.968187	1.056208
C55	C	-0.185011	1.506536	0.517866
C56	C	0.314989	2.006536	1.017866
C57	C	-0.092347	1.512632	0.511677
C58	C	0.407653	2.012632	1.011677
C59	C	-0.401624	1.766733	0.531727
C60	C	0.098376	2.266733	1.031727
C61	C	-0.401628	1.883509	0.531730
C62	C	0.098372	2.383509	1.031730
C63	C	-0.454948	1.935005	0.467931
C64	C	0.045052	2.435005	0.967931
C65	C	-0.454947	2.044729	0.467937
C66	C	0.045053	2.544729	0.967937
C67	C	-0.348299	2.051453	0.595542
C68	C	0.151701	2.551453	1.095542
C69	C	-0.348305	1.941731	0.595542
C70	C	0.151695	2.441731	1.095542
C71	C	-0.508271	1.876783	0.404119
C72	C	-0.008271	2.376783	0.904119
C73	C	-0.561594	1.928278	0.340314
C74	C	-0.061594	2.428278	0.840314
C75	C	-0.561593	2.038002	0.340320
C76	C	-0.061593	2.538002	0.840320
C77	C	-0.508269	2.096231	0.404130
C78	C	-0.008269	2.596231	0.904130
C79	C	-0.401650	1.492789	0.257688
C80	C	0.098350	1.992789	0.757688
C81	C	-0.401665	1.492827	0.140912
C82	C	0.098335	1.992827	0.640912
C83	C	-0.348358	1.563365	0.972905
C84	C	0.151642	2.063365	1.472905
C85	C	-0.348383	1.563428	1.082630
C86	C	0.151617	2.063428	1.582630
C87	C	-0.454931	1.422166	1.089464
C88	C	0.045069	1.922166	1.589464
C89	C	-0.454909	1.422109	0.979740
C90	C	0.045091	1.922109	1.479740
C91	C	-0.295066	1.633964	0.914628
C92	C	0.204934	2.133964	1.414628
C93	C	-0.241801	1.704626	0.966069
C94	C	0.258199	2.204626	1.466069
C95	C	-0.241827	1.704689	1.075794
C96	C	0.258173	2.204689	1.575794
C97	C	-0.295117	1.634089	1.134079
C98	C	0.204883	2.134089	1.634079
H99	H	-0.887159	1.580373	0.444027
H100	H	-0.387159	2.080373	0.944027
N101	N	-0.293828	2.110947	0.660696
N102	N	0.206172	2.610947	1.160696
N103	N	-0.240707	2.175556	0.620346
N104	N	0.259293	2.675556	1.120346
H105	H	-0.202233	2.217575	0.666358
H106	H	0.297767	2.717575	1.166358
H107	H	-0.916920	1.405239	0.619092
H108	H	-0.416920	1.905239	1.119092
N109	N	-0.187371	1.776754	0.906554
N110	N	0.312629	2.276754	1.406554
N111	N	-0.192966	1.873345	0.919077
N112	N	0.307034	2.373345	1.419077
H113	H	-0.154524	1.924289	0.877047
H114	H	0.345476	2.424289	1.377047
N115	N	-0.295061	1.633885	0.802548
N116	N	0.204939	2.133885	1.302548
N117	N	-0.277588	1.553029	0.752539
N118	N	0.222412	2.053029	1.252539
H119	H	-0.277590	1.552970	0.673383
H120	H	0.222410	2.052970	1.173383
H121	H	-0.198462	1.762233	1.117675
H122	H	0.301538	2.262233	1.617675
H123	H	-0.605013	1.880861	0.288368
H124	H	-0.105013	2.380861	0.788368
H125	H	-0.508274	1.787440	0.404103
H126	H	-0.008274	2.287440	0.904103
N127	N	-0.509344	1.350033	1.148997
N128	N	-0.009344	1.850033	1.648997
N129	N	-0.503740	1.253443	1.136471
N130	N	-0.003740	1.753443	1.636471
H131	H	-0.542166	1.202493	1.178515
H132	H	-0.042166	1.702493	1.678515
H133	H	-0.605017	2.079926	0.288374
H134	H	-0.105017	2.579926	0.788374
H135	H	-0.295141	1.634154	1.223425
H136	H	0.204859	2.134154	1.723425
N137	N	-0.508285	2.208311	0.404134
N138	N	-0.008285	2.708311	0.904134
N139	N	-0.555900	2.254279	0.347170
N140	N	-0.055900	2.754279	0.847170
H141	H	-0.555911	2.333435	0.347168
H142	H	-0.055911	2.833435	0.847168
N143	N	-0.293839	1.889139	0.660719
N144	N	0.206161	2.389139	1.160719
N145	N	-0.246229	1.941132	0.717682
N146	N	0.253771	2.441132	1.217682
H147	H	-0.207763	1.903989	0.763718
H148	H	0.292237	2.403989	1.263718
N149	N	-0.509323	1.349934	0.927204
N150	N	-0.009323	1.849934	1.427204
N151	N	-0.556897	1.286903	0.979246
N152	N	-0.056897	1.786903	1.479246
H153	H	-0.595331	1.235931	0.942143
H154	H	-0.095331	1.735931	1.442143
