data_functionalizedCrystal
_audit_creation_method	'MofGen! by Chris Wilmer'
_symmetry_space_group_name_H-M	'P1'
_symmetry_Int_Tables_number	1
_symmetry_cell_setting	triclinic
loop_
_symmetry_equiv_pos_as_xyz
  x,y,z
_cell_length_a	18.101398
_cell_length_b	12.759399
_cell_length_c	18.101389
_cell_angle_alpha	90.015375
_cell_angle_beta	89.975673
_cell_angle_gamma	89.989617
loop_
_atom_site_label
_atom_site_type_symbol
_atom_site_fract_x
_atom_site_fract_y
_atom_site_fract_z
Zn1	Zn	1.132203	0.418509	-0.418854
Zn2	Zn	1.132134	0.594177	-0.295019
Zn3	Zn	1.008362	0.418498	-0.295016
Zn4	Zn	1.008348	0.594132	-0.418808
O5	O	1.070262	0.506329	-0.356924
O6	O	1.235827	0.441835	-0.402448
O7	O	1.115692	0.570887	-0.191386
O8	O	1.024825	0.271479	-0.311461
O9	O	1.235776	0.570898	-0.311467
O10	O	1.115811	0.271487	-0.402445
O11	O	1.024758	0.441817	-0.191383
O12	O	0.904727	0.441773	-0.311416
O13	O	1.024800	0.570821	-0.522447
O14	O	0.904717	0.570810	-0.402366
O15	O	1.115797	0.441792	-0.522481
O16	O	1.115678	0.741192	-0.311423
O17	O	1.024733	0.741159	-0.402369
C18	C	0.877851	0.506286	-0.356886
C19	C	0.795537	0.506294	-0.356887
C20	C	1.070216	0.779297	-0.356908
C21	C	1.070265	0.896073	-0.356925
C22	C	1.070305	0.506303	-0.550086
C23	C	1.070323	0.506291	-0.632401
C24	C	0.496446	0.506359	-0.356949
C25	C	0.527753	0.424767	-0.300005
C26	C	0.613372	0.424985	-0.299762
C27	C	0.644829	0.506326	-0.356918
C28	C	0.613732	0.616993	-0.335598
C29	C	0.528087	0.616540	-0.335202
C30	C	0.528055	0.478246	-0.435347
C31	C	0.613706	0.475782	-0.434919
C32	C	0.728688	0.506314	-0.356902
C33	C	0.412587	0.506379	-0.356963
C34	C	1.263424	0.506373	-0.356964
C35	C	1.345738	0.506391	-0.356980
C36	C	1.070327	0.232296	-0.356958
C37	C	1.070355	0.115519	-0.356972
C38	C	1.117674	0.950917	-0.309623
C39	C	1.117721	1.060641	-0.309648
C40	C	1.022944	1.060667	-0.404279
C41	C	1.022901	0.950945	-0.404257
C42	C	1.205135	1.210520	-0.283305
C43	C	1.252538	1.265368	-0.235991
C44	C	1.263935	1.229802	-0.163734
C45	C	1.227919	1.139389	-0.138777
C46	C	1.180511	1.084546	-0.186087
C47	C	1.169128	1.120111	-0.258354
C48	C	0.935486	0.801064	-0.430593
C49	C	0.888074	0.746220	-0.477899
C50	C	0.876669	0.781785	-0.550157
C51	C	0.912672	0.872201	-0.575112
C52	C	0.960084	0.927045	-0.527805
C53	C	0.971491	0.891473	-0.455548
C54	C	1.070366	0.506094	-0.931492
C55	C	1.012916	0.587018	-0.900145
C56	C	1.013072	0.587393	-0.814527
C57	C	1.070344	0.506192	-0.783109
C58	C	1.148375	0.536254	-0.814216
C59	C	1.148055	0.536786	-0.899861
C60	C	1.050463	0.394928	-0.899912
C61	C	1.048727	0.395570	-0.814261
C62	C	1.070336	0.506245	-0.699249
C63	C	1.070379	0.506043	-1.015351
C64	C	1.070262	0.506280	-0.164514
C65	C	1.070387	0.505995	-0.082200
H66	H	0.634396	0.342920	-0.313126
C67	C	0.948030	0.761935	-0.351104
N68	N	0.957473	0.732463	-0.291233
C69	C	0.971164	0.364918	-0.786762
N70	N	0.912749	0.341824	-0.766035
H71	H	1.192311	0.480403	-0.920599
C72	C	0.934507	0.561858	-0.927947
N73	N	0.875448	0.542906	-0.948894
H74	H	1.195867	1.239480	-0.342144
C75	C	0.499939	0.313559	-0.317856
N76	N	0.478983	0.229794	-0.331302
H77	H	1.025928	0.668915	-0.921674
C78	C	0.642661	0.649762	-0.259003
N79	N	0.664448	0.674436	-0.201309
H80	H	1.164925	0.618049	-0.919847
H81	H	1.237197	1.110444	-0.079936
C82	C	1.169779	0.890562	-0.257560
N83	N	1.209029	0.845105	-0.218347
C84	C	0.498635	0.449572	-0.221983
N85	N	0.476700	0.468258	-0.163217
C86	C	1.292150	1.364823	-0.263445
N87	N	1.321983	1.439736	-0.284120
C88	C	1.101118	0.309786	-0.785355
N89	N	1.140581	0.245174	-0.763579
C90	C	0.641012	0.450097	-0.221282
N91	N	0.661829	0.469015	-0.162168
H92	H	0.506468	0.398953	-0.454733
C93	C	0.999695	1.026501	-0.555261
N94	N	1.029531	1.101407	-0.575941
C95	C	1.030813	0.698717	-0.786857
N96	N	1.044162	0.782575	-0.766017
C97	C	1.207759	0.459137	-0.786723
N98	N	1.252487	0.401051	-0.766013
C99	C	0.500701	0.558527	-0.492667
N100	N	0.480094	0.618997	-0.535836
H101	H	1.151189	1.010933	-0.165768
H102	H	1.302533	1.274466	-0.125212
C103	C	0.900127	0.911325	-0.654600
N104	N	0.890675	0.940790	-0.714471
C105	C	0.824509	0.721452	-0.602193
N106	N	0.785226	0.676011	-0.641387
H107	H	0.984381	1.105357	-0.442814
C108	C	0.848462	0.646767	-0.450442
N109	N	0.818626	0.571860	-0.429762
C110	C	0.934902	0.561974	-0.786110
N111	N	0.876020	0.542832	-0.764710
C112	C	1.171559	0.644876	-0.785258
N113	N	1.189017	0.726693	-0.763449
C114	C	0.642631	0.550224	-0.495309
N115	N	0.664415	0.606305	-0.540793
H116	H	0.994550	0.367541	-0.921497
C117	C	1.106993	0.313477	-0.927298
N118	N	1.149574	0.252136	-0.947927
H119	H	0.507377	0.679390	-0.374869
H120	H	0.634109	0.679414	-0.375775
C121	C	0.501057	0.648739	-0.257772
N122	N	0.480701	0.672987	-0.199449
C123	C	0.641158	0.365754	-0.456635
N124	N	0.661837	0.282879	-0.472988
