data_functionalizedCrystal
_audit_creation_method	'MofGen! by Chris Wilmer'
_symmetry_space_group_name_H-M	'P1'
_symmetry_Int_Tables_number	1
_symmetry_cell_setting	triclinic
loop_
_symmetry_equiv_pos_as_xyz
  x,y,z
_cell_length_a	13.033291
_cell_length_b	25.639239
_cell_length_c	13.032268
_cell_angle_alpha	82.858909
_cell_angle_beta	90.920764
_cell_angle_gamma	97.208341
loop_
_atom_site_label
_atom_site_type_symbol
_atom_site_fract_x
_atom_site_fract_y
_atom_site_fract_z
Zn1	Zn	1.498345	-0.162668	0.781439
Zn2	Zn	1.831678	0.170665	1.114773
Zn3	Zn	2.165012	0.503999	1.448106
Zn4	Zn	1.520033	-0.237806	0.609447
Zn5	Zn	1.853367	0.095527	0.942780
Zn6	Zn	2.186700	0.428861	1.276114
Zn7	Zn	1.348207	-0.159907	0.587616
Zn8	Zn	1.681541	0.173426	0.920949
Zn9	Zn	2.014874	0.506760	1.254283
Zn10	Zn	1.326268	-0.259603	0.759482
Zn11	Zn	1.659602	0.073731	1.092815
Zn12	Zn	1.992935	0.407064	1.426149
O13	O	1.423214	-0.204996	0.684496
O14	O	1.756547	0.128337	1.017829
O15	O	2.089880	0.461671	1.351163
O16	O	1.645147	-0.164669	0.776950
O17	O	1.978480	0.168665	1.110283
O18	O	2.311813	0.501998	1.443617
O19	O	1.515499	-0.217195	0.462645
O20	O	1.848832	0.116138	0.795979
O21	O	2.182165	0.449471	1.129312
O22	O	1.368228	-0.087105	0.613380
O23	O	1.701561	0.246229	0.946713
O24	O	2.034895	0.579562	1.280046
O25	O	1.661081	-0.219872	0.650588
O26	O	1.994414	0.113461	0.983921
O27	O	2.327748	0.446794	1.317255
O28	O	1.478534	-0.089133	0.755781
O29	O	1.811867	0.244200	1.089114
O30	O	2.145200	0.577533	1.422448
O31	O	1.389259	-0.159963	0.446606
O32	O	1.722592	0.173370	0.779939
O33	O	2.055925	0.506704	1.113273
O34	O	1.201372	-0.181098	0.592089
O35	O	1.534706	0.152235	0.925422
O36	O	1.868039	0.485568	1.258755
O37	O	1.330837	-0.257021	0.906300
O38	O	1.664170	0.076312	1.239634
O39	O	1.997503	0.409645	1.572967
O40	O	1.185254	-0.254344	0.718358
O41	O	1.518587	0.078989	1.051691
O42	O	1.851921	0.412322	1.385024
O43	O	1.457260	-0.185804	0.922432
O44	O	1.790594	0.147529	1.255766
O45	O	2.123927	0.480863	1.589099
O46	O	1.494225	-0.313866	0.629297
O47	O	1.827559	0.019467	0.962630
O48	O	2.160892	0.352801	1.295963
O49	O	1.351867	-0.329880	0.739527
O50	O	1.685200	0.003454	1.072860
O51	O	2.018534	0.336787	1.406193
C52	C	1.155995	-0.219787	0.650472
C53	C	1.489328	0.113546	0.983805
C54	C	1.822662	0.446879	1.317139
C55	C	1.041675	-0.226129	0.635941
C56	C	1.375008	0.107204	0.969274
C57	C	1.708342	0.440537	1.302607
C58	C	1.423044	-0.340845	0.684424
C59	C	1.756377	-0.007511	1.017757
C60	C	2.089711	0.325822	1.351091
C61	C	1.423061	-0.398959	0.684440
C62	C	1.756395	-0.065625	1.017773
C63	C	2.089728	0.267708	1.351106
C64	C	0.864656	-0.208250	0.677070
C65	C	1.197990	0.125084	1.010403
C66	C	1.531323	0.458417	1.343737
C67	C	0.982813	-0.201696	0.692088
C68	C	1.316146	0.131637	1.025421
C69	C	1.649479	0.464971	1.358755
C70	C	1.349078	-0.658496	0.741870
C71	C	1.682411	-0.325163	1.075204
C72	C	2.015744	0.008171	1.408537
C73	C	1.349041	-0.603893	0.741853
C74	C	1.682374	-0.270560	1.075187
C75	C	2.015708	0.062774	1.408520
O76	O	1.285973	-0.582758	0.790627
O77	O	1.619306	-0.249424	1.123961
O78	O	1.952640	0.083909	1.457294
N79	N	1.423184	-0.568229	0.684510
N80	N	1.756517	-0.234896	1.017843
N81	N	2.089851	0.098437	1.351176
C82	C	1.497374	-0.587171	0.627187
C83	C	1.830708	-0.253838	0.960521
C84	C	2.164041	0.079496	1.293854
O85	O	1.560436	-0.551822	0.578411
O86	O	1.893769	-0.218489	0.911745
O87	O	2.227103	0.114844	1.245078
C88	C	1.497415	-0.641773	0.627211
C89	C	1.830748	-0.308440	0.960544
C90	C	2.164081	0.024894	1.293877
C91	C	1.423261	-0.677434	0.684550
C92	C	1.756594	-0.344101	1.017883
C93	C	2.089927	-0.010768	1.351217
C94	C	1.274930	-0.694157	0.799206
C95	C	1.608264	-0.360823	1.132539
C96	C	1.941597	-0.027490	1.465872
C97	C	1.274966	-0.748756	0.799221
C98	C	1.608299	-0.415423	1.132554
C99	C	1.941633	-0.082089	1.465887
C100	C	1.349149	-0.767694	0.741900
C101	C	1.682482	-0.434361	1.075234
C102	C	2.015816	-0.101028	1.408567
C103	C	1.423296	-0.732034	0.684565
C104	C	1.756630	-0.398700	1.017898
C105	C	2.089963	-0.065367	1.351232
C106	C	1.571609	-0.660714	0.569895
C107	C	1.904942	-0.327381	0.903228
C108	C	2.238276	0.005953	1.236562
C109	C	1.571643	-0.715321	0.569924
C110	C	1.904977	-0.381987	0.903257
C111	C	2.238310	-0.048654	1.236591
C112	C	1.497489	-0.750982	0.627263
C113	C	1.830823	-0.417649	0.960596
C114	C	2.164156	-0.084315	1.293930
C115	C	1.497515	-0.805571	0.627260
C116	C	1.830848	-0.472238	0.960593
C117	C	2.164182	-0.138905	1.293926
N118	N	1.423372	-0.841235	0.684603
N119	N	1.756706	-0.507902	1.017937
N120	N	2.090039	-0.174568	1.351270
C121	C	1.349189	-0.822297	0.741924
C122	C	1.682523	-0.488963	1.075257
C123	C	2.015856	-0.155630	1.408590
C124	C	1.497285	-0.472503	0.627144
C125	C	1.830619	-0.139170	0.960478
C126	C	2.163952	0.194163	1.293811
C127	C	1.497241	-0.417902	0.627115
C128	C	1.830575	-0.084568	0.960448
C129	C	2.163908	0.248765	1.293781
C130	C	1.348909	-0.434628	0.741782
C131	C	1.682242	-0.101294	1.075116
C132	C	2.015576	0.232039	1.408449
C133	C	1.348949	-0.489230	0.741806
C134	C	1.682283	-0.155897	1.075139
C135	C	2.015616	0.177437	1.408472
C136	C	1.423143	-0.508167	0.684488
C137	C	1.756476	-0.174834	1.017821
C138	C	2.089809	0.158500	1.351155
C139	C	1.349269	-0.936958	0.741950
C140	C	1.682603	-0.603625	1.075283
C141	C	2.015936	-0.270292	1.408617
C142	C	1.349309	-0.991562	0.741957
C143	C	1.682642	-0.658228	1.075290
C144	C	2.015976	-0.324895	1.408623
C145	C	1.497644	-0.974831	0.627294
C146	C	1.830978	-0.641498	0.960627
C147	C	2.164311	-0.308164	1.293960
C148	C	1.497602	-0.920232	0.627282
C149	C	1.830935	-0.586899	0.960616
C150	C	2.164268	-0.253566	1.293949
C151	C	1.423410	-0.901298	0.684619
C152	C	1.756743	-0.567965	1.017952
C153	C	2.090077	-0.234632	1.351285
O154	O	1.560553	-0.826745	0.578514
O155	O	1.893887	-0.493412	0.911847
O156	O	2.227220	-0.160078	1.245181
O157	O	1.286147	-0.857651	0.790702
O158	O	1.619480	-0.524318	1.124036
O159	O	1.952814	-0.190984	1.457369
C160	C	1.691475	-0.190147	0.718654
C161	C	2.024809	0.143186	1.051987
C162	C	2.358142	0.476519	1.385320
C163	C	1.805792	-0.183820	0.733209
C164	C	2.139126	0.149514	1.066543
C165	C	2.472459	0.482847	1.399876
C166	C	1.389182	-0.224152	0.952723
C167	C	1.722515	0.109181	1.286056
C168	C	2.055849	0.442515	1.619390
C169	C	1.374680	-0.232315	1.067025
C170	C	1.708013	0.101018	1.400359
C171	C	2.041346	0.434351	1.733692
C172	C	1.423409	-0.068617	0.684594
C173	C	1.756742	0.264717	1.017928
C174	C	2.090075	0.598050	1.351261
C175	C	1.423492	-0.010500	0.684636
C176	C	1.756825	0.322833	1.017970
C177	C	2.090159	0.656167	1.351303
C178	C	1.457172	-0.185873	0.417320
C179	C	1.790505	0.147460	0.750654
C180	C	2.123839	0.480793	1.083987
C181	C	1.471873	-0.177552	0.303044
C182	C	1.805207	0.155781	0.636377
C183	C	2.138540	0.489115	0.969711
C184	C	1.430766	-0.200718	1.125967
C185	C	1.764100	0.132616	1.459300
C186	C	2.097433	0.465949	1.792633
C187	C	1.415779	-0.209154	1.244104
C188	C	1.749112	0.124179	1.577438
C189	C	2.082446	0.457513	1.910771
H190	H	0.827578	-0.234015	0.617884
H191	H	1.160912	0.099319	0.951218
H192	H	1.494245	0.432652	1.284551
F193	F	1.549156	-0.134031	1.254698
F194	F	1.882489	0.199303	1.588031
F195	F	2.215823	0.532636	1.921364
H196	H	1.557702	-0.487917	0.580461
H197	H	1.891035	-0.154584	0.913794
H198	H	2.224368	0.178750	1.247127
F199	F	1.031268	-0.168010	0.769443
F200	F	1.364601	0.165323	1.102776
F201	F	1.697934	0.498656	1.436110
H202	H	1.004602	-0.251899	0.576755
H203	H	1.337935	0.081434	0.910089
H204	H	1.671269	0.414768	1.243422
F205	F	0.854252	-0.150136	0.810560
F206	F	1.187585	0.183198	1.143894
F207	F	1.520919	0.516531	1.477227
H208	H	1.315560	-0.265610	1.104023
H209	H	1.648893	0.067724	1.437357
H210	H	1.982227	0.401057	1.770690
F211	F	1.270306	-0.916815	0.802973
F212	F	1.603639	-0.583482	1.136307
F213	F	1.936972	-0.250148	1.469640
H214	H	1.288921	-1.020596	0.788651
H215	H	1.622255	-0.687263	1.121985
H216	H	1.955588	-0.353929	1.455318
F217	F	1.196051	-0.786704	0.860263
F218	F	1.529384	-0.453370	1.193596
F219	F	1.862718	-0.120037	1.526929
F220	F	1.650543	-0.622772	0.508876
F221	F	1.983876	-0.289438	0.842209
F222	F	2.317210	0.043895	1.175542
F223	F	1.195969	-0.674011	0.860221
F224	F	1.529302	-0.340677	1.193554
F225	F	1.862636	-0.007344	1.526888
H226	H	1.288506	-0.419199	0.788457
H227	H	1.621840	-0.085865	1.121791
H228	H	1.955173	0.247468	1.455124
F229	F	1.270026	-0.527179	0.802834
F230	F	1.603359	-0.193846	1.136167
F231	F	1.936692	0.139488	1.469500
H232	H	1.557614	-0.388869	0.580411
H233	H	1.890948	-0.055536	0.913744
H234	H	2.224281	0.277798	1.247078
H235	H	1.356655	-0.242451	1.281098
H236	H	1.689988	0.090883	1.614431
H237	H	2.023322	0.424216	1.947764
H238	H	1.632065	-0.730735	0.523252
H239	H	1.965398	-0.397402	0.856585
H240	H	2.298732	-0.064068	1.189918
F241	F	1.576593	-0.994997	0.566296
F242	F	1.909927	-0.661663	0.899629
F243	F	2.243260	-0.328330	1.232962
F244	F	1.576508	-0.882277	0.566235
F245	F	1.909841	-0.548944	0.899568
F246	F	2.243174	-0.215611	1.232902
H247	H	1.489876	-0.167419	1.088967
H248	H	1.823209	0.165915	1.422301
H249	H	2.156543	0.499248	1.755634
