data_functionalizedCrystal
_audit_creation_method	'MofGen! by Chris Wilmer'
_symmetry_space_group_name_H-M	'P1'
_symmetry_Int_Tables_number	1
_symmetry_cell_setting	triclinic
loop_
_symmetry_equiv_pos_as_xyz
  x,y,z
_cell_length_a	15.944551
_cell_length_b	16.109301
_cell_length_c	14.586319
_cell_angle_alpha	90.005214
_cell_angle_beta	89.999016
_cell_angle_gamma	83.480110
loop_
_atom_site_label
_atom_site_type_symbol
_atom_site_fract_x
_atom_site_fract_y
_atom_site_fract_z
O1	O	-1.114488	-0.107227	-0.076148
O2	O	-0.614488	0.392773	0.423852
O3	O	-0.869934	-0.120447	-0.076171
O4	O	-0.369934	0.379553	0.423829
O5	O	-0.998929	0.007192	-0.076149
O6	O	-0.498929	0.507192	0.423851
O7	O	-0.985492	-0.234866	-0.076169
O8	O	-0.485492	0.265134	0.423831
O9	O	-0.998920	0.007194	0.076332
O10	O	-0.498920	0.507194	0.576332
O11	O	-0.869925	-0.120445	0.076310
O12	O	-0.369925	0.379555	0.576310
O13	O	-1.114479	-0.107225	0.076333
O14	O	-0.614479	0.392775	0.576333
Cu15	Cu	-0.992201	-0.113835	0.090244
Cu16	Cu	-0.492201	0.386165	0.590244
Cu17	Cu	-0.992211	-0.113837	-0.090082
Cu18	Cu	-0.492211	0.386163	0.409918
O19	O	-0.985484	-0.234864	0.076312
O20	O	-0.485484	0.265136	0.576312
C21	C	-0.998380	0.038168	0.000091
C22	C	-0.498380	0.538168	0.500091
C23	C	-0.996748	0.130464	0.000093
C24	C	-0.496748	0.630464	0.500093
C25	C	-0.838635	-0.119897	0.000067
C26	C	-0.338635	0.380103	0.500067
C27	C	-0.745390	-0.118252	0.000058
C28	C	-0.245390	0.381748	0.500058
C29	C	-1.145777	-0.107775	0.000094
C30	C	-0.645777	0.392225	0.500094
C31	C	-1.239022	-0.109420	0.000096
C32	C	-0.739022	0.390580	0.500096
C33	C	-0.530561	-0.035203	0.000083
C34	C	-0.030561	0.464797	0.500083
C35	C	-0.469532	-0.073769	-0.075101
C36	C	0.030468	0.426231	0.424899
C37	C	-0.574665	-0.115275	0.000069
C38	C	-0.074665	0.384725	0.500069
C39	C	-0.469546	-0.073786	0.075233
C40	C	0.030454	0.426214	0.575233
C41	C	-0.409753	-0.112394	0.000084
C42	C	0.090247	0.387606	0.500084
C43	C	-0.514865	-0.153864	-0.075177
C44	C	-0.014865	0.346136	0.424823
C45	C	-0.514884	-0.153870	0.075225
C46	C	-0.014884	0.346130	0.575225
C47	C	-0.453874	-0.192494	0.000022
C48	C	0.046126	0.307506	0.500022
C49	C	-0.669667	-0.116933	0.000060
C50	C	-0.169667	0.383067	0.500060
C51	C	-0.314753	-0.110743	0.000087
C52	C	0.185247	0.389257	0.500087
C53	C	-0.986032	-0.265840	0.000069
C54	C	-0.486032	0.234160	0.500069
C55	C	-0.987664	-0.358136	0.000062
C56	C	-0.487664	0.141864	0.500062
N57	N	-0.992200	-0.113833	0.217076
N58	N	-0.492200	0.386167	0.717076
C59	C	-1.069497	0.352712	0.000085
C60	C	-0.569497	0.852712	0.500085
C61	C	-1.067958	0.439433	0.000077
C62	C	-0.567958	0.939433	0.500077
C63	C	-0.914909	0.419608	0.000066
C64	C	-0.414909	0.919608	0.500066
C65	C	-0.916450	0.332889	0.000068
C66	C	-0.416450	0.832889	0.500068
C67	C	-0.993746	0.299444	0.000082
C68	C	-0.493746	0.799444	0.500082
C69	C	-0.990666	0.472884	0.000073
C70	C	-0.490666	0.972884	0.500073
C71	C	-0.988996	0.566910	0.000064
C72	C	-0.488996	1.066910	0.500064
C73	C	-0.995417	0.205411	0.000088
C74	C	-0.495417	0.705411	0.500088
N75	N	-0.992219	-0.113833	-0.216914
N76	N	-0.492219	0.386167	0.283086
C77	C	-1.049337	-0.057333	0.452092
C78	C	-0.549337	0.442667	0.952092
C79	C	-1.049340	-0.057331	0.548073
C80	C	-0.549340	0.442669	1.048073
C81	C	-0.935075	-0.170335	0.548064
C82	C	-0.435075	0.329665	1.048064
C83	C	-0.935070	-0.170332	0.452084
C84	C	-0.435070	0.329668	0.952084
C85	C	-0.992205	-0.113833	0.404101
C86	C	-0.492205	0.386167	0.904101
C87	C	-0.992214	-0.113833	0.596062
C88	C	-0.492214	0.386167	1.096062
C89	C	-0.992216	-0.113831	0.700129
C90	C	-0.492216	0.386169	1.200129
C91	C	-0.992202	-0.113833	0.300027
C92	C	-0.492202	0.386167	0.800027
H93	H	-0.563915	0.031251	-0.000005
H94	H	-0.063915	0.531251	0.499995
H95	H	-0.854760	0.289515	0.000062
H96	H	-0.354760	0.789515	0.500062
Br97	Br	-0.810012	0.465004	0.000045
Br98	Br	-0.310012	0.965004	0.500045
Br99	Br	-1.126875	0.019353	0.613203
Br100	Br	-0.626875	0.519353	1.113203
Br101	Br	-1.126877	0.019346	0.386975
Br102	Br	-0.626877	0.519346	0.886975
Br103	Br	-0.548416	-0.210272	0.181164
Br104	Br	-0.048416	0.289728	0.681164
H105	H	-0.888558	-0.216337	0.587141
H106	H	-0.388558	0.283663	1.087141
H107	H	-1.132437	0.325484	0.000094
H108	H	-0.632437	0.825484	0.500094
Br109	Br	-1.170767	0.511724	0.000077
Br110	Br	-0.670767	1.011724	0.500077
H111	H	-0.888542	-0.216341	0.413007
H112	H	-0.388542	0.283659	0.913007
H113	H	-0.534845	-0.187707	-0.138809
H114	H	-0.034845	0.312293	0.361191
H115	H	-0.449437	-0.039902	-0.138659
H116	H	0.050563	0.460098	0.361341
H117	H	-0.420693	-0.259016	-0.000026
H118	H	0.079307	0.240984	0.499974
H119	H	-0.449467	-0.039903	0.138793
H120	H	0.050533	0.460097	0.638793
