data_functionalizedCrystal
_audit_creation_method	'MofGen! by Chris Wilmer'
_symmetry_space_group_name_H-M	'P1'
_symmetry_Int_Tables_number	1
_symmetry_cell_setting	triclinic
loop_
_symmetry_equiv_pos_as_xyz
  x,y,z
_cell_length_a	10.654550
_cell_length_b	15.944551
_cell_length_c	9.130313
_cell_angle_alpha	89.994529
_cell_angle_beta	89.999724
_cell_angle_gamma	83.991834
loop_
_atom_site_label
_atom_site_type_symbol
_atom_site_fract_x
_atom_site_fract_y
_atom_site_fract_z
O1	O	1.666313	0.117977	-0.121694
O2	O	1.300689	0.129217	-0.121721
O3	O	1.493485	0.001379	-0.121693
O4	O	1.473517	0.245814	-0.121721
O5	O	1.493472	0.001376	0.121906
O6	O	1.300676	0.129213	0.121878
O7	O	1.666300	0.117973	0.121905
Cu8	Cu	1.483487	0.123592	0.144134
Cu9	Cu	1.483502	0.123597	-0.143950
O10	O	1.473503	0.245810	0.121878
C11	C	1.253895	0.128389	0.000075
C12	C	1.114484	0.125920	0.000065
C13	C	1.034024	0.201189	0.000061
C14	C	0.903034	0.198863	0.000087
C15	C	0.932975	0.045995	0.000115
C16	C	1.063963	0.048321	0.000100
C17	C	1.492650	-0.029921	0.000106
C18	C	1.490165	-0.123182	0.000107
C19	C	1.364720	-0.338764	0.000077
C20	C	1.422966	-0.399446	0.120191
C21	C	1.485668	-0.293933	0.000095
C22	C	1.423007	-0.399426	-0.119979
C23	C	1.481317	-0.458871	0.000078
C24	C	1.543947	-0.353387	0.120308
C25	C	1.543972	-0.353360	-0.119969
C26	C	1.602306	-0.414024	0.000173
C27	C	1.488172	-0.198917	0.000107
C28	C	1.478822	-0.553887	0.000077
C29	C	1.713094	0.118800	0.000106
C30	C	1.852505	0.121269	0.000106
C31	C	1.474339	0.277110	0.000075
C32	C	1.476824	0.370371	0.000065
N33	N	1.483485	0.123589	0.346757
N34	N	1.483514	0.123594	-0.346572
C35	C	1.568884	0.067007	0.423421
C36	C	1.568896	0.067007	0.576758
C37	C	1.398106	0.180179	0.576753
C38	C	1.398089	0.180174	0.423419
H39	H	0.837528	0.260155	0.000086
H40	H	0.891824	-0.017184	0.000152
O41	O	1.141951	-0.024878	0.000037
C42	C	1.069275	-0.093868	0.000095
H43	H	0.971510	-0.073124	-0.046019
H44	H	1.117593	-0.146652	-0.070621
H45	H	1.059957	-0.117616	0.116968
H46	H	1.328541	0.226250	0.360995
O47	O	1.651803	0.011929	0.651067
C48	C	1.631374	-0.071351	0.613646
H49	H	1.582958	-0.071550	0.502322
H50	H	1.725768	-0.112126	0.608394
H51	H	1.568878	-0.097718	0.699959
H52	H	1.371804	-0.419852	0.221729
H53	H	1.264327	-0.306038	0.000190
O54	O	1.604834	-0.329048	0.241545
C55	C	1.606419	-0.240741	0.240102
H56	H	1.525807	-0.211010	0.168913
H57	H	1.594538	-0.215361	0.356553
H58	H	1.700189	-0.224444	0.193675
O59	O	1.722195	-0.452859	0.000516
C60	C	1.785477	-0.429363	0.127301
H61	H	1.713375	-0.407877	0.215405
H62	H	1.850274	-0.485679	0.169226
H63	H	1.843952	-0.375537	0.099796
H64	H	1.075154	0.264375	0.000044
H65	H	1.328580	0.226250	0.639186
H66	H	1.595090	-0.332933	-0.221513
O67	O	1.361799	-0.423628	-0.241081
C68	C	1.236581	-0.384958	-0.240609
H69	H	1.230558	-0.325595	-0.170294
H70	H	1.206485	-0.367420	-0.357418
H71	H	1.171446	-0.430587	-0.193738
O72	O	1.651628	0.011967	0.348822
C73	C	1.584320	-0.040285	0.260228
H74	H	1.486080	-0.007411	0.237228
H75	H	1.636723	-0.053306	0.152413
H76	H	1.575732	-0.102391	0.319400
