data_functionalizedCrystal
_audit_creation_method	'MofGen! by Chris Wilmer'
_symmetry_space_group_name_H-M	'P1'
_symmetry_Int_Tables_number	1
_symmetry_cell_setting	triclinic
loop_
_symmetry_equiv_pos_as_xyz
  x,y,z
_cell_length_a	12.645330
_cell_length_b	10.686154
_cell_length_c	12.645324
_cell_angle_alpha	85.654577
_cell_angle_beta	89.968234
_cell_angle_gamma	85.602113
loop_
_atom_site_label
_atom_site_type_symbol
_atom_site_fract_x
_atom_site_fract_y
_atom_site_fract_z
Zn1	Zn	-0.297518	-1.929112	-0.475344
Zn2	Zn	-0.474837	-1.928970	-0.298094
Zn3	Zn	-0.311191	-1.718093	-0.311664
Zn4	Zn	-0.488354	-1.718073	-0.488876
O5	O	-0.392975	-1.823562	-0.393495
O6	O	-0.309661	-2.105666	-0.440489
O7	O	-0.453194	-1.900946	-0.151550
O8	O	-0.161026	-1.746153	-0.333392
O9	O	-0.439936	-2.105562	-0.310264
O10	O	-0.150980	-1.901188	-0.453648
O11	O	-0.332964	-1.746016	-0.161520
O12	O	-0.346071	-1.541517	-0.346514
O13	O	-0.462974	-1.746118	-0.635425
O14	O	-0.476231	-1.541502	-0.476711
O15	O	-0.322768	-1.901168	-0.625484
O16	O	-0.624982	-1.900926	-0.323385
O17	O	-0.634912	-1.745980	-0.463553
C18	C	-0.414102	-1.495726	-0.414554
C19	C	-0.423166	-1.355476	-0.423588
C20	C	-0.668411	-1.823470	-0.393486
C21	C	-0.786236	-1.823546	-0.393510
C22	C	-0.960065	-1.726472	-0.481916
C23	C	-0.837538	-1.725975	-0.481684
C24	C	-0.833166	-1.787545	-0.284104
C25	C	-0.955802	-1.786952	-0.284641
C26	C	-0.944699	-1.957215	-0.413566
C27	C	-0.822145	-1.956396	-0.416061
C28	C	-0.116462	-1.823689	-0.393524
C29	C	0.001372	-1.823743	-0.393537
C30	C	-0.392854	-1.823656	-0.669994
C31	C	-0.392802	-1.823697	-0.787821
C32	C	-0.371760	-1.152678	-0.372342
C33	C	-0.362706	-1.292927	-0.363298
C34	C	-0.304811	-1.921618	-0.949107
C35	C	-0.304537	-1.921304	-0.826567
C36	C	-0.371019	-1.690765	-0.840851
C37	C	-0.370360	-1.691359	-0.963411
C38	C	-0.502764	-1.857628	-0.952837
C39	C	-0.502013	-1.860537	-0.830044
C40	C	-0.393015	-1.823540	-0.118066
C41	C	-0.392752	-1.823744	-0.000224
H42	H	-0.481865	-1.301732	-0.482115
H43	H	-0.518594	-1.958363	-0.794680
Br44	Br	-0.264876	-1.382504	-0.265726
Br45	Br	-1.006673	-1.763660	-0.618057
Br46	Br	-0.236773	-1.643419	-1.014186
Br47	Br	-0.784835	-1.763514	-0.617343
Br48	Br	-0.475128	-1.565908	-0.800289
Br49	Br	-1.022171	-1.562583	-0.461295
H50	H	-0.814688	-1.627025	-0.469091
H51	H	-0.791233	-1.983545	-0.496536
Br52	Br	-0.238986	-1.642013	-0.792839
H53	H	-0.990790	-1.689384	-0.266677
Br54	Br	-0.325458	-2.086462	-0.987662
H55	H	-0.981095	-1.854726	-0.217008
H56	H	-0.222869	-1.898869	-0.798697
Br57	Br	-0.985255	-2.078009	-0.306123
Br58	Br	-0.777211	-1.901883	-0.171974
H59	H	-0.524258	-1.952868	-0.977695
H60	H	-0.808786	-1.690993	-0.265636
H61	H	-0.570368	-1.794432	-0.803644
Br62	Br	-0.992559	-2.011953	-0.543521
Br63	Br	-0.762858	-2.083558	-0.315459
Br64	Br	-0.325609	-2.085601	-0.765872
H65	H	-0.223585	-1.899472	-0.981355
Br66	Br	-0.473231	-1.565664	-1.020919
Br67	Br	-0.611799	-1.738808	-1.008781
