data_functionalizedCrystal
_audit_creation_method	'MofGen! by Chris Wilmer'
_symmetry_space_group_name_H-M	'P1'
_symmetry_Int_Tables_number	1
_symmetry_cell_setting	triclinic
loop_
_symmetry_equiv_pos_as_xyz
  x,y,z
_cell_length_a	10.540539
_cell_length_b	19.188924
_cell_length_c	9.616153
_cell_angle_alpha	89.995666
_cell_angle_beta	89.995174
_cell_angle_gamma	83.833728
loop_
_atom_site_label
_atom_site_type_symbol
_atom_site_fract_x
_atom_site_fract_y
_atom_site_fract_z
O1	O	1.683720	0.098389	-0.115587
O2	O	1.314102	0.107659	-0.115605
O3	O	1.509582	0.001439	-0.115579
O4	O	1.488240	0.204609	-0.115613
O5	O	1.509555	0.001441	0.115712
O6	O	1.314075	0.107661	0.115686
O7	O	1.683693	0.098391	0.115704
Zn8	Zn	1.498880	0.103027	0.152418
Zn9	Zn	1.498915	0.103024	-0.152319
O10	O	1.488213	0.204611	0.115678
C11	C	1.266801	0.106965	0.000039
C12	C	1.125899	0.104885	0.000032
C13	C	0.944232	0.025184	0.000586
C14	C	1.090803	0.027292	0.000050
C15	C	1.063417	0.142225	-0.132047
C16	C	0.916931	0.139577	-0.132143
C17	C	0.916377	0.141158	0.130878
C18	C	1.063343	0.141872	0.132609
C19	C	1.508879	-0.024575	0.000068
C20	C	1.506809	-0.102094	0.000071
C21	C	1.505857	-0.138501	-0.126006
C22	C	1.503894	-0.211336	-0.126017
C23	C	1.502908	-0.247764	0.000057
C24	C	1.503852	-0.211349	0.126151
C25	C	1.505803	-0.138513	0.126158
N26	N	1.572067	-0.366966	0.093894
N27	N	1.570217	-0.436156	0.093879
C28	C	1.497028	-0.467213	0.000043
N29	N	1.425775	-0.426466	-0.093797
N30	N	1.427631	-0.357269	-0.093786
C31	C	1.500792	-0.326742	0.000064
C32	C	1.493946	-0.582596	-0.126054
C33	C	1.491975	-0.655433	-0.126060
C34	C	1.491946	-0.655445	0.126112
C35	C	1.493904	-0.582609	0.126114
C36	C	1.494910	-0.546189	0.000027
C37	C	1.730994	0.099085	0.000057
C38	C	1.871896	0.101165	0.000055
C39	C	1.488916	0.230626	0.000028
C40	C	1.490987	0.308144	0.000016
N41	N	1.498865	0.103028	0.360392
N42	N	1.498940	0.103017	-0.360293
C43	C	1.393985	0.159658	0.580748
C44	C	1.394209	0.159870	0.419581
C45	C	1.631223	0.119601	0.418845
C46	C	1.630649	0.120002	0.580063
C47	C	1.472714	0.029640	0.580314
C48	C	1.469657	0.030115	0.419087
H49	H	0.867913	0.197203	0.131761
N50	N	1.120574	0.107856	-0.262246
H51	H	1.079746	0.132249	-0.346670
H52	H	1.215465	0.111429	-0.263641
H53	H	1.086320	0.198443	0.140574
N54	N	1.564372	-0.028403	0.365745
H55	H	1.610969	-0.052913	0.446783
H56	H	1.517681	-0.063063	0.312207
H57	H	1.494757	-0.552941	-0.228722
N58	N	1.118378	0.105741	0.262044
H59	H	1.047760	0.087144	0.317239
H60	H	1.183568	0.065612	0.234814
N61	N	1.502879	-0.250608	-0.262014
H62	H	1.580740	-0.286095	-0.267620
H63	H	1.423354	-0.275516	-0.267573
N64	N	1.490890	-0.694722	0.262099
H65	H	1.412556	-0.676779	0.317216
H66	H	1.489557	-0.746378	0.242856
N67	N	0.851752	0.213491	-0.140130
H68	H	0.756178	0.212348	-0.140259
H69	H	0.877159	0.241092	-0.057118
N70	N	1.146980	-0.011902	-0.125572
H71	H	1.109026	0.010910	-0.212953
H72	H	1.242532	-0.010690	-0.126320
N73	N	1.148107	-0.011639	0.125444
H74	H	1.243645	-0.010345	0.125329
H75	H	1.110699	0.011311	0.212940
H76	H	1.503046	-0.241013	0.228801
H77	H	1.410457	0.213789	0.621239
N78	N	1.494959	-0.543336	0.262096
H79	H	1.417102	-0.507847	0.267721
H80	H	1.494087	-0.577510	0.341886
N81	N	1.347659	0.008761	0.634223
H82	H	1.288800	0.002297	0.553459
H83	H	1.363757	-0.036644	0.687648
H84	H	0.889341	0.111977	-0.230865
N85	N	1.491054	-0.694711	-0.262049
H86	H	1.492029	-0.660587	-0.341917
H87	H	1.568952	-0.730179	-0.267442
H88	H	1.549256	-0.012519	0.618441
N89	N	1.416247	0.231963	0.368293
H90	H	1.341149	0.251705	0.309986
H91	H	1.425921	0.263748	0.450452
N92	N	0.875330	0.107900	0.263503
H93	H	0.779254	0.109512	0.265370
H94	H	0.914465	0.057542	0.267792
N95	N	1.737122	0.066456	0.368045
H96	H	1.821315	0.078134	0.406891
H97	H	1.720523	0.018142	0.400116
N98	N	1.263875	0.146665	0.367221
H99	H	1.205758	0.140654	0.448869
H100	H	1.227162	0.187791	0.309029
H101	H	1.295277	0.149840	0.619557
H102	H	1.653822	0.173536	0.617643
N103	N	1.091368	0.217702	-0.138596
H104	H	1.144931	0.228442	-0.055808
H105	H	1.139313	0.225676	-0.227123
N106	N	1.737136	0.067459	0.631736
H107	H	1.784249	0.044144	0.549782
H108	H	1.798165	0.092282	0.689952
N109	N	1.662670	0.189708	0.365338
H110	H	1.591374	0.210830	0.303250
H111	H	1.672885	0.222070	0.446448
H112	H	1.506572	-0.108871	0.228829
N113	N	1.506964	-0.099231	-0.262005
H114	H	1.586454	-0.074291	-0.267602
H115	H	1.506025	-0.133402	-0.341781
N116	N	0.907261	-0.015421	0.126060
H117	H	0.843258	0.015039	0.183779
H118	H	0.868181	-0.058542	0.094453
N119	N	0.905102	-0.015265	-0.124140
H120	H	0.840725	0.015416	-0.180988
H121	H	0.982654	-0.030112	-0.183032
N122	N	1.340648	0.013495	0.368584
H123	H	1.301283	0.053022	0.307924
H124	H	1.351013	-0.031431	0.313060
