data_functionalizedCrystal
_audit_creation_method	'MofGen! by Chris Wilmer'
_symmetry_space_group_name_H-M	'P1'
_symmetry_Int_Tables_number	1
_symmetry_cell_setting	triclinic
loop_
_symmetry_equiv_pos_as_xyz
  x,y,z
_cell_length_a	16.625545
_cell_length_b	16.625548
_cell_length_c	13.897441
_cell_angle_alpha	89.976353
_cell_angle_beta	90.031157
_cell_angle_gamma	89.974583
loop_
_atom_site_label
_atom_site_type_symbol
_atom_site_fract_x
_atom_site_fract_y
_atom_site_fract_z
Zn1	Zn	-0.320979	-1.232674	0.545452
Zn2	Zn	-0.070979	-0.982674	0.795452
Zn3	Zn	0.179021	-0.732674	1.045452
Zn4	Zn	0.429021	-0.482674	1.295452
Zn5	Zn	-0.455829	-1.232566	0.384152
Zn6	Zn	-0.205829	-0.982566	0.634152
Zn7	Zn	0.044171	-0.732566	0.884152
Zn8	Zn	0.294171	-0.482566	1.134152
Zn9	Zn	-0.321014	-1.097832	0.384163
Zn10	Zn	-0.071014	-0.847832	0.634163
Zn11	Zn	0.178986	-0.597832	0.884163
Zn12	Zn	0.428986	-0.347832	1.134163
Zn13	Zn	-0.455773	-1.097798	0.545397
Zn14	Zn	-0.205773	-0.847798	0.795397
Zn15	Zn	0.044227	-0.597798	1.045397
Zn16	Zn	0.294227	-0.347798	1.295397
O17	O	-0.388399	-1.165218	0.464791
O18	O	-0.138399	-0.915218	0.714791
O19	O	0.111601	-0.665218	0.964791
O20	O	0.361601	-0.415218	1.214791
O21	O	-0.338876	-1.345492	0.524075
O22	O	-0.088876	-1.095492	0.774075
O23	O	0.161124	-0.845492	1.024075
O24	O	0.411124	-0.595492	1.274075
O25	O	-0.437984	-1.214663	0.249172
O26	O	-0.187984	-0.964663	0.499172
O27	O	0.062016	-0.714663	0.749172
O28	O	0.312016	-0.464663	0.999172
O29	O	-0.208177	-1.115778	0.405586
O30	O	0.041823	-0.865778	0.655586
O31	O	0.291823	-0.615778	0.905586
O32	O	0.541823	-0.365778	1.155586
O33	O	-0.437950	-1.345413	0.405568
O34	O	-0.187950	-1.095413	0.655568
O35	O	0.062050	-0.845413	0.905568
O36	O	0.312050	-0.595413	1.155568
O37	O	-0.208151	-1.214846	0.524085
O38	O	0.041849	-0.964846	0.774085
O39	O	0.291849	-0.714846	1.024085
O40	O	0.541849	-0.464846	1.274085
O41	O	-0.338936	-1.115674	0.249179
O42	O	-0.088936	-0.865674	0.499179
O43	O	0.161064	-0.615674	0.749179
O44	O	0.411064	-0.365674	0.999179
O45	O	-0.338881	-0.984995	0.405532
O46	O	-0.088881	-0.734995	0.655532
O47	O	0.161119	-0.484995	0.905532
O48	O	0.411119	-0.234995	1.155532
O49	O	-0.437854	-1.115721	0.680386
O50	O	-0.187854	-0.865721	0.930386
O51	O	0.062146	-0.615721	1.180386
O52	O	0.312146	-0.365721	1.430386
O53	O	-0.437888	-0.984971	0.523990
O54	O	-0.187888	-0.734971	0.773990
O55	O	0.062112	-0.484971	1.023990
O56	O	0.312112	-0.234971	1.273990
O57	O	-0.338821	-1.214813	0.680427
O58	O	-0.088821	-0.964813	0.930427
O59	O	0.161179	-0.714813	1.180427
O60	O	0.411179	-0.464813	1.430427
O61	O	-0.568654	-1.214630	0.405514
O62	O	-0.318654	-0.964630	0.655514
O63	O	-0.068654	-0.714630	0.905514
O64	O	0.181346	-0.464630	1.155514
O65	O	-0.568613	-1.115617	0.523980
O66	O	-0.318613	-0.865617	0.773980
O67	O	-0.068613	-0.615617	1.023980
O68	O	0.181387	-0.365617	1.273980
C69	C	-0.388383	-0.955727	0.464756
C70	C	-0.138383	-0.705727	0.714756
C71	C	0.111617	-0.455727	0.964756
C72	C	0.361617	-0.205727	1.214756
C73	C	-0.388395	-0.866106	0.464764
C74	C	-0.138395	-0.616106	0.714764
C75	C	0.111605	-0.366106	0.964764
C76	C	0.361605	-0.116106	1.214764
C77	C	-0.388394	-0.537930	0.464793
C78	C	-0.138394	-0.287930	0.714793
C79	C	0.111606	-0.037930	0.964793
C80	C	0.361606	0.212070	1.214793
C81	C	-0.388392	-0.629239	0.464782
C82	C	-0.138392	-0.379239	0.714782
C83	C	0.111608	-0.129239	0.964782
C84	C	0.361608	0.120761	1.214782
C85	C	-0.388395	-0.702015	0.464778
C86	C	-0.138395	-0.452015	0.714778
C87	C	0.111605	-0.202015	0.964778
C88	C	0.361605	0.047985	1.214778
C89	C	-0.388392	-0.793329	0.464768
C90	C	-0.138392	-0.543329	0.714768
C91	C	0.111608	-0.293329	0.964768
C92	C	0.361608	-0.043329	1.214768
C93	C	-0.597890	-1.165130	0.464761
C94	C	-0.347890	-0.915130	0.714761
C95	C	-0.097890	-0.665130	0.964761
C96	C	0.152110	-0.415130	1.214761
C97	C	-0.687511	-1.165166	0.464780
C98	C	-0.437511	-0.915166	0.714780
C99	C	-0.187511	-0.665166	0.964780
C100	C	0.062489	-0.415166	1.214780
C101	C	-0.760293	-1.165198	0.464799
C102	C	-0.510293	-0.915198	0.714799
C103	C	-0.260293	-0.665198	0.964799
C104	C	-0.010293	-0.415198	1.214799
C105	C	-0.851602	-1.165245	0.464820
C106	C	-0.601602	-0.915245	0.714820
C107	C	-0.351602	-0.665245	0.964820
C108	C	-0.101602	-0.415245	1.214820
C109	C	-0.924378	-1.165286	0.464833
C110	C	-0.674378	-0.915286	0.714833
C111	C	-0.424378	-0.665286	0.964833
C112	C	-0.174378	-0.415286	1.214833
C113	C	-1.015692	-1.165333	0.464852
C114	C	-0.765692	-0.915333	0.714852
C115	C	-0.515692	-0.665333	0.964852
C116	C	-0.265692	-0.415333	1.214852
C117	C	-0.178090	-1.165328	0.464843
C118	C	0.071910	-0.915328	0.714843
C119	C	0.321910	-0.665328	0.964843
C120	C	0.571910	-0.415328	1.214843
C121	C	-0.088469	-1.165374	0.464865
C122	C	0.161531	-0.915374	0.714865
C123	C	0.411531	-0.665374	0.964865
C124	C	0.661531	-0.415374	1.214865
C125	C	-0.388327	-1.165275	0.716384
C126	C	-0.138327	-0.915275	0.966384
C127	C	0.111673	-0.665275	1.216384
C128	C	0.361673	-0.415275	1.466384
C129	C	-0.388297	-1.165299	0.823598
C130	C	-0.138297	-0.915299	1.073598
C131	C	0.111703	-0.665299	1.323598
C132	C	0.361703	-0.415299	1.573598
C133	C	-0.388410	-0.375527	0.464817
C134	C	-0.138410	-0.125527	0.714817
C135	C	0.111590	0.124473	0.964817
C136	C	0.361590	0.374473	1.214817
C137	C	-0.388401	-0.465148	0.464804
C138	C	-0.138401	-0.215148	0.714804
C139	C	0.111599	0.034852	0.964804
C140	C	0.361599	0.284852	1.214804
C141	C	-0.388412	-1.165207	0.214177
C142	C	-0.138412	-0.915207	0.464177
C143	C	0.111588	-0.665207	0.714177
C144	C	0.361588	-0.415207	0.964177
C145	C	-0.388215	-1.165339	0.106963
C146	C	-0.138215	-0.915339	0.356963
C147	C	0.111785	-0.665339	0.606963
C148	C	0.361785	-0.415339	0.856963
C149	C	-0.388243	-1.165321	1.019893
C150	C	-0.138243	-0.915321	1.269893
C151	C	0.111757	-0.665321	1.519893
C152	C	0.361757	-0.415321	1.769893
C153	C	-0.388275	-1.165307	0.910661
C154	C	-0.138275	-0.915307	1.160661
C155	C	0.111725	-0.665307	1.410661
C156	C	0.361725	-0.415307	1.660661
