data_functionalizedCrystal
_audit_creation_method	'MofGen! by Chris Wilmer'
_symmetry_space_group_name_H-M	'P1'
_symmetry_Int_Tables_number	1
_symmetry_cell_setting	triclinic
loop_
_symmetry_equiv_pos_as_xyz
  x,y,z
_cell_length_a	14.560438
_cell_length_b	17.917603
_cell_length_c	14.560438
_cell_angle_alpha	89.998971
_cell_angle_beta	59.998761
_cell_angle_gamma	57.015738
loop_
_atom_site_label
_atom_site_type_symbol
_atom_site_fract_x
_atom_site_fract_y
_atom_site_fract_z
Zr1	Zr	0.920669	0.754982	-0.078220
O2	O	1.126272	0.629877	-0.231870
O3	O	0.724783	0.793323	-0.031122
O4	O	0.916373	0.793342	-0.222720
O5	O	0.934683	0.629856	0.110867
O6	O	0.901930	0.922298	-0.215498
O7	O	0.934683	0.629858	-0.040273
O8	O	0.559211	0.922264	0.127235
O9	O	1.277402	0.629890	-0.231866
O10	O	0.790976	0.905926	-0.005641
O11	O	0.801755	0.809686	0.101763
O12	O	1.027327	0.809708	-0.123819
O13	O	1.038106	0.713468	-0.016415
Zr14	Zr	0.897634	0.960648	0.174348
Zr15	Zr	0.897634	0.960652	-0.066702
Zr16	Zr	0.920669	0.754978	0.162830
Zr17	Zr	1.161703	0.755002	-0.078214
Zr18	Zr	0.656600	0.960628	0.174342
O19	O	1.093520	0.922307	0.127250
O20	O	1.093520	0.922313	-0.215492
O21	O	1.126272	0.629871	0.110872
O22	O	0.692031	1.085753	0.327998
O23	O	0.692031	1.085759	-0.014744
O24	O	0.724783	0.793317	0.311620
O25	O	0.883620	1.085774	-0.014739
O26	O	0.901930	0.922288	0.318847
O27	O	0.916373	0.793333	0.311625
O28	O	0.883620	1.085772	0.136400
O29	O	1.259092	0.793370	-0.222711
O30	O	0.559211	0.922261	0.318838
O31	O	0.540901	1.085741	0.327994
O32	O	0.540901	1.085744	0.136391
O33	O	1.277402	0.629886	-0.040263
O34	O	1.259092	0.793366	-0.031108
O35	O	0.790976	0.905922	0.219946
O36	O	0.780197	1.002163	0.112542
O37	O	1.016548	0.905944	-0.005635
O38	O	1.027327	0.809704	0.101769
C39	C	0.607655	0.857791	0.048056
C40	C	0.505330	0.857782	0.048053
C41	C	0.269867	0.928866	0.135313
C42	C	0.366046	0.928836	0.135301
C43	C	0.548436	0.786760	-0.039194
C44	C	0.452257	0.786796	-0.039185
C45	C	0.164567	1.010890	0.236060
C46	C	0.260746	1.010859	0.236047
C47	C	0.937965	0.600554	0.033656
C48	C	0.947744	0.513241	0.028766
C49	C	0.965606	0.353399	0.019836
C50	C	0.852703	0.362224	0.076289
C51	C	0.862641	0.273283	0.071320
C52	C	0.955670	0.442347	0.024803
C53	C	1.210648	0.857840	0.048072
C54	C	1.312973	0.857848	0.048075
C55	C	0.909151	0.857820	-0.253453
C56	C	0.909152	0.857822	-0.355785
C57	C	0.880338	1.115077	0.062472
C58	C	0.870559	1.202389	0.067361
C59	C	0.901201	0.928860	-0.399891
C60	C	0.901196	0.928856	-0.496040
C61	C	0.917099	0.786766	-0.503973
C62	C	0.917094	0.786775	-0.407821
C63	C	0.892025	1.010893	-0.395315
C64	C	0.892020	1.010888	-0.491464
C65	C	0.909151	0.857810	0.349581
C66	C	0.909151	0.857808	0.451913
C67	C	0.578842	1.115052	0.062464
C68	C	0.466738	1.202356	0.067351
C69	C	0.607655	0.857785	0.349573
C70	C	0.505330	0.857775	0.451902
C71	C	0.578842	1.115047	0.363981
C72	C	0.466738	1.202349	0.471200
C73	C	1.239461	0.600583	-0.267853
C74	C	1.351565	0.513281	-0.375072
C75	C	1.239461	0.600578	0.033664
C76	C	1.351565	0.513274	0.028777
C77	C	1.210648	0.857845	-0.253445
C78	C	1.312973	0.857855	-0.355774
C79	C	0.419719	1.193121	0.007945
C80	C	0.314399	1.275144	0.012514
C81	C	0.256094	1.366402	0.076496
C82	C	0.303123	1.375636	0.135903
C83	C	0.408447	1.293613	0.131327
C84	C	0.408465	1.293592	0.465488
C85	C	0.303144	1.375630	0.566223
C86	C	0.256091	1.366422	0.672669
C87	C	0.314374	1.275169	0.678378
C88	C	0.419700	1.193134	0.577644
C89	C	1.409849	0.422038	-0.369360
C90	C	1.515201	0.340001	-0.470095
C91	C	1.562259	0.349208	-0.576541
C92	C	1.503970	0.440461	-0.582250
C93	C	1.398627	0.522496	-0.481516
C94	C	1.398594	0.522510	0.088173
C95	C	1.503940	0.440486	0.083577
C96	C	1.562249	0.349228	0.019592
C97	C	1.515216	0.339995	-0.039811
C98	C	1.409878	0.422017	-0.035221
C99	C	0.451626	0.908007	0.561667
C100	C	0.355486	0.907989	0.657812
C101	C	0.366760	0.807509	0.534413
C102	C	0.462904	0.807521	0.438270
C103	C	0.445112	0.966022	0.632912
C104	C	0.348973	0.966005	0.729057
H105	H	0.253459	1.076098	0.222899
H106	H	1.351127	0.596809	0.140284
H107	H	0.748579	0.436577	0.128351
F108	F	0.760562	1.096159	-0.464722
F109	F	0.321601	0.754026	0.519917
F110	F	1.011210	1.001654	-0.585177
H111	H	1.351173	0.596788	-0.486181
H112	H	1.069721	0.279051	-0.032223
F113	F	0.264364	1.265297	-0.050715
F114	F	0.696674	0.711146	-0.132057
H115	H	0.170327	1.433228	0.754684
H116	H	0.093733	1.080963	0.231705
F117	F	0.925532	0.711178	-0.360869
F118	F	0.458529	1.303414	0.352210
H119	H	0.923564	0.728922	-0.546350
F120	F	1.553973	0.450334	0.146809
H121	H	0.170332	1.433182	0.080214
F122	F	0.763619	1.102465	-0.297008
H123	H	0.250727	1.003768	0.317761
F124	F	1.016036	0.992155	-0.418338
F125	F	0.567481	0.923861	0.630572
F126	F	1.674358	0.261940	0.014719
F127	F	0.241129	1.472738	0.560122
F128	F	0.481757	1.096004	-0.060160
F129	F	0.241053	1.472767	0.203997
F130	F	0.264281	1.265385	0.791676
F131	F	0.458469	1.303457	0.194566
H132	H	0.467133	1.118843	0.582311
H133	H	1.371542	0.414523	-0.282696
F134	F	1.577215	0.242892	-0.463995
H135	H	1.648036	0.282402	-0.658556
H136	H	1.542298	0.447947	-0.668931
F137	F	0.088667	0.992157	0.334961
H138	H	0.389388	0.927736	0.777838
F139	F	1.577283	0.242863	-0.107902
F140	F	1.359831	0.412173	-0.098436
H141	H	0.487366	0.728972	-0.110231
H142	H	0.506641	0.766607	0.348896
H143	H	0.400662	1.040292	0.628342
H144	H	0.250352	1.042810	0.785555
