data_functionalizedCrystal
_audit_creation_method	'MofGen! by Chris Wilmer'
_symmetry_space_group_name_H-M	'P1'
_symmetry_Int_Tables_number	1
_symmetry_cell_setting	triclinic
loop_
_symmetry_equiv_pos_as_xyz
  x,y,z
_cell_length_a	14.044220
_cell_length_b	15.072220
_cell_length_c	15.995350
_cell_angle_alpha	89.998899
_cell_angle_beta	88.340626
_cell_angle_gamma	90.007881
loop_
_atom_site_label
_atom_site_type_symbol
_atom_site_fract_x
_atom_site_fract_y
_atom_site_fract_z
O1	O	1.257718	0.073680	0.201858
O2	O	1.757718	0.573680	0.701858
O3	O	0.981749	0.073703	0.194574
O4	O	1.481749	0.573703	0.694574
O5	O	1.127278	0.073690	0.076892
O6	O	1.627278	0.573690	0.576892
O7	O	1.112190	0.073693	0.319541
O8	O	1.612190	0.573693	0.819541
O9	O	1.127242	-0.073875	0.076897
O10	O	1.627242	0.426125	0.576897
O11	O	0.981713	-0.073862	0.194579
O12	O	1.481713	0.426138	0.694579
O13	O	1.257682	-0.073885	0.201863
O14	O	1.757682	0.426115	0.701863
Zn15	Zn	1.119692	-0.097303	0.198222
Zn16	Zn	1.619692	0.402697	0.698222
Zn17	Zn	1.119740	0.097121	0.198216
Zn18	Zn	1.619740	0.597121	0.698216
O19	O	1.112154	-0.073872	0.319545
O20	O	1.612154	0.426128	0.819545
C21	C	0.946417	-0.000077	0.191388
C22	C	1.446417	0.499923	0.691388
C23	C	0.841191	-0.000068	0.181877
C24	C	1.341191	0.499932	0.681877
N25	N	1.119667	-0.229992	0.198226
N26	N	1.619667	0.270008	0.698226
C27	C	0.648530	-0.000086	0.164489
C28	C	1.148530	0.499914	0.664489
C29	C	0.590896	-0.000089	0.231945
C30	C	1.090896	0.499911	0.731945
C31	C	0.483693	-0.000099	0.222270
C32	C	0.983693	0.499901	0.722270
C33	C	0.755743	-0.000076	0.174162
C34	C	1.255743	0.499924	0.674162
C35	C	1.119738	-0.589193	0.198212
C36	C	1.619738	-0.089193	0.698212
C37	C	1.041607	-0.551579	0.260931
C38	C	1.541607	-0.051579	0.760931
C39	C	1.041786	-0.448754	0.261195
C40	C	1.541786	0.051246	0.761195
C41	C	1.119702	-0.410989	0.198219
C42	C	1.619702	0.089011	0.698219
C43	C	1.218604	-0.448288	0.224687
C44	C	1.718604	0.051712	0.724687
C45	C	1.218166	-0.551146	0.225142
C46	C	1.718166	-0.051146	0.725142
C47	C	1.099848	-0.551292	0.108887
C48	C	1.599848	-0.051292	0.608887
C49	C	1.097578	-0.448429	0.109304
C50	C	1.597578	0.051571	0.609304
C51	C	1.119688	-0.310276	0.198221
C52	C	1.619688	0.189724	0.698221
C53	C	1.119758	-0.689907	0.198212
C54	C	1.619758	-0.189907	0.698212
C55	C	1.293015	-0.000104	0.205049
C56	C	1.793015	0.499896	0.705049
C57	C	1.398241	-0.000107	0.214560
C58	C	1.898241	0.499893	0.714560
C59	C	1.126636	-0.000091	0.045653
C60	C	1.626636	0.499909	0.545653
C61	C	1.124766	-0.000086	-0.047437
C62	C	1.624766	0.499914	0.452563
N63	N	1.119772	0.229809	0.198206
N64	N	1.619772	0.729809	0.698206
C65	C	1.118050	-0.000088	-0.385686
C66	C	1.618050	0.499912	0.114314
C67	C	1.014408	0.000251	-0.345993
C68	C	1.514408	0.500251	0.154007
C69	C	1.016278	-0.000081	-0.249163
C70	C	1.516278	0.499919	0.250837
C71	C	1.121381	-0.000086	-0.217877
C72	C	1.621381	0.499914	0.282123
C73	C	1.172481	-0.084356	-0.255134
C74	C	1.672481	0.415644	0.244866
C75	C	1.169877	-0.084426	-0.351964
C76	C	1.669877	0.415574	0.148036
C77	C	1.172059	0.083383	-0.352167
C78	C	1.672059	0.583383	0.147833
C79	C	1.172035	0.084496	-0.255224
C80	C	1.672035	0.584496	0.244776
C81	C	1.123269	-0.000088	-0.123038
C82	C	1.623269	0.499912	0.376962
C83	C	1.116165	-0.000092	-0.480525
C84	C	1.616165	0.499908	0.019475
C85	C	1.112796	-0.000089	0.350784
C86	C	1.612796	0.499911	0.850784
C87	C	1.114666	-0.000089	0.443874
C88	C	1.614666	0.499911	0.943874
H89	H	0.622068	-0.000084	0.296962
H90	H	1.122068	0.499916	0.796962
C91	C	0.606426	-0.000081	0.076662
C92	C	1.106426	0.499919	0.576662
H93	H	0.538852	-0.000078	0.081601
H94	H	1.038852	0.499922	0.581601
H95	H	0.627213	-0.051535	0.047097
H96	H	1.127213	0.448465	0.547097
H97	H	0.627221	0.051390	0.047111
H98	H	1.127221	0.551390	0.547111
C99	C	0.942470	-0.414683	0.238435
C100	C	1.442470	0.085317	0.738435
H101	H	0.901649	-0.463705	0.228948
H102	H	1.401649	0.036295	0.728948
H103	H	0.947670	-0.379546	0.189211
H104	H	1.447670	0.120454	0.689211
H105	H	0.916807	-0.379791	0.283121
H106	H	1.416807	0.120209	0.783121
H107	H	1.235693	-0.575129	0.290512
H108	H	1.735693	-0.075129	0.790512
H109	H	1.278122	-0.576026	0.181657
H110	H	1.778122	-0.076026	0.681657
C111	C	0.941971	-0.585030	0.238397
C112	C	1.441971	-0.085030	0.738397
H113	H	0.947124	-0.622240	0.190540
H114	H	1.447124	-0.122240	0.690540
H115	H	0.902250	-0.535831	0.226679
H116	H	1.402250	-0.035831	0.726679
H117	H	0.915074	-0.617679	0.284070
H118	H	1.415074	-0.117679	0.784070
H119	H	1.054133	-0.577418	0.326684
H120	H	1.554133	-0.077418	0.826684
H121	H	1.054487	-0.424140	0.327328
H122	H	1.554487	0.075860	0.827328
C123	C	1.121651	0.168720	-0.222104
C124	C	1.621651	0.668720	0.277896
H125	H	1.152622	0.219661	-0.244920
H126	H	1.652622	0.719661	0.255080
H127	H	1.124203	0.170267	-0.162842
H128	H	1.624203	0.670267	0.337158
H129	H	1.057045	0.168198	-0.238129
H130	H	1.557045	0.668198	0.261871
H131	H	1.278133	-0.423825	0.180530
H132	H	1.778133	0.076175	0.680530
H133	H	1.248682	0.089581	-0.234137
H134	H	1.748682	0.589581	0.265863
H135	H	1.248475	0.083945	-0.378221
H136	H	1.748475	0.583945	0.121779
C137	C	1.242849	-0.413488	0.312053
C138	C	1.742849	0.086512	0.812053
H139	H	1.192833	-0.376238	0.332518
H140	H	1.692833	0.123762	0.832518
H141	H	1.300538	-0.380617	0.308471
H142	H	1.800538	0.119383	0.808471
H143	H	1.250112	-0.462147	0.349078
H144	H	1.750112	0.037853	0.849078
H145	H	1.156825	-0.575616	0.062127
H146	H	1.656825	-0.075616	0.562127
H147	H	0.976109	0.060327	-0.223744
H148	H	1.476109	0.560327	0.276256
C149	C	1.004515	-0.586357	0.076996
C150	C	1.504515	-0.086357	0.576996
H151	H	0.975949	-0.624442	0.117866
H152	H	1.475949	-0.124442	0.617866
H153	H	1.015588	-0.618392	0.026504
H154	H	1.515588	-0.118392	0.526504
H155	H	0.963182	-0.537860	0.066966
H156	H	1.463182	-0.037860	0.566966
C157	C	0.999295	-0.415503	0.082397
C158	C	1.499295	0.084497	0.582397
H159	H	0.971853	-0.379085	0.125164
H160	H	1.471853	0.120915	0.625164
H161	H	0.958975	-0.464950	0.073217
H162	H	1.458975	0.035050	0.573217
H163	H	1.006426	-0.382139	0.032215
H164	H	1.506426	0.117861	0.532215
C165	C	1.169465	-0.413719	0.042525
C166	C	1.669465	0.086281	0.542525
H167	H	1.214115	-0.375774	0.068112
H168	H	1.714115	0.124226	0.568112
H169	H	1.136575	-0.381605	0.001197
H170	H	1.636575	0.118395	0.501197
H171	H	1.202078	-0.462372	0.017079
H172	H	1.702078	0.037628	0.517079
H173	H	1.245969	-0.088253	-0.378528
H174	H	1.745969	0.411747	0.121472
C175	C	0.958455	0.081879	-0.375218
C176	C	1.458455	0.581879	0.124782
H177	H	0.997796	0.116484	-0.411893
H178	H	1.497796	0.616484	0.088107
H179	H	0.939401	0.116583	-0.328067
H180	H	1.439401	0.616583	0.171933
H181	H	0.903652	0.062927	-0.403745
H182	H	1.403652	0.562927	0.096255
C183	C	0.958674	-0.080926	-0.376609
C184	C	1.458674	0.419074	0.123391
H185	H	0.998294	-0.115025	-0.413474
H186	H	1.498294	0.384975	0.086526
H187	H	0.904115	-0.061549	-0.405230
H188	H	1.404115	0.438451	0.094770
H189	H	0.939246	-0.116296	-0.330005
H190	H	1.439246	0.383704	0.169995
C191	C	0.961623	-0.081823	-0.215594
C192	C	1.461623	0.418177	0.284406
H193	H	0.938197	-0.114961	-0.261151
H194	H	1.438197	0.385039	0.238849
H195	H	0.909755	-0.063035	-0.180497
H196	H	1.409755	0.436965	0.319503
H197	H	1.003213	-0.117919	-0.184433
H198	H	1.503213	0.382081	0.315567
C199	C	1.119488	-0.169510	-0.380450
C200	C	1.619488	0.330490	0.119550
H201	H	1.100794	-0.203704	-0.332852
H202	H	1.600794	0.296296	0.167148
H203	H	1.161826	-0.203205	-0.415257
H204	H	1.661826	0.296795	0.084743
H205	H	1.064738	-0.154107	-0.410803
H206	H	1.564738	0.345893	0.089197
C207	C	1.276790	-0.088605	-0.228258
C208	C	1.776790	0.411395	0.271742
H209	H	1.290132	-0.038906	-0.193991
H210	H	1.790132	0.461094	0.306009
H211	H	1.317890	-0.087827	-0.276475
H212	H	1.817890	0.412173	0.223525
H213	H	1.286692	-0.141701	-0.197708
H214	H	1.786692	0.358299	0.302292
H215	H	1.136960	-0.147063	-0.229402
H216	H	1.636960	0.352937	0.270598
H217	H	1.138189	0.147254	-0.375240
H218	H	1.638189	0.647254	0.124760
