data_functionalizedCrystal
_audit_creation_method	'MofGen! by Chris Wilmer'
_symmetry_space_group_name_H-M	'P1'
_symmetry_Int_Tables_number	1
_symmetry_cell_setting	triclinic
loop_
_symmetry_equiv_pos_as_xyz
  x,y,z
_cell_length_a	30.700809
_cell_length_b	30.711276
_cell_length_c	30.700862
_cell_angle_alpha	59.998386
_cell_angle_beta	89.999414
_cell_angle_gamma	60.000191
loop_
_atom_site_label
_atom_site_type_symbol
_atom_site_fract_x
_atom_site_fract_y
_atom_site_fract_z
O1	O	-0.371254	-0.311651	0.012944
O2	O	-0.307913	-0.222487	-0.012907
O3	O	-0.307911	-0.311650	0.076286
O4	O	-0.371257	-0.222488	-0.076249
O5	O	-0.235466	-0.384070	0.076286
O6	O	-0.235468	-0.294907	-0.012907
O7	O	-0.298809	-0.384071	0.012944
Cu8	Cu	-0.260524	-0.346102	0.000018
Cu9	Cu	-0.346199	-0.260456	0.000019
O10	O	-0.298812	-0.294908	-0.076249
C11	C	-0.234796	-0.137097	-0.018777
C12	C	-0.261674	-0.083360	-0.015076
C13	C	-0.182374	-0.163176	-0.019143
C14	C	-0.234798	-0.215942	-0.018783
C15	C	-0.261678	-0.246507	-0.015089
C16	C	-0.182376	-0.241901	-0.019150
C17	C	-0.155920	-0.215947	-0.018777
C18	C	-0.098463	-0.246515	-0.015075
C19	C	-0.261132	-0.163172	-0.019150
C20	C	-0.574961	-0.535511	0.039265
C21	C	-0.548506	-0.588283	0.039634
C22	C	-0.496086	-0.535509	0.039262
C23	C	-0.469751	-0.588281	0.039632
C24	C	-0.496085	-0.614360	0.039265
C25	C	-0.548507	-0.509552	0.039632
C26	C	-0.765169	-0.393516	0.024987
C27	C	-0.819034	-0.364488	0.020950
C28	C	-0.846055	-0.389406	0.018925
C29	C	-0.904462	-0.357927	0.014538
C30	C	-0.819206	-0.443357	0.020941
C31	C	-0.765344	-0.472385	0.024984
C32	C	-0.738325	-0.447463	0.027007
C33	C	-0.447920	-0.790230	0.024988
C34	C	-0.423094	-0.840041	0.020951
C35	C	-0.371150	-0.865027	0.018921
C36	C	-0.344230	-0.919028	0.014536
C37	C	-0.344030	-0.840201	0.020935
C38	C	-0.368852	-0.790399	0.024981
C39	C	-0.420803	-0.765414	0.027004
C40	C	-0.447922	-0.393510	0.024977
C41	C	-0.423099	-0.364475	0.020931
C42	C	-0.371152	-0.389391	0.018903
C43	C	-0.344235	-0.357911	0.014513
C44	C	-0.344034	-0.443338	0.020916
C45	C	-0.368860	-0.472368	0.024960
C46	C	-0.420804	-0.447452	0.026995
C47	C	-0.679920	-0.478941	0.031387
C48	C	-0.633366	-0.504032	0.034880
C49	C	-0.469171	-0.504029	0.034875
C50	C	-0.447717	-0.478936	0.031380
C51	C	-0.469170	-0.668361	0.034880
C52	C	-0.447716	-0.711408	0.031386
C53	C	-0.496432	-0.071057	-0.503890
C54	C	-0.548853	-0.018285	-0.530226
C55	C	-0.496432	-0.071056	-0.425015
C56	C	-0.548854	-0.018284	-0.451470
C57	C	-0.575308	0.007793	-0.503892
C58	C	-0.470097	-0.097014	-0.451469
C59	C	-0.368666	-0.213054	-0.552051
C60	C	-0.343664	-0.242084	-0.576877
C61	C	-0.370616	-0.217167	-0.628824
C62	C	-0.343513	-0.248647	-0.655741
C63	C	-0.422570	-0.163216	-0.655945
C64	C	-0.447565	-0.134187	-0.631122
C65	C	-0.420611	-0.159108	-0.579173
C66	C	-0.765518	0.183662	-0.631659
C67	C	-0.819384	0.233473	-0.656662
C68	C	-0.846408	0.258459	-0.629712
C69	C	-0.904813	0.312461	-0.656813
C70	C	-0.819559	0.233635	-0.577758
C71	C	-0.765694	0.183833	-0.552761
C72	C	-0.738677	0.158847	-0.579717
C73	C	-0.368668	-0.213052	-0.234803
C74	C	-0.343669	-0.242086	-0.180935
C75	C	-0.370621	-0.217169	-0.153914
C76	C	-0.343519	-0.248648	-0.095506
C77	C	-0.422573	-0.163222	-0.180762
C78	C	-0.447570	-0.134193	-0.234627
C79	C	-0.420610	-0.159111	-0.261646
C80	C	-0.447720	-0.127629	-0.552258
C81	C	-0.469327	-0.102536	-0.530805
C82	C	-0.469328	-0.102535	-0.366609
C83	C	-0.447721	-0.127627	-0.320054
C84	C	-0.633714	0.061794	-0.530997
C85	C	-0.680269	0.104841	-0.552605
O86	O	0.076277	-0.384081	0.012960
O87	O	-0.076257	-0.294916	-0.012894
O88	O	0.012931	-0.384083	0.076300
O89	O	-0.012910	-0.294914	-0.076234
O90	O	0.012933	-0.311666	0.076306
O91	O	-0.076254	-0.222499	-0.012888
O92	O	0.076280	-0.311664	0.012966
Cu93	Cu	0.000013	-0.260469	0.000040
Cu94	Cu	0.000010	-0.346111	0.000033
O95	O	-0.012908	-0.222497	-0.076228
O96	O	-0.298805	0.063292	0.012964
O97	O	-0.235462	-0.063346	-0.012888
O98	O	-0.235465	-0.063353	0.076305
O99	O	-0.298803	0.063300	-0.076229
O100	O	-0.307912	-0.063350	0.076299
O101	O	-0.307909	-0.063342	-0.012895
O102	O	-0.371252	0.063295	0.012958
Cu103	Cu	-0.346196	-0.000023	0.000031
Cu104	Cu	-0.260519	-0.000027	0.000039
O105	O	-0.371250	0.063303	-0.076236
O106	O	-1.076607	0.456783	-0.692421
O107	O	-0.924074	0.330140	-0.629074
O108	O	-1.013262	0.330138	-0.629073
O109	O	-0.987418	0.456785	-0.692422
O110	O	-1.013261	0.330136	-0.701518
O111	O	-0.924072	0.330138	-0.701518
O112	O	-1.076605	0.456781	-0.764865
Cu113	Cu	-1.000338	0.393460	-0.739807
Cu114	Cu	-1.000340	0.393461	-0.654133
O115	O	-0.987417	0.456783	-0.764866
O116	O	-0.307911	-0.311650	-0.764507
O117	O	-0.371254	-0.222491	-0.701165
O118	O	-0.371252	-0.311652	-0.701162
O119	O	-0.307912	-0.222489	-0.764510
O120	O	-0.298806	-0.384074	-0.628716
O121	O	-0.298807	-0.294912	-0.628719
O122	O	-0.235464	-0.384072	-0.692061
Cu123	Cu	-0.260521	-0.346105	-0.653775
Cu124	Cu	-0.346197	-0.260458	-0.739451
O125	O	-0.235466	-0.294910	-0.692064
C126	C	-0.155920	-0.469469	0.234827
C127	C	-0.098464	-0.523208	0.261706
C128	C	-0.182375	-0.443392	0.261162
C129	C	-0.234797	-0.390619	0.155950
C130	C	-0.261676	-0.360052	0.098494
C131	C	-0.261132	-0.364662	0.182405
C132	C	-0.234797	-0.390620	0.234826
C133	C	-0.261675	-0.360052	0.261704
C134	C	-0.182375	-0.443391	0.182406
C135	C	0.018810	-0.390643	0.234846
C136	C	0.015111	-0.360079	0.261727
C137	C	0.019176	-0.443414	0.261179
C138	C	0.018812	-0.390637	0.155967
C139	C	0.015115	-0.360067	0.098511
C140	C	0.019178	-0.443408	0.182420
C141	C	0.018807	-0.469488	0.234841
C142	C	0.015106	-0.523226	0.261717
C143	C	0.019180	-0.364683	0.182425
C144	C	-0.234799	-0.215977	0.234834
C145	C	-0.261678	-0.246545	0.261708
C146	C	-0.182376	-0.241940	0.261172
C147	C	-0.234798	-0.137119	0.155964
C148	C	-0.261676	-0.083372	0.098509
C149	C	-0.182375	-0.163202	0.182421
C150	C	-0.155921	-0.215981	0.234841
C151	C	-0.098464	-0.246554	0.261721
C152	C	-0.261134	-0.163198	0.182415
C153	C	-0.039199	0.007461	-0.503869
C154	C	-0.039568	-0.018614	-0.530207
C155	C	-0.039203	-0.071390	-0.424995
C156	C	-0.039572	-0.097344	-0.451452
C157	C	-0.039201	-0.071385	-0.503874
C158	C	-0.039570	-0.018618	-0.451448
C159	C	-0.024912	0.183325	-0.552025
C160	C	-0.020873	0.233135	-0.576849
C161	C	-0.018844	0.258123	-0.628796
C162	C	-0.014454	0.312124	-0.655711
C163	C	-0.020859	0.233301	-0.655918
C164	C	-0.024906	0.183500	-0.631097
C165	C	-0.026932	0.158512	-0.579148
C166	C	-0.024920	-0.133799	-0.631644
C167	C	-0.020882	-0.162650	-0.656647
C168	C	-0.018855	-0.216605	-0.629699
C169	C	-0.014470	-0.247897	-0.656801
C170	C	-0.020872	-0.241704	-0.577746
C171	C	-0.024919	-0.212847	-0.552747
C172	C	-0.026939	-0.158893	-0.579702
C173	C	-0.024929	-0.133823	-0.234783
C174	C	-0.020887	-0.162684	-0.180915
C175	C	-0.018862	-0.216639	-0.153896
C176	C	-0.014477	-0.247936	-0.095488
C177	C	-0.020875	-0.241733	-0.180745
C178	C	-0.024915	-0.212872	-0.234610
C179	C	-0.026947	-0.158912	-0.261627
C180	C	-0.031316	0.104507	-0.552235
C181	C	-0.034811	0.061462	-0.530782
C182	C	-0.034820	-0.102682	-0.366590
C183	C	-0.031328	-0.127624	-0.320035
C184	C	-0.034816	-0.102672	-0.530980
C185	C	-0.031322	-0.127610	-0.552588
O186	O	-0.012940	-0.294936	0.371303
O187	O	0.012923	-0.384099	0.307961
O188	O	-0.076273	-0.294935	0.307950
O189	O	0.076257	-0.384100	0.371315
O190	O	-0.076265	-0.222515	0.235508
O191	O	0.012932	-0.311679	0.235520
O192	O	-0.012931	-0.222517	0.298862
Cu193	Cu	0.000001	-0.260485	0.260576
Cu194	Cu	-0.000009	-0.346130	0.346247
O195	O	0.076266	-0.311681	0.298873
C196	C	-0.574962	0.464558	-0.503864
C197	C	-0.548506	0.490518	-0.530195
C198	C	-0.496085	0.385697	-0.424987
C199	C	-0.469749	0.411776	-0.451438
C200	C	-0.496084	0.464555	-0.503857
C201	C	-0.548507	0.411779	-0.451444
C202	C	-0.765173	0.526994	-0.552039
C203	C	-0.819039	0.555852	-0.576867
C204	C	-0.846061	0.609814	-0.628812
C205	C	-0.904469	0.641114	-0.655732
C206	C	-0.819211	0.634913	-0.655928
C207	C	-0.765348	0.606050	-0.631102
C208	C	-0.738329	0.552088	-0.579155
C209	C	-0.447916	0.606561	-0.631604
C210	C	-0.423088	0.635592	-0.656601
C211	C	-0.371143	0.610674	-0.629648
C212	C	-0.344222	0.642150	-0.656742
C213	C	-0.344023	0.556716	-0.577696
C214	C	-0.368845	0.527681	-0.552704
C215	C	-0.420798	0.552613	-0.579664
C216	C	-0.447920	0.209802	-0.234786
C217	C	-0.423096	0.159988	-0.180919
C218	C	-0.371148	0.134996	-0.153895
C219	C	-0.344230	0.080987	-0.095489
C220	C	-0.344029	0.159823	-0.180737
C221	C	-0.368856	0.209637	-0.234602
C222	C	-0.420801	0.234620	-0.261624
C223	C	-0.679923	0.520797	-0.552238
C224	C	-0.633367	0.495853	-0.530781
C225	C	-0.469169	0.331687	-0.366583
C226	C	-0.447714	0.288634	-0.320030
C227	C	-0.469167	0.496035	-0.530956
C228	C	-0.447712	0.521128	-0.552558
H229	H	-0.304205	-0.141343	-0.019747
H230	H	-0.161141	-0.284407	0.304244
H231	H	-0.161137	-0.141349	-0.019737
O232	O	-0.498053	-0.081826	-0.657387
C233	C	-0.588924	-0.032281	-0.658412
C234	C	-0.531768	-0.091614	-0.628606
H235	H	-0.616201	-0.040179	-0.635160
H236	H	-0.589021	0.006707	-0.662360
H237	H	-0.603871	-0.019456	-0.699810
H238	H	-0.516785	-0.104496	-0.587194
H239	H	-0.531704	-0.130566	-0.624701
O240	O	0.019978	-0.469487	0.157094
C241	C	0.066963	-0.516607	0.113572
C242	C	0.066131	-0.487098	0.142250
H243	H	0.104268	-0.530842	0.101551
H244	H	0.067198	-0.558911	0.141496
H245	H	0.030012	-0.481870	0.076400
H246	H	0.103075	-0.521788	0.179419
H247	H	0.065868	-0.444783	0.114289
H248	H	-0.161136	-0.141377	0.161182
O249	O	-0.026945	-0.237239	-0.502309
C250	C	-0.074038	-0.266951	-0.444081
C251	C	-0.071802	-0.239330	-0.501223
H252	H	-0.110308	-0.268639	-0.443186
H253	H	-0.036231	-0.315553	-0.415912
H254	H	-0.077247	-0.237068	-0.430845
H255	H	-0.068611	-0.269166	-0.514509
H256	H	-0.109609	-0.190721	-0.529357
O257	O	-0.418357	-0.614264	0.040372
C258	C	-0.342453	-0.609399	0.041400
C259	C	-0.400651	-0.579915	0.040567
H260	H	-0.328124	-0.581633	0.041546
H261	H	-0.316151	-0.658679	0.078745
H262	H	-0.340011	-0.609692	0.004485
H263	H	-0.403144	-0.579578	0.077456
H264	H	-0.426926	-0.530651	0.003199
O265	O	-0.449349	0.687994	-0.707066
C266	C	-0.446157	0.767700	-0.780519
C267	C	-0.416350	0.708349	-0.723372
H268	H	-0.419495	0.784182	-0.793716
H269	H	-0.456913	0.758060	-0.808709
H270	H	-0.484152	0.804824	-0.781426
H271	H	-0.378337	0.671198	-0.722413
H272	H	-0.405636	0.718039	-0.695207
H273	H	0.019760	-0.465234	0.304248
H274	H	-0.346770	0.229846	-0.256454
O275	O	-0.739231	0.630416	-0.657360
C276	C	-0.690689	0.672725	-0.658364
C277	C	-0.720240	0.645125	-0.628567
H278	H	-0.675337	0.684637	-0.635104
H279	H	-0.655636	0.637783	-0.662314
H280	H	-0.719255	0.716232	-0.699761
H281	H	-0.691716	0.601625	-0.587156
H282	H	-0.755301	0.680107	-0.624661
H283	H	0.019773	-0.322218	0.161189
H284	H	-0.304201	-0.322192	0.161160
H285	H	-0.304205	-0.141373	0.161175
O286	O	-0.156993	-0.469383	0.312517
C287	C	-0.082293	-0.499179	0.373687
C288	C	-0.110983	-0.469724	0.315507
H289	H	-0.045083	-0.499476	0.376126
H290	H	-0.110200	-0.471452	0.388054
H291	H	-0.070340	-0.548460	0.399963
H292	H	-0.122939	-0.420447	0.289190
H293	H	-0.083059	-0.497497	0.301184
H294	H	-0.743523	0.163324	-0.653612
H295	H	-0.019210	0.253653	-0.698214
O296	O	-0.293558	-0.864417	0.019001
C297	C	-0.217766	-0.859303	0.019390
C298	C	-0.274918	-0.831829	0.021599
H299	H	-0.202682	-0.832959	0.021478
H300	H	-0.190531	-0.909833	0.054544
H301	H	-0.217789	-0.855431	-0.019529
H302	H	-0.274946	-0.835657	0.060495
H303	H	-0.302129	-0.781311	-0.013582
H304	H	-0.445180	-0.860248	0.019309
O305	O	-0.342590	-0.766178	0.026862
C306	C	-0.341575	-0.676353	-0.014471
C307	C	-0.371377	-0.703704	-0.016651
H308	H	-0.364831	-0.625843	-0.049653
H309	H	-0.337623	-0.680196	0.024430
H310	H	-0.300180	-0.702793	-0.016593
H311	H	-0.412787	-0.677285	-0.014550
H312	H	-0.375285	-0.699871	-0.055549
O313	O	-0.040320	-0.147976	-0.426054
C314	C	-0.041366	-0.222819	-0.345290
C315	C	-0.040521	-0.165481	-0.373988
H316	H	-0.041517	-0.236997	-0.303186
H317	H	-0.078712	-0.211771	-0.368291
H318	H	-0.004453	-0.262167	-0.343139
H319	H	-0.077408	-0.126108	-0.376147
H320	H	-0.003151	-0.176580	-0.350977
O321	O	-0.157065	-0.292608	-0.019787
C322	C	-0.125657	-0.398656	0.025151
C323	C	-0.154342	-0.341275	0.025931
H324	H	-0.123436	-0.438023	0.062115
H325	H	-0.148680	-0.387661	-0.012150
H326	H	-0.083580	-0.412776	0.024925
H327	H	-0.196419	-0.327126	0.026176
H328	H	-0.131278	-0.352302	0.063228
O329	O	-0.573756	0.541167	-0.581584
C330	C	-0.567849	0.616024	-0.657471
C331	C	-0.539190	0.558659	-0.599280
H332	H	-0.539919	0.630192	-0.671792
H333	H	-0.579818	0.605014	-0.683788
H334	H	-0.605047	0.655365	-0.659898
H335	H	-0.501974	0.519293	-0.596801
H336	H	-0.527261	0.569721	-0.572989
O337	O	-0.342555	-0.237178	-0.501594
C338	C	-0.346063	-0.227351	-0.428342
C339	C	-0.375701	-0.199986	-0.485474
H340	H	-0.372845	-0.197287	-0.415295
H341	H	-0.335301	-0.275916	-0.400067
H342	H	-0.308082	-0.229088	-0.427383
H343	H	-0.413701	-0.198207	-0.486485
H344	H	-0.386422	-0.151437	-0.513724
O345	O	-0.293573	0.532601	-0.551580
C346	C	-0.220273	0.542347	-0.555123
C347	C	-0.277413	0.569729	-0.584758
H348	H	-0.207186	0.572346	-0.581939
H349	H	-0.219249	0.540620	-0.517146
H350	H	-0.192067	0.493772	-0.544355
H351	H	-0.305652	0.618315	-0.595562
H352	H	-0.278394	0.571409	-0.622712
H353	H	-0.161128	-0.465208	0.161163
H354	H	-0.019230	-0.285631	-0.555806
O355	O	-0.418358	0.385646	-0.426028
C356	C	-0.342464	0.303883	-0.345247
C357	C	-0.400655	0.333400	-0.373962
H358	H	-0.328136	0.261645	-0.303143
H359	H	-0.316152	0.289542	-0.368236
H360	H	-0.340036	0.338644	-0.343096
H361	H	-0.403134	0.298672	-0.376121
H362	H	-0.426940	0.347754	-0.350963
H363	H	-0.569753	0.389964	-0.430206
H364	H	-0.040160	0.003216	-0.573279
H365	H	-0.040120	0.003178	-0.430195
O366	O	-0.449506	0.135931	-0.154932
C367	C	-0.530559	0.141371	-0.160788
C368	C	-0.500706	0.168667	-0.190285
H369	H	-0.571964	0.167835	-0.189355
H370	H	-0.507334	0.090851	-0.145407
H371	H	-0.534491	0.145245	-0.125747
H372	H	-0.496767	0.164837	-0.225347
H373	H	-0.523943	0.219175	-0.205627
H374	H	-0.019235	-0.142256	-0.159055
H375	H	-0.569747	-0.610106	0.040228
O376	O	-0.739566	0.159767	-0.502333
C377	C	-0.666682	0.137278	-0.445166
C378	C	-0.696230	0.164566	-0.502303
H379	H	-0.631632	0.141137	-0.445121
H380	H	-0.695211	0.163691	-0.430178
H381	H	-0.651307	0.086758	-0.417890
H382	H	-0.711607	0.215083	-0.529620
H383	H	-0.667680	0.138107	-0.517247
O384	O	-0.026870	-0.081429	-0.260941
C385	C	-0.026485	-0.006049	-0.255436
C386	C	-0.024271	-0.065394	-0.225743
H387	H	-0.024396	0.006940	-0.226994
H388	H	0.008666	-0.013960	-0.270832
H389	H	-0.065406	0.032833	-0.290481
H390	H	0.014627	-0.104305	-0.190676
H391	H	-0.059449	-0.057433	-0.210385
O392	O	-0.418695	-0.147634	-0.426085
C393	C	-0.328029	-0.191289	-0.382588
C394	C	-0.386215	-0.133918	-0.411323
H395	H	-0.301751	-0.180216	-0.370655
H396	H	-0.325573	-0.230640	-0.345372
H397	H	-0.313680	-0.205472	-0.410502
H398	H	-0.400601	-0.119680	-0.383451
H399	H	-0.388638	-0.094603	-0.448545
O400	O	-0.018819	-0.138316	-0.707072
C401	C	0.028261	-0.108561	-0.765293
C402	C	0.025991	-0.136137	-0.708163
H403	H	0.064481	-0.106778	-0.766196
H404	H	0.031536	-0.138456	-0.778542
H405	H	-0.009582	-0.059988	-0.793446
H406	H	0.063825	-0.184705	-0.679970
H407	H	0.022690	-0.106198	-0.694957
H408	H	-0.743487	-0.516312	0.026628
H409	H	-0.445184	-0.320548	0.019287
H410	H	-0.490217	0.230142	-0.256784
H411	H	-0.026563	0.162985	-0.509727
O412	O	-0.498369	0.630839	-0.657878
C413	C	-0.574180	0.712152	-0.738768
C414	C	-0.517041	0.684719	-0.709083
H415	H	-0.589298	0.755726	-0.780168
H416	H	-0.574188	0.677153	-0.742694
H417	H	-0.601372	0.723907	-0.715399
H418	H	-0.489817	0.672966	-0.732427
H419	H	-0.517076	0.719735	-0.705151
H420	H	-0.019230	0.253339	-0.554762
O421	O	-0.573914	-0.458905	0.040356
C422	C	-0.654697	-0.384029	0.041346
C423	C	-0.625983	-0.441395	0.040543
H424	H	-0.696804	-0.369847	0.041486
H425	H	-0.631713	-0.395045	0.078681
H426	H	-0.656841	-0.344696	0.004421
H427	H	-0.623832	-0.480753	0.077442
H428	H	-0.648978	-0.430328	0.003183
O429	O	-0.026834	0.159446	-0.657508
C430	C	-0.026423	0.164887	-0.738561
C431	C	-0.024225	0.192180	-0.708708
H432	H	-0.024326	0.191348	-0.779965
H433	H	0.008730	0.114365	-0.715334
H434	H	-0.065342	0.168768	-0.742494
H435	H	0.014671	0.188343	-0.704768
H436	H	-0.059405	0.242689	-0.731946
O437	O	-0.498394	-0.369204	0.026914
C438	C	-0.574190	-0.287931	0.026517
C439	C	-0.517037	-0.315382	0.024311
H440	H	-0.589276	-0.244418	0.024424
H441	H	-0.601423	-0.276096	-0.008636
H442	H	-0.574168	-0.322988	0.065437
H443	H	-0.517009	-0.280355	-0.014587
H444	H	-0.489829	-0.327231	0.059490
H445	H	-0.026568	-0.089866	-0.653596
O446	O	-0.026886	-0.237316	-0.260615
C447	C	-0.026404	-0.318793	-0.254751
C448	C	-0.024186	-0.291164	-0.225242
H449	H	-0.024211	-0.362341	-0.226162
H450	H	-0.065335	-0.283877	-0.289769
H451	H	0.008733	-0.330636	-0.270164
H452	H	-0.059296	-0.279323	-0.209794
H453	H	0.014767	-0.326097	-0.190250
H454	H	-0.019226	-0.285667	-0.158742
H455	H	-0.490218	-0.769893	0.026639
O456	O	-0.738993	-0.369253	0.026992
C457	C	-0.744501	-0.287975	0.026589
C458	C	-0.774211	-0.315385	0.024315
H459	H	-0.772965	-0.244411	0.024415
H460	H	-0.709485	-0.322993	0.065531
H461	H	-0.729065	-0.276210	-0.008537
H462	H	-0.789682	-0.327148	0.059414
H463	H	-0.809201	-0.280351	-0.014649
H464	H	-0.743179	0.483055	-0.509743
O465	O	-0.845046	0.531411	-0.550442
C466	C	-0.839185	0.449937	-0.469414
C467	C	-0.809672	0.477559	-0.499276
H468	H	-0.810595	0.406386	-0.428045
H469	H	-0.874195	0.484855	-0.465408
H470	H	-0.854609	0.438100	-0.492702
H471	H	-0.794214	0.489395	-0.476014
H472	H	-0.774688	0.442624	-0.503288
O473	O	-0.342432	-0.524784	0.026940
C474	C	-0.261400	-0.599927	0.026477
C475	C	-0.291265	-0.540571	0.024242
H476	H	-0.220031	-0.612702	0.024285
H477	H	-0.257396	-0.638930	0.065413
H478	H	-0.284684	-0.592067	-0.008655
H479	H	-0.268007	-0.548371	0.059346
H480	H	-0.295275	-0.501588	-0.014717
O481	O	-0.845546	0.687350	-0.706371
C482	C	-0.928601	0.766842	-0.779664
C483	C	-0.898845	0.707464	-0.722532
H484	H	-0.971695	0.783115	-0.792751
H485	H	-0.927900	0.804097	-0.780672
H486	H	-0.908219	0.757247	-0.807879
H487	H	-0.919204	0.716999	-0.694283
H488	H	-0.899542	0.670227	-0.721566
O489	O	-0.845189	-0.312033	0.018910
C490	C	-0.918030	-0.204493	-0.031521
C491	C	-0.888467	-0.263859	-0.029272
H492	H	-0.953020	-0.165526	-0.070478
H493	H	-0.933476	-0.212298	0.003592
H494	H	-0.889451	-0.191696	-0.029357
H495	H	-0.917015	-0.276688	-0.031452
H496	H	-0.873013	-0.256022	-0.064381
H497	H	-0.346761	0.483749	-0.510407
O498	O	-0.293594	0.135550	-0.154415
C499	C	-0.236529	0.112934	-0.081368
C500	C	-0.293666	0.140426	-0.111118
H501	H	-0.236570	0.116878	-0.046363
H502	H	-0.209304	0.062386	-0.065921
H503	H	-0.221416	0.139226	-0.109823
H504	H	-0.308827	0.114182	-0.082695
H505	H	-0.320855	0.190979	-0.126573
O506	O	-0.845538	-0.467464	0.018946
C507	C	-0.928587	-0.457718	0.012750
C508	C	-0.898835	-0.430340	0.014992
H509	H	-0.971680	-0.427722	0.009564
H510	H	-0.927892	-0.459437	-0.023503
H511	H	-0.908199	-0.506297	0.050573
H512	H	-0.919202	-0.381750	-0.022804
H513	H	-0.899527	-0.428668	0.051270
H514	H	-0.301736	-0.463624	0.019263
H515	H	-0.570092	0.003538	-0.430229
H516	H	-0.570087	0.003544	-0.573301
H517	H	-0.346709	-0.233340	-0.256801
O518	O	-0.293194	-0.294469	-0.154943
C519	C	-0.217579	-0.369642	-0.160792
C520	C	-0.274736	-0.310310	-0.190294
H521	H	-0.202642	-0.382476	-0.189357
H522	H	-0.190268	-0.361802	-0.145406
H523	H	-0.217526	-0.408601	-0.125753
H524	H	-0.274839	-0.271323	-0.225353
H525	H	-0.302022	-0.318202	-0.205640
H526	H	-0.301364	-0.286010	-0.554791
O527	O	-0.448830	-0.139001	-0.706379
C528	C	-0.525454	-0.109499	-0.764693
C529	C	-0.495772	-0.136922	-0.707555
H530	H	-0.563407	-0.107822	-0.765661
H531	H	-0.536255	-0.060911	-0.792936
H532	H	-0.498647	-0.139506	-0.777776
H533	H	-0.522549	-0.106962	-0.694423
H534	H	-0.484963	-0.185517	-0.679346
O535	O	-0.845390	0.257487	-0.707115
C536	C	-0.839530	0.252079	-0.782742
C537	C	-0.810017	0.224819	-0.725603
H538	H	-0.810941	0.225687	-0.797711
H539	H	-0.874540	0.248152	-0.782815
H540	H	-0.854955	0.302616	-0.810017
H541	H	-0.794558	0.174275	-0.698295
H542	H	-0.775033	0.228794	-0.725572
H543	H	-0.841561	0.253985	-0.555818
O544	O	-0.498025	-0.081778	-0.260634
C545	C	-0.573659	-0.006635	-0.254772
C546	C	-0.516516	-0.065991	-0.225260
H547	H	-0.588630	0.006140	-0.226182
H548	H	-0.573741	0.032369	-0.289786
H549	H	-0.600927	-0.014498	-0.270191
H550	H	-0.489215	-0.058188	-0.209807
H551	H	-0.516477	-0.104974	-0.190272
H552	H	-0.444519	-0.142934	-0.158758
