data_functionalizedCrystal
_audit_creation_method	'MofGen! by Chris Wilmer'
_symmetry_space_group_name_H-M	'P1'
_symmetry_Int_Tables_number	1
_symmetry_cell_setting	triclinic
loop_
_symmetry_equiv_pos_as_xyz
  x,y,z
_cell_length_a	12.594516
_cell_length_b	12.759395
_cell_length_c	12.759387
_cell_angle_alpha	89.980569
_cell_angle_beta	89.971510
_cell_angle_gamma	90.015898
loop_
_atom_site_label
_atom_site_type_symbol
_atom_site_fract_x
_atom_site_fract_y
_atom_site_fract_z
Zn1	Zn	-0.423690	1.606259	-0.593992
Zn2	Zn	-0.601708	1.606145	-0.418319
Zn3	Zn	-0.423743	1.430557	-0.418332
Zn4	Zn	-0.601627	1.430545	-0.593962
O5	O	-0.512692	1.518377	-0.506151
O6	O	-0.447317	1.753265	-0.570696
O7	O	-0.578156	1.582811	-0.271300
O8	O	-0.274790	1.453917	-0.441651
O9	O	-0.578105	1.753181	-0.441630
O10	O	-0.274752	1.583004	-0.570708
O11	O	-0.447407	1.453807	-0.271309
O12	O	-0.447328	1.283534	-0.441622
O13	O	-0.577967	1.453897	-0.740987
O14	O	-0.578018	1.283526	-0.570657
O15	O	-0.447238	1.582993	-0.741009
O16	O	-0.750643	1.582799	-0.441601
O17	O	-0.750583	1.453786	-0.570644
C18	C	-0.512671	1.245409	-0.506138
C19	C	-0.512687	1.128632	-0.506158
C20	C	-0.376717	1.128700	-0.640771
C21	C	-0.308745	1.073873	-0.708086
C22	C	-0.308764	0.964151	-0.708099
C23	C	-0.376760	0.909254	-0.640788
C24	C	-0.444732	0.964081	-0.573473
C25	C	-0.444708	1.073805	-0.573469
C26	C	-0.580695	0.964014	-0.438855
C27	C	-0.580684	1.073735	-0.438846
C28	C	-0.648692	0.909117	-0.371544
C29	C	-0.716671	0.963944	-0.304232
C30	C	-0.716650	1.073672	-0.304223
C31	C	-0.648656	1.128562	-0.371531
C32	C	-0.789233	1.518308	-0.506141
C33	C	-0.907538	1.518374	-0.506172
C34	C	-0.976798	1.448198	-0.576309
C35	C	-1.047667	1.422596	-0.480443
C36	C	-1.047468	1.544072	-0.602054
C37	C	-0.976849	1.492722	-0.410254
C38	C	-0.976644	1.614242	-0.531931
C39	C	-1.047482	1.588677	-0.435998
C40	C	-0.235071	1.518474	-0.506184
C41	C	-0.116766	1.518516	-0.506199
C42	C	-0.512588	1.518456	-0.780185
C43	C	-0.512543	1.518490	-0.896962
C44	C	-0.512714	1.792410	-0.506165
C45	C	-0.512723	1.909187	-0.506171
C46	C	-0.376424	1.652927	-0.897004
C47	C	-0.308348	1.720160	-0.951886
C48	C	-0.308310	1.720185	-1.061608
C49	C	-0.376351	1.652968	-1.116450
C50	C	-0.444427	1.585735	-1.061568
C51	C	-0.444461	1.585719	-0.951844
C52	C	-0.580539	1.451295	-1.061525
C53	C	-0.580585	1.451273	-0.951803
C54	C	-0.648581	1.384078	-1.116367
C55	C	-0.716664	1.316848	-1.061485
C56	C	-0.716701	1.316826	-0.951757
C57	C	-0.648661	1.384040	-0.896921
C58	C	-0.512719	1.518358	-0.233184
C59	C	-0.512464	1.518528	-0.116407
H60	H	-0.376761	0.819913	-0.640796
H61	H	-1.078887	1.341588	-0.458677
H62	H	-0.772125	1.262065	-0.907078
N63	N	-0.937490	1.715844	-0.559300
N64	N	-0.960037	1.754935	-0.646327
H65	H	-0.932384	1.826693	-0.665668
H66	H	-0.772052	1.262120	-1.106146
H67	H	-0.945761	1.388745	-0.635536
H68	H	-0.771998	1.118306	-0.249403
N69	N	-0.239292	1.129965	-0.776827
N70	N	-0.239280	1.227930	-0.776810
H71	H	-0.190227	1.267544	-0.825357
H72	H	-0.376305	1.652986	-1.205791
H73	H	-0.648689	1.384033	-0.807580
H74	H	-0.376690	1.218041	-0.640762
H75	H	-0.253409	0.919511	-0.762907
N76	N	-0.648698	0.797039	-0.371540
N77	N	-0.565652	0.748062	-0.349729
H78	H	-0.565658	0.668906	-0.349725
N79	N	-0.938115	1.465409	-0.308512
N80	N	-0.961491	1.520720	-0.231028
H81	H	-0.934132	1.501426	-0.159175
H82	H	-1.078322	1.648084	-0.376628
H83	H	-1.078489	1.565749	-0.683131
H84	H	-0.252870	1.774926	-1.106293
N85	N	-0.786103	0.907853	-0.235480
N86	N	-0.786100	0.809888	-0.235492
H87	H	-0.835138	0.770269	-0.186935
N88	N	-0.376460	1.652925	-0.784927
N89	N	-0.315712	1.712945	-0.735974
H90	H	-0.315735	1.712946	-0.656818
H91	H	-0.252948	1.774884	-0.907222
N92	N	-0.648536	1.384124	-1.228444
N93	N	-0.670783	1.466081	-1.277420
H94	H	-0.670754	1.466117	-1.356576
N95	N	-0.648626	1.240639	-0.371541
N96	N	-0.587914	1.289637	-0.431644
H97	H	-0.587887	1.368793	-0.431653
