data_functionalizedCrystal
_audit_creation_method	'MofGen! by Chris Wilmer'
_symmetry_space_group_name_H-M	'P1'
_symmetry_Int_Tables_number	1
_symmetry_cell_setting	triclinic
loop_
_symmetry_equiv_pos_as_xyz
  x,y,z
_cell_length_a	13.635800
_cell_length_b	17.110477
_cell_length_c	12.908943
_cell_angle_alpha	83.554992
_cell_angle_beta	100.860631
_cell_angle_gamma	80.939702
loop_
_atom_site_label
_atom_site_type_symbol
_atom_site_fract_x
_atom_site_fract_y
_atom_site_fract_z
V1	V	1.987193	-0.108495	0.328547
O2	O	1.992782	0.006230	0.322433
O3	O	1.952230	-0.216105	0.326166
O4	O	1.956544	-0.106380	0.471899
O5	O	1.988438	-0.104255	0.175690
V6	V	2.231237	-0.094826	0.310281
O7	O	2.112815	-0.138481	0.368616
O8	O	2.330714	-0.064840	0.270211
O9	O	2.154596	0.012785	0.312662
O10	O	2.284347	-0.209551	0.316395
O11	O	2.288690	-0.099066	0.463138
O12	O	2.150283	-0.096940	0.166928
V13	V	2.487193	-0.108495	0.328547
O14	O	2.492782	0.006230	0.322433
O15	O	2.452230	-0.216105	0.326166
O16	O	2.456544	-0.106380	0.471899
O17	O	2.488438	-0.104255	0.175690
V18	V	2.731237	-0.094826	0.310281
O19	O	2.612815	-0.138481	0.368616
O20	O	2.830714	-0.064840	0.270211
O21	O	2.654596	0.012785	0.312662
O22	O	2.784347	-0.209551	0.316395
O23	O	2.788690	-0.099066	0.463138
O24	O	2.650283	-0.096940	0.166928
C25	C	1.872321	-0.242352	0.320948
C26	C	1.884336	-0.330322	0.319956
C27	C	1.980386	-0.375665	0.324744
C28	C	1.991669	-0.458323	0.323818
C29	C	1.906901	-0.495635	0.318098
C30	C	1.810844	-0.450286	0.313313
C31	C	1.799562	-0.367631	0.314246
C32	C	1.936442	-0.745000	0.315024
C33	C	1.947731	-0.827661	0.314088
C34	C	2.128556	-0.835692	0.324595
C35	C	2.117265	-0.753034	0.325522
C36	C	2.021210	-0.707693	0.320743
C37	C	1.918432	-0.580124	0.317148
C38	C	2.009681	-0.623207	0.321700
C39	C	1.877823	-0.102386	0.506844
C40	C	1.893335	-0.101369	0.624035
C41	C	2.066176	0.039027	0.317877
C42	C	2.043780	0.126997	0.318875
C43	C	2.060674	-0.100937	0.131978
C44	C	2.034782	-0.101950	0.014787
C45	C	2.372321	-0.242352	0.320948
C46	C	2.384336	-0.330322	0.319956
C47	C	2.377823	-0.102386	0.506844
C48	C	2.393335	-0.101369	0.624035
C49	C	2.103323	-0.107311	0.854974
C50	C	2.117903	-0.106355	0.965085
C51	C	1.937074	-0.098498	0.954369
C52	C	1.922494	-0.099453	0.844258
C53	C	2.005623	-0.103861	0.794565
C54	C	1.991044	-0.104822	0.684453
C55	C	1.810215	-0.096958	0.673737
C56	C	1.824794	-0.096003	0.783848
C57	C	2.566176	0.039027	0.317877
C58	C	2.543780	0.126997	0.318875
C59	C	2.560674	-0.100937	0.131978
C60	C	2.534782	-0.101950	0.014787
C61	C	2.480395	-0.375653	0.324753
C62	C	2.491700	-0.458312	0.323837
C63	C	2.406944	-0.495639	0.318118
C64	C	2.310877	-0.450302	0.313324
C65	C	2.299574	-0.367645	0.314247
C66	C	2.603323	-0.107311	0.854974
C67	C	2.617903	-0.106355	0.965085
C68	C	2.437074	-0.098498	0.954369
C69	C	2.422494	-0.099453	0.844258
C70	C	2.505623	-0.103861	0.794565
C71	C	2.491044	-0.104822	0.684453
C72	C	2.310215	-0.096958	0.673737
C73	C	2.324794	-0.096003	0.783848
C74	C	2.620215	0.172327	0.314082
C75	C	2.599181	0.254985	0.315003
C76	C	2.501714	0.292312	0.320725
C77	C	2.425274	0.246976	0.325515
C78	C	2.446306	0.164320	0.324587
H79	H	2.069882	-0.495238	0.327718
H80	H	2.699583	0.141947	0.309424
O81	O	2.221932	-0.879669	0.329393
C82	C	2.287973	-0.872392	0.424541
H83	H	2.258673	-0.814724	0.454299
H84	H	2.367193	-0.870885	0.408758
H85	H	2.291456	-0.925680	0.487506
H86	H	1.869398	-0.094904	0.994847
O87	O	2.684164	-0.111706	0.806837
C88	C	2.754228	-0.182684	0.851203
H89	H	2.742945	-0.203811	0.934370
H90	H	2.834851	-0.170777	0.856671
H91	H	2.741544	-0.230858	0.798447
O92	O	2.071693	-0.108994	0.636036
C93	C	2.057164	-0.040964	0.558461
H94	H	1.972640	-0.014759	0.532570
H95	H	2.087771	-0.058774	0.486498
H96	H	2.099333	0.005649	0.593584
H97	H	2.661435	0.291887	0.311103
O98	O	2.184164	-0.111706	0.806837
C99	C	2.254228	-0.182684	0.851203
H100	H	2.242945	-0.203811	0.934370
H101	H	2.334851	-0.170777	0.856671
H102	H	2.241544	-0.230858	0.798447
O103	O	1.728495	-0.486512	0.307941
C104	C	1.684523	-0.474317	0.396666
H105	H	1.743971	-0.461262	0.464102
H106	H	1.655561	-0.530362	0.424446
H107	H	1.618482	-0.421466	0.373198
H108	H	2.230659	-0.094152	0.624541
O109	O	2.585014	-0.502282	0.328295
C110	C	2.623437	-0.474041	0.240011
H111	H	2.557768	-0.441676	0.173098
H112	H	2.667253	-0.526700	0.210997
H113	H	2.676359	-0.430913	0.264547
H114	H	2.697458	-0.109165	1.014267
O115	O	1.715362	-0.093768	0.615008
C116	C	1.713083	-0.162935	0.565300
H117	H	1.793242	-0.189380	0.558156
H118	H	1.661926	-0.146527	0.482426
H119	H	1.682238	-0.208827	0.615122
H120	H	2.186296	-0.722661	0.330187
H121	H	1.757116	-0.092412	0.824323
H122	H	2.416161	-0.562944	0.317367
O123	O	2.206176	-0.323727	0.309521
C124	C	2.133806	-0.374408	0.304298
H125	H	2.163338	-0.430681	0.271666
H126	H	2.059571	-0.341873	0.249468
H127	H	2.119988	-0.391651	0.387534
O128	O	2.330596	0.283132	0.331225
C129	C	2.305903	0.250054	0.425924
H130	H	2.353573	0.187688	0.454321
H131	H	2.221890	0.245925	0.410086
H132	H	2.322276	0.289801	0.489938
O133	O	2.356396	-0.094107	1.002752
C134	C	2.347898	-0.024497	1.051874
H135	H	2.424744	-0.004827	1.068265
H136	H	2.322487	-0.037632	1.130243
H137	H	2.289593	0.025254	0.996839
O138	O	1.706307	-0.323569	0.309782
C139	C	1.708184	-0.285964	0.401705
H140	H	1.772540	-0.320466	0.468506
H141	H	1.632726	-0.284984	0.427852
H142	H	1.720803	-0.222036	0.383091
H143	H	1.849415	-0.610512	0.312487
H144	H	2.197458	-0.109165	1.014267
H145	H	2.549418	-0.345272	0.329403
H146	H	2.558733	-0.108414	0.643995
H147	H	2.241873	-0.480706	0.308667
H148	H	2.257116	-0.092412	0.824323
O149	O	2.481378	0.372626	0.321483
C150	C	2.498979	0.412898	0.227190
H151	H	2.554179	0.371087	0.193004
H152	H	2.532851	0.467806	0.245858
H153	H	2.424143	0.432366	0.166462
O154	O	1.865476	-0.864011	0.308681
C155	C	1.880394	-0.922032	0.399547
H156	H	1.965186	-0.941391	0.434538
H157	H	1.846957	-0.976102	0.376039
H158	H	1.841101	-0.895524	0.461537
O159	O	2.062671	-0.339364	0.330109
C160	C	2.047741	-0.281319	0.239266
H161	H	1.990186	-0.296636	0.171903
H162	H	2.122944	-0.280424	0.213143
H163	H	2.018021	-0.219962	0.259295
O164	O	1.843058	-0.701075	0.310321
C165	C	1.770667	-0.751738	0.305094
H166	H	1.800173	-0.808008	0.272442
H167	H	1.696434	-0.719184	0.250278
H168	H	1.756857	-0.768987	0.388331
H169	H	2.384062	0.127416	0.328500
H170	H	2.078699	-0.592824	0.326363
