data_functionalizedCrystal
_audit_creation_method	'MofGen! by Chris Wilmer'
_symmetry_space_group_name_H-M	'P1'
_symmetry_Int_Tables_number	1
_symmetry_cell_setting	triclinic
loop_
_symmetry_equiv_pos_as_xyz
  x,y,z
_cell_length_a	14.908795
_cell_length_b	14.908520
_cell_length_c	18.215399
_cell_angle_alpha	93.269364
_cell_angle_beta	86.680037
_cell_angle_gamma	96.791092
loop_
_atom_site_label
_atom_site_type_symbol
_atom_site_fract_x
_atom_site_fract_y
_atom_site_fract_z
Zn1	Zn	1.363047	-0.280636	-0.493576
Zn2	Zn	1.863047	0.219364	0.006424
Zn3	Zn	1.354205	-0.432014	-0.377216
Zn4	Zn	1.854205	0.067986	0.122784
Zn5	Zn	1.211674	-0.289386	-0.363799
Zn6	Zn	1.711674	0.210614	0.136201
Zn7	Zn	1.202907	-0.440680	-0.493517
Zn8	Zn	1.702907	0.059320	0.006483
O9	O	1.282958	-0.360679	-0.432027
O10	O	1.782958	0.139321	0.067973
O11	O	1.488543	-0.293428	-0.483780
O12	O	1.988543	0.206572	0.016220
O13	O	1.335267	-0.413129	-0.272452
O14	O	1.835267	0.086871	0.227548
O15	O	1.239122	-0.161555	-0.375424
O16	O	1.739122	0.338445	0.124576
O17	O	1.482047	-0.404645	-0.398292
O18	O	1.982047	0.095355	0.101708
O19	O	1.350336	-0.155127	-0.470770
O20	O	1.850336	0.344873	0.029230
O21	O	1.230549	-0.308341	-0.262595
O22	O	1.730549	0.191659	0.237405
O23	O	1.083842	-0.316744	-0.375367
O24	O	1.583842	0.183256	0.124633
O25	O	1.224182	-0.419415	-0.596509
O26	O	1.724182	0.080585	-0.096509
O27	O	1.077401	-0.427899	-0.470670
O28	O	1.577401	0.072101	0.029330
O29	O	1.341836	-0.301831	-0.596552
O30	O	1.841836	0.198169	-0.096552
O31	O	1.326767	-0.559833	-0.398234
O32	O	1.826767	-0.059833	0.101766
O33	O	1.215609	-0.566200	-0.483680
O34	O	1.715609	-0.066200	0.016320
C35	C	1.047778	-0.374212	-0.421557
C36	C	1.547778	0.125788	0.078443
C37	C	0.947165	-0.380023	-0.417096
C38	C	1.447165	0.119977	0.082904
C39	C	0.801981	-0.446022	-0.366222
C40	C	1.301981	0.053978	0.133778
C41	C	0.896515	-0.440565	-0.370413
C42	C	1.396515	0.059435	0.129587
C43	C	0.903274	-0.324931	-0.459588
C44	C	1.403274	0.175069	0.040412
C45	C	0.808739	-0.330388	-0.455397
C46	C	1.308739	0.169612	0.044603
C47	C	0.758096	-0.390936	-0.408713
C48	C	1.258096	0.109064	0.091287
C49	C	0.663560	-0.396396	-0.404526
C50	C	1.163560	0.103604	0.095474
C51	C	0.670320	-0.280758	-0.493697
C52	C	1.170320	0.219242	0.006303
C53	C	0.764855	-0.275302	-0.497888
C54	C	1.264855	0.224698	0.002112
C55	C	1.269301	-0.595859	-0.442424
C56	C	1.769301	-0.095859	0.057576
C57	C	1.263542	-0.696466	-0.446900
C58	C	1.763542	-0.196466	0.053100
C59	C	1.368587	-0.878818	-0.366418
C60	C	1.868587	-0.378818	0.133582
C61	C	1.363178	-0.973346	-0.370621
C62	C	1.863178	-0.473346	0.129379
C63	C	1.247321	-0.980052	-0.459514
C64	C	1.747321	-0.480052	0.040486
C65	C	1.252730	-0.885524	-0.455310
C66	C	1.752730	-0.385524	0.044690
C67	C	1.313364	-0.834910	-0.408760
C68	C	1.813364	-0.334910	0.091240
C69	C	1.318767	-0.740380	-0.404553
C70	C	1.818767	-0.240380	0.095447
C71	C	1.202915	-0.747087	-0.493449
C72	C	1.702915	-0.247087	0.006551
C73	C	1.197506	-0.841616	-0.497652
C74	C	1.697506	-0.341616	0.002348
C75	C	1.519057	-0.347094	-0.442539
C76	C	2.019057	0.152906	0.057461
C77	C	1.619669	-0.341305	-0.447019
C78	C	2.119669	0.158695	0.052981
C79	C	1.283017	-0.360613	-0.623980
C80	C	1.783017	0.139387	-0.123980
C81	C	1.283042	-0.360585	-0.705779
C82	C	1.783042	0.139415	-0.205779
C83	C	1.296693	-0.124579	-0.421607
C84	C	1.796693	0.375421	0.078393
C85	C	1.302546	-0.023967	-0.417167
C86	C	1.802546	0.476033	0.082833
C87	C	1.344328	-0.299304	-0.893995
C88	C	1.844328	0.200696	-0.393995
C89	C	1.344341	-0.299277	-0.970853
C90	C	1.844341	0.200723	-0.470853
C91	C	1.221828	-0.421723	-0.970797
C92	C	1.721828	0.078277	-0.470797
C93	C	1.221812	-0.421745	-0.893940
C94	C	1.721812	0.078255	-0.393940
C95	C	1.283067	-0.360537	-0.855541
C96	C	1.783067	0.139463	-0.355541
C97	C	1.283096	-0.360488	-1.009256
C98	C	1.783096	0.139512	-0.509256
C99	C	1.283108	-0.360459	-1.092589
C100	C	1.783108	0.139541	-0.592589
C101	C	1.283054	-0.360564	-0.772203
C102	C	1.783054	0.139436	-0.272203
C103	C	1.282956	-0.360676	-0.240821
C104	C	1.782956	0.139324	0.259179
C105	C	1.283121	-0.360439	-0.159019
C106	C	1.783121	0.139561	0.340981
H107	H	0.932242	-0.485421	-0.335812
H108	H	1.432242	0.014579	0.164188
H109	H	0.944524	-0.275631	-0.497592
H110	H	1.444524	0.224369	0.002408
Br111	Br	1.138703	-0.504790	-1.022914
Br112	Br	1.638703	-0.004790	-0.522914
Br113	Br	0.833592	-0.193132	-0.561240
Br114	Br	1.333592	0.306868	-0.061240
Br115	Br	1.401049	-0.671690	-0.341374
Br116	Br	1.901049	-0.171690	0.158626
H117	H	0.634580	-0.235905	-0.528298
H118	H	1.134580	0.264095	-0.028298
Br119	Br	1.138658	-0.504845	-0.841747
Br120	Br	1.638658	-0.004845	-0.341747
Br121	Br	0.594830	-0.478575	-0.341177
Br122	Br	1.094830	0.021425	0.158823
H123	H	1.417951	-0.837608	-0.328509
H124	H	1.917951	-0.337608	0.171491
Br125	Br	1.165054	-1.048757	-0.522697
Br126	Br	1.665054	-0.548757	-0.022697
H127	H	0.760746	-0.495330	-0.328216
H128	H	1.260746	0.004670	0.171784
Br129	Br	1.438131	-1.032934	-0.313158
Br130	Br	1.938131	-0.532934	0.186842
H131	H	1.148143	-0.882838	-0.535554
H132	H	1.648143	-0.382838	-0.035554
Br133	Br	1.127949	-0.687495	-0.550904
Br134	Br	1.627949	-0.187495	-0.050904
Br135	Br	1.427491	-0.216178	-1.023038
Br136	Br	1.927491	0.283822	-0.523038
Br137	Br	1.427458	-0.216235	-0.841884
Br138	Br	1.927458	0.283765	-0.341884
