data_functionalizedCrystal
_audit_creation_method	'MofGen! by Chris Wilmer'
_symmetry_space_group_name_H-M	'P1'
_symmetry_Int_Tables_number	1
_symmetry_cell_setting	triclinic
loop_
_symmetry_equiv_pos_as_xyz
  x,y,z
_cell_length_a	17.038272
_cell_length_b	22.010155
_cell_length_c	17.038272
_cell_angle_alpha	89.996037
_cell_angle_beta	88.888444
_cell_angle_gamma	90.010089
loop_
_atom_site_label
_atom_site_type_symbol
_atom_site_fract_x
_atom_site_fract_y
_atom_site_fract_z
O1	O	1.048767	0.050450	-0.170536
O2	O	1.382101	0.383783	0.162797
O3	O	1.715434	0.717116	0.496131
O4	O	0.820956	0.050468	-0.167828
O5	O	1.154289	0.383801	0.165505
O6	O	1.487623	0.717134	0.498839
O7	O	0.933508	0.050454	-0.055276
O8	O	1.266841	0.383787	0.278057
O9	O	1.600174	0.717121	0.611391
O10	O	0.936216	0.050463	-0.283088
O11	O	1.269549	0.383797	0.050246
O12	O	1.602882	0.717130	0.383579
O13	O	0.933471	-0.050596	-0.055274
O14	O	1.266805	0.282737	0.278060
O15	O	1.600138	0.616070	0.611393
O16	O	0.820920	-0.050583	-0.167825
O17	O	1.154253	0.282751	0.165508
O18	O	1.487586	0.616084	0.498841
O19	O	1.048731	-0.050601	-0.170533
O20	O	1.382064	0.282733	0.162800
O21	O	1.715398	0.616066	0.496133
Cu22	Cu	0.934822	-0.059818	-0.169179
Cu23	Cu	1.268155	0.273515	0.164154
Cu24	Cu	1.601489	0.606848	0.497488
Cu25	Cu	0.934865	0.059685	-0.169182
Cu26	Cu	1.268198	0.393019	0.164151
Cu27	Cu	1.601532	0.726352	0.497485
O28	O	0.936179	-0.050587	-0.283085
O29	O	1.269513	0.282746	0.050248
O30	O	1.602846	0.616080	0.383582
C31	C	0.791645	-0.000055	-0.165364
C32	C	1.124978	0.333278	0.167970
C33	C	1.458312	0.666611	0.501303
C34	C	0.704361	-0.000049	-0.158016
C35	C	1.037695	0.333285	0.175318
C36	C	1.371028	0.666618	0.508651
N37	N	0.934797	-0.143871	-0.169177
N38	N	1.268131	0.189462	0.164157
N39	N	1.601464	0.522796	0.497490
C40	C	0.658752	-0.000046	-0.225479
C41	C	0.992085	0.333287	0.107854
C42	C	1.325419	0.666620	0.441187
C43	C	0.576740	-0.000055	-0.218570
C44	C	0.910074	0.333278	0.114763
C45	C	1.243407	0.666612	0.448096
C46	C	0.540339	-0.000062	-0.144197
C47	C	0.873672	0.333272	0.189136
C48	C	1.207006	0.666605	0.522470
C49	C	0.585954	-0.000066	-0.076728
C50	C	0.919288	0.333268	0.256605
C51	C	1.252621	0.666601	0.589938
C52	C	0.667965	-0.000062	-0.083638
C53	C	1.001298	0.333272	0.249695
C54	C	1.334631	0.666605	0.583029
C55	C	0.292951	-0.000079	-0.119787
C56	C	0.626285	0.333254	0.213547
C57	C	0.959618	0.666588	0.546880
C58	C	0.210935	-0.000081	-0.112882
C59	C	0.544268	0.333252	0.220451
C60	C	0.877601	0.666585	0.553785
C61	C	0.201726	-0.000072	-0.254725
C62	C	0.535060	0.333262	0.078609
C63	C	0.868393	0.666595	0.411942
C64	C	0.283739	-0.000064	-0.261628
C65	C	0.617072	0.333269	0.071706
C66	C	0.950405	0.666603	0.405039
C67	C	0.329347	-0.000071	-0.194159
C68	C	0.662680	0.333262	0.139174
C69	C	0.996013	0.666595	0.472508
C70	C	0.456510	-0.000069	-0.137133
C71	C	0.789843	0.333265	0.196200
C72	C	1.123177	0.666598	0.529533
C73	C	0.413174	-0.000069	-0.201224
C74	C	0.746508	0.333265	0.132110
C75	C	1.079841	0.666598	0.465443
C76	C	0.985664	-0.563652	-0.220000
C77	C	1.318997	-0.230319	0.113333
C78	C	1.652331	0.103014	0.446666
C79	C	0.985673	-0.627260	-0.219999
C80	C	1.319006	-0.293927	0.113334
C81	C	1.652340	0.039407	0.446668
O82	O	1.028893	-0.660153	-0.263204
O83	O	1.362226	-0.326820	0.070130
O84	O	1.695560	0.006514	0.403463
N85	N	0.934880	-0.659078	-0.169174
N86	N	1.268213	-0.325745	0.164159
N87	N	1.601546	0.007589	0.497492
C88	C	0.884079	-0.627285	-0.118342
C89	C	1.217413	-0.293952	0.214991
C90	C	1.550746	0.039381	0.548325
O91	O	0.840877	-0.660190	-0.075111
O92	O	1.174210	-0.326856	0.258223
O93	O	1.507544	0.006477	0.591556
C94	C	0.884075	-0.563679	-0.118340
C95	C	1.217408	-0.230346	0.214993
C96	C	1.550741	0.102988	0.548327
C97	C	0.934866	-0.531864	-0.169174
C98	C	1.268199	-0.198531	0.164160
C99	C	1.601533	0.134803	0.497493
C100	C	1.036452	-0.531837	-0.270829
C101	C	1.369785	-0.198504	0.062504
C102	C	1.703118	0.134829	0.395837
C103	C	1.036441	-0.468234	-0.270831
C104	C	1.369775	-0.134901	0.062502
C105	C	1.703108	0.198433	0.395835
C106	C	0.985643	-0.436446	-0.220005
C107	C	1.318977	-0.103113	0.113329
C108	C	1.652310	0.230221	0.446662
C109	C	0.934856	-0.468261	-0.169176
C110	C	1.268189	-0.134927	0.164158
C111	C	1.601522	0.198406	0.497491
C112	C	0.833279	-0.531887	-0.067504
C113	C	1.166612	-0.198554	0.265829
C114	C	1.499946	0.134779	0.599163
C115	C	0.833279	-0.468277	-0.067506
C116	C	1.166613	-0.134943	0.265827
C117	C	1.499946	0.198390	0.599161
C118	C	0.884070	-0.436462	-0.118340
C119	C	1.217404	-0.103128	0.214994
C120	C	1.550737	0.230205	0.548327
C121	C	0.884047	-0.372869	-0.118351
C122	C	1.217381	-0.039536	0.214982
C123	C	1.550714	0.293797	0.548316
N124	N	0.934841	-0.341051	-0.169176
N125	N	1.268174	-0.007718	0.164158
N126	N	1.601507	0.325616	0.497491
C127	C	0.985639	-0.372839	-0.220003
C128	C	1.318972	-0.039506	0.113331
C129	C	1.652305	0.293827	0.446664
C130	C	0.884094	-0.760863	-0.118349
C131	C	1.217427	-0.427530	0.214984
C132	C	1.550761	-0.094196	0.548318
C133	C	0.884094	-0.824468	-0.118354
C134	C	1.217427	-0.491135	0.214979
C135	C	1.550761	-0.157802	0.548312
C136	C	0.985689	-0.824439	-0.220011
C137	C	1.319022	-0.491105	0.113323
C138	C	1.652356	-0.157772	0.446656
C139	C	0.985684	-0.760832	-0.220009
C140	C	1.319018	-0.427499	0.113325
C141	C	1.652351	-0.094165	0.446658
C142	C	0.934887	-0.729045	-0.169174
C143	C	1.268221	-0.395712	0.164160
C144	C	1.601554	-0.062378	0.497493
C145	C	0.985613	-0.239268	-0.220004
C146	C	1.318946	0.094065	0.113330
C147	C	1.652279	0.427399	0.446663
C148	C	0.985595	-0.175659	-0.220004
C149	C	1.318929	0.157674	0.113330
C150	C	1.652262	0.491007	0.446663
C151	C	0.884004	-0.175695	-0.118345
C152	C	1.217337	0.157639	0.214989
C153	C	1.550670	0.490972	0.548322
C154	C	0.884018	-0.239298	-0.118347
C155	C	1.217351	0.094035	0.214986
C156	C	1.550684	0.427369	0.548319
C157	C	0.934828	-0.271083	-0.169180
C158	C	1.268162	0.062250	0.164154
C159	C	1.601495	0.395584	0.497487
O160	O	0.840852	-0.339936	-0.075166
O161	O	1.174185	-0.006602	0.258167
O162	O	1.507518	0.326731	0.591501
O163	O	1.028841	-0.339927	-0.263219
O164	O	1.362174	-0.006594	0.070114
O165	O	1.695508	0.326740	0.403448
C166	C	1.078042	-0.000076	-0.172997
C167	C	1.411375	0.333257	0.160336
C168	C	1.744709	0.666590	0.493669
C169	C	1.165326	-0.000079	-0.180346
C170	C	1.498659	0.333254	0.152988
C171	C	1.831992	0.666588	0.486321
C172	C	0.931027	-0.000071	-0.025982
C173	C	1.264360	0.333262	0.307351
C174	C	1.597693	0.666596	0.640685
C175	C	0.923679	-0.000070	0.061301
C176	C	1.257012	0.333263	0.394635
C177	C	1.590345	0.666596	0.727968
N178	N	0.934895	0.143738	-0.169179
N179	N	1.268229	0.477071	0.164155
N180	N	1.601562	0.810404	0.497488
C181	C	0.938660	-0.000061	-0.312379
C182	C	1.271994	0.333273	0.020954
C183	C	1.605327	0.666606	0.354288
C184	C	0.946008	-0.000058	-0.399663
C185	C	1.279342	0.333276	-0.066329
C186	C	1.612675	0.666609	0.267004
C187	C	0.991142	-0.000076	0.106911
C188	C	1.324476	0.333257	0.440244
C189	C	1.657809	0.666590	0.773577
C190	C	0.984233	-0.000070	0.188923
C191	C	1.317567	0.333263	0.522256
C192	C	1.650900	0.666597	0.855589
C193	C	0.909860	-0.000062	0.225324
C194	C	1.243193	0.333271	0.558657
C195	C	1.576527	0.666605	0.891990
C196	C	0.842391	-0.000054	0.179708
C197	C	1.175725	0.333279	0.513042
C198	C	1.509058	0.666612	0.846375
C199	C	0.849301	-0.000056	0.097698
C200	C	1.182634	0.333277	0.431031
C201	C	1.515968	0.666610	0.764365
C202	C	0.885449	-0.000052	0.472712
C203	C	1.218783	0.333282	0.806045
C204	C	1.552116	0.666615	1.139378
C205	C	0.878545	-0.000052	0.554728
C206	C	1.211878	0.333282	0.888061
C207	C	1.545211	0.666615	1.221395
C208	C	1.020387	-0.000066	0.563937
C209	C	1.353721	0.333267	0.897270
C210	C	1.687054	0.666601	1.230603
C211	C	1.027291	-0.000072	0.481924
C212	C	1.360624	0.333262	0.815258
C213	C	1.693957	0.666595	1.148591
C214	C	0.959822	-0.000061	0.436316
C215	C	1.293155	0.333273	0.769649
C216	C	1.626489	0.666606	1.102983
C217	C	0.902796	-0.000057	0.309153
C218	C	1.236129	0.333276	0.642486
C219	C	1.569463	0.666609	0.975820
C220	C	0.966886	-0.000061	0.352488
C221	C	1.300220	0.333272	0.685822
C222	C	1.633553	0.666606	1.019155
H223	H	0.688384	-0.000041	-0.286042
H224	H	1.021717	0.333293	0.047291
H225	H	1.355050	0.666626	0.380625
H226	H	0.181300	-0.000086	-0.052315
H227	H	0.514633	0.333247	0.281018
H228	H	0.847967	0.666580	0.614351
Cl229	Cl	1.105199	-0.000078	0.621277
Cl230	Cl	1.438533	0.333255	0.954610
Cl231	Cl	1.771866	0.666589	1.287943
H232	H	0.842650	-0.265203	-0.076964
H233	H	1.175983	0.068130	0.256370
H234	H	1.509317	0.401464	0.589703
H235	H	0.817978	-0.000055	0.584363
H236	H	1.151311	0.333278	0.917696
H237	H	1.484645	0.666612	1.251030
H238	H	0.842722	-0.734986	-0.076955
H239	H	1.176055	-0.401653	0.256378
H240	H	1.509388	-0.068319	0.589711
H241	H	1.027051	-0.850332	-0.261398
H242	H	1.360384	-0.516999	0.071936
H243	H	1.693717	-0.183665	0.405269
Cl244	Cl	0.519406	-0.000048	-0.303386
Cl245	Cl	0.852739	0.333285	0.029947
Cl246	Cl	1.186073	0.666618	0.363280
Cl247	Cl	0.764486	-0.000046	0.040360
Cl248	Cl	1.097819	0.333287	0.373694
Cl249	Cl	1.431152	0.666620	0.707027
Cl250	Cl	0.769423	-0.571868	-0.003594
Cl251	Cl	1.102756	-0.238534	0.329739
Cl252	Cl	1.436090	0.094799	0.663072
H253	H	1.027441	-0.000054	0.322847
H254	H	1.360774	0.333279	0.656181
H255	H	1.694107	0.666613	0.989514
Cl256	Cl	0.350276	-0.000088	-0.034967
Cl257	Cl	0.683610	0.333246	0.298366
Cl258	Cl	1.016943	0.666579	0.631699
H259	H	0.313370	-0.000051	-0.322190
H260	H	0.646704	0.333282	0.011143
H261	H	0.980037	0.666615	0.344476
Cl262	Cl	1.100320	-0.571788	-0.334736
Cl263	Cl	1.433653	-0.238455	-0.001402
Cl264	Cl	1.766987	0.094878	0.331931
H265	H	0.556310	-0.000080	-0.016172
H266	H	0.889644	0.333253	0.317161
H267	H	1.222977	0.666587	0.650495
Cl268	Cl	1.049542	-0.720843	-0.283913
Cl269	Cl	1.382875	-0.387510	0.049421
Cl270	Cl	1.716208	-0.054176	0.382754
Cl271	Cl	0.820228	-0.864456	-0.054458
Cl272	Cl	1.153561	-0.531123	0.278876
Cl273	Cl	1.486895	-0.197790	0.612209
H274	H	0.791914	-0.442399	-0.026109
H275	H	1.125247	-0.109065	0.307225
H276	H	1.458580	0.224268	0.640558
H277	H	0.842241	-0.000052	0.338800
H278	H	1.175574	0.333281	0.672133
H279	H	1.508908	0.666614	1.005467
H280	H	1.039170	-0.000076	0.226054
H281	H	1.372503	0.333257	0.559388
H282	H	1.705836	0.666591	0.892721
H283	H	0.842643	-0.149801	-0.076965
H284	H	1.175977	0.183532	0.256368
H285	H	1.509310	0.516866	0.589702
H286	H	1.051705	-0.000086	0.077279
H287	H	1.385038	0.333247	0.410613
H288	H	1.718371	0.666580	0.743946
H289	H	0.705099	-0.000063	-0.028702
H290	H	1.038433	0.333270	0.304632
H291	H	1.371766	0.666604	0.637965
H292	H	0.164583	-0.000067	-0.309653
H293	H	0.497917	0.333266	0.023680
H294	H	0.831250	0.666600	0.357013
Cl295	Cl	0.458937	-0.000062	-0.294718
Cl296	Cl	0.792270	0.333271	0.038615
Cl297	Cl	1.125604	0.666605	0.371949
H298	H	1.087853	-0.000078	0.452293
H299	H	1.421186	0.333255	0.785626
H300	H	1.754520	0.666588	1.118959
H301	H	0.426863	-0.000091	-0.076578
H302	H	0.760196	0.333242	0.256755
H303	H	1.093530	0.666575	0.590089
H304	H	0.830511	-0.000043	0.435587
H305	H	1.163844	0.333290	0.768920
H306	H	1.497178	0.666624	1.102254
H307	H	1.026988	-0.265140	-0.261396
H308	H	1.360321	0.068193	0.071938
H309	H	1.693655	0.401527	0.405271
Cl310	Cl	0.748893	-0.000037	0.225470
Cl311	Cl	1.082226	0.333296	0.558803
Cl312	Cl	1.415559	0.666630	0.892137
H313	H	1.026956	-0.149758	-0.261402
H314	H	1.360289	0.183575	0.071931
H315	H	1.693622	0.516908	0.405265
H316	H	1.077804	-0.442336	-0.312222
H317	H	1.411137	-0.109003	0.021111
H318	H	1.744470	0.224331	0.354444
