data_functionalizedCrystal
_audit_creation_method	'MofGen! by Chris Wilmer'
_symmetry_space_group_name_H-M	'P1'
_symmetry_Int_Tables_number	1
_symmetry_cell_setting	triclinic
loop_
_symmetry_equiv_pos_as_xyz
  x,y,z
_cell_length_a	6.817900
_cell_length_b	12.530001
_cell_length_c	11.168136
_cell_angle_alpha	82.029776
_cell_angle_beta	108.508683
_cell_angle_gamma	90.000251
loop_
_atom_site_label
_atom_site_type_symbol
_atom_site_fract_x
_atom_site_fract_y
_atom_site_fract_z
V1	V	4.018557	-0.147565	0.392808
O2	O	4.073845	0.007075	0.386247
O3	O	3.905097	-0.292580	0.389240
O4	O	3.996247	-0.145302	0.564528
O5	O	3.982063	-0.141223	0.209746
V6	V	4.507234	-0.129067	0.371020
O7	O	4.268508	-0.188140	0.440603
O8	O	4.707480	-0.088491	0.323225
O9	O	4.397487	0.015948	0.374588
O10	O	4.569343	-0.283706	0.377580
O11	O	4.661125	-0.135409	0.554081
O12	O	4.306337	-0.131330	0.199300
C13	C	3.733442	-0.327933	0.382822
C14	C	3.721925	-0.448713	0.381018
V15	V	3.948154	-0.647573	0.392827
O16	O	3.794272	-0.641244	0.209765
O17	O	4.149042	-0.645297	0.564546
O18	O	4.057915	-0.792589	0.389275
O19	O	3.886030	-0.492933	0.386250
V20	V	3.436811	-0.629082	0.371027
O21	O	3.747907	-0.688148	0.440621
O22	O	3.186856	-0.588511	0.323224
O23	O	3.459131	-0.631355	0.199312
O24	O	3.473294	-0.635412	0.554086
O25	O	3.381536	-0.783723	0.377601
O26	O	3.550258	-0.484063	0.374584
C27	C	4.232512	0.051294	0.381010
C28	C	4.222890	0.172071	0.382843
C29	C	3.849697	-0.140062	0.606411
C30	C	3.912310	-0.139172	0.746787
C31	C	4.116226	-0.136573	0.157410
C32	C	4.032854	-0.137458	0.017033
C33	C	4.339153	-0.640048	0.606438
C34	C	4.422524	-0.639150	0.746813
C35	C	3.605686	-0.636595	0.157433
C36	C	3.543081	-0.637495	0.017059
C37	C	4.111934	-0.143833	0.815451
C38	C	4.176651	-0.142913	0.960536
C39	C	4.294305	-0.643809	0.815473
C40	C	4.380469	-0.642881	0.960558
H41	H	4.347663	-0.146908	1.019563
H42	H	4.270838	-0.646861	1.019580
H43	H	4.120745	-0.648491	0.766847
H44	H	4.692662	-0.633433	0.958042
H45	H	3.789318	-0.134493	0.795411
H46	H	4.596086	-0.634480	0.795442
H47	H	4.234926	-0.148498	0.766824
O48	O	3.828886	-0.132869	0.946543
C49	C	3.552327	-0.220550	0.806745
C50	C	3.783373	-0.225857	0.886499
H51	H	3.515447	-0.295731	0.758200
H52	H	3.516242	-0.145761	0.731186
H53	H	3.454203	-0.216258	0.871890
H54	H	3.881650	-0.230189	0.821456
H55	H	3.819292	-0.300634	0.962069
