data_functionalizedCrystal
_audit_creation_method	'MofGen! by Chris Wilmer'
_symmetry_space_group_name_H-M	'P1'
_symmetry_Int_Tables_number	1
_symmetry_cell_setting	triclinic
loop_
_symmetry_equiv_pos_as_xyz
  x,y,z
_cell_length_a	27.732048
_cell_length_b	26.210047
_cell_length_c	10.654551
_cell_angle_alpha	90.002720
_cell_angle_beta	83.564042
_cell_angle_gamma	90.010925
loop_
_atom_site_label
_atom_site_type_symbol
_atom_site_fract_x
_atom_site_fract_y
_atom_site_fract_z
O1	O	0.641866	0.042362	0.149413
O2	O	0.501214	0.042377	0.172132
O3	O	0.574774	0.042368	-0.022102
O4	O	0.568307	0.042371	0.343648
O5	O	0.574751	-0.042490	-0.022102
O6	O	0.501191	-0.042481	0.172132
O7	O	0.641843	-0.042497	0.149413
Cu8	Cu	0.571515	-0.050237	0.160773
Cu9	Cu	0.571543	0.050117	0.160773
O10	O	0.568283	-0.042487	0.343648
C11	C	0.483193	-0.000050	0.171655
C12	C	0.429529	-0.000045	0.170219
C13	C	0.091373	-0.000066	0.275959
C14	C	-0.110320	-0.000070	0.270631
O15	O	-0.140973	-0.000092	0.367322
N16	N	-0.130161	-0.000070	0.155458
C17	C	-0.099576	-0.000073	0.041609
O18	O	-0.121080	-0.000078	-0.056475
C19	C	0.102116	-0.000072	0.046938
C20	C	0.121954	-0.000067	0.162118
C21	C	0.111211	-0.000061	0.391130
C22	C	0.161632	-0.000057	0.392461
C23	C	0.192213	-0.000058	0.278620
C24	C	0.172374	-0.000063	0.163449
C25	C	0.132700	-0.000078	-0.066910
C26	C	0.183126	-0.000079	-0.065567
C27	C	0.202964	-0.000073	0.049613
C28	C	0.253376	-0.000059	0.050940
N29	N	0.273217	-0.000059	0.166113
C30	C	0.242636	-0.000059	0.279953
C31	C	-0.205467	-0.000072	0.038819
C32	C	-0.255890	-0.000071	0.037486
C33	C	-0.266631	-0.000070	0.266509
C34	C	-0.216207	-0.000067	0.267840
C35	C	-0.185626	-0.000072	0.153992
C36	C	0.348522	-0.000050	0.282739
C37	C	0.398948	-0.000044	0.284060
C38	C	0.409684	-0.000048	0.055038
C39	C	0.359263	-0.000051	0.053716
C40	C	0.328683	-0.000054	0.167577
O41	O	0.284058	-0.000044	-0.045700
O42	O	0.264149	-0.000065	0.378023
C43	C	0.040952	-0.000070	0.274628
C44	C	0.021114	-0.000074	0.159457
C45	C	0.051695	-0.000075	0.045616
C46	C	-0.029309	-0.000074	0.158124
C47	C	-0.059891	-0.000073	0.271964
C48	C	-0.040049	-0.000073	0.387137
C49	C	0.010371	-0.000069	0.388468
C50	C	0.031854	-0.000075	-0.069557
C51	C	-0.018567	-0.000078	-0.070878
C52	C	-0.049148	-0.000078	0.042962
N53	N	0.571499	-0.120821	0.160772
C54	C	0.601106	-0.473338	0.236396
C55	C	0.601120	-0.686997	0.236395
O56	O	0.626281	-0.714621	0.300679
N57	N	0.571554	-0.713715	0.160760
C58	C	0.541985	-0.687016	0.085114
O59	O	0.516841	-0.714644	0.020771
C60	C	0.541973	-0.473358	0.085109
C61	C	0.571538	-0.446642	0.160758
C62	C	0.630668	-0.446622	0.312039
C63	C	0.630662	-0.393211	0.312043
C64	C	0.601094	-0.366515	0.236406
C65	C	0.571532	-0.393231	0.160763
C66	C	0.512407	-0.446660	0.009456
C67	C	0.512408	-0.393242	0.009460
C68	C	0.541972	-0.366526	0.085109
C69	C	0.541958	-0.313124	0.085130
N70	N	0.571524	-0.286405	0.160765
C71	C	0.601092	-0.313101	0.236403
C72	C	0.541992	-0.799189	0.085123
C73	C	0.541994	-0.852603	0.085126
C74	C	0.601130	-0.852580	0.236406
C75	C	0.601125	-0.799165	0.236409
C76	C	0.571558	-0.772470	0.160758
C77	C	0.601077	-0.200933	0.236408
C78	C	0.601067	-0.147517	0.236410
C79	C	0.541933	-0.147544	0.085125
C80	C	0.541941	-0.200956	0.085128
C81	C	0.571517	-0.227649	0.160773
O82	O	0.516814	-0.285466	0.020869
O83	O	0.626240	-0.285463	0.300714
C84	C	0.601111	-0.526749	0.236391
C85	C	0.571549	-0.553465	0.160749
C86	C	0.541981	-0.526769	0.085111
C87	C	0.571551	-0.606879	0.160752
C88	C	0.601119	-0.633575	0.236389
C89	C	0.630685	-0.606856	0.312024
C90	C	0.630679	-0.553445	0.312029
C91	C	0.512415	-0.553488	0.009476
C92	C	0.512423	-0.606899	0.009479
C93	C	0.541991	-0.633595	0.085117
C94	C	0.659865	-0.000068	0.149890
C95	C	0.713528	-0.000071	0.151326
C96	C	0.574287	-0.000061	-0.068880
C97	C	0.572866	-0.000058	-0.208264
N98	N	0.571562	0.120701	0.160764
C99	C	0.572212	0.046199	-0.273739
C100	C	0.570873	0.046199	-0.404704
C101	C	0.570844	-0.046318	-0.404705
C102	C	0.572180	-0.046318	-0.273742
C103	C	0.540797	0.101777	-0.573511
C104	C	0.540151	0.148036	-0.638994
C105	C	0.568869	0.188873	-0.606660
C106	C	0.598244	0.183453	-0.508850
C107	C	0.598894	0.137193	-0.443375
C108	C	0.570165	0.096358	-0.475703
C109	C	0.602260	-0.101892	-0.104934
C110	C	0.602914	-0.148152	-0.039458
C111	C	0.574199	-0.188994	-0.071790
C112	C	0.544830	-0.183579	-0.169607
C113	C	0.544177	-0.137318	-0.235084
C114	C	0.572891	-0.096477	-0.202742
C115	C	0.568770	-0.000058	0.390426
C116	C	0.570191	-0.000057	0.529809
H117	H	-0.180572	-0.000076	-0.053896
N118	N	0.568168	0.238766	-0.677288
H119	H	0.556947	0.266977	-0.616335
H120	H	0.601893	0.246700	-0.718693
H121	H	0.343110	-0.000048	-0.040073
H122	H	0.516230	0.152445	-0.718630
N123	N	0.512502	-0.131477	-0.340590
H124	H	0.477447	-0.137158	-0.306472
H125	H	0.516487	-0.095973	-0.377121
N126	N	0.480517	-0.524704	-0.072104
H127	H	0.457039	-0.502551	-0.017005
H128	H	0.501379	-0.502565	-0.133944
N129	N	0.572939	0.096080	-0.203065
H130	H	0.602618	0.116312	-0.236585
H131	H	0.542780	0.116263	-0.215100
H132	H	0.626831	-0.152559	0.040186
H133	H	0.654754	-0.531698	0.373631
H134	H	0.116557	-0.000082	-0.160702
N135	N	0.574908	-0.238893	-0.001183
H136	H	0.597872	-0.236130	0.065684
H137	H	0.541176	-0.246851	0.040141
N138	N	-0.039963	-0.000084	-0.195113
H139	H	-0.028836	0.031371	-0.244951
H140	H	-0.028835	-0.031564	-0.244829
H141	H	0.488333	-0.468402	-0.052147
N142	N	0.216110	-0.000087	-0.188364
H143	H	0.195888	-0.000091	-0.261523
H144	H	0.237270	0.031371	-0.192811
H145	H	0.622812	0.132780	-0.363741
N146	N	0.662581	-0.635649	0.393609
H147	H	0.641747	-0.657818	0.455448
H148	H	0.686051	-0.657773	0.338414
N149	N	0.480537	-0.635711	-0.072130
H150	H	0.461810	-0.610690	-0.120049
H151	H	0.501416	-0.657862	-0.133894
N152	N	0.420347	-0.000043	0.408290
H153	H	0.441031	0.031416	0.413950
H154	H	0.393295	-0.000064	0.480134
H155	H	0.625204	-0.874325	0.297998
H156	H	0.434592	-0.000046	-0.037648
N157	N	0.629228	0.227497	-0.473993
H158	H	0.624359	0.257624	-0.530313
H159	H	0.619558	0.237261	-0.382951
H160	H	-0.200059	-0.000066	0.361630
H161	H	0.521438	-0.216831	-0.195909
N162	N	0.633227	-0.057836	-0.070050
H163	H	0.651933	-0.068288	0.001846
H164	H	0.656691	-0.047981	-0.145561
H165	H	0.517405	0.068529	-0.599836
N166	N	0.315539	-0.000049	0.405533
H167	H	0.294375	-0.031507	0.410091
H168	H	0.335792	-0.000025	0.478625
N169	N	-0.073032	-0.000087	0.509935
H170	H	-0.066608	0.031366	0.560252
H171	H	-0.107972	-0.000114	0.491516
N172	N	0.570114	-0.096210	-0.475332
H173	H	0.569173	-0.089192	-0.568234
H174	H	0.600254	-0.116407	-0.463191
H175	H	0.177779	-0.000053	0.486252
N176	N	-0.299620	-0.000069	0.389296
H177	H	-0.334571	-0.000069	0.370964
H178	H	-0.293160	-0.031528	0.439527
N179	N	0.078231	-0.000089	0.513925
H180	H	0.098458	-0.000096	0.587076
H181	H	0.057071	0.031361	0.518415
N182	N	0.031764	-0.000060	0.512699
H183	H	0.004734	-0.000060	0.584604
H184	H	0.052446	-0.031516	0.518255
H185	H	0.517858	-0.125799	0.023547
N186	N	0.662558	-0.364401	0.393617
H187	H	0.658075	-0.326512	0.382151
H188	H	0.653316	-0.373740	0.485118
N189	N	0.480519	-0.364450	-0.072142
H190	H	0.461793	-0.389483	-0.120060
H191	H	0.457070	-0.342294	-0.016973
H192	H	-0.272038	-0.000068	-0.056305
N193	N	0.064835	-0.000080	-0.192348
H194	H	0.044610	-0.000081	-0.265502
H195	H	0.085993	0.031380	-0.196792
H196	H	0.625161	-0.222660	0.298004
N197	N	0.632956	-0.118702	0.318005
H198	H	0.651689	-0.143722	0.365914
H199	H	0.656398	-0.096534	0.262830
H200	H	0.654748	-0.468352	0.373632
H201	H	0.517914	-0.777459	0.023516
N202	N	0.633013	-0.770352	0.317998
H203	H	0.651742	-0.795374	0.365912
H204	H	0.656459	-0.748188	0.262823
N205	N	0.510107	-0.881415	0.003534
H206	H	0.475024	-0.872126	0.028923
H207	H	0.519383	-0.872102	-0.087970
N208	N	0.510045	-0.229774	0.003564
H209	H	0.491311	-0.204755	-0.044344
H210	H	0.530913	-0.251930	-0.058211
