data_functionalizedCrystal
_audit_creation_method	'MofGen! by Chris Wilmer'
_symmetry_space_group_name_H-M	'P1'
_symmetry_Int_Tables_number	1
_symmetry_cell_setting	triclinic
loop_
_symmetry_equiv_pos_as_xyz
  x,y,z
_cell_length_a	10.967874
_cell_length_b	14.519731
_cell_length_c	9.482900
_cell_angle_alpha	99.351580
_cell_angle_beta	68.707142
_cell_angle_gamma	84.210075
loop_
_atom_site_label
_atom_site_type_symbol
_atom_site_fract_x
_atom_site_fract_y
_atom_site_fract_z
O1	O	1.745664	0.063246	-0.558223
O2	O	2.245664	0.563246	-0.058223
O3	O	1.367165	0.086855	-0.463404
O4	O	1.867165	0.586855	0.036596
O5	O	1.566433	-0.059433	-0.513310
O6	O	2.066433	0.440567	-0.013310
O7	O	1.546396	0.209534	-0.508317
O8	O	2.046396	0.709534	-0.008317
O9	O	1.525958	-0.029604	-0.261380
O10	O	2.025958	0.470396	0.238620
O11	O	1.326689	0.116684	-0.211475
O12	O	1.826689	0.616684	0.288525
O13	O	1.705189	0.093076	-0.306293
O14	O	2.205189	0.593076	0.193707
Cu15	Cu	1.512243	0.107604	-0.235881
Cu16	Cu	2.012243	0.607604	0.264119
Cu17	Cu	1.560110	0.072327	-0.533816
Cu18	Cu	2.060110	0.572327	-0.033816
O19	O	1.505920	0.239364	-0.256387
O20	O	2.005920	0.739364	0.243613
C21	C	1.298486	0.102306	-0.325304
C22	C	1.798486	0.602306	0.174696
C23	C	1.154148	0.103892	-0.289145
C24	C	1.654148	0.603892	0.210855
C25	C	1.545256	-0.078855	-0.387110
C26	C	2.045256	0.421145	0.112890
C27	C	1.542442	-0.181165	-0.386404
C28	C	2.042442	0.318835	0.113596
C29	C	1.110765	0.089146	-0.403532
C30	C	1.610765	0.589146	0.096468
C31	C	0.961585	0.090785	-0.366162
C32	C	1.461585	0.590785	0.133838
C33	C	1.540156	-0.264253	-0.385834
C34	C	2.040156	0.235747	0.114166
C35	C	1.537301	-0.368492	-0.385130
C36	C	2.037301	0.131508	0.114870
C37	C	1.535035	-0.451576	-0.384572
C38	C	2.035035	0.048424	0.115428
C39	C	1.532179	-0.555822	-0.383865
C40	C	2.032179	-0.055822	0.116135
C41	C	1.773868	0.077624	-0.444396
C42	C	2.273868	0.577624	0.055604
C43	C	1.918208	0.076037	-0.480565
C44	C	2.418208	0.576037	0.019435
C45	C	1.527098	0.258785	-0.382591
C46	C	2.027098	0.758785	0.117409
C47	C	1.529913	0.361094	-0.383307
C48	C	2.029913	0.861094	0.116693
N49	N	1.478585	0.132415	-0.026331
N50	N	1.978585	0.632415	0.473669
N51	N	1.593778	0.047508	-0.743369
N52	N	2.093778	0.547508	-0.243369
C53	C	1.550174	0.079640	0.027939
C54	C	2.050174	0.579640	0.527939
C55	C	1.522179	0.100290	0.202368
C56	C	2.022179	0.600290	0.702368
H57	H	1.184066	0.075313	-0.529127
H58	H	1.684066	0.575313	-0.029127
O59	O	1.369971	0.212534	0.083161
O60	O	1.869971	0.712534	0.583161
H61	H	1.321792	0.248055	0.016873
H62	H	1.821792	0.748055	0.516873
H63	H	1.440155	0.160762	0.285035
H64	H	1.940155	0.660762	0.785035
H65	H	0.888286	0.104629	-0.240558
H66	H	1.388286	0.604629	0.259442
H67	H	0.991503	0.062205	-0.606169
H68	H	1.491503	0.562205	-0.106169
H69	H	1.080846	0.117734	-0.163550
H70	H	1.580846	0.617734	0.336450
H71	H	1.632184	0.019166	-0.054728
H72	H	2.132184	0.519166	0.445272
H73	H	1.675793	-0.012970	0.173967
H74	H	2.175793	0.487030	0.673967
