data_functionalizedCrystal
_audit_creation_method	'MofGen! by Chris Wilmer'
_symmetry_space_group_name_H-M	'P1'
_symmetry_Int_Tables_number	1
_symmetry_cell_setting	triclinic
loop_
_symmetry_equiv_pos_as_xyz
  x,y,z
_cell_length_a	17.639054
_cell_length_b	13.897447
_cell_length_c	13.897441
_cell_angle_alpha	89.970673
_cell_angle_beta	78.752813
_cell_angle_gamma	101.208112
loop_
_atom_site_label
_atom_site_type_symbol
_atom_site_fract_x
_atom_site_fract_y
_atom_site_fract_z
Zn1	Zn	1.208626	-0.086161	-0.844208
Zn2	Zn	1.541959	0.247173	-0.510875
Zn3	Zn	1.875293	0.580506	-0.177541
Zn4	Zn	1.208535	-0.247505	-0.682890
Zn5	Zn	1.541868	0.085829	-0.349557
Zn6	Zn	1.875202	0.419162	-0.016224
Zn7	Zn	1.076419	-0.118781	-0.650240
Zn8	Zn	1.409752	0.214553	-0.316906
Zn9	Zn	1.743086	0.547886	0.016427
Zn10	Zn	1.076400	-0.279998	-0.811474
Zn11	Zn	1.409733	0.053335	-0.478141
Zn12	Zn	1.743066	0.386669	-0.144808
O13	O	1.142495	-0.183111	-0.747203
O14	O	1.475828	0.150222	-0.413870
O15	O	1.809162	0.483556	-0.080536
O16	O	1.319242	-0.080313	-0.850173
O17	O	1.652576	0.253020	-0.516839
O18	O	1.985909	0.586354	-0.183506
O19	O	1.190979	-0.230482	-0.543570
O20	O	1.524313	0.102851	-0.210237
O21	O	1.857646	0.436184	0.123097
O22	O	1.094003	0.020539	-0.676005
O23	O	1.427336	0.353873	-0.342672
O24	O	1.760669	0.687206	-0.009338
O25	O	1.319175	-0.198852	-0.731653
O26	O	1.652509	0.134481	-0.398320
O27	O	1.985842	0.467815	-0.064987
O28	O	1.191135	0.044505	-0.818513
O29	O	1.524468	0.377839	-0.485179
O30	O	1.857801	0.711172	-0.151846
O31	O	1.093914	-0.135909	-0.519582
O32	O	1.427248	0.197424	-0.186248
O33	O	1.760581	0.530757	0.147085
O34	O	0.965788	-0.167417	-0.644264
O35	O	1.299122	0.165917	-0.310931
O36	O	1.632455	0.499250	0.022402
O37	O	1.093970	-0.254232	-0.950806
O38	O	1.427303	0.079102	-0.617472
O39	O	1.760637	0.412435	-0.284139
O40	O	0.965774	-0.285862	-0.762722
O41	O	1.299107	0.047471	-0.429389
O42	O	1.632441	0.380804	-0.096056
O43	O	1.191116	-0.111820	-0.974855
O44	O	1.524449	0.221513	-0.641522
O45	O	1.857783	0.554846	-0.308188
O46	O	1.190961	-0.386808	-0.699913
O47	O	1.524294	-0.053475	-0.366579
O48	O	1.857627	0.279859	-0.033246
O49	O	1.093882	-0.410681	-0.794383
O50	O	1.427215	-0.077347	-0.461049
O51	O	1.760548	0.255986	-0.127716
C52	C	0.937097	-0.233706	-0.696399
C53	C	1.270430	0.099628	-0.363066
C54	C	1.603763	0.432961	-0.029732
C55	C	0.849226	-0.255374	-0.674687
C56	C	1.182560	0.077960	-0.341354
C57	C	1.515893	0.411293	-0.008021
C58	C	1.142431	-0.433741	-0.747165
C59	C	1.475764	-0.100408	-0.413832
C60	C	1.809097	0.232925	-0.080498
C61	C	1.142476	-0.540944	-0.747199
C62	C	1.475809	-0.207611	-0.413865
C63	C	1.809142	0.125723	-0.080532
C64	C	0.725341	-0.347530	-0.582290
C65	C	1.058674	-0.014197	-0.248957
C66	C	1.392008	0.319137	0.084376
C67	C	0.807909	-0.327162	-0.602699
C68	C	1.141242	0.006171	-0.269365
C69	C	1.474575	0.339505	0.063968
C70	C	0.807986	-0.203928	-0.726301
C71	C	1.141319	0.129405	-0.392967
C72	C	1.474652	0.462739	-0.059634
C73	C	0.725417	-0.224289	-0.705906
C74	C	1.058750	0.109045	-0.372573
C75	C	1.392083	0.442378	-0.039240
C76	C	0.684101	-0.296090	-0.633899
C77	C	1.017434	0.037243	-0.300566
C78	C	1.350767	0.370577	0.032767
C79	C	0.684176	-0.172849	-0.757515
C80	C	1.017510	0.160485	-0.424182
C81	C	1.350843	0.493818	-0.090848
C82	C	0.601614	-0.193205	-0.737118
C83	C	0.934948	0.140129	-0.403785
C84	C	1.268281	0.473462	-0.070452
C85	C	0.560293	-0.265000	-0.665113
C86	C	0.893626	0.068333	-0.331780
C87	C	1.226959	0.401666	0.001554
C88	C	0.601539	-0.316446	-0.613503
C89	C	0.934872	0.016888	-0.280169
C90	C	1.268205	0.350221	0.053164
C91	C	0.725494	-0.101043	-0.829517
C92	C	1.058827	0.232290	-0.496183
C93	C	1.392160	0.565624	-0.162850
C94	C	0.684253	-0.049603	-0.881126
C95	C	1.017587	0.283730	-0.547792
C96	C	1.350920	0.617064	-0.214459
C97	C	0.601690	-0.069963	-0.860734
C98	C	0.935023	0.263370	-0.527401
C99	C	1.268356	0.596703	-0.194068
C100	C	0.560368	-0.141759	-0.788729
C101	C	0.893701	0.191574	-0.455395
C102	C	1.227035	0.524908	-0.122062
C103	C	0.560444	-0.018518	-0.912344
C104	C	0.893777	0.314815	-0.579011
C105	C	1.227110	0.648149	-0.245678
C106	C	0.477882	-0.038874	-0.891948
C107	C	0.811215	0.294460	-0.558614
C108	C	1.144548	0.627793	-0.225281
C109	C	0.477806	-0.162115	-0.768332
C110	C	0.811139	0.171218	-0.434999
C111	C	1.144473	0.504552	-0.101665
C112	C	1.142514	-0.628004	-0.747230
C113	C	1.475847	-0.294671	-0.413897
C114	C	1.809180	0.038662	-0.080563
C115	C	1.142569	-0.737223	-0.747269
C116	C	1.475903	-0.403890	-0.413935
C117	C	1.809236	-0.070557	-0.080602
C118	C	1.348695	-0.132319	-0.798206
C119	C	1.682029	0.201014	-0.464873
C120	C	2.015362	0.534347	-0.131540
C121	C	1.436566	-0.110675	-0.819941
C122	C	1.769899	0.222658	-0.486608
C123	C	2.103232	0.555992	-0.153274
C124	C	1.142551	-0.183012	-0.998810
C125	C	1.475884	0.150321	-0.665477
C126	C	1.809218	0.483655	-0.332143
C127	C	1.142575	-0.182970	-1.106030
C128	C	1.475908	0.150364	-0.772697
C129	C	1.809242	0.483697	-0.439363
C130	C	1.142581	0.068503	-0.747268
C131	C	1.475914	0.401837	-0.413935
C132	C	1.809248	0.735170	-0.080601
C133	C	1.142618	0.175726	-0.747296
C134	C	1.475951	0.509060	-0.413962
C135	C	1.809284	0.842393	-0.080629
C136	C	1.142596	-0.182899	-1.302331
C137	C	1.475930	0.150434	-0.968997
C138	C	1.809263	0.483767	-0.635664
C139	C	1.142582	-0.182942	-1.193094
C140	C	1.475915	0.150392	-0.859761
C141	C	1.809249	0.483725	-0.526428
C142	C	1.142485	-0.183129	-0.496586
C143	C	1.475818	0.150204	-0.163253
C144	C	1.809151	0.483538	0.170080
C145	C	1.142614	-0.182862	-0.389405
C146	C	1.475947	0.150472	-0.056071
C147	C	1.809281	0.483805	0.277262
H148	H	0.444164	-0.220591	-0.709705
H149	H	0.777498	0.112742	-0.376372
H150	H	1.110831	0.446076	-0.043038
H151	H	0.444303	0.003018	-0.933969
H152	H	0.777636	0.336351	-0.600635
H153	H	1.110970	0.669685	-0.267302
H154	H	0.691699	-0.406006	-0.523664
H155	H	1.025033	-0.072673	-0.190330
H156	H	1.358366	0.260661	0.143003
H157	H	0.717904	0.008860	-0.939751
H158	H	1.051237	0.342193	-0.606418
H159	H	1.384571	0.675527	-0.273084
C160	C	0.469471	-0.287393	-0.642677
C161	C	0.802805	0.045940	-0.309344
C162	C	1.136138	0.379273	0.023989
N163	N	0.401064	-0.304261	-0.625780
N164	N	0.734398	0.029072	-0.292447
N165	N	1.067731	0.362405	0.040886
C166	C	0.853443	-0.124948	-0.805505
C167	C	1.186776	0.208386	-0.472172
C168	C	1.520109	0.541719	-0.138838
N169	N	0.887680	-0.065461	-0.865165
N170	N	1.221013	0.267873	-0.531832
N171	N	1.554347	0.601206	-0.198498
C172	C	0.853270	-0.383761	-0.545923
C173	C	1.186604	-0.050428	-0.212590
C174	C	1.519937	0.282906	0.120744
N175	N	0.887436	-0.426390	-0.503160
N176	N	1.220770	-0.093057	-0.169827
N177	N	1.554103	0.240276	0.163506
H178	H	0.594095	0.039949	-0.970965
H179	H	0.927429	0.373282	-0.637632
H180	H	1.260762	0.706616	-0.304299
H181	H	0.567897	-0.374922	-0.554876
H182	H	0.901230	-0.041588	-0.221542
H183	H	1.234564	0.291745	0.111791
H184	H	0.792721	-0.084468	-0.846118
H185	H	1.126054	0.248865	-0.512784
H186	H	1.459388	0.582199	-0.179451
