data_functionalizedCrystal
_audit_creation_method	'MofGen! by Chris Wilmer'
_symmetry_space_group_name_H-M	'P1'
_symmetry_Int_Tables_number	1
_symmetry_cell_setting	triclinic
loop_
_symmetry_equiv_pos_as_xyz
  x,y,z
_cell_length_a	15.995350
_cell_length_b	15.944493
_cell_length_c	15.072220
_cell_angle_alpha	90.004743
_cell_angle_beta	89.991149
_cell_angle_gamma	83.483709
loop_
_atom_site_label
_atom_site_type_symbol
_atom_site_fract_x
_atom_site_fract_y
_atom_site_fract_z
O1	O	1.110979	0.108267	-0.073696
O2	O	0.867202	0.121637	-0.073712
O3	O	0.995773	-0.007326	-0.073711
O4	O	0.982408	0.237231	-0.073697
O5	O	0.995741	-0.007319	0.073854
O6	O	0.867170	0.121645	0.073853
O7	O	1.110948	0.108274	0.073870
Zn8	Zn	0.989054	0.114961	0.097290
Zn9	Zn	0.989096	0.114951	-0.097133
O10	O	0.982377	0.237238	0.073868
C11	C	0.835992	0.121088	0.000068
C12	C	0.743041	0.119431	0.000061
C13	C	0.405295	0.113480	0.000079
C14	C	0.452743	0.021634	0.000403
C15	C	0.549433	0.023292	0.000064
C16	C	0.572855	0.116432	0.000070
C17	C	0.531779	0.161729	-0.084190
C18	C	0.435144	0.159422	-0.084255
C19	C	0.434768	0.161328	0.083554
C20	C	0.531714	0.161306	0.084662
C21	C	0.667552	0.118105	0.000063
C22	C	0.310597	0.111809	0.000081
C23	C	0.995211	-0.038617	0.000068
C24	C	0.993573	-0.131866	0.000056
C25	C	1.069253	-0.367630	0.000078
C26	C	1.028458	-0.418199	-0.072681
C27	C	0.990539	-0.302587	0.000067
C28	C	1.028408	-0.418168	0.072806
C29	C	0.987614	-0.467496	0.000081
C30	C	0.949765	-0.351928	-0.072753
C31	C	0.949726	-0.351894	0.072800
C32	C	0.908873	-0.402430	0.000023
C33	C	0.992226	-0.207587	0.000058
C34	C	0.985920	-0.562493	0.000084
C35	C	1.142158	0.108823	0.000087
C36	C	1.235108	0.110481	0.000089
C37	C	0.982939	0.268529	0.000087
C38	C	0.984576	0.361778	0.000093
N39	N	0.989032	0.114966	0.229979
N40	N	0.989125	0.114939	-0.229822
C41	C	0.989094	0.114948	0.589181
C42	C	0.920067	0.183722	0.551573
C43	C	0.920226	0.183973	0.448747
C44	C	0.989062	0.114957	0.410976
C45	C	1.076424	0.134100	0.448275
C46	C	1.076037	0.134589	0.551133
C47	C	0.971538	0.026827	0.551274
C48	C	0.969533	0.027414	0.448411
C49	C	0.989050	0.114961	0.310263
C50	C	0.989112	0.114946	0.689894
H51	H	0.414224	0.131304	0.147422
Br52	Br	0.894414	-0.303902	-0.175390
Br53	Br	0.894364	-0.303591	0.175325
Br54	Br	0.420111	-0.039289	-0.099755
H55	H	0.841018	-0.417892	-0.000022
H56	H	1.061653	-0.447098	0.134315
H57	H	0.931435	0.249367	0.424138
Br58	Br	0.938500	0.292108	0.594625
Br59	Br	0.811974	0.165022	0.406713
Br60	Br	0.557296	0.274517	0.093154
H61	H	1.091510	0.198855	0.575120
H62	H	0.577309	-0.012561	-0.060447
Br63	Br	0.867649	-0.003838	0.594552
Br64	Br	1.182259	-0.341585	-0.000029
H65	H	1.061713	-0.447150	-0.134190
Br66	Br	0.404654	0.104356	-0.189244
Br67	Br	0.577112	0.106098	0.188560
H68	H	0.402997	0.229045	0.084129
H69	H	0.545894	0.230157	-0.087319
H70	H	0.854919	0.172505	0.576329
Br71	Br	1.164132	0.054183	0.592601
H72	H	1.129016	0.085341	0.423807
H73	H	1.092267	0.197634	0.422511
Br74	Br	0.862420	0.003197	0.407784
H75	H	0.560172	0.130262	-0.146903
H76	H	1.016544	-0.026162	0.422703
Br77	Br	0.381373	0.271808	-0.090621
H78	H	1.021876	-0.024353	0.575593
H79	H	0.577854	-0.012315	0.060466
Br80	Br	0.421856	-0.039554	0.101120
