data_functionalizedCrystal
_audit_creation_method	'MofGen! by Chris Wilmer'
_symmetry_space_group_name_H-M	'P1'
_symmetry_Int_Tables_number	1
_symmetry_cell_setting	triclinic
loop_
_symmetry_equiv_pos_as_xyz
  x,y,z
_cell_length_a	16.625548
_cell_length_b	12.759400
_cell_length_c	12.759393
_cell_angle_alpha	90.031564
_cell_angle_beta	89.978332
_cell_angle_gamma	89.984247
loop_
_atom_site_label
_atom_site_type_symbol
_atom_site_fract_x
_atom_site_fract_y
_atom_site_fract_z
Zn1	Zn	1.232733	0.418174	-0.594070
Zn2	Zn	1.732733	0.918174	-0.094070
Zn3	Zn	1.232652	0.593893	-0.418390
Zn4	Zn	1.732652	1.093893	0.081610
Zn5	Zn	1.097892	0.418232	-0.418400
Zn6	Zn	1.597892	0.918232	0.081600
Zn7	Zn	1.097883	0.593815	-0.594022
Zn8	Zn	1.597883	1.093815	-0.094022
O9	O	1.165290	0.506029	-0.506221
O10	O	1.665290	1.006029	-0.006221
O11	O	1.345554	0.441492	-0.570782
O12	O	1.845554	0.941492	-0.070782
O13	O	1.214745	0.570648	-0.271371
O14	O	1.714745	1.070648	0.228629
O15	O	1.115817	0.271203	-0.441727
O16	O	1.615817	0.771203	0.058273
O17	O	1.345495	0.570592	-0.441711
O18	O	1.845495	1.070592	0.058289
O19	O	1.214883	0.271161	-0.570791
O20	O	1.714883	0.771161	-0.070791
O21	O	1.115738	0.441591	-0.271378
O22	O	1.615738	0.941591	0.228622
O23	O	0.985059	0.441515	-0.441680
O24	O	1.485059	0.941515	0.058320
O25	O	1.115802	0.570459	-0.741050
O26	O	1.615802	1.070459	-0.241050
O27	O	0.985052	0.570515	-0.570709
O28	O	1.485052	1.070515	-0.070709
O29	O	1.214875	0.441417	-0.741085
O30	O	1.714875	0.941417	-0.241085
O31	O	1.214737	0.740904	-0.441664
O32	O	1.714737	1.240904	0.058336
O33	O	1.115723	0.740847	-0.570700
O34	O	1.615723	1.240847	-0.070700
C35	C	0.955799	0.506014	-0.506191
C36	C	1.455799	1.006014	-0.006191
C37	C	0.866178	0.506033	-0.506204
C38	C	1.366178	1.006033	-0.006204
C39	C	1.165242	0.778996	-0.506199
C40	C	1.665242	1.278996	-0.006199
C41	C	1.165295	0.895773	-0.506225
C42	C	1.665295	1.395773	-0.006225
C43	C	1.165346	0.505923	-0.780254
C44	C	1.665346	1.005923	-0.280254
C45	C	1.165371	0.505878	-0.897031
C46	C	1.665371	1.005878	-0.397031
C47	C	0.538002	0.506039	-0.506249
C48	C	1.038002	1.006039	-0.006249
C49	C	0.629311	0.506035	-0.506233
C50	C	1.129311	1.006035	-0.006233
C51	C	0.702087	0.506037	-0.506225
C52	C	1.202087	1.006037	-0.006225
C53	C	0.793402	0.506031	-0.506211
C54	C	1.293402	1.006031	-0.006211
C55	C	1.375599	0.506045	-0.506251
C56	C	1.875599	1.006045	-0.006251
C57	C	1.465220	0.506051	-0.506264
C58	C	1.965220	1.006051	-0.006264
C59	C	1.165360	0.231995	-0.506266
C60	C	1.665360	0.731995	-0.006266
C61	C	1.165390	0.115219	-0.506285
C62	C	1.665390	0.615219	-0.006285
C63	C	1.216909	0.950630	-0.439110
C64	C	1.716909	1.450630	0.060890
C65	C	1.216959	1.060354	-0.439142
C66	C	1.716959	1.560354	0.060858
C67	C	1.113774	1.060354	-0.573407
C68	C	1.613774	1.560354	-0.073407
C69	C	1.113729	0.950632	-0.573379
C70	C	1.613729	1.450632	-0.073379
C71	C	1.268476	0.895770	-0.371955
C72	C	1.768476	1.395770	0.128045
C73	C	1.320093	0.950627	-0.304834
C74	C	1.820093	1.450627	0.195166
C75	C	1.320142	1.060351	-0.304867
C76	C	1.820142	1.560351	0.195133
C77	C	1.268575	1.115218	-0.372020
C78	C	1.768575	1.615218	0.127980
C79	C	1.216965	0.438679	-0.951913
C80	C	1.716965	0.938679	-0.451913
C81	C	1.216984	0.438641	-1.061637
C82	C	1.716984	0.938641	-0.561637
C83	C	1.113812	0.573010	-1.061587
C84	C	1.613812	1.073010	-0.561587
C85	C	1.113789	0.573041	-0.951865
C86	C	1.613789	1.073041	-0.451865
C87	C	1.268546	0.371515	-0.897079
C88	C	1.768546	0.871515	-0.397079
C89	C	1.320146	0.304311	-0.951961
C90	C	1.820146	0.804311	-0.451961
C91	C	1.320165	0.304273	-1.061685
C92	C	1.820165	0.804273	-0.561685
C93	C	1.268585	0.371439	-1.116527
C94	C	1.768585	0.871439	-0.616527
C95	C	1.165280	0.506058	-0.233253
C96	C	1.665280	1.006058	0.266747
C97	C	1.165412	0.505808	-0.116477
C98	C	1.665412	1.005808	0.383523
H99	H	1.268439	0.806428	-0.371918
H100	H	1.768439	1.306428	0.128082
H101	H	1.362082	0.905949	-0.250166
H102	H	1.862082	1.405949	0.249834
H103	H	1.071701	0.905967	-0.628031
H104	H	1.571701	1.405967	-0.128031
H105	H	1.362177	1.105013	-0.250221
H106	H	1.862177	1.605013	0.249779
C107	C	1.057048	1.120705	-0.647265
C108	C	1.557048	1.620705	-0.147265
C109	C	1.057094	1.241394	-0.647294
C110	C	1.557094	1.741394	-0.147294
C111	C	1.000365	1.301743	-0.721152
C112	C	1.500365	1.801743	-0.221152
C113	C	0.943590	1.241402	-0.794980
C114	C	1.443590	1.741402	-0.294980
C115	C	0.943542	1.120706	-0.794954
C116	C	1.443542	1.620706	-0.294954
C117	C	1.000271	1.060357	-0.721096
C118	C	1.500271	1.560357	-0.221096
H119	H	1.099124	1.286069	-0.592640
H120	H	1.599124	1.786069	-0.092640
H121	H	1.000401	1.391091	-0.721171
H122	H	1.500401	1.891091	-0.221171
H123	H	0.901596	1.286076	-0.849654
H124	H	1.401596	1.786076	-0.349654
H125	H	0.901512	1.076032	-0.849608
H126	H	1.401512	1.576032	-0.349608
H127	H	1.000235	0.971009	-0.721077
H128	H	1.500235	1.471009	-0.221077
H129	H	1.268625	1.204563	-0.372049
H130	H	1.768625	1.704563	0.127951
C131	C	1.057083	0.646895	-1.121910
C132	C	1.557083	1.146895	-0.621910
C133	C	1.057110	0.646866	-1.242600
C134	C	1.557110	1.146866	-0.742600
C135	C	1.000382	0.720756	-1.302922
C136	C	1.500382	1.220756	-0.802922
C137	C	0.943628	0.794676	-1.242553
C138	C	1.443628	1.294676	-0.742553
C139	C	0.943598	0.794708	-1.121856
C140	C	1.443598	1.294708	-0.621856
C141	C	1.000326	0.720818	-1.061535
C142	C	1.500326	1.220818	-0.561535
H143	H	1.099125	0.592143	-1.287295
H144	H	1.599125	1.092143	-0.787295
H145	H	1.000404	0.720732	-1.392270
H146	H	1.500404	1.220732	-0.892270
H147	H	0.901634	0.849374	-1.287207
H148	H	1.401634	1.349374	-0.787207
H149	H	0.901583	0.849430	-1.077162
H150	H	1.401583	1.349430	-0.577162
H151	H	1.000304	0.720842	-0.972187
H152	H	1.500304	1.220842	-0.472187
H153	H	1.362135	0.249621	-0.907302
H154	H	1.862135	0.749621	-0.407302
H155	H	1.268538	0.371540	-0.807736
H156	H	1.768538	0.871540	-0.307736
H157	H	1.362174	0.249546	-1.106367
H158	H	1.862174	0.749546	-0.606367
H159	H	1.268595	0.371390	-1.205872
H160	H	1.768595	0.871390	-0.705872
H161	H	1.071764	0.627744	-0.907179
H162	H	1.571764	1.127744	-0.407179
