data_functionalizedCrystal
_audit_creation_method	'MofGen! by Chris Wilmer'
_symmetry_space_group_name_H-M	'P1'
_symmetry_Int_Tables_number	1
_symmetry_cell_setting	triclinic
loop_
_symmetry_equiv_pos_as_xyz
  x,y,z
_cell_length_a	6.394989
_cell_length_b	8.559649
_cell_length_c	7.088929
_cell_angle_alpha	95.344185
_cell_angle_beta	83.614363
_cell_angle_gamma	78.138188
loop_
_atom_site_label
_atom_site_type_symbol
_atom_site_fract_x
_atom_site_fract_y
_atom_site_fract_z
O1	O	-2.705644	-0.276866	-0.158957
O2	O	-2.095406	-0.290011	-0.158965
O3	O	-2.454288	-0.051919	-0.158958
O4	O	-2.346762	-0.514958	-0.158964
O5	O	-2.502260	-0.020027	0.159018
O6	O	-2.143378	-0.258119	0.159011
O7	O	-2.753617	-0.244973	0.159019
Cu8	Cu	-2.452878	-0.248634	0.188049
Cu9	Cu	-2.396144	-0.286351	-0.187995
O10	O	-2.394735	-0.483066	0.159012
C11	C	-2.486422	0.023393	0.000026
C12	C	-2.510676	0.200283	0.000016
C13	C	-2.362600	-0.558378	0.000024
C14	C	-2.338344	-0.735270	0.000022
N15	N	-2.492796	-0.222106	0.452538
C16	C	-2.041989	-0.271465	0.000033
C17	C	-1.807029	-0.263521	0.000041
N18	N	-2.356244	-0.312867	-0.452483
H19	H	-2.172248	0.184579	0.000026
C20	C	-2.180935	-0.592345	0.485538
C21	C	-2.165187	-0.439838	0.437304
H22	H	-2.062987	-0.670732	0.417478
H23	H	-2.178209	-0.594151	0.619016
H24	H	-2.312277	-0.615589	0.452798
H25	H	-2.033852	-0.416589	0.470057
H26	H	-2.167892	-0.438028	0.303795
C27	C	-2.668115	0.057378	0.514515
C28	C	-2.683864	-0.095127	0.562756
H29	H	-2.786077	0.135764	0.582553
H30	H	-2.536798	0.080627	0.547259
H31	H	-2.670826	0.059173	0.381015
H32	H	-2.681137	-0.096925	0.696254
H33	H	-2.815216	-0.118382	0.530025
H34	H	-2.676786	0.280446	0.000033
