data_functionalizedCrystal
_audit_creation_method	'MofGen! by Chris Wilmer'
_symmetry_space_group_name_H-M	'P1'
_symmetry_Int_Tables_number	1
_symmetry_cell_setting	triclinic
loop_
_symmetry_equiv_pos_as_xyz
  x,y,z
_cell_length_a	16.992694
_cell_length_b	16.992695
_cell_length_c	16.053802
_cell_angle_alpha	92.747646
_cell_angle_beta	92.750953
_cell_angle_gamma	89.331778
loop_
_atom_site_label
_atom_site_type_symbol
_atom_site_fract_x
_atom_site_fract_y
_atom_site_fract_z
O1	O	-1.053958	0.163816	-0.069305
O2	O	-0.825559	0.161984	-0.069330
O3	O	-0.938844	0.048699	-0.069325
O4	O	-0.940674	0.277100	-0.069310
O5	O	-0.932606	0.054907	0.069534
O6	O	-0.819322	0.168192	0.069529
O7	O	-1.047721	0.170024	0.069554
Zn8	Zn	-0.932531	0.170093	0.091588
Zn9	Zn	-0.940749	0.161914	-0.091364
O10	O	-0.934437	0.283308	0.069549
C11	C	-0.793081	0.162732	0.000096
C12	C	-0.705597	0.155703	0.000086
C13	C	-1.080200	0.169276	0.000126
C14	C	-1.167684	0.176305	0.000130
C15	C	-0.933369	0.022443	0.000101
C16	C	-0.926341	-0.065042	0.000089
C17	C	-0.939911	0.309564	0.000121
C18	C	-0.946940	0.397049	0.000127
C19	C	-0.659605	0.223521	0.000091
C20	C	-0.577404	0.216912	0.000102
C21	C	-0.541196	0.142485	0.000102
C22	C	-0.587193	0.074662	0.000100
C23	C	-0.669392	0.081271	0.000095
C24	C	-0.295881	0.115091	0.000123
C25	C	-0.213675	0.108487	0.000125
C26	C	-0.203892	0.250738	0.000129
C27	C	-0.286094	0.257341	0.000119
C28	C	-0.332083	0.189518	0.000121
N29	N	-0.457173	0.135728	0.000111
N30	N	-0.416104	0.196276	0.000118
N31	N	-0.926929	0.175676	0.216448
C32	C	-0.879122	0.443040	0.000120
C33	C	-0.885731	0.525240	0.000110
C34	C	-0.960159	0.561449	0.000114
C35	C	-1.027982	0.515452	0.000119
C36	C	-1.021372	0.433253	0.000123
C37	C	-0.987554	0.806762	0.000098
C38	C	-0.994159	0.888967	0.000097
C39	C	-0.851908	0.898750	0.000086
C40	C	-0.845304	0.816549	0.000095
C41	C	-0.913127	0.770559	0.000095
N42	N	-0.966916	0.645471	0.000107
N43	N	-0.906369	0.686539	0.000097
N44	N	-0.946358	0.156326	-0.216224
C45	C	-0.975151	0.127492	0.260144
C46	C	-0.971240	0.131405	0.347551
C47	C	-0.919109	0.183505	0.391260
C48	C	-0.870882	0.231691	0.347557
C49	C	-0.874789	0.227773	0.260152
C50	C	-0.902038	0.200594	0.652668
C51	C	-0.898135	0.204509	0.740080
C52	C	-0.998493	0.104222	0.740067
C53	C	-1.002399	0.100313	0.652660
C54	C	-0.954169	0.148495	0.608966
N55	N	-0.915112	0.187508	0.480603
N56	N	-0.958163	0.144488	0.519624
H57	H	-0.539961	0.272137	0.000105
C58	C	-0.883352	0.314976	0.838363
C59	C	-0.840824	0.261782	0.788121
H60	H	-0.847972	0.350334	0.868015
H61	H	-0.911508	0.286843	0.876894
H62	H	-0.919411	0.343834	0.804247
H63	H	-0.804770	0.232918	0.822237
H64	H	-0.812656	0.289917	0.749585
C65	C	-0.231598	-0.031466	0.000130
C66	C	-0.173873	0.026669	0.000127
H67	H	-0.207023	-0.081972	0.000133
H68	H	-0.265624	-0.028099	-0.048289
H69	H	-0.261285	-0.023759	0.048557
H70	H	-0.144190	0.018966	-0.048304
H71	H	-0.139833	0.023300	0.048551
H72	H	-0.784698	0.787074	0.000082
C73	C	-1.120639	0.902755	-0.071298
C74	C	-1.075973	0.928775	0.000088
H75	H	-1.171141	0.927337	-0.071305
H76	H	-1.126417	0.847226	-0.071290
H77	H	-1.094653	0.916068	-0.119713
H78	H	-1.101956	0.915457	0.048503
H79	H	-1.070198	0.984316	0.000087
H80	H	-1.010506	0.092170	0.383128
C81	C	-0.780023	0.993661	-0.071314
C82	C	-0.777360	0.949302	0.000073
H83	H	-0.733995	1.024865	-0.071325
H84	H	-0.825288	1.026986	-0.071303
H85	H	-0.782579	0.959211	-0.119728
H86	H	-0.774810	0.983752	0.048488
H87	H	-0.732083	0.915973	0.000070
H88	H	-0.557705	0.014061	0.000112
H89	H	-0.828432	0.274109	0.383150
H90	H	-0.830507	0.562682	0.000101
C91	C	-1.085578	0.112725	0.161793
C92	C	-1.032418	0.070199	0.212081
H93	H	-1.120923	0.077344	0.132121
H94	H	-1.057418	0.140873	0.123278
H95	H	-1.114456	0.148789	0.195878
H96	H	-1.003537	0.034139	0.177995
H97	H	-1.060582	0.042038	0.250600
H98	H	-1.042781	0.769327	0.000104
C99	C	-0.397184	0.036803	-0.071270
C100	C	-0.346425	0.040539	0.000113
H101	H	-0.428392	-0.009223	-0.071273
H102	H	-0.367080	0.035020	-0.119682
H103	H	-0.430512	0.082075	-0.071258
H104	H	-0.313092	-0.004730	0.000098
H105	H	-0.376531	0.042316	0.048537
C106	C	-1.101276	0.637112	0.000128
C107	C	-1.109794	0.555251	0.000126
H108	H	-1.151786	0.661679	0.000140
H109	H	-1.075317	0.650421	-0.048296
H110	H	-1.070959	0.654754	0.048551
H111	H	-1.140107	0.537608	-0.048300
H112	H	-1.135765	0.541935	0.048555
H113	H	-1.044848	0.057889	0.617074
C114	C	-1.162643	0.431835	0.000141
C115	C	-1.095919	0.382697	0.000134
H116	H	-1.208665	0.400622	0.000150
H117	H	-1.164436	0.461928	-0.048280
H118	H	-1.160083	0.466270	0.048566
H119	H	-1.098476	0.348266	-0.048295
H120	H	-1.094126	0.352590	0.048560
H121	H	-1.037759	0.064994	0.775651
C122	C	-0.802455	0.300122	0.661473
C123	C	-0.849030	0.253562	0.604647
H124	H	-0.769733	0.332827	0.631822
H125	H	-0.770567	0.267091	0.695568
H126	H	-0.835483	0.332034	0.695559
H127	H	-0.816002	0.221645	0.570565
H128	H	-0.880921	0.286597	0.570537
C129	C	-0.739180	0.460974	0.000096
C130	C	-0.797308	0.403243	0.000111
H131	H	-0.688671	0.436405	0.000082
H132	H	-0.742539	0.494997	0.048516
H133	H	-0.746901	0.490663	-0.048331
H134	H	-0.789590	0.373558	0.048541
H135	H	-0.793947	0.369206	-0.048314
C136	C	-0.679757	0.343613	-0.071285
C137	C	-0.699399	0.305336	0.000090
H138	H	-0.704318	0.394126	-0.071280
H139	H	-0.697412	0.313310	-0.119702
H140	H	-0.624217	0.349373	-0.071272
H141	H	-0.754938	0.299571	0.000073
H142	H	-0.681748	0.335647	0.048520
C143	C	-0.306222	0.377425	-0.071265
C144	C	-0.325875	0.339162	0.000115
H145	H	-0.330774	0.427942	-0.071268
H146	H	-0.323880	0.347119	-0.119679
H147	H	-0.250681	0.383175	-0.071249
H148	H	-0.381416	0.333407	0.000096
H149	H	-0.308222	0.369475	0.048542
C150	C	-0.838303	0.359922	0.233232
C151	C	-0.821786	0.280740	0.212116
H152	H	-0.805581	0.392619	0.203572
H153	H	-0.828512	0.369707	0.291534
H154	H	-0.892017	0.371141	0.218895
H155	H	-0.768074	0.269519	0.226458
H156	H	-0.831571	0.270951	0.153801
C157	C	-0.073542	0.303773	0.000147
C158	C	-0.153338	0.325286	0.000138
H159	H	-0.042334	0.349799	0.000160
H160	H	-0.064251	0.271309	-0.048276
H161	H	-0.059923	0.275629	0.048571
H162	H	-0.166959	0.353425	-0.048289
H163	H	-0.162633	0.357763	0.048566
C164	C	-0.706247	-0.041130	-0.071302
C165	C	-0.719952	0.006725	0.000082
H166	H	-0.737465	-0.087150	-0.071308
H167	H	-0.652118	-0.055718	-0.071293
H168	H	-0.719877	-0.012979	-0.119718
H169	H	-0.706316	-0.021425	0.048499
H170	H	-0.774094	0.021311	0.000081
