data_functionalizedCrystal
_audit_creation_method	'MofGen! by Chris Wilmer'
_symmetry_space_group_name_H-M	'P1'
_symmetry_Int_Tables_number	1
_symmetry_cell_setting	triclinic
loop_
_symmetry_equiv_pos_as_xyz
  x,y,z
_cell_length_a	27.435584
_cell_length_b	27.434948
_cell_length_c	27.431174
_cell_angle_alpha	60.005483
_cell_angle_beta	60.011353
_cell_angle_gamma	59.993028
loop_
_atom_site_label
_atom_site_type_symbol
_atom_site_fract_x
_atom_site_fract_y
_atom_site_fract_z
O1	O	0.067437	-0.712144	0.595551
O2	O	0.567437	-0.212144	1.095551
O3	O	0.025356	-0.554453	0.479848
O4	O	0.525356	-0.054453	0.979848
O5	O	0.125206	-0.654236	0.479781
O6	O	0.625206	-0.154236	0.979781
O7	O	-0.032412	-0.612361	0.595618
O8	O	0.467588	-0.112361	1.095618
O9	O	0.158328	-0.621117	0.512835
O10	O	0.658328	-0.121117	1.012835
O11	O	0.058479	-0.521333	0.512902
O12	O	0.558479	-0.021333	1.012902
O13	O	0.100560	-0.679025	0.628605
O14	O	0.600560	-0.179025	1.128605
Zn15	Zn	0.084778	-0.594921	0.576001
Zn16	Zn	0.584778	-0.094921	1.076001
Zn17	Zn	0.041138	-0.638557	0.532452
Zn18	Zn	0.541138	-0.138557	1.032452
O19	O	0.000710	-0.579241	0.628672
O20	O	0.500710	-0.079241	1.128672
N21	N	0.114563	-0.565144	0.605726
N22	N	0.614563	-0.065144	1.105726
N23	N	0.011358	-0.668338	0.502727
N24	N	0.511358	-0.168338	1.002727
C25	C	0.156385	-0.523520	0.904506
C26	C	0.656385	-0.023520	1.404506
C27	C	0.413419	-0.523497	0.647322
C28	C	0.913419	-0.023497	1.147322
C29	C	0.156253	-0.523488	0.647384
C30	C	0.656253	-0.023488	1.147384
C31	C	0.156238	-0.266354	0.647407
C32	C	0.656238	0.233646	1.147407
C33	C	0.197637	-0.390463	0.688753
C34	C	0.697637	0.109537	1.188753
C35	C	0.197646	-0.482126	0.688741
C36	C	0.697646	0.017874	1.188741
C37	C	0.220575	-0.459215	0.711654
C38	C	0.720575	0.040785	1.211654
C39	C	0.320555	-0.441991	0.659023
C40	C	0.820555	0.058009	1.159023
C41	C	0.383051	-0.462825	0.638179
C42	C	0.883051	0.037175	1.138179
C43	C	0.383069	-0.563942	0.676737
C44	C	0.883069	-0.063942	1.176737
C45	C	0.320575	-0.543107	0.697583
C46	C	0.820575	-0.043107	1.197583
C47	C	0.212704	-0.359206	0.627313
C48	C	0.712704	0.140794	1.127313
C49	C	0.191849	-0.296705	0.606496
C50	C	0.691849	0.203295	1.106496
C51	C	0.140866	-0.296722	0.708562
C52	C	0.640866	0.203278	1.208562
C53	C	0.161721	-0.359223	0.729379
C54	C	0.661721	0.140777	1.229379
C55	C	0.136200	-0.467030	0.703858
C56	C	0.636200	0.032970	1.203858
C57	C	0.115361	-0.487857	0.683021
C58	C	0.615361	0.012143	1.183021
C59	C	0.217408	-0.538877	0.631968
C60	C	0.717408	-0.038877	1.131968
C61	C	0.238249	-0.518050	0.652796
C62	C	0.738249	-0.018050	1.152796
C63	C	0.136259	-0.467047	0.811668
C64	C	0.636259	0.032953	1.311668
C65	C	0.115461	-0.487892	0.874167
C66	C	0.615461	0.012108	1.374167
C67	C	0.217537	-0.538923	0.874131
C68	C	0.717537	-0.038923	1.374131
C69	C	0.238333	-0.518080	0.811631
C70	C	0.738333	-0.018080	1.311631
C71	C	0.197693	-0.482140	0.780401
C72	C	0.697693	0.017860	1.280401
C73	C	0.289320	-0.482131	0.688723
C74	C	0.789320	0.017869	1.188723
C75	C	0.132699	-0.546027	0.973247
C76	C	0.632699	-0.046027	1.473247
C77	C	0.482158	-0.545613	0.624075
C78	C	0.982158	-0.045613	1.124075
C79	C	0.132521	-0.546006	0.624886
C80	C	0.632521	-0.046006	1.124886
C81	C	0.132917	-0.197607	0.625310
C82	C	0.632917	0.302393	1.125310
C83	C	-0.098217	-0.686189	0.484419
C84	C	0.401783	-0.186189	0.984419
C85	C	-0.006438	-0.686322	0.392891
C86	C	0.493562	-0.186322	0.892891
C87	C	-0.006621	-0.777944	0.484592
C88	C	0.493379	-0.277944	0.984592
C89	C	-0.006606	-0.686315	0.484649
C90	C	0.493394	-0.186315	0.984649
C91	C	-0.029470	-0.709193	0.461638
C92	C	0.470530	-0.209193	0.961638
N93	N	0.538410	-0.565162	0.605628
N94	N	1.038410	-0.065162	1.105628
O95	O	0.742647	-0.575135	0.458625
O96	O	1.242647	-0.075135	0.958625
O97	O	0.742821	-0.691181	0.616169
O98	O	1.242821	-0.191181	1.116169
O99	O	0.742757	-0.690917	0.516248
O100	O	1.242757	-0.190917	1.016248
O101	O	0.742711	-0.575399	0.558546
O102	O	1.242711	-0.075399	1.058546
O103	O	0.643472	-0.657878	0.549405
O104	O	1.143472	-0.157878	1.049405
O105	O	0.643536	-0.658142	0.649326
O106	O	1.143536	-0.158142	1.149326
O107	O	0.643362	-0.542096	0.491782
O108	O	1.143362	-0.042096	0.991782
Zn109	Zn	0.627685	-0.594873	0.575818
Zn110	Zn	1.127685	-0.094873	1.075818
Zn111	Zn	0.758498	-0.638404	0.532133
Zn112	Zn	1.258498	-0.138404	1.032133
O113	O	0.643426	-0.542360	0.591702
O114	O	1.143426	-0.042360	1.091702
N115	N	0.847774	-0.668115	0.502317
N116	N	1.347774	-0.168115	1.002317
N117	N	0.114542	-0.141354	0.605766
N118	N	0.614542	0.358646	1.105766
O119	O	-0.032397	0.062987	0.595660
O120	O	0.467603	0.562987	1.095660
O121	O	0.125155	0.062987	0.479633
O122	O	0.625155	0.562987	0.979633
O123	O	0.025219	0.062974	0.479910
O124	O	0.525219	0.562974	0.979910
O125	O	0.067539	0.063001	0.595383
O126	O	0.567539	0.563001	1.095383
O127	O	0.058343	-0.036320	0.513009
O128	O	0.558343	0.463680	1.013009
O129	O	0.158279	-0.036306	0.512732
O130	O	0.658279	0.463694	1.012732
O131	O	0.000728	-0.036306	0.628759
O132	O	0.500728	0.463694	1.128759
Zn133	Zn	0.084763	-0.052071	0.576000
Zn134	Zn	0.584763	0.447929	1.076000
Zn135	Zn	0.041120	0.078752	0.532392
Zn136	Zn	0.541120	0.578752	1.032392
O137	O	0.100664	-0.036292	0.628482
O138	O	0.600664	0.463708	1.128482
N139	N	0.011333	0.168036	0.502628
N140	N	0.511333	0.668036	1.002628
N141	N	0.114782	-0.565197	1.029501
N142	N	0.614782	-0.065197	1.529501
O143	O	0.104681	-0.712124	1.233827
O144	O	0.604681	-0.212124	1.733827
O145	O	-0.011334	-0.554523	1.233839
O146	O	0.488666	-0.054523	1.733839
O147	O	-0.011066	-0.654443	1.233797
O148	O	0.488934	-0.154443	1.733797
O149	O	0.104414	-0.612204	1.233869
O150	O	0.604414	-0.112204	1.733869
O151	O	0.022028	-0.621336	1.134509
O152	O	0.522028	-0.121336	1.634509
O153	O	0.021760	-0.521417	1.134551
O154	O	0.521760	-0.021417	1.634551
O155	O	0.137775	-0.679018	1.134539
O156	O	0.637775	-0.179018	1.634539
Zn157	Zn	0.085022	-0.594961	1.118780
Zn158	Zn	0.585022	-0.094961	1.618780
Zn159	Zn	0.041420	-0.638580	1.249597
Zn160	Zn	0.541420	-0.138580	1.749597
O161	O	0.137508	-0.579098	1.134580
O162	O	0.637508	-0.079098	1.634580
N163	N	0.011658	-0.668350	1.338876
N164	N	0.511658	-0.168350	1.838876
C165	C	0.037974	-0.518023	0.480435
C166	C	0.537974	-0.018023	0.980435
C167	C	0.161625	-0.641592	0.480351
C168	C	0.661625	-0.141592	0.980351
C169	C	0.087941	-0.715455	0.628017
C170	C	0.587941	-0.215455	1.128017
C171	C	-0.035710	-0.591885	0.628101
C172	C	0.464290	-0.091885	1.128101
C173	C	0.693199	-0.690642	0.652596
C174	C	1.193199	-0.190642	1.152596
C175	C	0.693122	-0.690315	0.528855
C176	C	1.193122	-0.190315	1.028855
C177	C	0.692981	-0.542634	0.455356
C178	C	1.192981	-0.042634	0.955356
C179	C	0.693062	-0.542961	0.579095
C180	C	1.193062	-0.042961	1.079095
C181	C	0.161524	0.013463	0.480164
C182	C	0.661524	0.513463	0.980164
C183	C	0.037807	0.013324	0.480547
C184	C	0.537807	0.513324	0.980547
C185	C	-0.035683	0.013341	0.628188
C186	C	0.464317	0.513341	1.128188
C187	C	0.088076	0.013357	0.627845
C188	C	0.588076	0.513357	1.127845
C189	C	-0.010764	-0.518114	1.184196
C190	C	0.489236	-0.018114	1.684196
C191	C	-0.010426	-0.641846	1.184125
C192	C	0.489574	-0.141846	1.684125
C193	C	0.137205	-0.715426	1.184182
C194	C	0.637205	-0.215426	1.684182
C195	C	0.136875	-0.591687	1.184231
C196	C	0.636875	-0.091687	1.684231
H197	H	0.103160	-0.437777	0.786243
H198	H	0.603160	0.062223	1.286243
H199	H	0.173631	-0.760687	1.184171
H200	H	0.673631	-0.260687	1.684171
H201	H	-0.080930	0.013340	0.664614
H202	H	0.419070	0.513340	1.164614
O203	O	-0.054275	-0.464141	1.184171
O204	O	0.445725	0.035859	1.684171
C205	C	-0.105659	-0.464147	1.184162
C206	C	0.394341	0.035853	1.684162
H207	H	-0.092420	-0.499501	1.165353
H208	H	0.407580	0.000499	1.665353
H209	H	-0.138112	-0.474567	1.231790
H210	H	0.361888	0.025433	1.731790
C211	C	-0.152094	-0.358897	1.168325
C212	C	0.347906	0.141103	1.668325
C213	C	-0.135833	-0.402316	1.145218
C214	C	0.364167	0.097684	1.645218
H215	H	-0.170709	-0.320756	1.144305
H216	H	0.329291	0.179244	1.644305
H217	H	-0.117477	-0.358893	1.168333
H218	H	0.382523	0.141107	1.668333
H219	H	-0.179135	-0.367588	1.208015
H220	H	0.320865	0.132412	1.708015
H221	H	-0.108787	-0.393628	1.105532
H222	H	0.391213	0.106372	1.605532
H223	H	-0.170447	-0.402317	1.145203
H224	H	0.329553	0.097683	1.645203
H225	H	0.028987	-0.472723	0.444098
H226	H	0.528987	0.027277	0.944098
H227	H	0.097136	0.013366	0.664120
H228	H	0.597136	0.513366	1.164120
H229	H	-0.046689	-0.650868	1.184063
H230	H	0.453311	-0.150868	1.684063
H231	H	0.096930	-0.760753	0.664356
H232	H	0.596930	-0.260753	1.164356
O233	O	0.692940	-0.499239	0.401340
O234	O	1.192940	0.000761	0.901340
C235	C	0.692911	-0.520728	0.364192
C236	C	1.192911	-0.020728	0.864192
H237	H	0.711754	-0.571581	0.380336
H238	H	1.211754	-0.071581	0.880336
H239	H	0.645269	-0.505580	0.365838
H240	H	1.145269	-0.005580	0.865838
C241	C	0.708641	-0.433508	0.279752
C242	C	1.208641	0.066492	0.779752
C243	C	0.731789	-0.495967	0.299577
C244	C	1.231789	0.004033	0.799577
H245	H	0.732620	-0.418233	0.239894
H246	H	1.232620	0.081767	0.739894
H247	H	0.708658	-0.419029	0.304780
H248	H	1.208658	0.080971	0.804780
H249	H	0.668939	-0.420893	0.281129
H250	H	1.168939	0.079107	0.781129
H251	H	0.771486	-0.508581	0.298207
H252	H	1.271486	-0.008581	0.798207
H253	H	0.731779	-0.510448	0.274548
H254	H	1.231779	-0.010448	0.774548
O255	O	0.215673	-0.652328	0.437025
O256	O	0.715673	-0.152328	0.937025
C257	C	0.252761	-0.710997	0.458607
C258	C	0.752761	-0.210997	0.958607
H259	H	0.236553	-0.726804	0.509458
H260	H	0.736553	-0.226804	1.009458
H261	H	0.251121	-0.741869	0.443480
H262	H	0.751121	-0.241869	0.943480
C263	C	0.337288	-0.692616	0.371466
C264	C	0.837288	-0.192616	0.871466
C265	C	0.317385	-0.712028	0.433923
C266	C	0.817385	-0.212028	0.933923
H267	H	0.377152	-0.693253	0.356238
H268	H	0.877152	-0.193253	0.856238
H269	H	0.312301	-0.653089	0.356925
H270	H	0.812301	-0.153089	0.856925
H271	H	0.335917	-0.718345	0.358869
H272	H	0.835917	-0.218345	0.858869
H273	H	0.318749	-0.686295	0.446519
H274	H	0.818749	-0.186295	0.946519
H275	H	0.342373	-0.751550	0.448465
H276	H	0.842373	-0.251550	0.948465
O277	O	-0.089740	-0.581133	0.671444
O278	O	0.410260	-0.081133	1.171444
C279	C	-0.126839	-0.522474	0.649852
C280	C	0.373161	-0.022474	1.149852
H281	H	-0.098087	-0.494128	0.611514
H282	H	0.401913	0.005872	1.111514
H283	H	-0.156987	-0.523379	0.633269
H284	H	0.343013	-0.023379	1.133269
C285	C	-0.200788	-0.530281	0.747545
C286	C	0.299212	-0.030281	1.247545
C287	C	-0.165475	-0.495465	0.700460
C288	C	0.334525	0.004535	1.200460
H289	H	-0.224622	-0.513621	0.778762
H290	H	0.275378	-0.013621	1.278762
H291	H	-0.175795	-0.569802	0.762092
H292	H	0.324205	-0.069802	1.262092
H293	H	-0.225906	-0.531033	0.733718
H294	H	0.274094	-0.031033	1.233718
H295	H	-0.140351	-0.494720	0.714285
H296	H	0.359649	0.005280	1.214285
H297	H	-0.190464	-0.455943	0.685916
H298	H	0.309536	0.044057	1.185916
H299	H	0.173154	-0.582650	1.184245
H300	H	0.673154	-0.082650	1.684245
H301	H	0.065433	-0.475593	0.899616
H302	H	0.565433	0.024407	1.399616
H303	H	0.250633	-0.568176	0.899553
H304	H	0.750633	-0.068176	1.399553
H305	H	0.693053	-0.506675	0.588146
H306	H	1.193053	-0.006675	1.088146
O307	O	0.693281	-0.734050	0.706598
O308	O	1.193281	-0.234050	1.206598
C309	C	0.693272	-0.712549	0.743759
C310	C	1.193272	-0.212549	1.243759
H311	H	0.712030	-0.674208	0.715058
H312	H	1.212030	-0.174208	1.215058
H313	H	0.645648	-0.695995	0.773928
H314	H	1.145648	-0.195995	1.273928
C315	C	0.709221	-0.810310	0.817620
C316	C	1.209221	-0.310310	1.317620
C317	C	0.732264	-0.763221	0.782368
C318	C	1.232264	-0.263221	1.282368
H319	H	0.733271	-0.841567	0.841438
H320	H	1.233271	-0.341567	1.341438
H321	H	0.709225	-0.824796	0.792585
H322	H	1.209225	-0.324796	1.292585
H323	H	0.669534	-0.796507	0.842755
H324	H	1.169534	-0.296507	1.342755
H325	H	0.771947	-0.777023	0.757228
H326	H	1.271947	-0.277023	1.257228
H327	H	0.732268	-0.748739	0.807400
H328	H	1.232268	-0.248739	1.307400
H329	H	0.693140	-0.726605	0.519802
H330	H	1.193140	-0.226605	1.019802
H331	H	0.028745	0.013321	0.444270
H332	H	0.528745	0.513321	0.944270
O333	O	0.298034	-0.532778	0.781353
O334	O	0.798034	-0.032778	1.281353
C335	C	0.329441	-0.568978	0.822321
C336	C	0.829441	-0.068978	1.322321
H337	H	0.299652	-0.561006	0.866878
H338	H	0.799652	-0.061006	1.366878
H339	H	0.342923	-0.617932	0.828959
H340	H	0.842923	-0.117932	1.328959
C341	C	0.422363	-0.562950	0.743192
C342	C	0.922363	-0.062950	1.243192
C343	C	0.385777	-0.553156	0.797916
C344	C	0.885777	-0.053156	1.297916
H345	H	0.457116	-0.553193	0.728138
H346	H	0.957116	-0.053193	1.228138
H347	H	0.401205	-0.538564	0.715590
H348	H	0.901205	-0.038564	1.215590
H349	H	0.433592	-0.603746	0.748732
H350	H	0.933592	-0.103746	1.248732
H351	H	0.374543	-0.512360	0.792375
H352	H	0.874543	-0.012360	1.292375
H353	H	0.406936	-0.577535	0.825517
H354	H	0.906936	-0.077535	1.325517
O355	O	0.215341	0.013865	0.436521
O356	O	0.715341	0.513865	0.936521
C357	C	0.207172	0.065402	0.386381
C358	C	0.707172	0.565402	0.886381
H359	H	0.159513	0.082354	0.387191
H360	H	0.659513	0.582354	0.887191
H361	H	0.215552	0.101474	0.387543
H362	H	0.715552	0.601474	0.887543
C363	C	0.309846	0.029251	0.327951
C364	C	0.809846	0.529251	0.827951
C365	C	0.251311	0.050069	0.328943
C366	C	0.751311	0.550069	0.828943
H367	H	0.337073	0.019795	0.292521
H368	H	0.837073	0.519795	0.792521
H369	H	0.315350	-0.005469	0.361732
H370	H	0.815350	0.494531	0.861732
H371	H	0.316820	0.059315	0.328922
H372	H	0.816820	0.559315	0.828922
H373	H	0.244334	0.020003	0.327980
H374	H	0.744334	0.520003	0.827980
H375	H	0.245806	0.084784	0.295161
H376	H	0.745806	0.584784	0.795161
H377	H	0.103135	-0.437780	0.733124
H378	H	0.603135	0.062220	1.233124
H379	H	0.250475	-0.568133	0.602707
H380	H	0.750475	-0.068133	1.102707
O381	O	0.055669	-0.473271	0.697805
O382	O	0.555669	0.026729	1.197805
C383	C	0.029746	-0.494649	0.760405
C384	C	0.529746	0.005351	1.260405
H385	H	0.065352	-0.533196	0.780534
H386	H	0.565352	-0.033196	1.280534
H387	H	0.010015	-0.457160	0.778928
H388	H	0.510015	0.042840	1.278928
C389	C	-0.063743	-0.469229	0.751853
C390	C	0.436257	0.030771	1.251853
C391	C	-0.020013	-0.516576	0.776574
C392	C	0.479987	-0.016576	1.276574
H393	H	-0.094439	-0.482752	0.761827
H394	H	0.405561	0.017248	1.261827
H395	H	-0.046280	-0.454824	0.709678
H396	H	0.453720	0.045176	1.209678
H397	H	-0.080179	-0.437992	0.767291
H398	H	0.419821	0.062008	1.267291
H399	H	-0.003573	-0.547808	0.761130
H400	H	0.496427	-0.047808	1.261130
H401	H	-0.037475	-0.530987	0.818747
H402	H	0.462525	-0.030987	1.318747
O403	O	0.297957	-0.532772	0.638066
O404	O	0.797957	-0.032772	1.138066
C405	C	0.329328	-0.568924	0.601851
C406	C	0.829328	-0.068924	1.101851
H407	H	0.299535	-0.591663	0.609841
H408	H	0.799535	-0.091663	1.109841
H409	H	0.342753	-0.540071	0.552902
H410	H	0.842753	-0.040071	1.052902
C411	C	0.422300	-0.588744	0.607808
C412	C	0.922300	-0.088744	1.107808
C413	C	0.385710	-0.616676	0.617625
C414	C	0.885710	-0.116676	1.117625
H415	H	0.457080	-0.618198	0.617536
H416	H	0.957080	-0.118198	1.117536
H417	H	0.401165	-0.564386	0.632205
H418	H	0.901165	-0.064386	1.132205
H419	H	0.433481	-0.564701	0.567017
H420	H	0.933481	-0.064701	1.067017
H421	H	0.374524	-0.640712	0.658417
H422	H	0.874524	-0.140712	1.158417
H423	H	0.406844	-0.641039	0.593236
H424	H	0.906844	-0.141039	1.093236
H425	H	0.295144	-0.575796	0.721768
H426	H	0.795144	-0.075796	1.221768
H427	H	0.408481	-0.430137	0.613993
H428	H	0.908481	0.069863	1.113993
O429	O	0.413528	-0.623152	0.685267
O430	O	0.913528	-0.123152	1.185267
C431	C	0.475386	-0.632935	0.660513
C432	C	0.975386	-0.132935	1.160513
H433	H	0.483903	-0.589924	0.624690
H434	H	0.983903	-0.089924	1.124690
H435	H	0.493140	-0.647340	0.697089
H436	H	0.993140	-0.147340	1.197089
C437	C	0.497005	-0.735093	0.676455
C438	C	0.997005	-0.235093	1.176455
C439	C	0.507466	-0.682266	0.632453
C440	C	1.007466	-0.182266	1.132453
H441	H	0.516795	-0.765524	0.659149
H442	H	1.016795	-0.265524	1.159149
H443	H	0.455330	-0.728503	0.693134
H444	H	0.955330	-0.228503	1.193134
H445	H	0.511801	-0.747088	0.706932
H446	H	1.011801	-0.247088	1.206932
H447	H	0.492664	-0.670268	0.601981
H448	H	0.992664	-0.170268	1.101981
H449	H	0.549140	-0.688855	0.615768
H450	H	1.049140	-0.188855	1.115768
H451	H	0.295112	-0.392340	0.651807
H452	H	0.795112	0.107660	1.151807
H453	H	0.204115	-0.271255	0.556464
H454	H	0.704115	0.228745	1.056464
O455	O	0.247562	-0.389461	0.587771
O456	O	0.747562	0.110539	1.087771
C457	C	0.256393	-0.348468	0.529077
C458	C	0.756393	0.151532	1.029077
H459	H	0.218707	-0.303918	0.529204
H460	H	0.718707	0.196082	1.029204
H461	H	0.300911	-0.341818	0.511157
H462	H	0.800911	0.158182	1.011157
C463	C	0.303098	-0.427570	0.488843
C464	C	0.803098	0.072430	0.988843
C465	C	0.256808	-0.372854	0.488998
C466	C	0.756808	0.127146	0.988998
H467	H	0.303357	-0.442613	0.464119
H468	H	0.803357	0.057387	0.964119
H469	H	0.297151	-0.455188	0.528386
H470	H	0.797151	0.044812	1.028386
H471	H	0.340192	-0.422021	0.473910
H472	H	0.840192	0.077979	0.973910
H473	H	0.219716	-0.378405	0.503937
H474	H	0.719716	0.121595	1.003937
H475	H	0.262750	-0.345237	0.449456
H476	H	0.762750	0.154763	0.949456
H477	H	0.111630	-0.271286	0.741644
H478	H	0.611630	0.228714	1.241644
H479	H	0.149444	-0.384673	0.779411
H480	H	0.649444	0.115327	1.279411
