data_functionalizedCrystal
_audit_creation_method	'MofGen! by Chris Wilmer'
_symmetry_space_group_name_H-M	'P1'
_symmetry_Int_Tables_number	1
_symmetry_cell_setting	triclinic
loop_
_symmetry_equiv_pos_as_xyz
  x,y,z
_cell_length_a	17.699083
_cell_length_b	10.723024
_cell_length_c	16.176319
_cell_angle_alpha	89.994397
_cell_angle_beta	89.998611
_cell_angle_gamma	83.875442
loop_
_atom_site_label
_atom_site_type_symbol
_atom_site_fract_x
_atom_site_fract_y
_atom_site_fract_z
O1	O	1.005074	0.157797	-0.068628
O2	O	0.784825	0.178327	-0.068655
O3	O	0.900030	-0.013601	-0.068638
O4	O	0.889869	0.349725	-0.068646
O5	O	0.900014	-0.013613	0.068855
O6	O	0.784809	0.178315	0.068838
O7	O	1.005058	0.157785	0.068865
Cu8	Cu	0.894932	0.168049	0.081406
Cu9	Cu	0.894951	0.168063	-0.081196
O10	O	0.889853	0.349713	0.068848
C11	C	0.756616	0.177585	0.000088
C12	C	0.672584	0.175378	0.000078
C13	C	0.624673	0.288036	0.000076
C14	C	0.545717	0.285955	0.000086
C15	C	0.514672	0.171215	0.000093
C16	C	0.562589	0.058549	0.000098
C17	C	0.641544	0.060631	0.000093
C18	C	0.244173	0.050148	0.000118
C19	C	0.165212	0.048075	0.000121
C20	C	0.148346	0.275473	0.000112
C21	C	0.227301	0.277555	0.000107
C22	C	0.275210	0.164889	0.000116
C23	C	0.360824	0.167147	0.000106
C24	C	0.429060	0.168956	0.000097
C25	C	0.899283	-0.060094	0.000107
C26	C	0.897070	-0.198610	0.000104
C27	C	0.961533	-0.274698	0.000111
C28	C	0.959248	-0.417863	0.000108
C29	C	1.033268	0.158527	0.000120
C30	C	1.117300	0.160734	0.000125
C31	C	0.890601	0.396206	0.000100
C32	C	0.892813	0.534723	0.000098
N33	N	0.894924	0.168038	0.195771
N34	N	0.894965	0.168064	-0.195561
C35	C	0.945953	0.083087	0.239042
C36	C	0.945957	0.083085	0.325590
C37	C	0.894935	0.168042	0.368863
C38	C	0.843901	0.252997	0.325586
C39	C	0.843894	0.252992	0.239040
C40	C	0.843927	0.253021	0.674614
C41	C	0.843940	0.253022	0.761165
C42	C	0.945989	0.083115	0.761163
C43	C	0.945983	0.083109	0.674618
C44	C	0.894946	0.168059	0.631348
C45	C	0.894942	0.168058	0.537503
C46	C	0.894943	0.168050	0.462706
H47	H	0.252572	0.370988	0.000098
C48	C	1.043669	-0.145617	-0.070556
C49	C	1.038322	-0.219564	0.000121
H50	H	1.091075	-0.111576	-0.070545
H51	H	1.040046	-0.195773	-0.118494
H52	H	1.003516	-0.079337	-0.070552
H53	H	1.078472	-0.285850	0.000114
H54	H	1.041952	-0.169406	0.048072
H55	H	0.109328	0.367210	0.000109
H56	H	0.802355	0.322167	0.360824
C57	C	0.814948	-0.327663	-0.070589
C58	C	0.820280	-0.253741	0.000092
H59	H	0.767541	-0.361700	-0.070592
H60	H	0.818583	-0.277490	-0.118525
H61	H	0.855100	-0.393945	-0.070577
H62	H	0.780131	-0.187453	0.000077
H63	H	0.816637	-0.303916	0.048040
H64	H	1.014433	-0.483241	0.000117
C65	C	0.961347	-0.086943	0.577479
C66	C	1.001995	-0.010497	0.627132
H67	H	0.995908	-0.144793	0.548186
H68	H	0.929549	-0.131530	0.611308
H69	H	0.931028	-0.036346	0.539260
H70	H	1.032311	-0.061094	0.665356
H71	H	1.033807	0.034094	0.593300
H72	H	0.506711	0.377693	0.000084
C73	C	0.155281	-0.146412	-0.070537
C74	C	0.131088	-0.078059	0.000135
H75	H	0.134217	-0.224279	-0.070525
H76	H	0.138873	-0.100039	-0.118479
H77	H	0.209161	-0.161291	-0.070527
H78	H	0.077208	-0.063172	0.000122
H79	H	0.147491	-0.124442	0.048089
H80	H	0.837625	-0.399906	0.000098
H81	H	0.680552	-0.031107	0.000094
H82	H	0.802373	0.322192	0.639390
C83	C	1.046823	-0.084873	0.247743
C84	C	1.002037	-0.010305	0.191480
H85	H	1.081443	-0.142537	0.218379
H86	H	1.074316	-0.032986	0.281487
H87	H	1.015081	-0.129685	0.281509
H88	H	1.033778	0.034514	0.157717
H89	H	0.974541	-0.062198	0.157721
H90	H	0.987507	0.013911	0.360821
C91	C	0.989323	-0.133004	0.787815
C92	C	1.002082	-0.010282	0.808729
H93	H	1.023955	-0.190658	0.817176
H94	H	0.938751	-0.146442	0.802008
H95	H	0.996624	-0.145144	0.730077
H96	H	0.994776	0.001861	0.866466
H97	H	1.052667	0.003161	0.794541
C98	C	0.342739	-0.079435	-0.070564
C99	C	0.296827	-0.073694	0.000117
H100	H	0.375250	-0.155892	-0.070563
H101	H	0.311585	-0.075512	-0.118500
H102	H	0.372529	-0.010804	-0.070556
H103	H	0.267033	-0.142320	0.000105
H104	H	0.327984	-0.077629	0.048065
H105	H	0.537306	-0.034875	0.000115
H106	H	0.802389	0.322207	0.796397
C107	C	0.800567	0.469102	0.212371
C108	C	0.787806	0.346377	0.191470
H109	H	0.765941	0.526751	0.182999
H110	H	0.793266	0.481258	0.270099
H111	H	0.851148	0.482533	0.198175
H112	H	0.737227	0.332943	0.205672
H113	H	0.795101	0.334216	0.133729
C114	C	0.600063	0.512607	0.000075
C115	C	0.658793	0.414165	0.000070
H116	H	0.621127	0.590474	0.000079
H117	H	0.569619	0.507071	-0.047867
H118	H	0.569619	0.507047	0.048027
H119	H	0.689234	0.419718	-0.047885
H120	H	0.689250	0.419703	0.048017
