data_functionalizedCrystal
_audit_creation_method	'MofGen! by Chris Wilmer'
_symmetry_space_group_name_H-M	'P1'
_symmetry_Int_Tables_number	1
_symmetry_cell_setting	triclinic
loop_
_symmetry_equiv_pos_as_xyz
  x,y,z
_cell_length_a	16.120490
_cell_length_b	18.215405
_cell_length_c	18.215399
_cell_angle_alpha	90.030875
_cell_angle_beta	87.087627
_cell_angle_gamma	92.879060
loop_
_atom_site_label
_atom_site_type_symbol
_atom_site_fract_x
_atom_site_fract_y
_atom_site_fract_z
Zn1	Zn	1.274488	0.350159	-0.473060
Zn2	Zn	1.524488	0.600159	-0.223060
Zn3	Zn	1.774488	0.850159	0.026940
Zn4	Zn	2.024488	1.100159	0.276940
Zn5	Zn	1.274382	0.473230	-0.349988
Zn6	Zn	1.524382	0.723230	-0.099988
Zn7	Zn	1.774382	0.973230	0.150012
Zn8	Zn	2.024382	1.223230	0.400012
Zn9	Zn	1.135078	0.343932	-0.343778
Zn10	Zn	1.385078	0.593932	-0.093778
Zn11	Zn	1.635078	0.843932	0.156222
Zn12	Zn	1.885078	1.093932	0.406222
Zn13	Zn	1.135023	0.466931	-0.466786
Zn14	Zn	1.385023	0.716931	-0.216786
Zn15	Zn	1.635023	0.966931	0.033214
Zn16	Zn	1.885023	1.216931	0.283214
O17	O	1.204743	0.408563	-0.408403
O18	O	1.454743	0.658563	-0.158403
O19	O	1.704743	0.908563	0.091597
O20	O	1.954743	1.158563	0.341597
O21	O	1.391139	0.371727	-0.461958
O22	O	1.641139	0.621727	-0.211958
O23	O	1.891139	0.871727	0.038042
O24	O	2.141139	1.121727	0.288042
O25	O	1.255882	0.456109	-0.246179
O26	O	1.505882	0.706109	0.003821
O27	O	1.755882	0.956109	0.253821
O28	O	2.005882	1.206109	0.503821
O29	O	1.153639	0.241777	-0.360954
O30	O	1.403639	0.491777	-0.110954
O31	O	1.653639	0.741777	0.139046
O32	O	1.903639	0.991777	0.389046
O33	O	1.391062	0.462147	-0.371538
O34	O	1.641062	0.712147	-0.121538
O35	O	1.891062	0.962147	0.128462
O36	O	2.141062	1.212147	0.378462
O37	O	1.256062	0.246351	-0.455937
O38	O	1.506062	0.496351	-0.205937
O39	O	1.756062	0.746351	0.044063
O40	O	2.006062	0.996351	0.294063
O41	O	1.153536	0.361114	-0.241616
O42	O	1.403536	0.611114	0.008384
O43	O	1.653536	0.861114	0.258384
O44	O	1.903536	1.111114	0.508384
O45	O	1.018406	0.355005	-0.354871
O46	O	1.268406	0.605005	-0.104871
O47	O	1.518406	0.855005	0.145129
O48	O	1.768406	1.105005	0.395129
O49	O	1.153545	0.451410	-0.570603
O50	O	1.403545	0.701410	-0.320603
O51	O	1.653545	0.951410	-0.070603
O52	O	1.903545	1.201410	0.179397
O53	O	1.018365	0.445372	-0.445244
O54	O	1.268365	0.695372	-0.195244
O55	O	1.518365	0.945372	0.054756
O56	O	1.768365	1.195372	0.304756
O57	O	1.256009	0.365618	-0.575213
O58	O	1.506009	0.615618	-0.325213
O59	O	1.756009	0.865618	-0.075213
O60	O	2.006009	1.115618	0.174787
O61	O	1.255829	0.575376	-0.365454
O62	O	1.505829	0.825376	-0.115454
O63	O	1.755829	1.075376	0.134546
O64	O	2.005829	1.325376	0.384546
O65	O	1.153442	0.570747	-0.451265
O66	O	1.403442	0.820747	-0.201265
O67	O	1.653442	1.070747	0.048735
O68	O	1.903442	1.320747	0.298735
C69	C	0.988136	0.398830	-0.398703
C70	C	1.238136	0.648830	-0.148703
C71	C	1.488136	0.898830	0.101297
C72	C	1.738136	1.148830	0.351297
C73	C	0.895470	0.394684	-0.394571
C74	C	1.145470	0.644684	-0.144571
C75	C	1.395470	0.894684	0.105429
C76	C	1.645470	1.144684	0.355429
C77	C	0.684523	0.430064	-0.429838
C78	C	0.934523	0.680064	-0.179838
C79	C	1.184523	0.930064	0.070162
C80	C	1.434523	1.180064	0.320162
C81	C	0.725814	0.387121	-0.387026
C82	C	0.975814	0.637121	-0.137026
C83	C	1.225814	0.887121	0.112974
C84	C	1.475814	1.137121	0.362974
C85	C	0.820219	0.391330	-0.391225
C86	C	1.070219	0.641330	-0.141225
C87	C	1.320219	0.891330	0.108775
C88	C	1.570219	1.141330	0.358775
C89	C	0.590109	0.425855	-0.425639
C90	C	0.840109	0.675855	-0.175639
C91	C	1.090109	0.925855	0.074361
C92	C	1.340109	1.175855	0.324361
C93	C	1.204641	0.599765	-0.408370
C94	C	1.454641	0.849765	-0.158370
C95	C	1.704641	1.099765	0.091630
C96	C	1.954641	1.349765	0.341630
C97	C	1.204673	0.681565	-0.408384
C98	C	1.454673	0.931565	-0.158384
C99	C	1.704673	1.181565	0.091616
C100	C	1.954673	1.431565	0.341616
C101	C	1.258008	0.872080	-0.457902
C102	C	1.508008	1.122080	-0.207902
C103	C	1.758008	1.372080	0.042098
C104	C	2.008008	1.622080	0.292098
C105	C	1.258030	0.948940	-0.457915
C106	C	1.508030	1.198940	-0.207915
C107	C	1.758030	1.448940	0.042085
C108	C	2.008030	1.698940	0.292085
C109	C	1.151464	0.944293	-0.358932
C110	C	1.401464	1.194293	-0.108932
C111	C	1.651464	1.444293	0.141068
C112	C	1.901464	1.694293	0.391068
C113	C	1.151439	0.867435	-0.358923
C114	C	1.401439	1.117435	-0.108923
C115	C	1.651439	1.367435	0.141077
C116	C	1.901439	1.617435	0.391077
C117	C	1.204716	0.831330	-0.408407
C118	C	1.454716	1.081330	-0.158407
C119	C	1.704716	1.331330	0.091593
C120	C	1.954716	1.581330	0.341593
C121	C	1.204762	0.985048	-0.408430
C122	C	1.454762	1.235048	-0.158430
C123	C	1.704762	1.485048	0.091570
C124	C	1.954762	1.735048	0.341570
C125	C	1.204785	1.068383	-0.408444
C126	C	1.454785	1.318383	-0.158444
C127	C	1.704785	1.568383	0.091556
C128	C	1.954785	1.818383	0.341556
C129	C	1.204692	0.747990	-0.408394
C130	C	1.454692	0.997990	-0.158394
C131	C	1.704692	1.247990	0.091606
C132	C	1.954692	1.497990	0.341606
C133	C	1.422196	0.418334	-0.418141
C134	C	1.672196	0.668334	-0.168141
C135	C	1.922196	0.918334	0.081859
C136	C	2.172196	1.168334	0.331859
C137	C	1.514862	0.422498	-0.422290
C138	C	1.764862	0.672498	-0.172290
C139	C	2.014862	0.922498	0.077710
C140	C	2.264862	1.172498	0.327710
C141	C	1.204782	0.408506	-0.600358
C142	C	1.454782	0.658506	-0.350358
C143	C	1.704782	0.908506	-0.100358
C144	C	1.954782	1.158506	0.149642
C145	C	1.204799	0.408482	-0.682157
C146	C	1.454799	0.658482	-0.432157
C147	C	1.704799	0.908482	-0.182157
C148	C	1.954799	1.158482	0.067843
C149	C	1.204839	1.216614	-0.408448
C150	C	1.454839	1.466614	-0.158448
C151	C	1.704839	1.716614	0.091552
C152	C	1.954839	1.966614	0.341552
C153	C	1.204805	1.134814	-0.408453
C154	C	1.454805	1.384814	-0.158453
C155	C	1.704805	1.634814	0.091547
C156	C	1.954805	1.884814	0.341547
C157	C	1.151553	0.358988	-0.867979
C158	C	1.401553	0.608988	-0.617979
C159	C	1.651553	0.858988	-0.367979
C160	C	1.901553	1.108988	-0.117979
C161	C	1.151567	0.358974	-0.944838
C162	C	1.401567	0.608974	-0.694838
C163	C	1.651567	0.858974	-0.444838
C164	C	1.901567	1.108974	-0.194838
C165	C	1.258145	0.457892	-0.949578
C166	C	1.508145	0.707892	-0.699578
C167	C	1.758145	0.957892	-0.449578
C168	C	2.008145	1.207892	-0.199578
C169	C	1.258126	0.457909	-0.872720
C170	C	1.508126	0.707909	-0.622720
C171	C	1.758126	0.957909	-0.372720
C172	C	2.008126	1.207909	-0.122720
C173	C	1.204831	0.408453	-0.831922
C174	C	1.454831	0.658453	-0.581922
C175	C	1.704831	0.908453	-0.331922
C176	C	1.954831	1.158453	-0.081922
C177	C	1.204865	0.408422	-0.985640
C178	C	1.454865	0.658422	-0.735640
C179	C	1.704865	0.908422	-0.485640
C180	C	1.954865	1.158422	-0.235640
C181	C	1.204881	0.408407	-1.068974
C182	C	1.454881	0.658407	-0.818974
C183	C	1.704881	0.908407	-0.568974
C184	C	1.954881	1.158407	-0.318974
C185	C	1.204813	0.408469	-0.748582
C186	C	1.454813	0.658469	-0.498582
C187	C	1.704813	0.908469	-0.248582
C188	C	1.954813	1.158469	0.001418
C189	C	1.204752	0.408569	-0.217197
C190	C	1.454752	0.658569	0.032803
C191	C	1.704752	0.908569	0.282803
C192	C	1.954752	1.158569	0.532803
C193	C	1.204896	0.408393	-0.135405
C194	C	1.454896	0.658393	0.114595
C195	C	1.704896	0.908393	0.364595
C196	C	1.954896	1.158393	0.614595
H197	H	0.690264	0.347195	-0.347220
H198	H	0.940264	0.597195	-0.097220
H199	H	1.190264	0.847195	0.152780
H200	H	1.440264	1.097195	0.402780
F201	F	1.314747	0.992305	-0.510598
F202	F	1.564747	1.242305	-0.260598
F203	F	1.814747	1.492305	-0.010598
F204	F	2.064747	1.742305	0.239402
H205	H	1.108089	0.973699	-0.318643
H206	H	1.358089	1.223699	-0.068643
H207	H	1.608089	1.473699	0.181357
H208	H	1.858089	1.723699	0.431357
H209	H	1.108038	0.834254	-0.318618
H210	H	1.358038	1.084254	-0.068618
H211	H	1.608038	1.334254	0.181382
H212	H	1.858038	1.584254	0.431382
H213	H	0.720071	0.469986	-0.469640
H214	H	0.970071	0.719986	-0.219640
H215	H	1.220071	0.969986	0.030360
H216	H	1.470071	1.219986	0.280360
H217	H	1.301389	0.842686	-0.498196
H218	H	1.551389	1.092686	-0.248196
H219	H	1.801389	1.342686	0.001804
H220	H	2.051389	1.592686	0.251804
H221	H	1.108182	0.318695	-0.974192
H222	H	1.358182	0.568695	-0.724192
H223	H	1.608182	0.818695	-0.474192
H224	H	1.858182	1.068695	-0.224192
F225	F	1.094829	0.306354	-0.824561
F226	F	1.344829	0.556354	-0.574561
F227	F	1.594829	0.806354	-0.324561
F228	F	1.844829	1.056354	-0.074561
F229	F	1.314864	0.510523	-0.993004
F230	F	1.564864	0.760523	-0.743004
F231	F	1.814864	1.010523	-0.493004
F232	F	2.064864	1.260523	-0.243004
F233	F	1.314832	0.510562	-0.834344
F234	F	1.564832	0.760562	-0.584344
F235	F	1.814832	1.010562	-0.334344
F236	F	2.064832	1.260562	-0.084344
