data_functionalizedCrystal
_audit_creation_method	'MofGen! by Chris Wilmer'
_symmetry_space_group_name_H-M	'P1'
_symmetry_Int_Tables_number	1
_symmetry_cell_setting	triclinic
loop_
_symmetry_equiv_pos_as_xyz
  x,y,z
_cell_length_a	14.628931
_cell_length_b	14.628931
_cell_length_c	14.628931
_cell_angle_alpha	60.000193
_cell_angle_beta	89.999882
_cell_angle_gamma	59.999836
loop_
_atom_site_label
_atom_site_type_symbol
_atom_site_fract_x
_atom_site_fract_y
_atom_site_fract_z
Zr1	Zr	0.880616	1.000578	-0.119961
O2	O	0.734656	1.191283	-0.265921
O3	O	0.925361	0.809873	-0.075217
O4	O	0.925361	1.000578	-0.265922
O5	O	0.734655	1.000579	0.075216
O6	O	1.075793	1.000578	-0.265922
O7	O	0.734656	1.000578	-0.075216
O8	O	1.075793	0.659441	0.075215
O9	O	0.734655	1.341715	-0.265921
O10	O	1.056710	0.888313	-0.056134
O11	O	0.944444	0.888313	0.056132
O12	O	0.944444	1.112844	-0.168399
O13	O	0.832178	1.112844	-0.056133
Zr14	Zr	1.120538	1.000579	0.119960
Zr15	Zr	1.120538	1.000578	-0.119961
Zr16	Zr	0.880616	1.000579	0.119960
Zr17	Zr	0.880616	1.240500	-0.119961
Zr18	Zr	1.120538	0.760657	0.119959
O19	O	1.075793	1.191284	0.075215
O20	O	1.075793	1.191283	-0.265922
O21	O	0.734655	1.191284	0.075216
O22	O	1.266498	0.809874	0.265920
O23	O	1.266499	0.809873	-0.075217
O24	O	0.925361	0.809874	0.265920
O25	O	1.266499	1.000578	-0.075217
O26	O	1.075793	1.000579	0.265920
O27	O	0.925361	1.000579	0.265921
O28	O	1.266498	1.000579	0.075215
O29	O	0.925361	1.341715	-0.265921
O30	O	1.075793	0.659442	0.265920
O31	O	1.266499	0.659442	0.265920
O32	O	1.266499	0.659441	0.075214
O33	O	0.734655	1.341716	-0.075215
O34	O	0.925361	1.341716	-0.075216
O35	O	1.056710	0.888313	0.168397
O36	O	1.168976	0.888313	0.056132
O37	O	1.056710	1.112844	-0.056133
O38	O	0.944444	1.112844	0.056132
C39	C	1.000577	0.700473	-0.000001
C40	C	1.000578	0.598620	-0.000001
C41	C	0.944886	0.553211	0.055690
C42	C	0.944885	0.447941	0.055691
C43	C	0.700472	1.000578	0.000000
C44	C	0.598619	1.000578	0.000000
C45	C	0.553210	1.000578	-0.078759
C46	C	0.447939	1.000578	-0.078761
C47	C	1.300682	1.000578	-0.000001
C48	C	1.402535	1.000578	-0.000001
C49	C	1.000577	1.000578	-0.300105
C50	C	1.000578	1.000577	-0.401958
C51	C	1.000577	1.300684	-0.000000
C52	C	1.000576	1.402537	-0.000000
C53	C	0.944886	1.111960	-0.503058
C54	C	0.944885	1.111962	-0.608330
C55	C	1.000577	1.000579	0.300104
C56	C	1.000576	1.000580	0.401957
C57	C	1.300683	0.700473	-0.000002
C58	C	1.402536	0.598620	-0.000002
C59	C	1.000577	0.700474	0.300104
C60	C	1.000577	0.598621	0.401956
C61	C	1.300682	0.700474	0.300103
C62	C	1.402535	0.598621	0.401956
C63	C	0.700472	1.300683	-0.300104
C64	C	0.598619	1.402536	-0.401957
C65	C	0.700471	1.300684	0.000000
C66	C	0.598618	1.402537	0.000001
C67	C	1.000577	1.300683	-0.300105
C68	C	1.000577	1.402536	-0.401958
C69	C	1.392254	0.553211	-0.055693
C70	C	1.497523	0.447941	-0.055695
C71	C	1.056268	0.553213	0.503057
C72	C	1.056270	0.447942	0.608328
C73	C	1.503636	0.553212	0.391673
C74	C	1.608908	0.447942	0.496942
H75	H	0.897208	0.408887	0.103373
Cl76	Cl	0.462810	1.000589	0.104108
H77	H	1.048252	0.905216	-0.511317
H78	H	1.489272	0.559567	0.047672
H79	H	0.559565	1.000572	0.067432
H80	H	1.607255	0.441573	0.047686
Cl81	Cl	0.871265	0.613511	0.129301
H82	H	1.305517	0.592274	-0.103376
Cl83	Cl	0.871277	1.259191	-0.516379
Cl84	Cl	0.871261	1.259196	-0.742233
H85	H	1.488895	0.408886	-0.103370
H86	H	1.048259	0.905221	-0.393338
H87	H	1.103942	0.592275	0.511677
Cl88	Cl	1.074204	0.462810	-0.073613
Cl89	Cl	0.926966	0.462811	0.464141
H90	H	1.048252	0.559568	-0.047685
H91	H	1.103950	0.408890	0.695058
H92	H	0.952894	0.559568	0.393336
H93	H	1.512259	0.592273	0.304938
H94	H	0.592269	1.000571	-0.146184
H95	H	0.408886	1.000585	-0.146193
Cl96	Cl	1.742811	0.387649	0.483610
H97	H	1.511893	0.441576	0.606674
Cl98	Cl	1.389214	0.538334	0.535866
