data_functionalizedCrystal
_audit_creation_method	'MofGen! by Chris Wilmer'
_symmetry_space_group_name_H-M	'P1'
_symmetry_Int_Tables_number	1
_symmetry_cell_setting	triclinic
loop_
_symmetry_equiv_pos_as_xyz
  x,y,z
_cell_length_a	35.288113
_cell_length_b	35.277611
_cell_length_c	35.277682
_cell_angle_alpha	89.997327
_cell_angle_beta	59.999432
_cell_angle_gamma	60.000166
loop_
_atom_site_label
_atom_site_type_symbol
_atom_site_fract_x
_atom_site_fract_y
_atom_site_fract_z
O1	O	-0.271232	-0.323090	0.011273
O2	O	-0.193633	-0.267966	-0.011225
O3	O	-0.271230	-0.267965	0.066395
O4	O	-0.193635	-0.323091	-0.066346
O5	O	-0.334254	-0.204920	0.066390
O6	O	-0.256658	-0.204921	-0.011230
O7	O	-0.334256	-0.260045	0.011268
Zn8	Zn	-0.305463	-0.222473	0.000019
Zn9	Zn	-0.222426	-0.305537	0.000025
O10	O	-0.256659	-0.260046	-0.066351
C11	C	-0.139921	-0.094839	-0.023515
C12	C	-0.166526	-0.044836	-0.020291
C13	C	-0.162510	-0.117863	-0.023839
C14	C	-0.071295	-0.163484	-0.023521
C15	C	-0.024525	-0.186877	-0.020303
C16	C	-0.093988	-0.186403	-0.023845
C17	C	-0.139916	-0.163485	-0.023523
C18	C	-0.166517	-0.186877	-0.020308
C19	C	-0.093993	-0.117863	-0.023837
C20	C	-0.188008	-0.205776	-0.017709
C21	C	-0.188021	-0.004439	-0.017686
C22	C	0.013260	-0.205775	-0.017702
C23	C	-0.214969	-0.229485	-0.014449
C24	C	-0.214987	0.046242	-0.014418
C25	C	0.060663	-0.229485	-0.014440
C26	C	-0.466057	-0.500369	0.034182
C27	C	-0.511983	-0.477348	0.034501
C28	C	-0.466054	-0.431728	0.034177
C29	C	-0.511980	-0.408811	0.034496
C30	C	-0.534676	-0.431729	0.034177
C31	C	-0.443465	-0.477347	0.034501
C32	C	-0.342486	-0.665896	0.021768
C33	C	-0.317224	-0.712772	0.018258
C34	C	-0.338910	-0.736288	0.016496
C35	C	-0.311516	-0.787116	0.012682
C36	C	-0.385862	-0.712923	0.018248
C37	C	-0.411124	-0.666049	0.021764
C38	C	-0.389434	-0.642536	0.023524
C39	C	-0.687733	-0.389815	0.021747
C40	C	-0.731082	-0.368211	0.018231
C41	C	-0.752825	-0.323007	0.016462
C42	C	-0.799821	-0.299581	0.012644
C43	C	-0.731219	-0.299405	0.018214
C44	C	-0.687878	-0.321006	0.021737
C45	C	-0.666135	-0.366216	0.023501
C46	C	-0.342474	-0.389811	0.021746
C47	C	-0.317205	-0.368208	0.018224
C48	C	-0.338888	-0.323002	0.016457
C49	C	-0.311491	-0.299577	0.012637
C50	C	-0.385836	-0.299403	0.018207
C51	C	-0.411101	-0.321009	0.021727
C52	C	-0.389418	-0.366213	0.023500
C53	C	-0.416828	-0.591710	0.027333
C54	C	-0.438663	-0.551196	0.030370
C55	C	-0.438657	-0.408305	0.030359
C56	C	-0.416819	-0.389634	0.027316
C57	C	-0.581672	-0.408306	0.030359
C58	C	-0.619135	-0.389636	0.027317
C59	C	-0.061850	-0.432022	-0.438498
C60	C	-0.015925	-0.477641	-0.461414
C61	C	-0.061850	-0.432022	-0.369855
C62	C	-0.015924	-0.477642	-0.392875
C63	C	0.006770	-0.500664	-0.438494
C64	C	-0.084440	-0.409104	-0.392879
C65	C	-0.185425	-0.320835	-0.480419
C66	C	-0.210689	-0.299078	-0.502026
C67	C	-0.189005	-0.322533	-0.547232
C68	C	-0.216400	-0.298947	-0.570658
C69	C	-0.142053	-0.367745	-0.570831
C70	C	-0.116790	-0.389496	-0.549227
C71	C	-0.138478	-0.366040	-0.504019
C72	C	0.159822	-0.666191	-0.549673
C73	C	0.203170	-0.713067	-0.571429
C74	C	0.224915	-0.736585	-0.547974
C75	C	0.271910	-0.787411	-0.571555
C76	C	0.203311	-0.713220	-0.502762
C77	C	0.159971	-0.666344	-0.481011
C78	C	0.138226	-0.642833	-0.504471
C79	C	-0.185423	-0.320837	-0.204330
C80	C	-0.210690	-0.299082	-0.157452
C81	C	-0.189006	-0.322537	-0.133935
C82	C	-0.216401	-0.298952	-0.083107
C83	C	-0.142058	-0.367748	-0.157296
C84	C	-0.116795	-0.389501	-0.204172
C85	C	-0.138480	-0.366040	-0.227687
C86	C	-0.111082	-0.389631	-0.480594
C87	C	-0.089245	-0.408434	-0.461922
C88	C	-0.089244	-0.408435	-0.319029
C89	C	-0.111081	-0.389633	-0.278515
C90	C	0.053765	-0.551490	-0.462079
C91	C	0.091227	-0.592004	-0.480880
O92	O	0.184792	-0.260049	0.011276
O93	O	0.074572	-0.204918	-0.011214
O94	O	0.074577	-0.204931	0.066402
O95	O	0.184787	-0.260036	-0.066340
O96	O	0.074580	-0.267979	0.066395
O97	O	0.074575	-0.267967	-0.011221
O98	O	0.184796	-0.323098	0.011268
Zn99	Zn	0.129686	-0.305543	0.000022
Zn100	Zn	0.129681	-0.222473	0.000032
O101	O	0.184791	-0.323085	-0.066347
O102	O	-0.334280	0.196123	0.011311
O103	O	-0.256678	0.063379	-0.011194
O104	O	-0.334272	0.140988	0.066428
O105	O	-0.256685	0.118515	-0.066311
O106	O	-0.271246	0.140988	0.066430
O107	O	-0.193651	0.063380	-0.011192
O108	O	-0.271253	0.196124	0.011313
Zn109	Zn	-0.222445	0.129752	0.000061
Zn110	Zn	-0.305486	0.129751	0.000058
O111	O	-0.193659	0.118515	-0.066309
O112	O	0.397507	-0.936914	-0.602533
O113	O	0.287295	-0.804173	-0.547413
O114	O	0.287292	-0.881789	-0.547409
O115	O	0.397511	-0.859297	-0.602537
O116	O	0.287290	-0.881788	-0.610455
O117	O	0.287294	-0.804171	-0.610459
O118	O	0.397506	-0.936912	-0.665578
Zn119	Zn	0.342400	-0.870541	-0.648029
Zn120	Zn	0.342402	-0.870543	-0.564963
O121	O	0.397510	-0.859295	-0.665583
O122	O	-0.271230	-0.267964	-0.665316
O123	O	-0.193638	-0.323088	-0.610187
O124	O	-0.271233	-0.323088	-0.610187
O125	O	-0.193635	-0.267964	-0.665317
O126	O	-0.334259	-0.260042	-0.547144
O127	O	-0.256663	-0.260042	-0.547145
O128	O	-0.334256	-0.204919	-0.602274
Zn129	Zn	-0.305466	-0.222471	-0.564700
Zn130	Zn	-0.222427	-0.305536	-0.647761
O131	O	-0.256660	-0.204919	-0.602274
C132	C	-0.456595	-0.094848	0.293242
C133	C	-0.503362	-0.044847	0.316630
C134	C	-0.433901	-0.117870	0.316162
C135	C	-0.387976	-0.163489	0.224603
C136	C	-0.361374	-0.186880	0.174603
C137	C	-0.365386	-0.186407	0.247627
C138	C	-0.387976	-0.163489	0.293246
C139	C	-0.361374	-0.186880	0.316639
C140	C	-0.433901	-0.117870	0.247623
C141	C	-0.339882	-0.205777	0.335538
C142	C	-0.541144	-0.004451	0.335525
C143	C	-0.339882	-0.205778	0.134207
C144	C	-0.312920	-0.229485	0.359247
C145	C	-0.588544	0.046227	0.359230
C146	C	-0.312919	-0.229485	0.083529
C147	C	-0.139914	-0.163526	0.293243
C148	C	-0.166515	-0.186921	0.316629
C149	C	-0.162508	-0.117907	0.316165
C150	C	-0.071292	-0.163518	0.224608
C151	C	-0.024521	-0.186904	0.174608
C152	C	-0.093990	-0.117899	0.247633
C153	C	-0.139918	-0.094881	0.293251
C154	C	-0.166524	-0.044881	0.316645
C155	C	-0.093985	-0.186440	0.247625
C156	C	-0.188019	-0.004485	0.335545
C157	C	-0.188006	-0.205822	0.335522
C158	C	0.013264	-0.205797	0.134213
C159	C	-0.214985	0.046193	0.359256
C160	C	-0.214967	-0.229534	0.359225
C161	C	0.060667	-0.229500	0.083535
C162	C	-0.387977	0.153259	0.293278
C163	C	-0.361372	0.150036	0.316669
C164	C	-0.433902	0.153576	0.316195
C165	C	-0.387982	0.153270	0.224638
C166	C	-0.361384	0.150059	0.174638
C167	C	-0.433907	0.153586	0.247659
C168	C	-0.456599	0.153258	0.293277
C169	C	-0.503365	0.150035	0.316666
C170	C	-0.365390	0.153587	0.247660
C171	C	-0.541147	0.147430	0.335562
C172	C	-0.339878	0.147432	0.335565
C173	C	-0.339894	0.147463	0.134243
C174	C	-0.588546	0.144163	0.359268
C175	C	-0.312913	0.144165	0.359273
C176	C	-0.312935	0.144208	0.083566
C177	C	0.533962	-0.500327	-0.438490
C178	C	0.556552	-0.477301	-0.461404
C179	C	0.465336	-0.431691	-0.369847
C180	C	0.488030	-0.408769	-0.392865
C181	C	0.533958	-0.431682	-0.438483
C182	C	0.488034	-0.477309	-0.392872
C183	C	0.588298	-0.665858	-0.480419
C184	C	0.613412	-0.712734	-0.502027
C185	C	0.660370	-0.736245	-0.547233
C186	C	0.687609	-0.787073	-0.570661
C187	C	0.682211	-0.712876	-0.570830
C188	C	0.657092	-0.666002	-0.549224
C189	C	0.610134	-0.642493	-0.504016
C190	C	0.657534	-0.389751	-0.549653
C191	C	0.682796	-0.368142	-0.571405
C192	C	0.661112	-0.322938	-0.547949
C193	C	0.688502	-0.299507	-0.571527
C194	C	0.614158	-0.299341	-0.502738
C195	C	0.588891	-0.320946	-0.480989
C196	C	0.610587	-0.366156	-0.504452
C197	C	0.312274	-0.389793	-0.204326
C198	C	0.268926	-0.368195	-0.157448
C199	C	0.247178	-0.322989	-0.133930
C200	C	0.200179	-0.299569	-0.083102
C201	C	0.268782	-0.299385	-0.157288
C202	C	0.312130	-0.320986	-0.204163
C203	C	0.333870	-0.366190	-0.227680
C204	C	0.582904	-0.591667	-0.480590
C205	C	0.561197	-0.551153	-0.461917
C206	C	0.418337	-0.408273	-0.319021
C207	C	0.380873	-0.389606	-0.278508
C208	C	0.561353	-0.408255	-0.462065
C209	C	0.583189	-0.389581	-0.480864
O210	O	-0.271267	0.196079	0.389818
O211	O	-0.193655	0.063337	0.334690
O212	O	-0.271264	0.140949	0.334697
O213	O	-0.193658	0.118467	0.389810
O214	O	-0.334279	0.140936	0.397745
O215	O	-0.256670	0.063324	0.397738
O216	O	-0.334282	0.196067	0.452865
Zn217	Zn	-0.305481	0.129693	0.435312
Zn218	Zn	-0.222456	0.129710	0.352244
O219	O	-0.256673	0.118454	0.452858
C220	C	0.006425	0.095680	-0.438452
C221	C	-0.016272	0.095363	-0.461370
C222	C	-0.062191	0.095669	-0.369813
C223	C	-0.084784	0.095352	-0.392834
C224	C	-0.062197	0.095680	-0.438452
C225	C	-0.016266	0.095352	-0.392834
C226	C	0.159478	0.108116	-0.480364
C227	C	0.202826	0.111633	-0.501968
C228	C	0.224567	0.113404	-0.547173
C229	C	0.271562	0.117227	-0.570597
C230	C	0.202961	0.111654	-0.570774
C231	C	0.159621	0.108130	-0.549172
C232	C	0.137880	0.106361	-0.503965
C233	C	-0.116535	0.108125	-0.549635
C234	C	-0.141649	0.111642	-0.571391
C235	C	-0.188604	0.113404	-0.547939
C236	C	-0.215842	0.117224	-0.571521
C237	C	-0.210441	0.111643	-0.502728
C238	C	-0.185323	0.108118	-0.480975
C239	C	-0.138368	0.106362	-0.504434
C240	C	-0.116504	0.108070	-0.204288
C241	C	-0.141615	0.111582	-0.157411
C242	C	-0.188570	0.113342	-0.133896
C243	C	-0.215802	0.117153	-0.083069
C244	C	-0.210414	0.111594	-0.157259
C245	C	-0.185302	0.108084	-0.204134
C246	C	-0.138343	0.106318	-0.227646
C247	C	0.090881	0.102545	-0.480543
C248	C	0.053420	0.099501	-0.461874
C249	C	-0.089418	0.099477	-0.318987
C250	C	-0.111120	0.102512	-0.278474
C251	C	-0.089431	0.099500	-0.462039
C252	C	-0.111138	0.102544	-0.480841
H253	H	-0.530976	-0.495833	0.035018
H254	H	-0.199462	-0.099431	0.353648
H255	H	-0.074998	-0.099413	0.229150
C256	C	-0.097975	-0.252388	0.252519
C257	C	-0.068338	-0.237040	0.222669
H258	H	-0.082137	-0.283626	0.237112
H259	H	-0.133711	-0.233336	0.261195
H260	H	-0.098166	-0.250617	0.279490
H261	H	-0.068149	-0.238807	0.195699
H262	H	-0.032592	-0.256097	0.213986
C263	C	-0.459801	-0.053182	0.369371
C264	C	-0.459534	-0.092930	0.366762
H265	H	-0.475620	-0.037791	0.400608
H266	H	-0.479908	-0.032925	0.358967
H267	H	-0.424053	-0.061876	0.350310
H268	H	-0.495282	-0.084236	0.385820
H269	H	-0.439428	-0.113191	0.377172
H270	H	-0.074999	-0.099378	-0.024354
H271	H	0.251073	-0.262575	-0.138136
H272	H	-0.530969	-0.371329	0.035006
H273	H	0.141782	0.106674	-0.443555
C274	C	0.025006	-0.477993	-0.355124
C275	C	0.009724	-0.502605	-0.367931
H276	H	0.040844	-0.493409	-0.339731
H277	H	-0.005648	-0.447479	-0.334867
H278	H	0.050193	-0.476405	-0.382093
H279	H	-0.015466	-0.504189	-0.340962
H280	H	0.040382	-0.533126	-0.388190
H281	H	-0.452905	0.154112	0.229176
H282	H	-0.248648	0.113027	-0.138110
C283	C	-0.025486	-0.440165	-0.228961
C284	C	-0.065187	-0.439192	-0.229850
H285	H	0.006376	-0.470843	-0.244816
H286	H	-0.037431	-0.430568	-0.197681
H287	H	-0.018473	-0.419750	-0.243792
H288	H	-0.072203	-0.459605	-0.215016
H289	H	-0.053240	-0.448795	-0.261136
C290	C	-0.254457	-0.090604	0.014937
C291	C	-0.212399	-0.092916	-0.024536
H292	H	-0.285253	-0.075207	0.014505
H293	H	-0.262467	-0.073907	0.042003
H294	H	-0.244175	-0.121131	0.015070
H295	H	-0.222679	-0.062388	-0.024667
H296	H	-0.204389	-0.109612	-0.051608
H297	H	-0.452887	0.154079	0.353674
H298	H	-0.328434	0.154105	0.229179
H299	H	-0.324821	-0.646755	0.023202
H300	H	0.469033	-0.371287	-0.374376
C301	C	0.354438	-0.283533	-0.207969
C302	C	0.335871	-0.295039	-0.229839
H303	H	0.369092	-0.267512	-0.223819
H304	H	0.381305	-0.311078	-0.208571
H305	H	0.325506	-0.264200	-0.176688
H306	H	0.364805	-0.314375	-0.261120
H307	H	0.309002	-0.267489	-0.229242
C308	C	0.621602	-0.547248	-0.527338
C309	C	0.606459	-0.502254	-0.511995
H310	H	0.652419	-0.562654	-0.558566
H311	H	0.593079	-0.545675	-0.525593
H312	H	0.629588	-0.563933	-0.508263
H313	H	0.598470	-0.485568	-0.531067
H314	H	0.634989	-0.503826	-0.513743
C315	C	0.390197	-0.468552	-0.246647
C316	C	0.336177	-0.439483	-0.230177
H317	H	0.404955	-0.499227	-0.262610
H318	H	0.393015	-0.468568	-0.221243
H319	H	0.409257	-0.457578	-0.267265
H320	H	0.317116	-0.450454	-0.209557
H321	H	0.333354	-0.439469	-0.255585
H322	H	-0.449327	-0.301790	0.023152
H323	H	0.469050	-0.495802	-0.374391
C324	C	0.273418	-0.438377	-0.162316
C325	C	0.245181	-0.394140	-0.131774
H326	H	0.258755	-0.454392	-0.146465
H327	H	0.310054	-0.455242	-0.173478
H328	H	0.270587	-0.435495	-0.187713
H329	H	0.248015	-0.397022	-0.106378
H330	H	0.208536	-0.377270	-0.120605
H331	H	0.221021	-0.732367	-0.483667
H332	H	0.550062	-0.646721	-0.443611
H333	H	0.595627	-0.731757	-0.482811
C334	C	-0.105481	-0.239614	0.014927
C335	C	-0.068343	-0.237006	-0.024547
H336	H	-0.089647	-0.270852	0.014494
H337	H	-0.136128	-0.229205	0.015063
H338	H	-0.115847	-0.220558	0.041995
H339	H	-0.057980	-0.256059	-0.051615
H340	H	-0.037686	-0.247421	-0.024687
C341	C	0.751268	-0.784800	-0.634495
C342	C	0.733829	-0.738720	-0.620514
H343	H	0.783140	-0.800755	-0.665168
H344	H	0.724279	-0.785337	-0.633782
H345	H	0.758222	-0.799560	-0.614022
H346	H	0.726872	-0.723959	-0.640985
H347	H	0.760825	-0.738180	-0.621231
H348	H	0.674876	-0.646978	-0.568440
C349	C	-0.378442	-0.547288	0.035402
C350	C	-0.393574	-0.502298	0.035194
H351	H	-0.347642	-0.562689	0.035830
H352	H	-0.370436	-0.563980	0.008336
H353	H	-0.406982	-0.545707	0.062185
H354	H	-0.365034	-0.503879	0.008409
H355	H	-0.401577	-0.485602	0.062263
C356	C	0.727914	-0.455585	-0.619719
C357	C	0.681373	-0.439439	-0.575445
H358	H	0.742627	-0.486259	-0.635640
H359	H	0.753319	-0.455600	-0.616904
H360	H	0.719356	-0.435848	-0.636642
H361	H	0.689932	-0.459174	-0.558520
H362	H	0.655963	-0.439427	-0.578259
H363	H	-0.124400	-0.386837	-0.607639
H364	H	0.721026	-0.387358	-0.608215
H365	H	-0.278976	-0.387428	0.016796
H366	H	0.596497	-0.262532	-0.483641
C367	C	0.523583	-0.250771	-0.415296
C368	C	0.537285	-0.295011	-0.431296
H369	H	0.491726	-0.234763	-0.384616
H370	H	0.517882	-0.233902	-0.435076
H371	H	0.551848	-0.253648	-0.415339
H372	H	0.509022	-0.292135	-0.431257
H373	H	0.542983	-0.311884	-0.411511
H374	H	-0.078269	0.106635	-0.223429
H375	H	-0.121738	0.094833	-0.374350
C376	C	0.054507	0.094528	-0.527292
C377	C	0.009337	0.094714	-0.511955
H378	H	0.070304	0.094142	-0.558515
H379	H	0.079720	0.067737	-0.525558
H380	H	0.044126	0.121586	-0.508207
H381	H	0.019718	0.067654	-0.531039
H382	H	-0.015882	0.121508	-0.513693
H383	H	-0.324812	-0.426621	0.023185
C384	C	0.054563	0.094440	-0.397737
C385	C	0.009380	0.094645	-0.367883
H386	H	0.070396	0.093999	-0.382334
H387	H	0.044190	0.121513	-0.406411
H388	H	0.079749	0.067665	-0.424709
H389	H	-0.015808	0.121422	-0.340913
H390	H	0.019752	0.067569	-0.359203
C391	C	-0.279890	-0.235248	-0.085664
C392	C	-0.262294	-0.249388	-0.131774
H393	H	-0.311749	-0.204569	-0.069813
H394	H	-0.252950	-0.235922	-0.085068
H395	H	-0.286913	-0.255662	-0.070839
H396	H	-0.255267	-0.228976	-0.146601
H397	H	-0.289240	-0.248711	-0.132373
C398	C	-0.150300	-0.364894	-0.085373
C399	C	-0.118217	-0.393532	-0.131450
H400	H	-0.135579	-0.380812	-0.069420
H401	H	-0.185516	-0.357097	-0.070609
H402	H	-0.151557	-0.337352	-0.084844
H403	H	-0.116963	-0.421072	-0.131979
H404	H	-0.082992	-0.401335	-0.146218
H405	H	-0.328426	-0.223888	0.229142
H406	H	-0.123834	0.113018	-0.138389
C407	C	0.269548	-0.784858	-0.635258
C408	C	0.226912	-0.738749	-0.621120
H409	H	0.284205	-0.800711	-0.665936
H410	H	0.256942	-0.799681	-0.614844
H411	H	0.296415	-0.785452	-0.634589
H412	H	0.200042	-0.738155	-0.621785
H413	H	0.239516	-0.723922	-0.641540
C414	C	-0.122532	-0.330420	-0.355107
C415	C	-0.134337	-0.358509	-0.367914
H416	H	-0.153339	-0.299188	-0.339689
H417	H	-0.094008	-0.332173	-0.382074
H418	H	-0.112250	-0.340845	-0.334866
H419	H	-0.144615	-0.348086	-0.388158
H420	H	-0.162870	-0.356753	-0.340943
H421	H	0.220414	0.113060	-0.482749
C422	C	-0.211193	0.067446	-0.430306
C423	C	-0.209327	0.106182	-0.431283
H424	H	-0.226016	0.066255	-0.399626
H425	H	-0.175965	0.040018	-0.450716
H426	H	-0.232871	0.069799	-0.439906
H427	H	-0.187644	0.103828	-0.421687
H428	H	-0.244560	0.133617	-0.410866
H429	H	-0.278995	-0.731792	0.016829
C430	C	-0.377610	-0.784848	0.012855
C431	C	-0.409698	-0.738771	0.016312
H432	H	-0.392326	-0.800805	0.011657
H433	H	-0.376353	-0.785382	0.039135
H434	H	-0.342391	-0.799610	-0.014577
H435	H	-0.444916	-0.724008	0.043745
H436	H	-0.410962	-0.738234	-0.009971
H437	H	0.220667	0.113094	-0.607580
H438	H	-0.452887	-0.099380	0.229135
C439	C	0.164102	0.108509	-0.619350
C440	C	0.135870	0.106209	-0.575112
H441	H	0.149436	0.107327	-0.635361
H442	H	0.200739	0.083027	-0.636218
H443	H	0.161270	0.136738	-0.616470
H444	H	0.138706	0.077978	-0.577992
H445	H	0.099225	0.131693	-0.558239
C446	C	-0.476429	-0.670907	0.021398
C447	C	-0.462729	-0.640370	0.023688
H448	H	-0.508286	-0.655053	0.022582
H449	H	-0.482132	-0.682069	0.046883
H450	H	-0.448164	-0.696304	-0.006829
H451	H	-0.490993	-0.614974	0.051917
H452	H	-0.457029	-0.629200	-0.001799
C453	C	-0.691958	-0.455655	0.021418
C454	C	-0.663840	-0.439505	0.023694
H455	H	-0.677208	-0.486330	0.022623
H456	H	-0.689132	-0.455671	-0.006809
H457	H	-0.728605	-0.435922	0.046903
H458	H	-0.627193	-0.459236	-0.001793
H459	H	-0.666661	-0.439493	0.051924
C460	C	-0.255795	-0.250772	-0.199778
C461	C	-0.209254	-0.295047	-0.230180
H462	H	-0.270505	-0.234853	-0.215739
H463	H	-0.247242	-0.233850	-0.188601
H464	H	-0.281207	-0.253588	-0.174379
H465	H	-0.183841	-0.292231	-0.255577
H466	H	-0.217806	-0.311973	-0.241364
C467	C	-0.808838	-0.369283	0.053867
C468	C	-0.754827	-0.394153	0.016302
H469	H	-0.823495	-0.385301	0.052676
H470	H	-0.827985	-0.339274	0.052309
H471	H	-0.811661	-0.366416	0.082093
H472	H	-0.752004	-0.397017	-0.011924
H473	H	-0.735675	-0.424171	0.017856
C474	C	-0.051054	0.108471	-0.619696
C475	C	-0.064919	0.106186	-0.575421
H476	H	-0.019188	0.107272	-0.635614
H477	H	-0.079260	0.136698	-0.616881
H478	H	-0.045303	0.082987	-0.636622
H479	H	-0.070674	0.131673	-0.558494
H480	H	-0.036707	0.077956	-0.578234
C481	C	-0.155038	0.155200	-0.621120
C482	C	-0.117655	0.113585	-0.621080
H483	H	-0.140227	0.156399	-0.651797
H484	H	-0.163645	0.180675	-0.601335
H485	H	-0.186593	0.156744	-0.610262
H486	H	-0.086102	0.112043	-0.631936
H487	H	-0.109041	0.088104	-0.640872
H488	H	-0.248670	0.113071	-0.483634
H489	H	-0.670290	-0.301786	0.023164
C490	C	-0.255829	0.108450	-0.199276
C491	C	-0.209314	0.106164	-0.229812
H492	H	-0.270652	0.107264	-0.215130
H493	H	-0.281171	0.136672	-0.173879
H494	H	-0.247208	0.082959	-0.188116
H495	H	-0.217936	0.131657	-0.240970
H496	H	-0.183967	0.077939	-0.255217
H497	H	-0.748926	-0.262597	0.016776
H498	H	-0.403490	-0.262593	0.016766
H499	H	0.003073	-0.496120	-0.498899
H500	H	-0.203088	-0.301731	-0.443610
H501	H	-0.248916	-0.262267	-0.482808
H502	H	-0.078561	-0.426306	-0.568445
H503	H	0.142386	-0.647324	-0.444201
C504	C	0.164044	-0.670749	-0.619738
C505	C	0.135927	-0.640346	-0.575463
H506	H	0.149292	-0.654791	-0.635657
H507	H	0.161217	-0.696149	-0.616924
H508	H	0.200691	-0.681921	-0.636662
H509	H	0.099281	-0.629177	-0.558537
H510	H	0.138749	-0.614938	-0.578275
