data_functionalizedCrystal
_audit_creation_method	'MofGen! by Chris Wilmer'
_symmetry_space_group_name_H-M	'P1'
_symmetry_Int_Tables_number	1
_symmetry_cell_setting	triclinic
loop_
_symmetry_equiv_pos_as_xyz
  x,y,z
_cell_length_a	19.288867
_cell_length_b	14.971486
_cell_length_c	18.366186
_cell_angle_alpha	90.001758
_cell_angle_beta	90.004879
_cell_angle_gamma	83.375599
loop_
_atom_site_label
_atom_site_type_symbol
_atom_site_fract_x
_atom_site_fract_y
_atom_site_fract_z
O1	O	0.921713	0.111584	0.060524
O2	O	1.255047	0.444917	0.393858
O3	O	1.588380	0.778250	0.727191
O4	O	0.719502	0.126634	0.060532
O5	O	1.052835	0.459967	0.393865
O6	O	1.386169	0.793300	0.727198
O7	O	0.826028	-0.011121	0.060523
O8	O	1.159361	0.322213	0.393856
O9	O	1.492694	0.655546	0.727189
O10	O	0.815188	0.249338	0.060533
O11	O	1.148521	0.582671	0.393867
O12	O	1.481855	0.916005	0.727200
O13	O	0.826014	-0.011116	-0.060577
O14	O	1.159347	0.322217	0.272757
O15	O	1.492680	0.655551	0.606090
O16	O	0.719488	0.126639	-0.060568
O17	O	1.052822	0.459972	0.272766
O18	O	1.386155	0.793305	0.606099
O19	O	0.921700	0.111588	-0.060575
O20	O	1.255033	0.444922	0.272758
O21	O	1.588366	0.778255	0.606092
Zn22	Zn	0.820592	0.119114	-0.079798
Zn23	Zn	1.153925	0.452448	0.253535
Zn24	Zn	1.487258	0.785781	0.586868
Zn25	Zn	0.820610	0.119108	0.079755
Zn26	Zn	1.153943	0.452441	0.413089
Zn27	Zn	1.487277	0.785775	0.746422
O28	O	0.815174	0.249343	-0.060566
O29	O	1.148508	0.582676	0.272767
O30	O	1.481841	0.916009	0.606101
C31	C	0.693617	0.126152	-0.000017
C32	C	1.026950	0.459485	0.333316
C33	C	1.360284	0.792818	0.666649
C34	C	0.616509	0.124697	-0.000015
C35	C	0.949842	0.458030	0.333319
C36	C	1.283176	0.791364	0.666652
C37	C	0.060917	0.114217	0.065988
C38	C	0.394250	0.447550	0.399321
C39	C	0.727584	0.780884	0.732654
C40	C	0.133369	0.115578	0.065991
C41	C	0.466702	0.448912	0.399324
C42	C	0.800036	0.782245	0.732657
C43	C	0.169592	0.116266	-0.000021
C44	C	0.502926	0.449599	0.333313
C45	C	0.836259	0.782933	0.666646
C46	C	0.133360	0.115569	-0.066039
C47	C	0.466693	0.448902	0.267294
C48	C	0.800027	0.782235	0.600627
C49	C	0.060910	0.114198	-0.066040
C50	C	0.394243	0.447532	0.267293
C51	C	0.727577	0.780865	0.600627
C52	C	0.279092	0.170826	-0.050591
C53	C	0.612425	0.504160	0.282742
C54	C	0.945758	0.837493	0.616075
C55	C	0.351539	0.172202	-0.050588
C56	C	0.684873	0.505535	0.282746
C57	C	1.018206	0.838869	0.616079
C58	C	0.393052	0.120488	-0.000021
C59	C	0.726385	0.453822	0.333313
C60	C	1.059718	0.787155	0.666646
C61	C	0.362106	0.067410	0.050555
C62	C	0.695439	0.400744	0.383889
C63	C	1.028773	0.734077	0.717222
C64	C	0.289656	0.066040	0.050554
C65	C	0.622990	0.399373	0.383888
C66	C	0.956323	0.732707	0.717221
C67	C	0.248152	0.117751	-0.000027
C68	C	0.581485	0.451085	0.333306
C69	C	0.914818	0.784418	0.666640
C70	C	0.507837	0.122655	0.065997
C71	C	0.841170	0.455989	0.399330
C72	C	1.174503	0.789322	0.732664
C73	C	0.580290	0.124011	0.065997
C74	C	0.913624	0.457344	0.399330
C75	C	1.246957	0.790678	0.732664
C76	C	0.580279	0.124011	-0.066035
C77	C	0.913612	0.457344	0.267299
C78	C	1.246946	0.790677	0.600632
C79	C	0.507828	0.122646	-0.066033
C80	C	0.841161	0.455979	0.267301
C81	C	1.174494	0.789312	0.600634
C82	C	0.471610	0.121972	-0.000015
C83	C	0.804944	0.455306	0.333318
C84	C	1.138277	0.788639	0.666652
C85	C	0.825536	-0.044440	-0.000027
C86	C	1.158869	0.288893	0.333307
C87	C	1.492203	0.622226	0.666640
C88	C	0.824083	-0.143730	-0.000026
C89	C	1.157417	0.189604	0.333307
C90	C	1.490750	0.522937	0.666641
C91	C	0.947585	0.112071	-0.000024
C92	C	1.280918	0.445404	0.333309
C93	C	1.614251	0.778737	0.666642
C94	C	1.024693	0.113525	-0.000022
C95	C	1.358026	0.446858	0.333311
C96	C	1.691359	0.780192	0.666644
C97	C	0.886664	-0.201293	-0.000029
C98	C	1.219997	0.132041	0.333305
C99	C	1.553331	0.465374	0.666638
C100	C	0.885295	-0.294585	-0.000021
C101	C	1.218628	0.038749	0.333312
C102	C	1.551962	0.372082	0.666645
C103	C	0.821344	-0.330312	-0.000017
C104	C	1.154678	0.003021	0.333317
C105	C	1.488011	0.336355	0.666650
C106	C	0.758759	-0.272741	-0.000012
C107	C	1.092092	0.060592	0.333322
C108	C	1.425425	0.393925	0.666655
C109	C	0.760128	-0.179451	-0.000014
C110	C	1.093462	0.153882	0.333320
C111	C	1.426795	0.487215	0.666653
C112	C	0.755908	-0.467189	-0.000009
C113	C	1.089241	-0.133855	0.333324
C114	C	1.422575	0.199478	0.666658
C115	C	0.754538	-0.560485	-0.000008
C116	C	1.087871	-0.227152	0.333325
C117	C	1.421204	0.106181	0.666659
C118	C	0.881074	-0.582322	-0.000017
C119	C	1.214408	-0.248989	0.333317
C120	C	1.547741	0.084345	0.666650
C121	C	0.882444	-0.489032	-0.000019
C122	C	1.215778	-0.155699	0.333315
C123	C	1.549111	0.177635	0.666648
C124	C	0.819858	-0.431468	-0.000015
C125	C	1.153192	-0.098134	0.333318
C126	C	1.486525	0.235199	0.666652
C127	C	0.815666	0.282662	-0.000015
C128	C	1.148999	0.615996	0.333318
C129	C	1.482332	0.949329	0.666652
C130	C	0.817119	0.381952	-0.000011
C131	C	1.150452	0.715285	0.333323
C132	C	1.483785	1.048618	0.666656
N133	N	0.820584	0.119118	-0.188690
N134	N	1.153918	0.452451	0.144644
N135	N	1.487251	0.785785	0.477977
C136	C	0.862792	0.173200	-0.773238
C137	C	1.196125	0.506534	-0.439905
C138	C	1.529458	0.839867	-0.106572
C139	C	0.862785	0.173209	-0.697011
C140	C	1.196118	0.506543	-0.363677
C141	C	1.529451	0.839876	-0.030344
C142	C	0.820616	0.119098	-0.658901
C143	C	1.153950	0.452431	-0.325568
C144	C	1.487283	0.785765	0.007766
C145	C	0.778439	0.064991	-0.697025
C146	C	1.111772	0.398325	-0.363692
C147	C	1.445106	0.731658	-0.030359
C148	C	0.778442	0.064991	-0.773252
C149	C	1.111775	0.398324	-0.439918
C150	C	1.445109	0.731657	-0.106585
C151	C	0.818627	0.038454	-0.538138
C152	C	1.151960	0.371787	-0.204805
C153	C	1.485293	0.705121	0.128529
C154	C	0.818628	0.038453	-0.461913
C155	C	1.151962	0.371786	-0.128580
C156	C	1.485295	0.705119	0.204754
C157	C	0.820603	0.119100	-0.423793
C158	C	1.153936	0.452434	-0.090460
C159	C	1.487269	0.785767	0.242873
C160	C	0.822590	0.199751	-0.461908
C161	C	1.155923	0.533084	-0.128575
C162	C	1.489256	0.866417	0.204758
C163	C	0.822593	0.199750	-0.538135
C164	C	1.155926	0.533084	-0.204801
C165	C	1.489259	0.866417	0.128532
C166	C	0.820608	0.119093	-0.576246
C167	C	1.153941	0.452426	-0.242913
C168	C	1.487275	0.785760	0.090420
C169	C	0.862766	0.173218	-0.303023
C170	C	1.196099	0.506551	0.030310
C171	C	1.529433	0.839885	0.363643
C172	C	0.862754	0.173229	-0.226794
C173	C	1.196087	0.506562	0.106539
C174	C	1.529421	0.839895	0.439873
C175	C	0.778412	0.065002	-0.226810
C176	C	1.111746	0.398336	0.106523
C177	C	1.445079	0.731669	0.439856
C178	C	0.778420	0.065000	-0.303038
C179	C	1.111754	0.398333	0.030295
C180	C	1.445087	0.731667	0.363629
C181	C	0.820601	0.119106	-0.341140
C182	C	1.153934	0.452440	-0.007807
C183	C	1.487268	0.785773	0.325527
N184	N	0.820623	0.119097	0.188646
N185	N	1.153956	0.452430	0.521980
N186	N	1.487289	0.785764	0.855313
H187	H	0.478347	0.122104	0.119753
H188	H	0.811680	0.455437	0.453086
H189	H	1.145014	0.788771	0.786419
F190	F	0.384467	0.228699	-0.104409
F191	F	0.717800	0.562032	0.228924
F192	F	1.051133	0.895365	0.562257
F193	F	0.816526	-0.047388	-0.578700
F194	F	1.149859	0.285945	-0.245367
F195	F	1.483193	0.619278	0.087967
F196	F	0.406280	0.012372	0.104379
F197	F	0.739613	0.345705	0.437713
F198	F	1.072947	0.679038	0.771046
H199	H	0.744104	0.020936	-0.665992
H200	H	1.077437	0.354269	-0.332658
H201	H	1.410771	0.687602	0.000675
H202	H	0.938740	-0.172212	-0.000037
H203	H	1.272073	0.161122	0.333296
H204	H	1.605407	0.494455	0.666629
H205	H	0.162858	0.116127	-0.119786
H206	H	0.496191	0.449460	0.213547
H207	H	0.829524	0.782794	0.546881
H208	H	0.824209	0.265419	-0.569165
H209	H	1.157542	0.598752	-0.235831
H210	H	1.490875	0.932085	0.097502
F211	F	0.733558	0.007404	-0.813818
F212	F	1.066891	0.340737	-0.480485
F213	F	1.400225	0.674071	-0.147151
H214	H	0.744085	0.020939	-0.334072
H215	H	1.077418	0.354272	-0.000738
H216	H	1.410752	0.687605	0.332595
F217	F	0.951902	-0.355844	-0.000026
F218	F	1.285236	-0.022511	0.333308
F219	F	1.618569	0.310822	0.666641
H220	H	0.031434	0.113665	0.119745
H221	H	0.364767	0.446998	0.453078
H222	H	0.698100	0.780332	0.786411
H223	H	0.706689	-0.301838	-0.000003
H224	H	1.040022	0.031496	0.333330
H225	H	1.373355	0.364829	0.666664
F226	F	0.171929	0.116316	0.136250
F227	F	0.505262	0.449649	0.469584
F228	F	0.838596	0.782983	0.802917
F229	F	0.256724	0.009550	0.104377
F230	F	0.590058	0.342883	0.437710
F231	F	0.923391	0.676216	0.771044
F232	F	0.693521	-0.118188	-0.000009
F233	F	1.026855	0.215145	0.333325
F234	F	1.360188	0.548479	0.666658
H235	H	0.031417	0.113638	-0.119795
H236	H	0.364750	0.446972	0.213538
H237	H	0.698083	0.780305	0.546872
H238	H	0.817015	-0.027218	-0.430886
H239	H	1.150349	0.306115	-0.097552
H240	H	1.483682	0.639448	0.235781
H241	H	0.744074	0.020949	-0.195782
H242	H	1.077407	0.354283	0.137551
H243	H	1.410741	0.687616	0.470885
F244	F	0.947683	-0.643587	-0.000017
F245	F	1.281017	-0.310253	0.333316
F246	F	1.614350	0.023080	0.666650
F247	F	0.618844	0.124739	0.136258
F248	F	0.952177	0.458072	0.469591
F249	F	1.285510	0.791406	0.802925
F250	F	0.618827	0.124730	-0.136289
F251	F	0.952160	0.458064	0.197044
F252	F	1.285494	0.791397	0.530377
H253	H	0.704944	-0.420322	-0.000004
H254	H	1.038277	-0.086988	0.333329
H255	H	1.371610	0.246345	0.666663
H256	H	0.824197	0.265422	-0.430873
H257	H	1.157531	0.598755	-0.097540
H258	H	1.490864	0.932088	0.235794
F259	F	0.469272	0.121921	-0.136291
F260	F	0.802606	0.455255	0.197043
F261	F	1.135939	0.788588	0.530376
F262	F	0.234919	0.225862	-0.104422
F263	F	0.568252	0.559195	0.228912
F264	F	0.901585	0.892529	0.562245
H265	H	0.934518	-0.459946	-0.000028
H266	H	1.267852	-0.126613	0.333305
H267	H	1.601185	0.206720	0.666639
F268	F	0.686474	-0.598507	-0.000004
F269	F	1.019808	-0.265173	0.333330
F270	F	1.353141	0.068160	0.666663
F271	F	0.907680	0.230791	-0.813785
F272	F	1.241014	0.564124	-0.480452
F273	F	1.574347	0.897458	-0.147118
H274	H	0.897123	0.217271	-0.665971
H275	H	1.230456	0.550604	-0.332638
H276	H	1.563789	0.883937	0.000696
H277	H	0.897109	0.217279	-0.334047
H278	H	1.230442	0.550612	-0.000714
H279	H	1.563775	0.883945	0.332619
F280	F	0.907625	0.230833	-0.186229
F281	F	1.240959	0.564166	0.147104
F282	F	1.574292	0.897499	0.480438
