data_functionalizedCrystal
_audit_creation_method	'MofGen! by Chris Wilmer'
_symmetry_space_group_name_H-M	'P1'
_symmetry_Int_Tables_number	1
_symmetry_cell_setting	triclinic
loop_
_symmetry_equiv_pos_as_xyz
  x,y,z
_cell_length_a	6.817900
_cell_length_b	7.190334
_cell_length_c	11.102183
_cell_angle_alpha	92.055521
_cell_angle_beta	108.603876
_cell_angle_gamma	60.611776
loop_
_atom_site_label
_atom_site_type_symbol
_atom_site_fract_x
_atom_site_fract_y
_atom_site_fract_z
V1	V	-4.248748	0.664997	-0.173812
O2	O	-4.205181	0.652342	0.010438
O3	O	-4.224575	0.660445	-0.346645
O4	O	-4.285380	0.955027	-0.170223
O5	O	-4.143955	0.355721	-0.167206
V6	V	-4.718219	0.628006	-0.151881
O7	O	-4.540832	0.746141	-0.221917
O8	O	-4.876332	0.546862	-0.103775
O9	O	-4.519185	0.632557	0.020952
O10	O	-4.879183	0.640661	-0.336131
O11	O	-4.940409	0.937282	-0.158487
O12	O	-4.458380	0.337976	-0.155470
C13	C	-4.072719	0.649954	-0.388807
C14	C	-4.134808	0.648165	-0.530095
C15	C	-4.150291	1.025719	-0.163756
C16	C	-4.263777	1.267276	-0.161930
C17	C	-3.933837	0.257514	-0.495008
C18	C	-3.862520	0.061356	-0.543841
C19	C	-3.920869	0.059687	-0.676594
C20	C	-4.050553	0.254198	-0.760519
C21	C	-4.121870	0.450356	-0.711686
C22	C	-4.063503	0.452003	-0.578928
C23	C	-4.322853	0.841004	-0.746773
C24	C	-4.264492	0.842676	-0.614020
C25	C	-4.452538	1.035514	-0.830698
C26	C	-4.523843	1.231677	-0.781865
C27	C	-4.465484	1.233337	-0.649103
C28	C	-4.335809	1.038835	-0.565187
C29	C	-4.334383	0.643043	0.063107
C30	C	-4.251536	0.644845	0.204394
H31	H	-3.756933	-0.097010	-0.475495
H32	H	-4.288250	1.040166	-0.457089
H33	H	-4.098081	0.252823	-0.868613
C34	C	-4.516205	1.034166	-0.974874
C35	C	-4.645075	1.246487	-1.037916
C36	C	-4.703780	1.245337	-1.170733
H37	H	-4.373339	0.955005	-0.994472
H38	H	-4.611524	0.968546	-1.002613
H39	H	-4.549759	1.312077	-1.010188
H40	H	-4.787968	1.325687	-1.018357
H41	H	-4.799098	1.179718	-1.198472
H42	H	-4.560902	1.166168	-1.190317
H43	H	-4.791242	1.389394	-1.213524
H44	H	-4.523591	1.393075	-0.609354
C45	C	-3.843612	-0.153421	-0.729455
C46	C	-3.944479	-0.260860	-0.692630
C47	C	-3.873339	-0.457191	-0.741287
H48	H	-3.896896	-0.126845	-0.820533
H49	H	-3.673629	-0.240319	-0.696340
H50	H	-4.114426	-0.173981	-0.725752
H51	H	-3.891208	-0.287491	-0.601560
H52	H	-3.703357	-0.544089	-0.708172
H53	H	-3.926628	-0.430594	-0.832364
H54	H	-3.941749	-0.530122	-0.716299
C55	C	-4.664760	1.443073	-0.872775
C56	C	-4.714770	1.615224	-0.801603
C57	C	-4.844610	1.809999	-0.885311
H58	H	-4.572790	1.444054	-0.921219
H59	H	-4.810918	1.457454	-0.929383
H60	H	-4.568635	1.600847	-0.745017
H61	H	-4.806766	1.614314	-0.753162
H62	H	-4.990768	1.824380	-0.941919
H63	H	-4.752626	1.810957	-0.933751
H64	H	-4.878577	1.926827	-0.837034
H65	H	-3.886256	0.258850	-0.386910
