data_functionalizedCrystal
_audit_creation_method	'MofGen! by Chris Wilmer'
_symmetry_space_group_name_H-M	'P1'
_symmetry_Int_Tables_number	1
_symmetry_cell_setting	triclinic
loop_
_symmetry_equiv_pos_as_xyz
  x,y,z
_cell_length_a	18.215407
_cell_length_b	18.215399
_cell_length_c	12.759400
_cell_angle_alpha	89.975454
_cell_angle_beta	90.012128
_cell_angle_gamma	89.982632
loop_
_atom_site_label
_atom_site_type_symbol
_atom_site_fract_x
_atom_site_fract_y
_atom_site_fract_z
Zn1	Zn	1.125124	-0.416085	-0.418349
Zn2	Zn	1.125054	-0.293026	-0.594046
Zn3	Zn	1.002057	-0.293038	-0.418374
Zn4	Zn	1.002044	-0.416056	-0.593978
O5	O	1.063570	-0.354551	-0.506187
O6	O	1.228099	-0.399768	-0.441673
O7	O	1.108714	-0.190043	-0.570782
O8	O	1.018416	-0.309377	-0.271350
O9	O	1.228048	-0.309357	-0.570757
O10	O	1.108833	-0.399779	-0.271331
O11	O	1.018349	-0.190052	-0.441716
O12	O	0.899071	-0.309349	-0.441650
O13	O	1.018395	-0.519044	-0.570642
O14	O	0.899062	-0.399730	-0.570666
O15	O	1.108821	-0.519065	-0.441608
O16	O	1.108703	-0.309329	-0.741058
O17	O	1.018328	-0.399719	-0.741008
C18	C	0.872364	-0.354538	-0.506155
C19	C	0.790565	-0.354550	-0.506166
C20	C	0.602396	-0.401701	-0.439090
C21	C	0.525538	-0.401704	-0.439099
C22	C	0.525495	-0.307414	-0.573313
C23	C	0.602353	-0.307408	-0.573298
C24	C	0.640801	-0.354556	-0.506188
C25	C	0.487085	-0.354564	-0.506212
C26	C	0.403752	-0.354567	-0.506222
C27	C	0.724140	-0.354553	-0.506176
C28	C	1.063615	-0.546504	-0.506114
C29	C	1.063634	-0.628303	-0.506084
C30	C	1.110736	-0.816509	-0.438832
C31	C	1.110744	-0.893368	-0.438802
C32	C	1.016584	-0.893335	-0.573172
C33	C	1.016572	-0.816477	-0.573197
C34	C	1.063652	-0.778067	-0.506028
C35	C	1.063673	-0.931783	-0.505973
C36	C	1.063682	-1.015116	-0.505941
C37	C	1.063642	-0.694728	-0.506059
C38	C	1.255523	-0.354564	-0.506220
C39	C	1.337322	-0.354570	-0.506234
C40	C	1.063526	-0.354536	-0.779154
C41	C	1.063575	-0.354554	-0.895931
C42	C	1.063568	-0.163345	-0.506183
C43	C	1.063691	-0.081546	-0.505918
C44	C	1.110685	-0.307540	-0.950784
C45	C	1.110730	-0.307563	-1.060508
C46	C	1.016549	-0.401615	-1.060516
C47	C	1.016508	-0.401596	-0.950794
C48	C	1.165058	-0.253237	-0.950780
C49	C	1.165104	-0.253260	-1.060504
C50	C	1.063634	-0.354583	-0.232154
C51	C	1.063661	-0.354596	-0.115377
H52	H	0.494272	-0.440093	-0.384460
O53	O	0.643866	-0.452541	-0.366694
H54	H	0.629131	-0.510281	-0.384804
O55	O	0.965782	-0.775012	-0.645676
H56	H	0.973678	-0.715115	-0.634397
H57	H	0.494181	-0.269028	-0.627952
H58	H	0.633623	-0.269013	-0.627938
O59	O	1.161506	-0.775077	-0.366383
H60	H	1.194242	-0.814724	-0.319646
H61	H	0.978229	-0.439916	-1.105199
O62	O	1.161531	-0.934834	-0.366333
H63	H	1.194268	-0.895210	-0.319640
H64	H	0.978255	-0.924618	-0.627860
O65	O	0.965688	-0.452295	-0.891626
H66	H	0.932959	-0.484997	-0.948212
O67	O	1.240527	-0.273515	-0.911222
H68	H	1.277506	-0.283467	-0.978873
H69	H	1.144659	-0.199072	-0.916822
H70	H	1.219252	-0.273723	-1.094456
H71	H	1.149879	-0.196255	-1.090355
