data_functionalizedCrystal
_audit_creation_method	'MofGen! by Chris Wilmer'
_symmetry_space_group_name_H-M	'P1'
_symmetry_Int_Tables_number	1
_symmetry_cell_setting	triclinic
loop_
_symmetry_equiv_pos_as_xyz
  x,y,z
_cell_length_a	15.944493
_cell_length_b	15.944551
_cell_length_c	15.021413
_cell_angle_alpha	89.990496
_cell_angle_beta	89.995554
_cell_angle_gamma	83.486891
loop_
_atom_site_label
_atom_site_type_symbol
_atom_site_fract_x
_atom_site_fract_y
_atom_site_fract_z
O1	O	1.114555	0.108105	-0.074022
O2	O	1.447888	0.441438	0.259311
O3	O	1.781221	0.774771	0.592645
O4	O	0.869998	0.121512	-0.074027
O5	O	1.203332	0.454845	0.259307
O6	O	1.536665	0.788178	0.592640
O7	O	0.998955	-0.007468	-0.074016
O8	O	1.332288	0.325865	0.259317
O9	O	1.665621	0.659199	0.592650
O10	O	0.985598	0.237084	-0.074033
O11	O	1.318931	0.570418	0.259301
O12	O	1.652265	0.903751	0.592634
O13	O	0.998943	-0.007481	0.074048
O14	O	1.332277	0.325852	0.407381
O15	O	1.665610	0.659186	0.740715
O16	O	0.869987	0.121499	0.074037
O17	O	1.203320	0.454832	0.407371
O18	O	1.536654	0.788165	0.740704
O19	O	1.114543	0.108092	0.074042
O20	O	1.447877	0.441425	0.407375
O21	O	1.781210	0.774758	0.740709
Zn22	Zn	0.992263	0.114793	0.097548
Zn23	Zn	1.325597	0.448126	0.430881
Zn24	Zn	1.658930	0.781460	0.764215
Zn25	Zn	0.992278	0.114810	-0.097533
Zn26	Zn	1.325612	0.448144	0.235800
Zn27	Zn	1.658945	0.781477	0.569134
O28	O	0.985587	0.237071	0.074032
O29	O	1.318920	0.570405	0.407365
O30	O	1.652253	0.903738	0.740698
C31	C	0.838698	0.120957	0.000005
C32	C	1.172031	0.454291	0.333338
C33	C	1.505364	0.787624	0.666671
C34	C	0.745449	0.119314	0.000003
C35	C	1.078783	0.452648	0.333337
C36	C	1.412116	0.785981	0.666670
C37	C	0.509689	0.195235	-0.000002
C38	C	0.843023	0.528568	0.333331
C39	C	1.176356	0.861902	0.666664
C40	C	0.459125	0.154287	0.073008
C41	C	0.792459	0.487621	0.406341
C42	C	1.125792	0.820954	0.739674
C43	C	0.574728	0.116270	0.000005
C44	C	0.908062	0.449604	0.333339
C45	C	1.241395	0.782937	0.666672
C46	C	0.459141	0.154282	-0.072972
C47	C	0.792474	0.487615	0.260361
C48	C	1.125808	0.820948	0.593695
C49	C	0.409819	0.113336	0.000003
C50	C	0.743152	0.446669	0.333337
C51	C	1.076485	0.780002	0.666670
C52	C	0.525393	0.075344	0.073075
C53	C	0.858726	0.408678	0.406409
C54	C	1.192059	0.742011	0.739742
C55	C	0.525412	0.075350	-0.072970
C56	C	0.858745	0.408683	0.260363
C57	C	1.192078	0.742017	0.593697
C58	C	0.474880	0.034345	0.000058
C59	C	0.808214	0.367678	0.333391
C60	C	1.141547	0.701011	0.666725
C61	C	0.669728	0.117963	0.000007
C62	C	1.003061	0.451296	0.333341
C63	C	1.336395	0.784630	0.666674
C64	C	0.314821	0.111637	0.000008
C65	C	0.648155	0.444970	0.333341
C66	C	0.981488	0.778303	0.666674
C67	C	0.998395	-0.038768	0.000016
C68	C	1.331728	0.294565	0.333349
C69	C	1.665061	0.627898	0.666683
C70	C	0.996732	-0.132014	0.000016
C71	C	1.330066	0.201319	0.333350
C72	C	1.663399	0.534653	0.666683
C73	C	0.912826	-0.346853	0.000003
C74	C	1.246159	-0.013520	0.333336
C75	C	1.579492	0.319813	0.666669
C76	C	0.951783	-0.407885	0.073008
C77	C	1.285117	-0.074552	0.406341
C78	C	1.618450	0.258781	0.739675
C79	C	0.993725	-0.302739	0.000010
C80	C	1.327058	0.030594	0.333343
C81	C	1.660392	0.363927	0.666676
C82	C	0.951814	-0.407856	-0.072972
C83	C	1.285147	-0.074522	0.260362
C84	C	1.618480	0.258811	0.593695
C85	C	0.990814	-0.467651	-0.000001
C86	C	1.324147	-0.134318	0.333332
C87	C	1.657481	0.199015	0.666666
C88	C	1.032705	-0.362543	0.073075
C89	C	1.366038	-0.029210	0.406408
C90	C	1.699372	0.304124	0.739742
C91	C	1.032724	-0.362507	-0.072970
C92	C	1.366057	-0.029174	0.260363
C93	C	1.699391	0.304160	0.593696
C94	C	1.071741	-0.423521	0.000053
C95	C	1.405074	-0.090188	0.333386
C96	C	1.738407	0.243145	0.666720
C97	C	0.995399	-0.207737	0.000016
C98	C	1.328733	0.125596	0.333350
C99	C	1.662066	0.458929	0.666683
C100	C	0.989146	-0.562652	-0.000001
C101	C	1.322479	-0.229319	0.333332
C102	C	1.655812	0.104014	0.666665
C103	C	1.145844	0.108646	0.000009
C104	C	1.479177	0.441979	0.333342
C105	C	1.812510	0.775313	0.666675
C106	C	1.239092	0.110289	0.000004
C107	C	1.572426	0.443622	0.333338
C108	C	1.905759	0.776956	0.666671
C109	C	0.986147	0.268372	-0.000003
C110	C	1.319480	0.601705	0.333331
C111	C	1.652814	0.935038	0.666664
C112	C	0.987809	0.361617	-0.000009
C113	C	1.321143	0.694951	0.333324
C114	C	1.654476	1.028284	0.666658
N115	N	0.992259	0.114781	0.230686
N116	N	1.325593	0.448114	0.564019
N117	N	1.658926	0.781447	0.897352
N118	N	0.992289	0.114816	-0.230670
N119	N	1.325622	0.448149	0.102663
N120	N	1.658956	0.781483	0.435996
C121	C	1.051442	0.054667	0.529682
C122	C	1.384776	0.388000	0.863015
C123	C	1.718109	0.721334	1.196348
C124	C	1.068430	0.130334	0.470310
C125	C	1.401763	0.463667	0.803644
C126	C	1.735096	0.797000	1.136977
C127	C	0.992279	0.114806	0.587723
C128	C	1.325613	0.448139	0.921056
C129	C	1.658946	0.781473	1.254389
C130	C	0.975321	0.039129	0.470352
C131	C	1.308655	0.372462	0.803686
C132	C	1.641988	0.705795	1.137019
C133	C	0.992272	0.114789	0.412299
C134	C	1.325605	0.448123	0.745632
C135	C	1.658938	0.781456	1.078965
C136	C	1.009305	0.190511	0.529658
C137	C	1.342638	0.523844	0.862991
C138	C	1.675971	0.857178	1.196324
C139	C	0.916163	0.099256	0.529705
C140	C	1.249496	0.432590	0.863038
C141	C	1.582830	0.765923	1.196372
C142	C	0.933119	0.174978	0.470360
C143	C	1.266452	0.508311	0.803693
C144	C	1.599785	0.841645	1.137027
C145	C	0.992286	0.114814	0.688780
C146	C	1.325619	0.448148	1.022113
C147	C	1.658952	0.781481	1.355447
C148	C	0.992265	0.114790	0.311243
C149	C	1.325598	0.448123	0.644577
C150	C	1.658931	0.781456	0.977910
H151	H	0.525313	0.263254	0.000061
H152	H	0.858646	0.596588	0.333395
H153	H	1.191980	0.929921	0.666728
F154	F	1.077388	-0.336434	0.153836
F155	F	1.410722	-0.003101	0.487169
F156	F	1.744055	0.330232	0.820502
F157	F	1.116884	-0.011724	0.563730
F158	F	1.450217	0.321610	0.897063
F159	F	1.783550	0.654943	1.230397
H160	H	0.960981	-0.024864	0.444301
H161	H	1.294315	0.308470	0.777634
H162	H	1.627648	0.641803	1.110967
H163	H	0.554362	0.042033	-0.134692
H164	H	0.887696	0.375366	0.198641
H165	H	1.221029	0.708700	0.531975
F166	F	0.421294	0.197867	0.153678
F167	F	0.754628	0.531200	0.487012
F168	F	1.087961	0.864533	0.820345
H169	H	0.459415	-0.033726	0.000105
H170	H	0.792748	0.299607	0.333438
H171	H	1.126081	0.632941	0.666771
F172	F	1.152557	0.147513	0.436191
F173	F	1.485890	0.480847	0.769524
F174	F	1.819224	0.814180	1.102857
F175	F	0.907055	-0.434167	0.153680
F176	F	1.240388	-0.100833	0.487013
F177	F	1.573722	0.232500	0.820346
H178	H	0.430207	0.187651	-0.134688
H179	H	0.763541	0.520985	0.198646
H180	H	1.096874	0.854318	0.531979
H181	H	1.138950	-0.456694	0.000096
H182	H	1.472283	-0.123361	0.333429
H183	H	1.805616	0.209973	0.666762
F184	F	1.077417	-0.336195	-0.153646
F185	F	1.410750	-0.002862	0.179688
F186	F	1.744084	0.330471	0.513021
F187	F	0.563063	0.031776	0.153835
F188	F	0.896396	0.365109	0.487168
F189	F	1.229729	0.698443	0.820502
H190	H	1.023714	0.254519	0.555599
H191	H	1.357047	0.587852	0.888933
H192	H	1.690381	0.921185	1.222266
F193	F	0.907077	-0.434099	-0.153638
F194	F	1.240410	-0.100766	0.179695
F195	F	1.573744	0.232567	0.513028
H196	H	0.883081	0.225884	0.444478
H197	H	1.216414	0.559217	0.777811
H198	H	1.549747	0.892550	1.111144
H199	H	0.845675	-0.313532	0.000074
H200	H	1.179009	0.019802	0.333407
H201	H	1.512342	0.353135	0.666741
F202	F	0.832057	0.082036	0.563832
F203	F	1.165390	0.415369	0.897166
F204	F	1.498723	0.748703	1.230499
