data_functionalizedCrystal
_audit_creation_method	'MofGen! by Chris Wilmer'
_symmetry_space_group_name_H-M	'P1'
_symmetry_Int_Tables_number	1
_symmetry_cell_setting	triclinic
loop_
_symmetry_equiv_pos_as_xyz
  x,y,z
_cell_length_a	31.640172
_cell_length_b	31.640171
_cell_length_c	18.760492
_cell_angle_alpha	59.979764
_cell_angle_beta	89.992319
_cell_angle_gamma	59.987882
loop_
_atom_site_label
_atom_site_type_symbol
_atom_site_fract_x
_atom_site_fract_y
_atom_site_fract_z
Zr1	Zr	0.407054	0.462751	-0.093937
O2	O	0.339544	0.550963	-0.207819
O3	O	0.427766	0.374542	-0.058978
O4	O	0.427746	0.462748	-0.207755
O5	O	0.339561	0.462758	0.058261
O6	O	0.497302	0.462741	-0.207760
O7	O	0.339564	0.462757	-0.059042
O8	O	0.497338	0.304957	0.058375
O9	O	0.339525	0.620542	-0.207874
O10	O	0.488488	0.410817	-0.044130
O11	O	0.436577	0.410822	0.043415
O12	O	0.436553	0.514673	-0.131751
O13	O	0.384642	0.514678	-0.044206
Zr14	Zr	0.517983	0.462739	0.093139
Zr15	Zr	0.517988	0.462739	-0.093945
Zr16	Zr	0.407049	0.462751	0.093147
Zr17	Zr	0.407024	0.573720	-0.094025
Zr18	Zr	0.518013	0.351770	0.093228
O19	O	0.497271	0.550947	0.058180
O20	O	0.497278	0.550947	-0.207830
O21	O	0.339537	0.550964	0.058191
O22	O	0.585493	0.374526	0.207021
O23	O	0.585500	0.374526	-0.058988
O24	O	0.427759	0.374543	0.207032
O25	O	0.585476	0.462732	-0.059059
O26	O	0.497291	0.462741	0.206957
O27	O	0.427735	0.462749	0.206962
O28	O	0.585473	0.462732	0.058244
O29	O	0.427703	0.620533	-0.207880
O30	O	0.497334	0.304957	0.207082
O31	O	0.585512	0.304948	0.207076
O32	O	0.585516	0.304948	0.058369
O33	O	0.339521	0.620542	-0.059167
O34	O	0.427699	0.620533	-0.059173
O35	O	0.488484	0.410817	0.130953
O36	O	0.540395	0.410811	0.043408
O37	O	0.488460	0.514668	-0.044213
O38	O	0.436549	0.514673	0.043332
C39	C	0.462556	0.323939	-0.000289
C40	C	0.462569	0.276829	-0.000251
C41	C	0.323757	0.462759	-0.000389
C42	C	0.276662	0.462764	-0.000386
C43	C	0.435421	-0.059391	0.045307
C44	C	0.435449	0.117563	0.045384
O45	O	0.412425	0.140427	0.084285
N46	N	0.462550	0.139689	-0.000305
C47	C	0.489649	0.117571	-0.046012
O48	O	0.512705	0.140446	-0.084864
C49	C	0.489624	-0.059385	-0.046084
C50	C	0.462517	-0.081504	-0.000399
C51	C	0.408317	-0.081510	0.090988
C52	C	0.408308	-0.125744	0.090965
C53	C	0.435404	-0.147857	0.045259
C54	C	0.462508	-0.125738	-0.000422
C55	C	0.516725	-0.081505	-0.091785
C56	C	0.516718	-0.125748	-0.091797
C57	C	0.489611	-0.147868	-0.046112
C58	C	0.489594	-0.192085	-0.046151
N59	N	0.462493	-0.214211	-0.000462
C60	C	0.435398	-0.192097	0.045243
C61	C	0.489659	0.210476	-0.045973
C62	C	0.489664	0.254715	-0.045957
C63	C	0.435465	0.254704	0.045441
C64	C	0.435457	0.210467	0.045419
C65	C	0.462558	0.188350	-0.000284
C66	C	0.435381	-0.284990	0.045189
C67	C	0.435373	-0.329226	0.045159
C68	C	0.489574	-0.329213	-0.046234
C69	C	0.489580	-0.284979	-0.046208
C70	C	0.462483	-0.262870	-0.000489
O71	O	0.512611	-0.214981	-0.085025
O72	O	0.412355	-0.214989	0.084105
C73	C	0.435430	-0.015157	0.045330
C74	C	0.462535	0.006963	-0.000352
C75	C	0.489630	-0.015151	-0.046057
C76	C	0.462540	0.051202	-0.000335
C77	C	0.435445	0.073316	0.045370
C78	C	0.408344	0.051190	0.091059
C79	C	0.408335	0.006957	0.091036
C80	C	0.516731	0.006975	-0.091746
C81	C	0.516737	0.051209	-0.091720
C82	C	0.489642	0.073322	-0.046014
C83	C	-0.015341	0.462734	-0.065020
C84	C	-0.192328	0.462727	-0.065027
O85	O	-0.215199	0.462700	-0.119965
N86	N	-0.214460	0.462728	-0.000404
C87	C	-0.192341	0.462727	0.064227
O88	O	-0.215224	0.462722	0.119197
C89	C	-0.015353	0.462730	0.064237
C90	C	0.006774	0.462735	-0.000395
C91	C	0.006786	0.462738	-0.129646
C92	C	0.051028	0.462743	-0.129646
C93	C	0.073143	0.462744	-0.065021
C94	C	0.051016	0.462740	-0.000395
C95	C	0.006767	0.462725	0.128871
C96	C	0.051017	0.462724	0.128869
C97	C	0.073144	0.462729	0.064237
C98	C	0.117373	0.462746	0.064229
N99	N	0.139506	0.462745	-0.000393
C100	C	0.117391	0.462744	-0.065018
C101	C	-0.285263	0.462727	0.064217
C102	C	-0.329510	0.462727	0.064214
C103	C	-0.329493	0.462725	-0.065039
C104	C	-0.285247	0.462729	-0.065039
C105	C	-0.263131	0.462725	-0.000405
C106	C	0.210302	0.462755	-0.065015
C107	C	0.254547	0.462763	-0.065011
C108	C	0.254528	0.462761	0.064244
C109	C	0.210285	0.462757	0.064238
C110	C	0.188175	0.462752	-0.000395
O111	O	0.140275	0.462766	0.119144
O112	O	0.140288	0.462736	-0.119969
C113	C	-0.059584	0.462729	-0.065020
C114	C	-0.081711	0.462725	-0.000394
C115	C	-0.059596	0.462726	0.064231
C116	C	-0.125958	0.462725	-0.000397
C117	C	-0.148073	0.462724	-0.065022
C118	C	-0.125941	0.462723	-0.129644
C119	C	-0.081699	0.462728	-0.129645
C120	C	-0.081728	0.462727	0.128853
C121	C	-0.125971	0.462723	0.128848
C122	C	-0.148086	0.462722	0.064223
C123	C	0.601280	0.462731	-0.000408
C124	C	0.648375	0.462726	-0.000411
C125	C	0.462525	0.462745	-0.234413
C126	C	0.462527	0.462745	-0.313835
C127	C	0.462481	0.601551	-0.000509
C128	C	0.462468	0.648661	-0.000547
C129	C	0.489623	0.408531	-0.603912
C130	C	0.435402	0.516959	-0.695385
C131	C	0.435405	0.516960	-0.620764
C132	C	0.462517	0.462745	-0.537713
C133	C	0.489626	0.408530	-0.529283
C134	C	0.408293	0.571174	-0.629188
C135	C	0.408294	0.571177	-0.554565
C136	C	0.435410	0.516962	-0.471512
C137	C	0.462520	0.462744	-0.463084
C138	C	0.489632	0.408530	-0.380033
C139	C	0.516746	0.354312	-0.371604
C140	C	0.516741	0.354315	-0.446230
C141	C	0.435415	0.516959	-0.396886
C142	C	0.489635	0.408529	-0.305404
C143	C	0.462513	0.462745	0.233615
C144	C	0.462511	0.462745	0.313037
C145	C	0.601318	0.323924	-0.000298
C146	C	0.648425	0.276810	-0.000264
C147	C	0.462550	0.323939	0.233725
C148	C	0.462561	0.276829	0.313185
C149	C	0.601312	0.323925	0.233716
C150	C	0.648417	0.276810	0.313172
C151	C	0.323725	0.601565	-0.234514
C152	C	0.276620	0.648679	-0.313970
C153	C	0.323719	0.601565	-0.000500
C154	C	0.276612	0.648680	-0.000534
C155	C	0.462487	0.601551	-0.234523
C156	C	0.462476	0.648660	-0.313983
C157	C	0.643453	0.254687	-0.045950
C158	C	0.687711	0.210425	-0.045935
C159	C	0.736941	0.188282	-0.000229
C160	C	0.741913	0.210409	0.045458
C161	C	0.697655	0.254674	0.045438
C162	C	0.489661	0.254704	0.396202
C163	C	0.489669	0.210445	0.470870
C164	C	0.462580	0.188311	0.462519
C165	C	0.435477	0.210441	0.379493
C166	C	0.435466	0.254702	0.304827
C167	C	0.697640	0.254682	0.304788
C168	C	0.741905	0.210419	0.379439
C169	C	0.736945	0.188283	0.462473
C170	C	0.687717	0.210415	0.470855
C171	C	0.643454	0.254680	0.396205
C172	C	0.227397	0.670813	-0.305586
C173	C	0.183132	0.715089	-0.380236
C174	C	0.188092	0.737229	-0.463270
C175	C	0.237320	0.715093	-0.471653
C176	C	0.281583	0.670820	-0.397003
C177	C	0.281585	0.670807	0.045144
C178	C	0.237327	0.715082	0.045109
C179	C	0.188096	0.737226	-0.000600
C180	C	0.183125	0.715097	-0.046284
C181	C	0.227382	0.670826	-0.046253
C182	C	0.489570	0.670781	-0.305604
C183	C	0.489570	0.715039	-0.380257
C184	C	0.462473	0.737179	-0.463289
C185	C	0.435378	0.715055	-0.471666
C186	C	0.435381	0.670794	-0.397013
H187	H	0.413297	-0.347232	0.082360
C188	C	0.519375	0.739371	-0.371023
N189	N	0.541824	0.757697	-0.364065
H190	H	0.223349	0.652790	-0.237982
H191	H	0.462474	0.773220	-0.524069
H192	H	0.241385	0.733092	0.082313
C193	C	-0.150306	0.462717	0.199953
N194	N	-0.168630	0.462706	0.253514
C195	C	0.405684	0.186083	0.370321
N196	N	0.383247	0.167733	0.363416
C197	C	0.519385	0.646432	-0.214275
N198	N	0.541847	0.628092	-0.145489
C199	C	0.378475	0.630818	-0.563845
N200	N	0.356016	0.675740	-0.570834
C201	C	0.682230	0.186088	-0.096187
N202	N	0.678101	0.167757	-0.134035
H203	H	-0.011215	0.462735	-0.182272
C204	C	0.405664	0.279034	0.095723
N205	N	0.383222	0.297358	0.133599
C206	C	0.546549	-0.057188	-0.142036
N207	N	0.569017	-0.038875	-0.179886
H208	H	0.538818	0.310170	-0.303974
H209	H	0.413316	0.733088	-0.539281
H210	H	0.782002	0.192374	0.082670
H211	H	0.781984	0.192404	0.372598
H212	H	0.143053	0.733105	-0.373394
C213	C	0.405565	0.646474	-0.406245
N214	N	0.383105	0.628160	-0.413205
H215	H	0.413314	-0.266993	0.082416
C216	C	0.221903	0.646484	-0.096494
N217	N	0.217773	0.628150	-0.134337
C218	C	-0.057402	0.462715	0.199961
N219	N	-0.039079	0.462704	0.253526
H220	H	0.321666	0.652781	0.082371
H221	H	0.386279	0.069205	0.128270
H222	H	0.386237	-0.143751	0.128170
C223	C	0.519492	0.186105	0.562189
N224	N	0.541956	0.167771	0.630969
C225	C	0.378514	-0.057199	0.141284
N226	N	0.356064	-0.038890	0.179169
H227	H	0.413335	0.561103	-0.403752
C228	C	0.405648	0.186129	0.095693
N229	N	0.383199	0.167796	0.133569
C230	C	0.519461	0.348888	-0.214050
N231	N	0.541926	0.303965	-0.145241
H232	H	0.152045	0.773278	-0.524048
C233	C	0.242767	0.739447	-0.562999
N234	N	0.246868	0.757788	-0.631802
H235	H	0.772974	0.152238	-0.000219
H236	H	0.413400	0.272711	0.237234
H237	H	0.152063	0.773274	-0.000618
H238	H	0.321662	0.652800	-0.403840
C239	C	0.703134	0.278999	0.095709
N240	N	0.707264	0.297317	0.133577
H241	H	0.511731	0.272728	-0.083168
C242	C	0.519460	0.279047	0.405409
N243	N	0.541903	0.297382	0.412352
C244	C	0.378470	0.630806	-0.720545
N245	N	0.356008	0.675722	-0.789360
H246	H	0.701688	0.272699	0.237184
H247	H	0.143035	0.733133	-0.083498
H248	H	0.511728	0.192472	-0.083192
H249	H	0.538816	0.310173	-0.439376
H250	H	0.413326	0.561098	-0.763007
C251	C	0.785642	0.139585	0.544582
N252	N	0.822322	0.102904	0.606423
C253	C	0.682270	0.186053	0.562201
N254	N	0.678170	0.167699	0.631005
H255	H	0.538788	-0.143755	-0.129012
H256	H	0.603376	0.272691	0.403044
H257	H	0.511647	-0.266963	-0.083419
H258	H	0.511633	-0.347223	-0.083450
H259	H	0.538809	0.069218	-0.128930
C260	C	0.278886	0.462765	-0.136111
N261	N	0.297218	0.462764	-0.189661
C262	C	0.462603	0.139617	0.544663
N263	N	0.462624	0.102938	0.606537
C264	C	0.185986	0.462753	-0.136117
N265	N	0.167668	0.462755	-0.189675
H266	H	0.386262	-0.011049	0.128237
H267	H	0.538796	-0.011028	-0.128964
H268	H	-0.347507	0.462726	-0.117661
C269	C	-0.260909	0.462729	-0.136133
N270	N	-0.242578	0.462726	-0.189682
C271	C	0.075367	0.462739	-0.200739
N272	N	0.093698	0.462732	-0.254286
H273	H	-0.347528	0.462732	0.116835
C274	C	0.075343	0.462721	0.199973
N275	N	0.093663	0.462720	0.253526
C276	C	-0.260934	0.462710	0.135334
N277	N	-0.242610	0.462695	0.188903
H278	H	-0.011243	0.462721	0.181500
C279	C	0.278865	0.462759	0.135331
N280	N	0.297199	0.462752	0.188879
C281	C	0.185943	0.462757	0.135332
N282	N	0.167613	0.462750	0.188886
H283	H	-0.063686	0.462732	-0.182274
H284	H	0.511700	0.364388	-0.597053
H285	H	-0.143956	0.462725	-0.182268
H286	H	0.603371	0.272715	-0.083180
