data_functionalizedCrystal
_audit_creation_method	'MofGen! by Chris Wilmer'
_symmetry_space_group_name_H-M	'P1'
_symmetry_Int_Tables_number	1
_symmetry_cell_setting	triclinic
loop_
_symmetry_equiv_pos_as_xyz
  x,y,z
_cell_length_a	12.759395
_cell_length_b	18.215405
_cell_length_c	18.215399
_cell_angle_alpha	90.030551
_cell_angle_beta	90.016223
_cell_angle_gamma	90.024731
loop_
_atom_site_label
_atom_site_type_symbol
_atom_site_fract_x
_atom_site_fract_y
_atom_site_fract_z
Zn1	Zn	1.606161	-0.292995	0.416032
Zn2	Zn	1.606030	-0.416066	0.292960
Zn3	Zn	1.430469	-0.293018	0.292987
Zn4	Zn	1.430420	-0.416024	0.415992
O5	O	1.518270	-0.354526	0.354493
O6	O	1.753165	-0.309329	0.399711
O7	O	1.582707	-0.399771	0.189979
O8	O	1.453850	-0.190030	0.309337
O9	O	1.753069	-0.399749	0.309291
O10	O	1.582930	-0.190014	0.399737
O11	O	1.453723	-0.309368	0.189999
O12	O	1.283441	-0.309327	0.309299
O13	O	1.453767	-0.399677	0.518982
O14	O	1.283406	-0.399699	0.399670
O15	O	1.582883	-0.309288	0.519011
O16	O	1.582660	-0.519045	0.309253
O17	O	1.453640	-0.519014	0.399644
C18	C	1.245303	-0.354511	0.354484
C19	C	1.128526	-0.354523	0.354497
C20	C	1.518159	-0.545732	0.354457
C21	C	1.518208	-0.627531	0.354467
C22	C	1.585546	-0.815716	0.307486
C23	C	1.585593	-0.892575	0.307504
C24	C	1.451128	-0.892583	0.401552
C25	C	1.451088	-0.815725	0.401537
C26	C	1.518295	-0.777294	0.354500
C27	C	1.518383	-0.931010	0.354533
C28	C	1.518433	-1.014344	0.354552
C29	C	1.518246	-0.693955	0.354481
C30	C	1.128607	-0.260520	0.448804
C31	C	1.073786	-0.213528	0.495963
C32	C	0.964065	-0.213541	0.495973
C33	C	0.909161	-0.260550	0.448816
C34	C	0.963981	-0.307542	0.401656
C35	C	1.073706	-0.307526	0.401654
C36	C	0.963901	-0.401539	0.307347
C37	C	1.073622	-0.401531	0.307340
C38	C	0.908997	-0.448548	0.260190
C39	C	0.963817	-0.495545	0.213033
C40	C	1.073546	-0.495531	0.213027
C41	C	1.128443	-0.448523	0.260181
C42	C	1.792304	-0.354541	0.354502
C43	C	1.909080	-0.354547	0.354506
C44	C	1.518334	-0.354475	0.546446
C45	C	1.518361	-0.354453	0.628245
C46	C	1.518410	-0.162573	0.354544
C47	C	1.518470	-0.080774	0.354566
C48	C	1.518267	-0.354523	0.163286
C49	C	1.518443	-0.354337	0.081488
C50	C	1.585616	-0.307344	0.816455
C51	C	1.585629	-0.307322	0.893314
C52	C	1.451181	-0.401449	0.893272
C53	C	1.451164	-0.401466	0.816415
C54	C	1.518388	-0.354415	0.778008
C55	C	1.518417	-0.354376	0.931724
C56	C	1.518430	-0.354353	1.015058
C57	C	1.518373	-0.354436	0.694669
H58	H	1.640358	-0.923855	0.269222
O59	O	0.910853	-0.167974	0.541888
C60	C	0.937715	-0.184143	0.615203
H61	H	0.967867	-0.242934	0.618804
H62	H	1.001421	-0.144701	0.634514
C63	C	0.803236	-0.103460	0.659915
C64	C	0.840262	-0.175670	0.664338
H65	H	0.743125	-0.098230	0.690225
H66	H	0.785141	-0.092564	0.610521
H67	H	0.856334	-0.070599	0.676006
H68	H	0.787169	-0.208528	0.648238
H69	H	0.858346	-0.186571	0.713731
O70	O	1.385740	-0.447079	0.930548
C71	C	1.281035	-0.431011	0.911751
H72	H	1.275762	-0.372222	0.890643
H73	H	1.253537	-0.470474	0.867122
C74	C	1.217404	-0.511767	1.005941
C75	C	1.210927	-0.439560	0.980022
H76	H	1.174156	-0.517044	1.048053
H77	H	1.287945	-0.522595	1.018604
H78	H	1.194491	-0.544645	0.968744
H79	H	1.233852	-0.406684	1.017216
H80	H	1.140387	-0.428726	0.967367
O81	O	1.385968	-0.447300	0.779095
C82	C	1.408864	-0.520645	0.797866
H83	H	1.492797	-0.524360	0.819002
H84	H	1.352531	-0.539873	0.842464
C85	C	1.293506	-0.565208	0.703611
C86	C	1.396597	-0.569772	0.729565
H87	H	1.285934	-0.595513	0.661482
H88	H	1.278076	-0.515795	0.690967
H89	H	1.246573	-0.581230	0.740783
H90	H	1.443526	-0.553742	0.692397
H91	H	1.412034	-0.619184	0.742202
O92	O	1.385806	-0.778478	0.447311
C93	C	1.408730	-0.797178	0.520678
H94	H	1.449141	-0.852959	0.522241
H95	H	1.462705	-0.753875	0.545489
C96	C	1.256637	-0.732237	0.563275
C97	C	1.306263	-0.800752	0.565194
H98	H	1.193432	-0.734439	0.590736
H99	H	1.241195	-0.719636	0.513846
H100	H	1.301627	-0.696159	0.583949
H101	H	1.261279	-0.836827	0.544512
H102	H	1.321696	-0.813359	0.614620
H103	H	1.640351	-0.269029	0.785186
O104	O	1.651036	-0.261576	0.930547
C105	C	1.710341	-0.220040	0.880164
H106	H	1.713946	-0.250199	0.825369
H107	H	1.671907	-0.164147	0.872000
C108	C	1.817745	-0.172389	0.977472
C109	C	1.822180	-0.209434	0.910175
H110	H	1.886731	-0.165843	0.995985
H111	H	1.777788	-0.200370	1.011417
H112	H	1.785712	-0.125816	0.970660
H113	H	1.854201	-0.256009	0.916989
H114	H	1.862145	-0.181460	0.876232
H115	H	1.396409	-0.923883	0.439846
O116	O	0.910324	-0.541180	0.167299
C117	C	0.801726	-0.531096	0.177401
H118	H	0.786781	-0.507071	0.234241
H119	H	0.770588	-0.491847	0.133824
C120	C	0.763709	-0.635058	0.100706
C121	C	0.745352	-0.605557	0.170521
H122	H	0.728932	-0.680988	0.096459
H123	H	0.836873	-0.641851	0.093898
H124	H	0.737760	-0.602344	0.064400
H125	H	0.771312	-0.638266	0.206825
H126	H	0.672190	-0.598771	0.177336
O127	O	1.127282	-0.167936	0.541747
C128	C	1.235881	-0.177985	0.531618
H129	H	1.250835	-0.234744	0.507405
H130	H	1.267013	-0.134274	0.492510
C131	C	1.273887	-0.101627	0.635828
C132	C	1.292255	-0.171341	0.606095
H133	H	1.308663	-0.097525	0.681768
H134	H	1.200722	-0.094854	0.642651
H135	H	1.299831	-0.065208	0.603232
H136	H	1.266300	-0.207757	0.638687
H137	H	1.365417	-0.178120	0.599279
H138	H	0.819820	-0.260551	0.448821
H139	H	0.819656	-0.448553	0.260199
O140	O	1.235026	-0.448506	0.260040
C141	C	1.271653	-0.429482	0.189548
H142	H	1.208399	-0.442005	0.147137
H143	H	1.291137	-0.368413	0.188107
C144	C	1.448482	-0.458896	0.223875
C145	C	1.370794	-0.474283	0.171784
H146	H	1.509639	-0.486528	0.212918
H147	H	1.423806	-0.471710	0.271368
H148	H	1.464705	-0.408004	0.222669
H149	H	1.354562	-0.525172	0.172997
H150	H	1.395469	-0.461478	0.124291
O151	O	1.650932	-0.778498	0.261777
C152	C	1.710281	-0.828895	0.220273
H153	H	1.713921	-0.883657	0.250431
H154	H	1.671861	-0.837133	0.164357
C155	C	1.817620	-0.731585	0.172688
C156	C	1.822099	-0.798843	0.209732
H157	H	1.886594	-0.713047	0.166183
H158	H	1.777634	-0.697631	0.200648
H159	H	1.785599	-0.738460	0.126096
H160	H	1.854107	-0.791966	0.256327
H161	H	1.862093	-0.832796	0.181780
H162	H	1.217948	-0.260502	0.448798
H163	H	1.118174	-0.533795	0.174621
