data_functionalizedCrystal
_audit_creation_method	'MofGen! by Chris Wilmer'
_symmetry_space_group_name_H-M	'P1'
_symmetry_Int_Tables_number	1
_symmetry_cell_setting	triclinic
loop_
_symmetry_equiv_pos_as_xyz
  x,y,z
_cell_length_a	14.519731
_cell_length_b	12.996460
_cell_length_c	14.519709
_cell_angle_alpha	89.985436
_cell_angle_beta	83.684499
_cell_angle_gamma	89.993310
loop_
_atom_site_label
_atom_site_type_symbol
_atom_site_fract_x
_atom_site_fract_y
_atom_site_fract_z
O1	O	-1.223857	0.085613	-0.120987
O2	O	-0.723857	0.585613	0.379013
O3	O	-0.955382	0.085612	-0.135203
O4	O	-0.455382	0.585612	0.364797
O5	O	-1.096738	0.085584	0.006143
O6	O	-0.596738	0.585584	0.506143
O7	O	-1.082501	0.085641	-0.262332
O8	O	-0.582501	0.585641	0.237668
O9	O	-1.096723	-0.085550	0.006151
O10	O	-0.596723	0.414450	0.506151
O11	O	-0.955368	-0.085522	-0.135195
O12	O	-0.455368	0.414478	0.364805
O13	O	-1.223842	-0.085521	-0.120979
O14	O	-0.723842	0.414479	0.379021
Cu15	Cu	-1.089603	-0.101147	-0.128086
Cu16	Cu	-0.589603	0.398853	0.371914
Cu17	Cu	-1.089621	0.101238	-0.128095
Cu18	Cu	-0.589621	0.601238	0.371905
O19	O	-1.082487	-0.085493	-0.262325
O20	O	-0.582487	0.414507	0.237675
C21	C	-0.921016	0.000044	-0.134532
C22	C	-0.421016	0.500044	0.365468
C23	C	-0.818635	0.000042	-0.132536
C24	C	-0.318635	0.500042	0.367464
C25	C	-0.735491	0.000045	-0.130915
C26	C	-0.235491	0.500045	0.369085
C27	C	-0.631182	0.000042	-0.128888
C28	C	-0.131182	0.500042	0.371112
C29	C	-0.548043	0.000040	-0.127280
C30	C	-0.048043	0.500040	0.372720
C31	C	-0.443728	0.000040	-0.125253
C32	C	0.056272	0.500040	0.374747
N33	N	-1.089598	-0.243494	-0.128079
N34	N	-0.589598	0.256506	0.371921
C35	C	-1.089620	-0.663309	-0.128096
C36	C	-0.589620	-0.163309	0.371904
C37	C	-1.089611	-0.546503	-0.128094
C38	C	-0.589611	-0.046503	0.371906
C39	C	-1.089609	-0.453405	-0.128088
C40	C	-0.589609	0.046595	0.371912
C41	C	-1.089600	-0.336593	-0.128085
C42	C	-0.589600	0.163407	0.371915
C43	C	-0.258209	0.000044	-0.121649
C44	C	0.241791	0.500044	0.378351
C45	C	-0.360589	0.000038	-0.123645
C46	C	0.139411	0.500038	0.376355
C47	C	-1.096067	0.000012	0.040507
C48	C	-0.596067	0.500012	0.540507
C49	C	-1.094079	-0.000004	0.142889
C50	C	-0.594079	0.499996	0.642889
N51	N	-1.089634	0.243585	-0.128095
N52	N	-0.589634	0.743585	0.371905
C53	C	-1.086759	-0.000032	0.517785
C54	C	-0.586759	0.499968	1.017785
C55	C	-1.088792	-0.000024	0.413477
C56	C	-0.588792	0.499976	0.913477
C57	C	-1.090419	-0.000019	0.330340
C58	C	-0.590419	0.499981	0.830340
C59	C	-1.092452	-0.000009	0.226025
C60	C	-0.592452	0.499991	0.726025
C61	C	-1.083157	0.000045	0.703312
C62	C	-0.583157	0.500045	1.203312
C63	C	-1.085146	-0.000042	0.600930
C64	C	-0.585146	0.499958	1.100930
