data_functionalizedCrystal
_audit_creation_method	'MofGen! by Chris Wilmer'
_symmetry_space_group_name_H-M	'P1'
_symmetry_Int_Tables_number	1
_symmetry_cell_setting	triclinic
loop_
_symmetry_equiv_pos_as_xyz
  x,y,z
_cell_length_a	10.654545
_cell_length_b	15.995292
_cell_length_c	9.730223
_cell_angle_alpha	89.998793
_cell_angle_beta	89.997167
_cell_angle_gamma	83.975848
loop_
_atom_site_label
_atom_site_type_symbol
_atom_site_fract_x
_atom_site_fract_y
_atom_site_fract_z
O1	O	1.666269	0.117587	-0.114265
O2	O	1.300640	0.128796	-0.114270
O3	O	1.493488	0.001359	-0.114270
O4	O	1.473422	0.245024	-0.114266
O5	O	1.493475	0.001355	0.114310
O6	O	1.300628	0.128792	0.114310
O7	O	1.666257	0.117584	0.114314
Zn8	Zn	1.483441	0.123188	0.150604
Zn9	Zn	1.483457	0.123192	-0.150560
O10	O	1.473410	0.245021	0.114314
C11	C	1.253847	0.127972	0.000019
C12	C	1.114436	0.125512	0.000017
C13	C	1.048941	0.124352	0.124616
C14	C	0.917952	0.122027	0.124616
C15	C	0.917966	0.122025	-0.124594
C16	C	1.048954	0.124344	-0.124593
C17	C	1.492665	-0.029843	0.000017
C18	C	1.490216	-0.122810	0.000006
C19	C	1.481216	-0.460601	0.000019
C20	C	1.620408	-0.436482	0.000531
C21	C	1.623053	-0.339791	0.000011
C22	C	1.485682	-0.293019	0.000013
C23	C	1.416100	-0.322522	-0.130514
C24	C	1.414424	-0.419322	-0.130618
C25	C	1.411567	-0.419199	0.129320
C26	C	1.416725	-0.322677	0.131040
C27	C	1.488199	-0.198308	0.000006
C28	C	1.478695	-0.555311	0.000017
C29	C	1.713050	0.118408	0.000022
C30	C	1.852461	0.120868	0.000015
C31	C	1.474233	0.276223	0.000025
C32	C	1.476681	0.369190	0.000026
N33	N	1.483439	0.123184	0.356140
N34	N	1.483469	0.123189	-0.356096
C35	C	1.568860	0.066779	0.428067
C36	C	1.568873	0.066779	0.571950
C37	C	1.398038	0.179597	0.571968
C38	C	1.398020	0.179592	0.428087
H39	H	1.102282	0.125287	-0.226063
H40	H	1.102253	0.125303	0.226081
H41	H	1.328454	0.225524	0.369521
Cl42	Cl	1.707159	-0.309926	0.144489
Cl43	Cl	1.290665	0.250510	0.662421
Cl44	Cl	1.703241	-0.479228	0.145054
Cl45	Cl	1.260031	-0.274222	-0.138017
H46	H	1.673766	-0.465189	-0.092549
H47	H	1.638429	0.020848	0.630508
Cl48	Cl	0.835620	0.120570	0.281264
Cl49	Cl	1.707696	-0.310876	-0.144704
Cl50	Cl	1.488851	-0.460295	-0.281256
Cl51	Cl	1.256863	-0.442704	-0.139773
Cl52	Cl	0.835640	0.120537	-0.281237
Cl53	Cl	1.676238	-0.004138	0.337625
H54	H	1.464429	-0.302179	-0.227652
H55	H	1.455397	-0.447035	0.228259
H56	H	1.316458	-0.290289	0.138925
Cl57	Cl	1.494938	-0.293554	0.280131
H58	H	1.309111	-0.433784	0.130201
