data_functionalizedCrystal
_audit_creation_method	'MofGen! by Chris Wilmer'
_symmetry_space_group_name_H-M	'P1'
_symmetry_Int_Tables_number	1
_symmetry_cell_setting	triclinic
loop_
_symmetry_equiv_pos_as_xyz
  x,y,z
_cell_length_a	12.594517
_cell_length_b	12.594516
_cell_length_c	12.594509
_cell_angle_alpha	90.026199
_cell_angle_beta	89.992249
_cell_angle_gamma	89.990306
loop_
_atom_site_label
_atom_site_type_symbol
_atom_site_fract_x
_atom_site_fract_y
_atom_site_fract_z
Zn1	Zn	-1.627267	-0.423891	0.601489
Zn2	Zn	-1.627158	-0.601901	0.423517
Zn3	Zn	-1.449271	-0.423917	0.423560
Zn4	Zn	-1.449253	-0.601808	0.601489
O5	O	-1.538237	-0.512879	0.512514
O6	O	-1.776198	-0.447532	0.577863
O7	O	-1.603522	-0.578341	0.274577
O8	O	-1.472935	-0.274968	0.447181
O9	O	-1.776118	-0.578316	0.447108
O10	O	-1.603708	-0.274949	0.577905
O11	O	-1.472830	-0.447577	0.274609
O12	O	-1.300323	-0.447487	0.447181
O13	O	-1.472905	-0.578157	0.750435
O14	O	-1.300310	-0.578182	0.577905
O15	O	-1.603691	-0.447442	0.750435
O16	O	-1.603505	-0.750834	0.447108
O17	O	-1.472799	-0.750766	0.577863
C18	C	-1.261696	-0.512828	0.512548
C19	C	-1.143391	-0.512832	0.512588
C20	C	-1.074161	-0.584054	0.583556
C21	C	-1.003353	-0.487005	0.609735
C22	C	-1.003400	-0.609953	0.486399
C23	C	-1.074140	-0.415732	0.538818
C24	C	-1.074194	-0.538744	0.415437
C25	C	-1.003417	-0.441629	0.441579
C26	C	-1.538167	-0.789420	0.512504
C27	C	-1.538235	-0.907726	0.512535
C28	C	-1.538308	-0.512786	0.790135
C29	C	-1.538339	-0.512746	0.908441
C30	C	-0.815858	-0.512921	0.512497
C31	C	-0.934163	-0.512914	0.512531
C32	C	-1.467137	-0.976980	0.583603
C33	C	-1.441204	-1.047843	0.486486
C34	C	-1.564265	-1.047662	0.609668
C35	C	-1.512250	-0.977030	0.415366
C36	C	-1.635357	-0.976843	0.538615
C37	C	-1.609460	-1.047674	0.441431
C38	C	-1.538336	-0.235258	0.512548
C39	C	-1.538378	-0.116953	0.512562
C40	C	-1.538227	-0.512895	0.235973
C41	C	-1.538403	-0.512635	0.117668
C42	C	-1.467227	-0.583802	0.977694
C43	C	-1.564347	-0.609819	1.048462
C44	C	-1.441294	-0.486665	1.048471
C45	C	-1.635510	-0.538814	0.977651
C46	C	-1.512391	-0.415616	0.977654
C47	C	-1.609579	-0.441596	1.048390
H48	H	-1.105084	-0.333608	0.561038
O49	O	-1.343364	-1.085106	0.459997
C50	C	-1.350816	-1.146733	0.366809
H51	H	-1.424710	-1.122532	0.320489
H52	H	-1.277359	-1.133170	0.315688
H53	H	-1.356404	-1.234328	0.388894
H54	H	-0.972551	-0.381365	0.381540
H55	H	-1.586329	-0.691913	1.079565
H56	H	-1.359198	-0.464652	1.079580
O57	O	-1.733289	-0.939783	0.565019
C58	C	-1.801850	-1.026099	0.584464
H59	H	-1.753000	-1.099054	0.606454
H60	H	-1.857713	-1.005475	0.652653
H61	H	-1.850277	-1.043566	0.510010
H62	H	-1.406904	-0.945939	0.643615
H63	H	-1.717630	-0.560921	0.946673
H64	H	-0.972321	-0.692051	0.464275
O65	O	-1.590656	-1.084625	0.707620
C66	C	-1.692263	-1.046875	0.735664
H67	H	-1.738399	-1.025916	0.660678
H68	H	-1.736707	-1.111041	0.781463
H69	H	-1.683847	-0.973146	0.787529
O70	O	-1.111303	-0.565071	0.317511
C71	C	-1.073672	-0.666705	0.289383
H72	H	-1.052648	-0.712867	0.364327
H73	H	-1.137935	-0.711092	0.243631
H74	H	-1.000006	-0.658341	0.237445
O75	O	-1.485787	-0.940307	0.317345
C76	C	-1.383760	-0.977341	0.289879
H77	H	-1.364998	-1.052072	0.337347
H78	H	-1.381358	-0.996422	0.201420
H79	H	-1.322424	-0.913479	0.308658
O80	O	-1.681142	-1.084432	0.369525
C81	C	-1.653395	-1.048226	0.267305
H82	H	-1.565075	-1.028541	0.265218
H83	H	-1.671337	-1.112836	0.206480
H84	H	-1.701333	-0.974028	0.247561
H85	H	-1.105226	-0.644171	0.643642
O86	O	-1.395659	-0.655738	0.940702
C87	C	-1.423440	-0.757978	0.976808
H88	H	-1.511733	-0.759993	0.996646
H89	H	-1.405643	-0.818729	0.912078
H90	H	-1.375410	-0.777886	1.050892
H91	H	-1.490381	-0.333545	0.946528
O92	O	-0.966266	-0.461069	0.707780
C93	C	-1.002321	-0.536299	0.782398
H94	H	-1.022215	-0.613739	0.739943
H95	H	-0.937540	-0.551327	0.843791
H96	H	-1.076361	-0.504664	0.823796
O97	O	-1.681577	-0.369973	1.085150
C98	C	-1.783751	-0.397792	1.048845
H99	H	-1.785736	-0.486110	1.029089
H100	H	-1.844623	-0.379905	1.113423
H101	H	-1.803514	-0.349856	0.974670
