data_functionalizedCrystal
_audit_creation_method	'MofGen! by Chris Wilmer'
_symmetry_space_group_name_H-M	'P1'
_symmetry_Int_Tables_number	1
_symmetry_cell_setting	triclinic
loop_
_symmetry_equiv_pos_as_xyz
  x,y,z
_cell_length_a	15.944551
_cell_length_b	10.540539
_cell_length_c	15.021413
_cell_angle_alpha	89.991963
_cell_angle_beta	89.990377
_cell_angle_gamma	95.987885
loop_
_atom_site_label
_atom_site_type_symbol
_atom_site_fract_x
_atom_site_fract_y
_atom_site_fract_z
O1	O	1.115488	-0.163724	0.073935
O2	O	0.871058	-0.183908	0.073957
O3	O	0.998849	0.010966	0.073944
O4	O	0.987696	-0.358598	0.073947
O5	O	0.998863	0.010996	-0.074120
O6	O	0.871072	-0.183878	-0.074108
O7	O	1.115502	-0.163694	-0.074129
Zn8	Zn	0.993289	-0.173781	-0.097627
Zn9	Zn	0.993271	-0.173821	0.097454
O10	O	0.987710	-0.358568	-0.074117
C11	C	0.839766	-0.183055	-0.000073
C12	C	0.746505	-0.180543	-0.000064
C13	C	0.998020	0.058273	-0.000086
C14	C	0.995518	0.199187	-0.000081
N15	N	0.993308	-0.173753	-0.230764
C16	C	0.530893	-0.053746	-0.000083
C17	C	0.470217	-0.112641	0.072921
C18	C	0.575752	-0.175998	-0.000075
C19	C	0.470253	-0.112641	-0.073058
C20	C	0.410813	-0.171600	-0.000089
C21	C	0.516305	-0.234927	0.072989
C22	C	0.516347	-0.234909	-0.073056
C23	C	0.455689	-0.293893	-0.000034
C24	C	0.670770	-0.178529	-0.000066
C25	C	0.315797	-0.169079	-0.000092
C26	C	1.146794	-0.164547	-0.000098
C27	C	1.240055	-0.167059	-0.000101
C28	C	0.988540	-0.405875	-0.000084
C29	C	0.991042	-0.546789	-0.000084
C30	C	0.899630	0.381308	0.000260
C31	C	0.902167	0.234725	-0.000074
C32	C	1.040450	0.261473	-0.084637
C33	C	1.037264	0.407975	-0.084708
C34	C	1.039147	0.408485	0.083668
C35	C	1.040007	0.261514	0.084786
N36	N	0.993259	-0.173838	0.230592
C37	C	0.934058	-0.263748	0.529612
C38	C	1.010047	-0.288636	0.470247
C39	C	0.993293	-0.173783	0.587629
C40	C	0.917290	-0.148982	0.470253
C41	C	0.993272	-0.173813	0.412205
C42	C	1.069321	-0.198727	0.529569
C43	C	0.976513	-0.059023	0.529580
C44	C	1.052557	-0.083862	0.470241
C45	C	0.993304	-0.173768	0.688686
C46	C	0.993270	-0.173827	0.311149
H47	H	0.449792	-0.060946	0.134640
C48	C	0.854718	0.178155	-0.080949
C49	C	0.856865	0.045703	-0.081445
C50	C	0.813154	-0.006452	-0.155931
H51	H	0.880506	0.213620	-0.133610
H52	H	0.797811	0.197142	-0.078470
H53	H	0.913761	0.026726	-0.083932
H54	H	0.831072	0.010203	-0.028801
H55	H	0.756247	0.012535	-0.153452
H56	H	0.838946	0.029022	-0.208586
H57	H	0.814599	-0.096327	-0.156273
C58	C	0.412162	-0.429243	0.000155
C59	C	0.361235	-0.447603	0.075962
C60	C	0.321116	-0.572262	0.076166
H61	H	0.453381	-0.488124	0.000717
H62	H	0.378259	-0.442463	-0.051690
H63	H	0.395136	-0.434396	0.127794
H64	H	0.320002	-0.388752	0.075416
H65	H	0.287212	-0.585482	0.024320
H66	H	0.362340	-0.631132	0.076725
H67	H	0.286551	-0.584732	0.127595
H68	H	0.536792	-0.286562	-0.134778
C69	C	0.957681	0.070477	0.564247
C70	C	1.018973	0.164655	0.532843
C71	C	1.001636	0.283966	0.564752
H72	H	0.958364	0.069948	0.627477
H73	H	0.903661	0.088066	0.543949
H74	H	1.072979	0.147072	0.553145
H75	H	1.018301	0.165226	0.469616
H76	H	0.947616	0.301555	0.544454
H77	H	1.002318	0.283424	0.627982
H78	H	1.043215	0.347882	0.543443
H79	H	0.862910	0.411028	-0.060031
C80	C	0.543456	-0.303974	0.155273
C81	C	0.583874	-0.409750	0.129320
C82	C	0.608908	-0.473371	0.205094
H83	H	0.495299	-0.331669	0.190147
H84	H	0.581194	-0.247681	0.189399
H85	H	0.546138	-0.466033	0.095209
H86	H	0.632040	-0.382091	0.094456
H87	H	0.646646	-0.417078	0.239220
H88	H	0.560747	-0.501057	0.239963
H89	H	0.636341	-0.545140	0.187496
H90	H	1.102696	-0.007790	0.444338
H91	H	1.106574	0.456628	0.084231
C92	C	0.867460	-0.365429	0.564333
C93	C	0.885423	-0.485393	0.534286
C94	C	0.824103	-0.579094	0.566264
H95	H	0.813548	-0.348777	0.543174
H96	H	0.867602	-0.364280	0.627575
H97	H	0.885273	-0.486539	0.471058
H98	H	0.939324	-0.502086	0.555443
H99	H	0.824245	-0.577945	0.629506
H100	H	0.770196	-0.562429	0.545103
H101	H	0.836287	-0.660501	0.545889
C102	C	1.028995	-0.417944	0.435308
C103	C	1.029501	-0.415856	0.342112
C104	C	1.046954	-0.534949	0.309898
H105	H	0.986903	-0.481870	0.455536
H106	H	1.082595	-0.436211	0.456438
H107	H	0.975908	-0.397605	0.320991
H108	H	1.071593	-0.351955	0.321860
H109	H	1.100554	-0.553215	0.331027
H110	H	1.004860	-0.598865	0.330132
H111	H	1.047308	-0.533544	0.246662
C112	C	0.443032	-0.043445	-0.155246
C113	C	0.401979	0.061635	-0.129137
C114	C	0.376904	0.125426	-0.204818
H115	H	0.405666	-0.099846	-0.189686
H116	H	0.491243	-0.015030	-0.189851
H117	H	0.353774	0.033218	-0.094547
H118	H	0.439329	0.118064	-0.094708
H119	H	0.425116	0.153841	-0.239422
H120	H	0.339541	0.069015	-0.239252
H121	H	0.349054	0.196736	-0.187114
H122	H	0.853024	-0.127995	0.444194
H123	H	0.866812	0.191628	0.060539
H124	H	0.862749	0.409394	0.060896
H125	H	0.563621	0.047713	0.000007
H126	H	1.004069	0.435735	-0.147910
C127	C	1.126839	0.472927	-0.089892
C128	C	1.183586	0.380211	-0.092944
C129	C	1.266106	0.439990	-0.097737
H130	H	1.138224	0.525238	-0.038930
H131	H	1.132940	0.524049	-0.142051
H132	H	1.177488	0.329111	-0.040791
H133	H	1.172228	0.327895	-0.143904
H134	H	1.272207	0.491112	-0.149896
H135	H	1.277482	0.492299	-0.046773
H136	H	1.304618	0.377091	-0.099817
H137	H	1.109004	0.240054	-0.087787
H138	H	1.009249	0.218462	-0.147555
H139	H	1.133602	-0.219831	0.555516
H140	H	1.007130	0.220196	0.147338
C141	C	1.130752	0.230375	0.091410
C142	C	1.148987	0.154087	0.019086
C143	C	1.232580	0.125395	0.025143
H144	H	1.138225	0.185813	0.145323
H145	H	1.167618	0.307234	0.090649
H146	H	1.112132	0.077241	0.019855
H147	H	1.141533	0.198625	-0.034837
H148	H	1.269446	0.202253	0.024383
H149	H	1.240046	0.080836	0.079059
H150	H	1.244966	0.073640	-0.023930
H151	H	1.008928	0.439613	0.147756
