data_functionalizedCrystal
_audit_creation_method	'MofGen! by Chris Wilmer'
_symmetry_space_group_name_H-M	'P1'
_symmetry_Int_Tables_number	1
_symmetry_cell_setting	triclinic
loop_
_symmetry_equiv_pos_as_xyz
  x,y,z
_cell_length_a	19.805407
_cell_length_b	18.050589
_cell_length_c	19.805399
_cell_angle_alpha	90.022294
_cell_angle_beta	90.019573
_cell_angle_gamma	90.028221
loop_
_atom_site_label
_atom_site_type_symbol
_atom_site_fract_x
_atom_site_fract_y
_atom_site_fract_z
Zn1	Zn	1.034727	-0.295677	0.382745
Zn2	Zn	1.534727	0.204323	0.882745
Zn3	Zn	1.034638	-0.419869	0.269567
Zn4	Zn	1.534638	0.080131	0.769567
Zn5	Zn	0.921542	-0.295697	0.269569
Zn6	Zn	1.421542	0.204303	0.769569
Zn7	Zn	0.921502	-0.419829	0.382713
Zn8	Zn	1.421502	0.080171	0.882713
O9	O	0.978102	-0.357768	0.326148
O10	O	1.478102	0.142232	0.826148
O11	O	1.129432	-0.312159	0.367743
O12	O	1.629432	0.187841	0.867743
O13	O	1.019616	-0.403422	0.174850
O14	O	1.519616	0.096578	0.674850
O15	O	0.936610	-0.191770	0.284596
O16	O	1.436610	0.308230	0.784596
O17	O	1.129367	-0.403402	0.284592
O18	O	1.629367	0.096598	0.784592
O19	O	1.019767	-0.191755	0.367746
O20	O	1.519767	0.308245	0.867746
O21	O	0.936524	-0.312194	0.174852
O22	O	1.436524	0.187806	0.674852
O23	O	0.826820	-0.312156	0.284566
O24	O	1.326820	0.187844	0.784566
O25	O	0.936542	-0.403335	0.477434
O26	O	1.436542	0.096665	0.977434
O27	O	0.826791	-0.403355	0.367693
O28	O	1.326791	0.096645	0.867693
O29	O	1.019728	-0.312121	0.477457
O30	O	1.519728	0.187879	0.977457
O31	O	1.019577	-0.523788	0.284562
O32	O	1.519577	-0.023788	0.784562
O33	O	0.936456	-0.523759	0.367690
O34	O	1.436456	-0.023759	0.867690
C35	C	0.802246	-0.357754	0.326127
C36	C	1.302246	0.142246	0.826127
C37	C	0.727014	-0.357766	0.326133
C38	C	1.227014	0.142234	0.826133
C39	C	0.978021	-0.550720	0.326137
C40	C	1.478021	-0.050720	0.826137
C41	C	0.978048	-0.633266	0.326155
C42	C	1.478048	-0.133266	0.826155
C43	C	0.691673	-0.405325	0.369347
C44	C	1.191673	0.094675	0.869347
C45	C	0.620984	-0.405326	0.369357
C46	C	1.120984	0.094674	0.869357
C47	C	0.585639	-0.357771	0.326148
C48	C	1.085639	0.142229	0.826148
C49	C	0.620985	-0.310207	0.282933
C50	C	1.120985	0.189793	0.782933
C51	C	0.691673	-0.310203	0.282927
C52	C	1.191673	0.189797	0.782927
C53	C	0.335912	-0.310224	0.282955
C54	C	0.835912	0.189776	0.782955
C55	C	0.265220	-0.310233	0.282962
C56	C	0.765220	0.189767	0.782962
C57	C	0.265224	-0.405347	0.369385
C58	C	0.765224	0.094653	0.869385
C59	C	0.335911	-0.405342	0.369379
C60	C	0.835911	0.094658	0.869379
C61	C	0.371251	-0.357776	0.326166
C62	C	0.871251	0.142224	0.826166
C63	C	0.447900	-0.357774	0.326157
C64	C	0.947900	0.142226	0.826157
C65	C	0.508992	-0.357776	0.326153
C66	C	1.008992	0.142224	0.826153
C67	C	0.932891	-0.832728	0.371344
C68	C	1.432891	-0.332728	0.871344
C69	C	0.916392	-0.882167	0.309581
C70	C	1.416392	-0.382167	0.809581
C71	C	0.978114	-0.784396	0.326164
C72	C	1.478114	-0.284396	0.826164
C73	C	0.994646	-0.882039	0.387934
C74	C	1.494646	-0.382039	0.887934
C75	C	0.978177	-0.930381	0.326178
C76	C	1.478177	-0.430381	0.826178
C77	C	0.961583	-0.832748	0.264368
C78	C	1.461583	-0.332748	0.764368
C79	C	1.039865	-0.832616	0.342762
C80	C	1.539865	-0.332616	0.842762
C81	C	1.023390	-0.882033	0.280957
C82	C	1.523390	-0.382033	0.780957
C83	C	0.978076	-0.700298	0.326157
C84	C	1.478076	-0.200298	0.826157
C85	C	0.978215	-1.014478	0.326178
C86	C	1.478215	-0.514478	0.826178
C87	C	1.154645	-0.357783	0.326171
C88	C	1.654645	0.142217	0.826171
C89	C	1.229877	-0.357789	0.326180
C90	C	1.729877	0.142211	0.826180
C91	C	0.978140	-0.357721	0.502691
C92	C	1.478140	0.142279	1.002691
C93	C	0.978156	-0.357701	0.577923
C94	C	1.478156	0.142299	1.077923
C95	C	0.978203	-0.164062	0.326175
C96	C	1.478203	0.335938	0.826175
C97	C	0.978246	-0.081517	0.326186
C98	C	1.478246	0.418483	0.826186
C99	C	0.978103	-0.357761	0.150292
C100	C	1.478103	0.142239	0.650292
C101	C	0.978218	-0.357572	0.075061
C102	C	1.478218	0.142428	0.575061
C103	C	1.021472	-0.310204	0.613280
C104	C	1.521472	0.189796	1.113280
C105	C	1.021479	-0.310182	0.683969
C106	C	1.521479	0.189818	1.183969
C107	C	0.978173	-0.357662	0.719299
C108	C	1.478173	0.142338	1.219299
C109	C	0.934852	-0.405162	0.683937
C110	C	1.434852	0.094838	1.183937
C111	C	0.934843	-0.405180	0.613250
C112	C	1.434843	0.094820	1.113250
C113	C	0.934891	-0.405093	0.969010
C114	C	1.434891	0.094907	1.469010
C115	C	0.934905	-0.405074	1.039702
C116	C	1.434905	0.094926	1.539702
C117	C	1.021527	-0.310096	1.039729
C118	C	1.521527	0.189904	1.539729
C119	C	1.021518	-0.310113	0.969042
C120	C	1.521518	0.189887	1.469042
C121	C	0.978195	-0.357609	0.933686
C122	C	1.478195	0.142391	1.433686
C123	C	0.978187	-0.357631	0.857038
C124	C	1.478187	0.142369	1.357038
C125	C	0.978184	-0.357645	0.795946
C126	C	1.478184	0.142355	1.295946
H127	H	0.720446	-0.444052	0.404530
H128	H	1.220446	0.055948	0.904530
O129	O	0.586758	-0.451604	0.411348
O130	O	1.086758	0.048396	0.911348
C131	C	0.633112	-0.493569	0.449489
C132	C	1.133112	0.006431	0.949489
H133	H	0.683489	-0.496087	0.421758
H134	H	1.183489	0.003913	0.921758
H135	H	0.612671	-0.552097	0.456607
H136	H	1.112671	-0.052097	0.956607
H137	H	0.640660	-0.466460	0.500942
H138	H	1.140660	0.033540	1.000942
O139	O	0.892721	-0.451310	0.718150
O140	O	1.392721	0.048690	1.218150
C141	C	0.854499	-0.493249	0.671782
C142	C	1.354499	0.006751	1.171782
H143	H	0.852162	-0.462841	0.621399
H144	H	1.352162	0.037159	1.121399
H145	H	0.801170	-0.501164	0.692195
H146	H	1.301170	-0.001164	1.192195
H147	H	0.879255	-0.549656	0.664258
H148	H	1.379255	-0.049656	1.164258
O149	O	0.725901	-0.263984	0.240881
O150	O	1.225901	0.236016	0.740881
C151	C	0.679549	-0.222001	0.202755
C152	C	1.179549	0.277999	0.702755
H153	H	0.629147	-0.252419	0.200370
H154	H	1.129147	0.247581	0.700370
H155	H	0.699953	-0.214004	0.149436
H156	H	1.199953	0.285996	0.649436
H157	H	0.672065	-0.165633	0.227627
H158	H	1.172065	0.334367	0.727627
H159	H	1.092045	-0.810837	0.356819
H160	H	1.592045	-0.310837	0.856819
O161	O	1.011340	-0.907746	0.450278
O162	O	1.511340	-0.407746	0.950278
C163	C	1.022374	-0.847411	0.494155
C164	C	1.522374	-0.347411	0.994155
H165	H	1.035802	-0.796139	0.463360
H166	H	1.535802	-0.296139	0.963360
H167	H	1.065661	-0.861027	0.530011
H168	H	1.565661	-0.361027	1.030011
H169	H	0.974585	-0.836279	0.524575
H170	H	1.474585	-0.336279	1.024575
O171	O	0.892864	-0.451357	0.578823
O172	O	1.392864	0.048643	1.078823
C173	C	0.931374	-0.499345	0.537948
C174	C	1.431374	0.000655	1.037948
H175	H	0.982680	-0.473157	0.527378
H176	H	1.482680	0.026843	1.027378
H177	H	0.903796	-0.509304	0.488230
H178	H	1.403796	-0.009304	0.988230
H179	H	0.938784	-0.554377	0.565180
H180	H	1.438784	-0.054377	1.065180
H181	H	0.864201	-0.903948	0.295555
H182	H	1.364201	-0.403948	0.795555
O183	O	0.944839	-0.806907	0.202084
O184	O	1.444839	-0.306907	0.702084
C185	C	0.944996	-0.728800	0.202832
C186	C	1.444996	-0.228800	0.702832
H187	H	0.937428	-0.708335	0.256760
H188	H	1.437428	-0.208335	0.756760
H189	H	0.902310	-0.707296	0.169567
H190	H	1.402310	-0.207296	0.669567
H191	H	0.995376	-0.707612	0.182774
H192	H	1.495376	-0.207612	0.682774
H193	H	1.061661	-0.903545	0.242711
H194	H	1.561661	-0.403545	0.742711
O195	O	1.063563	-0.264010	0.579068
O196	O	1.563563	0.235990	1.079068
C197	C	1.101807	-0.222096	0.625437
C198	C	1.601807	0.277904	1.125437
H199	H	1.074091	-0.219511	0.675820
H200	H	1.574091	0.280489	1.175820
H201	H	1.109054	-0.163588	0.605025
H202	H	1.609054	0.336412	1.105025
H203	H	1.153199	-0.249293	0.632962
H204	H	1.653199	0.250707	1.132962
O205	O	0.370140	-0.451560	0.411416
O206	O	0.870140	0.048440	0.911416
C207	C	0.323787	-0.493551	0.449550
C208	C	0.823787	0.006449	0.949550
H209	H	0.273411	-0.463141	0.451944
H210	H	0.773411	0.036859	0.951944
H211	H	0.344231	-0.501546	0.502864
H212	H	0.844231	-0.001546	1.002864
H213	H	0.316238	-0.549920	0.424679
H214	H	0.816238	-0.049920	0.924679
O215	O	1.063458	-0.263957	0.718340
O216	O	1.563458	0.236043	1.218340
C217	C	1.024951	-0.215984	0.759232
C218	C	1.524951	0.284016	1.259232
H219	H	0.971641	-0.211408	0.737920
H220	H	1.471641	0.288592	1.237920
H221	H	1.049456	-0.158831	0.760037
H222	H	1.549456	0.341169	1.260037
H223	H	1.022618	-0.238921	0.812805
H224	H	1.522618	0.261079	1.312805
H225	H	0.592202	-0.271484	0.247754
H226	H	1.092202	0.228516	0.747754
O227	O	0.230788	-0.451479	0.411347
O228	O	0.730788	0.048521	0.911347
C229	C	0.160818	-0.441301	0.402081
C230	C	0.660818	0.058699	0.902081
H231	H	0.151175	-0.383956	0.380006
H232	H	0.651175	0.116044	0.880006
H233	H	0.133976	-0.446416	0.452776
H234	H	0.633976	0.053584	0.952776
H235	H	0.140724	-0.485299	0.365969
H236	H	0.640724	0.014701	0.865969
H237	H	1.056784	-0.271452	0.940280
H238	H	1.556784	0.228548	1.440280
O239	O	1.063543	-0.263972	1.074180
O240	O	1.563543	0.236028	1.574180
C241	C	1.054279	-0.274145	1.144146
C242	C	1.554279	0.225855	1.644146
H243	H	1.002032	-0.298458	1.153789
H244	H	1.502032	0.201542	1.653789
H245	H	1.058904	-0.218509	1.171017
H246	H	1.558904	0.281491	1.671017
H247	H	1.094408	-0.313691	1.164211
H248	H	1.594408	0.186309	1.664211
H249	H	0.894591	-0.811078	0.409498
H250	H	1.394591	-0.311078	0.909498
H251	H	0.899637	-0.443740	1.068466
H252	H	1.399637	0.056260	1.568466
O253	O	0.892873	-0.451334	0.934709
O254	O	1.392873	0.048666	1.434709
C255	C	0.907608	-0.525350	0.951986
C256	C	1.407608	-0.025350	1.451986
H257	H	0.961686	-0.529112	0.971412
H258	H	1.461686	-0.029112	1.471412
H259	H	0.901730	-0.562053	0.905496
H260	H	1.401730	-0.062053	1.405496
H261	H	0.871324	-0.544737	0.993019
H262	H	1.371324	-0.044737	1.493019
O263	O	0.230963	-0.264068	0.240893
O264	O	0.730963	0.235932	0.740893
C265	C	0.248193	-0.280208	0.173407
C266	C	0.748193	0.219792	0.673407
H267	H	0.299506	-0.308750	0.171957
H268	H	0.799506	0.191250	0.671957
H269	H	0.250621	-0.226564	0.143143
H270	H	0.750621	0.273436	0.643143
H271	H	0.208387	-0.318359	0.150549
H272	H	0.708387	0.181641	0.650549
O273	O	0.370307	-0.264126	0.240940
O274	O	0.870307	0.235874	0.740940
C275	C	0.411148	-0.306338	0.197141
C276	C	0.911148	0.193662	0.697141
H277	H	0.421735	-0.362650	0.220925
H278	H	0.921735	0.137350	0.720925
H279	H	0.460859	-0.276065	0.188108
H280	H	0.960859	0.223935	0.688108
H281	H	0.383878	-0.314433	0.146974
H282	H	0.883878	0.185567	0.646974
