data_functionalizedCrystal
_audit_creation_method	'MofGen! by Chris Wilmer'
_symmetry_space_group_name_H-M	'P1'
_symmetry_Int_Tables_number	1
_symmetry_cell_setting	triclinic
loop_
_symmetry_equiv_pos_as_xyz
  x,y,z
_cell_length_a	15.995292
_cell_length_b	19.188930
_cell_length_c	14.472310
_cell_angle_alpha	89.993787
_cell_angle_beta	89.985801
_cell_angle_gamma	83.306699
loop_
_atom_site_label
_atom_site_type_symbol
_atom_site_fract_x
_atom_site_fract_y
_atom_site_fract_z
O1	O	1.110698	0.089798	-0.076877
O2	O	1.360698	0.339798	0.173123
O3	O	1.610698	0.589798	0.423123
O4	O	1.860698	0.839798	0.673123
O5	O	0.866875	0.100954	-0.076874
O6	O	1.116875	0.350954	0.173126
O7	O	1.366875	0.600954	0.423126
O8	O	1.616875	0.850954	0.673126
O9	O	0.995823	-0.006263	-0.076857
O10	O	1.245823	0.243737	0.173143
O11	O	1.495823	0.493737	0.423143
O12	O	1.745823	0.743737	0.673143
O13	O	0.981750	0.197015	-0.076893
O14	O	1.231750	0.447015	0.173107
O15	O	1.481750	0.697015	0.423107
O16	O	1.731750	0.947015	0.673107
O17	O	0.995790	-0.006257	0.076825
O18	O	1.245790	0.243743	0.326825
O19	O	1.495790	0.493743	0.576825
O20	O	1.745790	0.743743	0.826825
O21	O	0.866842	0.100960	0.076808
O22	O	1.116842	0.350960	0.326808
O23	O	1.366842	0.600960	0.576808
O24	O	1.616842	0.850960	0.826808
O25	O	1.110665	0.089804	0.076805
O26	O	1.360665	0.339804	0.326805
O27	O	1.610665	0.589804	0.576805
O28	O	1.860665	0.839804	0.826805
Cu29	Cu	0.988750	0.095383	0.090839
Cu30	Cu	1.238750	0.345383	0.340839
Cu31	Cu	1.488750	0.595383	0.590839
Cu32	Cu	1.738750	0.845383	0.840839
Cu33	Cu	0.988790	0.095375	-0.090908
Cu34	Cu	1.238790	0.345375	0.159092
Cu35	Cu	1.488790	0.595375	0.409092
Cu36	Cu	1.738790	0.845375	0.659092
O37	O	0.981717	0.197021	0.076789
O38	O	1.231717	0.447021	0.326789
O39	O	1.481717	0.697021	0.576789
O40	O	1.731717	0.947021	0.826789
C41	C	0.835665	0.100503	-0.000033
C42	C	1.085665	0.350503	0.249967
C43	C	1.335665	0.600503	0.499967
C44	C	1.585665	0.850503	0.749967
C45	C	0.742717	0.099142	-0.000031
C46	C	0.992717	0.349142	0.249969
C47	C	1.242717	0.599142	0.499969
C48	C	1.492717	0.849142	0.749969
C49	C	0.404997	0.094138	-0.000041
C50	C	0.654997	0.344138	0.249959
C51	C	0.904997	0.594138	0.499959
C52	C	1.154997	0.844138	0.749959
C53	C	0.428026	0.171524	-0.000397
C54	C	0.678026	0.421524	0.249603
C55	C	0.928026	0.671524	0.499603
C56	C	1.178026	0.921524	0.749603
C57	C	0.524696	0.172995	-0.000047
C58	C	0.774696	0.422995	0.249953
C59	C	1.024696	0.672995	0.499953
C60	C	1.274696	0.922995	0.749953
C61	C	0.572543	0.096621	-0.000036
C62	C	0.822543	0.346621	0.249964
C63	C	1.072543	0.596621	0.499964
C64	C	1.322543	0.846621	0.749964
C65	C	0.543564	0.057935	0.087727
C66	C	0.793564	0.307935	0.337727
C67	C	1.043564	0.557935	0.587727
C68	C	1.293564	0.807935	0.837727
C69	C	0.446777	0.057003	0.087797
C70	C	0.696777	0.307003	0.337797
C71	C	0.946777	0.557003	0.587797
C72	C	1.196777	0.807003	0.837797
C73	C	0.446965	0.055416	-0.086968
C74	C	0.696965	0.305416	0.163032
C75	C	0.946965	0.555416	0.413032
C76	C	1.196965	0.805416	0.663032
C77	C	0.543448	0.058284	-0.088124
C78	C	0.793448	0.308284	0.161876
C79	C	1.043448	0.558284	0.411876
C80	C	1.293448	0.808284	0.661876
C81	C	0.667234	0.098020	-0.000031
C82	C	0.917234	0.348020	0.249969
C83	C	1.167234	0.598020	0.499969
C84	C	1.417234	0.848020	0.749969
C85	C	0.310306	0.092736	-0.000040
C86	C	0.560306	0.342736	0.249960
C87	C	0.810306	0.592736	0.499960
C88	C	1.060306	0.842736	0.749960
C89	C	0.995351	-0.032272	-0.000014
C90	C	1.245351	0.217728	0.249986
C91	C	1.495351	0.467728	0.499986
C92	C	1.745351	0.717728	0.749986
C93	C	0.993983	-0.109780	-0.000006
C94	C	1.243983	0.140220	0.249994
C95	C	1.493983	0.390220	0.499994
C96	C	1.743983	0.640220	0.749994
C97	C	1.069645	-0.154524	-0.000002
C98	C	1.319645	0.095476	0.249998
C99	C	1.569645	0.345476	0.499998
C100	C	1.819645	0.595476	0.749998
C101	C	1.068360	-0.227351	-0.000017
C102	C	1.318360	0.022649	0.249983
C103	C	1.568360	0.272649	0.499983
C104	C	1.818360	0.522649	0.749983
C105	C	0.991408	-0.255430	-0.000017
C106	C	1.241408	-0.005430	0.249983
C107	C	1.491408	0.244570	0.499983
C108	C	1.741408	0.494570	0.749983
C109	C	0.915736	-0.210676	-0.000026
C110	C	1.165736	0.039324	0.249974
C111	C	1.415736	0.289324	0.499974
C112	C	1.665736	0.539324	0.749974
C113	C	0.917023	-0.137851	-0.000020
C114	C	1.167023	0.112149	0.249980
C115	C	1.417023	0.362149	0.499980
C116	C	1.667023	0.612149	0.749980
N117	N	0.932576	-0.363573	0.052285
N118	N	1.182576	-0.113573	0.302285
N119	N	1.432576	0.136427	0.552285
N120	N	1.682576	0.386427	0.802285
N121	N	0.931358	-0.432754	0.052281
N122	N	1.181358	-0.182754	0.302281
N123	N	1.431358	0.067246	0.552281
N124	N	1.681358	0.317246	0.802281
C125	C	0.987524	-0.474848	-0.000035
C126	C	1.237524	-0.224848	0.249965
C127	C	1.487524	0.025152	0.499965
C128	C	1.737524	0.275152	0.749965
N129	N	1.044967	-0.445148	-0.052337
N130	N	1.294967	-0.195148	0.197663
N131	N	1.544967	0.054852	0.447663
N132	N	1.794967	0.304852	0.697663
N133	N	1.046187	-0.375961	-0.052330
N134	N	1.296187	-0.125961	0.197670
N135	N	1.546187	0.124039	0.447670
N136	N	1.796187	0.374039	0.697670
C137	C	0.990003	-0.334396	-0.000023
C138	C	1.240003	-0.084396	0.249977
C139	C	1.490003	0.165604	0.499977
C140	C	1.740003	0.415604	0.749977
C141	C	1.061798	-0.598560	-0.000049
C142	C	1.311798	-0.348560	0.249951
C143	C	1.561798	-0.098560	0.499951
C144	C	1.811798	0.151440	0.749951
C145	C	1.060510	-0.671388	-0.000070
C146	C	1.310510	-0.421388	0.249930
C147	C	1.560510	-0.171388	0.499930
C148	C	1.810510	0.078612	0.749930
C149	C	0.907884	-0.654711	-0.000069
C150	C	1.157884	-0.404711	0.249931
C151	C	1.407884	-0.154711	0.499931
C152	C	1.657884	0.095289	0.749931
C153	C	0.909174	-0.581885	-0.000058
C154	C	1.159174	-0.331885	0.249942
C155	C	1.409174	-0.081885	0.499942
C156	C	1.659174	0.168115	0.749942
C157	C	0.986134	-0.553814	-0.000044
C158	C	1.236134	-0.303814	0.249956
C159	C	1.486134	-0.053814	0.499956
C160	C	1.736134	0.196186	0.749956
C161	C	1.141875	0.090255	-0.000038
C162	C	1.391875	0.340255	0.249962
C163	C	1.641875	0.590255	0.499962
C164	C	1.891875	0.840255	0.749962
C165	C	1.234823	0.091616	-0.000046
C166	C	1.484823	0.341616	0.249954
C167	C	1.734823	0.591616	0.499954
C168	C	1.984823	0.841616	0.749954
C169	C	0.982190	0.223030	-0.000057
C170	C	1.232190	0.473030	0.249943
C171	C	1.482190	0.723030	0.499943
C172	C	1.732190	0.973030	0.749943
C173	C	0.983558	0.300538	-0.000071
C174	C	1.233558	0.550538	0.249929
C175	C	1.483558	0.800538	0.499929
C176	C	1.733558	1.050538	0.749929
N177	N	0.988729	0.095387	0.218670
N178	N	1.238729	0.345387	0.468670
N179	N	1.488729	0.595387	0.718670
N180	N	1.738729	0.845387	0.968670
N181	N	0.988818	0.095365	-0.218739
N182	N	1.238818	0.345365	0.031261
N183	N	1.488818	0.595365	0.281261
N184	N	1.738818	0.845365	0.531261
C185	C	0.988788	0.095373	0.592761
C186	C	1.238788	0.345373	0.842761
C187	C	1.488788	0.595373	1.092761
C188	C	1.738788	0.845373	1.342761
C189	C	0.919561	0.152550	0.553586
C190	C	1.169561	0.402550	0.803586
C191	C	1.419561	0.652550	1.053586
C192	C	1.669561	0.902550	1.303586
C193	C	0.919720	0.152758	0.446498
C194	C	1.169720	0.402758	0.696498
C195	C	1.419720	0.652758	0.946498
C196	C	1.669720	0.902758	1.196498
C197	C	0.988758	0.095380	0.407170
C198	C	1.238758	0.345380	0.657170
C199	C	1.488758	0.595380	0.907170
C200	C	1.738758	0.845380	1.157170
C201	C	1.076067	0.111276	0.446003
C202	C	1.326067	0.361276	0.696003
C203	C	1.576067	0.611276	0.946003
C204	C	1.826067	0.861276	1.196003
C205	C	1.075678	0.111683	0.553124
C206	C	1.325678	0.361683	0.803124
C207	C	1.575678	0.611683	1.053124
C208	C	1.825678	0.861683	1.303124
C209	C	0.971487	0.022129	0.553304
C210	C	1.221487	0.272129	0.803304
C211	C	1.471487	0.522129	1.053304
C212	C	1.721487	0.772129	1.303304
C213	C	0.969482	0.022618	0.446176
C214	C	1.219482	0.272618	0.696176
C215	C	1.469482	0.522618	0.946176
C216	C	1.719482	0.772618	1.196176
C217	C	0.988747	0.095383	0.302282
C218	C	1.238747	0.345383	0.552282
C219	C	1.488747	0.595383	0.802282
C220	C	1.738747	0.845383	1.052282
C221	C	0.988806	0.095371	0.697649
C222	C	1.238806	0.345371	0.947649
C223	C	1.488806	0.595371	1.197649
C224	C	1.738806	0.845371	1.447649
H225	H	0.432434	0.000263	0.091792
H226	H	0.682434	0.250263	0.341792
H227	H	0.932434	0.500263	0.591792
H228	H	1.182434	0.750263	0.841792
H229	H	0.853081	-0.233543	-0.000028
H230	H	1.103081	0.016457	0.249972
H231	H	1.353081	0.266457	0.499972
H232	H	1.603081	0.516457	0.749972
H233	H	1.124463	-0.575704	-0.000042
H234	H	1.374463	-0.325704	0.249958
H235	H	1.624463	-0.075704	0.499958
H236	H	1.874463	0.174296	0.749958
H237	H	1.122126	-0.707819	-0.000072
H238	H	1.372126	-0.457819	0.249928
H239	H	1.622126	-0.207819	0.499928
H240	H	1.872126	0.042181	0.749928
H241	H	0.561928	0.086451	-0.153051
H242	H	0.811928	0.336451	0.096949
H243	H	1.061928	0.586451	0.346949
H244	H	1.311928	0.836451	0.596949
H245	H	0.909218	0.006840	0.580375
H246	H	1.159218	0.256840	0.830375
H247	H	1.409218	0.506840	1.080375
H248	H	1.659218	0.756840	1.330375
Cl249	Cl	0.821897	-0.081597	-0.000024
Cl250	Cl	1.071897	0.168403	0.249976
Cl251	Cl	1.321897	0.418403	0.499976
Cl252	Cl	1.571897	0.668403	0.749976
H253	H	0.854443	0.143237	0.579377
H254	H	1.104443	0.393237	0.829377
H255	H	1.354443	0.643237	1.079377
H256	H	1.604443	0.893237	1.329377
Cl257	Cl	0.811143	-0.690004	-0.000074
Cl258	Cl	1.061143	-0.440004	0.249926
Cl259	Cl	1.311143	-0.190004	0.499926
Cl260	Cl	1.561143	0.059996	0.749926
H261	H	0.418564	0.079601	-0.153487
H262	H	0.668564	0.329601	0.096513
H263	H	0.918564	0.579601	0.346513
H264	H	1.168564	0.829601	0.596513
H265	H	0.575638	0.001734	0.090999
H266	H	0.825638	0.251734	0.340999
H267	H	1.075638	0.501734	0.590999
H268	H	1.325638	0.751734	0.840999
H269	H	1.016649	-0.021923	0.419409
H270	H	1.266649	0.228077	0.669409
H271	H	1.516649	0.478077	0.919409
H272	H	1.766649	0.728077	1.169409
Cl273	Cl	0.814050	-0.525632	-0.000058
Cl274	Cl	1.064050	-0.275632	0.249942
Cl275	Cl	1.314050	-0.025632	0.499942
Cl276	Cl	1.564050	0.224368	0.749942
H277	H	1.091726	0.164083	0.419156
H278	H	1.341726	0.414083	0.669156
H279	H	1.591726	0.664083	0.919156
H280	H	1.841726	0.914083	1.169156
Cl281	Cl	0.383035	0.217329	0.096212
Cl282	Cl	0.633035	0.467329	0.346212
Cl283	Cl	0.883035	0.717329	0.596212
Cl284	Cl	1.133035	0.967329	0.846212
H285	H	0.854813	0.143289	0.420245
H286	H	1.104813	0.393289	0.670245
H287	H	1.354813	0.643289	0.920245
H288	H	1.604813	0.893289	1.170245
Cl289	Cl	1.163485	-0.283612	-0.000013
Cl290	Cl	1.413485	-0.033612	0.249987
Cl291	Cl	1.663485	0.216388	0.499987
Cl292	Cl	1.913485	0.466388	0.749987
H293	H	1.021974	-0.020420	0.578637
H294	H	1.271974	0.229580	0.828637
H295	H	1.521974	0.479580	1.078637
H296	H	1.771974	0.729580	1.328637
H297	H	1.128787	0.071679	0.579036
H298	H	1.378787	0.321679	0.829036
H299	H	1.628787	0.571679	1.079036
H300	H	1.878787	0.821679	1.329036
Cl301	Cl	0.936347	0.235998	0.595096
Cl302	Cl	1.186347	0.485998	0.845096
Cl303	Cl	1.436347	0.735998	1.095096
Cl304	Cl	1.686347	0.985998	1.345096
H305	H	0.433181	-0.001546	-0.087553
H306	H	0.683181	0.248454	0.162447
H307	H	0.933181	0.498454	0.412447
H308	H	1.183181	0.748454	0.662447
Cl309	Cl	0.870325	0.003989	0.406994
Cl310	Cl	1.120325	0.253989	0.656994
Cl311	Cl	1.370325	0.503989	0.906994
Cl312	Cl	1.620325	0.753989	1.156994
Cl313	Cl	0.574356	0.099419	0.188557
Cl314	Cl	0.824356	0.349419	0.438557
Cl315	Cl	1.074356	0.599419	0.688557
Cl316	Cl	1.324356	0.849419	0.938557
Cl317	Cl	0.936701	0.236683	0.406899
Cl318	Cl	1.186701	0.486683	0.656899
Cl319	Cl	1.436701	0.736683	0.906899
Cl320	Cl	1.686701	0.986683	1.156899
H321	H	1.132311	-0.131674	0.000006
H322	H	1.382311	0.118326	0.250006
H323	H	1.632311	0.368326	0.500006
H324	H	1.882311	0.618326	0.750006
Cl325	Cl	0.594660	-0.027788	-0.096294
Cl326	Cl	0.844660	0.222212	0.153706
Cl327	Cl	1.094660	0.472212	0.403706
Cl328	Cl	1.344660	0.722212	0.653706
H329	H	0.543625	0.203288	-0.062962
H330	H	0.793625	0.453288	0.187038
H331	H	1.043625	0.703288	0.437038
H332	H	1.293625	0.953288	0.687038
H333	H	1.090965	0.165098	0.578090
H334	H	1.340965	0.415098	0.828090
H335	H	1.590965	0.665098	1.078090
H336	H	1.840965	0.915098	1.328090
Cl337	Cl	1.157488	0.048690	0.406674
Cl338	Cl	1.407488	0.298690	0.656674
Cl339	Cl	1.657488	0.548690	0.906674
Cl340	Cl	1.907488	0.798690	1.156674
H341	H	0.399934	0.201349	-0.063337
H342	H	0.649934	0.451349	0.186663
H343	H	0.899934	0.701349	0.436663
H344	H	1.149934	0.951349	0.686663
H345	H	0.542974	0.203480	0.062962
H346	H	0.792974	0.453480	0.312962
H347	H	1.042974	0.703480	0.562962
H348	H	1.292974	0.953480	0.812962
H349	H	0.419848	0.083801	0.153394
H350	H	0.669848	0.333801	0.403394
H351	H	0.919848	0.583801	0.653394
H352	H	1.169848	0.833801	0.903394
