data_functionalizedCrystal
_audit_creation_method	'MofGen! by Chris Wilmer'
_symmetry_space_group_name_H-M	'P1'
_symmetry_Int_Tables_number	1
_symmetry_cell_setting	triclinic
loop_
_symmetry_equiv_pos_as_xyz
  x,y,z
_cell_length_a	27.731994
_cell_length_b	26.210047
_cell_length_c	23.532407
_cell_angle_alpha	89.983939
_cell_angle_beta	82.734606
_cell_angle_gamma	90.013772
loop_
_atom_site_label
_atom_site_type_symbol
_atom_site_fract_x
_atom_site_fract_y
_atom_site_fract_z
O1	O	0.641039	-0.042361	0.067626
O2	O	0.500258	-0.042379	0.077962
O3	O	0.574894	-0.042360	-0.010148
O4	O	0.566403	-0.042380	0.155736
O5	O	0.574906	0.042498	-0.010164
O6	O	0.500270	0.042479	0.077946
O7	O	0.641051	0.042497	0.067609
Cu8	Cu	0.570662	0.050236	0.072776
Cu9	Cu	0.570647	-0.050118	0.072795
O10	O	0.566415	0.042478	0.155719
C11	C	0.482256	0.000048	0.077742
C12	C	0.428599	0.000041	0.077103
C13	C	0.095881	0.046318	0.073069
C14	C	-0.105781	0.046324	0.070640
O15	O	-0.131849	0.085663	0.070294
N16	N	-0.131003	0.000068	0.070348
C17	C	-0.105806	-0.046193	0.070658
O18	O	-0.131885	-0.085537	0.070348
C19	C	0.095856	-0.046199	0.073083
C20	C	0.121074	0.000060	0.073382
C21	C	0.121100	0.092573	0.073367
C22	C	0.171512	0.092571	0.073977
C23	C	0.196705	0.046314	0.074290
C24	C	0.171486	0.000058	0.073992
C25	C	0.121052	-0.092459	0.073390
C26	C	0.171471	-0.092456	0.073995
C27	C	0.196690	-0.046197	0.074293
C28	C	0.247092	-0.046201	0.074915
N29	N	0.272314	0.000055	0.075208
C30	C	0.247120	0.046313	0.074895
C31	C	-0.211681	-0.046187	0.069386
C32	C	-0.262096	-0.046186	0.068781
C33	C	-0.262068	0.046331	0.068762
C34	C	-0.211652	0.046330	0.069371
C35	C	-0.186459	0.000069	0.069679
C36	C	0.352989	0.046305	0.076177
C37	C	0.403405	0.046299	0.076790
C38	C	0.403373	-0.046218	0.076806
C39	C	0.352961	-0.046212	0.076196
C40	C	0.327770	0.000053	0.075880
O41	O	0.273191	-0.085519	0.075255
O42	O	0.273210	0.085650	0.075193
C43	C	0.045469	0.046320	0.072459
C44	C	0.020250	0.000064	0.072161
C45	C	0.045443	-0.046193	0.072474
C46	C	-0.030165	0.000066	0.071556
C47	C	-0.055359	0.046323	0.071243
C48	C	-0.030137	0.092579	0.071536
C49	C	0.020275	0.092577	0.072146
C50	C	0.020221	-0.092449	0.072181
C51	C	-0.030191	-0.092443	0.071571
C52	C	-0.055384	-0.046186	0.071259
N53	N	0.570638	-0.120702	0.072805
C54	C	0.603776	-0.473208	0.033851
C55	C	0.603783	-0.686867	0.033839
O56	O	0.631956	-0.714482	0.000741
N57	N	0.570672	-0.713596	0.072773
C58	C	0.537559	-0.686908	0.111715
O59	O	0.509400	-0.714546	0.144835
C60	C	0.537555	-0.473250	0.111730
C61	C	0.570665	-0.446523	0.072789
C62	C	0.636884	-0.446481	-0.005086
C63	C	0.636880	-0.393070	-0.005084
C64	C	0.603768	-0.366385	0.033854
C65	C	0.570661	-0.393112	0.072791
C66	C	0.504445	-0.446563	0.150674
C67	C	0.504447	-0.393145	0.150675
C68	C	0.537557	-0.366418	0.111735
C69	C	0.537546	-0.313016	0.111730
N70	N	0.570657	-0.286286	0.072796
C71	C	0.603768	-0.312971	0.033858
C72	C	0.537564	-0.799081	0.111704
C73	C	0.537564	-0.852495	0.111700
C74	C	0.603789	-0.852450	0.033824
C75	C	0.603785	-0.799035	0.033826
C76	C	0.570674	-0.772352	0.072770
C77	C	0.603757	-0.200803	0.033863
C78	C	0.603749	-0.147387	0.033867
C79	C	0.537526	-0.147437	0.111744
C80	C	0.537532	-0.200848	0.111739
C81	C	0.570652	-0.227530	0.072797
O82	O	0.509391	-0.285368	0.144815
O83	O	0.631930	-0.285324	0.000752
C84	C	0.603780	-0.526620	0.033850
C85	C	0.570673	-0.553346	0.072787
C86	C	0.537561	-0.526662	0.111725
C87	C	0.570673	-0.606761	0.072782
C88	C	0.603784	-0.633445	0.033844
C89	C	0.636895	-0.606716	-0.005090
C90	C	0.636891	-0.553304	-0.005088
C91	C	0.504450	-0.553391	0.150659
C92	C	0.504457	-0.606803	0.150654
C93	C	0.537568	-0.633487	0.111716
C94	C	0.659053	0.000069	0.067830
C95	C	0.712710	0.000072	0.068469
C96	C	0.574684	0.000070	-0.031372
C97	C	0.574034	0.000074	-0.094587
N98	N	0.570675	0.120820	0.072762
C99	C	0.614124	0.000051	-0.493785
C100	C	0.613520	0.000047	-0.553184
O101	O	0.650685	0.000033	-0.590016
N102	N	0.569149	0.000042	-0.575705
C103	C	0.525379	0.000035	-0.538824
O104	O	0.487583	0.000030	-0.563434
C105	C	0.525984	0.000036	-0.479426
C106	C	0.570358	0.000046	-0.456909
C107	C	0.658495	0.000061	-0.471267
C108	C	0.659098	0.000066	-0.411872
C109	C	0.615332	0.000061	-0.374996
C110	C	0.570961	0.000051	-0.397514
C111	C	0.482214	0.000025	-0.442546
C112	C	0.482822	0.000025	-0.383145
C113	C	0.527196	0.000036	-0.360628
C114	C	0.527798	0.000051	-0.301243
N115	N	0.572169	0.000056	-0.278721
C116	C	0.615936	0.000061	-0.315598
C117	C	0.524113	0.000034	-0.663563
C118	C	0.523509	0.000037	-0.722960
C119	C	0.611650	0.000048	-0.737316
C120	C	0.612254	0.000048	-0.677918
C121	C	0.568485	0.000039	-0.641042
C122	C	0.617200	0.000072	-0.190864
C123	C	0.617800	0.000079	-0.131463
C124	C	0.529659	0.000065	-0.117113
C125	C	0.529059	0.000061	-0.176508
C126	C	0.572834	0.000062	-0.213383
O127	O	0.490653	0.000063	-0.264376
O128	O	0.653726	0.000060	-0.290979
C129	C	0.566625	0.000047	0.176943
C130	C	0.567276	0.000039	0.240158
H131	H	0.191980	-0.130128	0.074246
C132	C	0.640186	-0.230148	-0.008976
C133	C	0.677010	-0.266861	0.013045
C134	C	0.713436	-0.296205	-0.029797
C135	C	0.713037	-0.288836	-0.094660
C136	C	0.676212	-0.252121	-0.116685
C137	C	0.639786	-0.222777	-0.073843
H138	H	0.677306	-0.272318	0.061064
H139	H	0.740697	-0.323384	-0.013493
H140	H	0.740002	-0.310558	-0.126375
H141	H	0.675916	-0.246665	-0.164703
H142	H	0.612525	-0.195598	-0.090147
C143	C	0.047931	-0.143335	0.072526
C144	C	0.076852	-0.156067	0.122421
C145	C	0.104560	-0.206956	0.122768
C146	C	0.103346	-0.245113	0.073221
C147	C	0.074423	-0.232382	0.023322
C148	C	0.046716	-0.181493	0.022974
H149	H	0.077752	-0.127820	0.159102
H150	H	0.125970	-0.216381	0.159707
H151	H	0.123856	-0.282784	0.073478
H152	H	0.073523	-0.260629	-0.013360
H153	H	0.025305	-0.172068	-0.013964
H154	H	0.100593	0.130243	0.073111
C155	C	0.659796	0.000048	-0.777887
C156	C	0.696246	0.044115	-0.775668
C157	C	0.744388	0.044115	-0.816240
C158	C	0.756081	0.000048	-0.859030
C159	C	0.719629	-0.044023	-0.861250
C160	C	0.671487	-0.044023	-0.820678
H161	H	0.687591	0.076740	-0.743991
H162	H	0.771372	0.076740	-0.814596
H163	H	0.791719	0.000048	-0.889063
H164	H	0.728284	-0.076647	-0.892927
H165	H	0.644503	-0.076647	-0.822322
C166	C	-0.057927	-0.143333	0.071243
C167	C	-0.086853	-0.156048	0.021349
C168	C	-0.114586	-0.206936	0.021014
C169	C	-0.113394	-0.245110	0.070573
C170	C	-0.084467	-0.232396	0.120471
C171	C	-0.056734	-0.181507	0.120806
H172	H	-0.087736	-0.127789	-0.015341
H173	H	-0.135999	-0.216348	-0.015923
H174	H	-0.133924	-0.282780	0.070326
H175	H	-0.083584	-0.260655	0.157161
H176	H	-0.035321	-0.172096	0.157743
C177	C	0.474696	0.000032	-0.747724
C178	C	0.438429	0.044092	-0.733646
C179	C	0.389615	0.044084	-0.758407
C180	C	0.377067	0.000015	-0.797246
C181	C	0.413335	-0.044048	-0.811327
C182	C	0.462149	-0.044040	-0.786566
H183	H	0.447717	0.076717	-0.704893
H184	H	0.362767	0.076702	-0.747984
H185	H	0.340932	0.000009	-0.815576
H186	H	0.404047	-0.076673	-0.840080
H187	H	0.488997	-0.076658	-0.796989
C188	C	0.666614	0.000087	-0.106696
C189	C	0.702896	0.044154	-0.120809
C190	C	0.751709	0.044161	-0.096043
C191	C	0.764240	0.000102	-0.057165
C192	C	0.727957	-0.043969	-0.043050
C193	C	0.679144	-0.043976	-0.067816
H194	H	0.693621	0.076773	-0.149590
H195	H	0.778568	0.076785	-0.106492
H196	H	0.800374	0.000107	-0.038832
H197	H	0.737232	-0.076587	-0.014269
H198	H	0.652286	-0.076600	-0.057367
H199	H	0.494026	0.000063	-0.087078
C200	C	0.325215	-0.097095	0.075870
C201	C	0.337873	-0.135248	0.026485
C202	C	0.310131	-0.186131	0.026151
C203	C	0.269732	-0.198862	0.075201
C204	C	0.257072	-0.160708	0.124590
C205	C	0.284814	-0.109825	0.124924
H206	H	0.367781	-0.125825	-0.009828
H207	H	0.319503	-0.214375	-0.010410
H208	H	0.249196	-0.236529	0.074954
H209	H	0.227165	-0.170131	0.160903
H210	H	0.275442	-0.081581	0.161485
H211	H	0.630746	-0.777278	0.002118
C212	C	0.431144	0.097188	0.077112
C213	C	0.418488	0.135348	0.126489
C214	C	0.446224	0.186236	0.126807
C215	C	0.486617	0.198963	0.077749
C216	C	0.499276	0.160802	0.028368
C217	C	0.471539	0.109914	0.028049
H218	H	0.388585	0.125927	0.162809
H219	H	0.436853	0.214485	0.163363
H220	H	0.507149	0.236633	0.077984
H221	H	0.529179	0.170222	-0.007952
H222	H	0.480910	0.081665	-0.008506
H223	H	0.332485	0.083979	0.075925
H224	H	0.477484	-0.468316	0.182383
H225	H	0.477488	-0.531669	0.182367
H226	H	0.663854	-0.628451	-0.036797
C227	C	0.467996	-0.363763	0.193452
C228	C	0.412981	-0.371126	0.192756
C229	C	0.376517	-0.341730	0.235501
C230	C	0.395067	-0.304971	0.278944
C231	C	0.450085	-0.297605	0.279643
C232	C	0.486549	-0.327001	0.236897
H233	H	0.399246	-0.398340	0.160595
H234	H	0.335789	-0.347183	0.234984
H235	H	0.368074	-0.283210	0.310587
H236	H	0.463820	-0.270392	0.311803
H237	H	0.527277	-0.321549	0.237414
C238	C	0.048010	0.143465	0.072464
C239	C	0.035352	0.181626	0.121840
C240	C	0.063082	0.232518	0.122153
C241	C	0.103471	0.245248	0.073090
C242	C	0.116131	0.207086	0.023711
C243	C	0.088401	0.156194	0.023397
H244	H	0.005452	0.172203	0.158162
H245	H	0.053710	0.260768	0.158707
H246	H	0.123999	0.282921	0.073322
H247	H	0.146031	0.216509	-0.012612
H248	H	0.097773	0.127944	-0.013157
C249	C	0.665352	0.000077	-0.231421
C250	C	0.701793	0.044151	-0.229187
C251	C	0.749944	0.044161	-0.269743
C252	C	0.761654	0.000097	-0.312534
C253	C	0.725212	-0.043980	-0.314769
C254	C	0.677061	-0.043990	-0.274213
H255	H	0.693126	0.076773	-0.197509
H256	H	0.776921	0.076790	-0.268088
H257	H	0.797298	0.000105	-0.342556
H258	H	0.733879	-0.076601	-0.346447
H259	H	0.650084	-0.076619	-0.275868
C260	C	0.475963	0.000033	-0.623002
C261	C	0.439513	-0.044033	-0.625236
C262	C	0.391363	-0.044034	-0.584679
C263	C	0.379662	0.000031	-0.541888
C264	C	0.416112	0.044100	-0.539652
C265	C	0.464262	0.044101	-0.580209
H266	H	0.448174	-0.076656	-0.656914
H267	H	0.364380	-0.076658	-0.586334
H268	H	0.344018	0.000030	-0.511865
H269	H	0.407451	0.076723	-0.507974
H270	H	0.491245	0.076725	-0.578554
C271	C	0.501136	-0.769817	0.154624
C272	C	0.464242	-0.733101	0.132745
C273	C	0.427812	-0.703879	0.175701
C274	C	0.428276	-0.711373	0.240536
C275	C	0.465171	-0.748090	0.262418
C276	C	0.501601	-0.777312	0.219462
H277	H	0.463897	-0.727552	0.084747
H278	H	0.400500	-0.676698	0.159502
H279	H	0.401309	-0.689741	0.272335
H280	H	0.465516	-0.753639	0.310416
H281	H	0.528913	-0.804493	0.235661
H282	H	0.446080	0.000014	-0.460869
C283	C	0.673308	-0.475829	-0.047924
C284	C	0.672909	-0.468455	-0.112787
C285	C	0.709332	-0.497799	-0.155632
C286	C	0.746155	-0.534516	-0.133615
C287	C	0.746556	-0.541892	-0.068749
C288	C	0.710132	-0.512548	-0.025904
H289	H	0.645649	-0.441274	-0.129088
H290	H	0.709036	-0.492339	-0.203650
H291	H	0.773118	-0.556238	-0.165331
H292	H	0.773815	-0.569074	-0.052447
H293	H	0.710429	-0.518008	0.022114
C294	C	0.706644	0.000069	-0.511824
C295	C	0.743084	0.044142	-0.509583
C296	C	0.791237	0.044155	-0.550136
C297	C	0.802949	0.000095	-0.592930
C298	C	0.766508	-0.043982	-0.595173
C299	C	0.718355	-0.043995	-0.554620
H300	H	0.734415	0.076761	-0.477902
H301	H	0.818213	0.076784	-0.548475
H302	H	0.838595	0.000104	-0.622950
H303	H	0.775177	-0.076601	-0.626854
H304	H	0.691379	-0.076624	-0.556281
H305	H	0.648387	0.000056	-0.659589
H306	H	0.663842	-0.371312	-0.036791
H307	H	0.447179	0.000017	-0.353123
C308	C	0.431093	-0.097098	0.077151
C309	C	0.471482	-0.109807	0.028096
C310	C	0.499205	-0.160687	0.028437
C311	C	0.486539	-0.198859	0.077832
C312	C	0.446149	-0.186151	0.126890
C313	C	0.418426	-0.135271	0.126549
H314	H	0.480860	-0.081549	-0.008472
H315	H	0.529105	-0.170093	-0.007879
H316	H	0.507062	-0.236523	0.078084
H317	H	0.436771	-0.214409	0.163458
H318	H	0.388526	-0.125865	0.162865
C319	C	0.480250	0.000047	-0.201286
C320	C	0.467716	0.044099	-0.240172
C321	C	0.418907	0.044077	-0.264947
C322	C	0.382633	0.000003	-0.250835
C323	C	0.395167	-0.044052	-0.211946
C324	C	0.443976	-0.044030	-0.187172
H325	H	0.494569	0.076729	-0.250621
H326	H	0.409629	0.076690	-0.293735
H327	H	0.346503	-0.000013	-0.269174
H328	H	0.368314	-0.076681	-0.201498
H329	H	0.453254	-0.076643	-0.158384
C330	C	0.199242	0.143462	0.074291
C331	C	0.228174	0.156202	0.124172
C332	C	0.255897	0.207098	0.124480
C333	C	0.254689	0.245254	0.074908
C334	C	0.225756	0.232515	0.025023
C335	C	0.198033	0.181619	0.024715
H336	H	0.229069	0.127956	0.160873
H337	H	0.277315	0.216529	0.161409
H338	H	0.275212	0.282931	0.075136
H339	H	0.224861	0.260761	-0.011677
H340	H	0.176615	0.172189	-0.012213
C341	C	-0.183913	0.097214	0.069695
C342	C	-0.154980	0.109933	0.119581
C343	C	-0.127243	0.160820	0.119903
C344	C	-0.128439	0.198988	0.070340
C345	C	-0.157373	0.186270	0.020450
C346	C	-0.185110	0.135383	0.020128
H347	H	-0.154093	0.081678	0.156274
H348	H	-0.105824	0.170235	0.156835
H349	H	-0.107907	0.236658	0.070578
H350	H	-0.158260	0.214525	-0.016243
H351	H	-0.206529	0.125969	-0.016804
C352	C	-0.289785	0.097216	0.068414
C353	C	-0.330175	0.109935	0.117463
C354	C	-0.357893	0.160817	0.117110
C355	C	-0.345223	0.198980	0.067707
C356	C	-0.304832	0.186262	0.018653
C357	C	-0.277113	0.135380	0.019007
H358	H	-0.339556	0.081684	0.154038
H359	H	-0.387794	0.170231	0.153422
H360	H	-0.365742	0.236645	0.067445
H361	H	-0.295451	0.214513	-0.017921
H362	H	-0.247213	0.125965	-0.017306
H363	H	0.630749	-0.874186	0.002119
H364	H	0.695232	0.000072	-0.393544
H365	H	0.510567	-0.222609	0.143442
H366	H	0.510566	-0.125702	0.143446
C367	C	-0.289834	-0.097072	0.068460
C368	C	-0.318765	-0.109790	0.018572
C369	C	-0.346500	-0.160678	0.018246
C370	C	-0.345303	-0.198848	0.067808
C371	C	-0.316371	-0.186130	0.117700
C372	C	-0.288636	-0.135242	0.118025
H373	H	-0.319652	-0.081534	-0.018120
H374	H	-0.367918	-0.170092	-0.018687
H375	H	-0.365834	-0.236518	0.067567
H376	H	-0.315484	-0.214387	0.154392
H377	H	-0.267218	-0.125828	0.154958
H378	H	-0.191174	-0.083860	0.069637
H379	H	-0.050658	0.130243	0.071285
H380	H	0.100528	-0.130128	0.073146
H381	H	0.630711	-0.125628	0.002155
H382	H	0.663853	-0.531547	-0.036797
H383	H	0.510598	-0.874253	0.143403
H384	H	0.477490	-0.628560	0.182363
