data_functionalizedCrystal
_audit_creation_method	'MofGen! by Chris Wilmer'
_symmetry_space_group_name_H-M	'P1'
_symmetry_Int_Tables_number	1
_symmetry_cell_setting	triclinic
loop_
_symmetry_equiv_pos_as_xyz
  x,y,z
_cell_length_a	16.109301
_cell_length_b	10.654541
_cell_length_c	15.186229
_cell_angle_alpha	89.996481
_cell_angle_beta	89.999362
_cell_angle_gamma	83.972705
loop_
_atom_site_label
_atom_site_type_symbol
_atom_site_fract_x
_atom_site_fract_y
_atom_site_fract_z
O1	O	1.104089	0.161419	-0.073172
O2	O	0.862147	0.181508	-0.073186
O3	O	0.988682	-0.011352	-0.073174
O4	O	0.977554	0.354278	-0.073185
O5	O	0.988673	-0.011354	0.073284
O6	O	0.862138	0.181505	0.073271
O7	O	1.104081	0.161416	0.073285
Zn8	Zn	0.983108	0.171460	0.096531
Zn9	Zn	0.983119	0.171464	-0.096433
O10	O	0.977546	0.354276	0.073272
C11	C	0.831163	0.180692	0.000040
C12	C	0.738853	0.178253	0.000035
C13	C	0.987861	-0.058140	0.000054
C14	C	0.985418	-0.197550	0.000053
C15	C	0.517227	0.287019	0.000042
C16	C	0.430493	0.284717	0.000048
C17	C	0.449008	0.055896	0.000051
C18	C	0.535740	0.058200	0.000052
C19	C	0.569847	0.173765	0.000043
C20	C	0.396381	0.169159	0.000048
C21	C	0.302340	0.166662	0.000054
C22	C	0.663894	0.176262	0.000038
C23	C	1.136725	-0.227574	0.000073
C24	C	1.211227	-0.308079	0.000084
C25	C	1.208926	-0.439066	0.000081
C26	C	1.132115	-0.489549	0.000064
C27	C	1.057613	-0.409044	0.000053
C28	C	1.059922	-0.278056	0.000058
C29	C	0.906308	-0.379021	0.000026
C30	C	0.908607	-0.248034	0.000036
C31	C	0.829496	-0.429504	0.000009
C32	C	0.754992	-0.348998	0.000004
C33	C	0.757296	-0.218004	0.000008
C34	C	0.834104	-0.167529	0.000024
C35	C	1.135065	0.162231	0.000056
C36	C	1.227375	0.164671	0.000055
C37	C	0.978367	0.401064	0.000042
C38	C	0.980810	0.540474	0.000038
N39	N	0.983107	0.171457	0.228224
N40	N	0.983128	0.171457	-0.228125
C41	C	1.039156	0.086088	0.453952
C42	C	1.039158	0.086085	0.546142
C43	C	0.927072	0.256830	0.546140
C44	C	0.927066	0.256826	0.453952
C45	C	0.983113	0.171456	0.407860
C46	C	0.983121	0.171458	0.592238
C47	C	0.983124	0.171455	0.692194
C48	C	0.983110	0.171457	0.307898
H49	H	0.387652	0.376940	0.000049
H50	H	0.881426	0.326344	0.416421
C51	C	1.294536	-0.253024	0.000150
C52	C	1.280611	-0.121081	0.000175
C53	C	1.357335	-0.070328	0.000246
H54	H	1.325318	-0.280513	-0.050903
H55	H	1.325242	-0.280595	0.051249
H56	H	1.249919	-0.093522	-0.050919
H57	H	1.249843	-0.093558	0.051225
H58	H	1.388040	-0.097899	0.051345
H59	H	1.388111	-0.097826	-0.050809
H60	H	1.347897	0.019200	0.000271
H61	H	0.544993	0.381120	0.000041
C62	C	0.866324	0.349468	0.596343
C63	C	0.878339	0.331227	0.686944
C64	C	0.822401	0.416557	0.733216
H65	H	0.810722	0.335891	0.581349
H66	H	0.875843	0.433311	0.581277
H67	H	0.868814	0.247404	0.702004
H68	H	0.933930	0.344814	0.701964
H69	H	0.831920	0.500401	0.718149
H70	H	0.766803	0.402973	0.718215
H71	H	0.830551	0.404201	0.794693
H72	H	0.578586	-0.034032	0.000055
H73	H	0.421227	-0.038193	0.000064
H74	H	1.138606	-0.120919	0.000087
C75	C	1.289904	-0.526270	0.000136
C76	C	1.357665	-0.454032	0.000170
C77	C	1.432273	-0.534321	0.000232
H78	H	1.292273	-0.578015	-0.050923
H79	H	1.292186	-0.577978	0.051230
H80	H	1.355383	-0.402345	-0.050918
H81	H	1.355324	-0.402290	0.051226
H82	H	1.434555	-0.586029	0.051325
H83	H	1.434633	-0.586062	-0.050828
H84	H	1.478257	-0.485320	0.000263
C85	C	1.100034	-0.006747	0.404068
C86	C	1.149098	-0.081532	0.464170
C87	C	1.205180	-0.167081	0.418253
H88	H	1.134980	0.038291	0.368096
H89	H	1.069844	-0.059106	0.368131
H90	H	1.179286	-0.029179	0.500092
H91	H	1.114176	-0.126598	0.500144
H92	H	1.174990	-0.219441	0.382316
H93	H	1.240120	-0.122032	0.382282
H94	H	1.238472	-0.217841	0.459025
H95	H	1.130248	-0.596207	0.000051
H96	H	0.696627	-0.152463	-0.000006
H97	H	0.827628	-0.536161	0.000001
C98	C	1.100050	-0.006400	0.596297
C99	C	1.151313	0.060520	0.649234
C100	C	1.207410	-0.024640	0.695458
H101	H	1.133506	-0.057276	0.555742
H102	H	1.069867	-0.058675	0.632314
H103	H	1.181493	0.112773	0.613220
H104	H	1.117880	0.111391	0.689805
H105	H	1.177227	-0.076915	0.731475
H106	H	1.240860	-0.075512	0.654897
H107	H	1.242193	0.020752	0.731387
C108	C	0.671689	-0.404052	0.000028
C109	C	0.685620	-0.535995	0.000041
C110	C	0.608899	-0.586758	0.000077
H111	H	0.640922	-0.376547	-0.051033
H112	H	0.640966	-0.376505	0.051120
H113	H	0.716330	-0.563531	-0.051045
H114	H	0.716374	-0.563535	0.051098
H115	H	0.578177	-0.559210	0.051168
H116	H	0.578139	-0.559243	-0.050985
H117	H	0.618341	-0.676285	0.000094
H118	H	0.835988	-0.060874	0.000032
