data_functionalizedCrystal
_audit_creation_method	'MofGen! by Chris Wilmer'
_symmetry_space_group_name_H-M	'P1'
_symmetry_Int_Tables_number	1
_symmetry_cell_setting	triclinic
loop_
_symmetry_equiv_pos_as_xyz
  x,y,z
_cell_length_a	10.654541
_cell_length_b	11.892095
_cell_length_c	12.837942
_cell_angle_alpha	85.697431
_cell_angle_beta	90.343566
_cell_angle_gamma	86.064598
loop_
_atom_site_label
_atom_site_type_symbol
_atom_site_fract_x
_atom_site_fract_y
_atom_site_fract_z
O1	O	1.690985	-0.093968	-0.139138
O2	O	1.327022	-0.093977	-0.153024
O3	O	1.500932	-0.093966	0.004879
O4	O	1.517074	-0.093979	-0.297041
O5	O	1.486429	0.094041	-0.008266
O6	O	1.312519	0.094029	-0.166169
O7	O	1.676482	0.094039	-0.152284
Zn8	Zn	1.492198	0.123884	-0.161313
Zn9	Zn	1.511306	-0.123823	-0.143994
O10	O	1.502571	0.094027	-0.310187
C11	C	1.272861	0.000025	-0.158577
C12	C	1.133085	0.000021	-0.155528
N13	N	1.479166	0.292937	-0.173133
C14	C	1.488228	0.000037	0.036966
C15	C	1.471966	0.000034	0.152160
C16	C	1.125721	-0.000002	-0.344343
C17	C	1.056373	-0.000017	-0.437314
C18	C	0.925042	-0.000018	-0.434443
C19	C	0.863055	-0.000000	-0.338591
C20	C	0.932403	0.000016	-0.245620
C21	C	1.063737	0.000013	-0.248502
C22	C	0.939767	0.000046	-0.056808
C23	C	1.071099	0.000039	-0.059676
C24	C	0.877780	0.000065	0.039044
C25	C	0.947128	0.000072	0.132017
C26	C	1.078467	0.000072	0.129142
C27	C	1.140446	0.000055	0.033294
C28	C	1.730643	0.000034	-0.146730
C29	C	1.870419	0.000030	-0.149779
N30	N	1.524346	-0.292876	-0.132166
C31	C	1.615019	0.529594	-0.049862
C32	C	1.605920	0.647935	-0.058131
C33	C	1.451863	0.647963	-0.197935
C34	C	1.460962	0.529622	-0.189666
C35	C	1.542544	0.470442	-0.115628
C36	C	1.551649	0.352098	-0.107364
C37	C	1.397586	0.352128	-0.247162
C38	C	1.388487	0.470469	-0.255432
C39	C	1.515276	0.000022	-0.342274
C40	C	1.531538	0.000017	-0.457467
C41	C	1.667472	0.000016	0.391716
C42	C	1.652198	0.000014	0.499952
C43	C	1.426146	0.000019	0.476870
C44	C	1.441420	0.000022	0.368635
C45	C	1.562086	0.000022	0.326062
C46	C	1.577359	0.000032	0.217823
C47	C	1.351308	0.000030	0.194744
C48	C	1.336034	0.000027	0.302980
H49	H	1.232659	-0.000026	-0.346689
H50	H	0.896648	0.000086	0.210053
H51	H	1.134923	0.000089	0.204851
H52	H	1.681456	0.481409	0.010416
H53	H	1.738014	0.000006	0.553405
H54	H	1.618081	0.303915	-0.047082
H55	H	1.385432	0.696163	-0.258208
H56	H	1.247384	0.000041	0.030945
H57	H	1.664935	0.696094	-0.004577
H58	H	1.675611	0.000036	0.183162
H59	H	1.322061	0.518668	-0.315710
H60	H	1.765722	0.000027	0.357052
H61	H	1.338576	0.303953	-0.300716
H62	H	1.327905	0.000007	0.511554
H63	H	1.237791	0.000023	0.337659
H64	H	1.106857	-0.000029	-0.515355
H65	H	0.868578	-0.000023	-0.510148
H66	H	0.756117	0.000013	-0.336262
H67	H	0.770842	0.000070	0.041375
H68	H	1.265495	0.000043	0.141275
