data_functionalizedCrystal
_audit_creation_method	'MofGen! by Chris Wilmer'
_symmetry_space_group_name_H-M	'P1'
_symmetry_Int_Tables_number	1
_symmetry_cell_setting	triclinic
loop_
_symmetry_equiv_pos_as_xyz
  x,y,z
_cell_length_a	16.120484
_cell_length_b	16.625547
_cell_length_c	16.625548
_cell_angle_alpha	89.985274
_cell_angle_beta	87.115040
_cell_angle_gamma	87.074925
loop_
_atom_site_label
_atom_site_type_symbol
_atom_site_fract_x
_atom_site_fract_y
_atom_site_fract_z
Zn1	Zn	-0.332069	-1.216277	0.472313
Zn2	Zn	0.001265	-0.882944	0.805647
Zn3	Zn	0.334598	-0.549611	1.138980
Zn4	Zn	-0.471454	-1.209365	0.344308
Zn5	Zn	-0.138120	-0.876032	0.677641
Zn6	Zn	0.195213	-0.542699	1.010974
Zn7	Zn	-0.332054	-1.081469	0.337478
Zn8	Zn	0.001279	-0.748135	0.670811
Zn9	Zn	0.334612	-0.414802	1.004145
Zn10	Zn	-0.471442	-1.074566	0.479082
Zn11	Zn	-0.138109	-0.741233	0.812415
Zn12	Zn	0.195224	-0.407899	1.145748
O13	O	-0.401755	-1.145419	0.408295
O14	O	-0.068421	-0.812086	0.741629
O15	O	0.264912	-0.478753	1.074962
O16	O	-0.350569	-1.328192	0.455359
O17	O	-0.017236	-0.994859	0.788692
O18	O	0.316098	-0.661526	1.122026
O19	O	-0.452961	-1.192396	0.230569
O20	O	-0.119627	-0.859063	0.563903
O21	O	0.213706	-0.525729	0.897236
O22	O	-0.215389	-1.105133	0.349673
O23	O	0.117945	-0.771799	0.683007
O24	O	0.451278	-0.438466	1.016340
O25	O	-0.452974	-1.323114	0.361314
O26	O	-0.119641	-0.989781	0.694647
O27	O	0.213692	-0.656447	1.027980
O28	O	-0.215399	-1.204176	0.448736
O29	O	0.117934	-0.870843	0.782070
O30	O	0.451267	-0.537509	1.115403
O31	O	-0.350545	-1.098431	0.225552
O32	O	-0.017211	-0.765097	0.558885
O33	O	0.316122	-0.431764	0.892218
O34	O	-0.350534	-0.967721	0.356236
O35	O	-0.017201	-0.634388	0.689570
O36	O	0.316133	-0.301055	1.022903
O37	O	-0.452955	-1.093368	0.591016
O38	O	-0.119622	-0.760035	0.924350
O39	O	0.213711	-0.426701	1.257683
O40	O	-0.452942	-0.962650	0.460272
O41	O	-0.119608	-0.629316	0.793605
O42	O	0.213725	-0.295983	1.126939
O43	O	-0.350558	-1.197483	0.586044
O44	O	-0.017225	-0.864149	0.919377
O45	O	0.316109	-0.530816	1.252710
O46	O	-0.588119	-1.185703	0.367877
O47	O	-0.254786	-0.852369	0.701210
O48	O	0.078547	-0.519036	1.034543
O49	O	-0.588111	-1.086666	0.466895
O50	O	-0.254778	-0.753333	0.800228
O51	O	0.078555	-0.419999	1.133561
C52	C	-0.401736	-0.935929	0.408248
C53	C	-0.068402	-0.602596	0.741581
C54	C	0.264931	-0.269263	1.074915
C55	C	-0.401748	-0.846308	0.408248
C56	C	-0.068414	-0.512974	0.741581
C57	C	0.264919	-0.179641	1.074915
C58	C	-0.401748	-0.773525	0.408255
C59	C	-0.068415	-0.440192	0.741588
C60	C	0.264918	-0.106859	1.074922
C61	C	-0.401751	-0.682217	0.408272
C62	C	-0.068418	-0.348883	0.741605
C63	C	0.264915	-0.015550	1.074939
C64	C	-0.401758	-0.609440	0.408290
C65	C	-0.068425	-0.276107	0.741623
C66	C	0.264909	0.057227	1.074957
C67	C	-0.401763	-0.518125	0.408306
C68	C	-0.068429	-0.184792	0.741639
C69	C	0.264904	0.148541	1.074973
C70	C	-0.618366	-1.134707	0.418879
C71	C	-0.285033	-0.801374	0.752212
C72	C	0.048301	-0.468040	1.085545
C73	C	-0.711033	-1.130198	0.423433
C74	C	-0.377700	-0.796865	0.756767
C75	C	-0.044367	-0.463531	1.090100
C76	C	-0.880697	-1.121970	0.431766
C77	C	-0.547364	-0.788637	0.765099
C78	C	-0.214031	-0.455304	1.098432
C79	C	-0.921972	-1.169013	0.384838
C80	C	-0.588638	-0.835679	0.718172
C81	C	-0.255305	-0.502346	1.051505
C82	C	-1.016379	-1.164435	0.389474
C83	C	-0.683045	-0.831101	0.722808
C84	C	-0.349712	-0.497768	1.056141
C85	C	-0.786282	-1.126547	0.427131
C86	C	-0.452948	-0.793214	0.760464
C87	C	-0.119615	-0.459881	1.093797
C88	C	-0.184298	-1.156195	0.397688
C89	C	0.149036	-0.822862	0.731021
C90	C	0.482369	-0.489529	1.064355
C91	C	-0.091630	-1.160787	0.393168
C92	C	0.241703	-0.827454	0.726501
C93	C	0.575036	-0.494121	1.059835
C94	C	-0.401757	-1.145426	0.618604
C95	C	-0.068424	-0.812093	0.951938
C96	C	0.264910	-0.478760	1.285271
C97	C	-0.401758	-1.145429	0.708225
C98	C	-0.068425	-0.812096	1.041559
C99	C	0.264909	-0.478763	1.374892
C100	C	-0.401771	-0.355727	0.408333
C101	C	-0.068438	-0.022394	0.741667
C102	C	0.264896	0.310939	1.075000
C103	C	-0.401769	-0.445349	0.408324
C104	C	-0.068436	-0.112015	0.741657
C105	C	0.264897	0.221318	1.074991
C106	C	-0.401765	-1.145395	1.036401
C107	C	-0.068432	-0.812062	1.369735
C108	C	0.264901	-0.478729	1.703068
C109	C	-0.401766	-1.145403	0.945093
C110	C	-0.068433	-0.812069	1.278426
C111	C	0.264901	-0.478736	1.611760
C112	C	-0.401762	-1.145413	0.872316
C113	C	-0.068429	-0.812079	1.205650
C114	C	0.264904	-0.478746	1.538983
C115	C	-0.401762	-1.145419	0.781002
C116	C	-0.068428	-0.812086	1.114335
C117	C	0.264905	-0.478752	1.447669
C118	C	-0.401769	-1.145404	1.198805
C119	C	-0.068436	-0.812070	1.532138
C120	C	0.264897	-0.478737	1.865472
C121	C	-0.401763	-1.145396	1.109184
C122	C	-0.068430	-0.812063	1.442517
C123	C	0.264904	-0.478729	1.775850
H124	H	-0.886406	-1.212724	0.341180
H125	H	-0.553072	-0.879391	0.674513
H126	H	-0.219739	-0.546057	1.007847
H127	H	-0.916261	-1.078261	0.475419
H128	H	-0.582927	-0.744928	0.808752
H129	H	-0.249594	-0.411595	1.142086
