data_functionalizedCrystal
_audit_creation_method	'MofGen! by Chris Wilmer'
_symmetry_space_group_name_H-M	'P1'
_symmetry_Int_Tables_number	1
_symmetry_cell_setting	triclinic
loop_
_symmetry_equiv_pos_as_xyz
  x,y,z
_cell_length_a	19.288864
_cell_length_b	19.188930
_cell_length_c	18.366186
_cell_angle_alpha	89.988632
_cell_angle_beta	89.977106
_cell_angle_gamma	83.140512
loop_
_atom_site_label
_atom_site_type_symbol
_atom_site_fract_x
_atom_site_fract_y
_atom_site_fract_z
O1	O	0.921359	0.087099	-0.060791
O2	O	1.421359	0.587099	0.439209
O3	O	0.719099	0.098849	-0.060743
O4	O	1.219099	0.598849	0.439257
O5	O	0.826066	-0.008682	-0.060754
O6	O	1.326066	0.491318	0.439246
O7	O	0.814393	0.194630	-0.060780
O8	O	1.314393	0.694630	0.439220
O9	O	0.826048	-0.008687	0.060345
O10	O	1.326048	0.491313	0.560345
O11	O	0.719081	0.098843	0.060357
O12	O	1.219081	0.598843	0.560357
O13	O	0.921341	0.087094	0.060308
O14	O	1.421341	0.587094	0.560308
Zn15	Zn	0.820208	0.092968	0.079560
Zn16	Zn	1.320208	0.592968	0.579560
Zn17	Zn	0.820232	0.092975	-0.079994
Zn18	Zn	1.320232	0.592975	0.420006
O19	O	0.814374	0.194625	0.060320
O20	O	1.314374	0.694625	0.560320
C21	C	0.693214	0.098468	-0.000186
C22	C	1.193214	0.598468	0.499814
C23	C	0.616110	0.097333	-0.000167
C24	C	1.116110	0.597333	0.499833
C25	C	0.571419	0.160427	-0.000187
C26	C	1.071419	0.660427	0.499813
C27	C	0.498972	0.159361	-0.000195
C28	C	0.998972	0.659361	0.499805
C29	C	0.471219	0.095197	-0.000198
C30	C	0.971219	0.595197	0.499802
C31	C	0.515921	0.032095	-0.000174
C32	C	1.015921	0.532095	0.499826
C33	C	0.588366	0.033163	-0.000159
C34	C	1.088366	0.533163	0.499841
C35	C	0.362960	0.044759	-0.042642
C36	C	0.862960	0.544759	0.457358
C37	C	0.290515	0.043694	-0.042662
C38	C	0.790515	0.543694	0.457338
C39	C	0.247773	0.091900	-0.000241
C40	C	0.747773	0.591900	0.499759
C41	C	0.277483	0.141184	0.042190
C42	C	0.777483	0.641184	0.542190
C43	C	0.349929	0.142253	0.042205
C44	C	0.849929	0.642253	0.542205
C45	C	0.392665	0.094032	-0.000214
C46	C	0.892665	0.594032	0.499786
C47	C	0.124526	0.153843	-0.000268
C48	C	0.624526	0.653843	0.499732
C49	C	0.052078	0.152774	-0.000272
C50	C	0.552078	0.652774	0.499728
C51	C	0.069028	0.025506	-0.000259
C52	C	0.569028	0.525506	0.499741
C53	C	0.141475	0.026576	-0.000248
C54	C	0.641475	0.526576	0.499752
C55	C	0.169219	0.090747	-0.000256
C56	C	0.669219	0.590747	0.499744
C57	C	0.825679	-0.034696	-0.000202
C58	C	1.325679	0.465304	0.499798
C59	C	0.824544	-0.112200	-0.000196
C60	C	1.324544	0.387800	0.499804
C61	C	0.887309	-0.157129	-0.000207
C62	C	1.387309	0.342871	0.499793
C63	C	0.886243	-0.229953	-0.000219
C64	C	1.386243	0.270047	0.499781
C65	C	0.822408	-0.257844	-0.000204
C66	C	1.322408	0.242156	0.499796
C67	C	0.759636	-0.212906	-0.000196
C68	C	1.259636	0.287094	0.499804
C69	C	0.760704	-0.140084	-0.000192
C70	C	1.260704	0.359916	0.499808
N71	N	0.773609	-0.365847	0.041020
N72	N	1.273609	0.134153	0.541020
N73	N	0.772598	-0.435026	0.041018
N74	N	1.272598	0.064974	0.541018
C75	C	0.819187	-0.477253	-0.000218
C76	C	1.319187	0.022747	0.499782
N77	N	0.866835	-0.447689	-0.041442
N78	N	1.366835	0.052311	0.458558
N79	N	0.867847	-0.378504	-0.041436
N80	N	1.367847	0.121496	0.458564
C81	C	0.821243	-0.336807	-0.000209
C82	C	1.321243	0.163193	0.499791
C83	C	0.880800	-0.601146	-0.000243
C84	C	1.380800	-0.101146	0.499757
C85	C	0.879731	-0.673971	-0.000259
C86	C	1.379731	-0.173971	0.499741
C87	C	0.753122	-0.656922	-0.000229
C88	C	1.253122	-0.156922	0.499771
C89	C	0.754193	-0.584099	-0.000220
C90	C	1.254193	-0.084099	0.499780
C91	C	0.818034	-0.556216	-0.000224
C92	C	1.318034	-0.056216	0.499776
C93	C	0.947227	0.087475	-0.000250
C94	C	1.447227	0.587475	0.499750
C95	C	1.024330	0.088609	-0.000274
C96	C	1.524330	0.588609	0.499726
C97	C	0.814762	0.220638	-0.000234
C98	C	1.314762	0.720638	0.499766
C99	C	0.815896	0.298143	-0.000245
C100	C	1.315896	0.798143	0.499755
N101	N	0.820197	0.092963	0.188451
N102	N	1.320197	0.592963	0.688451
N103	N	0.820249	0.092974	-0.188885
N104	N	1.320249	0.592974	0.311115
C105	C	0.867577	0.045371	0.226546
C106	C	1.367577	0.545371	0.726546
C107	C	0.867582	0.045368	0.302774
C108	C	1.367582	0.545368	0.802774
C109	C	0.820213	0.092968	0.340903
C110	C	1.320213	0.592968	0.840903
C111	C	0.772823	0.140563	0.302799
C112	C	1.272823	0.640563	0.802799
C113	C	0.772816	0.140560	0.226573
C114	C	1.272816	0.640560	0.726573
C115	C	0.810919	0.156585	0.461657
C116	C	1.310919	0.656585	0.961657
C117	C	0.810932	0.156589	0.537882
C118	C	1.310932	0.656589	1.037882
C119	C	0.820232	0.092977	0.576011
C120	C	1.320232	0.592977	1.076011
C121	C	0.829535	0.029359	0.537906
C122	C	1.329535	0.529359	1.037906
C123	C	0.829527	0.029356	0.461679
C124	C	1.329527	0.529356	0.961679
C125	C	0.820215	0.092977	0.423558
C126	C	1.320215	0.592977	0.923558
C127	C	0.867620	0.045378	0.696761
C128	C	1.367620	0.545378	1.196761
C129	C	0.867620	0.045374	0.772990
C130	C	1.367620	0.545374	1.272990
C131	C	0.772864	0.140576	0.773014
C132	C	1.272864	0.640576	1.273014
C133	C	0.772862	0.140574	0.696786
C134	C	1.272862	0.640574	1.196786
C135	C	0.820243	0.092976	0.658664
C136	C	1.320243	0.592976	1.158664
H137	H	0.046433	-0.026738	-0.000306
H138	H	0.546433	0.473262	0.499694
O139	O	0.686493	-0.535638	-0.000200
O140	O	1.186493	-0.035638	0.499800
H141	H	0.697960	-0.480315	-0.000205
H142	H	1.197960	0.019685	0.499795
O143	O	0.918696	-0.005957	0.343873
O144	O	1.418696	0.494043	0.843873
H145	H	0.910028	-0.060370	0.329263
H146	H	1.410028	0.439630	0.829263
O147	O	0.800878	0.225206	0.420547
O148	O	1.300878	0.725206	0.920547
H149	H	0.753600	0.226931	0.385853
H150	H	1.253600	0.726931	0.885853
H151	H	0.837100	-0.022445	0.430657
H152	H	1.337100	0.477555	0.930657
O153	O	0.953943	-0.278421	-0.000224
O154	O	1.453943	0.221579	0.499776
H155	H	0.956463	-0.312016	0.049132
H156	H	1.456463	0.187984	0.549132
O157	O	0.231394	0.193179	0.087954
O158	O	0.731394	0.693179	0.587954
H159	H	0.194016	0.225604	0.052167
H160	H	0.694016	0.725604	0.552167
O161	O	0.721737	0.191914	0.343915
O162	O	1.221737	0.691914	0.843915
H163	H	0.688075	0.162619	0.378679
H164	H	1.188075	0.662619	0.878679
H165	H	0.493320	-0.020148	-0.000187
H166	H	0.993320	0.479852	0.499813
H167	H	0.147116	0.206094	-0.000264
H168	H	0.647116	0.706094	0.499736
H169	H	0.374116	0.182379	0.076756
H170	H	0.874116	0.682379	0.576756
O171	O	0.839562	-0.039260	0.579016
O172	O	1.339562	0.460740	1.079016
H173	H	0.837994	-0.028574	0.638423
H174	H	1.337994	0.471426	1.138423
H175	H	0.734232	0.179316	0.195555
H176	H	1.234232	0.679316	0.695555
H177	H	0.906157	0.006613	0.195509
H178	H	1.406157	0.506613	0.695509
O179	O	0.918712	-0.005964	0.655635
O180	O	1.418712	0.494036	1.155635
H181	H	0.951652	-0.039068	0.694935
H182	H	1.451652	0.460932	1.194935
H183	H	0.803361	0.208391	0.568902
H184	H	1.303361	0.708391	1.068902
H185	H	0.939293	-0.134431	-0.000213
H186	H	1.439293	0.365569	0.499787
O187	O	0.636574	-0.034893	-0.000136
O188	O	1.136574	0.465107	0.499864
H189	H	0.670017	-0.037448	-0.049485
H190	H	1.170017	0.462552	0.450515
O191	O	0.450760	0.227418	-0.000213
O192	O	0.950760	0.727418	0.499787
H193	H	0.395723	0.215893	-0.000216
H194	H	0.895723	0.715893	0.499784
H195	H	0.906200	0.006616	0.804008
H196	H	1.406200	0.506616	1.304008
H197	H	0.594003	0.212680	-0.000195
H198	H	1.094003	0.712680	0.499805
O199	O	0.721772	0.191920	0.814127
O200	O	1.221772	0.691920	1.314127
H201	H	0.729739	0.183931	0.873533
H202	H	1.229739	0.683931	1.373533
O203	O	0.690783	-0.242982	-0.000172
O204	O	1.190783	0.257018	0.499828
H205	H	0.700585	-0.301169	-0.000167
H206	H	1.200585	0.198831	0.499833
H207	H	0.734283	0.179330	0.665767
H208	H	1.234283	0.679330	1.165767
H209	H	0.015690	0.204155	-0.000283
H210	H	0.515690	0.704155	0.499717
H211	H	0.709591	-0.103502	-0.000183
H212	H	1.209591	0.396498	0.499817
H213	H	0.177864	-0.024802	-0.000236
H214	H	0.677864	0.475198	0.499764
O215	O	0.949655	-0.571069	-0.000261
O216	O	1.449655	-0.071069	0.499739
H217	H	0.953170	-0.538317	0.049102
H218	H	1.453170	-0.038317	0.549102
O219	O	0.947430	-0.722436	-0.000265
O220	O	1.447430	-0.222436	0.499735
H221	H	0.991998	-0.690808	-0.000258
H222	H	1.491998	-0.190808	0.499742
H223	H	0.266331	0.003566	-0.077215
H224	H	0.766331	0.503566	0.422785
H225	H	0.397755	0.005502	-0.077191
H226	H	0.897755	0.505502	0.422809
H227	H	0.701147	-0.679631	-0.000221
H228	H	1.201147	-0.179631	0.499779
