data_functionalizedCrystal
_audit_creation_method	'MofGen! by Chris Wilmer'
_symmetry_space_group_name_H-M	'P1'
_symmetry_Int_Tables_number	1
_symmetry_cell_setting	triclinic
loop_
_symmetry_equiv_pos_as_xyz
  x,y,z
_cell_length_a	6.817900
_cell_length_b	19.551136
_cell_length_c	10.943624
_cell_angle_alpha	94.476581
_cell_angle_beta	108.838799
_cell_angle_gamma	101.650842
loop_
_atom_site_label
_atom_site_type_symbol
_atom_site_fract_x
_atom_site_fract_y
_atom_site_fract_z
V1	V	-4.079248	-0.096658	-0.403187
O2	O	-4.074953	0.004664	-0.394858
O3	O	-4.021567	-0.191675	-0.401059
O4	O	-4.057771	-0.095163	-0.578743
O5	O	-4.038498	-0.092516	-0.215943
V6	V	-4.560590	-0.084540	-0.380714
O7	O	-4.345291	-0.123241	-0.452482
O8	O	-4.744744	-0.057957	-0.331420
O9	O	-4.395065	0.010477	-0.382843
O10	O	-4.682282	-0.185862	-0.389044
O11	O	-4.718737	-0.088682	-0.567959
O12	O	-4.358860	-0.086035	-0.205158
C13	C	-3.863438	-0.214839	-0.394860
C14	C	-3.897743	-0.292516	-0.394291
C15	C	-3.856497	-0.319012	-0.275707
C16	C	-3.888795	-0.391996	-0.275132
C17	C	-3.962302	-0.438482	-0.393146
C18	C	-4.003563	-0.411979	-0.511746
C19	C	-3.971284	-0.338996	-0.512318
C20	C	-3.939935	-0.559489	-0.478715
C21	C	-3.972199	-0.632470	-0.478137
C22	C	-4.061873	-0.663586	-0.391385
C23	C	-4.119242	-0.621710	-0.305188
C24	C	-4.086962	-0.548727	-0.305761
C25	C	-3.997311	-0.517621	-0.392538
C26	C	-4.055647	-0.769219	-0.272170
C27	C	-4.087960	-0.842206	-0.271600
C28	C	-4.202709	-0.862187	-0.508217
C29	C	-4.170414	-0.789202	-0.508784
C30	C	-4.096874	-0.742722	-0.390756
C31	C	-3.909620	-0.091727	-0.621514
C32	C	-3.973282	-0.091133	-0.765036
C33	C	-3.819611	-0.087135	-0.842157
C34	C	-3.986717	-0.146476	-0.948538
C35	C	-3.919636	-0.030742	-0.914390
C36	C	-4.139577	-0.150530	-0.869540
C37	C	-4.072436	-0.034743	-0.835368
C38	C	-4.239672	-0.094100	-0.941719
C39	C	-4.216534	0.033637	-0.389037
C40	C	-4.161469	0.111313	-0.389616
C41	C	-4.170352	-0.089474	-0.162381
C42	C	-4.085929	-0.090064	-0.018857
H43	H	-3.796630	-0.281172	-0.179600
Br44	Br	-4.302498	-0.925268	-0.668384
H45	H	-4.054382	-0.863776	-0.175032
H46	H	-4.417877	-0.097059	-0.984983
H47	H	-3.641485	-0.084270	-0.798690
H48	H	-4.063417	-0.449832	-0.607834
Br49	Br	-3.927431	-0.225208	-1.030642
H50	H	-4.203988	-0.767630	-0.605347
H51	H	-4.231954	-0.201211	-0.849329
H52	H	-4.107929	0.012496	-0.786074
H53	H	-3.925477	-0.666560	-0.548321
H54	H	-3.855202	-0.413573	-0.178563
Br55	Br	-3.765683	0.053639	-0.948371
H56	H	-4.133680	-0.514635	-0.235578
H57	H	-4.192242	-0.647042	-0.234538
Br58	Br	-3.818255	-0.517269	-0.596472
Br59	Br	-3.955851	-0.706136	-0.111995
Br60	Br	-4.027267	-0.303035	-0.673266
