data_functionalizedCrystal
_audit_creation_method	'MofGen! by Chris Wilmer'
_symmetry_space_group_name_H-M	'P1'
_symmetry_Int_Tables_number	1
_symmetry_cell_setting	triclinic
loop_
_symmetry_equiv_pos_as_xyz
  x,y,z
_cell_length_a	14.908520
_cell_length_b	19.805407
_cell_length_c	19.805399
_cell_angle_alpha	89.980427
_cell_angle_beta	93.270609
_cell_angle_gamma	93.320773
loop_
_atom_site_label
_atom_site_type_symbol
_atom_site_fract_x
_atom_site_fract_y
_atom_site_fract_z
Zn1	Zn	-0.359181	1.019204	-0.398269
Zn2	Zn	-0.510047	1.012594	-0.291612
Zn3	Zn	-0.359206	0.906017	-0.285095
Zn4	Zn	-0.509999	0.899460	-0.404757
O5	O	-0.434608	0.959319	-0.344934
O6	O	-0.379203	1.113043	-0.384134
O7	O	-0.490068	0.998435	-0.196033
O8	O	-0.232958	0.926542	-0.294665
O9	O	-0.490044	1.108187	-0.305773
O10	O	-0.232939	1.009699	-0.377814
O11	O	-0.379246	0.920133	-0.191244
O12	O	-0.379199	0.810431	-0.300956
O13	O	-0.489962	0.915366	-0.498612
O14	O	-0.489986	0.805614	-0.388871
O15	O	-0.379157	1.003341	-0.493845
O16	O	-0.636286	0.992077	-0.312064
O17	O	-0.636250	0.908957	-0.395191
C18	C	-0.434591	0.783463	-0.344911
C19	C	-0.434605	0.708231	-0.344918
C20	C	-0.492379	0.670392	-0.390629
C21	C	-0.492380	0.599704	-0.390639
C22	C	-0.434612	0.566855	-0.344934
C23	C	-0.376832	0.604699	-0.299220
C24	C	-0.376827	0.675386	-0.299214
C25	C	-0.376852	0.319625	-0.299244
C26	C	-0.376864	0.248932	-0.299252
C27	C	-0.492406	0.243942	-0.390668
C28	C	-0.492400	0.314629	-0.390662
C29	C	-0.434618	0.352467	-0.344952
C30	C	-0.434615	0.429116	-0.344943
C31	C	-0.434618	0.490208	-0.344939
C32	C	-0.669002	0.949107	-0.355053
C33	C	-0.769277	0.944800	-0.359405
C34	C	-0.957679	1.023348	-0.281093
C35	C	-1.051896	1.019304	-0.285180
C36	C	-1.051929	0.932671	-0.371669
C37	C	-0.957712	0.936715	-0.367582
C38	C	-0.910590	0.982055	-0.322292
C39	C	-0.816372	0.986095	-0.318202
C40	C	-0.816407	0.899466	-0.404694
C41	C	-0.910624	0.895421	-0.408781
C42	C	-0.199299	0.969589	-0.334789
C43	C	-0.099024	0.973966	-0.330466
C44	C	-0.434551	0.959359	-0.521474
C45	C	-0.434527	0.959376	-0.596705
C46	C	-0.434626	1.135861	-0.344957
C47	C	-0.434634	1.211092	-0.344967
C48	C	-0.376828	1.005186	-0.629568
C49	C	-0.376802	1.005194	-0.700255
C50	C	-0.434480	0.959395	-0.738078
C51	C	-0.492182	0.913581	-0.705210
C52	C	-0.492203	0.913570	-0.634524
C53	C	-0.492098	0.913622	-0.990280
C54	C	-0.492074	0.913638	-1.060971
C55	C	-0.376697	1.005247	-1.056011
C56	C	-0.376718	1.005236	-0.985325
C57	C	-0.434416	0.959419	-0.952463
C58	C	-0.434442	0.959410	-0.875816
C59	C	-0.434459	0.959407	-0.814725
C60	C	-0.434600	0.959320	-0.169077
C61	C	-0.434370	0.959445	-0.093836
H62	H	-0.539452	0.213126	-0.427890
C63	C	-0.764612	0.854036	-0.450013
H64	H	-0.806173	0.826452	-0.477565
H65	H	-0.727798	0.881483	-0.477934
H66	H	-0.727921	0.826135	-0.422491
C67	C	-0.313300	0.361240	-0.248963
H68	H	-0.321558	0.408045	-0.255507
H69	H	-0.326422	0.349066	-0.204037
H70	H	-0.252701	0.352295	-0.256334
C71	C	-0.313275	0.717009	-0.248933
H72	H	-0.278875	0.687323	-0.221710
H73	H	-0.274012	0.746303	-0.273179
H74	H	-0.347732	0.743072	-0.220882
H75	H	-0.329862	1.042483	-0.598777
H76	H	-0.539426	0.568898	-0.427861
H77	H	-0.949003	0.858509	-0.445657
C78	C	-0.555957	0.350762	-0.440926
H79	H	-0.547688	0.398280	-0.434369
H80	H	-0.542849	0.339774	-0.485858
H81	H	-0.616555	0.336530	-0.433550
C82	C	-0.764539	1.035968	-0.268388
H83	H	-0.806081	1.059987	-0.244443
H84	H	-0.727837	1.011675	-0.237277
H85	H	-0.727732	1.067024	-0.292720
C86	C	-0.555923	0.706520	-0.440907
H87	H	-0.590325	0.673858	-0.468136
H88	H	-0.595185	0.732375	-0.416663
H89	H	-0.521455	0.735606	-0.468952
C90	C	-1.103774	0.882801	-0.421481
H91	H	-1.166629	0.886306	-0.418010
H92	H	-1.088287	0.893336	-0.466298
H93	H	-1.088399	0.837988	-0.410855
H94	H	-0.329820	1.042499	-0.727009
H95	H	-0.329793	0.577948	-0.262009
C96	C	-0.313272	1.055612	-0.943720
H97	H	-0.321554	1.049048	-0.896915
H98	H	-0.252653	1.048354	-0.952690
H99	H	-0.326481	1.100518	-0.955882
C100	C	-0.313309	0.212800	-0.248979
H101	H	-0.278888	0.245459	-0.221759
H102	H	-0.347766	0.183712	-0.220933
H103	H	-0.274052	0.186946	-0.273236
C104	C	-0.555567	0.863232	-0.954138
H105	H	-0.547317	0.869777	-0.906622
H106	H	-0.616179	0.870495	-0.968337
H107	H	-0.542350	0.818332	-0.965147
C108	C	-0.313223	1.055641	-1.092161
H109	H	-0.321461	1.049086	-1.139676
H110	H	-0.326438	1.100539	-1.081155
H111	H	-0.252607	1.048377	-1.077960
C112	C	-0.555516	0.863252	-1.102576
H113	H	-0.589876	0.835959	-1.072881
H114	H	-0.594821	0.887430	-1.131850
H115	H	-0.520982	0.835275	-1.128656
H116	H	-0.539141	0.876288	-0.736011
H117	H	-0.919312	1.060261	-0.244211
C118	C	-1.103691	1.064723	-0.239858
H119	H	-1.062130	1.092300	-0.212298
H120	H	-1.140392	1.092622	-0.267369
H121	H	-1.140495	1.037265	-0.211935
C122	C	-0.555694	0.863195	-0.598376
H123	H	-0.590054	0.835928	-0.631025
H124	H	-0.521207	0.835201	-0.569300
H125	H	-0.595010	0.887385	-0.572509
