data_functionalizedCrystal
_audit_creation_method	'MofGen! by Chris Wilmer'
_symmetry_space_group_name_H-M	'P1'
_symmetry_Int_Tables_number	1
_symmetry_cell_setting	triclinic
loop_
_symmetry_equiv_pos_as_xyz
  x,y,z
_cell_length_a	17.077404
_cell_length_b	21.295416
_cell_length_c	17.077396
_cell_angle_alpha	90.030718
_cell_angle_beta	89.981638
_cell_angle_gamma	89.971698
loop_
_atom_site_label
_atom_site_type_symbol
_atom_site_fract_x
_atom_site_fract_y
_atom_site_fract_z
Zn1	Zn	1.200014	0.250643	-0.443807
Zn2	Zn	1.199904	0.355916	-0.312535
Zn3	Zn	1.068746	0.250661	-0.312557
Zn4	Zn	1.068697	0.355875	-0.443762
O5	O	1.134340	0.303274	-0.378165
O6	O	1.309846	0.264618	-0.426403
O7	O	1.182480	0.341979	-0.202691
O8	O	1.086225	0.162569	-0.329996
O9	O	1.309766	0.341962	-0.329959
O10	O	1.182668	0.162556	-0.426424
O11	O	1.086119	0.264648	-0.202707
O12	O	0.958892	0.264608	-0.329952
O13	O	1.086142	0.341891	-0.553615
O14	O	0.958856	0.341908	-0.426347
O15	O	1.182620	0.264578	-0.553648
O16	O	1.182433	0.444000	-0.329915
O17	O	1.086035	0.443970	-0.426326
C18	C	0.930392	0.303256	-0.378148
C19	C	0.843142	0.303264	-0.378159
C20	C	0.802195	0.263062	-0.428454
C21	C	0.720215	0.263066	-0.428458
C22	C	0.679183	0.303275	-0.378169
C23	C	0.720136	0.343478	-0.327869
C24	C	0.802115	0.343471	-0.327862
C25	C	0.549266	0.343493	-0.327888
C26	C	0.467281	0.343501	-0.327896
C27	C	0.467366	0.263088	-0.428484
C28	C	0.549345	0.263081	-0.428477
C29	C	0.590292	0.303285	-0.378177
C30	C	1.134238	0.466826	-0.378131
C31	C	1.134266	0.536794	-0.378142
C32	C	1.184505	0.569655	-0.327994
C33	C	1.184542	0.635398	-0.328015
C34	C	1.134326	0.668276	-0.378176
C35	C	1.084084	0.635407	-0.428334
C36	C	1.084054	0.569665	-0.428317
N37	N	1.065658	0.771540	-0.384160
N38	N	1.065688	0.833991	-0.384172
C39	C	1.134415	0.866351	-0.378232
N40	N	1.203111	0.833900	-0.372265
N41	N	1.203079	0.771443	-0.372249
C42	C	1.134353	0.739562	-0.378201
C43	C	1.184698	0.970498	-0.328104
C44	C	1.184736	1.036242	-0.328131
C45	C	1.084271	1.036249	-0.428446
C46	C	1.084240	0.970507	-0.428423
C47	C	1.134452	0.937635	-0.378248
C48	C	1.339084	0.303292	-0.378183
C49	C	1.426334	0.303300	-0.378191
C50	C	1.134465	1.139084	-0.378231
C51	C	1.134521	1.069116	-0.378293
C52	C	1.134388	0.303228	-0.582910
C53	C	1.134408	0.303208	-0.670159
C54	C	1.184646	0.262947	-0.711168
C55	C	1.184655	0.262927	-0.793149
C56	C	1.134430	0.303170	-0.834119
C57	C	1.084187	0.343432	-0.793105
C58	C	1.084174	0.343449	-0.711126
C59	C	1.084218	0.343394	-0.963975
C60	C	1.084232	0.343377	-1.045959
C61	C	1.184700	0.262871	-1.045998
C62	C	1.184687	0.262889	-0.964019
C63	C	1.134444	0.303152	-0.923010
C64	C	1.134338	0.303275	-0.174217
C65	C	1.134470	0.303117	-0.086968
H66	H	0.686879	0.230332	-0.469415
H67	H	1.043199	0.662180	-0.469177
O68	O	1.238932	1.071690	-0.274047
H69	H	1.203837	1.101699	-0.234095
O70	O	1.030108	1.071706	-0.482546
H71	H	1.043532	1.059046	-0.544163
H72	H	0.433876	0.376243	-0.286947
O73	O	0.423202	0.219721	-0.482730
H74	H	0.465506	0.191765	-0.517704
O75	O	1.030033	0.935056	-0.482491
H76	H	0.995111	0.968961	-0.517367
O77	O	1.030009	0.386832	-0.837294
H78	H	1.043423	0.436242	-0.821541
H79	H	1.225566	0.230144	-0.826534
O80	O	1.238739	0.670860	-0.273941
H81	H	1.203645	0.700870	-0.233989
H82	H	1.043142	0.542909	-0.469155
H83	H	1.225608	0.230087	-1.079391
O84	O	1.238862	0.935036	-0.274001
H85	H	1.273814	0.968935	-0.239142
O86	O	1.029979	0.386864	-0.666888
H87	H	0.995056	0.414845	-0.709149
H88	H	0.835453	0.376206	-0.286906
H89	H	0.582750	0.230343	-0.469431
H90	H	0.582603	0.376229	-0.286926
H91	H	1.225548	0.230179	-0.677816
O92	O	1.238670	0.534199	-0.273890
H93	H	1.273618	0.568099	-0.239028
O94	O	0.675886	0.386844	-0.273622
H95	H	0.638540	0.418916	-0.308684
H96	H	1.225589	0.230123	-0.930663
O97	O	1.030055	0.386775	-1.090154
H98	H	0.995106	0.414767	-1.047868
O99	O	1.030024	0.386815	-0.919739
H100	H	0.995105	0.414799	-0.961999
H101	H	0.835597	0.230321	-0.469407
