data_functionalizedCrystal
_audit_creation_method	'MofGen! by Chris Wilmer'
_symmetry_space_group_name_H-M	'P1'
_symmetry_Int_Tables_number	1
_symmetry_cell_setting	triclinic
loop_
_symmetry_equiv_pos_as_xyz
  x,y,z
_cell_length_a	19.077269
_cell_length_b	14.908178
_cell_length_c	19.076919
_cell_angle_alpha	88.840253
_cell_angle_beta	94.669058
_cell_angle_gamma	91.150529
loop_
_atom_site_label
_atom_site_type_symbol
_atom_site_fract_x
_atom_site_fract_y
_atom_site_fract_z
Zn1	Zn	1.043075	-0.430242	-0.336637
Zn2	Zn	1.041494	-0.574644	-0.212502
Zn3	Zn	0.930432	-0.418667	-0.224006
Zn4	Zn	0.918927	-0.574599	-0.335087
O5	O	0.983482	-0.499538	-0.277058
O6	O	1.141302	-0.454260	-0.316004
O7	O	1.030915	-0.549129	-0.115589
O8	O	0.950851	-0.294512	-0.244409
O9	O	1.140140	-0.560352	-0.224803
O10	O	1.033610	-0.303015	-0.327159
O11	O	0.949318	-0.434533	-0.124041
O12	O	0.830470	-0.434489	-0.242906
O13	O	0.931242	-0.560275	-0.433731
O14	O	0.822017	-0.549052	-0.324517
O15	O	1.022453	-0.454216	-0.434870
O16	O	1.019758	-0.700329	-0.223300
O17	O	0.929709	-0.700296	-0.313363
C18	C	0.800720	-0.490510	-0.284792
C19	C	0.722531	-0.486671	-0.288117
C20	C	0.685198	-0.540007	-0.242132
C21	C	0.611731	-0.536399	-0.245266
C22	C	0.575600	-0.479451	-0.294380
C23	C	0.612939	-0.426113	-0.340370
C24	C	0.686404	-0.429726	-0.337240
C25	C	0.355948	-0.462739	-0.308844
C26	C	0.282478	-0.459129	-0.311969
C27	C	0.281275	-0.569416	-0.216866
C28	C	0.354742	-0.573020	-0.213737
C29	C	0.392074	-0.519685	-0.259729
N30	N	0.500506	-0.475761	-0.297583
N31	N	0.467167	-0.523381	-0.256529
C32	C	0.973332	-0.732905	-0.266930
C33	C	0.969053	-0.832744	-0.262618
C34	C	1.047117	-1.029060	-0.340781
C35	C	1.043098	-1.122868	-0.336732
C36	C	0.956996	-1.114171	-0.250474
C37	C	0.961014	-1.020363	-0.254523
C38	C	1.006076	-0.977811	-0.299678
C39	C	1.010098	-0.884000	-0.303723
C40	C	0.923992	-0.875305	-0.217469
C41	C	0.919974	-0.969114	-0.213420
C42	C	1.166958	-0.508602	-0.269294
C43	C	1.245144	-0.512464	-0.265985
C44	C	0.975741	-0.508532	-0.460538
C45	C	0.972442	-0.512364	-0.538727
C46	C	0.993690	-0.265262	-0.287240
C47	C	0.998040	-0.165427	-0.291579
C48	C	1.018378	-0.458948	-0.576054
C49	C	1.015270	-0.462545	-0.649521
C50	C	0.966229	-0.519564	-0.685659
C51	C	0.920287	-0.572982	-0.648327
C52	C	0.923392	-0.569379	-0.574861
C53	C	0.951846	-0.536254	-0.905312
C54	C	0.948746	-0.539855	-0.978783
C55	C	1.043729	-0.429416	-0.979972
C56	C	1.046832	-0.425823	-0.906505
C57	C	1.000888	-0.479237	-0.869179
N58	N	0.963052	-0.523244	-0.760753
N59	N	1.004062	-0.475552	-0.794086
C60	C	0.991236	-0.490517	-0.094292
C61	C	0.994682	-0.486438	-0.016110
H62	H	0.253063	-0.412747	-0.351963
H63	H	1.058316	-0.412520	-0.546635
C64	C	0.724552	-0.601748	-0.188832
C65	C	0.796882	-0.593481	-0.195918
C66	C	0.833155	-0.650338	-0.146825
H67	H	0.709546	-0.662065	-0.196894
H68	H	0.715107	-0.585594	-0.142656
H69	H	0.806322	-0.609641	-0.242083
H70	H	0.811909	-0.533177	-0.187850
H71	H	0.823711	-0.634184	-0.100649
H72	H	0.818144	-0.710652	-0.154890
H73	H	0.882235	-0.644731	-0.151621
C74	C	0.873639	-0.627430	-0.534230
C75	C	0.912747	-0.684878	-0.487855
C76	C	0.866937	-0.738357	-0.450406
H77	H	0.843969	-0.661990	-0.566185
H78	H	0.845712	-0.590172	-0.508317
H79	H	0.940662	-0.722132	-0.513766
H80	H	0.942415	-0.650342	-0.455886
H81	H	0.839010	-0.701099	-0.424493
H82	H	0.837269	-0.772912	-0.482366
H83	H	0.893465	-0.777336	-0.418932
H84	H	0.880354	-0.619404	-0.677756
H85	H	0.386335	-0.419311	-0.346295
H86	H	0.914445	-0.579762	-0.874930
C87	C	0.571326	-0.594339	-0.195251
C88	C	0.618694	-0.644961	-0.151552
C89	C	0.581500	-0.698338	-0.105461
H90	H	0.539837	-0.633516	-0.221543
H91	H	0.545461	-0.557024	-0.167324
H92	H	0.644547	-0.682273	-0.179476
H93	H	0.650184	-0.605807	-0.125244
H94	H	0.555634	-0.661023	-0.077534
H95	H	0.550012	-0.737509	-0.131760
H96	H	0.613633	-0.732685	-0.075802
C97	C	0.573813	-0.364141	-0.393659
C98	C	0.596197	-0.275377	-0.381567
C99	C	0.560179	-0.218262	-0.430649
H100	H	0.524705	-0.369504	-0.388990
H101	H	0.583315	-0.380239	-0.439832
H102	H	0.586689	-0.259284	-0.335406
H103	H	0.645300	-0.269985	-0.386242
H104	H	0.569682	-0.234360	-0.476821
H105	H	0.511073	-0.223633	-0.425975
H106	H	0.575366	-0.158030	-0.422455
C107	C	1.095930	-0.982732	-0.389851
C108	C	1.056469	-0.929123	-0.438903
C109	C	1.101413	-0.886424	-0.484111
H110	H	1.119818	-1.026589	-0.413821
H111	H	1.129292	-0.946260	-0.363269
H112	H	1.023119	-0.965593	-0.465482
H113	H	1.032582	-0.885250	-0.414953
H114	H	1.134775	-0.849951	-0.457530
H115	H	1.125299	-0.930287	-0.508077
H116	H	1.074646	-0.850039	-0.517394
C117	C	1.065118	-0.404395	-0.689959
C118	C	1.054443	-0.313897	-0.676575
C119	C	1.100359	-0.260298	-0.713805
H120	H	1.056299	-0.414576	-0.738903
H121	H	1.112331	-0.419236	-0.675336
H122	H	1.007242	-0.299061	-0.691203
H123	H	1.063268	-0.303688	-0.627638
H124	H	1.147572	-0.275139	-0.699182
H125	H	1.091536	-0.270486	-0.762747
H126	H	1.093127	-0.198890	-0.704724
H127	H	0.384155	-0.619392	-0.173742
H128	H	0.908808	-0.586288	-1.008204
C129	C	0.240613	-0.627290	-0.167023
C130	C	0.168541	-0.611959	-0.180286
C131	C	0.131062	-0.665271	-0.134391
H132	H	0.255121	-0.612381	-0.119810
H133	H	0.249562	-0.688770	-0.174118
H134	H	0.159597	-0.550493	-0.173185
H135	H	0.154012	-0.626873	-0.227490
H136	H	0.140011	-0.726751	-0.141486
H137	H	0.145576	-0.650357	-0.087181
H138	H	0.082157	-0.654882	-0.143388
C139	C	0.879401	-0.819819	-0.172753
C140	C	0.839094	-0.877167	-0.132331
C141	C	0.798021	-0.826086	-0.091122
H142	H	0.849102	-0.783035	-0.202432
H143	H	0.909186	-0.783059	-0.142529
H144	H	0.809312	-0.913912	-0.162552
H145	H	0.869376	-0.913952	-0.102638
H146	H	0.827807	-0.789326	-0.060897
H147	H	0.767726	-0.789304	-0.120806
H148	H	0.770673	-0.864989	-0.063685
C149	C	1.100102	-0.363822	-0.867401
C150	C	1.139655	-0.317793	-0.915817
C151	C	1.188730	-0.260664	-0.879822
H152	H	1.130532	-0.398193	-0.835953
H153	H	1.076127	-0.321905	-0.841597
H154	H	1.163630	-0.359704	-0.941610
H155	H	1.109245	-0.283404	-0.947267
H156	H	1.164755	-0.218748	-0.854017
H157	H	1.219154	-0.295043	-0.848375
H158	H	1.215568	-0.229421	-0.912667
C159	C	1.093519	-0.371455	-1.020626
C160	C	1.080294	-0.386792	-1.092700
C161	C	1.126140	-0.333400	-1.130173
H162	H	1.140746	-0.386290	-1.006105
H163	H	1.086352	-0.309990	-1.011685
H164	H	1.087466	-0.448243	-1.101637
H165	H	1.033075	-0.371952	-1.107243
H166	H	1.118973	-0.271935	-1.121231
H167	H	1.173365	-0.348239	-1.115645
H168	H	1.117169	-0.343792	-1.179079
C169	C	1.087699	-1.178620	-0.381239
C170	C	1.132184	-1.232737	-0.337219
C171	C	1.173274	-1.284115	-0.378197
H172	H	1.115171	-1.139944	-0.408718
H173	H	1.057921	-1.215454	-0.411411
H174	H	1.161959	-1.195907	-0.307059
H175	H	1.104730	-1.271431	-0.309740
H176	H	1.143495	-1.320949	-0.408369
H177	H	1.200741	-1.245432	-0.405675
H178	H	1.203456	-1.320845	-0.348336
H179	H	1.046792	-0.849355	-0.340488
C180	C	0.726845	-0.371872	-0.387281
C181	C	0.705190	-0.394089	-0.456761
C182	C	0.742421	-0.340807	-0.502883
H183	H	0.775781	-0.382130	-0.378482
H184	H	0.717842	-0.310393	-0.380243
H185	H	0.714198	-0.455552	-0.463796
H186	H	0.656259	-0.383826	-0.465582
H187	H	0.733418	-0.279329	-0.495845
H188	H	0.791355	-0.351070	-0.494077
H189	H	0.727728	-0.355868	-0.550030
C190	C	0.908145	-1.160548	-0.201467
C191	C	0.913426	-1.253670	-0.206709
C192	C	0.868445	-1.296421	-0.161565
H193	H	0.861064	-1.143501	-0.214328
H194	H	0.921143	-1.143436	-0.154419
H195	H	0.900424	-1.270775	-0.253747
H196	H	0.960497	-1.270743	-0.193842
H197	H	0.881442	-1.279309	-0.114517
H198	H	0.821366	-1.279367	-0.174431
H199	H	0.872026	-1.359608	-0.165111
H200	H	0.883283	-1.003773	-0.176658
