data_functionalizedCrystal
_audit_creation_method	'MofGen! by Chris Wilmer'
_symmetry_space_group_name_H-M	'P1'
_symmetry_Int_Tables_number	1
_symmetry_cell_setting	triclinic
loop_
_symmetry_equiv_pos_as_xyz
  x,y,z
_cell_length_a	11.169417
_cell_length_b	13.897448
_cell_length_c	13.897441
_cell_angle_alpha	89.969401
_cell_angle_beta	89.981458
_cell_angle_gamma	90.018571
loop_
_atom_site_label
_atom_site_type_symbol
_atom_site_fract_x
_atom_site_fract_y
_atom_site_fract_z
Zn1	Zn	1.834886	-0.383962	-0.545325
Zn2	Zn	2.168219	-0.050628	-0.211991
Zn3	Zn	2.501552	0.282705	0.121342
Zn4	Zn	1.834754	-0.545283	-0.384026
Zn5	Zn	2.168087	-0.211950	-0.050693
Zn6	Zn	2.501421	0.121383	0.282640
Zn7	Zn	1.634176	-0.384006	-0.384049
Zn8	Zn	1.967510	-0.050673	-0.050716
Zn9	Zn	2.300843	0.282660	0.282617
Zn10	Zn	1.634153	-0.545219	-0.545285
Zn11	Zn	1.967487	-0.211885	-0.211952
Zn12	Zn	2.300820	0.121448	0.121382
O13	O	1.734492	-0.464617	-0.464671
O14	O	2.067826	-0.131284	-0.131338
O15	O	2.401159	0.202049	0.201995
O16	O	2.002818	-0.405369	-0.523935
O17	O	2.336151	-0.072036	-0.190602
O18	O	2.669485	0.261297	0.142732
O19	O	1.808101	-0.523935	-0.249048
O20	O	2.141434	-0.190602	0.084286
O21	O	2.474768	0.142731	0.417619
O22	O	1.660865	-0.249019	-0.405469
O23	O	1.994199	0.084315	-0.072136
O24	O	2.327532	0.417648	0.261197
O25	O	2.002721	-0.523892	-0.405430
O26	O	2.336054	-0.190558	-0.072096
O27	O	2.669388	0.142775	0.261237
O28	O	1.808326	-0.248986	-0.523958
O29	O	2.141659	0.084347	-0.190624
O30	O	2.474993	0.417681	0.142709
O31	O	1.660738	-0.405446	-0.249065
O32	O	1.994071	-0.072112	0.084269
O33	O	2.327404	0.261221	0.417602
O34	O	1.466223	-0.405383	-0.405431
O35	O	1.799557	-0.072050	-0.072097
O36	O	2.132890	0.261283	0.261236
O37	O	1.660827	-0.523782	-0.680272
O38	O	1.994160	-0.190449	-0.346939
O39	O	2.327493	0.142885	-0.013605
O40	O	1.466207	-0.523825	-0.523890
O41	O	1.799540	-0.190492	-0.190556
O42	O	2.132873	0.142841	0.142777
O43	O	1.808304	-0.405307	-0.680301
O44	O	2.141637	-0.071974	-0.346968
O45	O	2.474971	0.261360	-0.013635
O46	O	1.808079	-0.680256	-0.405391
O47	O	2.141412	-0.346923	-0.072058
O48	O	2.474746	-0.013590	0.261276
O49	O	1.660699	-0.680209	-0.523867
O50	O	1.994032	-0.346876	-0.190534
O51	O	2.327365	-0.013542	0.142799
C52	C	1.422668	-0.464603	-0.464659
C53	C	1.756001	-0.131270	-0.131326
C54	C	2.089334	0.202064	0.202008
C55	C	1.289268	-0.464620	-0.464676
C56	C	1.622601	-0.131286	-0.131343
C57	C	1.955934	0.202047	0.201990
C58	C	1.734405	-0.715232	-0.464643
C59	C	2.067738	-0.381899	-0.131310
C60	C	2.401071	-0.048565	0.202023
C61	C	1.734477	-0.822446	-0.464664
C62	C	2.067810	-0.489112	-0.131330
C63	C	2.401144	-0.155779	0.202003
C64	C	1.734603	-1.018741	-0.464724
C65	C	2.067936	-0.685407	-0.131391
C66	C	2.401270	-0.352074	0.201942
C67	C	1.734530	-0.909508	-0.464693
C68	C	2.067863	-0.576175	-0.131360
C69	C	2.401196	-0.242842	0.201973
C70	C	2.047535	-0.464633	-0.464684
C71	C	2.380868	-0.131300	-0.131351
C72	C	2.714201	0.202034	0.201982
C73	C	2.180935	-0.464639	-0.464690
C74	C	2.514268	-0.131306	-0.131357
C75	C	2.847601	0.202027	0.201977
C76	C	1.734577	-0.464532	-0.716264
C77	C	2.067911	-0.131199	-0.382931
C78	C	2.401244	0.202134	-0.049598
C79	C	1.734614	-0.464496	-0.823478
C80	C	2.067947	-0.131163	-0.490145
C81	C	2.401280	0.202171	-0.156812
C82	C	1.734613	-0.213024	-0.464720
C83	C	2.067946	0.120309	-0.131387
C84	C	2.401280	0.453642	0.201946
C85	C	1.734664	-0.105811	-0.464741
C86	C	2.067998	0.227523	-0.131408
C87	C	2.401331	0.560856	0.201925
C88	C	1.734646	-0.464431	-1.019774
C89	C	2.067980	-0.131097	-0.686440
C90	C	2.401313	0.202236	-0.353107
C91	C	1.734625	-0.464470	-0.910541
C92	C	2.067958	-0.131136	-0.577208
C93	C	2.401291	0.202197	-0.243874
C94	C	1.734477	-0.464633	-0.214057
C95	C	2.067810	-0.131299	0.119276
C96	C	2.401143	0.202034	0.452610
C97	C	1.734673	-0.464397	-0.106844
C98	C	2.068006	-0.131064	0.226490
C99	C	2.401339	0.202269	0.559823
