data_functionalizedCrystal
_audit_creation_method	'MofGen! by Chris Wilmer'
_symmetry_space_group_name_H-M	'P1'
_symmetry_Int_Tables_number	1
_symmetry_cell_setting	triclinic
loop_
_symmetry_equiv_pos_as_xyz
  x,y,z
_cell_length_a	21.395362
_cell_length_b	13.897448
_cell_length_c	21.395355
_cell_angle_alpha	89.984371
_cell_angle_beta	89.956060
_cell_angle_gamma	90.033571
loop_
_atom_site_label
_atom_site_type_symbol
_atom_site_fract_x
_atom_site_fract_y
_atom_site_fract_z
Zn1	Zn	0.957916	-0.383718	-0.354598
Zn2	Zn	0.957842	-0.544997	-0.249826
Zn3	Zn	0.853131	-0.383763	-0.249799
Zn4	Zn	0.853124	-0.545017	-0.354531
O5	O	0.905503	-0.464374	-0.302189
O6	O	1.045584	-0.405085	-0.340739
O7	O	0.943924	-0.523620	-0.162145
O8	O	0.867065	-0.248775	-0.263718
O9	O	1.045530	-0.523576	-0.263764
O10	O	0.944050	-0.248742	-0.340714
O11	O	0.866993	-0.405161	-0.162125
O12	O	0.765452	-0.405181	-0.263653
O13	O	0.867053	-0.523610	-0.442218
O14	O	0.765447	-0.523654	-0.340599
O15	O	0.944043	-0.405104	-0.442267
O16	O	0.943918	-0.679982	-0.263698
O17	O	0.866981	-0.679996	-0.340624
C18	C	0.742716	-0.464425	-0.302116
C19	C	0.673074	-0.464470	-0.302100
C20	C	0.640375	-0.526240	-0.342105
C21	C	0.574940	-0.526217	-0.342133
C22	C	0.542206	-0.464433	-0.302144
C23	C	0.574913	-0.402650	-0.262136
C24	C	0.640348	-0.402669	-0.262114
C25	C	0.438480	-0.456662	-0.245739
C26	C	0.373047	-0.456650	-0.245760
C27	C	0.340385	-0.464370	-0.302214
C28	C	0.373165	-0.472121	-0.358647
C29	C	0.438599	-0.472140	-0.358625
C30	C	0.471254	-0.464405	-0.302164
C31	C	0.236734	-0.526118	-0.342253
C32	C	0.171297	-0.526088	-0.342282
C33	C	0.171272	-0.402526	-0.262279
C34	C	0.236707	-0.402551	-0.262255
C35	C	0.269434	-0.464352	-0.302242
C36	C	0.905458	-0.714988	-0.302170
C37	C	0.905495	-0.822202	-0.302184
C38	C	0.905561	-1.018497	-0.302223
C39	C	0.905523	-0.909265	-0.302203
C40	C	1.068927	-0.464323	-0.302262
C41	C	1.138568	-0.464302	-0.302293
C42	C	0.905555	-0.464354	-0.465612
C43	C	0.905578	-0.464346	-0.535253
C44	C	0.905566	-0.212781	-0.302221
C45	C	0.905593	-0.105567	-0.302234
C46	C	0.945665	-0.402637	-0.567993
C47	C	0.945664	-0.402596	-0.633429
C48	C	0.905582	-0.464280	-0.666122
C49	C	0.865488	-0.525993	-0.633374
C50	C	0.865485	-0.526026	-0.567940
C51	C	0.900619	-0.551135	-0.769788
C52	C	0.900626	-0.551103	-0.835221
C53	C	0.905586	-0.464178	-0.867942
C54	C	0.910553	-0.377282	-0.835223
C55	C	0.910550	-0.377315	-0.769788
C56	C	0.905580	-0.464251	-0.737074
C57	C	0.945675	-0.402419	-0.971635
C58	C	0.945669	-0.402376	-1.037072
C59	C	0.865496	-0.525782	-1.037016
C60	C	0.865498	-0.525817	-0.971580
C61	C	0.905591	-0.464137	-0.938894
C62	C	0.905488	-0.464324	-0.139401
C63	C	0.905587	-0.464060	-0.069760
H64	H	0.465285	-0.478449	-0.404575
N65	N	0.986613	-0.339546	-0.666871
N66	N	1.022402	-0.284476	-0.637680
H67	H	1.051322	-0.239945	-0.661296
N68	N	0.673762	-0.339586	-0.221243
N69	N	0.732185	-0.339618	-0.221225
H70	H	0.755786	-0.295068	-0.192359
H71	H	0.896586	-0.621860	-0.861857
H72	H	0.832851	-0.576214	-0.659997
H73	H	0.896413	-0.621902	-0.743152
N74	N	0.824545	-0.588846	-0.938135
N75	N	0.766732	-0.582457	-0.945402
H76	H	0.737804	-0.626972	-0.921782
N77	N	0.339580	-0.448724	-0.188111
N78	N	0.346889	-0.376346	-0.154218
H79	H	0.323256	-0.370746	-0.113501
H80	H	0.978312	-0.352120	-1.063727
N81	N	0.824528	-0.589053	-0.534494
N82	N	0.766715	-0.582662	-0.541757
H83	H	0.737788	-0.627176	-0.518135
N84	N	0.915624	-0.288551	-0.736375
N85	N	0.920055	-0.210942	-0.765591
H86	H	0.923636	-0.148251	-0.741994
N87	N	0.471830	-0.448758	-0.188064
N88	N	0.442559	-0.441841	-0.137684
H89	H	0.466111	-0.436254	-0.096952
H90	H	0.667017	-0.576562	-0.374666
H91	H	0.548311	-0.576517	-0.374713
N92	N	0.915624	-0.288475	-0.868629
N93	N	0.962597	-0.236153	-0.861357
H94	H	0.966180	-0.173436	-0.884952
N95	N	0.270179	-0.589232	-0.383093
N96	N	0.306636	-0.650659	-0.360965
H97	H	0.330258	-0.695233	-0.389809
N98	N	0.541471	-0.339538	-0.221296
N99	N	0.483048	-0.339530	-0.221321
H100	H	0.459428	-0.294952	-0.192479
H101	H	0.144621	-0.352216	-0.229722
N102	N	0.339801	-0.480036	-0.416311
N103	N	0.281378	-0.480029	-0.416325
H104	H	0.257812	-0.485630	-0.457048
H105	H	0.263332	-0.352256	-0.229675
N106	N	0.137903	-0.589186	-0.383159
N107	N	0.167134	-0.644354	-0.418856
H108	H	0.143549	-0.688918	-0.447727
N109	N	0.824551	-0.588777	-1.070412
N110	N	0.824555	-0.588736	-1.128835
H111	H	0.795634	-0.633224	-1.152425
H112	H	0.978317	-0.352190	-0.945020
N113	N	0.986622	-0.339631	-0.534616
N114	N	1.022413	-0.284538	-0.563861
H115	H	1.051340	-0.240038	-0.540288
