data_functionalizedCrystal
_audit_creation_method	'MofGen! by Chris Wilmer'
_symmetry_space_group_name_H-M	'P1'
_symmetry_Int_Tables_number	1
_symmetry_cell_setting	triclinic
loop_
_symmetry_equiv_pos_as_xyz
  x,y,z
_cell_length_a	15.538191
_cell_length_b	16.109301
_cell_length_c	14.586319
_cell_angle_alpha	90.005214
_cell_angle_beta	89.995179
_cell_angle_gamma	114.633213
loop_
_atom_site_label
_atom_site_type_symbol
_atom_site_fract_x
_atom_site_fract_y
_atom_site_fract_z
O1	O	1.249994	0.270055	-0.076243
O2	O	0.975705	0.174048	-0.076245
O3	O	1.120384	0.345355	-0.076234
O4	O	1.105315	0.098748	-0.076253
O5	O	1.120374	0.345353	0.076246
O6	O	0.975695	0.174046	0.076236
O7	O	1.249984	0.270054	0.076238
Cu8	Cu	1.112839	0.222050	0.090160
Cu9	Cu	1.112850	0.222052	-0.090167
O10	O	1.105305	0.098747	0.076227
C11	C	0.940602	0.164002	-0.000005
C12	C	0.836019	0.134081	-0.000005
N13	N	1.112837	0.222052	0.216991
C14	C	1.119769	0.376145	0.000006
C15	C	1.117939	0.467888	0.000008
C16	C	0.548320	0.431335	0.000003
C17	C	0.450045	0.403199	0.000000
C18	C	0.427554	0.244941	-0.000012
C19	C	0.525828	0.273063	-0.000004
C20	C	0.586204	0.366262	0.000002
C21	C	0.563712	0.207990	-0.000005
C22	C	0.661978	0.236111	-0.000003
C23	C	0.722360	0.329305	0.000001
C24	C	0.684470	0.394382	0.000004
C25	C	0.503335	0.114793	-0.000018
C26	C	0.541219	0.049719	-0.000019
C27	C	0.639487	0.077840	-0.000010
C28	C	0.699869	0.171034	-0.000007
C29	C	0.677377	0.012763	-0.000014
C30	C	0.775643	0.040883	-0.000012
C31	C	0.798135	0.199155	-0.000004
C32	C	1.285087	0.280100	-0.000004
C33	C	1.389670	0.310020	-0.000010
C34	C	1.105920	0.067957	-0.000015
C35	C	1.107750	-0.023786	-0.000023
C36	C	1.199533	0.714764	-0.000006
C37	C	1.197806	0.800964	-0.000014
C38	C	1.026149	0.729329	-0.000012
C39	C	1.027877	0.643131	-0.000011
C40	C	1.114572	0.635852	-0.000003
C41	C	1.111117	0.808250	-0.000012
C42	C	1.109244	0.901711	-0.000020
C43	C	1.116446	0.542385	0.000003
N44	N	1.112859	0.222059	-0.216998
C45	C	1.176922	0.297894	0.452002
C46	C	1.176925	0.297897	0.547984
C47	C	1.048767	0.146212	0.547984
C48	C	1.048761	0.146212	0.452004
C49	C	1.112844	0.222054	0.404016
C50	C	1.112853	0.222056	0.595977
C51	C	1.112855	0.222059	0.700044
C52	C	1.112840	0.222053	0.299942
H53	H	0.847297	0.275046	0.000006
H54	H	1.229102	0.359653	0.587052
H55	H	1.266990	0.865214	-0.000018
C56	C	0.817324	-0.030690	-0.000011
H57	H	0.884495	-0.000593	-0.000017
H58	H	0.796598	-0.067815	0.053160
H59	H	0.796605	-0.067813	-0.053193
C60	C	0.930793	0.737341	-0.000007
H61	H	0.941931	0.799979	0.000002
H62	H	0.895809	0.708494	-0.053177
H63	H	0.895816	0.708502	0.053176
H64	H	0.802374	0.352199	-0.000010
C65	C	1.247408	0.381314	0.399214
H66	H	1.238236	0.370450	0.335179
H67	H	1.237202	0.433729	0.414950
H68	H	1.310278	0.391216	0.414939
C69	C	0.408371	0.474782	0.000006
H70	H	0.341200	0.444689	-0.000003
H71	H	0.429093	0.511908	0.053180
H72	H	0.429100	0.511903	-0.053173
C73	C	0.978291	0.062788	0.600774
H74	H	0.987478	0.073644	0.664809
H75	H	0.915420	0.052871	0.585056
H76	H	0.988512	0.010378	0.585032
C77	C	0.934415	0.556322	-0.000005
H78	H	0.882536	0.573001	0.000004
H79	H	0.931524	0.521203	-0.053177
H80	H	0.931524	0.521214	0.053176
C81	C	0.474802	-0.052791	-0.000021
H82	H	0.410852	-0.060221	-0.000016
H83	H	0.486290	-0.080704	-0.053191
H84	H	0.486283	-0.080690	0.053163
C85	C	0.750889	0.496899	0.000007
H86	H	0.714255	0.531631	0.000002
H87	H	0.789692	0.511161	0.053177
H88	H	0.789687	0.511150	-0.053176
C89	C	0.614739	0.533852	0.000006
H90	H	0.578105	0.568584	0.000001
H91	H	0.653541	0.548114	0.053176
H92	H	0.653537	0.548103	-0.053178
H93	H	0.996576	0.084453	0.412931
H94	H	0.423321	0.091900	-0.000023
C95	C	0.361137	0.142430	-0.000013
H96	H	0.297186	0.135000	-0.000008
H97	H	0.372624	0.114517	-0.053183
H98	H	0.372617	0.114532	0.053170
H99	H	0.628205	-0.063119	-0.000028
C100	C	1.294893	0.706758	-0.000008
H101	H	1.345244	0.766104	-0.000020
H102	H	1.299138	0.674627	0.053164
H103	H	1.299133	0.674618	-0.053189
