data_functionalizedCrystal
_audit_creation_method	'MofGen! by Chris Wilmer'
_symmetry_space_group_name_H-M	'P1'
_symmetry_Int_Tables_number	1
_symmetry_cell_setting	triclinic
loop_
_symmetry_equiv_pos_as_xyz
  x,y,z
_cell_length_a	14.044220
_cell_length_b	14.044220
_cell_length_c	22.610064
_cell_angle_alpha	89.990485
_cell_angle_beta	89.998097
_cell_angle_gamma	93.188878
loop_
_atom_site_label
_atom_site_type_symbol
_atom_site_fract_x
_atom_site_fract_y
_atom_site_fract_z
O1	O	-1.277165	-0.230146	-0.049124
O2	O	-1.000493	-0.221841	-0.049139
O3	O	-1.134676	-0.087658	-0.049126
O4	O	-1.142982	-0.364329	-0.049137
O5	O	-1.134670	-0.087695	0.049243
O6	O	-1.000487	-0.221877	0.049230
O7	O	-1.277158	-0.230183	0.049245
Zn8	Zn	-1.138821	-0.226036	0.064856
Zn9	Zn	-1.138830	-0.225988	-0.064750
O10	O	-1.142975	-0.364366	0.049232
C11	C	-0.964868	-0.218223	0.000044
C12	C	-0.858725	-0.207379	0.000038
N13	N	-1.138836	-0.225948	-0.153202
C14	C	-1.131037	-0.052054	0.000059
C15	C	-1.120193	0.054088	0.000059
C16	C	-1.312783	-0.233800	0.000061
C17	C	-1.418926	-0.244645	0.000063
C18	C	-0.664388	-0.187553	0.000051
C19	C	-0.613258	-0.264467	0.000050
C20	C	-0.505122	-0.253435	0.000057
C21	C	-0.772534	-0.198583	0.000044
C22	C	-1.146614	-0.399969	0.000046
C23	C	-1.157459	-0.506112	0.000042
C24	C	-1.100366	0.248426	0.000049
C25	C	-1.177281	0.299556	0.000052
C26	C	-1.166249	0.407692	0.000046
C27	C	-1.111397	0.140280	0.000055
N28	N	-1.138822	-0.226069	0.153308
C29	C	-1.079378	-0.285404	0.438151
C30	C	-1.079376	-0.285413	0.376231
O31	O	-1.028809	-0.335902	0.344207
N32	N	-1.138812	-0.226030	0.345261
C33	C	-1.198247	-0.166627	0.376214
O34	O	-1.248801	-0.116117	0.344186
C35	C	-1.198243	-0.166614	0.438133
C36	C	-1.138810	-0.226008	0.469099
C37	C	-1.019949	-0.344793	0.469118
C38	C	-1.019952	-0.344785	0.531033
C39	C	-1.079384	-0.285389	0.561982
C40	C	-1.138813	-0.226000	0.531015
C41	C	-1.257672	-0.107206	0.469084
C42	C	-1.257662	-0.107198	0.531007
C43	C	-1.198229	-0.166592	0.561974
C44	C	-1.198249	-0.166595	0.623879
N45	N	-1.138813	-0.225979	0.654849
C46	C	-1.079380	-0.285375	0.623901
C47	C	-1.198249	-0.166658	0.246180
C48	C	-1.198258	-0.166676	0.184262
C49	C	-1.079386	-0.285461	0.184284
C50	C	-1.079382	-0.285448	0.246203
C51	C	-1.138813	-0.226041	0.277150
C52	C	-1.079393	-0.285355	0.753928
C53	C	-1.079404	-0.285344	0.815849
C54	C	-1.198272	-0.166556	0.815822
C55	C	-1.198265	-0.166569	0.753907
C56	C	-1.138817	-0.225972	0.722961
O57	O	-1.248787	-0.116130	0.655942
O58	O	-1.028826	-0.335868	0.655937
H59	H	-0.650697	-0.338600	0.000044
F60	F	-1.274179	0.250623	0.000062
F61	F	-1.003475	0.297359	0.000041
F62	F	-0.615455	-0.090661	0.000057
F63	F	-1.016147	-0.348564	0.848804
F64	F	-1.016122	-0.348578	0.721002
F65	F	-0.956691	-0.407995	0.563985
H66	H	-0.971548	-0.393160	0.443925
F67	F	-1.320916	-0.043965	0.563940
H68	H	-1.246670	-0.118215	0.728693
F69	F	-1.016125	-0.348662	0.279154
H70	H	-1.030992	-0.333824	0.159074
F71	F	-1.261527	-0.103474	0.151311
F72	F	-1.261514	-0.103433	0.279112
H73	H	-1.306067	-0.058842	0.443880
F74	F	-1.261524	-0.103346	0.848770
