data_functionalizedCrystal
_audit_creation_method	'MofGen! by Chris Wilmer'
_symmetry_space_group_name_H-M	'P1'
_symmetry_Int_Tables_number	1
_symmetry_cell_setting	triclinic
loop_
_symmetry_equiv_pos_as_xyz
  x,y,z
_cell_length_a	12.759401
_cell_length_b	12.759399
_cell_length_c	12.759393
_cell_angle_alpha	89.973195
_cell_angle_beta	89.979434
_cell_angle_gamma	90.012458
loop_
_atom_site_label
_atom_site_type_symbol
_atom_site_fract_x
_atom_site_fract_y
_atom_site_fract_z
Zn1	Zn	-1.606270	0.418266	0.594037
Zn2	Zn	-1.606162	0.593981	0.418368
Zn3	Zn	-1.430568	0.418311	0.418373
Zn4	Zn	-1.430562	0.593898	0.594006
O5	O	-1.518390	0.506114	0.506196
O6	O	-1.753276	0.441591	0.570744
O7	O	-1.582827	0.570732	0.271348
O8	O	-1.453923	0.271284	0.441690
O9	O	-1.753197	0.570688	0.441681
O10	O	-1.583010	0.271251	0.570749
O11	O	-1.453819	0.441669	0.271351
O12	O	-1.283546	0.441587	0.441660
O13	O	-1.453912	0.570546	0.741032
O14	O	-1.283542	0.570590	0.570698
O15	O	-1.583004	0.441510	0.741054
O16	O	-1.582821	0.740991	0.441652
O17	O	-1.453808	0.740930	0.570693
C18	C	-1.245423	0.506085	0.506177
C19	C	-1.128646	0.506098	0.506194
C20	C	-1.073826	0.438997	0.573500
C21	C	-0.964102	0.439003	0.573505
C22	C	-0.964028	0.573222	0.438895
C23	C	-1.073750	0.573210	0.438886
C24	C	-1.518330	0.779081	0.506192
C25	C	-1.518401	0.895858	0.506225
C26	C	-1.518469	0.506013	0.780229
C27	C	-1.518503	0.505970	0.897006
C28	C	-0.792424	0.506134	0.506212
C29	C	-0.909200	0.506117	0.506209
C30	C	-1.585655	0.950717	0.439114
C31	C	-1.585724	1.060441	0.439157
C32	C	-1.451275	1.060437	0.573425
C33	C	-1.451212	0.950715	0.573387
C34	C	-1.518483	1.232081	0.506241
C35	C	-1.518533	1.115304	0.506307
C36	C	-1.518373	0.506139	0.233229
C37	C	-1.518543	0.505886	0.116452
C38	C	-1.585726	0.438770	0.951881
C39	C	-1.585743	0.438725	1.061606
C40	C	-1.451312	0.573088	1.061570
C41	C	-1.451290	0.573128	0.951847
H42	H	-1.118386	0.627853	0.384071
H43	H	-0.919318	0.627863	0.384097
O44	O	-1.651226	1.113583	0.374016
C45	C	-1.755893	1.086638	0.397105
H46	H	-1.757951	1.006948	0.437488
H47	H	-1.791309	1.148314	0.451164
C48	C	-1.817072	1.179417	0.245152
C49	C	-1.819602	1.081535	0.294743
H50	H	-1.856374	1.176274	0.182012
H51	H	-1.746557	1.197574	0.229597
H52	H	-1.846584	1.230803	0.290212
H53	H	-1.790079	1.030154	0.249689
H54	H	-1.890114	1.063370	0.310288
H55	H	-1.396445	0.906046	0.628042
O56	O	-1.127268	0.373750	0.638728
C57	C	-1.190697	0.305795	0.579020
H58	H	-1.207099	0.342753	0.499339
H59	H	-1.148412	0.227929	0.567608
C60	C	-1.274801	0.241434	0.734719
C61	C	-1.294954	0.286831	0.636856
H62	H	-1.339110	0.229731	0.770395
H63	H	-1.232065	0.287213	0.774946
H64	H	-1.239561	0.176551	0.725194
H65	H	-1.330181	0.351718	0.646382
H66	H	-1.337698	0.241062	0.596631
O67	O	-1.386129	0.638293	1.115007
C68	C	-1.400544	0.623833	1.223618
H69	H	-1.481640	0.589431	1.238621
H70	H	-1.338253	0.567865	1.254753
C71	C	-1.291287	0.772368	1.261511
C72	C	-1.390893	0.730123	1.279937
H73	H	-1.285329	0.837930	1.296252
H74	H	-1.281571	0.782108	1.188337
H75	H	-1.239389	0.725718	1.287456
H76	H	-1.442789	0.776767	1.253980
H77	H	-1.400618	0.720393	1.353108
H78	H	-1.396571	1.105116	0.628104
H79	H	-1.396541	0.627849	0.907167
O80	O	-1.650775	0.897380	0.373770
C81	C	-1.590961	0.833996	0.305854
H82	H	-1.508237	0.867133	0.299301
H83	H	-1.587277	0.750816	0.338304
C84	C	-1.743950	0.791662	0.204728
C85	C	-1.642349	0.832366	0.196673
H86	H	-1.775650	0.790651	0.137381
H87	H	-1.784249	0.834361	0.250486
H88	H	-1.740866	0.722349	0.231774
H89	H	-1.645435	0.901682	0.169640
H90	H	-1.602051	0.789678	0.150907
H91	H	-1.640482	0.384003	1.106280
H92	H	-1.640452	0.384083	0.907233
H93	H	-0.919472	0.384361	0.628310
