data_functionalizedCrystal
_audit_creation_method	'MofGen! by Chris Wilmer'
_symmetry_space_group_name_H-M	'P1'
_symmetry_Int_Tables_number	1
_symmetry_cell_setting	triclinic
loop_
_symmetry_equiv_pos_as_xyz
  x,y,z
_cell_length_a	6.817900
_cell_length_b	19.551823
_cell_length_c	10.992410
_cell_angle_alpha	94.485119
_cell_angle_beta	108.764651
_cell_angle_gamma	101.663376
loop_
_atom_site_label
_atom_site_type_symbol
_atom_site_fract_x
_atom_site_fract_y
_atom_site_fract_z
V1	V	-4.078420	-0.096675	-0.401194
O2	O	-4.074098	0.004646	-0.392939
O3	O	-4.020787	-0.191690	-0.399044
O4	O	-4.056564	-0.095188	-0.575897
O5	O	-4.038073	-0.092525	-0.214862
V6	V	-4.559806	-0.084556	-0.378835
O7	O	-4.344369	-0.123259	-0.450240
O8	O	-4.744055	-0.057972	-0.329788
O9	O	-4.394233	0.010459	-0.380984
O10	O	-4.681525	-0.185876	-0.387090
O11	O	-4.717550	-0.088706	-0.565167
O12	O	-4.358456	-0.086043	-0.204132
C13	C	-3.862682	-0.214853	-0.392869
C14	C	-3.897024	-0.292529	-0.392276
C15	C	-4.095899	-0.332575	-0.398422
C16	C	-4.128173	-0.405561	-0.397879
C17	C	-3.961548	-0.438496	-0.391162
C18	C	-3.762648	-0.398442	-0.385022
C19	C	-3.730386	-0.325458	-0.385579
C20	C	-3.835941	-0.544984	-0.309690
C21	C	-3.868206	-0.617965	-0.309125
C22	C	-4.061050	-0.663602	-0.389449
C23	C	-4.221650	-0.636247	-0.470323
C24	C	-4.189388	-0.563263	-0.470880
C25	C	-3.996510	-0.517634	-0.390558
C26	C	-4.294934	-0.782788	-0.395008
C27	C	-4.327205	-0.855776	-0.394472
C28	C	-3.961667	-0.848654	-0.381602
C29	C	-3.929408	-0.775669	-0.382152
C30	C	-4.096046	-0.742740	-0.388849
C31	C	-3.908318	-0.091754	-0.618460
C32	C	-3.971670	-0.091166	-0.761285
C33	C	-3.840776	-0.085817	-0.956375
C34	C	-3.774892	-0.086717	-0.807897
C35	C	-4.144154	-0.160061	-0.838817
C36	C	-4.208693	-0.159452	-0.987380
C37	C	-4.135899	-0.026047	-0.948519
C38	C	-4.065311	-0.025720	-0.799504
C39	C	-4.215678	0.033618	-0.387156
C40	C	-4.160576	0.111294	-0.387757
C41	C	-4.170042	-0.089479	-0.161562
C42	C	-4.085929	-0.090063	-0.018736
H43	H	-4.290126	-0.438172	-0.402883
H44	H	-3.798792	-0.131813	-1.004653
C45	C	-4.257534	-0.024575	-0.755425
N46	N	-4.402272	-0.023701	-0.722178
H47	H	-3.644796	-0.037179	-0.754249
H48	H	-4.320154	-0.540994	-0.536731
C49	C	-3.691575	-0.648046	-0.220123
N50	N	-3.558540	-0.670700	-0.153071
H51	H	-3.940945	0.025245	-0.746830
C52	C	-4.376440	-0.029424	-1.003724
N53	N	-4.557614	-0.031973	-1.045314
C54	C	-3.623792	-0.494789	-0.221318
N55	N	-3.464007	-0.456984	-0.154757
C56	C	-4.344429	-0.167825	-0.799951
N57	N	-4.495273	-0.173672	-0.770672
C58	C	-4.163380	-0.224931	-1.050297
N59	N	-4.129236	-0.274250	-1.097680
H60	H	-4.388475	-0.165443	-1.030049
C61	C	-4.545994	-0.899827	-0.401237
N62	N	-4.710790	-0.933006	-0.406330
C63	C	-3.511594	-0.281405	-0.378806
N64	N	-3.346793	-0.248223	-0.373698
H65	H	-3.767460	-0.743062	-0.377138
H66	H	-4.378528	-0.673414	-0.535907
H67	H	-3.742058	-0.035938	-0.974894
C68	C	-4.058003	-0.225707	-0.804644
N69	N	-3.993100	-0.275149	-0.778908
C70	C	-4.478238	-0.746564	-0.402379
N71	N	-4.616304	-0.719281	-0.407929
C72	C	-4.023051	0.044632	-0.975578
N73	N	-3.938033	0.097864	-0.995958
H74	H	-3.626984	-0.425262	-0.379556
H75	H	-3.826001	-0.875470	-0.376141
H76	H	-4.231596	-0.305769	-0.403884
H77	H	-3.700429	-0.133352	-0.783372
