data_functionalizedCrystal
_audit_creation_method	'MofGen! by Chris Wilmer'
_symmetry_space_group_name_H-M	'P1'
_symmetry_Int_Tables_number	1
_symmetry_cell_setting	triclinic
loop_
_symmetry_equiv_pos_as_xyz
  x,y,z
_cell_length_a	14.519709
_cell_length_b	11.295483
_cell_length_c	12.837943
_cell_angle_alpha	94.533167
_cell_angle_beta	89.254542
_cell_angle_gamma	85.892680
loop_
_atom_site_label
_atom_site_type_symbol
_atom_site_fract_x
_atom_site_fract_y
_atom_site_fract_z
O1	O	1.241202	-0.098860	0.128949
O2	O	0.974110	-0.098895	0.144952
O3	O	1.101733	-0.098879	-0.013963
O4	O	1.113578	-0.098876	0.287865
O5	O	1.090522	0.099170	-0.000027
O6	O	0.962898	0.099154	0.158888
O7	O	1.229990	0.099189	0.142886
Cu8	Cu	1.095421	0.117255	0.152160
Cu9	Cu	1.108679	-0.116961	0.135678
O10	O	1.102367	0.099173	0.301801
C11	C	0.934080	0.000125	0.151174
C12	C	0.831507	0.000111	0.148938
N13	N	1.086102	0.281990	0.163751
N14	N	1.118005	-0.281696	0.124079
C15	C	0.455897	0.000165	0.140713
C16	C	0.560403	0.000150	0.142997
C17	C	0.643698	0.000137	0.144825
C18	C	0.748211	0.000124	0.147110
C19	C	1.270020	0.000167	0.136664
C20	C	1.372594	0.000173	0.138899
C21	C	1.185082	0.531292	0.040579
C22	C	1.178046	0.655955	0.049346
C23	C	1.064992	0.655981	0.190047
C24	C	1.072027	0.531318	0.181280
C25	C	1.132075	0.468978	0.106544
C26	C	1.139114	0.344313	0.097783
C27	C	1.026056	0.344341	0.238478
C28	C	1.019021	0.469004	0.247245
C29	C	1.111974	0.000149	0.333461
C30	C	1.123908	0.000152	0.448560
C31	C	1.092126	0.000142	-0.045623
C32	C	1.080193	0.000132	-0.160723
C33	C	0.980440	0.000111	0.689250
C34	C	0.991649	0.000112	0.797396
C35	C	1.157534	0.000147	0.773002
C36	C	1.146325	0.000146	0.664855
C37	C	1.057775	0.000129	0.622983
C38	C	1.046567	0.000137	0.514835
C39	C	1.212452	0.000163	0.490442
C40	C	1.223661	0.000164	0.598589
H41	H	1.188011	0.293557	0.036932
H42	H	0.928674	0.000096	0.851347
H43	H	1.016096	0.706754	0.250888
H44	H	1.229623	0.000235	0.807118
H45	H	0.970128	0.519776	0.308091
H46	H	1.295756	0.000182	0.632696
F47	F	1.294763	0.000185	0.419908
H48	H	1.233981	0.480534	-0.020267
F49	F	1.234461	0.722270	-0.020866
H50	H	0.982897	0.293591	0.292194
H51	H	0.974464	0.000134	0.480746
F52	F	0.886199	0.000111	0.644685
