data_functionalizedCrystal
_audit_creation_method	'MofGen! by Chris Wilmer'
_symmetry_space_group_name_H-M	'P1'
_symmetry_Int_Tables_number	1
_symmetry_cell_setting	triclinic
loop_
_symmetry_equiv_pos_as_xyz
  x,y,z
_cell_length_a	14.519731
_cell_length_b	15.538191
_cell_length_c	14.185569
_cell_angle_alpha	97.876313
_cell_angle_beta	103.180256
_cell_angle_gamma	114.519526
loop_
_atom_site_label
_atom_site_type_symbol
_atom_site_fract_x
_atom_site_fract_y
_atom_site_fract_z
O1	O	-1.154261	0.144815	0.083419
O2	O	-0.880905	0.159327	0.083420
O3	O	-1.070795	0.015034	0.083414
O4	O	-0.964370	0.289108	0.083425
O5	O	-1.126889	-0.027587	-0.083422
O6	O	-0.936999	0.116707	-0.083416
O7	O	-1.210355	0.102194	-0.083417
Cu8	Cu	-1.078798	0.105559	-0.098650
Cu9	Cu	-1.012461	0.155963	0.098653
O10	O	-1.020464	0.246487	-0.083411
C11	C	-0.874821	0.137337	0.000002
C12	C	-0.773126	0.135299	0.000003
C13	C	-1.109977	-0.041352	-0.000003
C14	C	-1.143142	-0.145867	-0.000001
C15	C	-1.216438	0.124185	0.000003
C16	C	-1.318131	0.126224	0.000009
C17	C	-0.690537	0.133645	0.000007
C18	C	-0.586924	0.131576	0.000007
C19	C	-0.504338	0.129934	0.000007
C20	C	-0.400717	0.127866	0.000009
C21	C	-0.981282	0.302874	0.000008
C22	C	-0.948114	0.407390	0.000013
N23	N	-1.125463	0.070106	-0.237423
C24	C	-1.277615	0.695758	-0.000000
C25	C	-1.246427	0.793969	0.000001
C26	C	-1.071002	0.816103	0.000002
C27	C	-1.102174	0.717894	0.000006
C28	C	-1.205482	0.657728	0.000004
C29	C	-1.030041	0.679863	0.000010
C30	C	-1.061213	0.581660	0.000009
C31	C	-1.164517	0.521488	0.000004
C32	C	-1.236654	0.559525	0.000003
C33	C	-0.926736	0.740029	0.000005
C34	C	-0.854603	0.701998	0.000009
C35	C	-0.885771	0.603796	0.000015
C36	C	-0.989076	0.543623	0.000010
C37	C	-0.813635	0.565759	0.000016
C38	C	-0.844806	0.467556	0.000015
C39	C	-1.020247	0.445421	0.000009
C40	C	-0.828717	0.295525	-0.605063
C41	C	-0.864070	0.268677	-0.710086
C42	C	-1.032227	0.140953	-0.710052
C43	C	-0.996887	0.167787	-0.605027
C44	C	-0.895131	0.245074	-0.552541
C45	C	-1.063301	0.117337	-0.552505
C46	C	-1.027965	0.144172	-0.447490
C47	C	-0.926215	0.221459	-0.394996
C48	C	-0.859796	0.271910	-0.447525
C49	C	-1.165059	0.040054	-0.604993
C50	C	-1.231473	-0.010397	-0.552471
C51	C	-1.196135	0.016435	-0.447454
C52	C	-1.094385	0.093721	-0.394960
C53	C	-1.262555	-0.034017	-0.394924
C54	C	-1.227219	-0.007181	-0.289909
C55	C	-1.059049	0.120557	-0.289945
N56	N	-0.965806	0.191407	0.237426
H57	H	-1.104366	0.396433	0.000022
F58	F	-0.751489	0.354161	-0.391663
H59	H	-0.809978	0.309767	-0.752844
F60	F	-1.140522	0.058702	-0.765921
H61	H	-1.189894	0.441527	0.000007
F62	F	-1.202664	0.011501	-0.716762
F63	F	-0.703695	0.629799	0.000007
H64	H	-0.976185	0.183485	-0.247208
H65	H	-1.305175	0.824928	-0.000004
F66	F	-0.720410	0.377775	-0.549201
H67	H	-1.281302	-0.048263	-0.247145
F68	F	-1.346601	0.495491	0.000016
H69	H	-0.770490	0.750997	0.000008
F70	F	-0.888611	0.250023	-0.283228
H71	H	-1.314326	-0.073323	-0.595218
F72	F	-1.387563	0.631724	0.000014
H73	H	-1.345409	-0.096939	-0.437672
F74	F	-0.961058	0.880145	0.000003
H75	H	-0.901362	0.819989	-0.000000
H76	H	-0.786072	0.436588	0.000006
