data_functionalizedCrystal
_audit_creation_method	'MofGen! by Chris Wilmer'
_symmetry_space_group_name_H-M	'P1'
_symmetry_Int_Tables_number	1
_symmetry_cell_setting	triclinic
loop_
_symmetry_equiv_pos_as_xyz
  x,y,z
_cell_length_a	25.639242
_cell_length_b	19.805404
_cell_length_c	19.805399
_cell_angle_alpha	89.972890
_cell_angle_beta	89.972605
_cell_angle_gamma	90.025120
loop_
_atom_site_label
_atom_site_type_symbol
_atom_site_fract_x
_atom_site_fract_y
_atom_site_fract_z
Zn1	Zn	0.799285	-0.269560	-0.382863
Zn2	Zn	1.299285	0.230440	0.117137
Zn3	Zn	0.799214	-0.382748	-0.269676
Zn4	Zn	1.299214	0.117252	0.230324
Zn5	Zn	0.711853	-0.269569	-0.269672
Zn6	Zn	1.211853	0.230431	0.230328
Zn7	Zn	0.711820	-0.382703	-0.382807
Zn8	Zn	1.211820	0.117297	0.117193
O9	O	0.755543	-0.326145	-0.326255
O10	O	1.255543	0.173855	0.173745
O11	O	0.872441	-0.284589	-0.367873
O12	O	1.372441	0.215411	0.132127
O13	O	0.787610	-0.367757	-0.174959
O14	O	1.287610	0.132243	0.325041
O15	O	0.723495	-0.174852	-0.284709
O16	O	1.223495	0.325148	0.215291
O17	O	0.872389	-0.367748	-0.284715
O18	O	1.372389	0.132252	0.215285
O19	O	0.787731	-0.174844	-0.367870
O20	O	1.287731	0.325156	0.132130
O21	O	0.723426	-0.284606	-0.174956
O22	O	1.223426	0.215394	0.325044
O23	O	0.638684	-0.284562	-0.284655
O24	O	1.138684	0.215438	0.215345
O25	O	0.723439	-0.367672	-0.477531
O26	O	1.223439	0.132328	0.022469
O27	O	0.638660	-0.367681	-0.367775
O28	O	1.138660	0.132319	0.132225
O29	O	0.787698	-0.284545	-0.477572
O30	O	1.287698	0.215455	0.022428
O31	O	0.787578	-0.477459	-0.284661
O32	O	1.287578	0.022541	0.215339
O33	O	0.723370	-0.477426	-0.367778
O34	O	1.223370	0.022574	0.132222
C35	C	0.755477	-0.502001	-0.326228
C36	C	1.255477	-0.002001	0.173772
C37	C	0.755496	-0.577233	-0.326240
C38	C	1.255496	-0.077233	0.173760
C39	C	0.619701	-0.326118	-0.326209
C40	C	1.119701	0.173882	0.173791
C41	C	0.561587	-0.326123	-0.326205
C42	C	1.061587	0.173877	0.173795
C43	C	0.789105	-1.039019	-0.283070
C44	C	1.289105	-0.539019	0.216930
C45	C	0.789080	-0.968330	-0.283057
C46	C	1.289080	-0.468330	0.216943
C47	C	0.755612	-0.932995	-0.326290
C48	C	1.255612	-0.432995	0.173710
C49	C	0.722162	-0.968351	-0.369535
C50	C	1.222162	-0.468351	0.130465
C51	C	0.722184	-1.039038	-0.369544
C52	C	1.222184	-0.539038	0.130456
C53	C	0.722071	-0.683278	-0.369498
C54	C	1.222071	-0.183278	0.130502
C55	C	0.722052	-0.612586	-0.369487
C56	C	1.222052	-0.112586	0.130513
C57	C	0.788967	-0.612570	-0.283011
C58	C	1.288967	-0.112570	0.216989
C59	C	0.788989	-0.683257	-0.283020
C60	C	1.288989	-0.183257	0.216980
C61	C	0.755538	-0.718607	-0.326262
C62	C	1.255538	-0.218607	0.173738
C63	C	0.755564	-0.795256	-0.326274
C64	C	1.255564	-0.295256	0.173726
C65	C	0.755588	-0.856348	-0.326281
C66	C	1.255588	-0.356348	0.173719
C67	C	0.201220	-0.369497	-0.369494
C68	C	0.701220	0.130503	0.130506
C69	C	0.146616	-0.369502	-0.369505
C70	C	0.646616	0.130498	0.130495
O71	O	0.118376	-0.406347	-0.406271
O72	O	0.618376	0.093653	0.093729
N73	N	0.119304	-0.326164	-0.326299
N74	N	0.619304	0.173836	0.173701
C75	C	0.146600	-0.282814	-0.283084
C76	C	0.646600	0.217186	0.216916
O77	O	0.118356	-0.245952	-0.246336
O78	O	0.618356	0.254048	0.253664
C79	C	0.201203	-0.282807	-0.283077
C80	C	0.701203	0.217193	0.216923
C81	C	0.228512	-0.326152	-0.326281
C82	C	0.728512	0.173848	0.173719
C83	C	0.228529	-0.412839	-0.412695
C84	C	0.728529	0.087161	0.087305
C85	C	0.283129	-0.412835	-0.412683
C86	C	0.783129	0.087165	0.087317
C87	C	0.310421	-0.369491	-0.369470
C88	C	0.810421	0.130509	0.130530
C89	C	0.283112	-0.326149	-0.326270
C90	C	0.783112	0.173851	0.173730
C91	C	0.228498	-0.239454	-0.239867
C92	C	0.728498	0.260546	0.260133
C93	C	0.283105	-0.239451	-0.239864
C94	C	0.783105	0.260549	0.260136
C95	C	0.310414	-0.282796	-0.283068
C96	C	0.810414	0.217204	0.216932
C97	C	0.365005	-0.282801	-0.283045
C98	C	0.865005	0.217199	0.216955
N99	N	0.392316	-0.326139	-0.326251
N100	N	0.892316	0.173861	0.173749
C101	C	0.365024	-0.369483	-0.369464
C102	C	0.865024	0.130517	0.130536
C103	C	0.031929	-0.282831	-0.283102
C104	C	0.531929	0.217169	0.216898
C105	C	-0.022673	-0.282841	-0.283105
C106	C	0.477327	0.217159	0.216895
C107	C	-0.022654	-0.369528	-0.369527
C108	C	0.477346	0.130472	0.130473
C109	C	0.031950	-0.369521	-0.369520
C110	C	0.531950	0.130479	0.130480
C111	C	0.059241	-0.326169	-0.326308
C112	C	0.559241	0.173831	0.173692
C113	C	0.479689	-0.369473	-0.369435
C114	C	0.979689	0.130527	0.130565
C115	C	0.534295	-0.369468	-0.369418
C116	C	1.034295	0.130532	0.130582
C117	C	0.534271	-0.282779	-0.282999
C118	C	1.034271	0.217221	0.217001
C119	C	0.479670	-0.282787	-0.283014
C120	C	0.979670	0.217213	0.216986
C121	C	0.452381	-0.326136	-0.326237
C122	C	0.952381	0.173864	0.173763
O123	O	0.393280	-0.245973	-0.246299
O124	O	0.893280	0.254027	0.253701
O125	O	0.393275	-0.406333	-0.406212
O126	O	0.893275	0.093667	0.093788
C127	C	0.891916	-0.326172	-0.326301
C128	C	1.391916	0.173828	0.173699
C129	C	0.950030	-0.326184	-0.326321
C130	C	1.450030	0.173816	0.173679
C131	C	0.755624	-0.149602	-0.326295
C132	C	1.255624	0.350398	0.173705
C133	C	0.755659	-0.074370	-0.326313
C134	C	1.255659	0.425630	0.173687
C135	C	0.755573	-0.326102	-0.502797
C136	C	1.255573	0.173898	-0.002797
C137	C	0.755585	-0.326084	-0.578029
C138	C	1.255585	0.173916	-0.078029
C139	C	0.789046	-0.282798	-0.613396
C140	C	1.289046	0.217202	-0.113396
C141	C	0.789051	-0.282779	-0.684085
C142	C	1.289051	0.217221	-0.184085
C143	C	0.755598	-0.326049	-0.719405
C144	C	1.255598	0.173951	-0.219405
C145	C	0.722134	-0.369337	-0.684033
C146	C	1.222134	0.130663	-0.184033
C147	C	0.722126	-0.369352	-0.613346
C148	C	1.222126	0.130648	-0.113346
C149	C	0.722163	-0.369274	-0.969107
C150	C	1.222163	0.130726	-0.469107
C151	C	0.722174	-0.369256	-1.039799
C152	C	1.222174	0.130744	-0.539799
C153	C	0.789089	-0.282700	-1.039845
C154	C	1.289089	0.217300	-0.539845
C155	C	0.789081	-0.282716	-0.969158
C156	C	1.289081	0.217284	-0.469158
C157	C	0.755615	-0.326001	-0.933793
C158	C	1.255615	0.173999	-0.433793
C159	C	0.755609	-0.326020	-0.857144
C160	C	1.255609	0.173980	-0.357144
C161	C	0.755607	-0.326033	-0.796052
C162	C	1.255607	0.173967	-0.296052
C163	C	0.755544	-0.326139	-0.150399
C164	C	1.255544	0.173861	0.349601
C165	C	0.755633	-0.325966	-0.075167
C166	C	1.255633	0.174034	0.424833
H167	H	0.816362	-1.067784	-0.247868
H168	H	1.316362	-0.567784	0.252132
H169	H	0.816300	-0.247533	-0.712877
H170	H	1.316300	0.252467	-0.212877
H171	H	0.694796	-0.583817	-0.404694
H172	H	1.194796	-0.083817	0.095306
H173	H	0.206273	-0.204160	-0.204684
H174	H	0.706273	0.295840	0.295316
H175	H	0.694952	-1.067821	-0.404760
H176	H	1.194952	-0.567821	0.095240
H177	H	0.694909	-0.939577	-0.404734
H178	H	1.194909	-0.439577	0.095266
H179	H	0.816324	-0.247483	-0.940403
H180	H	1.316324	0.252517	-0.440403
H181	H	0.556527	-0.404768	-0.404600
H182	H	1.056527	0.095232	0.095400
H183	H	0.694930	-0.404493	-1.068555
H184	H	1.194930	0.095507	-0.568555
H185	H	0.694873	-0.404593	-0.584552
H186	H	1.194873	0.095407	-0.084552
H187	H	0.816337	-0.247453	-1.068648
H188	H	1.316337	0.252547	-0.568648
H189	H	0.816289	-0.247565	-0.584643
H190	H	1.316289	0.252435	-0.084643
H191	H	0.816204	-0.583780	-0.247798
H192	H	1.316204	-0.083780	0.252202
H193	H	0.816314	-0.939547	-0.247845
H194	H	1.316314	-0.439547	0.252155
H195	H	0.694920	-0.404529	-0.940321
H196	H	1.194920	0.095471	-0.440321
H197	H	0.305359	-0.448130	-0.447866
H198	H	0.805359	0.051870	0.052134
H199	H	0.694893	-0.404566	-0.712797
H200	H	1.194893	0.095434	-0.212797
H201	H	0.694829	-0.712052	-0.404703
H202	H	1.194829	-0.212052	0.095297
H203	H	0.457477	-0.404771	-0.404634
H204	H	0.957477	0.095229	0.095366
H205	H	0.816245	-0.712024	-0.247817
H206	H	1.316245	-0.212024	0.252183
H207	H	0.206313	-0.448136	-0.447887
H208	H	0.706313	0.051864	0.052113
H209	H	0.305323	-0.204144	-0.204679
H210	H	0.805323	0.295856	0.295321
H211	H	0.054146	-0.247530	-0.247909
H212	H	0.554146	0.252470	0.252091
H213	H	0.054181	-0.404816	-0.404702
H214	H	0.554181	0.095184	0.095298
H215	H	-0.044885	-0.404820	-0.404715
H216	H	0.455115	0.095180	0.095285
H217	H	0.457434	-0.247493	-0.247832
H218	H	0.957434	0.252507	0.252168
H219	H	-0.044903	-0.247552	-0.247918
H220	H	0.455097	0.252448	0.252082
H221	H	0.556502	-0.247491	-0.247814
H222	H	1.056502	0.252509	0.252186
