data_functionalizedCrystal
_audit_creation_method	'MofGen! by Chris Wilmer'
_symmetry_space_group_name_H-M	'P1'
_symmetry_Int_Tables_number	1
_symmetry_cell_setting	triclinic
loop_
_symmetry_equiv_pos_as_xyz
  x,y,z
_cell_length_a	18.215407
_cell_length_b	12.827892
_cell_length_c	18.215399
_cell_angle_alpha	90.024028
_cell_angle_beta	90.019833
_cell_angle_gamma	90.015840
loop_
_atom_site_label
_atom_site_type_symbol
_atom_site_fract_x
_atom_site_fract_y
_atom_site_fract_z
Zn1	Zn	1.125121	-0.416031	0.416136
Zn2	Zn	1.625121	0.083969	0.916136
Zn3	Zn	1.125049	-0.590790	0.293078
Zn4	Zn	1.625049	-0.090790	0.793078
Zn5	Zn	1.002053	-0.416065	0.293083
Zn6	Zn	1.502053	0.083935	0.793083
Zn7	Zn	1.002039	-0.590732	0.416103
Zn8	Zn	1.502039	-0.090732	0.916103
O9	O	1.063566	-0.503405	0.354600
O10	O	1.563566	-0.003405	0.854600
O11	O	1.228095	-0.439223	0.399824
O12	O	1.728095	0.060777	0.899824
O13	O	1.108710	-0.567651	0.190094
O14	O	1.608710	-0.067651	0.690094
O15	O	1.018414	-0.269825	0.309422
O16	O	1.518414	0.230175	0.809422
O17	O	1.228043	-0.567618	0.309414
O18	O	1.728043	-0.067618	0.809414
O19	O	1.108831	-0.269800	0.399829
O20	O	1.608831	0.230200	0.899829
O21	O	1.018345	-0.439282	0.190098
O22	O	1.518345	0.060718	0.690098
O23	O	0.899067	-0.439225	0.309391
O24	O	1.399067	0.060775	0.809391
O25	O	1.018390	-0.567519	0.519092
O26	O	1.518390	-0.067519	1.019092
O27	O	0.899057	-0.567552	0.399773
O28	O	1.399057	-0.067552	0.899773
O29	O	1.108818	-0.439167	0.519116
O30	O	1.608818	0.060833	1.019116
O31	O	1.108696	-0.737019	0.309382
O32	O	1.608696	-0.237019	0.809382
O33	O	1.018321	-0.736976	0.399767
O34	O	1.518321	-0.236976	0.899767
C35	C	0.872359	-0.503387	0.354579
C36	C	1.372359	-0.003387	0.854579
C37	C	0.790560	-0.503405	0.354587
C38	C	1.290560	-0.003405	0.854587
C39	C	0.602380	-0.570329	0.401590
C40	C	1.102380	-0.070329	0.901590
C41	C	0.525522	-0.570333	0.401599
C42	C	1.025522	-0.070333	0.901599
C43	C	0.525503	-0.436499	0.307626
C44	C	1.025503	0.063501	0.807626
C45	C	0.602360	-0.436491	0.307621
C46	C	1.102360	0.063509	0.807621
C47	C	0.640797	-0.503413	0.354602
C48	C	1.140797	-0.003413	0.854602
C49	C	0.487081	-0.503424	0.354616
C50	C	0.987081	-0.003424	0.854616
C51	C	0.403747	-0.503427	0.354626
C52	C	0.903747	-0.003427	0.854626
C53	C	0.724136	-0.503408	0.354594
C54	C	1.224136	-0.003408	0.854594
C55	C	1.063520	-0.774915	0.354586
C56	C	1.563520	-0.274915	0.854586
C57	C	1.063567	-0.891068	0.354605
C58	C	1.563567	-0.391068	0.854605
C59	C	1.108288	-0.942757	0.399381
C60	C	1.608288	-0.442757	0.899381
C61	C	1.108339	-1.062807	0.399402
C62	C	1.608339	-0.562807	0.899402
C63	C	1.255518	-0.503424	0.354622
C64	C	1.755518	-0.003424	0.854622
C65	C	1.337317	-0.503432	0.354631
C66	C	1.837317	-0.003432	0.854631
C67	C	1.063610	-0.503333	0.546553
C68	C	1.563610	-0.003333	1.046553
C69	C	1.063629	-0.503302	0.628352
C70	C	1.563629	-0.003302	1.128352
C71	C	1.063632	-0.230835	0.354630
C72	C	1.563632	0.269165	0.854630
C73	C	1.063660	-0.114682	0.354643
C74	C	1.563660	0.385318	0.854643
C75	C	1.063563	-0.503401	0.163394
C76	C	1.563563	-0.003401	0.663394
C77	C	1.063687	-0.503138	0.081595
C78	C	1.563687	-0.003138	0.581595
C79	C	1.110732	-0.436407	0.816560
C80	C	1.610732	0.063593	1.316560
C81	C	1.110741	-0.436376	0.893419
C82	C	1.610741	0.063624	1.393419
C83	C	1.016579	-0.570036	0.893382
C84	C	1.516579	-0.070036	1.393382
C85	C	1.016567	-0.570060	0.816525
C86	C	1.516567	-0.070060	1.316525
C87	C	1.063648	-0.503247	0.778116
C88	C	1.563648	-0.003247	1.278116
C89	C	1.063668	-0.503192	0.931832
C90	C	1.563668	-0.003192	1.431832
C91	C	1.063678	-0.503160	1.015165
C92	C	1.563678	-0.003160	1.515165
C93	C	1.063638	-0.503278	0.694777
C94	C	1.563638	-0.003278	1.194777
H95	H	0.494198	-0.382016	0.269375
H96	H	0.994198	0.117984	0.769375
Br97	Br	0.999845	-1.040607	0.290737
Br98	Br	1.499845	-0.540607	0.790737
Br99	Br	0.952656	-0.660770	0.764345
Br100	Br	1.452656	-0.160770	1.264345
H101	H	1.025313	-0.935692	0.316290
H102	H	1.525313	-0.435692	0.816290
H103	H	1.146537	-0.898135	0.437704
H104	H	1.646537	-0.398135	0.937704
Br105	Br	1.172164	-1.136889	0.463293
Br106	Br	1.672164	-0.636889	0.963293
H107	H	1.149066	-0.382000	0.785289
H108	H	1.649066	0.118000	1.285289
H109	H	1.149080	-0.381946	0.924717
H110	H	1.649080	0.118054	1.424717
H111	H	0.978249	-0.624435	0.924664
H112	H	1.478249	-0.124435	1.424664
H113	H	0.633674	-0.624818	0.439847
H114	H	1.133674	-0.124818	0.939847
Br115	Br	0.654502	-0.345659	0.243854
Br116	Br	1.154502	0.154341	0.743854
H117	H	0.494246	-0.624822	0.439863
H118	H	0.994246	-0.124822	0.939863
