data_functionalizedCrystal
_audit_creation_method	'MofGen! by Chris Wilmer'
_symmetry_space_group_name_H-M	'P1'
_symmetry_Int_Tables_number	1
_symmetry_cell_setting	triclinic
loop_
_symmetry_equiv_pos_as_xyz
  x,y,z
_cell_length_a	16.625547
_cell_length_b	15.297327
_cell_length_c	16.625539
_cell_angle_alpha	99.648496
_cell_angle_beta	89.978691
_cell_angle_gamma	99.707591
loop_
_atom_site_label
_atom_site_type_symbol
_atom_site_fract_x
_atom_site_fract_y
_atom_site_fract_z
Zn1	Zn	1.177072	-0.359184	-0.511519
Zn2	Zn	1.153637	-0.510055	-0.400006
Zn3	Zn	1.042238	-0.359211	-0.376694
Zn4	Zn	1.018866	-0.510005	-0.534779
O5	O	1.097953	-0.434613	-0.455750
O6	O	1.286794	-0.379207	-0.496749
O7	O	1.138834	-0.490077	-0.284086
O8	O	1.079712	-0.232959	-0.375088
O9	O	1.269577	-0.490051	-0.414821
O10	O	1.178774	-0.232940	-0.474144
O11	O	1.056989	-0.379252	-0.266959
O12	O	0.926306	-0.379204	-0.397642
O13	O	1.039878	-0.489966	-0.644521
O14	O	0.909135	-0.489992	-0.513786
O15	O	1.156112	-0.379159	-0.627432
O16	O	1.116171	-0.636296	-0.437375
O17	O	1.017155	-0.636259	-0.536391
C18	C	0.888465	-0.434596	-0.455709
C19	C	0.798842	-0.434610	-0.455714
C20	C	1.061605	-0.669012	-0.491954
C21	C	1.046130	-0.769289	-0.507469
C22	C	1.208894	-1.051903	-0.345134
C23	C	1.223434	-0.957688	-0.330552
C24	C	1.179109	-0.910584	-0.374780
C25	C	1.120242	-0.957703	-0.433592
C26	C	1.105696	-1.051928	-0.448171
C27	C	1.075911	-0.910608	-0.477817
C28	C	1.017044	-0.957728	-0.536630
C29	C	1.002501	-1.051943	-0.551206
C30	C	1.046826	-1.099047	-0.506978
C31	C	1.090457	-0.816384	-0.463239
C32	C	0.987259	-0.816408	-0.566276
C33	C	0.972719	-0.910623	-0.580858
C34	C	0.726059	-0.434612	-0.455724
C35	C	0.634750	-0.434617	-0.455745
C36	C	0.561972	-0.434625	-0.455767
C37	C	0.470657	-0.434631	-0.455787
C38	C	1.308259	-0.434632	-0.455791
C39	C	1.397879	-0.434639	-0.455809
C40	C	1.098002	-0.434554	-0.666049
C41	C	1.098023	-0.434529	-0.755667
C42	C	1.134465	-0.199300	-0.419421
C43	C	1.150024	-0.099023	-0.403940
C44	C	1.098039	-0.434509	-0.828446
C45	C	1.098063	-0.434475	-0.919749
C46	C	1.098087	-0.434443	-0.992521
C47	C	1.098112	-0.434411	-1.083830
C48	C	1.097961	-0.434608	-0.246258
C49	C	1.098136	-0.434379	-0.156602
H50	H	1.190951	-0.833870	-0.362904
O51	O	0.945406	-1.097674	-0.608440
C52	C	0.901717	-1.126396	-0.749999
C53	C	0.966446	-1.074570	-0.685268
H54	H	0.918696	-1.107722	-0.812125
H55	H	0.898934	-1.201838	-0.752893
H56	H	0.839563	-1.107949	-0.732880
H57	H	1.028634	-1.092942	-0.702339
H58	H	0.969158	-0.999141	-0.682385
O59	O	1.280672	-0.912059	-0.273428
C60	C	1.381466	-0.921983	-0.172740
C61	C	1.316675	-0.973771	-0.237424
H62	H	1.410581	-0.971855	-0.143600
H63	H	1.430473	-0.877833	-0.202932
H64	H	1.351266	-0.877910	-0.123758
H65	H	1.346803	-1.017893	-0.286425
H66	H	1.267675	-1.017864	-0.207172
H67	H	1.244972	-1.090264	-0.309125
H68	H	0.924788	-0.949002	-0.628743
H69	H	1.034992	-1.175765	-0.518849
O70	O	0.944297	-0.770522	-0.609198
C71	C	0.920938	-0.625380	-0.632369
C72	C	0.969661	-0.677240	-0.583723
H73	H	0.941414	-0.549952	-0.611778
H74	H	0.932218	-0.643779	-0.700264
H75	H	0.853060	-0.644025	-0.621040
H76	H	1.037553	-0.658623	-0.594983
H77	H	0.958312	-0.658837	-0.515844
H78	H	1.138387	-0.778027	-0.415353
