data_functionalizedCrystal
_audit_creation_method	'MofGen! by Chris Wilmer'
_symmetry_space_group_name_H-M	'P1'
_symmetry_Int_Tables_number	1
_symmetry_cell_setting	triclinic
loop_
_symmetry_equiv_pos_as_xyz
  x,y,z
_cell_length_a	18.101395
_cell_length_b	16.120530
_cell_length_c	16.120297
_cell_angle_alpha	89.871860
_cell_angle_beta	92.872690
_cell_angle_gamma	92.873335
loop_
_atom_site_label
_atom_site_type_symbol
_atom_site_fract_x
_atom_site_fract_y
_atom_site_fract_z
Zn1	Zn	-0.375190	-1.247384	-0.534565
Zn2	Zn	-0.041857	-0.914051	-0.201232
Zn3	Zn	0.291477	-0.580718	0.132101
Zn4	Zn	-0.493082	-1.254317	-0.395508
Zn5	Zn	-0.159749	-0.920984	-0.062175
Zn6	Zn	0.173584	-0.587651	0.271159
Zn7	Zn	-0.362676	-1.115376	-0.388483
Zn8	Zn	-0.029343	-0.782043	-0.055150
Zn9	Zn	0.303991	-0.448710	0.278183
Zn10	Zn	-0.492400	-1.108274	-0.527477
Zn11	Zn	-0.159067	-0.774941	-0.194144
Zn12	Zn	0.174266	-0.441607	0.139190
O13	O	-0.430837	-1.181338	-0.461508
O14	O	-0.097504	-0.848005	-0.128175
O15	O	0.235830	-0.514671	0.205158
O16	O	-0.396351	-1.364669	-0.522025
O17	O	-0.063018	-1.031336	-0.188692
O18	O	0.270315	-0.698003	0.144641
O19	O	-0.470832	-1.241761	-0.278211
O20	O	-0.137499	-0.908427	0.055123
O21	O	0.195835	-0.575094	0.388456
O22	O	-0.260707	-1.132958	-0.407888
O23	O	0.072626	-0.799625	-0.074555
O24	O	0.405959	-0.466292	0.258779
O25	O	-0.482966	-1.369763	-0.419860
O26	O	-0.149633	-1.036430	-0.086527
O27	O	0.183700	-0.703096	0.246806
O28	O	-0.269901	-1.229944	-0.515214
O29	O	0.063432	-0.896611	-0.181880
O30	O	0.396765	-0.563277	0.151453
O31	O	-0.375023	-1.139681	-0.273050
O32	O	-0.041689	-0.806348	0.060284
O33	O	0.291644	-0.473015	0.393617
O34	O	-0.374361	-0.998069	-0.401015
O35	O	-0.041028	-0.664735	-0.067682
O36	O	0.292305	-0.331402	0.265652
O37	O	-0.481804	-1.120853	-0.644783
O38	O	-0.148471	-0.787520	-0.311450
O39	O	0.184863	-0.454186	0.021884
O40	O	-0.469669	-0.992851	-0.503133
O41	O	-0.136336	-0.659517	-0.169800
O42	O	0.196997	-0.326184	0.163534
O43	O	-0.395690	-1.223057	-0.649990
O44	O	-0.062357	-0.889724	-0.316657
O45	O	0.270977	-0.556390	0.016676
O46	O	-0.596620	-1.234873	-0.412987
O47	O	-0.263287	-0.901540	-0.079654
O48	O	0.070046	-0.568207	0.253679
O49	O	-0.596119	-1.127576	-0.509945
O50	O	-0.262786	-0.794243	-0.176611
O51	O	0.070547	-0.460909	0.156722
C52	C	-0.623241	-1.181228	-0.461478
C53	C	-0.289908	-0.847895	-0.128145
C54	C	0.043425	-0.514561	0.205188
C55	C	-0.705558	-1.181256	-0.461497
C56	C	-0.372224	-0.847922	-0.128164
C57	C	-0.038891	-0.514589	0.205170
C58	C	-0.420584	-0.965287	-0.450543
C59	C	-0.087251	-0.631954	-0.117210
C60	C	0.246083	-0.298621	0.216124
C61	C	-0.416216	-0.872859	-0.445872
C62	C	-0.082883	-0.539526	-0.112538
C63	C	0.250450	-0.206192	0.220795
C64	C	-0.440067	-1.170389	-0.678403
C65	C	-0.106733	-0.837056	-0.345069
C66	C	0.226600	-0.503723	-0.011736
C67	C	-0.444000	-1.165724	-0.770830
C68	C	-0.110667	-0.832390	-0.437497
C69	C	0.222667	-0.499057	-0.104163
C70	C	-1.004659	-1.181436	-0.461551
C71	C	-0.671326	-0.848102	-0.128218
C72	C	-0.337992	-0.514769	0.205116
C73	C	-0.973063	-1.114068	-0.522721
C74	C	-0.639730	-0.780735	-0.189388
C75	C	-0.306397	-0.447401	0.143946
C76	C	-0.887422	-1.113774	-0.522504
C77	C	-0.554089	-0.780440	-0.189171
C78	C	-0.220756	-0.447107	0.144163
C79	C	-0.856271	-1.181346	-0.461525
C80	C	-0.522938	-0.848013	-0.128192
C81	C	-0.189605	-0.514680	0.205142
C82	C	-0.882548	-1.162064	-0.372686
C83	C	-0.549215	-0.828731	-0.039352
C84	C	-0.215881	-0.495398	0.293981
C85	C	-0.968190	-1.161632	-0.373050
C86	C	-0.634857	-0.828298	-0.039717
C87	C	-0.301524	-0.494965	0.293616
C88	C	-0.978132	-1.268265	-0.488456
C89	C	-0.644799	-0.934932	-0.155123
C90	C	-0.311465	-0.601598	0.178210
C91	C	-0.892539	-1.267650	-0.490352
C92	C	-0.559205	-0.934317	-0.157019
C93	C	-0.225872	-0.600984	0.176315
C94	C	-0.772409	-1.181297	-0.461505
C95	C	-0.439075	-0.847964	-0.128172
C96	C	-0.105742	-0.514631	0.205162
C97	C	-1.088521	-1.181483	-0.461565
C98	C	-0.755188	-0.848150	-0.128232
C99	C	-0.421855	-0.514816	0.205101
C100	C	-0.237683	-1.181470	-0.461558
C101	C	0.095650	-0.848137	-0.128225
C102	C	0.428983	-0.514803	0.205109
C103	C	-0.155373	-1.181526	-0.461579
C104	C	0.177961	-0.848193	-0.128246
C105	C	0.511294	-0.514860	0.205088
C106	C	-0.441131	-1.398232	-0.472517
C107	C	-0.107797	-1.064899	-0.139184
C108	C	0.225536	-0.731565	0.194150
C109	C	-0.445517	-1.490660	-0.477208
C110	C	-0.112184	-1.157326	-0.143875
C111	C	0.221149	-0.823993	0.189458
C112	C	-0.408225	-0.703631	-0.437350
C113	C	-0.074892	-0.370297	-0.104017
C114	C	0.258441	-0.036964	0.229316
C115	C	-0.453506	-0.659883	-0.485727
C116	C	-0.120173	-0.326549	-0.152394
C117	C	0.213161	0.006784	0.180940
C118	C	-0.449060	-0.565718	-0.480986
C119	C	-0.115727	-0.232385	-0.147652
C120	C	0.217607	0.100948	0.185681
C121	C	-0.412671	-0.797804	-0.442091
C122	C	-0.079337	-0.464470	-0.108757
C123	C	0.253996	-0.131137	0.224576
C124	C	-0.451163	-1.157175	-0.940055
C125	C	-0.117830	-0.823842	-0.606721
C126	C	0.215504	-0.490508	-0.273388
C127	C	-0.410297	-1.205665	-0.983822
C128	C	-0.076964	-0.872331	-0.650489
C129	C	0.256369	-0.538998	-0.317156
C130	C	-0.414283	-1.200908	-1.077985
C131	C	-0.080949	-0.867575	-0.744651
C132	C	0.252384	-0.534242	-0.411318
C133	C	-0.447178	-1.161931	-0.845884
C134	C	-0.113845	-0.828597	-0.512550
C135	C	0.219488	-0.495264	-0.179217
C136	C	-0.421592	-1.192292	-0.245460
C137	C	-0.088259	-0.858958	0.087873
C138	C	0.245074	-0.525625	0.421206
C139	C	-0.417458	-1.197119	-0.153042
C140	C	-0.084125	-0.863785	0.180292
C141	C	0.249209	-0.530452	0.513625
H142	H	-0.869842	-1.125322	-0.588238
H143	H	-0.536509	-0.791989	-0.254905
H144	H	-0.203176	-0.458656	0.078428
H145	H	-0.997097	-1.125459	-0.588658
H146	H	-0.663764	-0.792126	-0.255325
H147	H	-0.330431	-0.458792	0.078008
O148	O	-0.501468	-1.097456	-0.984090
O149	O	-0.168135	-0.764123	-0.650756
O150	O	0.165198	-0.430790	-0.317423
H151	H	-0.559577	-1.112498	-0.968197
H152	H	-0.226243	-0.779165	-0.634863
H153	H	0.107090	-0.445831	-0.301530
H154	H	-0.372317	-1.250750	-0.950575
H155	H	-0.038984	-0.917416	-0.617241
H156	H	0.294350	-0.584083	-0.283908
H157	H	-0.998637	-1.318402	-0.443958
H158	H	-0.665304	-0.985068	-0.110625
H159	H	-0.331970	-0.651735	0.222709
H160	H	-0.875783	-1.282271	-0.555755
H161	H	-0.542450	-0.948938	-0.222421
H162	H	-0.209117	-0.615605	0.110912
O163	O	-0.996740	-1.029203	-0.498924
O164	O	-0.663407	-0.695869	-0.165590
O165	O	-0.330074	-0.362536	0.167743
H166	H	-1.030913	-1.034795	-0.443718
H167	H	-0.697579	-0.701462	-0.110384
H168	H	-0.364246	-0.368129	0.222949
H169	H	-0.495611	-0.693149	-0.530706
H170	H	-0.162277	-0.359815	-0.197372
H171	H	0.171056	-0.026482	0.135961
O172	O	-0.352476	-0.659564	-0.377756
O173	O	-0.019143	-0.326231	-0.044422
O174	O	0.314190	0.007103	0.288911
H175	H	-0.314608	-0.618121	-0.413080
H176	H	0.018725	-0.284788	-0.079747
H177	H	0.352059	0.048545	0.253586
O178	O	-0.855422	-1.028412	-0.498411
O179	O	-0.522089	-0.695078	-0.165078
O180	O	-0.188755	-0.361745	0.168255
H181	H	-0.901127	-0.987182	-0.486863
H182	H	-0.567793	-0.653849	-0.153530
H183	H	-0.234460	-0.320516	0.179804
H184	H	-0.984372	-1.098292	-0.350776
H185	H	-0.651039	-0.764959	-0.017443
H186	H	-0.317706	-0.431625	0.315890
H187	H	-0.988900	-1.208812	-0.325680
H188	H	-0.655567	-0.875478	0.007653
H189	H	-0.322233	-0.542145	0.340986
H190	H	-0.862211	-1.209784	-0.325672
H191	H	-0.528877	-0.876451	0.007661
H192	H	-0.195544	-0.543117	0.340995
H193	H	-0.857320	-1.099423	-0.350105
H194	H	-0.523987	-0.766090	-0.016772
H195	H	-0.190653	-0.432756	0.316561
O196	O	-0.864869	-1.337171	-0.436091
O197	O	-0.531536	-1.003838	-0.102758
O198	O	-0.198202	-0.670505	0.230575
H199	H	-0.837323	-1.382153	-0.474739
H200	H	-0.503990	-1.048820	-0.141406
H201	H	-0.170657	-0.715487	0.191928
H202	H	-1.003393	-1.286711	-0.552368
H203	H	-0.670060	-0.953377	-0.219035
H204	H	-0.336726	-0.620044	0.114299
