data_functionalizedCrystal
_audit_creation_method	'MofGen! by Chris Wilmer'
_symmetry_space_group_name_H-M	'P1'
_symmetry_Int_Tables_number	1
_symmetry_cell_setting	triclinic
loop_
_symmetry_equiv_pos_as_xyz
  x,y,z
_cell_length_a	12.827892
_cell_length_b	12.827893
_cell_length_c	12.827885
_cell_angle_alpha	90.021379
_cell_angle_beta	89.970214
_cell_angle_gamma	89.986399
loop_
_atom_site_label
_atom_site_type_symbol
_atom_site_fract_x
_atom_site_fract_y
_atom_site_fract_z
Zn1	Zn	-0.416032	-1.597672	-0.590902
Zn2	Zn	-0.590810	-1.597565	-0.416162
Zn3	Zn	-0.416078	-1.422912	-0.416170
Zn4	Zn	-0.590727	-1.422898	-0.590857
O5	O	-0.503412	-1.510262	-0.503523
O6	O	-0.439233	-1.743893	-0.567738
O7	O	-0.567685	-1.574358	-0.269927
O8	O	-0.269836	-1.446145	-0.439371
O9	O	-0.567641	-1.743815	-0.439358
O10	O	-0.269802	-1.574540	-0.567746
O11	O	-0.439310	-1.446042	-0.269933
O12	O	-0.439230	-1.276674	-0.439327
O13	O	-0.567499	-1.446121	-0.737099
O14	O	-0.567543	-1.276664	-0.567668
O15	O	-0.439152	-1.574526	-0.737132
O16	O	-0.737035	-1.574345	-0.439314
O17	O	-0.736974	-1.446018	-0.567661
C18	C	-0.503383	-1.238752	-0.503494
C19	C	-0.503396	-1.122599	-0.503506
C20	C	-0.439967	-1.070853	-0.567130
C21	C	-0.439979	-0.950802	-0.567144
C22	C	-0.774922	-1.510196	-0.503504
C23	C	-0.891075	-1.510264	-0.503531
C24	C	-0.942855	-1.573840	-0.440092
C25	C	-1.062905	-1.573911	-0.440118
C26	C	-0.230841	-1.510356	-0.503564
C27	C	-0.114688	-1.510396	-0.503582
C28	C	-0.503311	-1.510334	-0.776093
C29	C	-0.503269	-1.510365	-0.892246
C30	C	-0.503432	-0.782832	-0.503544
C31	C	-0.503419	-0.898985	-0.503532
C32	C	-0.439732	-1.446890	-0.944034
C33	C	-0.439687	-1.446920	-1.064084
C34	C	-0.503436	-1.510250	-0.232013
C35	C	-0.503185	-1.510422	-0.115860
H36	H	-0.385650	-1.115427	-0.621587
H37	H	-0.557579	-1.564772	-1.071331
H38	H	-0.385286	-1.392581	-1.108620
H39	H	-0.557732	-0.943479	-0.449064
Br40	Br	-0.593890	-1.600974	-0.966471
H41	H	-0.557707	-1.078024	-0.449044
Br42	Br	-0.965309	-1.419636	-0.594104
Br43	Br	-0.349471	-0.876639	-0.657948
H44	H	-0.898312	-1.628221	-0.385762
H45	H	-1.107435	-1.628338	-0.385802
H46	H	-0.385374	-1.392520	-0.899494
H47	H	-1.070166	-1.455959	-0.557894
