data_functionalizedCrystal
_audit_creation_method	'MofGen! by Chris Wilmer'
_symmetry_space_group_name_H-M	'P1'
_symmetry_Int_Tables_number	1
_symmetry_cell_setting	triclinic
loop_
_symmetry_equiv_pos_as_xyz
  x,y,z
_cell_length_a	17.699083
_cell_length_b	10.654541
_cell_length_c	16.776229
_cell_angle_alpha	89.993604
_cell_angle_beta	89.998886
_cell_angle_gamma	83.883472
loop_
_atom_site_label
_atom_site_type_symbol
_atom_site_fract_x
_atom_site_fract_y
_atom_site_fract_z
O1	O	1.005087	0.158809	-0.066176
O2	O	0.784840	0.179470	-0.066202
O3	O	0.900029	-0.013689	-0.066184
O4	O	0.889899	0.351968	-0.066194
O5	O	0.900013	-0.013700	0.066393
O6	O	0.784825	0.179458	0.066374
O7	O	1.005072	0.158797	0.066400
Zn8	Zn	0.894946	0.169126	0.087437
Zn9	Zn	0.894966	0.169142	-0.087238
O10	O	0.889883	0.351956	0.066382
C11	C	0.756631	0.178724	0.000083
C12	C	0.672599	0.176503	0.000073
C13	C	0.624698	0.289883	0.000070
C14	C	0.545741	0.287789	0.000080
C15	C	0.514687	0.172313	0.000088
C16	C	0.562594	0.058924	0.000094
C17	C	0.641549	0.061020	0.000089
C18	C	0.244177	0.050470	0.000114
C19	C	0.165216	0.048383	0.000116
C20	C	0.148369	0.277239	0.000105
C21	C	0.227324	0.279335	0.000100
C22	C	0.275224	0.165946	0.000110
C23	C	0.360838	0.168219	0.000100
C24	C	0.429075	0.170039	0.000092
C25	C	0.899277	-0.060480	0.000104
C26	C	0.897053	-0.199884	0.000103
C27	C	1.034792	-0.230266	0.000129
C28	C	1.102614	-0.310947	0.000144
C29	C	1.100519	-0.441929	0.000141
C30	C	1.030596	-0.492230	0.000121
C31	C	0.962775	-0.411549	0.000106
C32	C	0.964876	-0.280566	0.000111
C33	C	0.825037	-0.381167	0.000074
C34	C	0.827130	-0.250185	0.000083
C35	C	0.755114	-0.431468	0.000054
C36	C	0.687291	-0.350786	0.000045
C37	C	0.689388	-0.219798	0.000049
C38	C	0.759308	-0.169504	0.000068
C39	C	1.033281	0.159543	0.000114
C40	C	1.117313	0.161764	0.000118
C41	C	0.890634	0.398747	0.000093
C42	C	0.892859	0.538151	0.000089
N43	N	0.894937	0.169115	0.206648
N44	N	0.894981	0.169143	-0.206450
C45	C	0.945959	0.083619	0.248373
C46	C	0.945963	0.083618	0.331826
C47	C	0.894949	0.169119	0.373551
C48	C	0.843922	0.254619	0.331820
C49	C	0.843915	0.254613	0.248369
C50	C	0.843950	0.254644	0.668367
C51	C	0.843962	0.254646	0.751824
C52	C	0.945998	0.083648	0.751823
C53	C	0.945990	0.083642	0.668373
C54	C	0.894961	0.169137	0.626649
C55	C	0.894956	0.169136	0.536161
C56	C	0.894957	0.169128	0.464038
H57	H	0.649976	0.383917	0.000063
O58	O	0.611880	-0.405037	0.000021
H59	H	0.579246	-0.372625	0.054050
H60	H	1.159544	-0.269977	0.000167
H61	H	0.987508	0.014000	0.365798
O62	O	0.494076	0.410078	0.000080
H63	H	0.505180	0.465349	-0.053964
O64	O	1.028342	-0.633504	0.000115
H65	H	0.998074	-0.661472	-0.053932
H66	H	0.802401	0.324259	0.634402
O67	O	0.260821	0.403882	0.000104
H68	H	0.214247	0.482373	0.000114
H69	H	0.283168	-0.041858	0.000122
H70	H	0.109359	0.369565	0.000101
O71	O	1.001008	-0.008583	0.623366
H72	H	1.036482	-0.068045	0.666402
H73	H	0.802418	0.324274	0.785795
O74	O	0.788900	0.346848	0.376818
H75	H	0.797482	0.332502	0.441857
H76	H	0.802367	0.324231	0.214397
H77	H	0.537303	-0.035099	0.000111
H78	H	0.139935	-0.045657	0.000123
H79	H	0.987546	0.014030	0.785804
H80	H	0.680549	-0.031306	0.000091
H81	H	0.761023	-0.062854	0.000076
O82	O	1.037046	-0.088992	0.000143
H83	H	1.067336	-0.060988	-0.053884
H84	H	1.155746	-0.507621	0.000147
O85	O	1.000978	-0.008606	0.203370
H86	H	1.036451	-0.068066	0.246408
O87	O	0.752848	-0.572740	0.000059
H88	H	0.811754	-0.620395	0.000084
H89	H	0.634159	-0.154113	0.000034
