data_functionalizedCrystal
_audit_creation_method	'MofGen! by Chris Wilmer'
_symmetry_space_group_name_H-M	'P1'
_symmetry_Int_Tables_number	1
_symmetry_cell_setting	triclinic
loop_
_symmetry_equiv_pos_as_xyz
  x,y,z
_cell_length_a	19.805404
_cell_length_b	18.050591
_cell_length_c	19.805398
_cell_angle_alpha	90.024004
_cell_angle_beta	89.974553
_cell_angle_gamma	89.977324
loop_
_atom_site_label
_atom_site_type_symbol
_atom_site_fract_x
_atom_site_fract_y
_atom_site_fract_z
Zn1	Zn	-0.269615	-1.135286	-0.382869
Zn2	Zn	0.063718	-0.801952	-0.049535
Zn3	Zn	0.397052	-0.468619	0.283798
Zn4	Zn	-0.382800	-1.135193	-0.269681
Zn5	Zn	-0.049467	-0.801860	0.063652
Zn6	Zn	0.283867	-0.468527	0.396985
Zn7	Zn	-0.269617	-1.011105	-0.269677
Zn8	Zn	0.063717	-0.677771	0.063656
Zn9	Zn	0.397050	-0.344438	0.396989
Zn10	Zn	-0.382754	-1.011050	-0.382812
Zn11	Zn	-0.049420	-0.677716	-0.049479
Zn12	Zn	0.283913	-0.344383	0.283855
O13	O	-0.326196	-1.073158	-0.326260
O14	O	0.007137	-0.739825	0.007073
O15	O	0.340470	-0.406492	0.340407
O16	O	-0.284648	-1.239198	-0.367880
O17	O	0.048686	-0.905864	-0.034546
O18	O	0.382019	-0.572531	0.298787
O19	O	-0.367806	-1.118717	-0.174964
O20	O	-0.034473	-0.785384	0.158369
O21	O	0.298861	-0.452050	0.491702
O22	O	-0.174900	-1.027639	-0.284714
O23	O	0.158434	-0.694306	0.048619
O24	O	0.491767	-0.360973	0.381952
O25	O	-0.367804	-1.239130	-0.284721
O26	O	-0.034471	-0.905797	0.048612
O27	O	0.298862	-0.572463	0.381945
O28	O	-0.174898	-1.118874	-0.367876
O29	O	0.158435	-0.785541	-0.034542
O30	O	0.491768	-0.452208	0.298791
O31	O	-0.284651	-1.027550	-0.174961
O32	O	0.048683	-0.694216	0.158372
O33	O	0.382016	-0.360883	0.491705
O34	O	-0.284606	-0.907173	-0.284659
O35	O	0.048728	-0.573839	0.048674
O36	O	0.382061	-0.240506	0.382007
O37	O	-0.367725	-1.027545	-0.477536
O38	O	-0.034392	-0.694212	-0.144203
O39	O	0.298941	-0.360879	0.189130
O40	O	-0.367727	-0.907132	-0.367779
O41	O	-0.034394	-0.573799	-0.034446
O42	O	0.298940	-0.240466	0.298888
O43	O	-0.284603	-1.118821	-0.477578
O44	O	0.048730	-0.785488	-0.144245
O45	O	0.382064	-0.452154	0.189089
O46	O	-0.477510	-1.118664	-0.284666
O47	O	-0.144177	-0.785330	0.048667
O48	O	0.189156	-0.451997	0.382000
O49	O	-0.477476	-1.027456	-0.367783
O50	O	-0.144143	-0.694123	-0.034450
O51	O	0.189190	-0.360789	0.298884
C52	C	-0.502052	-1.073064	-0.326234
C53	C	-0.168719	-0.739731	0.007099
C54	C	0.164614	-0.406397	0.340433
C55	C	-0.577284	-1.073092	-0.326245
C56	C	-0.243951	-0.739758	0.007088
C57	C	0.089382	-0.406425	0.340421
C58	C	-0.326162	-0.880206	-0.326213
C59	C	0.007171	-0.546873	0.007120
C60	C	0.340505	-0.213539	0.340454
C61	C	-0.326164	-0.797660	-0.326209
C62	C	0.007170	-0.464327	0.007124
C63	C	0.340503	-0.130994	0.340458
C64	C	-1.039070	-1.120833	-0.283076
C65	C	-0.705737	-0.787499	0.050257
C66	C	-0.372404	-0.454166	0.383591
C67	C	-0.968382	-1.120798	-0.283063
C68	C	-0.635049	-0.787464	0.050271
C69	C	-0.301715	-0.454131	0.383604
C70	C	-0.933046	-1.073256	-0.326296
C71	C	-0.599713	-0.739922	0.007038
C72	C	-0.266379	-0.406589	0.340371
C73	C	-0.968402	-1.025740	-0.369540
C74	C	-0.635069	-0.692407	-0.036207
C75	C	-0.301735	-0.359073	0.297127
C76	C	-1.039089	-1.025772	-0.369549
C77	C	-0.705756	-0.692438	-0.036216
C78	C	-0.372422	-0.359105	0.297117
C79	C	-0.683329	-1.025611	-0.369503
C80	C	-0.349995	-0.692277	-0.036170
C81	C	-0.016662	-0.358944	0.297164
C82	C	-0.612637	-1.025584	-0.369492
C83	C	-0.279303	-0.692251	-0.036158
C84	C	0.054030	-0.358918	0.297175
C85	C	-0.612622	-1.120637	-0.283016
C86	C	-0.279288	-0.787304	0.050317
C87	C	0.054045	-0.453970	0.383650
C88	C	-0.683309	-1.120668	-0.283025
C89	C	-0.349975	-0.787335	0.050308
C90	C	-0.016642	-0.454002	0.383641
C91	C	-0.718659	-1.073150	-0.326267
C92	C	-0.385325	-0.739817	0.007066
C93	C	-0.051992	-0.406484	0.340400
C94	C	-0.795307	-1.073188	-0.326280
C95	C	-0.461974	-0.739854	0.007053
C96	C	-0.128640	-0.406521	0.340387
C97	C	-0.856399	-1.073222	-0.326287
C98	C	-0.523065	-0.739888	0.007047
C99	C	-0.189732	-0.406555	0.340380
C100	C	-0.280901	-0.598210	-0.281103
C101	C	0.052433	-0.264877	0.052230
C102	C	0.385766	0.068457	0.385564
C103	C	-0.342633	-0.548789	-0.264443
C104	C	-0.009300	-0.215455	0.068890
C105	C	0.324033	0.117878	0.402223
C106	C	-0.326177	-0.646530	-0.326232
C107	C	0.007156	-0.313197	0.007101
C108	C	0.340489	0.020137	0.340434
C109	C	-0.264459	-0.548870	-0.342883
C110	C	0.068874	-0.215536	-0.009550
C111	C	0.402208	0.117797	0.323784
C112	C	-0.326185	-0.500545	-0.326253
C113	C	0.007148	-0.167212	0.007080
C114	C	0.340482	0.166122	0.340413
C115	C	-0.387942	-0.598196	-0.309540
C116	C	-0.054609	-0.264863	0.023793
C117	C	0.278724	0.068471	0.357126
C118	C	-0.309727	-0.598281	-0.388009
C119	C	0.023607	-0.264948	-0.054676
C120	C	0.356940	0.068386	0.278658
C121	C	-0.371502	-0.548882	-0.371373
C122	C	-0.038169	-0.215549	-0.038039
C123	C	0.295165	0.117785	0.295294
C124	C	-0.326172	-0.730628	-0.326218
C125	C	0.007161	-0.397295	0.007115
C126	C	0.340495	-0.063962	0.340448
C127	C	-0.326197	-0.416448	-0.326267
C128	C	0.007136	-0.083115	0.007066
C129	C	0.340470	0.250218	0.340399
C130	C	-0.149653	-1.073273	-0.326301
C131	C	0.183680	-0.739940	0.007032
C132	C	0.517013	-0.406606	0.340366
C133	C	-0.074421	-1.073322	-0.326318
C134	C	0.258912	-0.739989	0.007015
C135	C	0.592245	-0.406655	0.340348
C136	C	-0.326159	-1.073187	-0.502803
C137	C	0.007175	-0.739854	-0.169469
C138	C	0.340508	-0.406521	0.163864
C139	C	-0.326143	-1.073200	-0.578035
C140	C	0.007191	-0.739866	-0.244701
C141	C	0.340524	-0.406533	0.088632
C142	C	-0.326219	-0.266864	-0.326295
C143	C	0.007114	0.066469	0.007038
C144	C	0.340447	0.399803	0.340372
C145	C	-0.326199	-0.349410	-0.326279
C146	C	0.007134	-0.016076	0.007055
C147	C	0.340467	0.317257	0.340388
C148	C	-0.282741	-1.120816	-1.039849
C149	C	0.050592	-0.787483	-0.706515
C150	C	0.383926	-0.454150	-0.373182
C151	C	-0.282762	-1.120805	-0.969160
C152	C	0.050572	-0.787471	-0.635827
C153	C	0.383905	-0.454138	-0.302494
C154	C	-0.326049	-1.073276	-0.933797
C155	C	0.007285	-0.739943	-0.600463
C156	C	0.340618	-0.406609	-0.267130
C157	C	-0.369322	-1.025761	-0.969125
C158	C	-0.035989	-0.692428	-0.635792
C159	C	0.297344	-0.359094	-0.302459
C160	C	-0.369305	-1.025777	-1.039812
C161	C	-0.035971	-0.692444	-0.706479
C162	C	0.297362	-0.359110	-0.373146
C163	C	-0.369396	-1.025696	-0.684052
C164	C	-0.036063	-0.692363	-0.350718
C165	C	0.297271	-0.359030	-0.017385
C166	C	-0.369409	-1.025683	-0.613360
C167	C	-0.036076	-0.692349	-0.280026
C168	C	0.297258	-0.359016	0.053307
C169	C	-0.282853	-1.120724	-0.613400
C170	C	0.050480	-0.787391	-0.280066
C171	C	0.383814	-0.454058	0.053267
C172	C	-0.282835	-1.120740	-0.684087
C173	C	0.050498	-0.787407	-0.350753
C174	C	0.383831	-0.454074	-0.017420
C175	C	-0.326111	-1.073228	-0.719409
C176	C	0.007222	-0.739895	-0.386076
C177	C	0.340555	-0.406562	-0.052742
C178	C	-0.326089	-1.073243	-0.796058
C179	C	0.007244	-0.739909	-0.462724
C180	C	0.340578	-0.406576	-0.129391
C181	C	-0.326068	-1.073258	-0.857149
C182	C	0.007266	-0.739924	-0.523816
C183	C	0.340599	-0.406591	-0.190483
C184	C	-0.326185	-1.073172	-0.150404
C185	C	0.007149	-0.739839	0.182929
C186	C	0.340482	-0.406505	0.516263
C187	C	-0.326010	-1.073304	-0.075172
C188	C	0.007323	-0.739970	0.258161
C189	C	0.340657	-0.406637	0.591494
H190	H	-1.067836	-1.159551	-0.247874
H191	H	-0.734503	-0.826218	0.085459
H192	H	-0.401169	-0.492884	0.418793
H193	H	-0.404658	-0.986974	-0.584568
H194	H	-0.071325	-0.653641	-0.251235
H195	H	0.262009	-0.320307	0.082098
H196	H	-0.409838	-0.527360	-0.409546
H197	H	-0.076505	-0.194026	-0.076213
H198	H	0.256828	0.139307	0.257121
H199	H	-0.939627	-0.987026	-0.404739
H200	H	-0.606294	-0.653693	-0.071406
H201	H	-0.272961	-0.320360	0.261928
O202	O	-0.291265	-0.627111	-0.457176
O203	O	0.042069	-0.293778	-0.123843
O204	O	0.375402	0.039556	0.209490
H205	H	-0.239983	-0.607394	-0.470876
H206	H	0.093351	-0.274061	-0.137543
H207	H	0.426684	0.059272	0.195790
H208	H	-0.939600	-1.159484	-0.247851
H209	H	-0.606266	-0.826150	0.085482
H210	H	-0.272933	-0.492817	0.418816
H211	H	-0.404633	-0.987008	-0.712803
H212	H	-0.071300	-0.653675	-0.379469
H213	H	0.262034	-0.320342	-0.046136
H214	H	-0.247584	-1.159440	-0.712876
H215	H	0.085749	-0.826107	-0.379543
H216	H	0.419083	-0.492774	-0.046210
O217	O	-0.574520	-0.974292	-0.416111
O218	O	-0.241186	-0.640958	-0.082778
O219	O	0.092147	-0.307625	0.250555
H220	H	-0.610975	-0.941245	-0.446174
H221	H	-0.277642	-0.607912	-0.112841
H222	H	0.055691	-0.274579	0.220493
O223	O	-0.195328	-0.520152	-0.361541
O224	O	0.138006	-0.186819	-0.028208
O225	O	0.471339	0.146515	0.305125
H226	H	-0.160756	-0.567595	-0.370358
H227	H	0.172577	-0.234262	-0.037025
H228	H	0.505910	0.099072	0.296309
H229	H	-0.247487	-1.159515	-1.068637
H230	H	0.085846	-0.826182	-0.735303
H231	H	0.419179	-0.492849	-0.401970
H232	H	-0.440155	-0.619773	-0.295408
H233	H	-0.106822	-0.286440	0.037925
H234	H	0.226511	0.046894	0.371259
H235	H	-0.356555	-0.527051	-0.212209
H236	H	-0.023222	-0.193717	0.121124
H237	H	0.310111	0.139616	0.454458
O238	O	-0.230247	-0.626915	-0.230502
O239	O	0.103087	-0.293582	0.102831
O240	O	0.436420	0.039751	0.436165
H241	H	-0.205372	-0.579465	-0.204981
H242	H	0.127962	-0.246132	0.128352
H243	H	0.461295	0.087201	0.461685
H244	H	-1.067871	-0.987088	-0.404765
H245	H	-0.734538	-0.653754	-0.071432
H246	H	-0.401204	-0.320421	0.261901
H247	H	-0.247530	-1.159497	-0.940403
H248	H	0.085804	-0.826163	-0.607070
H249	H	0.419137	-0.492830	-0.273736
H250	H	-0.247617	-1.159413	-0.584632
H251	H	0.085716	-0.826080	-0.251298
H252	H	0.419049	-0.492746	0.082035
O253	O	-0.721423	-1.171942	-0.236393
O254	O	-0.388090	-0.838609	0.096940
O255	O	-0.054757	-0.505275	0.430273
H256	H	-0.684965	-1.204969	-0.206316
H257	H	-0.351632	-0.871635	0.127018
H258	H	-0.018298	-0.538302	0.460351
O259	O	-0.574496	-1.171897	-0.236378
O260	O	-0.241162	-0.838563	0.096955
O261	O	0.092171	-0.505230	0.430288
H262	H	-0.519406	-1.163889	-0.243630
H263	H	-0.186073	-0.830556	0.089703
H264	H	0.147261	-0.497222	0.423037
O265	O	-0.416007	-0.974495	-0.930982
O266	O	-0.082674	-0.641161	-0.597649
O267	O	0.250659	-0.307828	-0.264316
H268	H	-0.404384	-0.916221	-0.944548
H269	H	-0.071051	-0.582888	-0.611215
H270	H	0.262283	-0.249555	-0.277881
H271	H	-0.712102	-0.986913	-0.404708
H272	H	-0.378769	-0.653580	-0.071374
H273	H	-0.045435	-0.320246	0.261959
H274	H	-0.404539	-0.987088	-1.068572
H275	H	-0.071206	-0.653754	-0.735239
H276	H	0.262127	-0.320421	-0.401905
