data_functionalizedCrystal
_audit_creation_method	'MofGen! by Chris Wilmer'
_symmetry_space_group_name_H-M	'P1'
_symmetry_Int_Tables_number	1
_symmetry_cell_setting	triclinic
loop_
_symmetry_equiv_pos_as_xyz
  x,y,z
_cell_length_a	11.169417
_cell_length_b	13.897441
_cell_length_c	11.169416
_cell_angle_alpha	89.975075
_cell_angle_beta	90.011589
_cell_angle_gamma	89.983906
loop_
_atom_site_label
_atom_site_type_symbol
_atom_site_fract_x
_atom_site_fract_y
_atom_site_fract_z
Zn1	Zn	1.834922	-0.545348	-0.477740
Zn2	Zn	2.168255	-0.212015	-0.144407
Zn3	Zn	2.501588	0.121318	0.188926
Zn4	Zn	1.834823	-0.384063	-0.678460
Zn5	Zn	2.168156	-0.050730	-0.345127
Zn6	Zn	2.501490	0.282604	-0.011793
Zn7	Zn	1.634220	-0.384074	-0.477794
Zn8	Zn	1.967553	-0.050740	-0.144461
Zn9	Zn	2.300886	0.282593	0.188873
Zn10	Zn	1.634215	-0.545323	-0.678385
Zn11	Zn	1.967549	-0.211989	-0.345051
Zn12	Zn	2.300882	0.121344	-0.011718
O13	O	1.734545	-0.464702	-0.578095
O14	O	2.067878	-0.131369	-0.244761
O15	O	2.401212	0.201965	0.088572
O16	O	2.002858	-0.523960	-0.504375
O17	O	2.336192	-0.190626	-0.171042
O18	O	2.669525	0.142707	0.162291
O19	O	1.808173	-0.249083	-0.651895
O20	O	2.141507	0.084251	-0.318562
O21	O	2.474840	0.417584	0.014771
O22	O	1.660886	-0.405482	-0.309837
O23	O	1.994220	-0.072149	0.023496
O24	O	2.327553	0.261184	0.356829
O25	O	2.002786	-0.405464	-0.651843
O26	O	2.336119	-0.072131	-0.318510
O27	O	2.669453	0.261203	0.014823
O28	O	1.808341	-0.523970	-0.309798
O29	O	2.141675	-0.190637	0.023536
O30	O	2.475008	0.142697	0.356869
O31	O	1.660791	-0.249091	-0.504467
O32	O	1.994124	0.084243	-0.171134
O33	O	2.327457	0.417576	0.162200
O34	O	1.466269	-0.405457	-0.504394
O35	O	1.799603	-0.072124	-0.171060
O36	O	2.132936	0.261209	0.162273
O37	O	1.660879	-0.680308	-0.651715
O38	O	1.994212	-0.346974	-0.318381
O39	O	2.327545	-0.013641	0.014952
O40	O	1.466266	-0.523926	-0.651767
O41	O	1.799599	-0.190593	-0.318433
O42	O	2.132933	0.142740	0.014900
O43	O	1.808337	-0.680327	-0.504302
O44	O	2.141670	-0.346993	-0.170969
O45	O	2.475004	-0.013660	0.162364
O46	O	1.808169	-0.405439	-0.846400
O47	O	2.141502	-0.072106	-0.513066
O48	O	2.474836	0.261228	-0.179733
O49	O	1.660783	-0.523916	-0.846344
O50	O	1.994116	-0.190583	-0.513011
O51	O	2.327450	0.142751	-0.179678
C52	C	1.422720	-0.464691	-0.578079
C53	C	1.756054	-0.131358	-0.244745
C54	C	2.089387	0.201976	0.088588
C55	C	1.289320	-0.464709	-0.578101
C56	C	1.622654	-0.131376	-0.244767
C57	C	1.955987	0.201958	0.088566
C58	C	1.734618	-0.716295	-0.577994
C59	C	2.067952	-0.382962	-0.244661
C60	C	2.401285	-0.049628	0.088673
C61	C	1.734650	-0.823509	-0.577951
C62	C	2.067983	-0.490176	-0.244618
C63	C	2.401316	-0.156842	0.088716
C64	C	1.734674	-0.910579	-0.577917
C65	C	2.068008	-0.577245	-0.244584
C66	C	2.401341	-0.243912	0.088750
C67	C	1.734709	-1.019811	-0.577863
C68	C	2.068042	-0.686478	-0.244530
C69	C	2.401375	-0.353145	0.088804
C70	C	2.047587	-0.464714	-0.578112
C71	C	2.380921	-0.131380	-0.244779
C72	C	2.714254	0.201953	0.088555
C73	C	2.180987	-0.464718	-0.578119
C74	C	2.514321	-0.131385	-0.244786
C75	C	2.847654	0.201948	0.088547
C76	C	1.734497	-0.464695	-0.889919
C77	C	2.067831	-0.131361	-0.556586
C78	C	2.401164	0.201972	-0.223253
C79	C	1.734587	-0.464724	-1.023319
C80	C	2.067920	-0.131390	-0.689986
C81	C	2.401254	0.201943	-0.356653
C82	C	1.734541	-0.214088	-0.578109
C83	C	2.067874	0.119246	-0.244775
C84	C	2.401208	0.452579	0.088558
C85	C	1.734742	-0.106874	-0.577813
C86	C	2.068075	0.226459	-0.244480
C87	C	2.401409	0.559793	0.088853
C88	C	1.734625	-0.464730	-0.265052
C89	C	2.067959	-0.131397	0.068281
C90	C	2.401292	0.201936	0.401614
C91	C	1.734660	-0.464742	-0.131652
C92	C	2.067993	-0.131409	0.201681
C93	C	2.401326	0.201924	0.535014
