data_functionalizedCrystal
_audit_creation_method	'MofGen! by Chris Wilmer'
_symmetry_space_group_name_H-M	'P1'
_symmetry_Int_Tables_number	1
_symmetry_cell_setting	triclinic
loop_
_symmetry_equiv_pos_as_xyz
  x,y,z
_cell_length_a	19.805407
_cell_length_b	16.959454
_cell_length_c	19.805399
_cell_angle_alpha	89.977613
_cell_angle_beta	89.980427
_cell_angle_gamma	90.020075
loop_
_atom_site_label
_atom_site_type_symbol
_atom_site_fract_x
_atom_site_fract_y
_atom_site_fract_z
Zn1	Zn	1.034765	-0.314700	-0.382744
Zn2	Zn	1.034693	-0.446882	-0.269566
Zn3	Zn	0.921580	-0.314722	-0.269569
Zn4	Zn	0.921556	-0.446840	-0.382713
O5	O	0.978149	-0.380786	-0.326148
O6	O	1.129472	-0.332243	-0.367743
O7	O	1.019668	-0.429378	-0.174850
O8	O	0.936635	-0.204108	-0.284596
O9	O	1.129419	-0.429356	-0.284591
O10	O	1.019792	-0.204092	-0.367745
O11	O	0.936564	-0.332280	-0.174852
O12	O	0.826860	-0.332239	-0.284565
O13	O	0.936594	-0.429285	-0.477434
O14	O	0.826843	-0.429306	-0.367692
O15	O	1.019768	-0.332202	-0.477457
O16	O	1.019645	-0.557488	-0.284561
O17	O	0.936524	-0.557457	-0.367690
C18	C	0.802293	-0.380771	-0.326126
C19	C	0.727061	-0.380783	-0.326133
C20	C	0.691725	-0.431402	-0.369347
C21	C	0.621037	-0.431404	-0.369356
C22	C	0.585685	-0.380790	-0.326148
C23	C	0.621026	-0.330165	-0.282932
C24	C	0.691713	-0.330160	-0.282926
C25	C	0.335952	-0.330183	-0.282954
C26	C	0.265260	-0.330193	-0.282962
C27	C	0.265276	-0.431426	-0.369384
C28	C	0.335963	-0.431421	-0.369379
C29	C	0.371298	-0.380794	-0.326166
C30	C	0.447946	-0.380792	-0.326157
C31	C	0.509038	-0.380795	-0.326153
C32	C	0.978092	-0.586152	-0.326136
C33	C	0.978130	-0.674009	-0.326154
C34	C	0.934930	-1.045498	-0.369428
C35	C	1.021555	-1.045470	-0.282937
C36	C	1.021532	-0.962925	-0.282930
C37	C	0.978206	-0.921662	-0.326173
C38	C	0.934904	-0.962945	-0.369422
C39	C	1.064828	-0.921635	-0.239677
C40	C	1.064806	-0.839085	-0.239669
C41	C	1.021483	-0.797820	-0.282915
C42	C	0.978180	-0.839108	-0.326167
C43	C	0.934854	-0.797845	-0.369409
C44	C	0.891553	-0.839132	-0.412665
C45	C	0.891581	-0.921680	-0.412669
C46	C	1.021455	-0.715272	-0.282911
C47	C	0.934827	-0.715292	-0.369403
C48	C	1.154691	-0.380802	-0.326170
C49	C	1.229923	-0.380808	-0.326180
C50	C	0.978187	-0.380736	-0.502691
C51	C	0.978203	-0.380715	-0.577923
C52	C	0.978224	-0.174618	-0.326174
C53	C	0.978256	-0.086761	-0.326186
C54	C	1.021513	-0.330161	-0.613280
C55	C	1.021520	-0.330138	-0.683968
C56	C	0.978220	-0.380674	-0.719298
C57	C	0.934905	-0.431230	-0.683936
C58	C	0.934895	-0.431248	-0.613249
C59	C	0.934943	-0.431156	-0.969010
C60	C	0.934958	-0.431135	-1.039702
C61	C	1.021568	-0.330046	-1.039729
C62	C	1.021558	-0.330065	-0.969042
C63	C	0.978241	-0.380617	-0.933686
C64	C	0.978233	-0.380641	-0.857037
C65	C	0.978230	-0.380655	-0.795946
C66	C	0.978150	-0.380779	-0.150292
C67	C	0.978265	-0.380577	-0.075060
H68	H	0.720482	-0.288937	-0.247741
C69	C	1.059957	-0.285299	-0.504936
C70	C	1.069108	-0.274609	-0.574448
H71	H	1.089343	-0.251002	-0.480965
H72	H	1.014487	-0.273731	-0.493348
H73	H	1.069846	-0.338413	-0.493351
H74	H	1.059214	-0.221496	-0.586033
H75	H	1.114588	-0.286171	-0.586040
H76	H	0.592237	-0.288951	-0.247754
H77	H	0.899647	-0.472373	-0.712708
C78	C	0.901891	-0.565100	-0.591450
C79	C	0.887299	-0.486826	-0.574375
H80	H	0.872510	-0.599411	-0.567446
H81	H	0.895692	-0.572319	-0.638598
H82	H	0.947367	-0.576657	-0.579875
H83	H	0.841825	-0.475267	-0.585955
H84	H	0.893493	-0.479603	-0.527217
H85	H	0.856274	-0.805526	-0.447870
H86	H	0.899549	-0.681701	-0.404619
C87	C	0.415458	-0.223835	-0.273699
C88	C	0.374789	-0.274541	-0.235452
H89	H	0.439433	-0.189481	-0.244371
H90	H	0.446624	-0.253976	-0.299427
H91	H	0.387893	-0.193650	-0.303232
H92	H	0.402354	-0.304730	-0.205923
H93	H	0.343619	-0.244396	-0.209714
H94	H	0.720503	-0.472621	-0.404530
H95	H	0.592269	-0.472623	-0.404545
C96	C	1.054551	-0.196293	-0.705737
C97	C	1.069131	-0.274566	-0.722826
H98	H	1.083949	-0.161983	-0.729722
H99	H	1.009087	-0.184719	-0.717320
H100	H	1.060740	-0.189091	-0.658580
H101	H	1.062937	-0.281769	-0.769983
H102	H	1.114606	-0.286144	-0.711248
C103	C	0.849327	-0.531054	-1.032579
C104	C	0.887353	-0.486682	-1.078538
H105	H	0.819938	-0.565340	-1.056556
H106	H	0.878796	-0.561303	-1.005010
H107	H	0.823448	-0.496609	-1.005007
H108	H	0.913236	-0.521127	-1.106107
H109	H	0.857880	-0.456430	-1.106118
H110	H	1.056819	-0.288916	-0.940280
C111	C	0.272341	-0.230105	-0.197541
C112	C	0.226400	-0.274547	-0.235469
H113	H	0.248349	-0.195751	-0.168226
H114	H	0.299891	-0.264495	-0.171595
H115	H	0.299932	-0.199917	-0.227083
H116	H	0.198812	-0.304740	-0.205928
H117	H	0.198838	-0.240153	-0.261418
C118	C	0.901905	-1.070871	-0.484015
C119	C	0.887338	-1.090878	-0.416974
H120	H	0.872525	-1.098892	-0.513366
H121	H	0.895684	-1.015809	-0.490192
H122	H	0.947382	-1.084357	-0.493954
H123	H	0.841861	-1.077386	-0.407032
H124	H	0.893552	-1.145952	-0.410793
C125	C	1.060012	-1.171999	-0.244501
C126	C	1.069148	-1.090825	-0.235376
H127	H	1.089391	-1.199999	-0.215132
H128	H	1.014541	-1.185545	-0.234578
H129	H	1.069922	-1.185505	-0.289981
H130	H	1.059233	-1.077318	-0.189898
H131	H	1.114630	-1.077273	-0.245294
H132	H	1.100097	-0.955238	-0.204466
H133	H	0.856327	-0.955303	-0.447884
C134	C	1.060040	-0.285113	-1.148100
C135	C	1.069176	-0.274467	-1.078595
H136	H	1.089428	-0.250798	-1.172091
H137	H	1.069929	-0.338211	-1.159679
H138	H	1.014566	-0.273535	-1.159669
H139	H	1.114648	-0.286050	-1.067025
H140	H	1.059291	-0.221355	-1.067011
H141	H	1.100064	-0.805474	-0.204449
C142	C	0.357769	-0.470091	-0.483932
C143	C	0.374821	-0.487054	-0.416877
H144	H	0.381761	-0.504433	-0.513257
H145	H	0.310619	-0.477342	-0.490116
H146	H	0.369373	-0.416993	-0.493903
H147	H	0.363212	-0.540150	-0.406904
H148	H	0.421982	-0.479809	-0.410690
C149	C	0.156924	-0.476385	-0.407782
C150	C	0.226434	-0.487069	-0.416894
H151	H	0.132948	-0.510734	-0.437114
H152	H	0.145319	-0.487885	-0.362295
H153	H	0.145365	-0.423290	-0.417769
H154	H	0.237995	-0.540163	-0.406901
H155	H	0.238045	-0.475575	-0.462391
C156	C	1.107074	-0.723540	-0.197411
C157	C	1.069044	-0.669890	-0.235368
H158	H	1.136457	-0.695522	-0.168061
H159	H	1.077607	-0.755774	-0.171500
H160	H	1.132959	-0.755701	-0.226932
H161	H	1.043155	-0.637732	-0.205848
H162	H	1.098515	-0.637642	-0.261281
C163	C	0.925470	-0.537505	-0.889511
C164	C	0.887329	-0.486728	-0.930159
H165	H	0.896071	-0.571811	-0.865524
H166	H	0.954951	-0.567732	-0.917085
H167	H	0.951248	-0.507408	-0.858348
H168	H	0.861555	-0.516825	-0.961325
H169	H	0.857837	-0.456499	-0.902582
