data_functionalizedCrystal
_audit_creation_method	'MofGen! by Chris Wilmer'
_symmetry_space_group_name_H-M	'P1'
_symmetry_Int_Tables_number	1
_symmetry_cell_setting	triclinic
loop_
_symmetry_equiv_pos_as_xyz
  x,y,z
_cell_length_a	29.839134
_cell_length_b	12.827892
_cell_length_c	29.839125
_cell_angle_alpha	90.004568
_cell_angle_beta	90.023632
_cell_angle_gamma	90.010254
loop_
_atom_site_label
_atom_site_type_symbol
_atom_site_fract_x
_atom_site_fract_y
_atom_site_fract_z
Zn1	Zn	0.686808	-0.416386	0.254147
Zn2	Zn	0.686772	-0.591086	0.179026
Zn3	Zn	0.611689	-0.416344	0.179017
Zn4	Zn	0.611673	-0.591070	0.254115
O5	O	0.649236	-0.503721	0.216576
O6	O	0.749671	-0.439584	0.244200
O7	O	0.676804	-0.567896	0.116158
O8	O	0.621675	-0.270114	0.188992
O9	O	0.749644	-0.567936	0.189009
O10	O	0.676865	-0.270144	0.244190
O11	O	0.621641	-0.439513	0.116151
O12	O	0.548820	-0.439498	0.188961
O13	O	0.621648	-0.567908	0.316986
O14	O	0.548808	-0.567868	0.244135
O15	O	0.676850	-0.439568	0.317010
O16	O	0.676789	-0.737320	0.188977
O17	O	0.621613	-0.737308	0.244144
C18	C	0.649207	-0.775231	0.216568
C19	C	0.649237	-0.891384	0.216580
C20	C	0.532513	-0.503677	0.216544
C21	C	0.482579	-0.503683	0.216541
C22	C	0.676571	-0.943141	0.189312
C23	C	0.676602	-1.063191	0.189323
C24	C	0.172939	-0.570663	0.245270
C25	C	-0.014734	-0.570692	0.245290
O26	O	-0.038996	-0.627591	0.269698
N27	N	-0.038207	-0.503760	0.216610
C28	C	-0.014757	-0.436811	0.187925
O29	O	-0.039028	-0.379874	0.163534
C30	C	0.172915	-0.436777	0.187907
C31	C	0.196384	-0.503721	0.216586
C32	C	0.196408	-0.637600	0.273947
C33	C	0.243324	-0.637596	0.273940
C34	C	0.266769	-0.570655	0.245256
C35	C	0.243300	-0.503717	0.216579
C36	C	0.196363	-0.369823	0.159225
C37	C	0.243284	-0.369818	0.159224
C38	C	0.266754	-0.436763	0.187903
C39	C	0.313661	-0.436771	0.187888
N40	N	0.337133	-0.503703	0.216569
C41	C	0.313687	-0.570645	0.245252
C42	C	-0.113288	-0.436835	0.187935
C43	C	-0.160206	-0.436844	0.187939
C44	C	-0.160180	-0.570725	0.245305
C45	C	-0.113261	-0.570719	0.245299
C46	C	-0.089816	-0.503767	0.216616
C47	C	0.412213	-0.570632	0.245235
C48	C	0.459133	-0.570625	0.245224
C49	C	0.459103	-0.436741	0.187860
C50	C	0.412187	-0.436752	0.187869
C51	C	0.388743	-0.503701	0.216560
O52	O	0.337952	-0.379893	0.163497
O53	O	0.337966	-0.627557	0.269646
C54	C	0.126023	-0.570667	0.245277
C55	C	0.102553	-0.503729	0.216600
C56	C	0.125999	-0.436787	0.187916
C57	C	0.055636	-0.503738	0.216604
C58	C	0.032190	-0.570680	0.245288
C59	C	0.055662	-0.637613	0.273968
C60	C	0.102577	-0.637609	0.273961
C61	C	0.102527	-0.369855	0.159236
C62	C	0.055612	-0.369865	0.159245
C63	C	0.032166	-0.436807	0.187929
C64	C	0.766414	-0.503767	0.216609
C65	C	0.816348	-0.503786	0.216623
C66	C	0.649251	-0.503741	0.333754
C67	C	0.649258	-0.503749	0.383689
C68	C	0.649276	-0.231151	0.216594
C69	C	0.649293	-0.114998	0.216602
C70	C	0.649246	-0.503626	0.099854
C71	C	0.649326	-0.503324	0.049919
C72	C	0.620545	-0.570336	0.740264
C73	C	0.620529	-0.570457	0.552591
O74	O	0.596073	-0.627268	0.528316
N75	N	0.649268	-0.503653	0.529134
C76	C	0.678010	-0.436809	0.552599
O77	O	0.702450	-0.379983	0.528341
C78	C	0.678024	-0.436684	0.740271
C79	C	0.649287	-0.503500	0.763725
C80	C	0.591810	-0.637146	0.763718
C81	C	0.591816	-0.637119	0.810634
C82	C	0.620557	-0.570283	0.834095
C83	C	0.649293	-0.503473	0.810641
C84	C	0.706763	-0.369836	0.763735
C85	C	0.706763	-0.369809	0.810656
C86	C	0.678026	-0.436625	0.834110
C87	C	0.678040	-0.436610	0.881017
N88	N	0.649301	-0.503414	0.904474
C89	C	0.620560	-0.570250	0.881013
C90	C	0.678002	-0.436881	0.454068
C91	C	0.677999	-0.436913	0.407150
C92	C	0.620517	-0.570560	0.407145
C93	C	0.620523	-0.570532	0.454064
C94	C	0.649263	-0.503685	0.477525
C95	C	0.620575	-0.570190	0.979539
C96	C	0.620585	-0.570160	1.026458
C97	C	0.678065	-0.436510	1.026459
C98	C	0.678057	-0.436543	0.979543
C99	C	0.649308	-0.503386	0.956084
O100	O	0.702480	-0.379820	0.905321
O101	O	0.596117	-0.627051	0.905278
C102	C	0.620539	-0.570363	0.693348
C103	C	0.649274	-0.503553	0.669894
C104	C	0.678016	-0.436717	0.693355
C105	C	0.649272	-0.503586	0.622976
C106	C	0.620531	-0.570422	0.599515
C107	C	0.591792	-0.637226	0.622972
C108	C	0.591798	-0.637199	0.669887
C109	C	0.706754	-0.369913	0.669899
C110	C	0.706746	-0.369946	0.622983
C111	C	0.678005	-0.436783	0.599522
H112	H	0.699953	-0.898577	0.165959
H113	H	0.568397	-0.691607	0.688979
Cl114	Cl	0.742900	-0.285905	0.699386
Cl115	Cl	0.272755	-0.285643	0.123163
H116	H	0.597162	-0.624610	0.960444
H117	H	-0.179277	-0.625231	0.268661
Cl118	Cl	-0.083821	-0.352657	0.151872
H119	H	0.625888	-1.070497	0.239946
Cl120	Cl	0.166942	-0.721768	0.310011
Cl121	Cl	0.555662	-0.721250	0.593468
H122	H	0.700003	-1.107700	0.165977
Cl123	Cl	0.742892	-0.285757	0.840146
H124	H	0.701460	-0.382144	0.960446
H125	H	0.393077	-0.382242	0.164516
Cl126	Cl	0.742878	-0.285944	0.593504
H127	H	0.701404	-0.382516	0.388058
Cl128	Cl	0.488634	-0.654792	0.281280
Cl129	Cl	0.613141	-0.960183	0.252641
H130	H	0.701467	-0.382097	1.045569
H131	H	0.036564	-0.692122	0.297322
Cl132	Cl	0.272821	-0.721753	0.309998
Cl133	Cl	0.382749	-0.654799	0.281304
Cl134	Cl	-0.083761	-0.654878	0.281354
Cl135	Cl	0.555687	-0.721119	0.840112
H136	H	-0.179311	-0.382342	0.164581
Cl137	Cl	0.166870	-0.285651	0.123172
H138	H	0.478201	-0.382242	0.164505
Cl139	Cl	0.132075	-0.721770	0.310017
H140	H	0.036507	-0.315352	0.135887
Cl141	Cl	0.131995	-0.285688	0.123174
Cl142	Cl	0.584457	-0.654166	1.055940
H143	H	0.568403	-0.691571	0.744621
Cl144	Cl	0.584393	-0.654529	0.483545
Cl145	Cl	0.584386	-0.654582	0.377643
H146	H	0.701408	-0.382444	0.473165
H147	H	0.730165	-0.315428	0.744646
