data_functionalizedCrystal
_audit_creation_method	'MofGen! by Chris Wilmer'
_symmetry_space_group_name_H-M	'P1'
_symmetry_Int_Tables_number	1
_symmetry_cell_setting	triclinic
loop_
_symmetry_equiv_pos_as_xyz
  x,y,z
_cell_length_a	21.395362
_cell_length_b	25.639239
_cell_length_c	21.395356
_cell_angle_alpha	89.971496
_cell_angle_beta	89.957023
_cell_angle_gamma	90.054564
loop_
_atom_site_label
_atom_site_type_symbol
_atom_site_fract_x
_atom_site_fract_y
_atom_site_fract_z
Zn1	Zn	0.957819	-0.207942	-0.354582
Zn2	Zn	1.291152	0.125391	-0.021249
Zn3	Zn	1.624486	0.458724	0.312085
Zn4	Zn	0.957709	-0.295376	-0.249803
Zn5	Zn	1.291042	0.037957	0.083530
Zn6	Zn	1.624375	0.371291	0.416864
Zn7	Zn	0.853036	-0.207981	-0.249783
Zn8	Zn	1.186369	0.125353	0.083550
Zn9	Zn	1.519702	0.458686	0.416883
Zn10	Zn	0.852988	-0.295373	-0.354508
Zn11	Zn	1.186322	0.037960	-0.021174
Zn12	Zn	1.519655	0.371294	0.312159
O13	O	0.905388	-0.251668	-0.302169
O14	O	1.238721	0.081665	0.031164
O15	O	1.572055	0.414999	0.364498
O16	O	1.045482	-0.219526	-0.340722
O17	O	1.378815	0.113807	-0.007389
O18	O	1.712149	0.447141	0.325944
O19	O	0.943797	-0.283800	-0.162122
O20	O	1.277130	0.049533	0.171211
O21	O	1.610464	0.382866	0.504544
O22	O	0.867001	-0.134810	-0.263708
O23	O	1.200335	0.198523	0.069625
O24	O	1.533668	0.531856	0.402959
O25	O	1.045401	-0.283763	-0.263742
O26	O	1.378734	0.049570	0.069592
O27	O	1.712068	0.382903	0.402925
O28	O	0.943985	-0.134782	-0.340703
O29	O	1.277318	0.198551	-0.007370
O30	O	1.610652	0.531884	0.325964
O31	O	0.866894	-0.219591	-0.162108
O32	O	1.200228	0.113742	0.171225
O33	O	1.533561	0.447075	0.504559
O34	O	0.765351	-0.219588	-0.263636
O35	O	1.098685	0.113745	0.069697
O36	O	1.432018	0.447078	0.403031
O37	O	0.866921	-0.283758	-0.442196
O38	O	1.200254	0.049576	-0.108862
O39	O	1.533588	0.382909	0.224471
O40	O	0.765317	-0.283795	-0.340576
O41	O	1.098650	0.049538	-0.007243
O42	O	1.431983	0.382872	0.326090
O43	O	0.943939	-0.219523	-0.442250
O44	O	1.277273	0.113810	-0.108917
O45	O	1.610606	0.447144	0.224417
O46	O	0.943751	-0.368541	-0.263669
O47	O	1.277085	-0.035208	0.069664
O48	O	1.610418	0.298126	0.402997
O49	O	0.866814	-0.368539	-0.340596
O50	O	1.200147	-0.035205	-0.007262
O51	O	1.533481	0.298128	0.326071
C52	C	0.742600	-0.251696	-0.302096
C53	C	1.075933	0.081638	0.031237
C54	C	1.409267	0.414971	0.364570
C55	C	0.672959	-0.251720	-0.302080
C56	C	1.006292	0.081613	0.031253
C57	C	1.339626	0.414947	0.364587
C58	C	0.640244	-0.285197	-0.342083
C59	C	0.973577	0.048136	-0.008750
C60	C	1.306911	0.381470	0.324584
C61	C	0.574809	-0.285184	-0.342111
C62	C	0.908142	0.048149	-0.008778
C63	C	1.241475	0.381483	0.324556
C64	C	0.542091	-0.251700	-0.302125
C65	C	0.875424	0.081633	0.031209
C66	C	1.208757	0.414967	0.364542
C67	C	0.574813	-0.218217	-0.262119
C68	C	0.908147	0.115117	0.071214
C69	C	1.241480	0.448450	0.404548
C70	C	0.640247	-0.218227	-0.262097
C71	C	0.973581	0.115106	0.071237
C72	C	1.306914	0.448440	0.404570
C73	C	0.438368	-0.247496	-0.245720
C74	C	0.771701	0.085838	0.087614
C75	C	1.105034	0.419171	0.420947
C76	C	0.372935	-0.247489	-0.245741
C77	C	0.706268	0.085844	0.087593
C78	C	1.039601	0.419178	0.420926
C79	C	0.340270	-0.251666	-0.302194
C80	C	0.673603	0.081667	0.031139
C81	C	1.006937	0.415001	0.364473
C82	C	0.373046	-0.255860	-0.358627
C83	C	0.706380	0.077473	-0.025294
C84	C	1.039713	0.410807	0.308039
C85	C	0.438480	-0.255870	-0.358605
C86	C	0.771814	0.077463	-0.025272
C87	C	1.105147	0.410797	0.308062
C88	C	0.471138	-0.251685	-0.302145
C89	C	0.804472	0.081648	0.031189
C90	C	1.137805	0.414982	0.364522
C91	C	0.236603	-0.285130	-0.342231
C92	C	0.569936	0.048203	-0.008897
C93	C	0.903269	0.381536	0.324436
C94	C	0.171166	-0.285114	-0.342260
C95	C	0.504499	0.048219	-0.008926
C96	C	0.837833	0.381553	0.324407
C97	C	0.171172	-0.218149	-0.262262
C98	C	0.504505	0.115184	0.071071
C99	C	0.837839	0.448517	0.404405
C100	C	0.236607	-0.218163	-0.262239
C101	C	0.569941	0.115170	0.071095
C102	C	0.903274	0.448503	0.404428
C103	C	0.269319	-0.251657	-0.302222
C104	C	0.602652	0.081677	0.031111
C105	C	0.935985	0.415010	0.364445
C106	C	0.905282	-0.387511	-0.302140
C107	C	1.238616	-0.054177	0.031193
C108	C	1.571949	0.279156	0.364526
C109	C	0.905295	-0.445625	-0.302149
C110	C	1.238628	-0.112291	0.031184
C111	C	1.571961	0.221042	0.364518
C112	C	0.945554	-0.805976	-0.262182
C113	C	1.278887	-0.472643	0.071151
C114	C	1.612220	-0.139310	0.404485
C115	C	0.945578	-0.860581	-0.262190
C116	C	1.278911	-0.527247	0.071143
C117	C	1.612245	-0.193914	0.404476
O118	O	0.979698	-0.888808	-0.228177
O119	O	1.313032	-0.555474	0.105156
O120	O	1.646365	-0.222141	0.438489
N121	N	0.905498	-0.887907	-0.302211
N122	N	1.238831	-0.554574	0.031123
N123	N	1.572165	-0.221240	0.364456
C124	C	0.865396	-0.860626	-0.342230
C125	C	1.198729	-0.527293	-0.008896
C126	C	1.532062	-0.193960	0.324437
O127	O	0.831307	-0.888884	-0.376271
O128	O	1.164640	-0.555550	-0.042938
O129	O	1.497974	-0.222217	0.290396
C130	C	0.865375	-0.806023	-0.342224
C131	C	1.198708	-0.472690	-0.008891
C132	C	1.532042	-0.139356	0.324443
C133	C	0.905453	-0.778699	-0.302196
C134	C	1.238786	-0.445366	0.031137
C135	C	1.572120	-0.112033	0.364470
C136	C	0.985629	-0.778653	-0.222158
C137	C	1.318962	-0.445319	0.111175
C138	C	1.652296	-0.111986	0.444508
C139	C	0.985604	-0.724052	-0.222149
C140	C	1.318937	-0.390719	0.111184
C141	C	1.652270	-0.057385	0.444517
C142	C	0.945503	-0.696775	-0.262164
C143	C	1.278837	-0.363442	0.071170
C144	C	1.612170	-0.030109	0.404503
C145	C	0.905428	-0.724099	-0.302187
C146	C	1.238761	-0.390766	0.031146
C147	C	1.572094	-0.057432	0.364479
C148	C	0.825276	-0.778743	-0.382246
C149	C	1.158609	-0.445410	-0.048912
C150	C	1.491943	-0.112077	0.284421
C151	C	0.825259	-0.724136	-0.382237
C152	C	1.158593	-0.390803	-0.048903
C153	C	1.491926	-0.057470	0.284430
C154	C	0.865337	-0.696813	-0.342209
C155	C	1.198671	-0.363479	-0.008876
C156	C	1.532004	-0.030146	0.324457
C157	C	0.865302	-0.642222	-0.342193
C158	C	1.198635	-0.308888	-0.008860
C159	C	1.531969	0.024445	0.324474
N160	N	0.905382	-0.614895	-0.302173
N161	N	1.238715	-0.281562	0.031161
N162	N	1.572049	0.051772	0.364494
C163	C	0.945483	-0.642172	-0.262158
C164	C	1.278816	-0.308839	0.071175
C165	C	1.612149	0.024495	0.404509
C166	C	0.865443	-0.975297	-0.342239
C167	C	1.198776	-0.641964	-0.008906
C168	C	1.532109	-0.308630	0.324427
C169	C	0.865460	-1.029899	-0.342242
C170	C	1.198793	-0.696566	-0.008909
C171	C	1.532126	-0.363233	0.324424
C172	C	0.945643	-1.029850	-0.262204
C173	C	1.278977	-0.696516	0.071130
C174	C	1.612310	-0.363183	0.404463
C175	C	0.945623	-0.975246	-0.262198
C176	C	1.278956	-0.641913	0.071135
C177	C	1.612289	-0.308580	0.404469
C178	C	0.905523	-0.947971	-0.302219
C179	C	1.238856	-0.614637	0.031114
C180	C	1.572189	-0.281304	0.364448
C181	C	0.945426	-0.527507	-0.262142
C182	C	1.278759	-0.194174	0.071192
C183	C	1.612093	0.139160	0.404525
C184	C	0.945395	-0.472902	-0.262134
C185	C	1.278729	-0.139568	0.071199
C186	C	1.612062	0.193765	0.404532
C187	C	0.865215	-0.472956	-0.342175
C188	C	1.198548	-0.139623	-0.008842
C189	C	1.531881	0.193711	0.324492
C190	C	0.865243	-0.527556	-0.342180
C191	C	1.198576	-0.194223	-0.008847
C192	C	1.531909	0.139110	0.324486
C193	C	0.905353	-0.554831	-0.302162
C194	C	1.238687	-0.221497	0.031172
C195	C	1.572020	0.111836	0.364505
O196	O	0.831201	-0.613960	-0.376190
O197	O	1.164534	-0.280626	-0.042857
O198	O	1.497867	0.052707	0.290476
O199	O	0.979571	-0.613908	-0.228128
O200	O	1.312904	-0.280575	0.105205
O201	O	1.646238	0.052759	0.438539
C202	C	1.068811	-0.251641	-0.302242
C203	C	1.402145	0.081693	0.031091
C204	C	1.735478	0.415026	0.364424
C205	C	1.138452	-0.251629	-0.302274
C206	C	1.471786	0.081704	0.031060
C207	C	1.805119	0.415038	0.364393
C208	C	0.905437	-0.251636	-0.465592
C209	C	1.238770	0.081698	-0.132259
C210	C	1.572104	0.415031	0.201074
C211	C	0.905458	-0.251622	-0.535234
C212	C	1.238791	0.081712	-0.201900
C213	C	1.572125	0.415045	0.131433
C214	C	0.905511	-0.115295	-0.302212
C215	C	1.238844	0.218038	0.031122
C216	C	1.572177	0.551372	0.364455
C217	C	0.905563	-0.057181	-0.302230
C218	C	1.238896	0.276152	0.031104
C219	C	1.572230	0.609486	0.364437
C220	C	0.865426	-0.218184	-0.567929
C221	C	1.198759	0.115149	-0.234596
C222	C	1.532092	0.448482	0.098737
C223	C	0.865423	-0.218175	-0.633365
C224	C	1.198757	0.115159	-0.300032
C225	C	1.532090	0.448492	0.033302
C226	C	0.905465	-0.251597	-0.666102
C227	C	1.238798	0.081736	-0.332769
C228	C	1.572132	0.415070	0.000565
C229	C	0.945500	-0.285041	-0.633398
C230	C	1.278834	0.048292	-0.300065
C231	C	1.612167	0.381626	0.033268
C232	C	0.945497	-0.285053	-0.567964
C233	C	1.278830	0.048280	-0.234631
C234	C	1.612164	0.381613	0.098702
C235	C	0.961916	-0.255694	-0.769807
C236	C	1.295250	0.077639	-0.436474
C237	C	1.628583	0.410972	-0.103141
C238	C	0.961921	-0.255678	-0.835240
C239	C	1.295254	0.077655	-0.501907
C240	C	1.628588	0.410988	-0.168574
C241	C	0.905475	-0.251562	-0.867923
C242	C	1.238809	0.081772	-0.534590
C243	C	1.572142	0.415105	-0.201256
C244	C	0.849024	-0.247450	-0.835164
C245	C	1.182357	0.085883	-0.501831
C246	C	1.515690	0.419217	-0.168498
C247	C	0.849020	-0.247462	-0.769730
C248	C	1.182354	0.085871	-0.436397
C249	C	1.515687	0.419204	-0.103064
C250	C	0.905473	-0.251587	-0.737054
C251	C	1.238806	0.081746	-0.403721
C252	C	1.572140	0.415079	-0.070388
C253	C	0.865437	-0.218112	-0.971571
C254	C	1.198770	0.115221	-0.638238
C255	C	1.532104	0.448555	-0.304905
C256	C	0.865434	-0.218106	-1.037008
C257	C	1.198767	0.115227	-0.703675
C258	C	1.532101	0.448561	-0.370341
C259	C	0.945517	-0.284969	-1.037040
C260	C	1.278850	0.048364	-0.703707
C261	C	1.612183	0.381697	-0.370374
C262	C	0.945514	-0.284978	-0.971605
C263	C	1.278847	0.048355	-0.638271
C264	C	1.612181	0.381689	-0.304938
C265	C	0.905475	-0.251547	-0.938874
C266	C	1.238809	0.081787	-0.605541
C267	C	1.572142	0.415120	-0.272208
C268	C	0.905375	-0.251663	-0.139381
C269	C	1.238708	0.081671	0.193952
C270	C	1.572041	0.415004	0.527285
C271	C	0.905475	-0.251529	-0.069741
C272	C	1.238809	0.081804	0.263593
C273	C	1.572142	0.415138	0.596926
H274	H	0.346253	-0.244077	-0.199789
H275	H	0.679586	0.089256	0.133544
H276	H	1.012920	0.422589	0.466878
C277	C	0.989752	-1.059861	-0.218186
C278	C	1.323085	-0.726528	0.115147
C279	C	1.656419	-0.393195	0.448481
H280	H	0.984024	-1.096294	-0.223928
H281	H	1.317357	-0.762960	0.109405
H282	H	1.650691	-0.429627	0.442738
H283	H	0.980600	-1.050945	-0.176076
H284	H	1.313933	-0.717612	0.157258
H285	H	1.647266	-0.384278	0.490591
H286	H	1.031846	-1.050867	-0.227408
H287	H	1.365179	-0.717533	0.105925
H288	H	1.698512	-0.384200	0.439259
H289	H	0.144533	-0.190884	-0.229707
H290	H	0.477867	0.142450	0.103626
H291	H	0.811200	0.475783	0.436959
C292	C	1.024012	-0.260202	-0.871272
C293	C	1.357346	0.073132	-0.537938
C294	C	1.690679	0.406465	-0.204605
H295	H	1.015932	-0.259598	-0.914922
H296	H	1.349265	0.073735	-0.581589
H297	H	1.682598	0.407068	-0.248256
H298	H	1.044013	-0.292032	-0.860552
H299	H	1.377346	0.041302	-0.527219
H300	H	1.710680	0.374635	-0.193886
H301	H	1.050396	-0.231756	-0.860575
H302	H	1.383729	0.101577	-0.527241
H303	H	1.717063	0.434910	-0.193908
H304	H	0.464958	-0.244092	-0.199746
H305	H	0.798291	0.089241	0.133588
H306	H	1.131624	0.422575	0.466921
C307	C	0.821370	-1.059949	-0.386268
C308	C	1.154703	-0.726616	-0.052935
C309	C	1.488037	-0.393283	0.280398
H310	H	0.797490	-1.035879	-0.410099
H311	H	1.130823	-0.702546	-0.076766
H312	H	1.464156	-0.369212	0.256567
H313	H	0.794090	-1.081294	-0.362274
H314	H	1.127424	-0.747961	-0.028941
H315	H	1.460757	-0.414628	0.304393
H316	H	0.845336	-1.081207	-0.413606
H317	H	1.178670	-0.747874	-0.080273
H318	H	1.512003	-0.414540	0.253060
H319	H	0.465164	-0.259284	-0.404555
H320	H	0.798498	0.074050	-0.071222
H321	H	1.131831	0.407383	0.262111
H322	H	0.978032	-0.450656	-0.229537
H323	H	1.311365	-0.117323	0.103796
H324	H	1.644698	0.216010	0.437130
C325	C	0.821323	-0.945298	-0.386258
C326	C	1.154656	-0.611965	-0.052924
C327	C	1.487989	-0.278631	0.280409
H328	H	0.797455	-0.969397	-0.410086
H329	H	1.130788	-0.636063	-0.076753
H330	H	1.464121	-0.302730	0.256580
H331	H	0.845262	-0.923957	-0.413589
H332	H	1.178595	-0.590624	-0.080255
H333	H	1.511929	-0.257291	0.253078
H334	H	0.794023	-0.924040	-0.362250
H335	H	1.127356	-0.590707	-0.028916
H336	H	1.460689	-0.257374	0.304417
H337	H	0.832835	-0.190890	-0.944921
H338	H	1.166168	0.142443	-0.611587
H339	H	1.499501	0.475776	-0.278254
H340	H	0.978121	-0.312181	-1.063694
H341	H	1.311454	0.021152	-0.730361
H342	H	1.644787	0.354485	-0.397028
H343	H	0.792637	-0.800981	-0.414837
H344	H	1.125970	-0.467648	-0.081504
H345	H	1.459304	-0.134314	0.251829
H346	H	0.832563	-0.450739	-0.374753
H347	H	1.165896	-0.117405	-0.041419
H348	H	1.499230	0.215928	0.291914
H349	H	0.548170	-0.190953	-0.229563
H350	H	0.881503	0.142380	0.103770
H351	H	1.214837	0.475714	0.437104
C352	C	0.676238	-0.181404	-0.218091
C353	C	1.009571	0.151930	0.115243
C354	C	1.342905	0.485263	0.448576
H355	H	0.719893	-0.186204	-0.223806
H356	H	1.053227	0.147129	0.109527
H357	H	1.386560	0.480463	0.442860
H358	H	0.665457	-0.189005	-0.175980
H359	H	0.998791	0.144329	0.157353
H360	H	1.332124	0.477662	0.490687
H361	H	0.665575	-0.146281	-0.227347
H362	H	0.998908	0.187053	0.105987
H363	H	1.332241	0.520386	0.439320
H364	H	0.832830	-0.190879	-1.063628
H365	H	1.166163	0.142455	-0.730294
H366	H	1.499497	0.475788	-0.396961
C367	C	0.781149	-0.694136	-0.426261
C368	C	1.114482	-0.360803	-0.092928
C369	C	1.447815	-0.027469	0.240405
H370	H	0.757283	-0.718233	-0.450096
H371	H	1.090616	-0.384899	-0.116762
H372	H	1.423950	-0.051566	0.216571
H373	H	0.805094	-0.672795	-0.453587
H374	H	1.138427	-0.339461	-0.120254
H375	H	1.471760	-0.006128	0.213080
H376	H	0.753846	-0.672878	-0.402256
H377	H	1.087179	-0.339545	-0.068923
H378	H	1.420513	-0.006212	0.264410
C379	C	0.989542	-0.557501	-0.218118
C380	C	1.322875	-0.224168	0.115216
C381	C	1.656209	0.109166	0.448549
H382	H	1.013398	-0.533401	-0.194278
H383	H	1.346732	-0.200068	0.139055
H384	H	1.680065	0.133265	0.472388
H385	H	1.016844	-0.578761	-0.242115
H386	H	1.350177	-0.245427	0.091219
H387	H	1.683510	0.087906	0.424552
H388	H	0.965593	-0.578840	-0.190787
H389	H	1.298926	-0.245506	0.142546
H390	H	1.632260	0.087827	0.475880
C391	C	1.029698	-0.694003	-0.178126
C392	C	1.363031	-0.360670	0.155207
C393	C	1.696365	-0.027336	0.488540
H394	H	1.053585	-0.718075	-0.154305
H395	H	1.386919	-0.384742	0.179028
H396	H	1.720252	-0.051408	0.512362
H397	H	1.005744	-0.672740	-0.150789
H398	H	1.339078	-0.339406	0.182544
H399	H	1.672411	-0.006073	0.515878
H400	H	1.056980	-0.672664	-0.202131
H401	H	1.390314	-0.339331	0.131202
H402	H	1.723647	-0.005997	0.464535
H403	H	1.018287	-0.800856	-0.189573
H404	H	1.351621	-0.467522	0.143760
H405	H	1.684954	-0.134189	0.477093
C406	C	0.989713	-0.945195	-0.218173
C407	C	1.323046	-0.611862	0.115160
C408	C	1.656380	-0.278529	0.448493
H409	H	1.013599	-0.969266	-0.194348
H410	H	1.346932	-0.635932	0.138986
H411	H	1.680265	-0.302599	0.472319
H412	H	0.965756	-0.923931	-0.190840
H413	H	1.299089	-0.590598	0.142493
H414	H	1.632423	-0.257264	0.475827
H415	H	1.016997	-0.923857	-0.242177
H416	H	1.350331	-0.590524	0.091156
H417	H	1.683664	-0.257190	0.424490
C418	C	0.337124	-0.260453	-0.420729
C419	C	0.670458	0.072881	-0.087396
C420	C	1.003791	0.406214	0.245937
H421	H	0.293460	-0.259840	-0.412664
H422	H	0.626794	0.073493	-0.079330
H423	H	0.960127	0.406827	0.254003
H424	H	0.347824	-0.292306	-0.440692
H425	H	0.681157	0.041028	-0.107359
H426	H	1.014491	0.374361	0.225974
H427	H	0.347919	-0.232038	-0.447141
H428	H	0.681253	0.101296	-0.113808
H429	H	1.014586	0.434629	0.219526
H430	H	0.263238	-0.312400	-0.374791
H431	H	0.596571	0.020933	-0.041457
H432	H	0.929904	0.354267	0.291876
H433	H	0.832825	-0.190943	-0.659991
H434	H	1.166159	0.142390	-0.326658
H435	H	1.499492	0.475723	0.006676
C436	C	0.135180	-0.321948	-0.386256
C437	C	0.468513	0.011386	-0.052923
C438	C	0.801846	0.344719	0.280410
H439	H	0.164035	-0.341900	-0.410057
H440	H	0.497369	-0.008567	-0.076724
H441	H	0.830702	0.324766	0.256610
H442	H	0.109707	-0.301983	-0.413614
H443	H	0.443040	0.031351	-0.080281
H444	H	0.776374	0.364684	0.253052
H445	H	0.109601	-0.344695	-0.362233
H446	H	0.442934	-0.011362	-0.028900
H447	H	0.776267	0.321972	0.304433
C448	C	0.821157	-0.557614	-0.386208
C449	C	1.154491	-0.224280	-0.052875
C450	C	1.487824	0.109053	0.280459
H451	H	0.797274	-0.533546	-0.410040
H452	H	1.130607	-0.200213	-0.076706
H453	H	1.463941	0.133121	0.256627
H454	H	0.793880	-0.578962	-0.362216
H455	H	1.127213	-0.245629	-0.028882
H456	H	1.460546	0.087705	0.304451
H457	H	0.845129	-0.578868	-0.413545
H458	H	1.178462	-0.245535	-0.080212
H459	H	1.511796	0.087799	0.253122
C460	C	0.272595	-0.181345	-0.218227
C461	C	0.605929	0.151988	0.115107
C462	C	0.939262	0.485322	0.448440
H463	H	0.243740	-0.161404	-0.194412
H464	H	0.577073	0.171929	0.138922
H465	H	0.910406	0.505263	0.472255
H466	H	0.298181	-0.158594	-0.242232
H467	H	0.631514	0.174739	0.091101
H468	H	0.964847	0.508073	0.424435
H469	H	0.298061	-0.201325	-0.190873
H470	H	0.631395	0.132008	0.142460
H471	H	0.964728	0.465342	0.475793
C472	C	0.821382	-0.181414	-0.531929
C473	C	1.154715	0.151919	-0.198596
C474	C	1.488049	0.485253	0.134737
H475	H	0.797536	-0.161501	-0.560777
H476	H	1.130870	0.171833	-0.227444
H477	H	1.464203	0.505166	0.105889
H478	H	0.845369	-0.158635	-0.506427
H479	H	1.178702	0.174698	-0.173093
H480	H	1.512036	0.508032	0.160240
H481	H	0.794058	-0.201425	-0.506379
H482	H	1.127391	0.131908	-0.173046
H483	H	1.460725	0.465242	0.160287
C484	C	0.786928	-0.242949	-0.733698
C485	C	1.120262	0.090384	-0.400365
C486	C	1.453595	0.423718	-0.067031
H487	H	0.753309	-0.240499	-0.762529
H488	H	1.086642	0.092834	-0.429196
H489	H	1.419976	0.426167	-0.095863
H490	H	0.787765	-0.212649	-0.708179
H491	H	1.121099	0.120685	-0.374846
H492	H	1.454432	0.454018	-0.041512
H493	H	0.781399	-0.272925	-0.708162
H494	H	1.114733	0.060408	-0.374829
H495	H	1.448066	0.393741	-0.041495
C496	C	0.989553	-0.321755	-0.935635
C497	C	1.322887	0.011578	-0.602301
C498	C	1.656220	0.344911	-0.268968
H499	H	0.983813	-0.316979	-0.891976
H500	H	1.317147	0.016354	-0.558643
H501	H	1.650480	0.349688	-0.225310
H502	H	1.031659	-0.314096	-0.946390
H503	H	1.364992	0.019237	-0.613056
H504	H	1.698326	0.352570	-0.279723
H505	H	0.980347	-0.356886	-0.946341
H506	H	1.313680	-0.023552	-0.613008
H507	H	1.647014	0.309781	-0.279674
H508	H	1.007885	-0.259042	-0.743203
H509	H	1.341218	0.074291	-0.409869
H510	H	1.674552	0.407624	-0.076536
H511	H	0.803061	-0.244094	-0.861773
H512	H	1.136394	0.089239	-0.528440
H513	H	1.469727	0.422572	-0.195106
H514	H	0.978102	-0.312254	-0.660057
H515	H	1.311436	0.021080	-0.326724
H516	H	1.644769	0.354413	0.006609
C517	C	0.989538	-0.321833	-0.531997
C518	C	1.322872	0.011500	-0.198664
C519	C	1.656205	0.344834	0.134669
H520	H	1.013389	-0.341736	-0.560864
H521	H	1.346722	-0.008403	-0.227530
H522	H	1.680055	0.324931	0.105803
H523	H	0.965551	-0.344621	-0.506444
H524	H	1.298884	-0.011287	-0.173111
H525	H	1.632217	0.322046	0.160223
H526	H	1.016858	-0.301828	-0.506501
H527	H	1.350191	0.031506	-0.173168
H528	H	1.683525	0.364839	0.160166
H529	H	0.666874	-0.312469	-0.374642
H530	H	1.000207	0.020864	-0.041308
H531	H	1.333540	0.354198	0.292025
H532	H	0.548167	-0.312445	-0.374689
H533	H	0.881500	0.020889	-0.041355
H534	H	1.214834	0.354222	0.291978
