data_functionalizedCrystal
_audit_creation_method	'MofGen! by Chris Wilmer'
_symmetry_space_group_name_H-M	'P1'
_symmetry_Int_Tables_number	1
_symmetry_cell_setting	triclinic
loop_
_symmetry_equiv_pos_as_xyz
  x,y,z
_cell_length_a	10.654546
_cell_length_b	6.394989
_cell_length_c	9.130313
_cell_angle_alpha	90.001748
_cell_angle_beta	90.007851
_cell_angle_gamma	94.509382
loop_
_atom_site_label
_atom_site_type_symbol
_atom_site_fract_x
_atom_site_fract_y
_atom_site_fract_z
O1	O	-1.670944	0.293399	-0.122048
O2	O	-1.305761	0.321363	-0.121993
O3	O	-1.493536	0.003392	-0.122023
O4	O	-1.483169	0.611370	-0.122018
O5	O	-1.493534	0.003400	0.121576
O6	O	-1.305759	0.321372	0.121606
O7	O	-1.670942	0.293407	0.121551
Cu8	Cu	-1.488350	0.307390	0.143821
Cu9	Cu	-1.488353	0.307380	-0.144263
O10	O	-1.483167	0.611379	0.121580
C11	C	-1.258940	0.319316	-0.000187
C12	C	-1.119432	0.313177	-0.000166
C13	C	-1.041929	0.500393	-0.000180
C14	C	-0.910847	0.494612	-0.000195
C15	C	-0.934783	0.114383	-0.000188
C16	C	-1.065863	0.120166	-0.000163
C17	C	-1.028108	0.719915	-0.000191
C18	C	-0.897026	0.714134	-0.000205
C19	C	-0.717762	0.295460	-0.000238
C20	C	-0.857270	0.301613	-0.000206
C21	C	-1.485218	0.689225	-0.000226
C22	C	-1.491482	0.925551	-0.000231
N23	N	-1.488357	0.307396	0.346443
N24	N	-1.488355	0.307358	-0.346886
C25	C	-1.571527	0.166647	0.423082
C26	C	-1.571523	0.166621	0.576419
C27	C	-1.405177	0.448114	0.576465
C28	C	-1.405176	0.448127	0.423131
C29	C	-1.667569	0.004135	0.423057
C30	C	-1.667565	0.004110	0.576394
H31	H	-1.058348	0.805773	0.101759
C32	C	-1.624157	-0.200881	0.640641
N33	N	-1.591455	-0.355271	0.689034
H34	H	-1.064505	0.789810	-0.105365
C35	C	-1.636294	-0.212796	0.366827
N36	N	-1.612735	-0.376183	0.324475
H37	H	-0.852056	0.780481	0.104967
H38	H	-0.856170	0.796844	-0.102155
H39	H	-1.337452	0.562692	0.638920
C40	C	-1.151112	-0.085786	-0.000127
N41	N	-1.215323	-0.240917	-0.000100
C42	C	-1.313782	0.603123	0.338833
N43	N	-1.244980	0.719937	0.275341
C44	C	-1.791484	0.072860	0.358782
N45	N	-1.884818	0.124625	0.310370
H46	H	-0.891151	-0.042760	-0.000207
C47	C	-1.798428	0.052625	0.632604
N48	N	-1.896980	0.089228	0.674940
