data_functionalizedCrystal
_audit_creation_method	'MofGen! by Chris Wilmer'
_symmetry_space_group_name_H-M	'P1'
_symmetry_Int_Tables_number	1
_symmetry_cell_setting	triclinic
loop_
_symmetry_equiv_pos_as_xyz
  x,y,z
_cell_length_a	19.188905
_cell_length_b	19.188924
_cell_length_c	9.730223
_cell_angle_alpha	89.993539
_cell_angle_beta	89.989587
_cell_angle_gamma	83.138260
loop_
_atom_site_label
_atom_site_type_symbol
_atom_site_fract_x
_atom_site_fract_y
_atom_site_fract_z
O1	O	0.926153	0.087084	-0.114523
O2	O	0.722839	0.098837	-0.114476
O3	O	0.830365	-0.008696	-0.114485
O4	O	0.818626	0.194617	-0.114514
O5	O	0.830358	-0.008699	0.114095
O6	O	0.722832	0.098834	0.114104
O7	O	0.926146	0.087082	0.114057
Zn8	Zn	0.824488	0.092957	0.150372
Zn9	Zn	0.824497	0.092961	-0.150791
O10	O	0.818619	0.194614	0.114066
C11	C	0.696824	0.098458	-0.000180
C12	C	0.619318	0.097324	-0.000162
C13	C	0.582930	0.096781	-0.124765
C14	C	0.510107	0.095708	-0.124782
C15	C	0.473676	0.095164	-0.000189
C16	C	0.510072	0.095711	0.124430
C17	C	0.582893	0.096791	0.124443
N18	N	0.364654	0.053734	0.092539
N19	N	0.295477	0.052707	0.092518
C20	C	0.254269	0.091911	-0.000222
N21	N	0.284853	0.132174	-0.092960
N22	N	0.354037	0.133198	-0.092943
C23	C	0.394713	0.093993	-0.000190
C24	C	0.138917	0.090206	-0.124851
C25	C	0.066092	0.089137	-0.124863
C26	C	0.066060	0.089133	0.124352
C27	C	0.138883	0.090209	0.124361
C28	C	0.175308	0.090742	-0.000245
C29	C	0.829982	-0.034708	-0.000193
C30	C	0.828844	-0.112213	-0.000189
C31	C	0.828316	-0.148610	-0.124788
C32	C	0.827236	-0.221433	-0.124799
C33	C	0.826698	-0.257857	-0.000203
C34	C	0.827222	-0.221451	0.124413
C35	C	0.828295	-0.148628	0.124420
N36	N	0.864743	-0.377525	0.092523
N37	N	0.863726	-0.446703	0.092508
C38	C	0.823464	-0.477266	-0.000215
N39	N	0.784267	-0.436039	-0.092944
N40	N	0.785288	-0.366854	-0.092933
C41	C	0.825534	-0.336821	-0.000196
C42	C	0.821764	-0.592626	-0.124834
C43	C	0.820680	-0.665449	-0.124839
C44	C	0.820673	-0.665467	0.124376
C45	C	0.821750	-0.592644	0.124378
C46	C	0.822299	-0.556228	-0.000231
C47	C	0.952160	0.087461	-0.000242
C48	C	1.029666	0.088594	-0.000269
C49	C	0.819002	0.220627	-0.000229
C50	C	0.820141	0.298132	-0.000242
N51	N	0.824487	0.092954	0.355909
N52	N	0.824503	0.092959	-0.356328
C53	C	0.872115	0.045359	0.427831
C54	C	0.872122	0.045359	0.571714
C55	C	0.776869	0.140557	0.571740
C56	C	0.776860	0.140553	0.427859
H57	H	0.036398	0.088695	0.225798
C58	C	0.153332	0.150560	-0.337253
C59	C	0.178964	0.090808	-0.261808
H60	H	0.178058	0.150934	-0.421799
H61	H	0.104761	0.149836	-0.355098
H62	H	0.159805	0.191435	-0.286032
H63	H	0.172485	0.049933	-0.313024
H64	H	0.227546	0.091525	-0.243967
H65	H	0.820229	-0.695122	0.225825
C66	C	0.131535	0.090088	0.370689
C67	C	0.178887	0.090795	0.261330
H68	H	0.156234	0.090447	0.455250
H69	H	0.097678	0.130372	0.365499
H70	H	0.108588	0.048958	0.365493
H71	H	0.201830	0.131927	0.266519
H72	H	0.212756	0.050507	0.266522
H73	H	0.820247	-0.695082	-0.226307
C74	C	0.436274	0.034479	-0.269344
C75	C	0.470098	0.095107	-0.261754
H76	H	0.411574	0.034111	-0.353902
H77	H	0.470140	-0.005797	-0.264153
H78	H	0.404160	0.034013	-0.195133
H79	H	0.502217	0.095571	-0.335960
H80	H	0.436228	0.135394	-0.266959
C81	C	0.967194	0.029972	0.733472
C82	C	0.924478	-0.006958	0.650775
H83	H	0.999513	-0.002330	0.782286
H84	H	0.992211	0.058965	0.677320
H85	H	0.938826	0.058316	0.796912
H86	H	0.952846	-0.035298	0.587328
H87	H	0.899459	-0.035964	0.706933
H88	H	0.738094	0.179311	0.630336
H89	H	0.822185	-0.563009	0.225840
H90	H	0.910895	0.006600	0.369252
C91	C	0.682708	0.234661	0.442326
C92	C	0.724504	0.192876	0.348791
H93	H	0.650390	0.266963	0.393509
H94	H	0.657690	0.205664	0.498468
H95	H	0.711701	0.259704	0.498419
H96	H	0.695511	0.167829	0.292704
H97	H	0.749524	0.221877	0.292625
H98	H	0.828761	-0.118965	-0.226255
H99	H	0.480405	0.095270	0.225874
H100	H	0.612583	0.097215	-0.226228
H101	H	0.612520	0.097234	0.225913
H102	H	0.822207	-0.562974	-0.226298
H103	H	0.036465	0.088699	-0.226333
C104	C	0.827323	-0.214105	-0.371136
C105	C	0.826629	-0.261448	-0.261767
H106	H	0.826943	-0.238808	-0.455693
H107	H	0.787045	-0.180241	-0.365916
H108	H	0.868459	-0.191165	-0.365983
H109	H	0.785490	-0.284384	-0.266915
H110	H	0.866910	-0.295324	-0.266990
C111	C	0.766007	-0.295321	0.268982
C112	C	0.826629	-0.261485	0.261372
H113	H	0.765642	-0.320038	0.353536
H114	H	0.725727	-0.261459	0.263815
H115	H	0.765547	-0.327421	0.194766
H116	H	0.827087	-0.229381	0.335584
H117	H	0.866920	-0.295351	0.266553
C118	C	0.828177	-0.155962	0.370755
C119	C	0.828879	-0.108617	0.261389
H120	H	0.828543	-0.131258	0.455313
H121	H	0.787053	-0.178907	0.365577
H122	H	0.868467	-0.189822	0.365554
H123	H	0.788587	-0.074759	0.266584
H124	H	0.870008	-0.085660	0.266569
