data_functionalizedCrystal
_audit_creation_method	'MofGen! by Chris Wilmer'
_symmetry_space_group_name_H-M	'P1'
_symmetry_Int_Tables_number	1
_symmetry_cell_setting	triclinic
loop_
_symmetry_equiv_pos_as_xyz
  x,y,z
_cell_length_a	15.538191
_cell_length_b	15.944493
_cell_length_c	14.750779
_cell_angle_alpha	77.365253
_cell_angle_beta	97.572172
_cell_angle_gamma	65.373569
loop_
_atom_site_label
_atom_site_type_symbol
_atom_site_fract_x
_atom_site_fract_y
_atom_site_fract_z
O1	O	1.229496	-0.248359	-0.079865
O2	O	0.955223	-0.151367	-0.079854
O3	O	1.099876	-0.324431	-0.079868
O4	O	1.084843	-0.075295	-0.079851
O5	O	1.140767	-0.373351	0.079778
O6	O	0.996115	-0.200287	0.079793
O7	O	1.270387	-0.297278	0.079781
Zn8	Zn	1.139743	-0.256549	0.105134
Zn9	Zn	1.085867	-0.192096	-0.105207
O10	O	1.125735	-0.124214	0.079795
C11	C	0.940572	-0.165679	-0.000029
C12	C	0.835994	-0.135452	-0.000025
C13	C	0.548246	-0.435751	-0.000060
C14	C	0.449975	-0.407326	-0.000059
C15	C	0.427508	-0.247444	-0.000048
C16	C	0.525780	-0.275857	-0.000045
C17	C	0.586141	-0.370011	-0.000052
C18	C	0.563675	-0.210118	-0.000036
C19	C	0.661937	-0.238527	-0.000038
C20	C	0.722303	-0.332676	-0.000048
C21	C	0.684403	-0.398421	-0.000054
C22	C	0.503310	-0.115962	-0.000036
C23	C	0.541205	-0.050222	-0.000028
C24	C	0.639471	-0.078633	-0.000022
C25	C	0.699837	-0.172782	-0.000032
C26	C	0.677371	-0.012889	-0.000017
C27	C	0.775633	-0.041298	-0.000018
C28	C	0.798099	-0.201192	-0.000034
C29	C	1.119706	-0.379997	-0.000049
C30	C	1.117860	-0.472680	-0.000061
C31	C	1.203012	-0.734410	-0.000046
C32	C	1.136934	-0.746857	-0.078758
C33	C	1.114449	-0.642364	-0.000049
C34	C	1.177229	-0.795057	0.078641
C35	C	1.111162	-0.806275	-0.000033
C36	C	1.048378	-0.653570	-0.078825
C37	C	1.088705	-0.701792	0.078644
C38	C	1.022557	-0.714181	-0.000087
C39	C	1.116345	-0.547940	-0.000059
C40	C	1.109257	-0.900692	-0.000030
C41	C	1.285038	-0.282966	-0.000046
C42	C	1.389614	-0.313191	-0.000056
C43	C	1.105904	-0.068648	-0.000026
C44	C	1.107748	0.024037	-0.000020
N45	N	1.176519	-0.300539	0.248686
N46	N	1.049099	-0.148115	-0.248759
C47	C	0.946388	-0.025294	0.600527
C48	C	0.972165	-0.056116	0.701023
C49	C	1.100282	-0.209330	0.700974
C50	C	1.074512	-0.178523	0.600475
C51	C	0.997565	-0.086504	0.550260
C52	C	1.125689	-0.239732	0.550208
C53	C	1.099925	-0.208925	0.449718
C54	C	1.022983	-0.116908	0.399495
C55	C	0.971801	-0.055696	0.449770
C56	C	1.202640	-0.331749	0.600425
C57	C	1.253817	-0.392958	0.550158
C58	C	1.228048	-0.362154	0.449666
C59	C	1.151107	-0.270137	0.399443
C60	C	1.279230	-0.423366	0.399392
C61	C	1.253466	-0.392559	0.298902
C62	C	1.125342	-0.239330	0.298954
H63	H	0.492045	0.026440	-0.000026
H64	H	0.930485	-0.006263	0.741946
Cl65	Cl	1.235030	-0.370471	0.726757
Cl66	Cl	1.168359	-0.777675	-0.181503
Cl67	Cl	0.873992	-0.319563	-0.000031
H68	H	0.733555	-0.475092	-0.000054
Cl69	Cl	0.904675	-0.702104	-0.000144
Cl70	Cl	1.028597	-0.123651	0.235822
H71	H	0.628208	0.063774	-0.000020
Cl72	Cl	1.350549	-0.508635	0.613292
Cl73	Cl	1.375969	-0.539038	0.462529
Cl74	Cl	1.317808	-0.469509	0.235707
Cl75	Cl	1.057348	-0.670954	0.181396
H76	H	0.806489	0.012231	-0.000003
H77	H	0.993936	-0.592939	-0.145441
Cl78	Cl	0.379779	-0.080247	-0.000034
H79	H	1.002010	-0.091825	0.317670
H80	H	0.802311	-0.355801	-0.000062
Cl81	Cl	0.624139	-0.554122	-0.000057
H82	H	1.279275	-0.742019	-0.000129
Cl83	Cl	0.875055	0.059983	0.386638
H84	H	0.883724	0.049633	0.559640
H85	H	0.419126	-0.460866	-0.000068
H86	H	1.231692	-0.855788	0.145181
Cl87	Cl	1.197014	-0.325007	0.764108
Cl88	Cl	0.351616	-0.129082	-0.000045
