data_functionalizedCrystal
_audit_creation_method	'MofGen! by Chris Wilmer'
_symmetry_space_group_name_H-M	'P1'
_symmetry_Int_Tables_number	1
_symmetry_cell_setting	triclinic
loop_
_symmetry_equiv_pos_as_xyz
  x,y,z
_cell_length_a	19.188905
_cell_length_b	18.266242
_cell_length_c	15.538191
_cell_angle_alpha	89.995390
_cell_angle_beta	114.796674
_cell_angle_gamma	90.016163
loop_
_atom_site_label
_atom_site_type_symbol
_atom_site_fract_x
_atom_site_fract_y
_atom_site_fract_z
O1	O	0.896618	0.060991	-0.117621
O2	O	1.396618	0.560991	0.382379
O3	O	0.689317	0.060964	-0.133494
O4	O	1.189317	0.560964	0.366506
O5	O	0.833320	0.060986	0.011743
O6	O	1.333320	0.560986	0.511743
O7	O	0.752615	0.060969	-0.262858
O8	O	1.252615	0.560969	0.237142
O9	O	0.833304	-0.060776	0.011750
O10	O	1.333304	0.439224	0.511750
O11	O	0.689301	-0.060798	-0.133487
O12	O	1.189301	0.439202	0.366513
O13	O	0.896601	-0.060771	-0.117613
O14	O	1.396601	0.439229	0.382387
Zn15	Zn	0.792949	-0.080117	-0.125549
Zn16	Zn	1.292949	0.419883	0.374451
Zn17	Zn	0.792970	0.080310	-0.125559
Zn18	Zn	1.292970	0.580310	0.374441
O19	O	0.752598	-0.060793	-0.262851
O20	O	1.252598	0.439207	0.237149
C21	C	0.663426	0.000080	-0.132980
C22	C	1.163426	0.500080	0.367020
C23	C	0.586305	0.000071	-0.131449
C24	C	1.086305	0.500071	0.368551
N25	N	0.792939	-0.189604	-0.125542
N26	N	1.292939	0.310396	0.374458
C27	C	0.550107	0.066445	-0.130718
C28	C	1.050107	0.566445	0.369282
C29	C	0.477647	0.066454	-0.129268
C30	C	0.977647	0.566454	0.370732
C31	C	0.441395	0.000085	-0.128532
C32	C	0.941395	0.500085	0.371468
C33	C	0.477600	-0.066298	-0.129269
C34	C	0.977600	0.433702	0.370731
C35	C	0.550055	-0.066305	-0.130727
C36	C	1.050055	0.433695	0.369273
N37	N	0.346422	-0.049303	-0.072574
N38	N	0.846422	0.450697	0.427426
N39	N	0.277594	-0.049292	-0.071186
N40	N	0.777594	0.450708	0.428814
C41	C	0.223092	0.000103	-0.124139
C42	C	0.723092	0.500103	0.375861
N43	N	0.240022	0.049498	-0.178520
N44	N	0.740022	0.549498	0.321480
N45	N	0.308859	0.049488	-0.179903
N46	N	0.808859	0.549488	0.320097
C47	C	0.362830	0.000086	-0.126951
C48	C	0.862830	0.500086	0.373049
C49	C	0.108324	0.066492	-0.121837
C50	C	0.608324	0.566492	0.378163
C51	C	0.035861	0.066499	-0.120394
C52	C	0.535861	0.566499	0.379606
C53	C	0.035819	-0.066256	-0.120384
C54	C	0.535819	0.433744	0.379616
C55	C	0.108277	-0.066260	-0.121837
C56	C	0.608277	0.433740	0.378163
C57	C	0.144527	0.000116	-0.122559
C58	C	0.644527	0.500116	0.377441
C59	C	0.856711	-0.227903	-0.061262
C60	C	1.356711	0.272097	0.438738
C61	C	0.856717	-0.304548	-0.061258
C62	C	1.356717	0.195452	0.438742
C63	C	0.792953	-0.342891	-0.125549
C64	C	1.292953	0.157109	0.374451
C65	C	0.729170	-0.304582	-0.189834
C66	C	1.229170	0.195418	0.310166
C67	C	0.729164	-0.227939	-0.189830
C68	C	1.229164	0.272061	0.310170
N69	N	0.762909	-0.463229	-0.209030
N70	N	1.262909	0.036771	0.290970
N71	N	0.762921	-0.536037	-0.209030
N72	N	1.262921	-0.036037	0.290970
C73	C	0.792969	-0.573813	-0.125563
C74	C	1.292969	-0.073813	0.374437
N75	N	0.823020	-0.536031	-0.042092
N76	N	1.323020	-0.036031	0.457908
N77	N	0.823012	-0.463216	-0.042092
N78	N	1.323012	0.036784	0.457908
C79	C	0.792953	-0.425998	-0.125560
C80	C	1.292953	0.074002	0.374440
C81	C	0.856751	-0.695219	-0.061273
C82	C	1.356751	-0.195219	0.438727
C83	C	0.856752	-0.771866	-0.061267
C84	C	1.356752	-0.271866	0.438733
C85	C	0.729207	-0.771899	-0.189852
C86	C	1.229207	-0.271899	0.310148
C87	C	0.729205	-0.695254	-0.189849
C88	C	1.229205	-0.195254	0.310151
C89	C	0.792980	-0.656919	-0.125561
C90	C	1.292980	-0.156919	0.374439
C91	C	0.922493	0.000115	-0.118127
C92	C	1.422493	0.500115	0.381873
C93	C	0.999614	0.000129	-0.119659
C94	C	1.499614	0.500129	0.380341
C95	C	0.841756	0.000109	0.046878
C96	C	1.341756	0.500109	0.546878
C97	C	0.866908	0.000119	0.151558
C98	C	1.366908	0.500119	0.651558
N99	N	0.792987	0.189797	-0.125558
N100	N	1.292987	0.689797	0.374442
C101	C	0.744163	0.000086	-0.297986
C102	C	1.244163	0.500086	0.202014
C103	C	0.719011	0.000080	-0.402666
C104	C	1.219011	0.500080	0.097334
C105	C	0.617032	0.000071	0.438289
C106	C	1.117032	0.500071	0.938289
C107	C	0.640684	0.000073	0.536655
C108	C	1.140684	0.500073	1.036655
C109	C	0.773718	0.000090	0.559662
C110	C	1.273718	0.500090	1.059662
C111	C	0.750077	0.000092	0.461296
C112	C	1.250077	0.500092	0.961296
C113	C	0.671734	0.000082	0.400617
C114	C	1.171734	0.500082	0.900617
C115	C	0.804779	0.000103	0.423624
C116	C	1.304779	0.500103	0.923624
C117	C	0.781140	0.000101	0.325266
C118	C	1.281140	0.500101	0.825266
C119	C	0.702800	0.000089	0.264581
C120	C	1.202800	0.500089	0.764581
C121	C	0.648095	0.000081	0.302259
C122	C	1.148095	0.500081	0.802259
C123	C	0.883122	0.000108	0.484305
C124	C	1.383122	0.500108	0.984305
C125	C	0.937824	0.000119	0.446633
C126	C	1.437824	0.500119	0.946633
C127	C	0.914185	0.000122	0.348274
C128	C	1.414185	0.500122	0.848274
C129	C	0.835845	0.000110	0.287588
C130	C	1.335845	0.500110	0.787588
C131	C	0.968890	0.000131	0.310595
C132	C	1.468890	0.500131	0.810595
C133	C	0.945251	0.000129	0.212238
C134	C	1.445251	0.500129	0.712238
C135	C	0.812206	0.000108	0.189231
C136	C	1.312206	0.500108	0.689231
H137	H	0.579617	0.120493	-0.131306
H138	H	1.079617	0.620493	0.368694
H139	H	0.448078	-0.120336	-0.128671
H140	H	0.948078	0.379664	0.371329
H141	H	0.677277	-0.664068	-0.242195
H142	H	1.177277	-0.164068	0.257805
H143	H	0.908680	-0.664006	-0.008923
H144	H	1.408680	-0.164006	0.491077
H145	H	0.748411	0.000106	0.139821
H146	H	1.248411	0.500106	0.639821
H147	H	0.006301	-0.120295	-0.119790
H148	H	0.506301	0.379705	0.380210
H149	H	0.553237	0.000069	0.388880
H150	H	1.053237	0.500069	0.888880
C151	C	0.926906	-0.813995	0.009442
C152	C	1.426906	-0.313995	0.509442
H153	H	0.964887	-0.780184	0.047721
H154	H	1.464887	-0.280184	0.547721
H155	H	0.911729	-0.843905	0.048616
H156	H	1.411729	-0.343905	0.548616
H157	H	0.947393	-0.843881	-0.024394
H158	H	1.447393	-0.343881	0.475606
C159	C	0.859890	0.000105	0.626413
C160	C	1.359890	0.500105	1.126413
H161	H	0.866135	0.000109	0.690388
H162	H	1.366135	0.500109	1.190388
H163	H	0.883348	-0.042349	0.615021
H164	H	1.383348	0.457651	1.115021
H165	H	0.883348	0.042579	0.615020
H166	H	1.383348	0.542579	1.115020
H167	H	0.579527	-0.120357	-0.131324
H168	H	1.079527	0.379643	0.368676
C169	C	0.148196	0.139501	-0.122649
C170	C	0.648196	0.639501	0.377351
H171	H	0.116251	0.179034	-0.122021
H172	H	0.616251	0.679034	0.377979
H173	H	0.195727	0.142266	-0.068239
H174	H	0.695727	0.642266	0.431761
H175	H	0.157193	0.142248	-0.178205
H176	H	0.657193	0.642248	0.321795
C177	C	0.676791	0.000087	0.156389
C178	C	1.176791	0.500087	0.656389
H179	H	0.622299	0.000074	0.125648
H180	H	1.122299	0.500074	0.625648
H181	H	0.696016	0.042550	0.138382
H182	H	1.196016	0.542550	0.638382
H183	H	0.696003	-0.042378	0.138386
H184	H	1.196003	0.457622	0.638386
C185	C	-0.003955	0.139514	-0.119584
C186	C	0.496045	0.639514	0.380416
H187	H	0.028017	0.179041	-0.120213
H188	H	0.528017	0.679041	0.379787
H189	H	-0.051485	0.142281	-0.173994
H190	H	0.448515	0.642281	0.326006
H191	H	-0.012950	0.142272	-0.064028
H192	H	0.487050	0.642272	0.435972
H193	H	0.137752	-0.120309	-0.122427
H194	H	0.637752	0.379691	0.377573
C195	C	0.926857	-0.185738	0.009462
C196	C	1.426857	0.314262	0.509462
H197	H	0.964835	-0.219530	0.047752
H198	H	1.464835	0.280470	0.547752
H199	H	0.947345	-0.155823	-0.024355
H200	H	1.447345	0.344177	0.475645
H201	H	0.911663	-0.155856	0.048638
H202	H	1.411663	0.344144	0.548638
C203	C	0.926870	-0.346686	0.009451
C204	C	1.426870	0.153314	0.509451
H205	H	0.964851	-0.312878	0.047735
H206	H	1.464851	0.187122	0.547735
H207	H	0.911689	-0.376598	0.048619
H208	H	1.411689	0.123402	0.548619
H209	H	0.947358	-0.376569	-0.024386
H210	H	1.447358	0.123431	0.475614
H211	H	0.677252	-0.335805	-0.242179
H212	H	1.177252	0.164195	0.257821
H213	H	0.677231	-0.196755	-0.242175
H214	H	1.177231	0.303245	0.257825
H215	H	1.001611	0.000124	0.496051
H216	H	1.501611	0.500124	0.996051
C217	C	0.659067	-0.814066	-0.260571
C218	C	1.159067	-0.314066	0.239429
H219	H	0.668205	-0.865198	-0.251371
H220	H	1.168205	-0.365198	0.248629
H221	H	0.615025	-0.801524	-0.250492
H222	H	1.115025	-0.301524	0.249508
H223	H	0.650707	-0.801501	-0.323485
H224	H	1.150707	-0.301501	0.176515
C225	C	0.561918	0.000076	0.235506
C226	C	1.061918	0.500076	0.735506
H227	H	0.532721	0.000069	0.272027
H228	H	1.032721	0.500069	0.772027
H229	H	0.549943	0.042536	0.196659
H230	H	1.049943	0.542536	0.696659
H231	H	0.549925	-0.042392	0.196660
H232	H	1.049925	0.457608	0.696660
H233	H	0.596133	0.000054	0.567322
H234	H	1.096133	0.500054	1.067322
C235	C	1.055062	0.000139	0.377348
C236	C	1.555062	0.500139	0.877348
H237	H	1.061305	0.000140	0.441322
H238	H	1.561305	0.500140	0.941322
H239	H	1.078515	-0.042317	0.365952
H240	H	1.578515	0.457683	0.865952
H241	H	1.078526	0.042611	0.365961
H242	H	1.578526	0.542611	0.865961
C243	C	1.005420	0.000142	0.170794
C244	C	1.505420	0.500142	0.670794
H245	H	1.055464	0.000155	0.221019
H246	H	1.555464	0.500155	0.721019
H247	H	0.998957	-0.042319	0.132903
H248	H	1.498957	0.457681	0.632903
H249	H	0.998967	0.042608	0.132903
H250	H	1.498967	0.542608	0.632903
H251	H	0.448168	0.120506	-0.128674
H252	H	0.948168	0.620506	0.371326
H253	H	0.902366	0.000116	0.564394
H254	H	1.402366	0.500116	1.064394
