data_functionalizedCrystal
_audit_creation_method	'MofGen! by Chris Wilmer'
_symmetry_space_group_name_H-M	'P1'
_symmetry_Int_Tables_number	1
_symmetry_cell_setting	triclinic
loop_
_symmetry_equiv_pos_as_xyz
  x,y,z
_cell_length_a	15.538191
_cell_length_b	16.992694
_cell_length_c	14.184680
_cell_angle_alpha	75.919600
_cell_angle_beta	97.871374
_cell_angle_gamma	68.970158
loop_
_atom_site_label
_atom_site_type_symbol
_atom_site_fract_x
_atom_site_fract_y
_atom_site_fract_z
O1	O	0.175979	1.008075	-0.083293
O2	O	0.173827	0.780409	-0.083322
O3	O	0.041110	0.938560	-0.083306
O4	O	0.308696	0.849923	-0.083308
O5	O	0.080318	0.891796	0.083548
O6	O	0.213035	0.733645	0.083533
O7	O	0.215187	0.961311	0.083562
Cu8	Cu	0.217691	0.843208	0.098783
Cu9	Cu	0.171323	0.898512	-0.098543
O10	O	0.347904	0.803159	0.083546
C11	C	0.190670	0.728601	0.000101
C12	C	0.182433	0.643903	0.000090
C13	C	0.261886	0.571050	0.000090
C14	C	0.254146	0.491463	0.000104
C15	C	0.166951	0.484734	0.000110
C16	C	0.087492	0.557594	0.000113
C17	C	0.095234	0.637177	0.000107
C18	C	0.134863	0.250263	0.000137
C19	C	0.127126	0.170672	0.000141
C20	C	0.293781	0.104546	0.000134
C21	C	0.301514	0.184135	0.000121
C22	C	0.222057	0.256987	0.000129
N23	N	0.159037	0.403385	0.000121
N24	N	0.229973	0.338332	0.000125
C25	C	0.026316	0.924453	0.000119
C26	C	-0.076179	0.952078	0.000112
C27	C	-0.384633	0.677648	0.000098
C28	C	-0.480942	0.703623	0.000104
C29	C	-0.492381	0.849726	0.000122
C30	C	-0.396072	0.823766	0.000112
C31	C	-0.342205	0.737725	0.000101
C32	C	-0.353645	0.883843	0.000115
C33	C	-0.257343	0.857882	0.000109
C34	C	-0.203469	0.771845	0.000101
C35	C	-0.245904	0.711765	0.000096
C36	C	-0.407512	0.969881	0.000133
C37	C	-0.365084	1.029957	0.000135
C38	C	-0.268783	1.003999	0.000123
C39	C	-0.214909	0.917962	0.000115
C40	C	-0.226348	1.064079	0.000129
C41	C	-0.130046	1.038119	0.000123
C42	C	-0.118607	0.892001	0.000110
C43	C	0.362697	0.817268	0.000119
C44	C	0.465191	0.789644	0.000119
N45	N	0.250304	0.804316	0.237570
C46	C	0.198343	1.013120	0.000136
C47	C	0.206579	1.097819	0.000141
N48	N	0.138703	0.937412	-0.237330
C49	C	0.346068	0.690152	0.395127
C50	C	0.321379	0.719582	0.290092
C51	C	0.203892	0.859655	0.290071
C52	C	0.228574	0.830239	0.395107
C53	C	0.299661	0.745486	0.447627
C54	C	0.182168	0.885573	0.447607
C55	C	0.206844	0.856157	0.552635
C56	C	0.277927	0.771407	0.605162
C57	C	0.324338	0.716070	0.552654
C58	C	0.111076	0.970323	0.395086
C59	C	0.064669	1.025657	0.447586
C60	C	0.089350	0.996244	0.552615
C61	C	0.160433	0.911494	0.605142
C62	C	0.042939	1.051581	0.605123
C63	C	0.067616	1.022165	0.710150
C64	C	0.185109	0.882078	0.710169
H65	H	-0.074747	0.821941	0.000093
H66	H	0.056117	0.165201	0.000145
H67	H	0.382231	0.647060	0.595418
O68	O	0.134731	0.941930	0.239076
C69	C	0.048504	0.948299	0.264734
H70	H	0.050143	0.878905	0.293628
H71	H	-0.013322	0.989647	0.195646
H72	H	0.038965	0.981495	0.325673
O73	O	-0.109898	0.746687	0.000229
C74	C	-0.060542	0.753843	0.086660
H75	H	-0.112603	0.803390	0.115479
H76	H	-0.003492	0.777834	0.067224
H77	H	-0.025621	0.686095	0.147165
H78	H	0.358471	0.045222	0.000129
O79	O	-0.193444	0.628172	0.000213
C80	C	-0.117101	0.584552	0.086638
H81	H	-0.100870	0.636017	0.115460
H82	H	-0.051527	0.540828	0.067193
H83	H	-0.137170	0.541541	0.147143
H84	H	0.016499	0.552105	0.000133
O85	O	0.018088	0.708049	-0.000031
C86	C	-0.002742	0.780266	-0.086462
H87	H	0.063994	0.771549	-0.115276
H88	H	-0.027994	0.844777	-0.067028
H89	H	-0.061068	0.782867	-0.146970
H90	H	0.403961	0.621142	0.437890
O91	O	0.087255	0.998928	0.293062
C92	C	0.167747	0.999419	0.257979
H93	H	0.220424	1.004031	0.318508
H94	H	0.144894	1.059051	0.187717
H95	H	0.203011	0.935574	0.239342
H96	H	0.359175	0.674514	0.247352
H97	H	0.372515	0.189608	0.000104
O98	O	0.057576	0.320951	0.000097
C99	C	-0.021036	0.297935	0.000126
H100	H	-0.009547	0.240364	-0.031464
H101	H	-0.088464	0.357625	-0.048313
H102	H	-0.028666	0.277206	0.080177
O103	O	-0.004298	1.107989	0.396409
C104	C	-0.016130	1.122089	0.292450
H105	H	0.051626	1.076509	0.278123
H106	H	-0.031287	1.194298	0.252542
H107	H	-0.078296	1.106863	0.262622
O108	O	0.346507	0.577747	0.000036
C109	C	0.336313	0.663604	0.000052
H110	H	0.258335	0.711741	-0.031536
H111	H	0.381087	0.686302	-0.048397
H112	H	0.361273	0.662196	0.080098
O113	O	-0.332427	0.594025	0.000121
C114	C	-0.390531	0.546570	0.000082
H115	H	-0.453430	0.577630	0.031684
H116	H	-0.347317	0.474394	0.048508
H117	H	-0.417829	0.549312	-0.079972
H118	H	-0.515478	0.654690	0.000116
O119	O	-0.544859	0.933282	0.000088
C120	C	-0.638949	0.943307	0.000120
H121	H	-0.654611	0.892917	-0.031470
H122	H	-0.690588	1.013407	-0.048317
H123	H	-0.647733	0.931705	0.080172
H124	H	0.318846	0.432146	0.000103
H125	H	0.029826	1.067224	0.752896
H126	H	0.298014	0.747456	0.690682
O127	O	-0.501100	0.995113	-0.000044
C128	C	-0.550442	0.987920	-0.086456
H129	H	-0.509238	0.991174	-0.146854
H130	H	-0.624147	1.044900	-0.115457
H131	H	-0.557843	0.921871	-0.066932
O132	O	-0.026172	1.133846	0.553977
C133	C	-0.100483	1.125970	0.493242
H134	H	-0.072025	1.059856	0.477534
H135	H	-0.129967	1.182833	0.419373
H136	H	-0.159545	1.128852	0.533703
O137	O	-0.417562	1.113512	0.000101
C138	C	-0.511652	1.123538	0.000133
H139	H	-0.527314	1.073148	-0.031457
H140	H	-0.563291	1.193638	-0.048304
H141	H	-0.520436	1.111936	0.080185
H142	H	-0.270219	1.134130	0.000148
O143	O	-0.088910	1.096556	-0.000060
C144	C	-0.136243	1.171571	-0.086461
H145	H	-0.173571	1.152888	-0.146859
H146	H	-0.082320	1.195759	-0.115472
H147	H	-0.191112	1.226723	-0.066919
O148	O	0.254065	0.799723	0.761310
C149	C	0.215339	0.749417	0.822049
H150	H	0.149185	0.796125	0.837764
H151	H	0.270258	0.705639	0.895913
H152	H	0.195262	0.705807	0.781586
