data_functionalizedCrystal
_audit_creation_method	'MofGen! by Chris Wilmer'
_symmetry_space_group_name_H-M	'P1'
_symmetry_Int_Tables_number	1
_symmetry_cell_setting	triclinic
loop_
_symmetry_equiv_pos_as_xyz
  x,y,z
_cell_length_a	8.559649
_cell_length_b	19.188930
_cell_length_c	7.088929
_cell_angle_alpha	83.792352
_cell_angle_beta	95.325015
_cell_angle_gamma	76.461723
loop_
_atom_site_label
_atom_site_type_symbol
_atom_site_fract_x
_atom_site_fract_y
_atom_site_fract_z
O1	O	2.103838	-0.015637	-0.158953
O2	O	1.638380	0.020435	-0.158972
O3	O	1.884545	-0.099961	-0.158924
O4	O	1.857673	0.104759	-0.159000
O5	O	1.917443	-0.116083	0.159057
O6	O	1.671278	0.004313	0.159009
O7	O	2.136736	-0.031759	0.159029
Cu8	Cu	1.907011	-0.015195	0.188053
Cu9	Cu	1.868105	0.003871	-0.187997
O10	O	1.890571	0.088637	0.158981
C11	C	1.595280	0.015108	0.000017
C12	C	1.417842	0.023245	0.000011
C13	C	1.900125	-0.133987	0.000072
C14	C	1.897515	-0.211356	0.000088
C15	C	2.041955	-0.263833	0.000103
C16	C	2.039498	-0.336527	0.000073
C17	C	1.892597	-0.356742	0.000065
C18	C	1.748137	-0.304254	0.000039
C19	C	1.750596	-0.231561	0.000050
N20	N	1.791505	-0.464363	0.108275
N21	N	1.789179	-0.533419	0.108268
C22	C	1.885180	-0.575761	0.000026
N23	N	1.983621	-0.546442	-0.108185
N24	N	1.985952	-0.477380	-0.108170
C25	C	1.889915	-0.435564	0.000051
C26	C	2.026966	-0.707062	0.000005
C27	C	2.024502	-0.779756	-0.000037
C28	C	1.733139	-0.747483	-0.000052
C29	C	1.735605	-0.674789	-0.000028
C30	C	1.882524	-0.654585	0.000009
C31	C	2.179836	-0.026431	0.000036
C32	C	2.357272	-0.034568	0.000029
C33	C	1.874991	0.122664	-0.000019
C34	C	1.877599	0.200034	-0.000048
N35	N	1.934386	-0.028606	0.452547
N36	N	1.840742	0.017276	-0.452490
H37	H	1.441159	-0.090289	0.000040
H38	H	2.161587	-0.247388	0.000127
H39	H	2.031455	-0.076153	0.534222
H40	H	2.146595	-0.690611	0.000027
C41	C	1.304517	0.098526	-0.000020
H42	H	1.196125	0.094305	-0.000009
H43	H	1.312280	0.129479	-0.110912
H44	H	1.335222	0.118230	0.110877
C45	C	1.586545	-0.326484	0.000023
H46	H	1.500868	-0.284815	-0.000001
H47	H	1.590992	-0.359800	0.110903
H48	H	1.568067	-0.348540	-0.110885
H49	H	2.157122	-0.379261	0.000077
C50	C	1.591707	-0.173835	0.000052
H51	H	1.503862	-0.196283	0.000052
H52	H	1.575138	-0.139173	-0.110824
H53	H	1.598089	-0.150443	0.110965
C54	C	2.183395	-0.837482	-0.000017
H55	H	2.271242	-0.815035	0.000026
H56	H	2.177035	-0.860882	-0.110909
H57	H	2.199951	-0.872140	0.110879
H58	H	1.743691	0.064824	0.465845
C59	C	1.571549	-0.769711	-0.000066
H60	H	1.590770	-0.820521	-0.000063
H61	H	1.500625	-0.745536	-0.110953
H62	H	1.523572	-0.756800	0.110835
H63	H	1.617987	-0.632061	-0.000030
