data_functionalizedCrystal
_audit_creation_method	'MofGen! by Chris Wilmer'
_symmetry_space_group_name_H-M	'P1'
_symmetry_Int_Tables_number	1
_symmetry_cell_setting	triclinic
loop_
_symmetry_equiv_pos_as_xyz
  x,y,z
_cell_length_a	12.477989
_cell_length_b	21.606444
_cell_length_c	21.606444
_cell_angle_alpha	120.010416
_cell_angle_beta	90.001935
_cell_angle_gamma	115.628207
loop_
_atom_site_label
_atom_site_type_symbol
_atom_site_fract_x
_atom_site_fract_y
_atom_site_fract_z
Zr1	Zr	0.973027	-0.750919	-0.118065
O2	O	0.811738	-0.867891	-0.210834
O3	O	1.022471	-0.625513	-0.089608
O4	O	1.022459	-0.754651	-0.218756
O5	O	0.811758	-0.738749	0.020168
O6	O	1.188679	-0.767188	-0.225027
O7	O	0.811750	-0.738753	-0.081685
O8	O	1.188700	-0.536184	0.005996
O9	O	0.811737	-0.969753	-0.210854
O10	O	1.167605	-0.689574	-0.082173
O11	O	1.043564	-0.680215	-0.001481
O12	O	1.043550	-0.832258	-0.153537
O13	O	0.919508	-0.822899	-0.072845
Zr14	Zr	1.238141	-0.770908	0.034380
Zr15	Zr	1.238128	-0.770914	-0.128065
Zr16	Zr	0.973040	-0.750913	0.044380
Zr17	Zr	0.973025	-0.913377	-0.118098
Zr18	Zr	1.238143	-0.608449	0.034413
O19	O	1.188697	-0.896313	0.005923
O20	O	1.188678	-0.896321	-0.225053
O21	O	0.811757	-0.867882	0.020142
O22	O	1.399430	-0.653935	0.127149
O23	O	1.399411	-0.653944	-0.103827
O24	O	1.022490	-0.625505	0.141368
O25	O	1.399410	-0.783077	-0.103853
O26	O	1.188709	-0.767175	0.135071
O27	O	1.022489	-0.754638	0.141342
O28	O	1.399418	-0.783073	-0.002000
O29	O	1.022458	-0.985647	-0.218803
O30	O	1.188710	-0.536180	0.135118
O31	O	1.399431	-0.552073	0.127169
O32	O	1.399420	-0.552078	-0.001953
O33	O	0.811748	-0.969748	-0.081732
O34	O	1.022468	-0.985642	-0.089681
O35	O	1.167618	-0.689568	0.069852
O36	O	1.291660	-0.698927	-0.010840
O37	O	1.167604	-0.841611	-0.082204
O38	O	1.043563	-0.832252	-0.001512
C39	C	1.105585	-0.557702	-0.041801
C40	C	1.105586	-0.488734	-0.041787
C41	C	1.014006	-0.505564	-0.094462
C42	C	1.014010	-0.440774	-0.094475
C43	C	1.105590	-0.359154	-0.041811
C44	C	1.197180	-0.342324	0.010866
C45	C	1.197180	-0.407114	0.010876
C46	C	1.197184	-0.081032	0.010828
C47	C	1.197175	-0.016241	0.010815
C48	C	1.014014	-0.114692	-0.094524
C49	C	1.014014	-0.179482	-0.094514
C50	C	1.105606	-0.162647	-0.041840
C51	C	1.105602	-0.232901	-0.041827
C52	C	1.105591	-0.288900	-0.041820
C53	C	0.773983	-0.735902	-0.029334
C54	C	0.661440	-0.727414	-0.025088
C55	C	1.437185	-0.785924	-0.054351
C56	C	1.549728	-0.794412	-0.058597
C57	C	1.105567	-0.760921	-0.245036
C58	C	1.105561	-0.760923	-0.313999
C59	C	1.105587	0.035881	-0.041875
C60	C	1.105598	-0.033071	-0.041863
C61	C	1.040805	-0.835402	-0.383648
C62	C	1.040816	-0.835400	-0.448444
C63	C	1.105576	-0.760918	-0.443587
C64	C	1.170341	-0.686434	-0.373930
C65	C	1.170336	-0.686437	-0.309137
C66	C	1.170360	-0.686420	-0.635234
C67	C	1.170356	-0.686423	-0.700035
C68	C	1.040840	-0.835384	-0.774541
C69	C	1.040835	-0.835387	-0.709747
C70	C	1.105605	-0.760903	-0.640096
C71	C	1.105594	-0.760906	-0.569839
C72	C	1.105580	-0.760914	-0.513843
C73	C	1.105601	-0.760906	0.161352
C74	C	1.105607	-0.760903	0.230314
C75	C	1.437187	-0.582713	-0.054310
C76	C	1.549730	-0.522233	-0.058542
C77	C	1.105602	-0.557694	0.161393
C78	C	1.105609	-0.488724	0.230369
C79	C	1.437204	-0.582705	0.148884
C80	C	1.549752	-0.522223	0.213614
C81	C	0.773964	-0.939121	-0.232569
C82	C	0.661416	-0.999603	-0.297299
C83	C	0.773981	-0.939113	-0.029375
C84	C	0.661438	-0.999593	-0.025143
C85	C	1.105566	-0.964132	-0.245077
C86	C	1.105559	-1.033102	-0.314054
C87	C	1.537826	-0.488949	-0.097771
C88	C	1.643562	-0.432130	-0.101761
C89	C	1.761200	-0.408592	-0.066518
C90	C	1.773101	-0.441883	-0.027288
C91	C	1.667367	-0.498705	-0.023302
C92	C	1.170366	-0.461217	0.300002
C93	C	1.170368	-0.396421	0.364819
C94	C	1.105617	-0.359128	0.360000
C95	C	1.040851	-0.386641	0.290359
C96	C	1.040844	-0.451440	0.225544
C97	C	1.667366	-0.498706	0.201892
C98	C	1.773127	-0.441887	0.262707
C99	C	1.761273	-0.408581	0.335243
C100	C	1.643647	-0.432103	0.346965
C101	C	1.537888	-0.488926	0.286151
C102	C	0.543802	-1.023128	-0.285577
C103	C	0.438041	-1.079967	-0.346392
C104	C	0.449895	-1.113277	-0.418928
C105	C	0.567521	-1.089750	-0.430650
C106	C	0.673280	-1.032916	-0.369836
C107	C	0.673342	-1.032884	0.014079
C108	C	0.567606	-1.089721	0.018052
C109	C	0.449968	-1.113261	-0.017194
C110	C	0.438067	-1.079967	-0.056421
C111	C	0.543801	-1.023136	-0.060398
C112	C	1.170322	-1.070375	-0.309211
C113	C	1.170341	-1.135173	-0.374016
C114	C	1.105588	-1.162702	-0.443663
C115	C	1.040823	-1.125422	-0.448504
C116	C	1.040813	-1.060621	-0.383700
H117	H	0.939435	-0.245939	-0.137396
H118	H	0.988114	-0.473828	0.168848
H119	H	1.271751	-0.275863	0.053743
H120	H	1.847398	-0.362312	0.384756
N121	N	0.335825	-1.174566	-0.484520
H122	H	0.335758	-1.228341	-0.515720
H123	H	0.259583	-1.184340	-0.466024
N124	N	1.875234	-0.347296	-0.070813
H125	H	1.951571	-0.337430	-0.042534
H126	H	1.875152	-0.369901	-0.124578
N127	N	0.580449	-1.125629	0.060358
H128	H	0.627155	-1.079711	0.114114
H129	H	0.495575	-1.165218	0.057464
N130	N	1.680170	-0.534615	0.123661
H131	H	1.770733	-0.511089	0.125474
H132	H	1.639109	-0.596572	0.096578
N133	N	0.580298	-1.125680	-0.508887
H134	H	0.495447	-1.165249	-0.545627
H135	H	0.627043	-1.079719	-0.516649
N136	N	1.630863	-0.396175	0.425201
H137	H	1.671858	-0.410540	0.452305
H138	H	1.671851	-0.334225	0.452250
N139	N	1.411034	-0.514284	0.298800
H140	H	1.419585	-0.484556	0.353980
H141	H	1.364343	-0.499476	0.275415
N142	N	0.970965	-0.915747	-0.523554
H143	H	0.905796	-0.914388	-0.549764
H144	H	1.030435	-0.923731	-0.554387
H145	H	0.363882	-1.159537	-0.013950
H146	H	1.868894	-0.422741	0.253150
N147	N	0.537068	-0.879000	-0.100903
H148	H	0.490383	-0.910197	-0.154666
H149	H	0.621994	-0.873210	-0.097986
H150	H	1.223078	-1.165520	-0.370059
N151	N	1.295971	0.071795	0.067613
H152	H	1.282067	0.110283	0.059612
H153	H	1.291945	0.085305	0.119264
N154	N	0.530940	-0.987234	-0.102703
H155	H	0.484219	-0.956834	-0.080116
H156	H	0.615804	-0.947695	-0.099870
H157	H	1.223051	-1.047972	-0.252507
N158	N	1.240186	-0.606104	-0.234014
H159	H	1.180804	-0.598084	-0.203117
H160	H	1.305344	-0.607541	-0.207886
H161	H	1.271764	-0.067314	0.053718
N162	N	0.674104	-0.642820	0.017225
H163	H	0.720781	-0.611626	-0.005333
H164	H	0.589182	-0.648605	0.014357
N165	N	1.105618	-1.232587	-0.513556
H166	H	1.156476	-1.252017	-0.499913
H167	H	1.017890	-1.279707	-0.541424
N168	N	0.970984	-1.155124	-0.523627
H169	H	0.880395	-1.175186	-0.526293
H170	H	1.005037	-1.108222	-0.530935
N171	N	0.970950	-0.915737	-0.388889
H172	H	0.929932	-0.962918	-0.442846
H173	H	1.030404	-0.923679	-0.365976
H174	H	0.534126	-0.996009	-0.226519
N175	N	0.970988	-0.915720	-0.714985
H176	H	0.929969	-0.962904	-0.768941
H177	H	1.030449	-0.923658	-0.692071
H178	H	1.677076	-0.525798	0.008647
N179	N	0.915231	-0.593596	-0.151266
H180	H	0.857221	-0.594424	-0.184640
H181	H	0.955284	-0.625949	-0.182200
H182	H	1.868897	-0.422710	0.001405
N183	N	0.970982	-0.915723	-0.849666
H184	H	0.980811	-0.904424	-0.889978
H185	H	1.004973	-0.952949	-0.856956
H186	H	0.988070	-1.030280	-0.387653
H187	H	1.223094	-0.491574	0.303940
H188	H	1.105634	-0.306366	0.412783
H189	H	0.342271	-1.099142	-0.085116
H190	H	1.271754	-0.393405	0.053769
N191	N	1.240221	-0.606086	-0.694798
H192	H	1.281258	-0.558901	-0.640843
H193	H	1.305310	-0.607553	-0.722412
H194	H	1.223076	-0.625790	-0.369981
H195	H	0.769120	-1.013722	0.042786
H196	H	0.939436	-0.454485	-0.137368
H197	H	1.442048	-0.508113	-0.126480
N198	N	1.240215	-0.606089	-0.560117
H199	H	1.281235	-0.558906	-0.566876
H200	H	1.180763	-0.598144	-0.529260
H201	H	1.223112	-0.374028	0.421517
N202	N	1.630697	-0.396235	-0.144076
H203	H	1.583992	-0.365823	-0.121486
H204	H	1.715562	-0.356706	-0.141252
N205	N	0.915224	-0.132852	-0.151342
H206	H	0.929118	-0.079426	-0.143362
H207	H	0.919262	-0.169008	-0.202986
H208	H	0.342275	-1.099112	-0.336833
N209	N	0.971025	-0.346411	0.285167
H210	H	0.980872	-0.301185	0.336797
H211	H	1.005035	-0.322130	0.255245
N212	N	0.800134	-1.007543	-0.382485
H213	H	0.791583	-1.037270	-0.437665
H214	H	0.846824	-0.946014	-0.359086
