data_functionalizedCrystal
_audit_creation_method	'MofGen! by Chris Wilmer'
_symmetry_space_group_name_H-M	'P1'
_symmetry_Int_Tables_number	1
_symmetry_cell_setting	triclinic
loop_
_symmetry_equiv_pos_as_xyz
  x,y,z
_cell_length_a	19.188925
_cell_length_b	19.188930
_cell_length_c	9.482944
_cell_angle_alpha	100.459937
_cell_angle_beta	100.502887
_cell_angle_gamma	83.143665
loop_
_atom_site_label
_atom_site_type_symbol
_atom_site_fract_x
_atom_site_fract_y
_atom_site_fract_z
O1	O	0.935881	0.096829	0.120946
O2	O	1.435881	0.596829	0.620946
O3	O	0.732569	0.108567	0.120945
O4	O	1.232569	0.608567	0.620945
O5	O	0.840090	0.001040	0.120917
O6	O	1.340090	0.501040	0.620917
O7	O	0.828361	0.204356	0.120974
O8	O	1.328361	0.704356	0.620974
O9	O	0.820620	-0.018314	-0.120881
O10	O	1.320620	0.481686	0.379119
O11	O	0.713099	0.089213	-0.120853
O12	O	1.213099	0.589213	0.379147
O13	O	0.916411	0.077475	-0.120852
O14	O	1.416411	0.577475	0.379148
Cu15	Cu	0.812978	0.081577	-0.142930
Cu16	Cu	1.312978	0.581577	0.357070
Cu17	Cu	0.836003	0.104465	0.143024
Cu18	Cu	1.336003	0.604465	0.643024
O19	O	0.808891	0.185002	-0.120824
O20	O	1.308891	0.685002	0.379176
C21	C	0.696823	0.098510	0.000045
C22	C	1.196823	0.598510	0.500045
C23	C	0.619318	0.097371	0.000043
C24	C	1.119318	0.597371	0.500043
C25	C	0.057550	0.152836	0.000062
C26	C	0.557550	0.652836	0.500062
C27	C	0.130374	0.153913	0.000070
C28	C	0.630374	0.653913	0.500070
C29	C	0.175306	0.090820	0.000050
C30	C	0.675306	0.590820	0.500050
C31	C	0.147413	0.026647	0.000059
C32	C	0.647413	0.526647	0.500059
C33	C	0.074592	0.025573	0.000065
C34	C	0.574592	0.525573	0.500065
N35	N	0.289355	0.038554	-0.082273
N36	N	0.789355	0.538554	0.417727
N37	N	0.358531	0.039579	-0.082282
N38	N	0.858531	0.539579	0.417718
C39	C	0.394714	0.094052	0.000034
C40	C	0.894714	0.594052	0.500034
N41	N	0.359104	0.147472	0.082340
N42	N	0.859104	0.647472	0.582340
N43	N	0.289921	0.146449	0.082343
N44	N	0.789921	0.646449	0.582343
C45	C	0.254270	0.091977	0.000044
C46	C	0.754270	0.591977	0.500044
C47	C	0.501564	0.159390	0.000044
C48	C	1.001564	0.659390	0.500044
C49	C	0.574390	0.160465	0.000061
C50	C	1.074390	0.660465	0.500061
C51	C	0.591427	0.033196	0.000035
C52	C	1.091427	0.533196	0.500035
C53	C	0.518604	0.032123	0.000033
C54	C	1.018604	0.532123	0.500033
C55	C	0.473675	0.095222	0.000030
C56	C	0.973675	0.595222	0.500030
C57	C	0.829975	-0.034649	0.000014
C58	C	1.329975	0.465351	0.500014
C59	C	0.828833	-0.112154	0.000002
C60	C	1.328833	0.387846	0.500002
C61	C	0.891924	-0.157080	-0.000005
C62	C	1.391924	0.342920	0.499995
C63	C	0.890854	-0.229902	0.000018
C64	C	1.390854	0.270098	0.500018
C65	C	0.826688	-0.257797	0.000019
C66	C	1.326688	0.242203	0.500019
C67	C	0.763590	-0.212861	0.000033
C68	C	1.263590	0.287139	0.500033
C69	C	0.764662	-0.140039	0.000025
C70	C	1.264662	0.359961	0.500025
N71	N	0.771014	-0.372388	-0.082270
N72	N	1.271014	0.127612	0.417730
N73	N	0.769999	-0.441566	-0.082265
N74	N	1.269999	0.058434	0.417735
C75	C	0.823452	-0.477203	0.000048
C76	C	1.323452	0.022797	0.500048
N77	N	0.877967	-0.441052	0.082338
N78	N	1.377967	0.058948	0.582338
N79	N	0.878984	-0.371868	0.082326
N80	N	1.378984	0.128132	0.582326
C81	C	0.825517	-0.336759	0.000029
C82	C	1.325517	0.163241	0.500029
C83	C	0.885387	-0.601091	0.000069
C84	C	1.385387	-0.101091	0.500069
C85	C	0.884315	-0.673913	0.000101
C86	C	1.384315	-0.173913	0.500101
C87	C	0.757048	-0.656872	0.000102
C88	C	1.257048	-0.156872	0.500102
C89	C	0.758123	-0.584050	0.000084
C90	C	1.258123	-0.084050	0.500084
C91	C	0.822293	-0.556165	0.000061
C92	C	1.322293	-0.056165	0.500061
C93	C	0.952158	0.087531	0.000051
C94	C	1.452158	0.587531	0.500051
C95	C	1.029663	0.088671	0.000063
C96	C	1.529663	0.588671	0.500063
C97	C	0.819006	0.220690	0.000082
C98	C	1.319006	0.720690	0.500082
C99	C	0.820149	0.298197	0.000104
C100	C	1.320149	0.798197	0.500104
N101	N	0.796788	0.065478	-0.344055
N102	N	1.296788	0.565478	0.155945
C103	C	0.831223	0.099716	-0.416245
C104	C	1.331223	0.599716	0.083755
C105	C	0.817758	0.086315	-0.583666
C106	C	1.317758	0.586315	-0.083666
N107	N	0.852199	0.120558	0.344148
N108	N	1.352199	0.620558	0.844148
H109	H	0.495898	-0.020127	0.000024
H110	H	0.995898	0.479873	0.500024
H111	H	0.628012	-0.018176	0.000030
H112	H	1.128012	0.481824	0.500030
N113	N	0.904462	0.172527	-0.573558
N114	N	1.404462	0.672527	-0.073558
H115	H	0.879101	0.211882	-0.510403
H116	H	1.379101	0.711882	-0.010403
H117	H	0.925578	0.193479	-0.644829
H118	H	1.425578	0.693479	-0.144829
N119	N	0.765501	0.034340	-0.665961
N120	N	1.265501	0.534340	-0.165961
H121	H	0.744372	0.013331	-0.594784
H122	H	1.244372	0.513331	-0.094784
H123	H	0.790915	-0.004970	-0.729108
H124	H	1.290915	0.495030	-0.229108
H125	H	0.711345	-0.235578	0.000037
H126	H	1.211345	0.264422	0.500037
N127	N	0.604476	0.229672	0.000055
N128	N	1.104476	0.729672	0.500055
H129	H	0.641527	0.240133	0.089691
H130	H	1.141527	0.740133	0.589691
H131	H	0.564922	0.269436	-0.000005
H132	H	1.064922	0.769436	0.499995
N133	N	0.883474	0.151692	-0.333944
N134	N	1.383474	0.651692	0.166056
H135	H	0.904604	0.172700	-0.405121
H136	H	1.404604	0.672700	0.094879
H137	H	0.922680	0.126109	-0.270781
H138	H	1.422680	0.626109	0.229219
N139	N	0.009082	0.220879	-0.000067
N140	N	0.509082	0.720879	0.499933
H141	H	0.037799	0.261688	-0.000109
H142	H	0.537799	0.761688	0.499891
H143	H	-0.014318	0.230426	0.089531
H144	H	0.485682	0.730426	0.589531
N145	N	0.160463	0.223122	0.000071
N146	N	0.660463	0.723122	0.500071
H147	H	0.120951	0.262931	0.000073
H148	H	0.620951	0.762931	0.500073
H149	H	0.183086	0.219156	-0.089571
H150	H	0.683086	0.719156	0.410429
H151	H	0.706747	-0.547471	0.000081
H152	H	1.206747	-0.047471	0.500081
H153	H	0.713285	-0.103460	0.000030
H154	H	1.213285	0.396540	0.500030
N155	N	0.195872	-0.041405	0.000043
N156	N	0.695872	0.458595	0.500043
H157	H	0.246236	-0.030989	0.000033
H158	H	0.746236	0.469011	0.500033
H159	H	0.179641	-0.076557	-0.089597
H160	H	0.679641	0.423443	0.410403
N161	N	0.744537	0.013502	-0.426356
N162	N	1.244537	0.513502	0.073644
H163	H	0.705289	0.039038	-0.489521
H164	H	1.205289	0.539038	0.010479
H165	H	0.723461	-0.007493	-0.355086
H166	H	1.223461	0.492507	0.144914
H167	H	0.944177	-0.134380	-0.000019
H168	H	1.444177	0.365620	0.499981
H169	H	0.942232	-0.266487	0.000019
H170	H	1.442232	0.233513	0.500019
H171	H	0.704803	-0.679583	0.000110
H172	H	1.204803	-0.179583	0.500110
N173	N	0.044509	-0.043636	0.000065
N174	N	0.544509	0.456364	0.500065
H175	H	0.084022	-0.083444	0.000058
H176	H	0.584022	0.416556	0.500058
H177	H	0.007448	-0.054030	-0.089574
H178	H	0.507448	0.445970	0.410426
H179	H	0.464982	0.210769	0.000044
H180	H	0.964982	0.710769	0.500044
N181	N	0.954595	-0.571008	0.000047
N182	N	1.454595	-0.071008	0.500047
H183	H	0.989448	-0.580215	0.089684
H184	H	1.489448	-0.080215	0.589684
H185	H	0.945634	-0.518068	-0.000027
H186	H	1.445634	-0.018068	0.499973
N187	N	0.952367	-0.722373	0.000101
N188	N	1.452367	-0.222373	0.500101
H189	H	0.993178	-0.693655	0.000080
H190	H	1.493178	-0.193655	0.500080
H191	H	0.947469	-0.760142	-0.089532
H192	H	1.447469	-0.260142	0.410468
