data_functionalizedCrystal
_audit_creation_method	'MofGen! by Chris Wilmer'
_symmetry_space_group_name_H-M	'P1'
_symmetry_Int_Tables_number	1
_symmetry_cell_setting	triclinic
loop_
_symmetry_equiv_pos_as_xyz
  x,y,z
_cell_length_a	21.395362
_cell_length_b	18.215405
_cell_length_c	21.395355
_cell_angle_alpha	89.980149
_cell_angle_beta	89.956060
_cell_angle_gamma	90.040762
loop_
_atom_site_label
_atom_site_type_symbol
_atom_site_fract_x
_atom_site_fract_y
_atom_site_fract_z
Zn1	Zn	0.957885	-0.292758	-0.354580
Zn2	Zn	1.457885	0.207242	0.145420
Zn3	Zn	0.957798	-0.415806	-0.249800
Zn4	Zn	1.457798	0.084194	0.250200
Zn5	Zn	0.853100	-0.292792	-0.249781
Zn6	Zn	1.353100	0.207208	0.250219
Zn7	Zn	0.853080	-0.415821	-0.354505
Zn8	Zn	1.353080	0.084179	0.145495
O9	O	0.905466	-0.354294	-0.302166
O10	O	1.405466	0.145706	0.197834
O11	O	1.045551	-0.309060	-0.340720
O12	O	1.545551	0.190940	0.159280
O13	O	0.943882	-0.399496	-0.162119
O14	O	1.443882	0.100504	0.337881
O15	O	0.867045	-0.189803	-0.263706
O16	O	1.367045	0.310197	0.236294
O17	O	1.045487	-0.399463	-0.263739
O18	O	1.545487	0.100537	0.236261
O19	O	0.944030	-0.189778	-0.340702
O20	O	1.444030	0.310222	0.159298
O21	O	0.866960	-0.309118	-0.162106
O22	O	1.366960	0.190882	0.337894
O23	O	0.765419	-0.309133	-0.263634
O24	O	1.265419	0.190867	0.236366
O25	O	0.867010	-0.399488	-0.442193
O26	O	1.367010	0.100512	0.057807
O27	O	0.765404	-0.399522	-0.340573
O28	O	1.265404	0.100478	0.159427
O29	O	0.944010	-0.309074	-0.442248
O30	O	1.444010	0.190926	0.057752
O31	O	0.943862	-0.518792	-0.263666
O32	O	1.443862	-0.018792	0.236334
O33	O	0.866926	-0.518803	-0.340592
O34	O	1.366926	-0.018803	0.159408
C35	C	0.742678	-0.354333	-0.302094
C36	C	1.242678	0.145667	0.197906
C37	C	0.673037	-0.354367	-0.302077
C38	C	1.173037	0.145633	0.197923
C39	C	0.640332	-0.401495	-0.342080
C40	C	1.140332	0.098505	0.157920
C41	C	0.574897	-0.401477	-0.342108
C42	C	1.074897	0.098523	0.157892
C43	C	0.542168	-0.354339	-0.302122
C44	C	1.042168	0.145661	0.197878
C45	C	0.574881	-0.307202	-0.262117
C46	C	1.074881	0.192798	0.237883
C47	C	0.640315	-0.307216	-0.262094
C48	C	1.140315	0.192784	0.237906
C49	C	0.438443	-0.348410	-0.245717
C50	C	0.938443	0.151590	0.254283
C51	C	0.373010	-0.348401	-0.245738
C52	C	0.873010	0.151599	0.254262
C53	C	0.340348	-0.354291	-0.302191
C54	C	0.840348	0.145709	0.197809
C55	C	0.373126	-0.360205	-0.358625
C56	C	0.873126	0.139795	0.141375
C57	C	0.438560	-0.360219	-0.358602
C58	C	0.938560	0.139781	0.141398
C59	C	0.471216	-0.354318	-0.302142
C60	C	0.971216	0.145682	0.197858
C61	C	0.236691	-0.401402	-0.342228
C62	C	0.736691	0.098598	0.157772
C63	C	0.171254	-0.401379	-0.342256
C64	C	0.671254	0.098621	0.157744
C65	C	0.171239	-0.307107	-0.262260
C66	C	0.671239	0.192893	0.237740
C67	C	0.236675	-0.307127	-0.262236
C68	C	0.736675	0.192873	0.237764
C69	C	0.269396	-0.354278	-0.302219
C70	C	0.769396	0.145722	0.197781
C71	C	0.905399	-0.545500	-0.302136
C72	C	1.405399	-0.045500	0.197864
C73	C	0.905428	-0.627299	-0.302144
C74	C	1.405428	-0.127299	0.197856
C75	C	0.945583	-0.815463	-0.262163
C76	C	1.445583	-0.315463	0.237837
C77	C	0.945611	-0.892322	-0.262178
C78	C	1.445611	-0.392322	0.237822
C79	C	0.865428	-0.892373	-0.342215
C80	C	1.365428	-0.392373	0.157785
C81	C	0.865404	-0.815516	-0.342203
C82	C	1.365404	-0.315516	0.157797
C83	C	0.905480	-0.777063	-0.302173
C84	C	1.405480	-0.277063	0.197827
C85	C	0.905533	-0.930779	-0.302200
C86	C	1.405533	-0.430779	0.197800
C87	C	0.905563	-1.014112	-0.302217
C88	C	1.405563	-0.514112	0.197783
C89	C	0.905451	-0.693724	-0.302157
C90	C	1.405451	-0.193724	0.197843
C91	C	1.068889	-0.354256	-0.302240
C92	C	1.568889	0.145744	0.197760
C93	C	1.138530	-0.354239	-0.302271
C94	C	1.638530	0.145761	0.197729
C95	C	0.905518	-0.354279	-0.465590
C96	C	1.405518	0.145721	0.034410
C97	C	0.905540	-0.354273	-0.535231
C98	C	1.405540	0.145727	-0.035231
C99	C	0.905549	-0.162341	-0.302210
C100	C	1.405549	0.337659	0.197790
C101	C	0.905585	-0.080542	-0.302229
C102	C	1.405585	0.419458	0.197771
C103	C	0.945632	-0.307192	-0.567974
C104	C	1.445632	0.192808	-0.067974
C105	C	0.945631	-0.307161	-0.633409
C106	C	1.445631	0.192839	-0.133409
C107	C	0.905545	-0.354223	-0.666099
C108	C	1.405545	0.145777	-0.166099
C109	C	0.865445	-0.401307	-0.633349
C110	C	1.365445	0.098693	-0.133349
C111	C	0.865442	-0.401332	-0.567914
C112	C	1.365442	0.098668	-0.067914
C113	C	0.900574	-0.420488	-0.769762
C114	C	1.400574	0.079512	-0.269762
C115	C	0.900581	-0.420465	-0.835195
C116	C	1.400581	0.079535	-0.335195
C117	C	0.905548	-0.354145	-0.867920
C118	C	1.405548	0.145855	-0.367920
C119	C	0.910522	-0.287847	-0.835205
C120	C	1.410522	0.212153	-0.335205
C121	C	0.910520	-0.287872	-0.769770
C122	C	1.410520	0.212128	-0.269770
C123	C	0.905542	-0.354200	-0.737052
C124	C	1.405542	0.145800	-0.237052
C125	C	0.945642	-0.307026	-0.971616
C126	C	1.445642	0.192974	-0.471616
C127	C	0.945637	-0.306993	-1.037052
C128	C	1.445637	0.193007	-0.537052
C129	C	0.865454	-0.401146	-1.036990
C130	C	1.365454	0.098854	-0.536990
C131	C	0.865455	-0.401172	-0.971555
C132	C	1.365455	0.098828	-0.471555
C133	C	0.905553	-0.354113	-0.938872
C134	C	1.405553	0.145887	-0.438872
C135	C	0.905450	-0.354256	-0.139379
C136	C	1.405450	0.145744	0.360621
C137	C	0.905549	-0.354055	-0.069738
C138	C	1.405549	0.145945	0.430262
H139	H	0.548229	-0.268820	-0.229561
H140	H	1.048229	0.231180	0.270439
O141	O	0.268418	-0.261430	-0.223282
O142	O	0.768418	0.238570	0.276718
C143	C	0.288318	-0.225497	-0.116755
C144	C	0.788318	0.274503	0.383245
C145	C	0.252342	-0.277310	-0.160799
C146	C	0.752342	0.222690	0.339201
H147	H	0.275324	-0.238307	-0.066228
H148	H	0.775324	0.261693	0.433772
H149	H	0.340715	-0.233605	-0.123551
H150	H	0.840715	0.266395	0.376449
H151	H	0.275518	-0.166176	-0.127886
H152	H	0.775518	0.333824	0.372114
H153	H	0.265090	-0.336650	-0.149694
H154	H	0.765090	0.163350	0.350306
H155	H	0.199954	-0.269138	-0.153994
H156	H	0.699954	0.230862	0.346006
H157	H	0.832798	-0.923691	-0.374805
H158	H	1.332798	-0.423691	0.125195
H159	H	0.896535	-0.474448	-0.861827
H160	H	1.396535	0.025552	-0.361827
O161	O	0.341471	-0.365820	-0.413514
O162	O	0.841471	0.134180	0.086486
C163	C	0.321574	-0.312842	-0.514771
C164	C	0.821574	0.187158	-0.014771
C165	C	0.357479	-0.306408	-0.452650
C166	C	0.857479	0.193592	0.047350
H167	H	0.334493	-0.264806	-0.546425
H168	H	0.834493	0.235194	-0.046425
H169	H	0.334426	-0.366620	-0.538785
H170	H	0.834426	0.133380	-0.038785
H171	H	0.269180	-0.311840	-0.505072
H172	H	0.769180	0.188160	-0.005072
H173	H	0.409880	-0.307377	-0.462294
H174	H	0.909880	0.192623	0.037706
H175	H	0.344575	-0.252636	-0.428655
H176	H	0.844575	0.247364	0.071345
H177	H	0.832804	-0.439623	-0.659969
H178	H	1.332804	0.060377	-0.159969
H179	H	0.144627	-0.439755	-0.374835
H180	H	0.644627	0.060245	0.125165
O181	O	0.984581	-0.929737	-0.223405
O182	O	1.484581	-0.429737	0.276595
C183	C	1.020216	-1.048115	-0.188009
C184	C	1.520216	-0.548115	0.311991
C185	C	0.976035	-1.005835	-0.231938
C186	C	1.476035	-0.505835	0.268062
H187	H	1.013312	-1.109647	-0.194884
H188	H	1.513312	-0.609647	0.305116
H189	H	1.070723	-1.032952	-0.199123
H190	H	1.570723	-0.532952	0.300877
H191	H	1.009289	-1.033038	-0.137460
H192	H	1.509289	-0.533038	0.362540
H193	H	0.986905	-1.020889	-0.282502
H194	H	1.486905	-0.520889	0.217498
H195	H	0.925541	-1.021002	-0.220771
H196	H	1.425541	-0.521002	0.279229
H197	H	0.832808	-0.439457	-1.063606
H198	H	1.332808	0.060543	-0.563606
O199	O	0.826386	-0.778323	-0.381091
O200	O	1.326386	-0.278323	0.118909
C201	C	0.746886	-0.786478	-0.460507
C202	C	1.246886	-0.286478	0.039493
C203	C	0.791025	-0.828690	-0.416488
C204	C	1.291025	-0.328690	0.083512
H205	H	0.718295	-0.827182	-0.489146
H206	H	1.218295	-0.327182	0.010854
H207	H	0.714088	-0.750574	-0.431723
H208	H	1.214088	-0.250574	0.068277
H209	H	0.775636	-0.750419	-0.493271
H210	H	1.275636	-0.250419	0.006729
H211	H	0.762326	-0.864789	-0.383715
H212	H	1.262326	-0.364789	0.116285
H213	H	0.823826	-0.864548	-0.445311
H214	H	1.323826	-0.364548	0.054689
H215	H	0.978282	-0.268872	-0.541367
H216	H	1.478282	0.231128	-0.041367
H217	H	0.978288	-0.268704	-0.945003
H218	H	1.478288	0.231296	-0.445003
H219	H	0.978278	-0.268818	-0.660074
H220	H	1.478278	0.231182	-0.160074
O221	O	0.672214	-0.447263	-0.380867
O222	O	1.172214	0.052737	0.119133
C223	C	0.773024	-0.489025	-0.416325
C224	C	1.273024	0.010975	0.083675
C225	C	0.736995	-0.437172	-0.372354
C226	C	1.236995	0.062828	0.127646
H227	H	0.825406	-0.480873	-0.409467
H228	H	1.325406	0.019127	0.090533
H229	H	0.760151	-0.548362	-0.405238
H230	H	1.260151	-0.048362	0.094762
H231	H	0.760182	-0.476189	-0.466862
H232	H	1.260182	0.023811	0.033138
H233	H	0.749818	-0.449941	-0.321803
H234	H	1.249818	0.050059	0.178197
H235	H	0.749871	-0.377850	-0.383496
H236	H	1.249871	0.122150	0.116504
O237	O	0.915322	-0.223408	-0.738087
O238	O	1.415322	0.276592	-0.238087
C239	C	0.925211	-0.091869	-0.744993
C240	C	1.425211	0.408131	-0.244993
C241	C	0.919766	-0.164821	-0.780952
C242	C	1.419766	0.335179	-0.280952
H243	H	0.928818	-0.044484	-0.779634
H244	H	1.428818	0.455516	-0.279634
H245	H	0.882113	-0.084075	-0.714346
H246	H	1.382113	0.415925	-0.214346
H247	H	0.968781	-0.093049	-0.714372
H248	H	1.468781	0.406951	-0.214372
H249	H	0.876221	-0.163693	-0.811608
H250	H	1.376221	0.336307	-0.311608
H251	H	0.962894	-0.172587	-0.811560
H252	H	1.462894	0.327413	-0.311560
O253	O	0.915226	-0.223422	-0.867008
O254	O	1.415226	0.276578	-0.367008
C255	C	0.867341	-0.140943	-0.940860
C256	C	1.367341	0.359057	-0.440860
C257	C	0.861931	-0.213912	-0.904871
C258	C	1.361931	0.286088	-0.404871
H259	H	0.824264	-0.133238	-0.971491
H260	H	1.324264	0.366762	-0.471491
H261	H	0.870852	-0.093538	-0.906262
H262	H	1.370852	0.406462	-0.406262
H263	H	0.910942	-0.142057	-0.971507
H264	H	1.410942	0.357943	-0.471507
H265	H	0.818332	-0.212870	-0.874224
H266	H	1.318332	0.287130	-0.374224
H267	H	0.858454	-0.261286	-0.939503
H268	H	1.358454	0.238714	-0.439503
H269	H	0.548264	-0.439854	-0.374685
H270	H	1.048264	0.060146	0.125315
H271	H	0.144592	-0.268723	-0.229705
H272	H	0.644592	0.231277	0.270295
O273	O	0.895820	-0.484893	-0.737930
O274	O	1.395820	0.015107	-0.237930
C275	C	0.943678	-0.567482	-0.664150
C276	C	1.443678	-0.067482	-0.164150
C277	C	0.949146	-0.494513	-0.700132
C278	C	1.449146	0.005487	-0.200132
H279	H	0.986792	-0.575291	-0.633591
H280	H	1.486792	-0.075291	-0.133591
H281	H	0.900113	-0.566387	-0.633451
H282	H	1.400113	-0.066387	-0.133451
H283	H	0.940096	-0.614817	-0.698809
H284	H	1.440096	-0.114817	-0.198809
H285	H	0.952754	-0.447138	-0.665518
H286	H	1.452754	0.052862	-0.165518
H287	H	0.992703	-0.495671	-0.730841
H288	H	1.492703	0.004329	-0.230841
H289	H	0.978283	-0.268650	-1.063711
H290	H	1.478283	0.231350	-0.563711
H291	H	0.346327	-0.343590	-0.199787
H292	H	0.846327	0.156410	0.300213
O293	O	0.826493	-0.446980	-0.939842
O294	O	1.326493	0.053020	-0.439842
C295	C	0.746933	-0.540326	-0.946688
C296	C	1.246933	-0.040326	-0.446688
C297	C	0.791042	-0.488499	-0.982680
C298	C	1.291042	0.011501	-0.482680
H299	H	0.718250	-0.573897	-0.981307
H300	H	1.218250	-0.073897	-0.481307
H301	H	0.775649	-0.578862	-0.916089
H302	H	1.275649	-0.078862	-0.416089
H303	H	0.714213	-0.506543	-0.916014
H304	H	1.214213	-0.006543	-0.416014
H305	H	0.823770	-0.522223	-1.013388
H306	H	1.323770	-0.022223	-0.513388
H307	H	0.762287	-0.449961	-1.013239
H308	H	1.262287	0.050039	-0.513239
H309	H	0.978217	-0.784156	-0.229569
H310	H	1.478217	-0.284156	0.270431
O311	O	0.470468	-0.365850	-0.413387
O312	O	0.970468	0.134150	0.086613
C313	C	0.544435	-0.309667	-0.483679
C314	C	1.044435	0.190333	0.016321
C315	C	0.508350	-0.303212	-0.421612
C316	C	1.008350	0.196788	0.078388
H317	H	0.575061	-0.259024	-0.490355
H318	H	1.075061	0.240976	0.009645
H319	H	0.575075	-0.360830	-0.482636
H320	H	1.075075	0.139170	0.017364
H321	H	0.509841	-0.313907	-0.524019
H322	H	1.009841	0.186093	-0.024019
H323	H	0.542898	-0.298942	-0.381238
H324	H	1.042898	0.201058	0.118762
H325	H	0.477701	-0.252058	-0.422709
H326	H	0.977701	0.247942	0.077291
O327	O	0.268384	-0.447218	-0.381130
O328	O	0.768384	0.052782	0.118870
C329	C	0.261494	-0.540744	-0.460456
C330	C	0.761494	-0.040744	0.039544
C331	C	0.225526	-0.488884	-0.416440
C332	C	0.725526	0.011116	0.083560
H333	H	0.226860	-0.574455	-0.489006
H334	H	0.726860	-0.074455	0.010994
H335	H	0.292176	-0.507053	-0.493299
H336	H	0.792176	-0.007053	0.006701
H337	H	0.292083	-0.579153	-0.431612
H338	H	0.792083	-0.079153	0.068388
H339	H	0.194903	-0.450465	-0.445234
H340	H	0.694903	0.049535	0.054766
H341	H	0.194885	-0.522621	-0.383596
H342	H	0.694885	-0.022621	0.116404
O343	O	0.470071	-0.342724	-0.190815
O344	O	0.970071	0.157276	0.309185
C345	C	0.463050	-0.330997	-0.078851
C346	C	0.963050	0.169003	0.421149
C347	C	0.427155	-0.337445	-0.140977
C348	C	0.927155	0.162555	0.359023
H349	H	0.428368	-0.326712	-0.038542
H350	H	0.928368	0.173288	0.461458
H351	H	0.493618	-0.381619	-0.072111
H352	H	0.993618	0.118381	0.427889
H353	H	0.493746	-0.279829	-0.079916
H354	H	0.993746	0.220171	0.420084
H355	H	0.396425	-0.388583	-0.139957
H356	H	0.896425	0.111417	0.360043
H357	H	0.396627	-0.286787	-0.147694
H358	H	0.896627	0.213213	0.352306
H359	H	0.666942	-0.268837	-0.229519
H360	H	1.166942	0.231163	0.270481
O361	O	0.826479	-0.447143	-0.536202
O362	O	1.326479	0.052857	-0.036202
C363	C	0.746926	-0.540497	-0.543045
C364	C	1.246926	-0.040497	-0.043045
C365	C	0.791027	-0.488663	-0.579039
C366	C	1.291027	0.011337	-0.079039
H367	H	0.718243	-0.574068	-0.577663
H368	H	1.218243	-0.074068	-0.077663
H369	H	0.775648	-0.579032	-0.512452
H370	H	1.275648	-0.079032	-0.012452
H371	H	0.714207	-0.506720	-0.512366
H372	H	1.214207	-0.006720	-0.012366
H373	H	0.823756	-0.522380	-0.609752
H374	H	1.323756	-0.022380	-0.109752
H375	H	0.762267	-0.450125	-0.609592
H376	H	1.262267	0.049875	-0.109592
