data_functionalizedCrystal
_audit_creation_method	'MofGen! by Chris Wilmer'
_symmetry_space_group_name_H-M	'P1'
_symmetry_Int_Tables_number	1
_symmetry_cell_setting	triclinic
loop_
_symmetry_equiv_pos_as_xyz
  x,y,z
_cell_length_a	17.639181
_cell_length_b	17.640280
_cell_length_c	11.169409
_cell_angle_alpha	78.765642
_cell_angle_beta	101.200585
_cell_angle_gamma	70.392638
loop_
_atom_site_label
_atom_site_type_symbol
_atom_site_fract_x
_atom_site_fract_y
_atom_site_fract_z
Zn1	Zn	1.326090	-0.582484	-0.092163
Zn2	Zn	1.353870	-0.720299	0.159333
Zn3	Zn	1.188298	-0.554696	0.057614
Zn4	Zn	1.216136	-0.692410	-0.092214
O5	O	1.271098	-0.637472	0.008143
O6	O	1.445083	-0.624067	-0.016211
O7	O	1.331882	-0.698373	0.313795
O8	O	1.183301	-0.443072	-0.004802
O9	O	1.465493	-0.725318	0.168562
O10	O	1.284535	-0.463488	-0.114843
O11	O	1.210238	-0.576706	0.239063
O12	O	1.076683	-0.549663	-0.004852
O13	O	1.230746	-0.677786	-0.260162
O14	O	1.097135	-0.650840	-0.114930
O15	O	1.311528	-0.597024	-0.260125
O16	O	1.358875	-0.831909	0.168513
O17	O	1.257683	-0.811419	-0.016297
C18	C	1.057011	-0.594210	-0.070934
C19	C	0.965427	-0.575723	-0.104785
C20	C	0.717300	-0.778104	0.265354
C21	C	0.631241	-0.760721	0.233532
C22	C	0.610022	-0.655457	0.040963
C23	C	0.696080	-0.672828	0.072772
C24	C	0.749713	-0.734153	0.184969
C25	C	0.728493	-0.628878	-0.007614
C26	C	0.814545	-0.646251	0.024190
C27	C	0.868183	-0.707575	0.136380
C28	C	0.835765	-0.751527	0.216773
C29	C	0.674860	-0.567557	-0.119815
C30	C	0.707272	-0.523607	-0.200201
C31	C	0.793324	-0.540976	-0.168393
C32	C	0.846963	-0.602300	-0.056203
C33	C	0.825743	-0.497024	-0.248786
C34	C	0.911794	-0.514398	-0.216982
C35	C	0.933014	-0.619673	-0.024399
C36	C	1.314336	-0.851567	0.087122
C37	C	1.332909	-0.943173	0.120898
C38	C	1.130341	-1.191205	-0.248758
C39	C	1.147795	-1.277283	-0.216982
C40	C	1.253232	-1.298567	-0.024671
C41	C	1.235790	-1.212490	-0.056434
C42	C	1.174343	-1.158815	-0.168479
C43	C	1.279792	-1.180100	0.023846
C44	C	1.262348	-1.094029	-0.007911
C45	C	1.200902	-1.040349	-0.119949
C46	C	1.156899	-1.072745	-0.200236
C47	C	1.341234	-1.233775	0.135895
C48	C	1.385236	-1.201385	0.216175
C49	C	1.367797	-1.115314	0.184413
C50	C	1.306351	-1.061634	0.072376
C51	C	1.411800	-1.082918	0.264700
C52	C	1.394356	-0.996848	0.232943
C53	C	1.288907	-0.975563	0.040618
C54	C	1.486022	-0.680903	0.087528
C55	C	1.577610	-0.699411	0.121357
C56	C	1.271143	-0.637393	-0.304910
C57	C	1.271162	-0.637360	-0.438315
C58	C	1.227714	-0.422546	-0.071164
C59	C	1.209226	-0.330957	-0.104959
C60	C	1.271089	-0.637501	0.319973
C61	C	1.271183	-0.637334	0.453350
H62	H	0.879435	-0.801458	0.308140
H63	H	0.938250	-0.721712	0.162280
H64	H	1.461824	-1.126632	0.355933
Cl65	Cl	0.952546	-0.459146	-0.318040
H66	H	1.355437	-1.303859	0.161746
H67	H	0.782064	-0.447100	-0.340142
Cl68	Cl	1.179161	-0.932182	-0.160083
Cl69	Cl	1.053100	-1.123723	-0.389626
Cl70	Cl	0.784732	-0.855203	0.406400
H71	H	1.238877	-0.931859	-0.050627
H72	H	0.604856	-0.796517	0.298998
Cl73	Cl	1.449666	-0.956123	0.333875
Cl74	Cl	1.462483	-1.268869	0.357023
Cl75	Cl	1.079658	-1.005263	-0.341104
H76	H	0.976685	-0.669605	0.066968
Cl77	Cl	0.542592	-0.578370	-0.100084
H78	H	0.663594	-0.473679	-0.291554
Cl79	Cl	1.092461	-1.317997	-0.317909
H80	H	0.604792	-0.553417	-0.145708
Cl81	Cl	1.330479	-1.366052	0.116178
