data_functionalizedCrystal
_audit_creation_method	'MofGen! by Chris Wilmer'
_symmetry_space_group_name_H-M	'P1'
_symmetry_Int_Tables_number	1
_symmetry_cell_setting	triclinic
loop_
_symmetry_equiv_pos_as_xyz
  x,y,z
_cell_length_a	29.839125
_cell_length_b	19.805407
_cell_length_c	19.805405
_cell_angle_alpha	89.974605
_cell_angle_beta	89.982556
_cell_angle_gamma	90.014690
loop_
_atom_site_label
_atom_site_type_symbol
_atom_site_fract_x
_atom_site_fract_y
_atom_site_fract_z
Zn1	Zn	-0.254039	-1.034693	-0.269576
Zn2	Zn	0.079295	-0.701360	0.063757
Zn3	Zn	0.412628	-0.368026	0.397090
Zn4	Zn	-0.178909	-1.034620	-0.382741
Zn5	Zn	0.154425	-0.701287	-0.049408
Zn6	Zn	0.487758	-0.367954	0.283925
Zn7	Zn	-0.178918	-0.921520	-0.269570
Zn8	Zn	0.154416	-0.588187	0.063764
Zn9	Zn	0.487749	-0.254854	0.397097
Zn10	Zn	-0.254007	-0.921471	-0.382727
Zn11	Zn	0.079327	-0.588138	-0.049393
Zn12	Zn	0.412660	-0.254805	0.283940
O13	O	-0.216468	-0.978076	-0.326154
O14	O	0.116865	-0.644743	0.007180
O15	O	0.450199	-0.311410	0.340513
O16	O	-0.244082	-1.129400	-0.284597
O17	O	0.089251	-0.796067	0.048736
O18	O	0.422585	-0.462733	0.382070
O19	O	-0.116043	-1.019608	-0.367732
O20	O	0.217291	-0.686274	-0.034399
O21	O	0.550624	-0.352941	0.298935
O22	O	-0.188900	-0.936584	-0.174854
O23	O	0.144434	-0.603250	0.158479
O24	O	0.477767	-0.269917	0.491813
O25	O	-0.188885	-1.129347	-0.367739
O26	O	0.144449	-0.796013	-0.034405
O27	O	0.477782	-0.462680	0.298928
O28	O	-0.244091	-1.019731	-0.174859
O29	O	0.089243	-0.686398	0.158474
O30	O	0.422576	-0.353065	0.491808
O31	O	-0.116049	-0.936513	-0.284585
O32	O	0.217284	-0.603180	0.048748
O33	O	0.550617	-0.269847	0.382081
O34	O	-0.188869	-0.826797	-0.284571
O35	O	0.144465	-0.493464	0.048762
O36	O	0.477798	-0.160131	0.382095
O37	O	-0.316878	-0.936500	-0.367714
O38	O	0.016455	-0.603167	-0.034381
O39	O	0.349789	-0.269833	0.298953
O40	O	-0.244036	-0.826761	-0.367707
O41	O	0.089297	-0.493428	-0.034374
O42	O	0.422630	-0.160094	0.298959
O43	O	-0.316901	-1.019684	-0.284583
O44	O	0.016432	-0.686350	0.048751
O45	O	0.349765	-0.353017	0.382084
O46	O	-0.188854	-1.019560	-0.477456
O47	O	0.144480	-0.686227	-0.144123
O48	O	0.477813	-0.352893	0.189211
O49	O	-0.244028	-0.936430	-0.477445
O50	O	0.089305	-0.603096	-0.144112
O51	O	0.422639	-0.269763	0.189221
C52	C	-0.216450	-0.802220	-0.326137
C53	C	0.116883	-0.468887	0.007196
C54	C	0.450216	-0.135554	0.340529
C55	C	-0.216454	-0.726988	-0.326147
C56	C	0.116880	-0.393655	0.007186
C57	C	0.450213	-0.060322	0.340520
C58	C	-0.245132	-0.691643	-0.369500
C59	C	0.088201	-0.358310	-0.036167
C60	C	0.421534	-0.024976	0.297166
C61	C	-0.245137	-0.620955	-0.369500
C62	C	0.088196	-0.287621	-0.036167
C63	C	0.421529	0.045712	0.297166
C64	C	-0.216461	-0.585613	-0.326150
C65	C	0.116872	-0.252279	0.007184
C66	C	0.450206	0.081054	0.340517
C67	C	-0.187781	-0.620963	-0.282791
C68	C	0.145552	-0.287630	0.050542
C69	C	0.478885	0.045704	0.383875
C70	C	-0.187779	-0.691650	-0.282789
C71	C	0.145555	-0.358317	0.050545
C72	C	0.478888	-0.024983	0.383878
C73	C	-0.187791	-0.335890	-0.282801
C74	C	0.145542	-0.002556	0.050532
C75	C	0.478876	0.330777	0.383865
C76	C	-0.187795	-0.265197	-0.282809
C77	C	0.145538	0.068136	0.050524
C78	C	0.478872	0.401469	0.383858
C79	C	-0.245150	-0.265194	-0.369513
C80	C	0.088184	0.068139	-0.036180
C81	C	0.421517	0.401473	0.297154
C82	C	-0.245147	-0.335881	-0.369510
C83	C	0.088186	-0.002548	-0.036177
C84	C	0.421519	0.330785	0.297156
C85	C	-0.216469	-0.371225	-0.326150
C86	C	0.116864	-0.037892	0.007184
C87	C	0.450198	0.295441	0.340517
C88	C	-0.216465	-0.447874	-0.326149
C89	C	0.116869	-0.114540	0.007184
C90	C	0.450202	0.218793	0.340517
C91	C	-0.216463	-0.508966	-0.326153
C92	C	0.116870	-0.175632	0.007180
C93	C	0.450204	0.157701	0.340514
C94	C	-0.333646	-0.978095	-0.326147
C95	C	-0.000313	-0.644761	0.007186
C96	C	0.333020	-0.311428	0.340519
C97	C	-0.383581	-0.978102	-0.326145
C98	C	-0.050247	-0.644769	0.007188
C99	C	0.283086	-0.311436	0.340522
C100	C	-0.693239	-1.021462	-0.282745
C101	C	-0.359906	-0.688128	0.050588
C102	C	-0.026573	-0.354795	0.383922
C103	C	-0.880913	-1.021495	-0.282687
C104	C	-0.547579	-0.688162	0.050646
C105	C	-0.214246	-0.354829	0.383979
O106	O	-0.905190	-1.058310	-0.245852
O107	O	-0.571857	-0.724977	0.087482
O108	O	-0.238524	-0.391644	0.420815
N109	N	-0.904366	-0.978192	-0.325964
N110	N	-0.571033	-0.644859	0.007370
N111	N	-0.237699	-0.311525	0.340703
C112	C	-0.880898	-0.934874	-0.369254
C113	C	-0.547565	-0.601541	-0.035921
C114	C	-0.214232	-0.268208	0.297413
O115	O	-0.905153	-0.898038	-0.406057
O116	O	-0.571820	-0.564705	-0.072724
O117	O	-0.238487	-0.231372	0.260610
C118	C	-0.693226	-0.934838	-0.369308
C119	C	-0.359893	-0.601505	-0.035975
C120	C	-0.026559	-0.268171	0.297359
C121	C	-0.669775	-0.978149	-0.326034
C122	C	-0.336442	-0.644815	0.007300
C123	C	-0.003108	-0.311482	0.340633
C124	C	-0.669788	-1.064768	-0.239474
C125	C	-0.336455	-0.731435	0.093859
C126	C	-0.003122	-0.398102	0.427193
C127	C	-0.622873	-1.064762	-0.239491
C128	C	-0.289539	-0.731429	0.093842
C129	C	0.043794	-0.398095	0.427175
C130	C	-0.599408	-1.021449	-0.282780
C131	C	-0.266075	-0.688116	0.050553
C132	C	0.067258	-0.354783	0.383887
C133	C	-0.622860	-0.978142	-0.326051
C134	C	-0.289526	-0.644809	0.007282
C135	C	0.043807	-0.311476	0.340615
C136	C	-0.669759	-0.891517	-0.412595
C137	C	-0.336426	-0.558184	-0.079261
C138	C	-0.003093	-0.224851	0.254072
C139	C	-0.622838	-0.891511	-0.412603
C140	C	-0.289505	-0.558178	-0.079270
C141	C	0.043828	-0.224844	0.254064
C142	C	-0.599387	-0.934822	-0.369329
C143	C	-0.266054	-0.601488	-0.035995
C144	C	0.067279	-0.268155	0.297338
C145	C	-0.552480	-0.934823	-0.369357
C146	C	-0.219146	-0.601490	-0.036024
C147	C	0.114187	-0.268157	0.297309
N148	N	-0.529026	-0.978126	-0.326081
N149	N	-0.195693	-0.644793	0.007252
N150	N	0.137640	-0.311460	0.340585
C151	C	-0.552491	-1.021439	-0.282793
C152	C	-0.219157	-0.688106	0.050541
C153	C	0.114176	-0.354773	0.383874
C154	C	-0.979429	-0.934898	-0.369224
C155	C	-0.646096	-0.601564	-0.035890
C156	C	-0.312762	-0.268231	0.297443
C157	C	-1.026347	-0.934907	-0.369211
C158	C	-0.693014	-0.601574	-0.035878
C159	C	-0.359680	-0.268241	0.297455
C160	C	-1.026358	-1.021527	-0.282644
C161	C	-0.693024	-0.688194	0.050690
C162	C	-0.359691	-0.354861	0.384023
C163	C	-0.979439	-1.021521	-0.282660
C164	C	-0.646106	-0.688187	0.050673
C165	C	-0.312772	-0.354854	0.384007
C166	C	-0.955976	-0.978201	-0.325948
C167	C	-0.622642	-0.644867	0.007386
C168	C	-0.289309	-0.311534	0.340719
C169	C	-0.453965	-1.021423	-0.282833
C170	C	-0.120631	-0.688090	0.050500
C171	C	0.212702	-0.354757	0.383834
C172	C	-0.407045	-1.021415	-0.282856
C173	C	-0.073712	-0.688082	0.050477
C174	C	0.259622	-0.354749	0.383810
C175	C	-0.407038	-0.934793	-0.369421
C176	C	-0.073705	-0.601460	-0.036088
C177	C	0.259628	-0.268126	0.297245
C178	C	-0.453954	-0.934803	-0.369401
C179	C	-0.120620	-0.601470	-0.036067
C180	C	0.212713	-0.268137	0.297266
C181	C	-0.477416	-0.978121	-0.326101
C182	C	-0.144083	-0.644787	0.007232
C183	C	0.189251	-0.311454	0.340566
O184	O	-0.528173	-0.898022	-0.406169
O185	O	-0.194840	-0.564689	-0.072835
O186	O	0.138494	-0.231355	0.260498
O187	O	-0.528228	-1.058259	-0.245985
O188	O	-0.194894	-0.724926	0.087349
O189	O	0.138439	-0.391593	0.420682
C190	C	-0.740155	-1.021468	-0.282728
C191	C	-0.406822	-0.688135	0.050606
C192	C	-0.073488	-0.354801	0.383939
C193	C	-0.763606	-0.978161	-0.325999
C194	C	-0.430273	-0.644828	0.007334
C195	C	-0.096939	-0.311494	0.340668
C196	C	-0.740142	-0.934848	-0.369287
C197	C	-0.406808	-0.601515	-0.035954
C198	C	-0.073475	-0.268182	0.297379
C199	C	-0.810524	-0.978171	-0.325986
C200	C	-0.477191	-0.644838	0.007347
C201	C	-0.143857	-0.311504	0.340680
C202	C	-0.833988	-1.021484	-0.282698
C203	C	-0.500655	-0.688151	0.050636
C204	C	-0.167322	-0.354817	0.383969
C205	C	-0.810535	-1.064787	-0.239422
C206	C	-0.477201	-0.731454	0.093912
C207	C	-0.143868	-0.398120	0.427245
C208	C	-0.763619	-1.064781	-0.239439
C209	C	-0.430286	-0.731447	0.093894
C210	C	-0.096953	-0.398114	0.427228
C211	C	-0.763595	-0.891545	-0.412564
C212	C	-0.430262	-0.558212	-0.079230
C213	C	-0.096928	-0.224878	0.254103
C214	C	-0.810511	-0.891555	-0.412543
C215	C	-0.477177	-0.558222	-0.079210
C216	C	-0.143844	-0.224889	0.254123
C217	C	-0.833975	-0.934868	-0.369255
C218	C	-0.500642	-0.601535	-0.035921
C219	C	-0.167308	-0.268202	0.297412
C220	C	-0.099745	-0.978097	-0.326111
C221	C	0.233588	-0.644764	0.007223
C222	C	0.566921	-0.311430	0.340556
C223	C	-0.049811	-0.978220	-0.325923
C224	C	0.283522	-0.644887	0.007411
C225	C	0.616855	-0.311554	0.340744
C226	C	-0.216446	-0.978000	-0.502010
C227	C	0.116887	-0.644667	-0.168676
C228	C	0.450220	-0.311333	0.164657
C229	C	-0.216452	-0.978029	-0.577242
C230	C	0.116881	-0.644696	-0.243908
C231	C	0.450215	-0.311363	0.089425
C232	C	-0.216481	-0.154619	-0.326166
C233	C	0.116852	0.178714	0.007168
C234	C	0.450185	0.512048	0.340501
C235	C	-0.216476	-0.229851	-0.326160
C236	C	0.116857	0.103482	0.007174
C237	C	0.450191	0.436816	0.340507
C238	C	-0.187753	-1.021357	-0.612569
C239	C	0.145581	-0.688024	-0.279235
C240	C	0.478914	-0.354691	0.054098
C241	C	-0.187763	-1.021386	-0.683257
C242	C	0.145571	-0.688053	-0.349924
C243	C	0.478904	-0.354719	-0.016591
C244	C	-0.216470	-0.978083	-0.718617
C245	C	0.116863	-0.644750	-0.385284
C246	C	0.450197	-0.311416	-0.051950
C247	C	-0.245172	-0.934753	-0.683285
C248	C	0.088161	-0.601420	-0.349952
C249	C	0.421495	-0.268086	-0.016618
C250	C	-0.245164	-0.934728	-0.612598
C251	C	0.088169	-0.601395	-0.279264
C252	C	0.421503	-0.268062	0.054069
C253	C	-0.245205	-0.934853	-0.968358
C254	C	0.088128	-0.601520	-0.635025
C255	C	0.421461	-0.268186	-0.301692
C256	C	-0.245210	-0.934880	-1.039050
C257	C	0.088123	-0.601546	-0.705717
C258	C	0.421456	-0.268213	-0.372384
C259	C	-0.187804	-1.021511	-1.039018
C260	C	0.145529	-0.688177	-0.705684
C261	C	0.478863	-0.354844	-0.372351
C262	C	-0.187796	-1.021486	-0.968330
C263	C	0.145537	-0.688153	-0.634997
C264	C	0.478871	-0.354819	-0.301664
C265	C	-0.216500	-0.978159	-0.933004
C266	C	0.116834	-0.644826	-0.599671
C267	C	0.450167	-0.311492	-0.266338
C268	C	-0.216489	-0.978129	-0.856356
C269	C	0.116844	-0.644796	-0.523023
C270	C	0.450177	-0.311463	-0.189689
C271	C	-0.216478	-0.978109	-0.795264
C272	C	0.116855	-0.644776	-0.461931
C273	C	0.450188	-0.311442	-0.128598
C274	C	-0.216500	-0.978171	-0.149611
C275	C	0.116834	-0.644838	0.183723
C276	C	0.450167	-0.311504	0.517056
C277	C	-0.216513	-0.978212	-0.074379
C278	C	0.116820	-0.644878	0.258955
C279	C	0.450154	-0.311545	0.592288
H280	H	-0.268482	-0.720413	-0.404804
H281	H	0.064851	-0.387080	-0.071470
H282	H	0.398184	-0.053747	0.261863
Br283	Br	-1.058211	-1.080309	-0.223895
Br284	Br	-0.724878	-0.746976	0.109438
Br285	Br	-0.391544	-0.413643	0.442772
Br286	Br	-0.284061	-0.572988	-0.428338
Br287	Br	0.049272	-0.239655	-0.095005
Br288	Br	0.382605	0.093678	0.238329
H289	H	-0.960329	-0.899622	-0.404478
H290	H	-0.626996	-0.566288	-0.071145
H291	H	-0.293663	-0.232955	0.262188
Br292	Br	-0.148850	-1.080315	-1.086964
Br293	Br	0.184484	-0.746982	-0.753630
Br294	Br	0.517817	-0.413649	-0.420297
Br295	Br	-0.148874	-0.217233	-0.223972
Br296	Br	0.184459	0.116100	0.109361
Br297	Br	0.517792	0.449433	0.442694
H298	H	-0.268548	-0.899498	-0.712081
H299	H	0.064785	-0.566165	-0.378747
H300	H	0.398119	-0.232831	-0.045414
H301	H	-0.164374	-1.056617	-0.583783
H302	H	0.168959	-0.723283	-0.250450
H303	H	0.502292	-0.389950	0.082883
Br304	Br	-0.148815	-1.080195	-0.731199
Br305	Br	0.184518	-0.746862	-0.397866
Br306	Br	0.517852	-0.413528	-0.064532
H307	H	-0.164436	-0.364658	-0.247500
H308	H	0.168897	-0.031325	0.085834
H309	H	0.502230	0.302009	0.419167
Br310	Br	-0.284117	-0.875928	-0.564653
Br311	Br	0.049216	-0.542595	-0.231319
Br312	Br	0.382549	-0.209261	0.102014
Br313	Br	-0.284070	-0.217224	-0.428362
Br314	Br	0.049263	0.116110	-0.095029
Br315	Br	0.382597	0.449443	0.238305
H316	H	-0.688845	-0.856249	-0.447833
H317	H	-0.355512	-0.522916	-0.114500
H318	H	-0.022178	-0.189582	0.218834
Br319	Br	-0.842389	-1.123572	-0.180677
Br320	Br	-0.509055	-0.790238	0.152657
Br321	Br	-0.175722	-0.456905	0.485990
H322	H	-1.045437	-0.899647	-0.404457
H323	H	-0.712103	-0.566314	-0.071124
H324	H	-0.378770	-0.232980	0.262210
H325	H	-0.268497	-0.364653	-0.404813
H326	H	0.064837	-0.031320	-0.071480
H327	H	0.398170	0.302013	0.261854
H328	H	-0.164434	-0.592182	-0.247492
H329	H	0.168899	-0.258848	0.085842
H330	H	0.502232	0.074485	0.419175
Br331	Br	-0.485781	-0.876029	-0.428135
Br332	Br	-0.152448	-0.542696	-0.094802
Br333	Br	0.180885	-0.209363	0.238532
H334	H	-0.829601	-0.856288	-0.447789
H335	H	-0.496267	-0.522954	-0.114455
H336	H	-0.162934	-0.189621	0.218878
H337	H	-0.164428	-0.720427	-0.247482
H338	H	0.168905	-0.387094	0.085851
H339	H	0.502239	-0.053761	0.419184
H340	H	-0.387953	-1.056687	-0.247617
H341	H	-0.054620	-0.723353	0.085717
H342	H	0.278713	-0.390020	0.419050
Br343	Br	-0.590998	-0.832714	-0.471352
Br344	Br	-0.257664	-0.499380	-0.138018
Br345	Br	0.075669	-0.166047	0.195315
Br346	Br	-0.284172	-0.876107	-1.087039
Br347	Br	0.049161	-0.542774	-0.753705
Br348	Br	0.382494	-0.209440	-0.420372
H349	H	-0.473062	-1.056694	-0.247572
H350	H	-0.139729	-0.723361	0.085761
H351	H	0.193605	-0.390028	0.419095
H352	H	-0.960348	-1.056787	-0.247421
H353	H	-0.627015	-0.723454	0.085912
H354	H	-0.293682	-0.390120	0.419246
Br355	Br	-0.148834	-1.080255	-0.920345
Br356	Br	0.184499	-0.746922	-0.587012
Br357	Br	0.517832	-0.413589	-0.253679
H358	H	-0.603783	-1.100029	-0.204252
H359	H	-0.270450	-0.766696	0.129081
H360	H	0.062884	-0.433362	0.462415
H361	H	-0.688888	-1.100039	-0.204219
H362	H	-0.355555	-0.766706	0.129114
H363	H	-0.022221	-0.433372	0.462447
H364	H	-0.744495	-0.856275	-0.447816
H365	H	-0.411162	-0.522941	-0.114483
H366	H	-0.077829	-0.189608	0.218851
H367	H	-0.268576	-0.899573	-0.939601
H368	H	0.064757	-0.566240	-0.606268
H369	H	0.398091	-0.232907	-0.272935
H370	H	-0.387925	-0.899531	-0.404668
H371	H	-0.054592	-0.566198	-0.071334
H372	H	0.278742	-0.232864	0.261999
H373	H	-0.744530	-1.100049	-0.204200
H374	H	-0.411196	-0.766715	0.129133
H375	H	-0.077863	-0.433382	0.462466
