data_functionalizedCrystal
_audit_creation_method	'MofGen! by Chris Wilmer'
_symmetry_space_group_name_H-M	'P1'
_symmetry_Int_Tables_number	1
_symmetry_cell_setting	triclinic
loop_
_symmetry_equiv_pos_as_xyz
  x,y,z
_cell_length_a	14.395555
_cell_length_b	17.917559
_cell_length_c	17.917559
_cell_angle_alpha	60.143536
_cell_angle_beta	90.004745
_cell_angle_gamma	63.039569
loop_
_atom_site_label
_atom_site_type_symbol
_atom_site_fract_x
_atom_site_fract_y
_atom_site_fract_z
Zr1	Zr	0.948062	0.806720	-0.128914
O2	O	0.814795	0.951735	-0.249435
O3	O	0.982526	0.654511	-0.087281
O4	O	0.999382	0.796340	-0.242669
O5	O	0.791911	0.820601	0.023194
O6	O	1.152255	0.796336	-0.242662
O7	O	0.797939	0.809906	-0.094047
O8	O	1.122103	0.542629	0.035298
O9	O	0.822063	1.074308	-0.254766
O10	O	1.119032	0.719777	-0.075182
O11	O	1.000445	0.727763	0.012309
O12	O	1.020291	0.894748	-0.170640
O13	O	0.901705	0.902734	-0.083149
Zr14	Zr	1.182263	0.823770	0.058083
Zr15	Zr	1.191877	0.806712	-0.128903
Zr16	Zr	0.938448	0.823778	0.058073
Zr17	Zr	0.959654	1.002209	-0.137416
Zr18	Zr	1.170671	0.628280	0.066586
O19	O	1.147800	0.975978	0.016451
O20	O	1.161469	0.951724	-0.249420
O21	O	0.801125	0.975989	0.016436
O22	O	1.315530	0.678754	0.178605
O23	O	1.329200	0.654500	-0.087266
O24	O	0.968856	0.678766	0.178590
O25	O	1.338414	0.809888	-0.094024
O26	O	1.130943	0.834149	0.171838
O27	O	0.978070	0.834154	0.171832
O28	O	1.332386	0.820584	0.023217
O29	O	1.015864	1.074301	-0.254758
O30	O	1.114461	0.556188	0.183928
O31	O	1.308262	0.556181	0.183936
O32	O	1.315904	0.542623	0.035306
O33	O	0.814422	1.087867	-0.106136
O34	O	1.008222	1.087860	-0.106128
O35	O	1.110034	0.735741	0.099810
O36	O	1.228621	0.727755	0.012319
O37	O	1.129880	0.902727	-0.083139
O38	O	1.011294	0.910712	0.004352
C39	C	1.050663	0.570717	-0.024780
C40	C	1.045741	0.487727	-0.021171
C41	C	1.093494	0.294768	-0.056309
C42	C	1.036834	0.335726	-0.014524
C43	C	1.041792	0.420307	-0.018223
C44	C	1.088538	0.210179	-0.052610
C45	C	0.760187	0.815255	-0.035428
C46	C	0.656680	0.815258	-0.035432
C47	C	0.542254	0.910661	-0.087473
C48	C	0.510238	0.857639	-0.119874
C49	C	0.504273	0.868274	-0.003037
C50	C	0.626031	0.762232	-0.067882
C51	C	0.620060	0.772885	0.049000
C52	C	0.588113	0.719793	0.016622
C53	C	1.370139	0.815235	-0.035402
C54	C	1.473645	0.815231	-0.035398
C55	C	1.077188	0.793908	-0.269307
C56	C	1.081270	0.786666	-0.348688
C57	C	1.079663	1.059772	-0.046050
C58	C	1.084584	1.142763	-0.049660
C59	C	1.041579	0.857039	-0.576781
C60	C	1.088744	0.773454	-0.494047
C61	C	1.084584	0.780808	-0.413162
C62	C	1.045738	0.849688	-0.657674
C63	C	1.053137	0.836582	0.198477
C64	C	1.049056	0.843823	0.277858
C65	C	1.355639	0.570707	-0.024767
C66	C	1.454223	0.487713	-0.021153
C67	C	1.038637	0.592054	0.209112
C68	C	1.029634	0.516305	0.292102
C69	C	1.343613	0.592044	0.209125
C70	C	1.438116	0.516292	0.292119
C71	C	0.786712	1.038445	-0.279955
C72	C	0.692209	1.114197	-0.362950
C73	C	0.774687	1.059782	-0.046063
C74	C	0.676102	1.142776	-0.049677
C75	C	1.091688	1.038435	-0.279942
C76	C	1.100691	1.114184	-0.362932
C77	C	1.443316	0.444573	-0.065139
C78	C	1.535939	0.366601	-0.061761
C79	C	1.639468	0.331765	-0.014392
C80	C	1.650374	0.374913	0.029594
C81	C	1.557752	0.452889	0.026211
C82	C	1.082611	0.484898	0.376758
C83	C	1.074148	0.413735	0.454742
C84	C	1.012714	0.373976	0.448070
C85	C	0.959732	0.405390	0.363405
C86	C	0.968189	0.476557	0.285422
C87	C	1.544407	0.476549	0.285425
C88	C	1.633214	0.405382	0.363400
C89	C	1.615727	0.373954	0.448068
C90	C	1.509425	0.413704	0.454760
C91	C	1.420621	0.484875	0.376786
C92	C	0.585918	1.153949	-0.356256
C93	C	0.497113	1.225141	-0.434231
C94	C	0.514601	1.256573	-0.518900
C95	C	0.620902	1.216818	-0.525592
C96	C	0.709705	1.145634	-0.447617
C97	C	0.687010	1.185923	-0.005700
C98	C	0.594389	1.263915	-0.009099
C99	C	0.490860	1.298754	-0.056470
C100	C	0.479954	1.255602	-0.100453
C101	C	0.572575	1.177617	-0.097059
C102	C	1.162133	1.153921	-0.356231
C103	C	1.170613	1.225086	-0.434201
C104	C	1.117644	1.256517	-0.518873
C105	C	1.056200	1.216772	-0.525572
C106	C	1.047727	1.145604	-0.447602
H107	H	0.523889	0.991327	-0.131543
H108	H	1.145722	0.323223	-0.094859
H109	H	1.005837	0.316028	0.511576
H110	H	1.132636	0.517263	0.382208
H111	H	1.566648	0.488004	0.062034
C112	C	0.380191	1.268857	-0.426850
N113	N	0.292127	1.301782	-0.421287
C114	C	1.523918	0.319144	-0.110143
N115	N	1.514859	0.283399	-0.146581
H116	H	1.220645	1.257439	-0.428729
H117	H	1.132242	0.696373	-0.483961
C118	C	1.132449	0.379184	0.547865
N119	N	1.176366	0.353159	0.618003
C120	C	0.416902	1.334871	-0.604666
N121	N	0.343311	1.393841	-0.669262
C122	C	0.388985	1.384537	-0.060191
N123	N	0.312255	1.449146	-0.062986
H124	H	0.462797	0.893454	-0.191263
H125	H	0.997690	1.113257	-0.453071
H126	H	0.984596	0.307273	0.024023
H127	H	1.124552	1.314468	-0.582354
H128	H	1.714878	0.268271	-0.011644
H129	H	1.734680	0.346538	0.068160
C130	C	0.892164	0.361639	0.356081
N131	N	0.841278	0.328678	0.350567
C132	C	0.909919	0.511085	0.192304
N133	N	0.866028	0.537086	0.122168
C134	C	0.997984	1.251320	-0.618718
N135	N	0.954148	1.277333	-0.688877
C136	C	0.684172	0.724571	0.145409
N137	N	0.732463	0.688196	0.218021
H138	H	0.678398	0.717429	-0.095347
C139	C	0.640120	1.251395	-0.618736
N140	N	0.654591	1.277434	-0.688894
H141	H	0.606690	0.639053	0.060638
C142	C	1.563670	0.511113	0.192297
N143	N	1.578189	0.537147	0.122155
H144	H	0.451766	0.913119	0.024346
H145	H	0.998079	0.934115	-0.586865
H146	H	1.359027	0.472934	-0.103722
C147	C	1.713425	0.295655	0.533834
N148	N	1.787016	0.236676	0.598430
C149	C	1.490206	0.379113	0.547905
N150	N	1.475734	0.353051	0.618064
C151	C	1.303701	0.528582	0.384166
N152	N	1.215638	0.561501	0.389730
H153	H	0.563677	1.142488	-0.132868
C154	C	0.606409	1.311360	0.039297
N155	N	0.615466	1.347091	0.075750
C156	C	0.566656	1.119394	-0.263128
N157	N	0.552139	1.093378	-0.192986
H158	H	1.719762	0.373024	0.357935
C159	C	0.826623	1.101901	-0.454995
N160	N	0.914685	1.068963	-0.460559
H161	H	0.771300	1.157565	0.032881
H162	H	0.395649	1.283980	-0.139022
H163	H	1.205268	1.128342	-0.287294
