data_functionalizedCrystal
_audit_creation_method	'MofGen! by Chris Wilmer'
_symmetry_space_group_name_H-M	'P1'
_symmetry_Int_Tables_number	1
_symmetry_cell_setting	triclinic
loop_
_symmetry_equiv_pos_as_xyz
  x,y,z
_cell_length_a	12.645330
_cell_length_b	12.759395
_cell_length_c	12.759387
_cell_angle_alpha	90.021426
_cell_angle_beta	90.029414
_cell_angle_gamma	90.018380
loop_
_atom_site_label
_atom_site_type_symbol
_atom_site_fract_x
_atom_site_fract_y
_atom_site_fract_z
Zn1	Zn	-0.421964	1.606247	0.594041
Zn2	Zn	-0.599266	1.606128	0.418366
Zn3	Zn	-0.422019	1.430545	0.418375
Zn4	Zn	-0.599188	1.430528	0.594002
O5	O	-0.510609	1.518362	0.506196
O6	O	-0.445493	1.753252	0.570750
O7	O	-0.575810	1.582794	0.271346
O8	O	-0.273665	1.453909	0.441698
O9	O	-0.575756	1.753165	0.441682
O10	O	-0.273624	1.582996	0.570759
O11	O	-0.445587	1.453794	0.271353
O12	O	-0.445511	1.283522	0.441660
O13	O	-0.575623	1.453880	0.741028
O14	O	-0.575677	1.283509	0.570692
O15	O	-0.445417	1.582980	0.741057
O16	O	-0.747603	1.582778	0.441644
O17	O	-0.747546	1.453765	0.570683
C18	C	-0.510592	1.245395	0.506173
C19	C	-0.510611	1.128618	0.506189
C20	C	-0.646395	0.909220	0.640373
C21	C	-0.714265	0.964105	0.707440
C22	C	-0.714252	1.073826	0.707426
C23	C	-0.646364	1.128666	0.640336
C24	C	-0.578494	1.073781	0.573269
C25	C	-0.578512	0.964057	0.573292
C26	C	-0.442740	1.073733	0.439122
C27	C	-0.442746	0.964012	0.439139
C28	C	-0.374852	1.128573	0.372032
C29	C	-0.306975	1.073688	0.304968
C30	C	-0.306990	0.963960	0.304985
C31	C	-0.374876	0.909127	0.372072
C32	C	-0.786039	1.518285	0.506181
C33	C	-0.903869	1.518349	0.506210
C34	C	-1.071441	1.437522	0.587639
C35	C	-0.948882	1.437108	0.587377
C36	C	-0.948472	1.488373	0.395488
C37	C	-1.071071	1.487880	0.395982
C38	C	-1.070955	1.629646	0.534606
C39	C	-0.948348	1.628964	0.537027
C40	C	-0.234104	1.518468	0.506234
C41	C	-0.116274	1.518513	0.506250
C42	C	-0.510505	1.518441	0.780229
C43	C	-0.510461	1.518475	0.897006
C44	C	-0.510627	1.792395	0.506219
C45	C	-0.510635	1.909172	0.506229
C46	C	-0.510636	1.518344	0.233228
C47	C	-0.510382	1.518513	0.116452
C48	C	-0.374887	1.652916	0.897056
C49	C	-0.307084	1.720151	0.951941
C50	C	-0.307045	1.720176	1.061663
C51	C	-0.374815	1.652958	1.116502
C52	C	-0.442618	1.585723	1.061616
C53	C	-0.442651	1.585707	0.951892
C54	C	-0.578185	1.451278	1.061567
C55	C	-0.578231	1.451256	0.951845
C56	C	-0.645954	1.384059	1.116405
C57	C	-0.713764	1.316828	1.061519
C58	C	-0.713801	1.316806	0.951791
C59	C	-0.646034	1.384021	0.896959
H60	H	-0.646402	0.819879	0.640401
Br61	Br	-0.805816	1.225544	0.877313
H62	H	-0.251827	1.774918	1.106351
Br63	Br	-0.374840	1.277482	0.372005
H64	H	-0.646061	1.384014	0.807618
Br65	Br	-0.899888	1.583574	0.291647
Br66	Br	-0.646365	1.277575	0.640302
Br67	Br	-1.122351	1.675223	0.666888
Br68	Br	-1.118903	1.352477	0.355943
H69	H	-0.769541	0.919443	0.762061
Br70	Br	-0.645901	1.384090	1.265314
H71	H	-0.251722	0.919279	0.250370
Br72	Br	-1.119297	1.730223	0.435821
H73	H	-0.769521	1.118513	0.762036
H74	H	-0.251711	1.118347	0.250344
H75	H	-1.100846	1.456104	0.670008
Br76	Br	-0.374895	0.760218	0.372107
H77	H	-0.251906	1.774877	0.907280
H78	H	-0.768931	1.262098	1.106178
Br79	Br	-0.898605	1.468365	0.724216
Br80	Br	-1.122975	1.301062	0.556757
Br81	Br	-0.374748	1.652981	1.265411
H82	H	-0.919649	1.354719	0.568591
H83	H	-0.374921	1.652912	0.807715
H84	H	-1.100732	1.544310	0.333273
Br85	Br	-0.897465	1.354378	0.354722
H86	H	-0.919190	1.651570	0.618512
Br87	Br	-0.897259	1.734844	0.445428
