data_functionalizedCrystal
_audit_creation_method	'MofGen! by Chris Wilmer'
_symmetry_space_group_name_H-M	'P1'
_symmetry_Int_Tables_number	1
_symmetry_cell_setting	triclinic
loop_
_symmetry_equiv_pos_as_xyz
  x,y,z
_cell_length_a	8.559649
_cell_length_b	10.540539
_cell_length_c	7.681481
_cell_angle_alpha	84.202085
_cell_angle_beta	94.913240
_cell_angle_gamma	77.152078
loop_
_atom_site_label
_atom_site_type_symbol
_atom_site_fract_x
_atom_site_fract_y
_atom_site_fract_z
O1	O	2.104686	-0.029542	-0.146402
O2	O	1.640228	0.035941	-0.146408
O3	O	1.883054	-0.182616	-0.146403
O4	O	1.861861	0.189016	-0.146407
O5	O	1.912941	-0.209571	0.146456
O6	O	1.670116	0.008986	0.146450
O7	O	2.134573	-0.056497	0.146457
Zn8	Zn	1.907089	-0.028035	0.192951
Zn9	Zn	1.867712	0.007479	-0.192902
O10	O	1.891748	0.162061	0.146451
C11	C	1.595699	0.027426	0.000020
C12	C	1.418487	0.042198	0.000017
C13	C	1.896408	-0.243230	0.000023
C14	C	1.891652	-0.383679	0.000014
C15	C	1.709382	-0.547970	-0.000646
C16	C	1.714270	-0.401917	0.000013
C17	C	1.994083	-0.469667	0.167252
C18	C	1.988043	-0.615591	0.167393
C19	C	1.957664	-0.585834	-0.165642
C20	C	1.959072	-0.438819	-0.167853
C21	C	2.179102	-0.047981	0.000025
C22	C	2.356313	-0.062752	0.000016
C23	C	1.878393	0.222675	0.000021
C24	C	1.883148	0.363125	0.000019
N25	N	1.933975	-0.052274	0.456286
N26	N	1.840839	0.031708	-0.456237
H27	H	1.634867	-0.341248	-0.119869
H28	H	1.937713	-0.648691	0.292404
N29	N	1.459621	-0.189641	0.000002
N30	N	1.608260	-0.201865	-0.000000
H31	H	1.681233	-0.291482	-0.000011
N32	N	2.149054	-0.693390	0.176937
N33	N	2.265523	-0.639838	0.183484
H34	H	2.379238	-0.694778	0.190238
N35	N	1.315168	0.169097	0.000002
N36	N	1.166527	0.181326	-0.000005
H37	H	1.093556	0.270946	-0.000015
H38	H	2.029067	-0.137994	0.531494
N39	N	1.869447	-0.603259	-0.324665
N40	N	1.858480	-0.715601	-0.354176
H41	H	1.796167	-0.727910	-0.466480
H42	H	1.627073	-0.558196	-0.120575
H43	H	1.651768	-0.581848	0.118609
H44	H	2.124982	-0.461523	0.173472
H45	H	1.658885	-0.364132	0.120094
H46	H	1.947485	-0.432314	0.291703
H47	H	1.883986	-0.380035	-0.291571
N48	N	1.721580	0.139245	0.449410
N49	N	1.704917	0.154262	0.284822
H50	H	1.620691	0.230213	0.218173
H51	H	2.087366	-0.427208	-0.177950
H52	H	2.085671	-0.646370	-0.166765
