data_functionalizedCrystal
_audit_creation_method	'MofGen! by Chris Wilmer'
_symmetry_space_group_name_H-M	'P1'
_symmetry_Int_Tables_number	1
_symmetry_cell_setting	triclinic
loop_
_symmetry_equiv_pos_as_xyz
  x,y,z
_cell_length_a	17.640112
_cell_length_b	17.640280
_cell_length_c	17.640618
_cell_angle_alpha	65.681691
_cell_angle_beta	92.134647
_cell_angle_gamma	92.184069
loop_
_atom_site_label
_atom_site_type_symbol
_atom_site_fract_x
_atom_site_fract_y
_atom_site_fract_z
Zn1	Zn	1.251373	-0.023070	-0.189703
Zn2	Zn	1.751373	0.476930	0.310297
Zn3	Zn	1.251300	-0.188752	-0.024070
Zn4	Zn	1.751300	0.311248	0.475930
Zn5	Zn	1.106803	-0.075309	-0.076161
Zn6	Zn	1.606803	0.424691	0.423839
Zn7	Zn	1.148413	-0.178178	-0.179121
Zn8	Zn	1.648413	0.321822	0.320879
O9	O	1.189472	-0.116327	-0.117264
O10	O	1.689472	0.383673	0.382736
O11	O	1.354926	-0.027611	-0.150359
O12	O	1.854926	0.472389	0.349641
O13	O	1.214687	-0.199991	0.081427
O14	O	1.714687	0.300009	0.581427
O15	O	1.108597	0.044010	-0.117451
O16	O	1.608597	0.544010	0.382549
O17	O	1.354872	-0.149336	-0.028669
O18	O	1.854872	0.350664	0.471331
O19	O	1.214813	0.082390	-0.200870
O20	O	1.714813	0.582390	0.299130
O21	O	1.108526	-0.116645	0.043156
O22	O	1.608526	0.383355	0.543156
O23	O	1.008760	-0.106392	-0.107191
O24	O	1.508760	0.393608	0.392809
O25	O	1.179515	-0.131315	-0.292932
O26	O	1.679515	0.368685	0.207068
O27	O	1.039331	-0.181970	-0.182836
O28	O	1.539331	0.318030	0.317164
O29	O	1.255160	-0.017358	-0.300706
O30	O	1.755160	0.482642	0.199294
O31	O	1.255035	-0.299739	-0.018409
O32	O	1.755035	0.200261	0.481591
O33	O	1.179444	-0.291970	-0.132325
O34	O	1.679444	0.208030	0.367675
C35	C	0.997193	-0.148703	-0.149518
C36	C	1.497193	0.351297	0.350482
C37	C	0.914941	-0.162568	-0.163331
C38	C	1.414941	0.337432	0.336669
C39	C	0.564744	-0.010979	-0.012337
C40	C	1.064744	0.489021	0.487663
C41	C	0.487460	-0.024021	-0.025324
C42	C	0.987460	0.475979	0.474676
C43	C	0.519342	-0.102903	-0.103882
C44	C	1.019342	0.397097	0.396118
C45	C	0.596630	-0.089864	-0.090906
C46	C	1.096630	0.410136	0.409094
C47	C	0.619324	-0.043902	-0.045132
C48	C	1.119324	0.456098	0.454868
C49	C	0.651211	-0.122787	-0.123701
C50	C	1.151211	0.377213	0.376299
C51	C	0.728492	-0.109752	-0.110721
C52	C	1.228492	0.390248	0.389279
C53	C	0.751193	-0.063795	-0.064947
C54	C	1.251193	0.436205	0.435053
C55	C	0.696606	-0.030867	-0.032153
C56	C	1.196606	0.469133	0.467847
C57	C	0.628515	-0.168753	-0.169469
C58	C	1.128515	0.331247	0.330531
C59	C	0.683096	-0.201676	-0.202264
C60	C	1.183096	0.298324	0.297736
C61	C	0.760379	-0.188637	-0.189290
C62	C	1.260379	0.311363	0.310710
C63	C	0.783079	-0.142679	-0.143516
C64	C	1.283079	0.357321	0.356484
C65	C	0.814966	-0.221564	-0.222084
C66	C	1.314966	0.278436	0.277916
C67	C	0.892247	-0.208530	-0.209105
C68	C	1.392247	0.291470	0.290895
C69	C	0.860361	-0.129645	-0.130536
C70	C	1.360361	0.370355	0.369464
C71	C	1.221770	-0.324988	-0.068580
C72	C	1.721770	0.175012	0.431420
C73	C	1.235658	-0.414237	-0.047769
C74	C	1.735658	0.085763	0.452231
C75	C	1.084309	-0.687782	-0.275607
C76	C	1.584309	-0.187782	0.224393
C77	C	1.097357	-0.771650	-0.256026
C78	C	1.597357	-0.271650	0.243974
C79	C	1.176145	-0.779640	-0.137499
C80	C	1.676145	-0.279640	0.362501
C81	C	1.163106	-0.695770	-0.157073
C82	C	1.663106	-0.195770	0.342927
C83	C	1.117187	-0.649848	-0.226127
C84	C	1.617187	-0.149848	0.273873
C85	C	1.195984	-0.657835	-0.107593
C86	C	1.695984	-0.157835	0.392407
C87	C	1.182943	-0.573973	-0.127163
C88	C	1.682943	-0.073973	0.372837
C89	C	1.137024	-0.528046	-0.196213
C90	C	1.637024	-0.028046	0.303787
C91	C	1.104146	-0.565986	-0.245697
C92	C	1.604146	-0.065986	0.254303
C93	C	1.241899	-0.703760	-0.038536
C94	C	1.741899	-0.203760	0.461464
C95	C	1.274777	-0.665826	0.010944
C96	C	1.774777	-0.165826	0.510944
C97	C	1.261740	-0.581961	-0.008629
C98	C	1.761740	-0.081961	0.491371
C99	C	1.215821	-0.536033	-0.077679
C100	C	1.715821	-0.036033	0.422321
C101	C	1.294619	-0.544021	0.040855
C102	C	1.794619	-0.044021	0.540855
C103	C	1.281578	-0.460159	0.021285
C104	C	1.781578	0.039841	0.521285
C105	C	1.202780	-0.452172	-0.097249
C106	C	1.702780	0.047828	0.402751
C107	C	1.382502	-0.083826	-0.084884
C108	C	1.882502	0.416174	0.415116
C109	C	1.464760	-0.069976	-0.071085
C110	C	1.964760	0.430024	0.428915
C111	C	1.221987	-0.067330	-0.326780
C112	C	1.721987	0.432670	0.173220
C113	C	1.235844	-0.046450	-0.416063
C114	C	1.735844	0.453550	0.083937
C115	C	1.157071	0.093156	-0.166151
C116	C	1.657071	0.593156	0.333849
C117	C	1.143264	0.182426	-0.186984
C118	C	1.643264	0.682426	0.313016
C119	C	1.294753	0.042305	-0.545953
C120	C	1.794753	0.542305	-0.045953
C121	C	1.281729	0.022679	-0.462057
C122	C	1.781729	0.522679	0.037943
C123	C	1.202961	-0.095978	-0.453955
C124	C	1.702961	0.404022	0.046045
C125	C	1.215976	-0.076358	-0.537853
C126	C	1.715976	0.423642	-0.037853
C127	C	1.261873	-0.007216	-0.583845
C128	C	1.761873	0.492784	-0.083845
C129	C	1.183096	-0.125880	-0.575746
C130	C	1.683096	0.374120	-0.075746
C131	C	1.196113	-0.106265	-0.659635
C132	C	1.696113	0.393735	-0.159635
C133	C	1.242010	-0.037128	-0.705632
C134	C	1.742010	0.462872	-0.205632
C135	C	1.274890	0.012399	-0.667735
C136	C	1.774890	0.512399	-0.167735
C137	C	1.137203	-0.195025	-0.529751
C138	C	1.637203	0.304975	-0.029751
C139	C	1.104323	-0.244547	-0.567643
C140	C	1.604323	0.255453	-0.067643
C141	C	1.117335	-0.224929	-0.651536
C142	C	1.617335	0.275071	-0.151536
C143	C	1.163232	-0.155791	-0.697533
C144	C	1.663232	0.344209	-0.197533
C145	C	1.084455	-0.274455	-0.689433
C146	C	1.584455	0.225545	-0.189433
C147	C	1.097472	-0.254840	-0.773323
C148	C	1.597472	0.245160	-0.273323
C149	C	1.176249	-0.136176	-0.781422
C150	C	1.676249	0.363824	-0.281422
C151	C	1.157117	-0.165069	0.091431
C152	C	1.657117	0.334931	0.591431
C153	C	1.143369	-0.185698	0.180685
C154	C	1.643369	0.314302	0.680685
H155	H	0.814121	-0.053185	-0.054378
H156	H	1.314121	0.446815	0.445622
H157	H	1.332117	0.098616	-0.583406
H158	H	1.832117	0.598616	-0.083406
H159	H	1.126610	-0.210997	-0.461441
H160	H	1.626610	0.289003	0.038559
H161	H	0.878839	-0.092204	-0.093277
H162	H	1.378839	0.407796	0.406723
H163	H	0.443020	0.002799	0.001378
H164	H	0.943020	0.502799	0.501378
H165	H	1.312162	-0.703228	0.067170
H166	H	1.812162	-0.203228	0.567170
H167	H	1.070698	-0.295166	-0.804175
H168	H	1.570698	0.204834	-0.304175
H169	H	1.047092	-0.330755	-0.651972
H170	H	1.547092	0.169245	-0.151972
Br171	Br	1.042037	-0.338380	-0.505219
Br172	Br	1.542037	0.161620	-0.005219
Br173	Br	0.727412	0.031520	0.029960
Br174	Br	1.227412	0.531520	0.529960
H175	H	0.565586	-0.179364	-0.180035
H176	H	1.065586	0.320636	0.319965
Br177	Br	1.326362	0.089891	-0.410631
Br178	Br	1.826362	0.589891	0.089369
Br179	Br	1.052718	-0.823136	-0.323174
Br180	Br	1.552718	-0.323136	0.176826
Br181	Br	1.238498	-0.042307	-0.843863
Br182	Br	1.738498	0.457693	-0.343863
H183	H	1.312254	0.068709	-0.705188
H184	H	1.812254	0.568709	-0.205188
H185	H	1.165594	-0.152275	-0.416497
H186	H	1.665594	0.347725	0.083503
H187	H	0.583222	0.026463	0.024922
H188	H	1.083222	0.526463	0.524922
Br189	Br	0.652289	-0.264066	-0.264368
Br190	Br	1.152289	0.235934	0.235632
Br191	Br	1.022000	-0.625447	-0.369333
Br192	Br	1.522000	-0.125447	0.130667
H193	H	0.500853	-0.140328	-0.141149
H194	H	1.000853	0.359672	0.358851
Br195	Br	0.784156	-0.283961	-0.284180
Br196	Br	1.284156	0.216039	0.215820
H197	H	0.936689	-0.235338	-0.235811
H198	H	1.436689	0.264662	0.264189
Br199	Br	1.326186	-0.408675	0.088445
Br200	Br	1.826186	0.091325	0.588445
Br201	Br	1.140472	-0.389837	-0.190975
Br202	Br	1.640472	0.110163	0.309025
H203	H	1.252609	-0.021160	-0.773939
H204	H	1.752609	0.478840	-0.273939
H205	H	1.066760	-0.528591	-0.301933
H206	H	1.566760	-0.028591	0.198067
Br207	Br	1.238462	-0.841970	-0.043786
Br208	Br	1.738462	-0.341970	0.456214
H209	H	1.126401	-0.459763	-0.212140
H210	H	1.626401	0.040237	0.287860
Br211	Br	1.356927	-0.606356	0.134574
Br212	Br	1.856927	-0.106356	0.634574
H213	H	1.252517	-0.772045	-0.022606
H214	H	1.752517	-0.272045	0.477394
