data_functionalizedCrystal
_audit_creation_method	'MofGen! by Chris Wilmer'
_symmetry_space_group_name_H-M	'P1'
_symmetry_Int_Tables_number	1
_symmetry_cell_setting	triclinic
loop_
_symmetry_equiv_pos_as_xyz
  x,y,z
_cell_length_a	18.215407
_cell_length_b	17.077402
_cell_length_c	17.077396
_cell_angle_alpha	89.970216
_cell_angle_beta	89.982723
_cell_angle_gamma	90.020327
loop_
_atom_site_label
_atom_site_type_symbol
_atom_site_fract_x
_atom_site_fract_y
_atom_site_fract_z
Zn1	Zn	1.125081	-0.312562	-0.443789
Zn2	Zn	1.124994	-0.443837	-0.312520
Zn3	Zn	1.002014	-0.312583	-0.312542
Zn4	Zn	1.001984	-0.443784	-0.443749
O5	O	1.063519	-0.378191	-0.378150
O6	O	1.228054	-0.329989	-0.426384
O7	O	1.108657	-0.426457	-0.202676
O8	O	1.018388	-0.202733	-0.329978
O9	O	1.227990	-0.426436	-0.329941
O10	O	1.108805	-0.202718	-0.426405
O11	O	1.018304	-0.330025	-0.202692
O12	O	0.899026	-0.329974	-0.329939
O13	O	1.018337	-0.426346	-0.553601
O14	O	0.899004	-0.426366	-0.426336
O15	O	1.108776	-0.329938	-0.553631
O16	O	1.108628	-0.553676	-0.329902
O17	O	1.018253	-0.553638	-0.426315
C18	C	0.872312	-0.378167	-0.378136
C19	C	0.790513	-0.378176	-0.378149
C20	C	1.063448	-0.582139	-0.378119
C21	C	1.063485	-0.669389	-0.378131
C22	C	1.110591	-0.710373	-0.327983
C23	C	1.110627	-0.792354	-0.328003
C24	C	1.063552	-0.833348	-0.378168
C25	C	1.016444	-0.792358	-0.428322
C26	C	1.016412	-0.710379	-0.428305
C27	C	1.016512	-0.963228	-0.428352
C28	C	1.016543	-1.045213	-0.428368
C29	C	1.110727	-1.045203	-0.328049
C30	C	1.110695	-0.963224	-0.328033
C31	C	1.063585	-0.922239	-0.378186
C32	C	0.602352	-0.328059	-0.428446
C33	C	0.525493	-0.328066	-0.428449
C34	C	0.525437	-0.428345	-0.327868
C35	C	0.602295	-0.428334	-0.327862
C36	C	0.640750	-0.378192	-0.378155
C37	C	0.487034	-0.378210	-0.378164
C38	C	0.403700	-0.378218	-0.378166
C39	C	0.724089	-0.378183	-0.378152
C40	C	1.255471	-0.378216	-0.378164
C41	C	1.337270	-0.378227	-0.378170
C42	C	1.063563	-0.378133	-0.582894
C43	C	1.063582	-0.378109	-0.670144
C44	C	1.063610	-0.173447	-0.378199
C45	C	1.063649	-0.086197	-0.378219
C46	C	1.110675	-0.327905	-0.711151
C47	C	1.110684	-0.327879	-0.793131
C48	C	1.063603	-0.378061	-0.834104
C49	C	1.016504	-0.428267	-0.793091
C50	C	1.016492	-0.428289	-0.711112
C51	C	1.016534	-0.428220	-0.963961
C52	C	1.016547	-0.428200	-1.045946
C53	C	1.110726	-0.327810	-1.045981
C54	C	1.110714	-0.327831	-0.964002
C55	C	1.063616	-0.378039	-0.922995
C56	C	1.063517	-0.378192	-0.174202
C57	C	1.063640	-0.377996	-0.086953
H58	H	1.148985	-0.825719	-0.287167
C59	C	0.644654	-0.272897	-0.483759
C60	C	0.697506	-0.306974	-0.545327
C61	C	0.739807	-0.251808	-0.600639
C62	C	0.729256	-0.162565	-0.594383
C63	C	0.676401	-0.128484	-0.532812
C64	C	0.634101	-0.183650	-0.477501
H65	H	0.705319	-0.373041	-0.549961
H66	H	0.778933	-0.277038	-0.646218
H67	H	0.760569	-0.121728	-0.635328
H68	H	0.668589	-0.062417	-0.528179
H69	H	0.594975	-0.158420	-0.431922
C70	C	1.162466	-0.272702	-0.666085
C71	C	1.156500	-0.183462	-0.677378
C72	C	1.208290	-0.128256	-0.632314
C73	C	1.266047	-0.162290	-0.575958
C74	C	1.272016	-0.251535	-0.564662
C75	C	1.220226	-0.306741	-0.609726
H76	H	1.113742	-0.158264	-0.719099
H77	H	1.203871	-0.062191	-0.640676
H78	H	1.304385	-0.121423	-0.542599
H79	H	1.314774	-0.276734	-0.522941
H80	H	1.224645	-0.372807	-0.601364
H81	H	0.978208	-0.469061	-1.079303
H82	H	0.978137	-0.469162	-0.677725
C83	C	0.964774	-1.090309	-0.483563
C84	C	0.964815	-1.180483	-0.483582
C85	C	0.913051	-1.225579	-0.538783
C86	C	0.861245	-1.180502	-0.593964
C87	C	0.861203	-1.090323	-0.593946
C88	C	0.912967	-1.045227	-0.538746
H89	H	1.003166	-1.213856	-0.442732
H90	H	0.913083	-1.292336	-0.538795
H91	H	0.822926	-1.213885	-0.634826
H92	H	0.822851	-1.056950	-0.634796
H93	H	0.912935	-0.978470	-0.538733
H94	H	0.494233	-0.287241	-0.469399
H95	H	0.494118	-0.469170	-0.286921
H96	H	0.633559	-0.469159	-0.286905
C97	C	1.162376	-0.665284	-0.272800
C98	C	1.220113	-0.608853	-0.306858
C99	C	1.271902	-0.563766	-0.251676
C100	C	1.265953	-0.575110	-0.162435
C101	C	1.208214	-0.631543	-0.128373
C102	C	1.156425	-0.676630	-0.183555
H103	H	1.224518	-0.600453	-0.372923
H104	H	1.314644	-0.521990	-0.276891
H105	H	1.304290	-0.541734	-0.121586
H106	H	1.203808	-0.639943	-0.062308
H107	H	1.113683	-0.718406	-0.158340
H108	H	1.149034	-0.286999	-0.826516
C109	C	1.162504	-0.272632	-0.918932
C110	C	1.156541	-0.183390	-0.930221
C111	C	1.208331	-0.128188	-0.885152
C112	C	1.266084	-0.162227	-0.828794
C113	C	1.272050	-0.251473	-0.817502
C114	C	1.220260	-0.306675	-0.862571
H115	H	1.113786	-0.158189	-0.971943
H116	H	1.203914	-0.062122	-0.893512
H117	H	1.304422	-0.121363	-0.795431
H118	H	1.314805	-0.276674	-0.775780
H119	H	1.224677	-0.372741	-0.854212
H120	H	0.978171	-0.469092	-0.930576
C121	C	1.162533	-0.272579	-1.091084
C122	C	1.162548	-0.272547	-1.181258
C123	C	1.214357	-0.217322	-1.226365
C124	C	1.266151	-0.162129	-1.181299
C125	C	1.266138	-0.162158	-1.091120
C126	C	1.214329	-0.217383	-1.046013
H127	H	1.124205	-0.313406	-1.214623
H128	H	1.214366	-0.217300	-1.293122
H129	H	1.304503	-0.121248	-1.214690
H130	H	1.304481	-0.121299	-1.057755
H131	H	1.214320	-0.217405	-0.979256
C132	C	0.964661	-0.837452	-0.483505
C133	C	0.880999	-0.826252	-0.477020
C134	C	0.829214	-0.871344	-0.532202
C135	C	0.861091	-0.927636	-0.593868
C136	C	0.944758	-0.938839	-0.600355
C137	C	0.996543	-0.893746	-0.545173
H138	H	0.857397	-0.784579	-0.431369
H139	H	0.767278	-0.863051	-0.527400
H140	H	0.822757	-0.961016	-0.634717
H141	H	0.968359	-0.980512	-0.646006
H142	H	1.058479	-0.902039	-0.549975
C143	C	0.964725	-0.483476	-0.838164
C144	C	0.970700	-0.572715	-0.826867
C145	C	0.918926	-0.627930	-0.871941
C146	C	0.861177	-0.593906	-0.928313
C147	C	0.855199	-0.504662	-0.939613
C148	C	0.906973	-0.449447	-0.894538
H149	H	1.013452	-0.597906	-0.785135
H150	H	0.923352	-0.693994	-0.863576
H151	H	0.822851	-0.634779	-0.961679
H152	H	0.812447	-0.479471	-0.981345
H153	H	0.902547	-0.383383	-0.902904
C154	C	1.162476	-0.918130	-0.272850
C155	C	1.156525	-0.929470	-0.183609
C156	C	1.208308	-0.884377	-0.128426
C157	C	1.266044	-0.827944	-0.162484
C158	C	1.271998	-0.816602	-0.251729
C159	C	1.220214	-0.861695	-0.306912
H160	H	1.113783	-0.971247	-0.158394
H161	H	1.203900	-0.892774	-0.062361
H162	H	1.304377	-0.794564	-0.121634
H163	H	1.314739	-0.774825	-0.276944
H164	H	1.224622	-0.853298	-0.372977
C165	C	0.964593	-0.665292	-0.483467
C166	C	0.906814	-0.609002	-0.449389
C167	C	0.854996	-0.563915	-0.504556
C168	C	0.860958	-0.575119	-0.593800
C169	C	0.918739	-0.631412	-0.627883
C170	C	0.970557	-0.676498	-0.572717
H171	H	0.902399	-0.600706	-0.383321
H172	H	0.812222	-0.522244	-0.479325
H173	H	0.822599	-0.541743	-0.634638
H174	H	0.923154	-0.639708	-0.693951
H175	H	1.013331	-0.718170	-0.597947
H176	H	1.149088	-1.078576	-0.287216
H177	H	0.978153	-0.929861	-0.469195
