data_functionalizedCrystal
_audit_creation_method	'MofGen! by Chris Wilmer'
_symmetry_space_group_name_H-M	'P1'
_symmetry_Int_Tables_number	1
_symmetry_cell_setting	triclinic
loop_
_symmetry_equiv_pos_as_xyz
  x,y,z
_cell_length_a	11.792254
_cell_length_b	19.188940
_cell_length_c	10.268362
_cell_angle_alpha	89.994279
_cell_angle_beta	89.995475
_cell_angle_gamma	83.673656
loop_
_atom_site_label
_atom_site_type_symbol
_atom_site_fract_x
_atom_site_fract_y
_atom_site_fract_z
O1	O	1.505473	0.095737	-0.108300
O2	O	2.005473	0.595737	0.391700
O3	O	1.174987	0.105590	-0.108303
O4	O	1.674987	0.605590	0.391697
O5	O	1.349761	-0.000937	-0.108292
O6	O	1.849761	0.499063	0.391708
O7	O	1.330698	0.202264	-0.108312
O8	O	1.830698	0.702264	0.391688
O9	O	1.349746	-0.000942	0.108309
O10	O	1.849746	0.499058	0.608309
O11	O	1.174971	0.105586	0.108297
O12	O	1.674971	0.605586	0.608297
O13	O	1.505458	0.095732	0.108300
O14	O	2.005458	0.595732	0.608300
Cu15	Cu	1.340213	0.100659	0.128076
Cu16	Cu	1.840213	0.600659	0.628076
Cu17	Cu	1.340231	0.100664	-0.128079
Cu18	Cu	1.840231	0.600664	0.371921
O19	O	1.330683	0.202260	0.108289
O20	O	1.830683	0.702260	0.608289
C21	C	1.132698	0.104967	-0.000003
C22	C	1.632698	0.604967	0.499997
C23	C	1.006712	0.103109	-0.000004
C24	C	1.506712	0.603109	0.499996
C25	C	0.904398	0.101600	-0.000010
C26	C	1.404398	0.601600	0.499990
C27	C	0.776040	0.099712	-0.000010
C28	C	1.276040	0.599712	0.499990
C29	C	1.349134	-0.026954	0.000008
C30	C	1.849134	0.473046	0.500008
C31	C	1.347276	-0.104469	0.000008
C32	C	1.847276	0.395531	0.500008
C33	C	1.334045	-0.657806	0.118046
C34	C	1.834045	-0.157806	0.618046
C35	C	1.335778	-0.584972	0.118053
C36	C	1.835778	-0.084972	0.618053
C37	C	1.336659	-0.548545	-0.000015
C38	C	1.836659	-0.048545	0.499985
C39	C	1.335776	-0.584956	-0.118098
C40	C	1.835776	-0.084956	0.381902
C41	C	1.334031	-0.657788	-0.118102
C42	C	1.834031	-0.157788	0.381898
N43	N	1.403988	-0.439136	-0.087894
N44	N	1.903988	0.060864	0.412106
N45	N	1.405649	-0.369948	-0.087883
N46	N	1.905649	0.130052	0.412117
C47	C	1.341915	-0.329105	-0.000010
C48	C	1.841915	0.170895	0.499990
N49	N	1.276473	-0.360065	0.087870
N50	N	1.776473	0.139935	0.587870
N51	N	1.274818	-0.429259	0.087862
N52	N	1.774818	0.070741	0.587862
C53	C	1.338551	-0.469570	-0.000024
C54	C	1.838551	0.030430	0.499976
C55	C	1.344670	-0.213727	0.118074
C56	C	1.844670	0.286273	0.618074
C57	C	1.346397	-0.140891	0.118076
C58	C	1.846397	0.359109	0.618076
C59	C	1.346406	-0.140877	-0.118078
C60	C	1.846406	0.359123	0.381922
C61	C	1.344668	-0.213711	-0.118077
C62	C	1.844668	0.286289	0.381923
C63	C	1.343805	-0.250132	0.000003
C64	C	1.843805	0.249868	0.500003
C65	C	1.547747	0.096355	-0.000003
C66	C	2.047747	0.596355	0.499997
C67	C	1.673732	0.098213	-0.000010
C68	C	2.173732	0.598213	0.499990
C69	C	1.331310	0.228277	-0.000014
C70	C	1.831310	0.728277	0.499986
C71	C	1.333168	0.305791	-0.000022
C72	C	1.833168	0.805791	0.499978
N73	N	1.340209	0.100654	0.308242
N74	N	1.840209	0.600654	0.808242
N75	N	1.340244	0.100662	-0.308245
N76	N	1.840244	0.600662	0.191755
C77	C	1.340225	0.100662	0.573912
C78	C	1.840225	0.600662	1.073912
C79	C	1.340212	0.100660	0.426075
C80	C	1.840212	0.600660	0.926075
H81	H	1.333341	-0.687455	0.214195
H82	H	1.833341	-0.187455	0.714195
C83	C	1.333262	-0.697417	-0.246204
C84	C	1.833262	-0.197417	0.253796
C85	C	1.429867	-0.746720	-0.253098
C86	C	1.929867	-0.246720	0.246902
C87	C	1.429191	-0.783246	-0.371080
C88	C	1.929191	-0.283246	0.128920
H89	H	1.334087	-0.665376	-0.316630
H90	H	1.834087	-0.165376	0.183370
H91	H	1.266448	-0.720802	-0.251121
H92	H	1.766448	-0.220802	0.248879
H93	H	1.496664	-0.723336	-0.248194
H94	H	1.996664	-0.223336	0.251806
H95	H	1.429062	-0.778775	-0.182699
H96	H	1.929062	-0.278775	0.317301
H97	H	1.362377	-0.806631	-0.375997
H98	H	1.862377	-0.306631	0.124003
H99	H	1.430013	-0.751200	-0.441496
H100	H	1.930013	-0.251200	0.058504
H101	H	1.494730	-0.816707	-0.375768
H102	H	1.994730	-0.316707	0.124232
C103	C	1.347090	-0.101256	-0.246204
C104	C	1.847090	0.398744	0.253796
C105	C	1.250442	-0.051981	-0.253027
C106	C	1.750442	0.448019	0.246973
C107	C	1.250993	-0.015469	-0.371047
C108	C	1.750993	0.484531	0.128953
H109	H	1.346236	-0.133308	-0.316597
H110	H	1.846236	0.366692	0.183403
H111	H	1.413876	-0.077848	-0.251229
H112	H	1.913876	0.422152	0.248771
H113	H	1.183673	-0.075388	-0.248015
H114	H	1.683673	0.424612	0.251985
H115	H	1.251275	-0.019915	-0.182662
H116	H	1.751275	0.480085	0.317338
H117	H	1.317779	0.007939	-0.376072
H118	H	1.817779	0.507939	0.123928
H119	H	1.250142	-0.047526	-0.441430
H120	H	1.750142	0.452474	0.058570
H121	H	1.185425	0.017972	-0.375687
H122	H	1.685425	0.517972	0.124313
C123	C	1.343663	-0.253144	0.246404
C124	C	1.843663	0.246856	0.746404
C125	C	1.344759	-0.205668	0.349809
C126	C	1.844759	0.294332	0.849809
C127	C	1.343815	-0.241949	0.468046
C128	C	1.843815	0.258051	0.968046
H129	H	1.409134	-0.286627	0.251498
H130	H	1.909134	0.213373	0.751498
H131	H	1.276789	-0.276470	0.251380
H132	H	1.776789	0.223530	0.751380
H133	H	1.411626	-0.182353	0.344836
H134	H	1.911626	0.317647	0.844836
H135	H	1.279293	-0.172183	0.344759
H136	H	1.779293	0.327817	0.844759
H137	H	1.276942	-0.265275	0.473021
H138	H	1.776942	0.234725	0.973021
H139	H	1.409288	-0.275431	0.473126
H140	H	1.909288	0.224569	0.973126
H141	H	1.344548	-0.209741	0.538220
H142	H	1.844548	0.290259	1.038220
C143	C	1.347528	-0.101287	0.246175
C144	C	1.847528	0.398713	0.746175
C145	C	1.446132	-0.066938	0.253042
C146	C	1.946132	0.433062	0.753042
C147	C	1.447207	-0.030439	0.371020
C148	C	1.947207	0.469561	0.871020
H149	H	1.346827	-0.133335	0.316605
H150	H	1.846827	0.366665	0.816605
H151	H	1.282073	-0.067769	0.251104
H152	H	1.782073	0.432231	0.751104
H153	H	1.511570	-0.100453	0.248126
H154	H	2.011570	0.399547	0.748126
H155	H	1.446854	-0.034879	0.182640
H156	H	1.946854	0.465121	0.682640
H157	H	1.381752	0.003079	0.375949
H158	H	1.881752	0.503079	0.875949
H159	H	1.446503	-0.062492	0.441440
H160	H	1.946503	0.437508	0.941440
H161	H	1.514102	-0.007124	0.375689
H162	H	2.014102	0.492876	0.875689
C163	C	1.336765	-0.545566	0.246384
C164	C	1.836765	-0.045566	0.746384
C165	C	1.335649	-0.593052	0.349790
C166	C	1.835649	-0.093052	0.849790
C167	C	1.336562	-0.556779	0.468025
C168	C	1.836562	-0.056779	0.968025
H169	H	1.271289	-0.512085	0.251467
H170	H	1.771289	-0.012085	0.751467
H171	H	1.403634	-0.522238	0.251369
H172	H	1.903634	-0.022238	0.751369
H173	H	1.268787	-0.616368	0.344807
H174	H	1.768787	-0.116368	0.844807
H175	H	1.401120	-0.626533	0.344749
H176	H	1.901120	-0.126533	0.844749
H177	H	1.403432	-0.533451	0.473010
H178	H	1.903432	-0.033451	0.973010
H179	H	1.271086	-0.523300	0.473095
H180	H	1.771086	-0.023300	0.973095
H181	H	1.335816	-0.588994	0.538200
H182	H	1.835816	-0.088994	1.038200
C183	C	1.336772	-0.545287	-0.246152
C184	C	1.836772	-0.045287	0.253848
C185	C	1.338510	-0.473713	-0.220879
C186	C	1.838510	0.026287	0.279121
C187	C	1.339427	-0.437150	-0.338814
C188	C	1.839427	0.062850	0.161186
H189	H	1.270330	-0.552069	-0.294742
H190	H	1.770330	-0.052069	0.205258
H191	H	1.402675	-0.562249	-0.294698
H192	H	1.902675	-0.062249	0.205302
H193	H	1.272614	-0.456757	-0.172354
H194	H	1.772614	0.043243	0.327646
H195	H	1.404948	-0.466910	-0.172308
H196	H	1.904948	0.033090	0.327692
H197	H	1.405330	-0.454111	-0.387361
H198	H	1.905330	0.045889	0.112639
H199	H	1.272984	-0.443937	-0.387396
H200	H	1.772984	0.056063	0.112604
H201	H	1.340617	-0.388584	-0.321683
H202	H	1.840617	0.111416	0.178317
H203	H	1.343962	-0.243351	-0.214221
H204	H	1.843962	0.256649	0.285779
