data_functionalizedCrystal
_audit_creation_method	'MofGen! by Chris Wilmer'
_symmetry_space_group_name_H-M	'P1'
_symmetry_Int_Tables_number	1
_symmetry_cell_setting	triclinic
loop_
_symmetry_equiv_pos_as_xyz
  x,y,z
_cell_length_a	12.759401
_cell_length_b	18.215405
_cell_length_c	12.759393
_cell_angle_alpha	90.037569
_cell_angle_beta	90.018496
_cell_angle_gamma	90.025046
loop_
_atom_site_label
_atom_site_type_symbol
_atom_site_fract_x
_atom_site_fract_y
_atom_site_fract_z
Zn1	Zn	1.606181	-0.292938	0.593937
Zn2	Zn	1.606044	-0.416024	0.418239
Zn3	Zn	1.430483	-0.292976	0.418277
Zn4	Zn	1.430440	-0.415967	0.593881
O5	O	1.518287	-0.354476	0.506084
O6	O	1.753184	-0.309273	0.570639
O7	O	1.582716	-0.399741	0.271223
O8	O	1.453865	-0.189987	0.441618
O9	O	1.753083	-0.399704	0.441554
O10	O	1.582949	-0.189959	0.570675
O11	O	1.453732	-0.309339	0.271251
O12	O	1.283456	-0.309284	0.441563
O13	O	1.453792	-0.399607	0.740909
O14	O	1.283425	-0.399645	0.570578
O15	O	1.582908	-0.309218	0.740951
O16	O	1.582675	-0.519001	0.441499
O17	O	1.453660	-0.518959	0.570542
C18	C	1.245320	-0.354463	0.506069
C19	C	1.128543	-0.354475	0.506088
C20	C	1.518176	-0.545683	0.506033
C21	C	1.518225	-0.627482	0.506047
C22	C	1.073692	-0.401601	0.573155
C23	C	0.963968	-0.401610	0.573167
C24	C	0.963956	-0.307365	0.439035
C25	C	1.073678	-0.307353	0.439029
C26	C	1.073699	-0.456015	0.650592
C27	C	0.963975	-0.456025	0.650604
C28	C	1.585561	-0.815673	0.438977
C29	C	1.585608	-0.892531	0.439003
C30	C	1.451148	-0.892528	0.573265
C31	C	1.451107	-0.815671	0.573244
C32	C	1.518312	-0.777245	0.506094
C33	C	1.518400	-0.930961	0.506141
C34	C	1.518450	-1.014295	0.506169
C35	C	1.518263	-0.693906	0.506067
C36	C	1.792320	-0.354491	0.506098
C37	C	1.909097	-0.354497	0.506105
C38	C	1.518361	-0.354402	0.780117
C39	C	1.518392	-0.354370	0.896894
C40	C	1.518427	-0.162523	0.506157
C41	C	1.518487	-0.080724	0.506189
C42	C	1.518274	-0.354497	0.233116
C43	C	1.518447	-0.354322	0.116340
C44	C	1.585632	-0.307300	0.951779
C45	C	1.585657	-0.307274	1.061503
C46	C	1.451199	-0.401394	1.061447
C47	C	1.451170	-0.401416	0.951725
C48	C	1.663263	-0.252963	0.951813
C49	C	1.663288	-0.252936	1.061537
H50	H	1.118333	-0.268973	0.384424
C51	C	1.399805	-0.791931	0.751097
C52	C	1.377179	-0.773426	0.647025
H53	H	1.354164	-0.765853	0.796643
H54	H	1.470371	-0.779284	0.766524
H55	H	1.390204	-0.843204	0.760705
H56	H	1.386787	-0.722153	0.637415
H57	H	1.306596	-0.786068	0.631593
H58	H	0.919271	-0.268999	0.384439
H59	H	1.396467	-0.439695	1.106104
C60	C	1.399853	-0.526030	0.917876
C61	C	1.377242	-0.453148	0.891397
H62	H	1.354210	-0.557965	0.880628
H63	H	1.390254	-0.532743	0.991062
H64	H	1.470427	-0.536810	0.899878
H65	H	1.306670	-0.442366	0.909402
H66	H	1.386832	-0.446432	0.818195
C67	C	1.028625	-0.423050	0.827141
C68	C	1.113955	-0.435491	0.760484
H69	H	1.053480	-0.410374	0.894979
H70	H	0.987258	-0.466306	0.831455
H71	H	0.987277	-0.384022	0.800202
H72	H	1.155299	-0.474522	0.787420
H73	H	1.155340	-0.392230	0.756174
C74	C	1.535185	-0.192722	1.169255
C75	C	1.624005	-0.179833	1.107513
H76	H	1.510925	-0.147592	1.197631
H77	H	1.552710	-0.225270	1.224677
H78	H	1.481675	-0.214033	1.127320
H79	H	1.677518	-0.158526	1.149450
H80	H	1.606484	-0.147272	1.052083
C81	C	1.533967	-0.157263	0.948225
C82	C	1.633886	-0.176030	0.911641
H83	H	1.515829	-0.109772	0.923418
H84	H	1.533994	-0.157247	1.022666
H85	H	1.484312	-0.192040	0.923384
H86	H	1.683542	-0.141257	0.936488
H87	H	1.633867	-0.176041	0.837185
H88	H	0.929982	-0.435680	0.727959
C89	C	1.037850	-0.577053	0.585097
C90	C	1.119609	-0.529065	0.611057
H91	H	1.066196	-0.622151	0.560694
H92	H	0.995945	-0.555713	0.531660
H93	H	0.995970	-0.585849	0.645340
H94	H	1.161484	-0.520265	0.550812
H95	H	1.161531	-0.550410	0.664498
H96	H	1.744655	-0.268201	1.091313
H97	H	1.740530	-0.273395	0.917774
C98	C	1.273229	-0.916256	0.624295
C99	C	1.377271	-0.934765	0.647070
H100	H	1.227620	-0.942326	0.669865
H101	H	1.257907	-0.928906	0.553704
H102	H	1.263597	-0.864980	0.633890
H103	H	1.386904	-0.986039	0.637468
H104	H	1.392597	-0.922119	0.717678
H105	H	0.934165	-0.513008	0.628663
H106	H	1.640370	-0.923816	0.384351
H107	H	1.640285	-0.784388	0.384302
