data_functionalizedCrystal
_audit_creation_method	'MofGen! by Chris Wilmer'
_symmetry_space_group_name_H-M	'P1'
_symmetry_Int_Tables_number	1
_symmetry_cell_setting	triclinic
loop_
_symmetry_equiv_pos_as_xyz
  x,y,z
_cell_length_a	12.837943
_cell_length_b	19.188930
_cell_length_c	11.295483
_cell_angle_alpha	94.076039
_cell_angle_beta	85.461227
_cell_angle_gamma	88.986861
loop_
_atom_site_label
_atom_site_type_symbol
_atom_site_fract_x
_atom_site_fract_y
_atom_site_fract_z
O1	O	1.381633	0.177215	-0.099031
O2	O	1.881633	0.677215	0.400969
O3	O	1.079869	0.168252	-0.099037
O4	O	1.579869	0.668252	0.400963
O5	O	1.239458	0.071676	-0.099010
O6	O	1.739458	0.571676	0.400990
O7	O	1.222044	0.273791	-0.099057
O8	O	1.722044	0.773791	0.400943
O9	O	1.225441	0.080144	0.099038
O10	O	1.725441	0.580144	0.599038
O11	O	1.065852	0.176720	0.099012
O12	O	1.565852	0.676720	0.599012
O13	O	1.367616	0.185683	0.099017
O14	O	1.867616	0.685683	0.599017
Cu15	Cu	1.215454	0.181975	0.117098
Cu16	Cu	1.715454	0.681975	0.617098
Cu17	Cu	1.232031	0.171960	-0.117117
Cu18	Cu	1.732031	0.671960	0.382883
O19	O	1.208027	0.282259	0.098991
O20	O	1.708027	0.782259	0.598991
C21	C	1.034253	0.169458	-0.000013
C22	C	1.534253	0.669458	0.499987
C23	C	0.919217	0.160427	-0.000014
C24	C	1.419217	0.660427	0.499986
C25	C	1.231885	0.049861	0.000017
C26	C	1.731885	0.549861	0.500017
C27	C	1.230191	-0.027760	0.000027
C28	C	1.730191	0.472240	0.500027
C29	C	0.677767	0.268994	-0.000022
C30	C	1.177767	0.768994	0.499978
C31	C	0.569680	0.260512	-0.000022
C32	C	1.069680	0.760512	0.499978
C33	C	0.594953	0.134982	-0.000006
C34	C	1.094953	0.634982	0.499994
C35	C	0.703040	0.143464	-0.000006
C36	C	1.203040	0.643464	0.499994
C37	C	0.744443	0.210472	-0.000016
C38	C	1.244443	0.710472	0.499984
C39	C	0.852533	0.218953	-0.000024
C40	C	1.352533	0.718953	0.499976
C41	C	0.877803	0.093423	0.000001
C42	C	1.377803	0.593423	0.500001
C43	C	0.769716	0.084941	0.000001
C44	C	1.269716	0.584941	0.500001
C45	C	1.323833	-0.066260	0.000035
C46	C	1.823833	0.433740	0.500035
C47	C	1.322244	-0.139194	0.000016
C48	C	1.822244	0.360806	0.500016
C49	C	1.227005	-0.173623	0.000013
C50	C	1.727005	0.326377	0.500013
C51	C	1.133352	-0.135114	-0.000001
C52	C	1.633352	0.364886	0.499999
C53	C	1.134944	-0.062182	0.000006
C54	C	1.634944	0.437818	0.500006
N55	N	1.149437	-0.283739	0.067411
N56	N	1.649437	0.216261	0.567411
N57	N	1.147930	-0.353022	0.067407
N58	N	1.647930	0.146978	0.567407
C59	C	1.222201	-0.393362	-0.000011
C60	C	1.722201	0.106638	0.499989
N61	N	1.298051	-0.361803	-0.067410
N62	N	1.798051	0.138197	0.432590
N63	N	1.299560	-0.292515	-0.067400
N64	N	1.799560	0.207485	0.432600
C65	C	1.225268	-0.252705	0.000005
C66	C	1.725268	0.247295	0.500005
C67	C	1.314126	-0.510946	-0.000026
C68	C	1.814126	-0.010946	0.499974
C69	C	1.312534	-0.583882	-0.000052
C70	C	1.812534	-0.083882	0.499948
C71	C	1.123638	-0.579799	-0.000057
C72	C	1.623638	-0.079799	0.499943
C73	C	1.125234	-0.506866	-0.000043
C74	C	1.625234	-0.006866	0.499957
C75	C	1.220481	-0.472444	-0.000021
C76	C	1.720481	0.027556	0.499979
C77	C	1.413232	0.184477	-0.000009
C78	C	1.913232	0.684477	0.499991
C79	C	1.528268	0.193508	-0.000016
C80	C	2.028268	0.693508	0.499984
C81	C	1.215600	0.304074	-0.000039
C82	C	1.715600	0.804074	0.499961
C83	C	1.217295	0.381694	-0.000057
C84	C	1.717295	0.881694	0.499943
N85	N	1.203803	0.189018	0.281832
N86	N	1.703803	0.689018	0.781832
N87	N	1.243691	0.164912	-0.281852
N88	N	1.743691	0.664912	0.218148
C89	C	1.327566	0.114169	0.531142
C90	C	1.827566	0.614169	1.031142
C91	C	1.318768	0.119497	0.655804
C92	C	1.818768	0.619497	1.155804
C93	C	1.177405	0.204999	0.655821
C94	C	1.677405	0.704999	1.155821
C95	C	1.186202	0.199671	0.531159
C96	C	1.686202	0.699671	1.031159
C97	C	1.261286	0.154255	0.468824
C98	C	1.761286	0.654255	0.968824
C99	C	1.270089	0.148931	0.344159
C100	C	1.770089	0.648931	0.844159
C101	C	1.128721	0.234429	0.344179
C102	C	1.628721	0.734429	0.844179
C103	C	1.119923	0.239757	0.468841
C104	C	1.619923	0.739757	0.968841
H105	H	0.711478	0.323555	-0.000032
H106	H	1.211478	0.823555	0.499968
C107	C	1.408925	0.064945	0.356669
C108	C	1.908925	0.564945	0.856669
C109	C	1.352614	0.099008	0.275637
C110	C	1.852614	0.599008	0.775637
H111	H	1.459868	0.034120	0.314366
H112	H	1.959868	0.534120	0.814366
H113	H	1.442640	0.098569	0.405273
H114	H	1.942640	0.598569	0.905273
H115	H	1.362456	0.039035	0.405310
H116	H	1.862456	0.539035	0.905310
H117	H	1.399083	0.124922	0.227001
H118	H	1.899083	0.624922	0.727001
H119	H	1.318899	0.065379	0.227013
H120	H	1.818899	0.565379	0.727013
H121	H	1.058687	-0.030834	0.000001
H122	H	1.558687	0.469166	0.500001
C123	C	1.492535	-0.051633	-0.101765
C124	C	1.992535	0.448367	0.398235
C125	C	1.428529	-0.028426	0.000044
C126	C	1.928529	0.471574	0.500044
H127	H	1.557166	-0.028271	-0.101762
H128	H	2.057166	0.471729	0.398238
H129	H	1.504980	-0.100573	-0.101758
H130	H	2.004980	0.399427	0.398242
H131	H	1.458869	-0.041783	-0.170822
H132	H	1.958869	0.458217	0.329178
H133	H	1.462191	-0.038281	0.069101
H134	H	1.962191	0.461719	0.569101
H135	H	1.416085	0.020526	0.000047
H136	H	1.916085	0.520526	0.500047
C137	C	0.951846	0.261790	0.305827
C138	C	1.451846	0.761790	0.805827
C139	C	1.055863	0.278497	0.275674
C140	C	1.555863	0.778497	0.775674
H141	H	0.906872	0.289000	0.263538
H142	H	1.406872	0.789000	0.763538
H143	H	0.942248	0.213587	0.285398
H144	H	1.442248	0.713587	0.785398
H145	H	0.935869	0.271463	0.388994
H146	H	1.435869	0.771463	0.888994
H147	H	1.071841	0.268818	0.192508
H148	H	1.571841	0.768818	0.692508
H149	H	1.065465	0.326710	0.296095
H150	H	1.565465	0.826710	0.796095
H151	H	1.372737	0.086854	0.706541
H152	H	1.872737	0.586854	1.206541
H153	H	0.561216	0.080430	0.000101
H154	H	1.061216	0.580430	0.500101
H155	H	1.398501	-0.170548	0.000017
H156	H	1.898501	0.329452	0.500017
C157	C	0.995110	0.235609	0.694259
C158	C	1.495110	0.735609	1.194259
C159	C	1.094867	0.254905	0.724364
C160	C	1.594867	0.754905	1.224364
H161	H	0.944154	0.266415	0.736584
H162	H	1.444154	0.766415	1.236584
H163	H	0.990865	0.238187	0.611109
H164	H	1.490865	0.738187	1.111109
H165	H	0.982652	0.189139	0.714688
H166	H	1.482652	0.689139	1.214688
H167	H	1.107328	0.301373	0.703927
H168	H	1.607328	0.801373	1.203927
H169	H	1.099114	0.252334	0.807532
H170	H	1.599114	0.752334	1.307532
H171	H	1.058789	0.276732	0.519608
H172	H	1.558789	0.776732	1.019608
C173	C	0.615246	0.016200	0.000003
C174	C	1.115246	0.516200	0.500003
C175	C	0.724199	0.011288	0.000005
C176	C	1.224199	0.511288	0.500005
H177	H	0.587151	-0.029273	-0.000004
H178	H	1.087151	0.470727	0.499996
H179	H	0.587462	0.043541	0.069063
H180	H	1.087462	0.543541	0.569063
H181	H	0.597237	0.037652	-0.069065
H182	H	1.097237	0.537652	0.430935
H183	H	0.742208	-0.010160	0.069079
H184	H	1.242208	0.489840	0.569079
H185	H	0.751993	-0.016064	-0.069062
H186	H	1.251993	0.483936	0.430938
H187	H	1.388709	0.077195	0.480388
H188	H	1.888709	0.577195	0.980388
C189	C	1.480263	-0.614143	-0.101840
C190	C	1.980263	-0.114143	0.398160
C191	C	1.415477	-0.626202	-0.000046
C192	C	1.915477	-0.126202	0.499954
H193	H	1.543819	-0.640267	-0.101830
H194	H	2.043819	-0.140267	0.398170
H195	H	1.446092	-0.628205	-0.170899
H196	H	1.946092	-0.128205	0.329101
H197	H	1.494829	-0.565778	-0.101815
H198	H	1.994829	-0.065778	0.398185
H199	H	1.400905	-0.674567	-0.000075
H200	H	1.900905	-0.174567	0.499925
H201	H	1.449655	-0.612144	0.069031
H202	H	1.949655	-0.112144	0.569031
H203	H	0.886241	0.273515	-0.000030
H204	H	1.386241	0.773515	0.499970
H205	H	0.515395	0.308167	-0.000024
H206	H	1.015395	0.808167	0.499976
H207	H	1.055808	-0.163150	-0.000006
H208	H	1.555808	0.336850	0.499994
C209	C	1.021216	0.025786	-0.101806
C210	C	1.521216	0.525786	0.398194
C211	C	0.951097	0.029089	0.000006
C212	C	1.451097	0.529089	0.500006
H213	H	1.066467	-0.013928	-0.101801
H214	H	1.566467	0.486072	0.398199
H215	H	0.983406	0.022136	-0.170853
H216	H	1.483406	0.522136	0.329147
H217	H	1.061342	0.066908	-0.101798
H218	H	1.561342	0.566908	0.398202
H219	H	0.910965	-0.012031	-0.000006
H220	H	1.410965	0.487969	0.499994
H221	H	0.988911	0.032734	0.069071
H222	H	1.488911	0.532734	0.569071
H223	H	1.048980	-0.475518	-0.000042
H224	H	1.548980	0.024482	0.499958
C225	C	1.400441	-0.400957	0.000005
C226	C	1.900441	0.099043	0.500005
C227	C	1.418818	-0.473103	-0.000015
C228	C	1.918818	0.026897	0.499985
H229	H	1.465075	-0.377597	0.000019
H230	H	1.965075	0.122403	0.500019
H231	H	1.366791	-0.391113	-0.069053
H232	H	1.866791	0.108887	0.430947
H233	H	1.357008	-0.385231	0.069076
H234	H	1.857008	0.114769	0.569076
H235	H	1.462246	-0.488830	-0.069090
H236	H	1.962246	0.011170	0.430910
H237	H	1.452484	-0.482952	0.069050
H238	H	1.952484	0.017048	0.569050
C239	C	1.037323	-0.689782	-0.000071
C240	C	1.537323	-0.189782	0.499929
C241	C	1.018948	-0.617635	-0.000064
C242	C	1.518948	-0.117635	0.499936
H243	H	0.972689	-0.713141	-0.000073
H244	H	1.472689	-0.213141	0.499927
H245	H	1.080750	-0.705511	-0.069130
H246	H	1.580750	-0.205511	0.430870
H247	H	1.070978	-0.699622	0.068998
H248	H	1.570978	-0.199622	0.568998
H249	H	0.985300	-0.607795	-0.069138
H250	H	1.485300	-0.107795	0.430862
H251	H	0.975505	-0.601900	0.069002
H252	H	1.475505	-0.101900	0.569002
