data_functionalizedCrystal
_audit_creation_method	'MofGen! by Chris Wilmer'
_symmetry_space_group_name_H-M	'P1'
_symmetry_Int_Tables_number	1
_symmetry_cell_setting	triclinic
loop_
_symmetry_equiv_pos_as_xyz
  x,y,z
_cell_length_a	19.121063
_cell_length_b	18.050590
_cell_length_c	18.050582
_cell_angle_alpha	90.003618
_cell_angle_beta	87.584968
_cell_angle_gamma	87.544963
loop_
_atom_site_label
_atom_site_type_symbol
_atom_site_fract_x
_atom_site_fract_y
_atom_site_fract_z
Zn1	Zn	-0.279904	-1.122668	0.432157
Zn2	Zn	-0.397347	-1.117282	0.313258
Zn3	Zn	-0.279888	-0.998488	0.308020
Zn4	Zn	-0.397291	-0.993141	0.437444
O5	O	-0.338608	-1.057895	0.372720
O6	O	-0.295513	-1.225877	0.416364
O7	O	-0.381783	-1.101508	0.208639
O8	O	-0.181606	-1.019453	0.320082
O9	O	-0.381798	-1.221920	0.329009
O10	O	-0.181618	-1.110688	0.411284
O11	O	-0.295486	-1.014230	0.204791
O12	O	-0.295432	-0.893856	0.325209
O13	O	-0.381703	-1.010340	0.540667
O14	O	-0.381687	-0.889928	0.420297
O15	O	-0.295459	-1.105503	0.536782
O16	O	-0.495624	-1.096323	0.334137
O17	O	-0.495583	-1.005117	0.425376
C18	C	-0.338552	-0.864946	0.372759
C19	C	-0.338546	-0.782400	0.372794
C20	C	-0.521087	-1.049576	0.380915
C21	C	-0.599153	-1.046084	0.384445
C22	C	-0.385578	-0.580829	0.424400
C23	C	-0.321536	-0.534324	0.439792
C24	C	-0.338579	-0.631268	0.372767
C25	C	-0.402652	-0.530690	0.357382
C26	C	-0.338617	-0.485281	0.372742
C27	C	-0.274503	-0.585852	0.388193
C28	C	-0.355662	-0.582220	0.305753
C29	C	-0.291576	-0.535740	0.321118
C30	C	-0.338558	-0.715367	0.372783
C31	C	-0.338631	-0.401184	0.372725
C32	C	-0.635826	-1.091967	0.338640
C33	C	-0.709177	-1.088688	0.341965
C34	C	-0.745853	-1.039522	0.391092
C35	C	-0.709175	-0.993637	0.436902
C36	C	-0.635825	-0.996921	0.433580
C37	C	-0.967322	-1.027234	0.403499
C38	C	-1.040677	-1.023953	0.406816
C39	C	-1.040674	-1.119005	0.311879
C40	C	-0.967323	-1.122281	0.308558
C41	C	-0.930651	-1.076399	0.354371
C42	C	-0.820830	-1.036167	0.394490
C43	C	-0.855676	-1.079758	0.350977
C44	C	-0.155416	-1.066268	0.364509
C45	C	-0.077350	-1.069835	0.361010
C46	C	-0.338577	-1.057926	0.566424
C47	C	-0.338563	-1.057939	0.648969
C48	C	-0.338654	-0.251599	0.372693
C49	C	-0.338649	-0.334145	0.372712
C50	C	-0.338588	-1.057910	0.179767
C51	C	-0.338404	-1.058050	0.097213
C52	C	-0.385399	-1.006230	0.850530
C53	C	-0.402582	-1.073210	0.900673
C54	C	-0.338510	-1.057978	0.800097
C55	C	-0.321307	-0.991036	0.897034
C56	C	-0.338459	-1.058009	0.946080
C57	C	-0.355726	-1.124992	0.849155
C58	C	-0.274422	-1.042773	0.845511
C59	C	-0.291581	-1.109801	0.895631
C60	C	-0.338541	-1.057958	0.716000
C61	C	-0.338428	-1.058036	1.030175
H62	H	-0.425256	-0.600701	0.468106
H63	H	-0.251801	-0.516011	0.277440
C64	C	-0.439032	-0.947163	0.823676
C65	C	-0.414530	-0.883267	0.773791
C66	C	-0.468164	-0.824205	0.746936
C67	C	-0.546300	-0.829038	0.769966
C68	C	-0.570805	-0.892936	0.819854
C69	C	-0.517171	-0.951998	0.846709
H70	H	-0.356686	-0.879687	0.756741
H71	H	-0.450023	-0.776903	0.710006
H72	H	-0.586003	-0.785316	0.750087
H73	H	-0.628649	-0.896516	0.836904
H74	H	-0.535312	-0.999300	0.883639
C75	C	-0.237988	-1.169003	0.922301
C76	C	-0.160043	-1.164982	0.898129
C77	C	-0.106456	-1.224187	0.924801
C78	C	-0.130815	-1.287414	0.975645
C79	C	-0.208764	-1.291438	0.999820
C80	C	-0.262351	-1.232232	0.973147
H81	H	-0.142008	-1.118175	0.860489
H82	H	-0.048753	-1.221208	0.906905
H83	H	-0.091147	-1.331241	0.995389
H84	H	-0.226799	-1.338244	1.037460
H85	H	-0.320054	-1.235211	0.991043
C86	C	-1.081022	-0.969868	0.460860
C87	C	-1.040686	-0.919399	0.511254
C88	C	-1.081032	-0.865316	0.565293
C89	C	-1.161714	-0.861701	0.568938
C90	C	-1.202054	-0.912172	0.518543
C91	C	-1.161708	-0.966255	0.464504
H92	H	-0.980957	-0.922074	0.508556
H93	H	-1.051169	-0.827955	0.602598
H94	H	-1.191580	-0.821666	0.608941
H95	H	-1.261784	-0.909498	0.521240
H96	H	-1.191571	-1.003617	0.427198
C97	C	-0.302029	-0.505862	0.516333
C98	C	-0.230973	-0.529643	0.547951
C99	C	-0.211470	-0.501183	0.624493
C100	C	-0.263023	-0.448941	0.669416
C101	C	-0.334084	-0.425157	0.637799
C102	C	-0.353587	-0.453617	0.561257
H103	H	-0.192806	-0.568318	0.514696
H104	H	-0.158866	-0.518790	0.647898
H105	H	-0.248586	-0.427873	0.726077
H106	H	-0.372251	-0.386482	0.671054
H107	H	-0.406191	-0.436010	0.537852
H108	H	-0.306779	-0.934410	0.918092
C109	C	-0.926993	-0.976763	0.453894
C110	C	-0.937131	-0.891887	0.448246
C111	C	-0.896801	-0.841414	0.498646
C112	C	-0.846333	-0.875815	0.554694
C113	C	-0.836193	-0.960695	0.560345
C114	C	-0.876523	-1.011169	0.509944
H115	H	-0.974492	-0.866417	0.406754
H116	H	-0.904308	-0.778580	0.494463
H117	H	-0.816479	-0.838452	0.592004
H118	H	-0.798832	-0.986165	0.601837
H119	H	-0.869016	-1.074003	0.514128
C120	C	-0.749514	-1.139160	0.291574
C121	C	-0.799993	-1.104762	0.235535
C122	C	-0.840327	-1.155238	0.185142
C123	C	-0.830182	-1.240113	0.190787
C124	C	-0.779700	-1.274516	0.246828
C125	C	-0.739366	-1.224039	0.297221
H126	H	-0.807505	-1.041928	0.231354
H127	H	-0.877697	-1.129770	0.143657
H128	H	-0.860040	-1.277479	0.153483
H129	H	-0.772188	-1.337349	0.251009
H130	H	-0.701997	-1.249507	0.338707
C131	C	-0.201300	-0.618328	0.405844
C132	C	-0.187760	-0.702953	0.409146
C133	C	-0.114558	-0.735430	0.426796
C134	C	-0.054897	-0.683282	0.441143
C135	C	-0.068436	-0.598651	0.437841
C136	C	-0.141637	-0.566174	0.420191
H137	H	-0.231926	-0.741561	0.398525
H138	H	-0.104537	-0.798079	0.429240
H139	H	-0.000709	-0.707323	0.454208
H140	H	-0.024269	-0.560043	0.448462
H141	H	-0.151659	-0.503525	0.417747
H142	H	-0.220262	-1.029873	0.821360
H143	H	-0.370118	-0.603299	0.249109
H144	H	-0.825812	-1.119792	0.310980
H145	H	-0.456758	-1.086090	0.924808
H146	H	-0.739042	-0.953608	0.476905
H147	H	-0.456821	-0.506551	0.344382
H148	H	-0.937463	-1.162315	0.268555
H149	H	-0.605970	-1.132000	0.298632
C150	C	-1.081014	-1.169478	0.261493
C151	C	-1.161696	-1.165874	0.265144
C152	C	-1.202036	-1.216353	0.214758
C153	C	-1.161694	-1.270436	0.160722
C154	C	-1.081008	-1.274042	0.157069
C155	C	-1.040668	-1.223563	0.207455
H156	H	-1.191564	-1.125837	0.305147
H157	H	-1.261765	-1.213683	0.217462
H158	H	-1.191556	-1.307803	0.123423
H159	H	-1.051140	-1.314079	0.117066
H160	H	-0.980938	-1.226233	0.204750
C161	C	-0.595481	-0.946447	0.483964
C162	C	-0.605612	-0.861571	0.478311
C163	C	-0.565268	-0.811098	0.528699
C164	C	-0.514792	-0.845501	0.584739
C165	C	-0.504658	-0.930381	0.590393
C166	C	-0.545003	-0.980854	0.540006
H167	H	-0.642979	-0.836100	0.436825
H168	H	-0.572770	-0.748264	0.524513
H169	H	-0.484927	-0.808138	0.622038
H170	H	-0.467291	-0.955852	0.631879
H171	H	-0.537500	-1.043688	0.544192
C172	C	-0.375436	-1.201510	0.820842
C173	C	-0.379131	-1.215624	0.736989
C174	C	-0.398839	-1.292141	0.708674
C175	C	-0.414852	-1.354544	0.764213
C176	C	-0.411158	-1.340432	0.848071
C177	C	-0.391450	-1.263915	0.876386
H178	H	-0.367276	-1.169428	0.695871
H179	H	-0.401574	-1.302588	0.646596
H180	H	-0.429441	-1.411186	0.743253
H181	H	-0.423012	-1.386628	0.889189
H182	H	-0.388715	-1.253469	0.938464
H183	H	-0.850700	-0.996135	0.434488
