data_functionalizedCrystal
_audit_creation_method	'MofGen! by Chris Wilmer'
_symmetry_space_group_name_H-M	'P1'
_symmetry_Int_Tables_number	1
_symmetry_cell_setting	triclinic
loop_
_symmetry_equiv_pos_as_xyz
  x,y,z
_cell_length_a	21.395362
_cell_length_b	18.101397
_cell_length_c	21.395356
_cell_angle_alpha	89.968599
_cell_angle_beta	90.035770
_cell_angle_gamma	89.959012
loop_
_atom_site_label
_atom_site_type_symbol
_atom_site_fract_x
_atom_site_fract_y
_atom_site_fract_z
Zn1	Zn	0.957833	0.294550	0.354560
Zn2	Zn	0.957761	0.418388	0.249772
Zn3	Zn	0.853063	0.294599	0.249762
Zn4	Zn	0.853028	0.418388	0.354477
O5	O	0.905421	0.356481	0.302143
O6	O	1.045502	0.310956	0.340699
O7	O	0.943857	0.401988	0.162093
O8	O	0.867006	0.190960	0.263694
O9	O	1.045448	0.401940	0.263712
O10	O	0.943980	0.190923	0.340689
O11	O	0.866936	0.311041	0.162085
O12	O	0.765381	0.311041	0.263613
O13	O	0.866946	0.401940	0.442166
O14	O	0.765354	0.401988	0.340547
O15	O	0.943946	0.310956	0.442227
O16	O	0.943823	0.522021	0.263631
O17	O	0.866876	0.522021	0.340557
C18	C	0.742634	0.356521	0.302070
C19	C	0.672992	0.356555	0.302054
C20	C	0.640282	0.403974	0.342053
C21	C	0.574847	0.403956	0.342081
C22	C	0.542124	0.356527	0.302099
C23	C	0.574842	0.309098	0.262096
C24	C	0.640276	0.309113	0.262074
C25	C	0.438407	0.350569	0.245694
C26	C	0.372974	0.350560	0.245715
C27	C	0.340303	0.356478	0.302168
C28	C	0.373074	0.362421	0.358601
C29	C	0.438508	0.362436	0.358579
C30	C	0.471172	0.356505	0.302119
C31	C	0.236641	0.403880	0.342201
C32	C	0.171204	0.403857	0.342230
C33	C	0.171201	0.309003	0.262239
C34	C	0.236636	0.309023	0.262216
C35	C	0.269352	0.356465	0.302196
C36	C	0.905354	0.548892	0.302100
C37	C	0.905383	0.631206	0.302103
C38	C	0.905443	0.930297	0.302141
C39	C	0.953723	0.898941	0.253613
C40	C	0.953896	0.813322	0.253744
C41	C	0.905413	0.781914	0.302121
C42	C	0.923307	0.812921	0.368168
C43	C	0.923675	0.898565	0.367898
C44	C	0.839142	0.898826	0.285195
C45	C	0.839476	0.813177	0.283727
C46	C	0.905395	0.698055	0.302114
C47	C	0.905462	1.014156	0.302152
C48	C	1.068845	0.356443	0.302216
C49	C	1.138486	0.356426	0.302247
C50	C	0.905450	0.356442	0.465566
C51	C	0.905462	0.356426	0.535208
C52	C	0.905488	1.163319	0.302183
C53	C	0.905473	1.081005	0.302159
C54	C	0.905429	0.356467	0.139355
C55	C	0.905538	0.356275	0.069715
C56	C	0.945585	0.403627	1.037009
C57	C	0.945574	0.403650	0.971573
C58	C	0.905522	0.356308	0.938846
C59	C	0.865467	0.308953	0.971560
C60	C	0.865475	0.308936	1.036994
C61	C	0.900591	0.289615	0.835195
C62	C	0.900587	0.289630	0.769762
C63	C	0.905494	0.356361	0.737025
C64	C	0.910417	0.423078	0.769730
C65	C	0.910425	0.423061	0.835164
C66	C	0.905509	0.356322	0.867894
C67	C	0.945531	0.403743	0.633367
C68	C	0.945516	0.403767	0.567930
C69	C	0.865411	0.309063	0.567918
C70	C	0.865424	0.309045	0.633353
C71	C	0.905487	0.356384	0.666074
H72	H	0.548195	0.270480	0.229543
C73	C	0.676259	0.256954	0.218069
H74	H	0.647402	0.228705	0.194258
H75	H	0.701836	0.224733	0.242079
H76	H	0.701734	0.285252	0.190712
C77	C	0.788268	0.784310	0.327977
H78	H	0.806514	0.752677	0.358388
H79	H	0.758042	0.757617	0.304589
H80	H	0.768665	0.824831	0.348266
C81	C	0.821365	0.256967	0.669335
H82	H	0.827099	0.263745	0.712992
H83	H	0.830541	0.207204	0.658636
H84	H	0.779264	0.267839	0.658581
C85	C	0.474556	0.368969	0.420647
H86	H	0.518204	0.368136	0.412546
H87	H	0.463892	0.328726	0.447074
H88	H	0.463819	0.414090	0.440611
H89	H	0.346297	0.345725	0.199764
H90	H	0.832855	0.270408	0.944909
C91	C	0.989596	0.455813	0.669362
H92	H	1.013441	0.484026	0.640509
H93	H	1.016910	0.427466	0.694906
H94	H	0.965618	0.488084	0.694870
C95	C	0.821425	0.256841	1.072972
H96	H	0.797571	0.228646	1.044112
H97	H	0.794119	0.285169	1.098480
H98	H	0.845415	0.224557	1.098515
C99	C	0.337145	0.368929	0.420702
H100	H	0.293482	0.368061	0.412637
H101	H	0.347852	0.414048	0.440662
H102	H	0.347929	0.328683	0.447117
C103	C	0.538855	0.456120	0.386079
H104	H	0.495199	0.449313	0.380368
H105	H	0.549531	0.505865	0.376823
H106	H	0.549624	0.445352	0.428194
H107	H	0.465002	0.345746	0.199720
H108	H	0.942702	0.792361	0.204772
C109	C	0.790566	0.926116	0.333003
H110	H	0.810556	0.956554	0.363138
H111	H	0.772090	0.884876	0.353298
H112	H	0.759097	0.953738	0.312085
H113	H	0.972137	0.918470	0.382250
H114	H	0.978124	0.442334	0.541302
C115	C	0.938846	0.926927	0.187269
H116	H	0.903054	0.957978	0.188566
H117	H	0.930844	0.886035	0.160639
H118	H	0.973480	0.954077	0.171679
H119	H	1.002566	0.920394	0.264698
C120	C	0.895176	0.216246	0.733793
H121	H	0.892244	0.176502	0.762660
H122	H	0.931084	0.209730	0.708289
H123	H	0.858851	0.217228	0.708248
H124	H	0.666915	0.442604	0.374609
C125	C	0.272631	0.456055	0.386183
H126	H	0.243775	0.484286	0.410017
H127	H	0.298108	0.488292	0.362156
H128	H	0.298205	0.427769	0.413519
C129	C	0.895196	0.216206	0.871199
H130	H	0.892273	0.176476	0.842352
H131	H	0.858882	0.217167	0.896708
H132	H	0.931116	0.209684	0.896743
C133	C	0.878242	0.926588	0.418416
H134	H	0.859646	0.885628	0.439016
H135	H	0.846577	0.955805	0.399444
H136	H	0.900485	0.955610	0.447966
C137	C	1.020241	0.785540	0.268903
H138	H	1.020575	0.733057	0.269030
H139	H	1.032502	0.803244	0.308856
H140	H	1.048580	0.803170	0.238164
C141	C	0.135222	0.456031	0.386223
H142	H	0.164081	0.484293	0.410022
H143	H	0.109741	0.427753	0.413583
H144	H	0.109653	0.488249	0.362198
H145	H	0.832799	0.270519	0.541272
H146	H	0.144559	0.270382	0.229687
H147	H	0.263269	0.270413	0.229641
H148	H	0.889220	0.792575	0.405301
C149	C	0.988049	0.783857	0.387887
H150	H	1.004261	0.752837	0.355963
H151	H	0.984280	0.756475	0.425583
H152	H	1.015554	0.824338	0.394266
C153	C	0.817147	0.928081	0.221254
H154	H	0.848198	0.959764	0.204293
H155	H	0.779259	0.954799	0.226319
H156	H	0.810431	0.887723	0.193696
C157	C	0.821242	0.785806	0.218069
H158	H	0.853672	0.755450	0.201930
H159	H	0.815160	0.826995	0.191209
H160	H	0.783647	0.758070	0.220565
C161	C	0.989648	0.455700	1.073001
H162	H	0.983922	0.448906	1.116656
H163	H	0.980461	0.505464	1.062257
H164	H	1.031750	0.444844	1.062301
C165	C	0.989629	0.455739	0.935589
H166	H	1.013491	0.483926	0.964448
H167	H	0.965647	0.488019	0.910041
H168	H	1.016936	0.427399	0.910086
C169	C	0.915836	0.496441	0.871139
H170	H	0.915142	0.486870	0.914797
H171	H	0.881740	0.527607	0.860392
H172	H	0.953973	0.520111	0.860430
C173	C	0.915810	0.496486	0.733728
H174	H	0.915092	0.486945	0.690075
H175	H	0.953945	0.520155	0.744462
H176	H	0.881711	0.527641	0.744430
