data_functionalizedCrystal
_audit_creation_method	'MofGen! by Chris Wilmer'
_symmetry_space_group_name_H-M	'P1'
_symmetry_Int_Tables_number	1
_symmetry_cell_setting	triclinic
loop_
_symmetry_equiv_pos_as_xyz
  x,y,z
_cell_length_a	19.805407
_cell_length_b	18.050590
_cell_length_c	19.805399
_cell_angle_alpha	89.972574
_cell_angle_beta	89.982197
_cell_angle_gamma	90.015869
loop_
_atom_site_label
_atom_site_type_symbol
_atom_site_fract_x
_atom_site_fract_y
_atom_site_fract_z
Zn1	Zn	1.034773	-0.295730	-0.382688
Zn2	Zn	1.034703	-0.419922	-0.269500
Zn3	Zn	0.921587	-0.295744	-0.269516
Zn4	Zn	0.921566	-0.419877	-0.382651
O5	O	0.978157	-0.357818	-0.326089
O6	O	1.129480	-0.312217	-0.367683
O7	O	1.019678	-0.403475	-0.174786
O8	O	0.936639	-0.191818	-0.284551
O9	O	1.129429	-0.403460	-0.284524
O10	O	1.019796	-0.191807	-0.367698
O11	O	0.936572	-0.312242	-0.174798
O12	O	0.826868	-0.312198	-0.284515
O13	O	0.936604	-0.403383	-0.477372
O14	O	0.826853	-0.403397	-0.367634
O15	O	1.019776	-0.312173	-0.477400
O16	O	1.019657	-0.523841	-0.284488
O17	O	0.936536	-0.523807	-0.367619
C18	C	0.802301	-0.357795	-0.326073
C19	C	0.727069	-0.357803	-0.326082
C20	C	0.978105	-0.550770	-0.326062
C21	C	0.978145	-0.633316	-0.326073
C22	C	0.691752	-0.310377	-0.369448
C23	C	0.621064	-0.310380	-0.369451
C24	C	0.585694	-0.357815	-0.326090
C25	C	0.621016	-0.405244	-0.282718
C26	C	0.691703	-0.405235	-0.282713
C27	C	0.335942	-0.405277	-0.282739
C28	C	0.265250	-0.405283	-0.282749
C29	C	0.265304	-0.310422	-0.369477
C30	C	0.335991	-0.310414	-0.369472
C31	C	0.371306	-0.357839	-0.326098
C32	C	0.447955	-0.357833	-0.326095
C33	C	0.509047	-0.357825	-0.326096
C34	C	1.023440	-0.832758	-0.280930
C35	C	1.039973	-0.882093	-0.342704
C36	C	0.978183	-0.784446	-0.326100
C37	C	0.961720	-0.882194	-0.264353
C38	C	0.978222	-0.930432	-0.326121
C39	C	0.994748	-0.832694	-0.387907
C40	C	0.916466	-0.832791	-0.309515
C41	C	0.932975	-0.882103	-0.371332
C42	C	0.978163	-0.700348	-0.326087
C43	C	0.978242	-1.014528	-0.326141
C44	C	1.154700	-0.357842	-0.326106
C45	C	1.229932	-0.357852	-0.326113
C46	C	0.978195	-0.357771	-0.502632
C47	C	0.978211	-0.357752	-0.577864
C48	C	0.978228	-0.164113	-0.326131
C49	C	0.978258	-0.081567	-0.326149
C50	C	1.021520	-0.310256	-0.613223
C51	C	1.021527	-0.310235	-0.683912
C52	C	0.978228	-0.357713	-0.719239
C53	C	0.934915	-0.405210	-0.683875
C54	C	0.934905	-0.405228	-0.613188
C55	C	0.934953	-0.405141	-0.968948
C56	C	0.934968	-0.405122	-1.039640
C57	C	1.021575	-0.310148	-1.039673
C58	C	1.021565	-0.310165	-0.968985
C59	C	0.978250	-0.357660	-0.933627
C60	C	0.978242	-0.357682	-0.856979
C61	C	0.978239	-0.357695	-0.795887
C62	C	0.978158	-0.357811	-0.150233
C63	C	0.978273	-0.357622	-0.075001
H64	H	0.720546	-0.271752	-0.404760
H65	H	0.899658	-0.443865	-0.712644
H66	H	1.061725	-0.811091	-0.242770
H67	H	0.864271	-0.811116	-0.295455
O68	O	1.063567	-0.263993	-0.718181
C69	C	1.048790	-0.189979	-0.700926
H70	H	1.022760	-0.188456	-0.649600
H71	H	1.014009	-0.164942	-0.740709
C72	C	1.146761	-0.146877	-0.760710
C73	C	1.114797	-0.145006	-0.697668
H74	H	1.187477	-0.119135	-0.758704
H75	H	1.156716	-0.196742	-0.772338
H76	H	1.117771	-0.126015	-0.793856
H77	H	1.143784	-0.165877	-0.664526
H78	H	1.104848	-0.095144	-0.686035
H79	H	1.056843	-0.271473	-1.068470
H80	H	0.899705	-0.443786	-1.068402
H81	H	0.592312	-0.271762	-0.404766
O82	O	1.102216	-0.907956	-0.359579
C83	C	1.097514	-0.950874	-0.418854
H84	H	1.050497	-0.934035	-0.448283
H85	H	1.094038	-1.012020	-0.404834
C86	C	1.218335	-0.958587	-0.426644
C87	C	1.160590	-0.937900	-0.462792
H88	H	1.257244	-0.950587	-0.453746
H89	H	1.221503	-0.929675	-0.386708
H90	H	1.215429	-1.009541	-0.414963
H91	H	1.163494	-0.886945	-0.474465
H92	H	1.157424	-0.966803	-0.502731
O93	O	0.887260	-0.907831	-0.416869
C94	C	0.838249	-0.950882	-0.383258
H95	H	0.836242	-0.934220	-0.327781
H96	H	0.852110	-1.012008	-0.387391
C97	C	0.771162	-0.958309	-0.484039
C98	C	0.768694	-0.937840	-0.415902
H99	H	0.728258	-0.950268	-0.504176
H100	H	0.804183	-0.929307	-0.506684
H101	H	0.782716	-1.009246	-0.487474
H102	H	0.757148	-0.886903	-0.412469
H103	H	0.735669	-0.966834	-0.393257
O104	O	0.945162	-0.908043	-0.201998
C105	C	0.993002	-0.882916	-0.154532
H106	H	1.018758	-0.830885	-0.174603
H107	H	1.032439	-0.927885	-0.145723
C108	C	0.925560	-0.928913	-0.062821
C109	C	0.957190	-0.865004	-0.087469
H110	H	0.903472	-0.917867	-0.021452
H111	H	0.893330	-0.945845	-0.094799
H112	H	0.958430	-0.966382	-0.055485
H113	H	0.924320	-0.827540	-0.094812
H114	H	0.989414	-0.848065	-0.055491
O115	O	1.063486	-0.264096	-0.578836
C116	C	1.024960	-0.216122	-0.537967
H117	H	0.973657	-0.242314	-0.527360
H118	H	1.017543	-0.161081	-0.565224
C119	C	1.125208	-0.170521	-0.483861
C120	C	1.062199	-0.202692	-0.470828
H121	H	1.148179	-0.162233	-0.442447
H122	H	1.151165	-0.202839	-0.511396
H123	H	1.119018	-0.124657	-0.506576
H124	H	1.068389	-0.248559	-0.448120
H125	H	1.036244	-0.170381	-0.443286
O126	O	0.370244	-0.264265	-0.411614
C127	C	0.323914	-0.222417	-0.449903
H128	H	0.273514	-0.219812	-0.422189
H129	H	0.316413	-0.249686	-0.501266
C130	C	0.413420	-0.146587	-0.493820
C131	C	0.351520	-0.143382	-0.459779
H132	H	0.430449	-0.097836	-0.499916
H133	H	0.444634	-0.174782	-0.468026
H134	H	0.407161	-0.169314	-0.536619
H135	H	0.357781	-0.120664	-0.416978
H136	H	0.320307	-0.115181	-0.485566
O137	O	1.063647	-0.263974	-0.934774
C138	C	1.101886	-0.222060	-0.981142
H139	H	1.074172	-0.219473	-1.031527
H140	H	1.153284	-0.249259	-0.988661
C141	C	1.145702	-0.146205	-0.891690
C142	C	1.111661	-0.143022	-0.953572
H143	H	1.151735	-0.097452	-0.874683
H144	H	1.119942	-0.174445	-0.860450
H145	H	1.188530	-0.168874	-0.897963
H146	H	1.068831	-0.120362	-0.947296
H147	H	1.137414	-0.114776	-0.984810
H148	H	0.899692	-0.443825	-0.940168
H149	H	1.008637	-0.811043	-0.440179
O150	O	0.230995	-0.451384	-0.240559
C151	C	0.277322	-0.493254	-0.202285
H152	H	0.327715	-0.462828	-0.199985
H153	H	0.284841	-0.549694	-0.226974
C154	C	0.187804	-0.541219	-0.133060
C155	C	0.249696	-0.503846	-0.130230
H156	H	0.170763	-0.547756	-0.088613
H157	H	0.156592	-0.513013	-0.158847
H158	H	0.194079	-0.588249	-0.153636
H159	H	0.243419	-0.456814	-0.109662
H160	H	0.280907	-0.532044	-0.104438
O161	O	0.726116	-0.451238	-0.240610
C162	C	0.796091	-0.441072	-0.249913
H163	H	0.805762	-0.383790	-0.272175
H164	H	0.816158	-0.485172	-0.285883
C165	C	0.820475	-0.518126	-0.154074
C166	C	0.832354	-0.447769	-0.181410
H167	H	0.842846	-0.522261	-0.111819
H168	H	0.773333	-0.524978	-0.147807
H169	H	0.837199	-0.554869	-0.184055
H170	H	0.815624	-0.411029	-0.151433
H171	H	0.879495	-0.440912	-0.187670
O172	O	0.370314	-0.451388	-0.240706
C173	C	0.411196	-0.499419	-0.279159
H174	H	0.421818	-0.473297	-0.330492
H175	H	0.383944	-0.554465	-0.286514
C176	C	0.465274	-0.544898	-0.178837
C177	C	0.478325	-0.512812	-0.241883
H178	H	0.506681	-0.553163	-0.155842
H179	H	0.437729	-0.512541	-0.152930
H180	H	0.442562	-0.590766	-0.184975
H181	H	0.501029	-0.466941	-0.235744
H182	H	0.505876	-0.545162	-0.267788
O183	O	0.892822	-0.451444	-0.578942
C184	C	0.854599	-0.493339	-0.625278
H185	H	0.882326	-0.495893	-0.675673
H186	H	0.803200	-0.466143	-0.632789
C187	C	0.810771	-0.569251	-0.535779
C188	C	0.844828	-0.572393	-0.597673
H189	H	0.804741	-0.618015	-0.518750
H190	H	0.836520	-0.541024	-0.504560
H191	H	0.767942	-0.546585	-0.542046
H192	H	0.887659	-0.595050	-0.591404
H193	H	0.819086	-0.600625	-0.628890
H194	H	0.236541	-0.271803	-0.404792
H195	H	0.592211	-0.443862	-0.247410
