data_functionalizedCrystal
_audit_creation_method	'MofGen! by Chris Wilmer'
_symmetry_space_group_name_H-M	'P1'
_symmetry_Int_Tables_number	1
_symmetry_cell_setting	triclinic
loop_
_symmetry_equiv_pos_as_xyz
  x,y,z
_cell_length_a	18.215407
_cell_length_b	19.077068
_cell_length_c	18.215399
_cell_angle_alpha	92.268164
_cell_angle_beta	89.980167
_cell_angle_gamma	92.327501
loop_
_atom_site_label
_atom_site_type_symbol
_atom_site_fract_x
_atom_site_fract_y
_atom_site_fract_z
Zn1	Zn	1.113288	-0.280200	-0.427869
Zn2	Zn	1.108246	-0.397902	-0.309739
Zn3	Zn	0.990220	-0.280223	-0.304817
Zn4	Zn	0.985238	-0.397863	-0.432763
O5	O	1.049248	-0.339047	-0.368797
O6	O	1.215603	-0.295821	-0.412210
O7	O	1.092565	-0.382318	-0.206103
O8	O	1.010740	-0.181729	-0.317032
O9	O	1.211899	-0.382295	-0.325421
O10	O	1.101157	-0.181712	-0.407437
O11	O	1.005851	-0.295860	-0.202487
O12	O	0.886575	-0.295822	-0.321777
O13	O	1.002249	-0.382229	-0.535097
O14	O	0.882915	-0.382251	-0.415778
O15	O	1.096327	-0.295783	-0.531501
O16	O	1.087734	-0.496388	-0.330167
O17	O	0.997361	-0.496359	-0.420551
C18	C	0.858042	-0.339035	-0.368775
C19	C	0.776243	-0.339047	-0.368784
C20	C	0.586159	-0.384121	-0.417674
C21	C	0.509301	-0.384124	-0.417684
C22	C	0.513088	-0.293986	-0.319936
C23	C	0.589945	-0.293980	-0.319931
C24	C	0.626479	-0.339052	-0.368799
C25	C	0.472763	-0.339060	-0.368814
C26	C	0.389429	-0.339062	-0.368823
C27	C	0.709818	-0.339050	-0.368791
C28	C	1.041480	-0.521911	-0.376440
C29	C	1.038224	-0.600141	-0.379735
C30	C	1.083783	-0.636886	-0.334263
C31	C	1.080725	-0.710391	-0.337366
C32	C	1.032104	-0.747151	-0.385937
C33	C	0.986542	-0.710401	-0.431414
C34	C	0.989604	-0.636897	-0.428314
C35	C	1.017899	-0.966985	-0.400254
C36	C	1.014839	-1.040495	-0.403348
C37	C	1.109023	-1.040479	-0.309301
C38	C	1.112078	-0.966974	-0.306202
C39	C	1.066520	-0.930231	-0.351682
N40	N	1.028975	-0.822285	-0.389109
N41	N	1.069652	-0.855098	-0.348514
C42	C	1.241200	-0.339060	-0.368819
C43	C	1.322999	-0.339065	-0.368828
C44	C	1.049295	-0.338999	-0.560748
C45	C	1.049315	-0.338978	-0.642546
C46	C	1.057067	-0.155469	-0.361140
C47	C	1.060398	-0.077239	-0.357877
C48	C	1.098320	-0.293923	-0.828867
C49	C	1.098329	-0.293903	-0.905725
C50	C	1.000366	-0.383924	-0.909458
C51	C	1.000354	-0.383940	-0.832601
C52	C	1.049335	-0.338941	-0.792308
C53	C	1.049357	-0.338904	-0.946023
C54	C	1.049367	-0.338882	-1.029355
C55	C	1.049324	-0.338962	-0.708970
C56	C	1.049246	-0.339045	-0.177591
C57	C	1.049377	-0.338867	-0.095785
H58	H	0.476476	-0.420822	-0.457484
C59	C	0.396952	-0.253970	-0.276541
C60	C	0.472927	-0.244447	-0.266219
H61	H	0.372161	-0.223389	-0.243374
H62	H	0.384815	-0.243730	-0.325573
H63	H	0.382352	-0.301249	-0.267665
H64	H	0.487528	-0.197169	-0.275100
H65	H	0.485069	-0.254682	-0.217176
H66	H	0.615903	-0.420820	-0.457468
C67	C	0.893759	-0.703028	-0.524070
C68	C	0.933098	-0.750805	-0.484809
H69	H	0.860768	-0.727972	-0.557037
H70	H	0.866820	-0.674405	-0.490774
H71	H	0.927013	-0.674313	-0.551035
H72	H	0.899845	-0.779517	-0.457839
H73	H	0.960040	-0.779441	-0.518109
H74	H	0.960459	-0.420598	-0.802834
C75	C	0.585975	-0.204886	-0.223302
C76	C	0.634271	-0.244439	-0.266200
H77	H	0.613341	-0.174305	-0.190131
H78	H	0.557154	-0.178003	-0.254287
H79	H	0.554684	-0.235526	-0.196383
H80	H	0.665558	-0.213798	-0.293123
H81	H	0.663105	-0.271323	-0.235211
C82	C	0.922059	-1.033131	-0.496019
C83	C	0.961397	-1.080903	-0.456750
H84	H	0.889072	-1.058079	-0.528987
H85	H	0.895114	-1.004507	-0.462728
H86	H	0.955314	-1.004416	-0.522983
H87	H	0.928142	-1.109615	-0.429781
H88	H	0.988343	-1.109539	-0.490045
H89	H	0.952506	-0.606981	-0.465343
C90	C	1.144001	-1.063172	-0.185676
C91	C	1.159104	-1.080872	-0.259320
H92	H	1.174919	-1.088114	-0.154822
H93	H	1.152787	-1.014142	-0.176882
H94	H	1.094056	-1.075269	-0.175376
H95	H	1.209048	-1.068771	-0.269621
H96	H	1.150324	-1.129914	-0.268118
C97	C	1.087706	-0.793253	-0.241997
C98	C	1.130867	-0.750846	-0.287505
H99	H	1.118684	-0.818249	-0.211255
H100	H	1.056915	-0.764667	-0.212498
H101	H	1.058258	-0.825610	-0.271380
H102	H	1.160311	-0.718485	-0.258122
H103	H	1.161671	-0.779434	-0.317007
C104	C	1.011051	-0.884285	-0.495762
C105	C	0.967813	-0.926609	-0.450241
H106	H	0.980126	-0.859361	-0.526626
H107	H	1.040437	-0.851870	-0.466397
H108	H	1.041905	-0.912923	-0.525144
H109	H	0.936963	-0.897970	-0.420854
H110	H	0.938415	-0.959027	-0.479609
C111	C	1.195146	-0.204934	-0.832900
C112	C	1.152151	-0.244454	-0.784576
H113	H	1.228375	-0.174389	-0.805556
H114	H	1.221996	-0.235592	-0.864157
H115	H	1.164221	-0.178009	-0.861751
H116	H	1.183075	-0.271383	-0.755728
H117	H	1.125298	-0.213792	-0.753305
C118	C	1.112594	-0.199202	-0.988199
C119	C	1.152175	-0.244414	-0.945908
H120	H	1.145838	-0.168645	-1.013000
H121	H	1.083438	-0.225998	-1.023197
H122	H	1.081672	-0.172293	-0.957077
H123	H	1.183093	-0.271328	-0.977030
H124	H	1.181343	-0.217616	-0.910906
H125	H	1.151670	-0.937045	-0.266652
C126	C	1.120646	-0.614315	-0.208726
C127	C	1.137230	-0.596483	-0.280870
H128	H	1.153647	-0.589376	-0.175765
H129	H	1.071712	-0.602311	-0.197409
H130	H	1.125344	-0.663352	-0.204076
H131	H	1.132527	-0.547447	-0.285522
H132	H	1.186176	-0.608482	-0.292191
C133	C	0.956891	-0.423874	-1.028932
C134	C	0.946534	-0.433391	-0.953752
H135	H	0.923660	-0.454418	-1.056275
H136	H	0.948133	-0.376587	-1.039553
H137	H	1.005904	-0.434174	-1.041958
H138	H	0.897522	-0.423085	-0.940725
H139	H	0.955287	-0.480688	-0.943127
