data_functionalizedCrystal
_audit_creation_method	'MofGen! by Chris Wilmer'
_symmetry_space_group_name_H-M	'P1'
_symmetry_Int_Tables_number	1
_symmetry_cell_setting	triclinic
loop_
_symmetry_equiv_pos_as_xyz
  x,y,z
_cell_length_a	8.559649
_cell_length_b	19.188930
_cell_length_c	7.088929
_cell_angle_alpha	83.792352
_cell_angle_beta	95.325015
_cell_angle_gamma	76.461723
loop_
_atom_site_label
_atom_site_type_symbol
_atom_site_fract_x
_atom_site_fract_y
_atom_site_fract_z
O1	O	2.103838	-0.015637	-0.158953
O2	O	1.638380	0.020435	-0.158972
O3	O	1.884545	-0.099961	-0.158924
O4	O	1.857673	0.104759	-0.159000
O5	O	1.917443	-0.116083	0.159057
O6	O	1.671278	0.004313	0.159009
O7	O	2.136736	-0.031759	0.159029
Cu8	Cu	1.907011	-0.015195	0.188053
Cu9	Cu	1.868105	0.003871	-0.187997
O10	O	1.890571	0.088637	0.158981
C11	C	1.595280	0.015108	0.000017
C12	C	1.417842	0.023245	0.000011
C13	C	1.900125	-0.133987	0.000072
C14	C	1.897515	-0.211356	0.000088
C15	C	2.041955	-0.263833	0.000103
C16	C	2.039498	-0.336527	0.000073
C17	C	1.892597	-0.356742	0.000065
C18	C	1.748137	-0.304254	0.000039
C19	C	1.750596	-0.231561	0.000050
N20	N	1.791505	-0.464363	0.108275
N21	N	1.789179	-0.533419	0.108268
C22	C	1.885180	-0.575761	0.000026
N23	N	1.983621	-0.546442	-0.108185
N24	N	1.985952	-0.477380	-0.108170
C25	C	1.889915	-0.435564	0.000051
C26	C	2.026966	-0.707062	0.000005
C27	C	2.024502	-0.779756	-0.000037
C28	C	1.733139	-0.747483	-0.000052
C29	C	1.735605	-0.674789	-0.000028
C30	C	1.882524	-0.654585	0.000009
C31	C	2.179836	-0.026431	0.000036
C32	C	2.357272	-0.034568	0.000029
C33	C	1.874991	0.122664	-0.000019
C34	C	1.877599	0.200034	-0.000048
N35	N	1.934386	-0.028606	0.452547
N36	N	1.840742	0.017276	-0.452490
H37	H	2.161587	-0.247388	0.000127
C38	C	1.709626	0.081510	0.437206
H39	H	1.653844	0.108850	0.525343
H40	H	1.635153	0.063915	0.359132
H41	H	1.759003	0.111404	0.359102
H42	H	1.628528	-0.320718	0.000029
H43	H	1.333944	0.078971	-0.000020
H44	H	1.632971	-0.188832	0.000039
C45	C	1.576722	-0.617064	-0.000013
H46	H	1.488880	-0.639514	-0.000005
H47	H	1.560148	-0.582403	-0.110891
H48	H	1.583106	-0.593670	0.110897
C49	C	2.065506	-0.092842	0.562868
H50	H	2.063633	-0.091925	0.696375
H51	H	2.168804	-0.089374	0.530133
H52	H	2.044949	-0.136861	0.530177
H53	H	1.441159	-0.090289	0.000040
C54	C	2.198390	-0.394261	0.000103
H55	H	2.286240	-0.371817	0.000139
H56	H	2.192025	-0.417664	-0.110782
H57	H	2.214941	-0.428915	0.111007
H58	H	2.142127	-0.822484	-0.000035
H59	H	2.146595	-0.690611	0.000027
H60	H	1.613528	-0.763940	-0.000067
