data_functionalizedCrystal
_audit_creation_method	'MofGen! by Chris Wilmer'
_symmetry_space_group_name_H-M	'P1'
_symmetry_Int_Tables_number	1
_symmetry_cell_setting	triclinic
loop_
_symmetry_equiv_pos_as_xyz
  x,y,z
_cell_length_a	8.559649
_cell_length_b	15.500227
_cell_length_c	8.559649
_cell_angle_alpha	87.570540
_cell_angle_beta	69.778664
_cell_angle_gamma	92.444617
loop_
_atom_site_label
_atom_site_type_symbol
_atom_site_fract_x
_atom_site_fract_y
_atom_site_fract_z
O1	O	2.135350	0.071931	-0.063491
O2	O	1.659866	0.071934	0.020290
O3	O	1.939499	0.071931	-0.259343
O4	O	1.855718	0.071933	0.216142
O5	O	1.922537	-0.071957	-0.242433
O6	O	1.642904	-0.071955	0.037200
O7	O	2.118389	-0.071958	-0.046581
Cu8	Cu	1.879098	-0.085094	-0.003147
Cu9	Cu	1.899157	0.085070	-0.023144
O10	O	1.838756	-0.071955	0.233051
C11	C	1.591076	-0.000010	0.035094
C12	C	1.411377	-0.000008	0.053993
N13	N	1.865001	-0.204779	0.010916
C14	C	1.983523	-0.250057	-0.107540
C15	C	1.972876	-0.340630	-0.096891
C16	C	1.843711	-0.385923	0.032221
C17	C	1.725177	-0.340639	0.150683
C18	C	1.735820	-0.250068	0.140026
C19	C	1.805376	-0.659389	0.070584
C20	C	1.794746	-0.749967	0.081234
C21	C	2.042443	-0.749952	-0.166343
C22	C	2.053080	-0.659379	-0.176982
C23	C	1.934541	-0.614103	-0.058526
C24	C	1.832827	-0.478503	0.043112
C25	C	1.945420	-0.521524	-0.069424
C26	C	2.187179	-0.000012	-0.061385
C27	C	2.366879	-0.000008	-0.080285
C28	C	1.937367	-0.000012	-0.311197
C29	C	1.956267	-0.000007	-0.490897
N30	N	1.913268	0.204755	-0.037221
C31	C	1.840888	-0.000010	0.284906
C32	C	1.821989	-0.000009	0.464605
H33	H	1.466257	-0.000004	-0.209705
N34	N	1.279745	0.000002	0.225440
H35	H	1.165724	0.000005	0.215099
H36	H	1.286513	-0.053340	0.294226
N37	N	2.122846	-0.201208	-0.246790
H38	H	2.196310	-0.243638	-0.320215
H39	H	2.073968	-0.163641	-0.315347
N40	N	1.650544	-0.000001	-0.403782
H41	H	1.581656	-0.053342	-0.410425
H42	H	1.661021	0.000036	-0.289826
N43	N	2.100758	-0.389466	-0.224605
H44	H	2.184220	-0.347030	-0.307990
H45	H	2.160390	-0.427016	-0.166764
H46	H	1.727661	-0.515388	0.148240
H47	H	2.158256	-0.622503	-0.282116
N48	N	2.127707	-0.000012	-0.622542
H49	H	2.196602	0.053328	-0.615909
H50	H	2.183883	-0.053386	-0.603281
H51	H	2.138950	-0.786824	-0.262786
H52	H	1.708860	-0.622533	0.167039
N53	N	1.655440	-0.798822	0.220511
H54	H	1.581962	-0.756397	0.293940
H55	H	1.586943	-0.836422	0.171591
H56	H	1.620001	-0.377522	0.255805
H57	H	1.639305	-0.213203	0.236484
N58	N	2.084718	-0.472664	-0.208667
H59	H	2.195703	-0.488402	-0.202193
H60	H	2.078183	-0.488447	-0.319609
