data_functionalizedCrystal
_audit_creation_method	'MofGen! by Chris Wilmer'
_symmetry_space_group_name_H-M	'P1'
_symmetry_Int_Tables_number	1
_symmetry_cell_setting	triclinic
loop_
_symmetry_equiv_pos_as_xyz
  x,y,z
_cell_length_a	14.044220
_cell_length_b	23.532407
_cell_length_c	12.503572
_cell_angle_alpha	93.496478
_cell_angle_beta	86.164750
_cell_angle_gamma	88.018778
loop_
_atom_site_label
_atom_site_type_symbol
_atom_site_fract_x
_atom_site_fract_y
_atom_site_fract_z
O1	O	1.261903	0.134222	-0.089227
O2	O	0.985982	0.129269	-0.089253
O3	O	1.132262	0.049265	-0.089219
O4	O	1.115623	0.214225	-0.089260
O5	O	1.121261	0.055293	0.089420
O6	O	0.974981	0.135296	0.089386
O7	O	1.250902	0.140249	0.089413
Cu8	Cu	1.111937	0.138323	0.105711
Cu9	Cu	1.124947	0.131195	-0.105551
O10	O	1.104622	0.220253	0.089379
C11	C	0.945188	0.130115	0.000063
C12	C	0.840023	0.123648	0.000054
C13	C	1.126337	0.031040	0.000103
C14	C	1.125063	-0.032246	0.000111
C15	C	0.647472	0.111828	0.000078
C16	C	0.589407	0.157687	0.000072
C17	C	0.482265	0.151110	0.000085
C18	C	0.754624	0.118404	0.000065
C19	C	1.203641	-0.427092	0.000060
C20	C	1.202458	-0.486556	0.000051
O21	O	1.275300	-0.519354	0.000019
N22	N	1.115494	-0.513896	0.000044
C23	C	1.029708	-0.481769	0.000034
O24	O	0.955630	-0.510484	0.000026
C25	C	1.030893	-0.422305	0.000034
C26	C	1.117862	-0.394968	0.000053
C27	C	1.290603	-0.399754	0.000077
C28	C	1.291786	-0.340294	0.000087
C29	C	1.206006	-0.308170	0.000080
C30	C	1.119044	-0.335508	0.000063
C31	C	0.945109	-0.390179	0.000016
C32	C	0.946301	-0.330712	0.000016
C33	C	1.033270	-0.303375	0.000035
C34	C	1.034447	-0.243924	0.000066
N35	N	1.121411	-0.216584	0.000074
C36	C	1.207191	-0.248707	0.000081
C37	C	1.027228	-0.606646	0.000031
C38	C	1.026042	-0.666108	0.000038
C39	C	1.198792	-0.670891	0.000053
C40	C	1.199976	-0.611428	0.000054
C41	C	1.114192	-0.579306	0.000038
C42	C	1.209668	-0.123835	0.000103
C43	C	1.210842	-0.064369	0.000118
C44	C	1.038093	-0.059591	0.000097
C45	C	1.036917	-0.119052	0.000088
C46	C	1.122713	-0.151173	0.000087
O47	O	0.961644	-0.211090	0.000095
O48	O	1.281258	-0.219985	0.000075
C49	C	1.291696	0.139403	0.000094
C50	C	1.396861	0.145869	0.000096
C51	C	1.110547	0.238478	0.000054
C52	C	1.111822	0.301763	0.000039
N53	N	1.102793	0.143337	0.254301
N54	N	1.134098	0.126177	-0.254141
C55	C	1.089342	0.150717	0.473413
C56	C	1.147546	0.118799	0.526753
C57	C	1.140062	0.122905	0.648675
C58	C	1.096825	0.146611	0.351480
H59	H	0.616718	0.067631	0.000095
C60	C	0.849212	-0.457350	-0.091856
C61	C	0.849509	-0.420218	-0.000017
H62	H	0.790190	-0.475895	-0.091874
H63	H	0.857116	-0.436346	-0.154133
H64	H	0.900123	-0.484997	-0.091833
H65	H	0.798602	-0.392568	-0.000044
H66	H	0.841595	-0.441223	0.062277
C67	C	0.594361	0.250075	0.091855
C68	C	0.630929	0.217355	0.000036
H69	H	0.620007	0.286908	0.091829
H70	H	0.526770	0.253429	0.091857
H71	H	0.611523	0.232083	0.154152
H72	H	0.613761	0.235346	-0.062262
H73	H	0.698535	0.214003	0.000024
C74	C	1.381484	-0.075080	0.000124
C75	C	1.306446	-0.034321	0.000129
H76	H	1.440503	-0.056530	0.000123
H77	H	1.373594	-0.096076	0.062413
H78	H	1.381254	-0.100270	-0.062179
H79	H	1.306672	-0.009134	0.062437
H80	H	1.314338	-0.013316	-0.062166
C81	C	1.314242	-0.196561	-0.091728
C82	C	1.303975	-0.159136	0.000108
H83	H	1.372466	-0.218350	-0.091722
H84	H	1.262296	-0.221356	-0.091732
H85	H	1.314945	-0.175353	-0.154014
H86	H	1.303265	-0.180344	0.062394
H87	H	1.355935	-0.134338	0.000121
H88	H	1.033896	0.181126	0.519308
C89	C	1.462418	-0.351014	0.000091
C90	C	1.387387	-0.310250	0.000093
H91	H	1.521440	-0.332468	0.000086
H92	H	1.454524	-0.372007	0.062383
H93	H	1.462181	-0.376205	-0.062209
H94	H	1.387619	-0.285061	0.062398
H95	H	1.395282	-0.289247	-0.062205
C96	C	1.395176	-0.472484	-0.091746
C97	C	1.384905	-0.435056	0.000085
H98	H	1.453402	-0.494272	-0.091736
H99	H	1.343232	-0.497282	-0.091745
H100	H	1.395876	-0.451280	-0.154035
H101	H	1.384198	-0.456261	0.062375
H102	H	1.436863	-0.410256	0.000095
C103	C	1.370610	-0.622143	0.000062
C104	C	1.295575	-0.581383	0.000058
H105	H	1.429631	-0.603596	0.000055
H106	H	1.362718	-0.643134	0.062357
H107	H	1.370376	-0.647337	-0.062235
H108	H	1.295805	-0.556191	0.062359
H109	H	1.303470	-0.560382	-0.062244
H110	H	1.268638	-0.697057	0.000055
C111	C	1.274782	0.049030	0.537767
C112	C	1.222410	0.077747	0.464800
H113	H	1.320995	0.023687	0.499515
H114	H	1.306051	0.075888	0.581624
H115	H	1.232816	0.028031	0.581637
H116	H	1.264376	0.098750	0.420935
H117	H	1.191140	0.050886	0.420925
H118	H	0.955222	-0.688360	0.000041
H119	H	0.876442	-0.304561	0.000002
C120	C	0.922673	-0.533909	0.091860
C121	C	0.932925	-0.571337	0.000029
H122	H	0.864457	-0.512111	0.091852
H123	H	0.921968	-0.555109	0.154143
H124	H	0.974635	-0.509115	0.091853
H125	H	0.880966	-0.596133	0.000041
H126	H	0.933621	-0.550135	-0.062270
C127	C	0.866281	-0.108348	0.000062
C128	C	0.941321	-0.149104	0.000066
H129	H	0.807265	-0.126900	0.000032
H130	H	0.866493	-0.083166	0.062365
H131	H	0.874187	-0.087344	-0.062227
H132	H	0.933419	-0.170106	0.062359
H133	H	0.941108	-0.174296	-0.062243
H134	H	0.968253	-0.033425	0.000095
