data_functionalizedCrystal
_audit_creation_method	'MofGen! by Chris Wilmer'
_symmetry_space_group_name_H-M	'P1'
_symmetry_Int_Tables_number	1
_symmetry_cell_setting	triclinic
loop_
_symmetry_equiv_pos_as_xyz
  x,y,z
_cell_length_a	23.096457
_cell_length_b	23.096457
_cell_length_c	16.704494
_cell_angle_alpha	63.428509
_cell_angle_beta	89.998889
_cell_angle_gamma	60.000185
loop_
_atom_site_label
_atom_site_type_symbol
_atom_site_fract_x
_atom_site_fract_y
_atom_site_fract_z
Zr1	Zr	0.561499	0.626301	-0.100169
O2	O	0.473577	0.738035	-0.222048
O3	O	0.588450	0.508289	-0.062812
O4	O	0.594364	0.617250	-0.222061
O5	O	0.463000	0.638402	0.062825
O6	O	0.689644	0.617252	-0.222066
O7	O	0.467663	0.629074	-0.062799
O8	O	0.679065	0.422340	0.062802
O9	O	0.473580	0.833314	-0.222043
O10	O	0.671053	0.559155	-0.046877
O11	O	0.596466	0.566115	0.046878
O12	O	0.603429	0.694403	-0.140617
O13	O	0.528843	0.701363	-0.046862
Zr14	Zr	0.706023	0.641180	0.100179
Zr15	Zr	0.713460	0.626303	-0.100177
Zr16	Zr	0.554062	0.641178	0.100186
Zr17	Zr	0.561502	0.778259	-0.100161
Zr18	Zr	0.706020	0.489222	0.100170
O19	O	0.679073	0.759191	0.062821
O20	O	0.689647	0.738038	-0.222059
O21	O	0.463003	0.759188	0.062831
O22	O	0.793945	0.529445	0.222058
O23	O	0.804519	0.508292	-0.062822
O24	O	0.577875	0.529442	0.222068
O25	O	0.804522	0.629078	-0.062815
O26	O	0.673159	0.650230	0.222070
O27	O	0.577878	0.650229	0.222075
O28	O	0.799859	0.638406	0.062808
O29	O	0.594369	0.833315	-0.222049
O30	O	0.673154	0.434165	0.222058
O31	O	0.793943	0.434167	0.222052
O32	O	0.799854	0.422342	0.062796
O33	O	0.467668	0.845139	-0.062787
O34	O	0.588457	0.845140	-0.062793
O35	O	0.664093	0.573077	0.140627
O36	O	0.738680	0.566117	0.046871
O37	O	0.671056	0.701365	-0.046869
O38	O	0.596469	0.708326	0.046886
C39	C	0.633757	0.443664	-0.000006
C40	C	0.633755	0.379154	-0.000009
C41	C	0.672684	0.345219	-0.048952
C42	C	0.672691	0.284598	-0.048944
C43	C	0.633755	0.257923	-0.000007
C44	C	0.594824	0.291863	0.048947
C45	C	0.594824	0.352478	0.048945
N46	N	0.573603	0.195023	-0.006790
N47	N	0.573604	0.137442	-0.006794
C48	C	0.633754	0.075292	0.000002
N49	N	0.693902	0.072904	0.006783
N50	N	0.693899	0.130493	0.006782
C51	C	0.633751	0.192196	0.000001
C52	C	0.672694	-0.024377	-0.048935
C53	C	0.672702	-0.085002	-0.048921
C54	C	0.594829	-0.077731	0.048964
C55	C	0.594827	-0.017111	0.048956
C56	C	0.633758	0.009564	0.000001
C57	C	0.443681	0.633738	0.000014
C58	C	0.379169	0.633737	0.000017
C59	C	0.384162	0.563140	0.048940
C60	C	0.323547	0.563139	0.048944
C61	C	0.257939	0.633738	0.000007
C62	C	0.252948	0.704344	-0.048918
C63	C	0.313563	0.704344	-0.048913
N64	N	0.138101	0.683079	-0.079639
N65	N	0.080521	0.683075	-0.079642
C66	C	0.075307	0.633744	-0.000010
N67	N	0.129853	0.584405	0.079624
N68	N	0.187439	0.584407	0.079626
C69	C	0.192208	0.633746	-0.000004
C70	C	0.014576	0.563142	0.048922
C71	C	-0.046042	0.563144	0.048928
C72	C	-0.116641	0.704350	-0.048942
C73	C	-0.056023	0.704347	-0.048940
C74	C	0.009583	0.633740	-0.000010
C75	C	0.823842	0.633743	-0.000004
C76	C	0.888353	0.633744	-0.000008
C77	C	0.643064	0.615131	-0.250610
C78	C	0.646221	0.608816	-0.335666
C79	C	0.633766	0.823816	0.000015
C80	C	0.633767	0.888327	0.000019
C81	C	0.581559	0.738160	-0.593371
C82	C	0.584524	0.732229	-0.673291
C83	C	0.655119	0.591025	-0.575429
C84	C	0.652154	0.596956	-0.495509
C85	C	0.615372	0.670525	-0.504484
C86	C	0.612403	0.676455	-0.424562
C87	C	0.683002	0.535252	-0.326702
C88	C	0.685967	0.529321	-0.406622
C89	C	0.624459	0.652349	0.250619
C90	C	0.621302	0.658665	0.335675
C91	C	0.823837	0.443666	-0.000015
C92	C	0.888347	0.379157	-0.000022
C93	C	0.624454	0.462273	0.250608
C94	C	0.621296	0.404078	0.335661
C95	C	0.814535	0.462275	0.250599
C96	C	0.875888	0.404082	0.335649
C97	C	0.452987	0.805205	-0.250590
C98	C	0.391634	0.863399	-0.335639
C99	C	0.443685	0.823814	0.000024
C100	C	0.379175	0.888323	0.000031
C101	C	0.643068	0.805208	-0.250599
C102	C	0.646227	0.863402	-0.335652
C103	C	0.883342	0.345228	-0.048969
C104	C	0.943951	0.284622	-0.048994
C105	C	1.009565	0.257942	-0.000066
C106	C	1.014569	0.291877	0.048883
C107	C	0.953961	0.352486	0.048902
C108	C	0.655112	0.380384	0.424547
C109	C	0.652142	0.325713	0.504470
C110	C	0.615358	0.294733	0.495506
C111	C	0.581537	0.318432	0.406611
C112	C	0.584504	0.373106	0.326690
C113	C	0.943640	0.373120	0.326650
C114	C	1.001293	0.318449	0.406555
C115	C	0.991194	0.294736	0.495459
C116	C	0.923435	0.325703	0.504456
C117	C	0.865783	0.380378	0.424551
C118	C	0.323883	0.894368	-0.326640
C119	C	0.266229	0.949058	-0.406546
C120	C	0.276329	0.972774	-0.495449
C121	C	0.344087	0.941803	-0.504446
C122	C	0.401740	0.887118	-0.424542
C123	C	0.384181	0.922258	0.048970
C124	C	0.323573	0.982879	0.048973
C125	C	0.257959	1.009561	0.000042
C126	C	0.252955	0.975623	-0.048903
C127	C	0.313562	0.915007	-0.048911
C128	C	0.683017	0.894365	-0.326658
C129	C	0.685998	0.949038	-0.406566
C130	C	0.652185	0.972750	-0.495467
C131	C	0.615394	0.941781	-0.504459
C132	C	0.612417	0.887106	-0.424552
H133	H	0.563123	0.270140	0.088793
C134	C	0.308047	0.877676	-0.102733
H135	H	0.260288	0.902246	-0.131862
H136	H	0.331865	0.884162	-0.149049
H137	H	0.328572	0.823586	-0.060486
H138	H	0.939863	0.256999	-0.088854
C139	C	0.308068	0.782012	-0.102582
H140	H	0.353563	0.771903	-0.095522
H141	H	0.285266	0.807838	-0.166987
H142	H	0.281993	0.814210	-0.078290
C143	C	0.612104	0.234588	0.583425
H144	H	0.637520	0.224912	0.637643
H145	H	0.564817	0.254448	0.583446
H146	H	0.631984	0.187289	0.583435
H147	H	0.551587	0.293200	0.399326
C148	C	0.551995	0.389813	0.102776
H149	H	0.528804	0.365249	0.131921
H150	H	0.582310	0.383325	0.149079
H151	H	0.518435	0.443903	0.060528
H152	H	1.068000	0.270145	0.088718
C153	C	0.191702	0.983115	-0.396637
H154	H	0.158807	1.019088	-0.456953
H155	H	0.185155	0.942062	-0.363438
H156	H	0.185162	1.009218	-0.363417
C157	C	0.912331	0.299616	0.602250
H158	H	0.863723	0.325888	0.596175
H159	H	0.933208	0.244856	0.635452
H160	H	0.933203	0.312025	0.635451
C161	C	0.720170	0.460851	-0.228923
H162	H	0.713131	0.474917	-0.182609
H163	H	0.701556	0.430897	-0.221951
H164	H	0.768748	0.430845	-0.221882
H165	H	0.556990	0.787304	-0.745664
C166	C	0.720218	0.868289	-0.228877
H167	H	0.742559	0.894559	-0.234978
H168	H	0.686951	0.880691	-0.195660
H169	H	0.754109	0.813526	-0.195674
C170	C	0.086744	0.485482	0.102747
H171	H	0.122130	0.495591	0.095733
H172	H	0.089670	0.459760	0.167129
H173	H	0.092957	0.453187	0.078571
H174	H	0.829922	0.366949	-0.088824
C175	C	0.695567	0.414463	0.434426
H176	H	0.715269	0.392524	0.498814
H177	H	0.731777	0.402369	0.405289
H178	H	0.664600	0.469528	0.405284
H179	H	0.327661	1.010502	0.088833
C180	C	0.726460	0.983103	-0.396658
H181	H	0.746158	0.961159	-0.332266
H182	H	0.762675	0.971004	-0.425787
H183	H	0.695500	1.038168	-0.425796
H184	H	0.352303	0.961119	-0.576841
C185	C	0.959475	0.389793	0.102760
H186	H	1.007233	0.365213	0.131902
H187	H	0.938944	0.443884	0.060541
H188	H	0.935660	0.383282	0.149082
C189	C	0.456325	0.485479	0.102770
H190	H	0.491712	0.495587	0.095764
H191	H	0.459246	0.459759	0.167149
H192	H	0.462542	0.453184	0.078593
C193	C	1.054616	0.234589	0.583345
H194	H	1.096411	0.219542	0.565244
H195	H	1.053288	0.257131	0.619508
H196	H	1.053282	0.189973	0.619493
H197	H	1.058910	0.208589	-0.000088
C198	C	-0.040552	0.485486	0.102752
H199	H	-0.086048	0.495598	0.095753
H200	H	-0.014472	0.453189	0.078583
H201	H	-0.017758	0.459767	0.167137
H202	H	0.704396	-0.002659	-0.088794
H203	H	-0.060092	0.761834	-0.088785
H204	H	0.229378	1.017302	-0.560505
C205	C	1.075819	0.284386	0.396641
H206	H	1.073572	0.306332	0.332248
H207	H	1.099934	0.296487	0.425767
H208	H	1.099925	0.229321	0.425780
H209	H	0.810618	0.405580	0.431892
C210	C	0.476263	0.853047	-0.434452
H211	H	0.474015	0.875001	-0.498846
H212	H	0.500386	0.865134	-0.405315
H213	H	0.500362	0.797984	-0.405327
C214	C	0.552001	-0.107066	0.102795
H215	H	0.557573	-0.148024	0.095783
H216	H	0.567938	-0.125927	0.167175
H217	H	0.504063	-0.065344	0.078624
C218	C	0.695577	0.510108	-0.565572
H219	H	0.692497	0.516267	-0.625902
H220	H	0.743176	0.482068	-0.532367
H221	H	0.676007	0.482073	-0.532376
C222	C	0.456347	0.892919	0.102799
H223	H	0.450639	0.921823	0.131935
H224	H	0.479816	0.839133	0.149109
H225	H	0.483105	0.899718	0.060553
C226	C	0.191296	1.076236	0.000061
H227	H	0.203681	1.092616	0.036225
H228	H	0.166187	1.118904	-0.062281
H229	H	0.162901	1.058313	0.026274
H230	H	0.315646	0.875061	-0.254258
H231	H	0.556968	0.392390	0.254318
C232	C	0.689354	0.299647	0.602242
H233	H	0.711695	0.325920	0.596127
H234	H	0.656091	0.312052	0.635463
H235	H	0.723247	0.244884	0.635449
C236	C	0.180778	1.004974	-0.102715
H237	H	0.145404	1.045928	-0.095685
H238	H	0.177837	1.023843	-0.167100
H239	H	0.174558	0.963254	-0.078536
H240	H	0.951876	0.392418	0.254267
H241	H	0.654614	1.017271	-0.560525
C242	C	0.578196	0.967877	-0.602253
H243	H	0.585235	1.004882	-0.648548
H244	H	0.596775	0.923854	-0.609287
H245	H	0.529620	0.991016	-0.609263
C246	C	0.571933	0.853063	-0.434452
H247	H	0.574999	0.817102	-0.374135
H248	H	0.524339	0.894124	-0.467660
H249	H	0.591495	0.826948	-0.467662
H250	H	0.704393	0.256963	-0.088801
C251	C	0.715534	-0.122342	-0.102747
H252	H	0.709968	-0.162272	-0.095723
H253	H	0.699597	-0.083616	-0.167130
H254	H	0.763470	-0.144191	-0.078575
C255	C	0.551996	0.020227	0.102781
H256	H	0.528803	-0.004336	0.131922
H257	H	0.582311	0.013736	0.149087
H258	H	0.518437	0.074317	0.060534
C259	C	0.715513	0.374554	-0.102791
H260	H	0.738703	0.345653	-0.131932
H261	H	0.685197	0.428340	-0.149097
H262	H	0.749074	0.367750	-0.060547
C263	C	0.726421	0.448402	-0.396758
H264	H	0.723340	0.454555	-0.457086
H265	H	0.774020	0.420358	-0.363552
H266	H	0.706845	0.420374	-0.363561
H267	H	0.327613	0.505649	0.088783
H268	H	0.199526	0.761826	-0.088762
C269	C	0.541098	0.819078	-0.603232
H270	H	0.544171	0.812923	-0.542903
H271	H	0.560656	0.847120	-0.636437
H272	H	0.493495	0.847110	-0.636430
H273	H	-0.170059	0.761833	-0.088788
H274	H	0.582450	0.736359	-0.431873
