data_functionalizedCrystal
_audit_creation_method	'MofGen! by Chris Wilmer'
_symmetry_space_group_name_H-M	'P1'
_symmetry_Int_Tables_number	1
_symmetry_cell_setting	triclinic
loop_
_symmetry_equiv_pos_as_xyz
  x,y,z
_cell_length_a	18.050591
_cell_length_b	18.101395
_cell_length_c	18.101389
_cell_angle_alpha	89.983159
_cell_angle_beta	90.025013
_cell_angle_gamma	89.972890
loop_
_atom_site_label
_atom_site_type_symbol
_atom_site_fract_x
_atom_site_fract_y
_atom_site_fract_z
Zn1	Zn	1.135308	0.294986	0.418860
Zn2	Zn	1.385308	0.544986	0.668860
Zn3	Zn	1.635308	0.794986	0.918860
Zn4	Zn	1.885308	1.044986	1.168860
Zn5	Zn	1.135203	0.418812	0.295022
Zn6	Zn	1.385203	0.668812	0.545022
Zn7	Zn	1.635203	0.918812	0.795022
Zn8	Zn	1.885203	1.168812	1.045022
Zn9	Zn	1.011118	0.294980	0.295020
Zn10	Zn	1.261118	0.544980	0.545020
Zn11	Zn	1.511118	0.794980	0.795020
Zn12	Zn	1.761118	1.044980	1.045020
Zn13	Zn	1.011069	0.418782	0.418809
Zn14	Zn	1.261069	0.668782	0.668809
Zn15	Zn	1.511069	0.918782	0.918809
Zn16	Zn	1.761069	1.168782	1.168809
O17	O	1.073174	0.356890	0.356928
O18	O	1.323174	0.606890	0.606928
O19	O	1.573174	0.856890	0.856928
O20	O	1.823174	1.106890	1.106928
O21	O	1.239218	0.311427	0.402455
O22	O	1.489218	0.561427	0.652455
O23	O	1.739218	0.811427	0.902455
O24	O	1.989218	1.061427	1.152455
O25	O	1.118720	0.402395	0.191389
O26	O	1.368720	0.652395	0.441389
O27	O	1.618720	0.902395	0.691389
O28	O	1.868720	1.152395	0.941389
O29	O	1.027656	0.191348	0.311468
O30	O	1.277656	0.441348	0.561468
O31	O	1.527656	0.691348	0.811468
O32	O	1.777656	0.941348	1.061468
O33	O	1.239142	0.402401	0.311472
O34	O	1.489142	0.652401	0.561472
O35	O	1.739142	0.902401	0.811472
O36	O	1.989142	1.152401	1.061472
O37	O	1.118898	0.191352	0.402453
O38	O	1.368898	0.441352	0.652453
O39	O	1.618898	0.691352	0.902453
O40	O	1.868898	0.941352	1.152453
O41	O	1.027555	0.311417	0.191387
O42	O	1.277555	0.561417	0.441387
O43	O	1.527555	0.811417	0.691387
O44	O	1.777555	1.061417	0.941387
O45	O	0.907187	0.311387	0.311419
O46	O	1.157187	0.561387	0.561419
O47	O	1.407187	0.811387	0.811419
O48	O	1.657187	1.061387	1.061419
O49	O	1.027572	0.402350	0.522449
O50	O	1.277572	0.652350	0.772449
O51	O	1.527572	0.902350	1.022449
O52	O	1.777572	1.152350	1.272449
O53	O	0.907151	0.402344	0.402366
O54	O	1.157151	0.652344	0.652366
O55	O	1.407151	0.902344	0.902366
O56	O	1.657151	1.152344	1.152366
O57	O	1.118850	0.311398	0.522487
O58	O	1.368850	0.561398	0.772487
O59	O	1.618850	0.811398	1.022487
O60	O	1.868850	1.061398	1.272487
O61	O	1.118672	0.522441	0.311422
O62	O	1.368672	0.772441	0.561422
O63	O	1.618672	1.022441	0.811422
O64	O	1.868672	1.272441	1.061422
O65	O	1.027471	0.522419	0.402368
O66	O	1.277471	0.772419	0.652368
O67	O	1.527471	1.022419	0.902368
O68	O	1.777471	1.272419	1.152368
C69	C	1.073075	0.549301	0.356906
C70	C	1.323075	0.799301	0.606906
C71	C	1.573075	1.049301	0.856906
C72	C	1.823075	1.299301	1.106906
C73	C	1.073100	0.631615	0.356922
C74	C	1.323100	0.881615	0.606922
C75	C	1.573100	1.131615	0.856922
C76	C	1.823100	1.381615	1.106922
C77	C	0.880222	0.356862	0.356887
C78	C	1.130222	0.606862	0.606887
C79	C	1.380222	0.856862	0.856887
C80	C	1.630222	1.106862	1.106887
C81	C	0.797676	0.356868	0.356887
C82	C	1.047676	0.606868	0.606887
C83	C	1.297676	0.856868	0.856887
C84	C	1.547676	1.106868	1.106887
C85	C	1.073217	0.356871	0.550090
C86	C	1.323217	0.606871	0.800090
C87	C	1.573217	0.856871	1.050090
C88	C	1.823217	1.106871	1.300090
C89	C	1.073236	0.356863	0.632404
C90	C	1.323236	0.606863	0.882404
C91	C	1.573236	0.856863	1.132404
C92	C	1.823236	1.106863	1.382404
C93	C	0.598224	0.307349	0.307544
C94	C	0.848224	0.557349	0.557544
C95	C	1.098224	0.807349	0.807544
C96	C	1.348224	1.057349	1.057544
C97	C	0.548800	0.374893	0.289321
C98	C	0.798800	0.624893	0.539321
C99	C	1.048800	0.874893	0.789321
C100	C	1.298800	1.124893	1.039321
C101	C	0.646546	0.356891	0.356921
C102	C	0.896546	0.606891	0.606921
C103	C	1.146546	0.856891	0.856921
C104	C	1.396546	1.106891	1.106921
C105	C	0.548889	0.289370	0.375142
C106	C	0.798889	0.539370	0.625142
C107	C	1.048889	0.789370	0.875142
C108	C	1.298889	1.039370	1.125142
C109	C	0.500561	0.356907	0.356952
C110	C	0.750561	0.606907	0.606952
C111	C	1.000561	0.856907	0.856952
C112	C	1.250561	1.106907	1.106952
C113	C	0.598209	0.424471	0.338662
C114	C	0.848209	0.674471	0.588662
C115	C	1.098209	0.924471	0.838662
C116	C	1.348209	1.174471	1.088662
C117	C	0.598302	0.338902	0.424515
C118	C	0.848302	0.588902	0.674515
C119	C	1.098302	0.838902	0.924515
C120	C	1.348302	1.088902	1.174515
C121	C	0.548900	0.406493	0.406317
C122	C	0.798900	0.656493	0.656317
C123	C	1.048900	0.906493	0.906317
C124	C	1.298900	1.156493	1.156317
C125	C	0.730644	0.356881	0.356901
C126	C	0.980644	0.606881	0.606901
C127	C	1.230644	0.856881	0.856901
C128	C	1.480644	1.106881	1.106901
C129	C	0.416464	0.356924	0.356971
C130	C	0.666464	0.606924	0.606971
C131	C	0.916464	0.856924	0.856971
C132	C	1.166464	1.106924	1.106971
C133	C	1.266880	0.356918	0.356970
C134	C	1.516880	0.606918	0.606970
C135	C	1.766880	0.856918	0.856970
C136	C	2.016880	1.106918	1.106970
C137	C	1.349426	0.356930	0.356987
C138	C	1.599426	0.606930	0.606987
C139	C	1.849426	0.856930	0.856987
C140	C	2.099426	1.106930	1.106987
C141	C	1.073294	0.163728	0.356966
C142	C	1.323294	0.413728	0.606966
C143	C	1.573294	0.663728	0.856966
C144	C	1.823294	0.913728	1.106966
C145	C	1.073345	0.081414	0.356982
C146	C	1.323345	0.331414	0.606982
C147	C	1.573345	0.581414	0.856982
C148	C	1.823345	0.831414	1.106982
C149	C	1.073263	0.930706	0.356962
C150	C	1.323263	1.180706	0.606962
C151	C	1.573263	1.430706	0.856962
C152	C	1.823263	1.680706	1.106962
C153	C	1.016015	0.899397	0.414324
C154	C	1.266015	1.149397	0.664324
C155	C	1.516015	1.399397	0.914324
C156	C	1.766015	1.649397	1.164324
C157	C	1.015743	0.813779	0.414145
C158	C	1.265743	1.063779	0.664145
C159	C	1.515743	1.313779	0.914145
C160	C	1.765743	1.563779	1.164145
C161	C	1.073182	0.782323	0.356942
C162	C	1.323182	1.032323	0.606942
C163	C	1.573182	1.282323	0.856942
C164	C	1.823182	1.532323	1.106942
C165	C	1.051994	0.813459	0.278891
C166	C	1.301994	1.063459	0.528891
C167	C	1.551994	1.313459	0.778891
C168	C	1.801994	1.563459	1.028891
C169	C	1.051625	0.899104	0.279234
C170	C	1.301625	1.149104	0.529234
C171	C	1.551625	1.399104	0.779234
C172	C	1.801625	1.649104	1.029234
C173	C	1.151826	0.899058	0.376964
C174	C	1.401826	1.149058	0.626964
C175	C	1.651826	1.399058	0.876964
C176	C	1.901826	1.649058	1.126964
C177	C	1.151364	0.813408	0.378675
C178	C	1.401364	1.063408	0.628675
C179	C	1.651364	1.313408	0.878675
C180	C	1.901364	1.563408	1.128675
C181	C	1.073138	0.698464	0.356927
C182	C	1.323138	0.948464	0.606927
C183	C	1.573138	1.198464	0.856927
C184	C	1.823138	1.448464	1.106927
C185	C	1.073306	1.014565	0.356972
C186	C	1.323306	1.264565	0.606972
C187	C	1.573306	1.514565	0.856972
C188	C	1.823306	1.764565	1.106972
C189	C	1.073174	0.356855	0.164518
C190	C	1.323174	0.606855	0.414518
C191	C	1.573174	0.856855	0.664518
C192	C	1.823174	1.106855	0.914518
C193	C	1.073300	0.356655	0.082204
C194	C	1.323300	0.606655	0.332204
C195	C	1.573300	0.856655	0.582204
C196	C	1.823300	1.106655	0.832204
C197	C	1.073279	0.356724	0.931495
C198	C	1.323279	0.606724	1.181495
C199	C	1.573279	0.856724	1.431495
C200	C	1.823279	1.106724	1.681495
C201	C	1.015652	0.413767	0.900146
C202	C	1.265652	0.663767	1.150146
C203	C	1.515652	0.913767	1.400146
C204	C	1.765652	1.163767	1.650146
C205	C	1.015807	0.414032	0.814528
C206	C	1.265807	0.664032	1.064528
C207	C	1.515807	0.914032	1.314528
C208	C	1.765807	1.164032	1.564528
C209	C	1.073257	0.356793	0.783113
C210	C	1.323257	0.606793	1.033113
C211	C	1.573257	0.856793	1.283113
C212	C	1.823257	1.106793	1.533113
C213	C	1.151502	0.377983	0.814220
C214	C	1.401502	0.627983	1.064220
C215	C	1.651502	0.877983	1.314220
C216	C	1.901502	1.127983	1.564220
C217	C	1.151181	0.378357	0.899865
C218	C	1.401181	0.628357	1.149865
C219	C	1.651181	0.878357	1.399865
C220	C	1.901181	1.128357	1.649865
C221	C	1.053341	0.278365	0.899917
C222	C	1.303341	0.528365	1.149917
C223	C	1.553341	0.778365	1.399917
C224	C	1.803341	1.028365	1.649917
C225	C	1.051600	0.278818	0.814266
C226	C	1.301600	0.528818	1.064266
C227	C	1.551600	0.778818	1.314266
C228	C	1.801600	1.028818	1.564266
C229	C	1.073249	0.356831	0.699253
C230	C	1.323249	0.606831	0.949253
C231	C	1.573249	0.856831	1.199253
C232	C	1.823249	1.106831	1.449253
C233	C	1.073292	0.356689	1.015355
C234	C	1.323292	0.606689	1.265355
C235	C	1.573292	0.856689	1.515355
C236	C	1.823292	1.106689	1.765355
H237	H	0.619881	0.265498	0.265742
H238	H	0.869881	0.515498	0.515742
H239	H	1.119881	0.765498	0.765742
H240	H	1.369881	1.015498	1.015742
F241	F	0.939969	0.396696	0.787033
F242	F	1.189969	0.646696	1.037033
F243	F	1.439969	0.896696	1.287033
F244	F	1.689969	1.146696	1.537033
H245	H	0.527380	0.448444	0.448087
H246	H	0.777380	0.698444	0.698087
H247	H	1.027380	0.948444	0.948087
H248	H	1.277380	1.198444	1.198087
H249	H	0.527057	0.390120	0.232171
H250	H	0.777057	0.640120	0.482171
H251	H	1.027057	0.890120	0.732171
H252	H	1.277057	1.140120	0.982171
H253	H	1.029000	0.792727	0.472019
H254	H	1.279000	1.042727	0.722019
H255	H	1.529000	1.292727	0.972019
H256	H	1.779000	1.542727	1.222019
F257	F	0.939581	0.396609	0.927045
F258	F	1.189581	0.646609	1.177045
F259	F	1.439581	0.896609	1.427045
F260	F	1.689581	1.146609	1.677045
F261	F	1.108203	0.222815	0.926417
F262	F	1.358203	0.472815	1.176417
F263	F	1.608203	0.722815	1.426417
F264	F	1.858203	0.972815	1.676417
H265	H	1.028684	0.471495	0.921674
H266	H	1.278684	0.721495	1.171674
H267	H	1.528684	0.971495	1.421674
H268	H	1.778684	1.221495	1.671674
H269	H	1.091513	0.919816	0.235036
H270	H	1.341513	1.169816	0.485036
H271	H	1.591513	1.419816	0.735036
H272	H	1.841513	1.669816	0.985036
F273	F	1.173978	0.452058	0.786197
F274	F	1.423978	0.702058	1.036197
F275	F	1.673978	0.952058	1.286197
F276	F	1.923978	1.202058	1.536197
F277	F	0.977724	0.785502	0.256348
F278	F	1.227724	1.035502	0.506348
F279	F	1.477724	1.285502	0.756348
F280	F	1.727724	1.535502	1.006348
H281	H	0.619783	0.481596	0.323201
H282	H	0.869783	0.731596	0.573201
H283	H	1.119783	0.981596	0.823201
H284	H	1.369783	1.231596	1.073201
F285	F	0.626744	0.318974	0.499193
F286	F	0.876744	0.568974	0.749193
F287	F	1.126744	0.818974	0.999193
F288	F	1.376744	1.068974	1.249193
F289	F	1.207578	0.925532	0.322364
F290	F	1.457578	1.175532	0.572364
F291	F	1.707578	1.425532	0.822364
F292	F	1.957578	1.675532	1.072364
F293	F	1.033047	0.489941	0.787755
F294	F	1.283047	0.739941	1.037755
F295	F	1.533047	0.989941	1.287755
F296	F	1.783047	1.239941	1.537755
F297	F	0.520566	0.214727	0.395268
F298	F	0.770566	0.464727	0.645268
F299	F	1.020566	0.714727	0.895268
F300	F	1.270566	0.964727	1.145268
F301	F	1.033167	0.926271	0.490217
F302	F	1.283167	1.176271	0.740217
F303	F	1.533167	1.426271	0.990217
F304	F	1.783167	1.676271	1.240217
F305	F	1.102465	0.220317	0.786323
F306	F	1.352465	0.470317	1.036323
F307	F	1.602465	0.720317	1.286323
F308	F	1.852465	0.970317	1.536323
H309	H	1.092379	0.793083	0.234985
H310	H	1.342379	1.043083	0.484985
H311	H	1.592379	1.293083	0.734985
H312	H	1.842379	1.543083	0.984985
F313	F	0.980060	0.253134	0.928127
F314	F	1.230060	0.503134	1.178127
F315	F	1.480060	0.753134	1.428127
F316	F	1.730060	1.003134	1.678127
H317	H	0.994019	0.262839	0.793933
H318	H	1.244019	0.512839	1.043933
H319	H	1.494019	0.762839	1.293933
H320	H	1.744019	1.012839	1.543933
F321	F	1.177076	0.927237	0.450089
F322	F	1.427076	1.177237	0.700089
F323	F	1.677076	1.427237	0.950089
F324	F	1.927076	1.677237	1.200089
F325	F	0.939629	0.787073	0.396830
F326	F	1.189629	1.037073	0.646830
F327	F	1.439629	1.287073	0.896830
F328	F	1.689629	1.537073	1.146830
H329	H	0.958137	0.920977	0.401241
H330	H	1.208137	1.170977	0.651241
H331	H	1.458137	1.420977	0.901241
H332	H	1.708137	1.670977	1.151241
F333	F	0.976562	0.925294	0.257089
F334	F	1.226562	1.175294	0.507089
F335	F	1.476562	1.425294	0.757089
F336	F	1.726562	1.675294	1.007089
H337	H	1.167342	0.793056	0.436117
H338	H	1.417342	1.043056	0.686117
H339	H	1.667342	1.293056	0.936117
H340	H	1.917342	1.543056	1.186117
F341	F	1.173271	0.453228	0.925989
F342	F	1.423271	0.703228	1.175989
F343	F	1.673271	0.953228	1.425989
F344	F	1.923271	1.203228	1.675989
H345	H	1.196273	0.791991	0.339941
H346	H	1.446273	1.041991	0.589941
H347	H	1.696273	1.291991	0.839941
H348	H	1.946273	1.541991	1.089941
H349	H	1.195573	0.338614	0.920605
H350	H	1.445573	0.588614	1.170605
H351	H	1.695573	0.838614	1.420605
H352	H	1.945573	1.088614	1.670605
H353	H	1.195591	0.337741	0.793873
H354	H	1.445591	0.587741	1.043873
H355	H	1.695591	0.837741	1.293873
H356	H	1.945591	1.087741	1.543873
