data_functionalizedCrystal
_audit_creation_method	'MofGen! by Chris Wilmer'
_symmetry_space_group_name_H-M	'P1'
_symmetry_Int_Tables_number	1
_symmetry_cell_setting	triclinic
loop_
_symmetry_equiv_pos_as_xyz
  x,y,z
_cell_length_a	11.792241
_cell_length_b	11.026607
_cell_length_c	9.482900
_cell_angle_alpha	78.599815
_cell_angle_beta	80.646885
_cell_angle_gamma	83.610284
loop_
_atom_site_label
_atom_site_type_symbol
_atom_site_fract_x
_atom_site_fract_y
_atom_site_fract_z
O1	O	1.553802	-0.147646	-0.120862
O2	O	2.053802	0.352354	0.379138
O3	O	1.226870	-0.164810	-0.120870
O4	O	1.726870	0.335190	0.379130
O5	O	1.363240	0.020603	-0.120861
O6	O	1.863240	0.520603	0.379139
O7	O	1.417433	-0.333059	-0.120870
O8	O	1.917433	0.166941	0.379130
O9	O	1.335571	-0.017211	0.120929
O10	O	1.835571	0.482789	0.620929
O11	O	1.199202	-0.202623	0.120920
O12	O	1.699202	0.297377	0.620920
O13	O	1.526133	-0.185460	0.120929
O14	O	2.026133	0.314540	0.620929
Cu15	Cu	1.360141	-0.197494	0.143002
Cu16	Cu	1.860141	0.302506	0.643002
Cu17	Cu	1.392863	-0.152775	-0.142943
Cu18	Cu	1.892863	0.347225	0.357057
O19	O	1.389764	-0.370872	0.120920
O20	O	1.889764	0.129128	0.620920
C21	C	1.170531	-0.182638	0.000024
C22	C	1.670531	0.317362	0.500024
C23	C	1.043877	-0.179410	0.000020
C24	C	1.543877	0.320590	0.500020
C25	C	1.582473	-0.167631	0.000032
C26	C	2.082473	0.332369	0.500032
C27	C	1.709128	-0.170857	0.000026
C28	C	2.209128	0.329143	0.500026
C29	C	1.941019	-0.176792	0.000026
C30	C	2.441019	0.323208	0.500026
C31	C	1.811979	-0.173494	0.000026
C32	C	2.311979	0.326506	0.500026
C33	C	1.339408	0.046973	0.000032
C34	C	1.839408	0.546973	0.500032
C35	C	1.309606	0.181884	0.000026
C36	C	1.809606	0.681884	0.500026
C37	C	1.413596	-0.397242	0.000024
C38	C	1.913596	0.102758	0.500024
C39	C	1.443399	-0.532151	0.000020
C40	C	1.943399	-0.032151	0.500020
N41	N	1.337135	-0.228946	0.344121
N42	N	1.837135	0.271054	0.844121
C43	C	1.391896	0.255148	0.000026
C44	C	1.891896	0.755148	0.500026
C45	C	1.361097	0.394586	0.000020
C46	C	1.861097	0.894586	0.500020
N47	N	1.415876	-0.121314	-0.344062
N48	N	1.915876	0.378686	0.155938
C49	C	1.386067	-0.162046	0.416323
C50	C	1.886067	0.337954	0.916323
C51	C	1.366936	-0.188224	0.583739
C52	C	1.866936	0.311776	1.083739
H53	H	1.485149	0.214641	0.000038
H54	H	1.985149	0.714641	0.500038
H55	H	1.310871	-0.264881	0.645860
H56	H	1.810871	0.235119	1.145860
N57	N	1.266814	-0.325125	0.422022
N58	N	1.766814	0.174875	0.922022
N59	N	1.220803	-0.388038	0.354226
N60	N	1.720803	0.111962	0.854226
H61	H	1.171136	-0.455967	0.409239
H62	H	1.671136	0.044033	0.909239
N63	N	1.560390	0.417038	0.000015
N64	N	2.060390	0.917038	0.500015
N65	N	1.585248	0.303841	0.000016
N66	N	2.085248	0.803841	0.500016
H67	H	1.667872	0.267953	0.000013
H68	H	2.167872	0.767953	0.500013
H69	H	1.267838	0.435087	0.000008
H70	H	1.767838	0.935087	0.500008
H71	H	1.216354	0.222391	0.000014
H72	H	1.716354	0.722391	0.500014
N73	N	1.486190	-0.025136	0.578000
N74	N	1.986190	0.474864	1.078000
N75	N	1.501629	-0.004000	0.442113
N76	N	2.001629	0.496000	0.942113
H77	H	1.551287	0.063926	0.387066
H78	H	2.051287	0.563926	0.887066
H79	H	1.442119	-0.085384	0.354199
H80	H	1.942119	0.414616	0.854199
