data_functionalizedCrystal
_audit_creation_method	'MofGen! by Chris Wilmer'
_symmetry_space_group_name_H-M	'P1'
_symmetry_Int_Tables_number	1
_symmetry_cell_setting	triclinic
loop_
_symmetry_equiv_pos_as_xyz
  x,y,z
_cell_length_a	16.120379
_cell_length_b	16.625547
_cell_length_c	16.120484
_cell_angle_alpha	87.074925
_cell_angle_beta	90.213218
_cell_angle_gamma	92.856851
loop_
_atom_site_label
_atom_site_type_symbol
_atom_site_fract_x
_atom_site_fract_y
_atom_site_fract_z
Zn1	Zn	0.487101	-1.193860	-0.306919
Zn2	Zn	0.355088	-1.193024	-0.453120
Zn3	Zn	0.348044	-1.065451	-0.314084
Zn4	Zn	0.494082	-1.051828	-0.445932
O5	O	0.421079	-1.126041	-0.380014
O6	O	0.469616	-1.306580	-0.326322
O7	O	0.237788	-1.181453	-0.440683
O8	O	0.360622	-1.088537	-0.196770
O9	O	0.372626	-1.305966	-0.433735
O10	O	0.462786	-1.182878	-0.191505
O11	O	0.232614	-1.087726	-0.338535
O12	O	0.367390	-0.950814	-0.331565
O13	O	0.609521	-1.065317	-0.421485
O14	O	0.474683	-0.940804	-0.428433
O15	O	0.604393	-1.169668	-0.319353
O16	O	0.379395	-1.168242	-0.568531
O17	O	0.481513	-1.064506	-0.563250
C18	C	0.421030	-0.916553	-0.379997
C19	C	0.421030	-0.826932	-0.380009
C20	C	0.421038	-0.754149	-0.380010
C21	C	0.421055	-0.662839	-0.380012
C22	C	0.421073	-0.590062	-0.380018
C23	C	0.421090	-0.498746	-0.380021
C24	C	0.205026	-1.136026	-0.391106
C25	C	0.112587	-1.140445	-0.395643
C26	C	-0.056659	-1.148524	-0.403927
C27	C	-0.100359	-1.103739	-0.355766
C28	C	-0.194533	-1.108234	-0.360375
C29	C	0.037524	-1.144030	-0.399319
C30	C	0.637973	-1.116066	-0.368818
C31	C	0.730400	-1.111816	-0.364047
C32	C	0.421118	-0.336347	-0.380028
C33	C	0.421108	-0.425969	-0.380027
C34	C	0.431994	-1.114826	-0.596062
C35	C	0.436691	-1.110101	-0.688486
C36	C	0.445284	-1.101478	-0.857707
C37	C	0.396887	-1.150747	-0.901480
C38	C	0.401669	-1.145950	-0.995640
C39	C	0.440504	-1.106275	-0.763538
C40	C	0.410140	-1.137320	-0.163122
C41	C	0.405478	-1.142127	-0.070695
H42	H	-0.067044	-1.062021	-0.311072
H43	H	-0.089972	-1.190238	-0.448617
C44	C	0.336039	-1.212576	-0.856581
H45	H	0.340752	-1.207718	-0.798268
H46	H	0.348944	-1.265484	-0.870068
H47	H	0.280868	-1.202651	-0.873698
H48	H	0.490304	-1.055697	-0.890946
