data_functionalizedCrystal
_audit_creation_method	'MofGen! by Chris Wilmer'
_symmetry_space_group_name_H-M	'P1'
_symmetry_Int_Tables_number	1
_symmetry_cell_setting	triclinic
loop_
_symmetry_equiv_pos_as_xyz
  x,y,z
_cell_length_a	14.908520
_cell_length_b	10.685980
_cell_length_c	10.685986
_cell_angle_alpha	89.692713
_cell_angle_beta	91.369077
_cell_angle_gamma	97.923910
loop_
_atom_site_label
_atom_site_type_symbol
_atom_site_fract_x
_atom_site_fract_y
_atom_site_fract_z
Zn1	Zn	-0.210139	1.845435	0.872092
Zn2	Zn	-0.371775	1.847389	0.674270
Zn3	Zn	-0.233210	1.649714	0.647940
Zn4	Zn	-0.373449	1.621494	0.868009
O5	O	-0.297143	1.741008	0.765578
O6	O	-0.221225	2.022142	0.858578
O7	O	-0.362348	1.833795	0.495889
O8	O	-0.103814	1.686670	0.668364
O9	O	-0.339977	2.023578	0.713240
O10	O	-0.086864	1.830466	0.833047
O11	O	-0.260546	1.688564	0.476544
O12	O	-0.262169	1.469523	0.664405
O13	O	-0.342831	1.638572	1.043439
O14	O	-0.365202	1.448789	0.826089
O15	O	-0.222848	1.803101	1.046439
O16	O	-0.498332	1.806430	0.709281
O17	O	-0.499562	1.640466	0.851620
C18	C	-0.316371	1.413405	0.741947
C19	C	-0.324617	1.273251	0.731869
C20	C	-0.531701	1.720630	0.782894
C21	C	-0.632037	1.712025	0.790352
C22	C	-0.819221	1.868829	0.656289
C23	C	-0.913496	1.860748	0.663293
C24	C	-0.914862	1.687788	0.811369
C25	C	-0.820587	1.695869	0.804365
C26	C	-0.772770	1.786392	0.726821
C27	C	-0.678495	1.794466	0.719812
C28	C	-0.679862	1.621513	0.867894
C29	C	-0.774137	1.613432	0.874897
C30	C	-0.061666	1.761498	0.748224
C31	C	0.038681	1.770230	0.740829
C32	C	-0.280452	1.717471	1.091554
C33	C	-0.273340	1.707440	1.230465
C34	C	-0.277841	2.069890	0.789301
C35	C	-0.269615	2.210040	0.799411
C36	C	-0.313699	1.764532	0.440871
C37	C	-0.320543	1.774829	0.301959
H38	H	-0.639563	1.868170	0.656668
Cl39	Cl	-0.202540	1.606518	1.300040
H40	H	-0.366389	1.840201	1.256895
H41	H	-0.953810	1.614097	0.874510
Cl42	Cl	-0.407064	1.191262	0.630667
H43	H	-0.813082	1.539734	0.938035
Cl44	Cl	-0.187163	1.292027	0.900594
H45	H	-0.780289	1.942528	0.593141
H46	H	-0.951312	1.927880	0.605861
H47	H	-0.642032	1.554383	0.925322
