data_functionalizedCrystal
_audit_creation_method	'MofGen! by Chris Wilmer'
_symmetry_space_group_name_H-M	'P1'
_symmetry_Int_Tables_number	1
_symmetry_cell_setting	triclinic
loop_
_symmetry_equiv_pos_as_xyz
  x,y,z
_cell_length_a	12.759401
_cell_length_b	16.120484
_cell_length_c	12.759393
_cell_angle_alpha	87.137118
_cell_angle_beta	90.018496
_cell_angle_gamma	92.925560
loop_
_atom_site_label
_atom_site_type_symbol
_atom_site_fract_x
_atom_site_fract_y
_atom_site_fract_z
Zn1	Zn	1.584972	-0.331853	0.615146
Zn2	Zn	1.575923	-0.471291	0.448359
Zn3	Zn	1.409271	-0.331897	0.439488
Zn4	Zn	1.400324	-0.471227	0.623996
O5	O	1.492622	-0.401567	0.531747
O6	O	1.730792	-0.350358	0.593030
O7	O	1.553774	-0.452845	0.300164
O8	O	1.440109	-0.215226	0.455373
O9	O	1.724144	-0.452803	0.470492
O10	O	1.569196	-0.215194	0.584428
O11	O	1.431335	-0.350433	0.293646
O12	O	1.261064	-0.350370	0.463955
O13	O	1.424860	-0.452693	0.769840
O14	O	1.254490	-0.452736	0.599512
O15	O	1.560520	-0.350296	0.763338
O16	O	1.545098	-0.587947	0.479074
O17	O	1.416086	-0.587900	0.608114
C18	C	1.219656	-0.401551	0.531732
C19	C	1.102879	-0.401565	0.531752
C20	C	1.044616	-0.454952	0.602231
C21	C	0.934891	-0.454962	0.602243
C22	C	0.941702	-0.348197	0.461287
C23	C	1.051425	-0.348183	0.461281
C24	C	1.040682	-0.516595	0.683607
C25	C	0.930958	-0.516605	0.683619
C26	C	1.478668	-0.618174	0.545540
C27	C	1.472794	-0.710839	0.551475
C28	C	1.462076	-0.880500	0.562334
C29	C	1.523357	-0.921793	0.501178
C30	C	1.517393	-1.016198	0.507219
C31	C	1.468038	-0.786086	0.556293
C32	C	1.766655	-0.401583	0.531763
C33	C	1.883431	-0.401590	0.531770
C34	C	1.492701	-0.401483	0.805775
C35	C	1.492735	-0.401447	0.922550
C36	C	1.506660	-0.184114	0.517924
C37	C	1.512642	-0.091448	0.512033
C38	C	1.492608	-0.401590	0.258781
C39	C	1.492793	-0.401391	0.141992
C40	C	1.563383	-0.348123	0.974027
C41	C	1.563410	-0.348093	1.083750
C42	C	1.422138	-0.454717	1.090507
C43	C	1.422106	-0.454742	0.980787
C44	C	1.644948	-0.286568	0.970127
C45	C	1.644975	-0.286538	1.079849
H46	H	1.098859	-0.304705	0.403897
O47	O	1.615091	-0.213355	1.115941
C48	C	1.662932	-0.094690	1.216581
C49	C	1.696909	-0.177555	1.175789
H50	H	1.729072	-0.065713	1.264958
H51	H	1.589900	-0.106532	1.267680
H52	H	1.644689	-0.050449	1.147228
H53	H	1.715209	-0.221837	1.245078
H54	H	1.769909	-0.165649	1.124658
H55	H	0.898438	-0.493558	0.759501
O56	O	0.890582	-0.593673	0.662487
C57	C	0.877842	-0.739361	0.715808
C58	C	0.923656	-0.652137	0.739848
H59	H	0.904545	-0.786651	0.778352
H60	H	0.906494	-0.756654	0.635531
H61	H	0.788496	-0.739339	0.715779
H62	H	1.013002	-0.652094	0.739934
H63	H	0.894921	-0.634879	0.820108
H64	H	1.580299	-0.886244	0.444283
H65	H	1.405137	-0.916046	0.619223
H66	H	1.364575	-0.498160	0.938878
O67	O	1.353639	-0.506463	1.147242
C68	C	1.291031	-0.553642	1.319264
C69	C	1.368677	-0.495009	1.255145
H70	H	1.303147	-0.544389	1.406515
H71	H	1.305135	-0.620892	1.302039
H72	H	1.207266	-0.539011	1.296692
H73	H	1.452472	-0.509565	1.277680
H74	H	1.354482	-0.427777	1.272376
O75	O	1.735354	-0.314289	0.931406
C76	C	1.850939	-0.427691	0.926769
C77	C	1.748544	-0.396393	0.970715
H78	H	1.861625	-0.494081	0.958515
H79	H	1.920227	-0.385786	0.951728
H80	H	1.846732	-0.426391	0.837456
H81	H	1.752648	-0.397694	1.060029
H82	H	1.679299	-0.438305	0.945674
H83	H	1.627321	-0.222003	0.936253
H84	H	1.070765	-0.577896	0.658232
H85	H	0.899795	-0.304734	0.403914
O86	O	1.077397	-0.496001	0.779454
C87	C	1.034048	-0.458603	0.954142
C88	C	0.992329	-0.481895	0.845642
H89	H	0.965290	-0.447208	1.007692
H90	H	1.087425	-0.399764	0.945275
H91	H	1.080325	-0.511656	0.989805
H92	H	0.946005	-0.428896	0.809918
H93	H	0.939007	-0.540760	0.854577
H94	H	1.725237	-0.303830	1.110730
