data_functionalizedCrystal
_audit_creation_method	'MofGen! by Chris Wilmer'
_symmetry_space_group_name_H-M	'P1'
_symmetry_Int_Tables_number	1
_symmetry_cell_setting	triclinic
loop_
_symmetry_equiv_pos_as_xyz
  x,y,z
_cell_length_a	15.944551
_cell_length_b	15.944551
_cell_length_c	14.421503
_cell_angle_alpha	90.003141
_cell_angle_beta	90.003340
_cell_angle_gamma	96.501262
loop_
_atom_site_label
_atom_site_type_symbol
_atom_site_fract_x
_atom_site_fract_y
_atom_site_fract_z
O1	O	0.108320	-1.114529	-0.077017
O2	O	0.608320	-0.614529	0.422983
O3	O	0.121677	-0.869980	-0.077040
O4	O	0.621677	-0.369980	0.422960
O5	O	-0.007276	-0.998933	-0.077020
O6	O	0.492724	-0.498933	0.422980
O7	O	0.237273	-0.985576	-0.077038
O8	O	0.737273	-0.485576	0.422962
O9	O	-0.007257	-0.998911	0.077204
O10	O	0.492743	-0.498911	0.577204
O11	O	0.121696	-0.869958	0.077183
O12	O	0.621696	-0.369958	0.577183
O13	O	0.108340	-1.114508	0.077206
O14	O	0.608340	-0.614508	0.577206
Cu15	Cu	0.115020	-0.992231	0.091277
Cu16	Cu	0.615020	-0.492231	0.591277
Cu17	Cu	0.114997	-0.992256	-0.091110
Cu18	Cu	0.614997	-0.492256	0.408890
O19	O	0.237293	-0.985555	0.077186
O20	O	0.737293	-0.485555	0.577186
C21	C	-0.038561	-0.998367	0.000092
C22	C	0.461439	-0.498367	0.500092
C23	C	-0.131807	-0.996705	0.000093
C24	C	0.368193	-0.496705	0.500093
C25	C	0.121132	-0.838675	0.000069
C26	C	0.621132	-0.338675	0.500069
C27	C	0.119470	-0.745429	0.000060
C28	C	0.619470	-0.245429	0.500060
C29	C	0.108885	-1.145813	0.000096
C30	C	0.608885	-0.645813	0.500096
C31	C	0.110547	-1.239059	0.000098
C32	C	0.610547	-0.739059	0.500098
C33	C	-0.346663	-0.912801	0.000072
C34	C	0.153337	-0.412801	0.500072
C35	C	-0.407671	-0.951753	0.076117
C36	C	0.092329	-0.451753	0.576117
C37	C	-0.302533	-0.993698	0.000085
C38	C	0.197467	-0.493698	0.500085
C39	C	-0.407674	-0.951793	-0.075935
C40	C	0.092326	-0.451793	0.424065
C41	C	-0.467445	-0.990787	0.000074
C42	C	0.032555	-0.490787	0.500074
C43	C	-0.362312	-1.032672	0.076193
C44	C	0.137688	-0.532672	0.576193
C45	C	-0.362308	-1.032701	-0.075927
C46	C	0.137692	-0.532701	0.424073
C47	C	-0.423298	-1.071711	0.000136
C48	C	0.076702	-0.571711	0.500136
C49	C	-0.207530	-0.995372	0.000092
C50	C	0.292470	-0.495372	0.500092
C51	C	-0.562446	-0.989119	0.000073
C52	C	-0.062446	-0.489119	0.500073
C53	C	0.268577	-0.986120	0.000072
C54	C	0.768577	-0.486120	0.500072
C55	C	0.361823	-0.987782	0.000066
C56	C	0.861823	-0.487782	0.500066
N57	N	0.115035	-0.992219	0.219558
N58	N	0.615035	-0.492219	0.719558
C59	C	0.035565	-0.530572	0.000084
C60	C	0.535565	-0.030572	0.500084
C61	C	0.074518	-0.469563	-0.075959
C62	C	0.574518	0.030437	0.424041
C63	C	0.116462	-0.574703	0.000071
C64	C	0.616462	-0.074703	0.500071
C65	C	0.074556	-0.469564	0.076093
C66	C	0.574556	0.030436	0.576093
C67	C	0.113551	-0.409790	0.000086
C68	C	0.613551	0.090210	0.500086
C69	C	0.155437	-0.514922	-0.076035
C70	C	0.655437	-0.014922	0.423965
C71	C	0.155464	-0.514929	0.076086
C72	C	0.655464	-0.014929	0.576086
C73	C	0.194476	-0.453937	0.000024
C74	C	0.694476	0.046063	0.500024
C75	C	0.118137	-0.669705	0.000062
C76	C	0.618137	-0.169705	0.500062
C77	C	0.111883	-0.314789	0.000089
C78	C	0.611883	0.185211	0.500089
N79	N	0.114975	-0.992275	-0.219392
N80	N	0.614975	-0.492275	0.280608
C81	C	0.174636	-0.932581	0.469202
C82	C	0.674636	-0.432581	0.969202
C83	C	0.190943	-1.008481	0.531011
C84	C	0.690943	-0.508481	1.031011
C85	C	0.115015	-0.992240	0.408719
C86	C	0.615015	-0.492240	0.908719
C87	C	0.098727	-0.916359	0.531005
C88	C	0.598727	-0.416359	1.031005
C89	C	0.114997	-0.992253	0.591441
C90	C	0.614997	-0.492253	1.091441
C91	C	0.131360	-1.068178	0.469167
C92	C	0.631360	-0.568178	0.969167
C93	C	0.039111	-0.976007	0.469156
C94	C	0.539111	-0.476007	0.969156
C95	C	0.055386	-1.051961	0.530936
C96	C	0.555386	-0.551961	1.030936
C97	C	0.115027	-0.992231	0.303458
C98	C	0.615027	-0.492231	0.803458
C99	C	0.114985	-0.992270	0.696700
C100	C	0.614985	-0.492270	1.196700
H101	H	-0.313356	-0.845652	0.000141
H102	H	0.186644	-0.345652	0.500141
H103	H	-0.456457	-1.138919	0.000186
H104	H	0.043543	-0.638919	0.500186
H105	H	0.145205	-1.132368	0.442119
H106	H	0.645205	-0.632368	0.942119
H107	H	0.189620	-0.534918	-0.140394
H108	H	0.689620	-0.034918	0.359606
H109	H	0.004956	-1.102474	0.557872
H110	H	0.504956	-0.602474	1.057872
H111	H	-0.427758	-0.917575	-0.140230
H112	H	0.072242	-0.417575	0.359770
H113	H	-0.342186	-1.066897	-0.140214
H114	H	0.157814	-0.566897	0.359786
H115	H	0.225096	-0.882181	0.442096
H116	H	0.725096	-0.382181	0.942096
H117	H	0.040333	-0.449469	0.140379
H118	H	0.540333	0.050531	0.640379
H119	H	-0.031573	-0.563905	-0.000005
H120	H	0.468427	-0.063905	0.499995
H121	H	0.261683	-0.420779	-0.000023
H122	H	0.761683	0.079221	0.499977
H123	H	0.040294	-0.449461	-0.140243
H124	H	0.540294	0.050539	0.359757
H125	H	-0.025051	-0.962240	0.441965
H126	H	0.474949	-0.462240	0.941965
H127	H	0.189660	-0.535052	0.140373
H128	H	0.689660	-0.035052	0.640373
H129	H	0.084959	-0.852183	0.558170
H130	H	0.584959	-0.352183	1.058170
H131	H	0.255126	-1.022224	0.558180
H132	H	0.755126	-0.522224	1.058180
H133	H	-0.342314	-1.066850	0.140554
H134	H	0.157686	-0.566850	0.640554
H135	H	-0.427771	-0.917527	0.140401
H136	H	0.072229	-0.417527	0.640401
