data_functionalizedCrystal
_audit_creation_method	'MofGen! by Chris Wilmer'
_symmetry_space_group_name_H-M	'P1'
_symmetry_Int_Tables_number	1
_symmetry_cell_setting	triclinic
loop_
_symmetry_equiv_pos_as_xyz
  x,y,z
_cell_length_a	9.065218
_cell_length_b	11.026607
_cell_length_c	8.140239
_cell_angle_alpha	89.998310
_cell_angle_beta	89.997198
_cell_angle_gamma	96.800951
loop_
_atom_site_label
_atom_site_type_symbol
_atom_site_fract_x
_atom_site_fract_y
_atom_site_fract_z
O1	O	2.004900	0.178453	-0.136613
O2	O	1.579265	0.193091	-0.136615
O3	O	1.756806	0.008731	-0.136608
O4	O	1.827358	0.362813	-0.136620
O5	O	1.756793	0.008729	0.136619
O6	O	1.579252	0.193088	0.136612
O7	O	2.004886	0.178451	0.136614
Zn8	Zn	1.792067	0.185769	0.179994
Zn9	Zn	1.792084	0.185772	-0.179994
O10	O	1.827345	0.362810	0.136608
C11	C	1.523921	0.191683	-0.000001
C12	C	1.359029	0.187476	-0.000002
C13	C	1.743784	-0.036624	0.000004
C14	C	1.704984	-0.171765	-0.000002
C15	C	1.812117	-0.244393	-0.000004
C16	C	1.772018	-0.384068	-0.000011
C17	C	2.060230	0.179859	-0.000003
C18	C	2.225122	0.184065	-0.000013
C19	C	1.840368	0.408165	-0.000008
C20	C	1.879168	0.543306	-0.000012
N21	N	1.792066	0.185767	0.425677
N22	N	1.792095	0.185765	-0.425677
H23	H	1.650603	-0.425288	-0.000022
H24	H	1.583576	-0.212990	-0.000014
H25	H	2.000584	-0.415476	-0.000135
C26	C	1.976136	-0.188711	-0.000000
C27	C	2.037077	-0.104953	0.141884
C28	C	2.201099	-0.049274	0.141888
C29	C	2.304182	-0.077353	0.000009
C30	C	2.243243	-0.161115	-0.141885
C31	C	2.079221	-0.216794	-0.141890
H32	H	1.960767	-0.084164	0.246921
H33	H	2.246209	0.012732	0.246928
H34	H	2.425601	-0.036136	0.000012
H35	H	2.319552	-0.181904	-0.246922
H36	H	2.034111	-0.278800	-0.246930
