data_functionalizedCrystal
_audit_creation_method	'MofGen! by Chris Wilmer'
_symmetry_space_group_name_H-M	'P1'
_symmetry_Int_Tables_number	1
_symmetry_cell_setting	triclinic
loop_
_symmetry_equiv_pos_as_xyz
  x,y,z
_cell_length_a	18.050591
_cell_length_b	18.050588
_cell_length_c	21.295412
_cell_angle_alpha	90.025584
_cell_angle_beta	90.025510
_cell_angle_gamma	90.022644
loop_
_atom_site_label
_atom_site_type_symbol
_atom_site_fract_x
_atom_site_fract_y
_atom_site_fract_z
Zn1	Zn	-1.135297	0.295811	-0.356088
Zn2	Zn	-0.635297	0.795811	0.143912
Zn3	Zn	-1.135201	0.420004	-0.250824
Zn4	Zn	-0.635201	0.920004	0.249176
Zn5	Zn	-1.011113	0.295817	-0.250816
Zn6	Zn	-0.511113	0.795817	0.249184
Zn7	Zn	-1.011061	0.419949	-0.356039
Zn8	Zn	-0.511061	0.919949	0.143961
O9	O	-1.073168	0.357895	-0.303442
O10	O	-0.573168	0.857895	0.196558
O11	O	-1.239209	0.312306	-0.342148
O12	O	-0.739209	0.812306	0.157852
O13	O	-1.118722	0.403556	-0.162733
O14	O	-0.618722	0.903556	0.337267
O15	O	-1.027648	0.191892	-0.264799
O16	O	-0.527648	0.691892	0.235201
O17	O	-1.239138	0.403550	-0.264811
O18	O	-0.739138	0.903550	0.235189
O19	O	-1.118885	0.191887	-0.342141
O20	O	-0.618885	0.691887	0.157859
O21	O	-1.027555	0.312317	-0.162728
O22	O	-0.527555	0.812317	0.337272
O23	O	-0.907181	0.312263	-0.264751
O24	O	-0.407181	0.812263	0.235249
O25	O	-1.027560	0.403456	-0.444135
O26	O	-0.527560	0.903456	0.055865
O27	O	-0.907143	0.403462	-0.342057
O28	O	-0.407143	0.903462	0.157943
O29	O	-1.118835	0.312253	-0.444171
O30	O	-0.618835	0.812253	0.055829
O31	O	-1.118672	0.523921	-0.264763
O32	O	-0.618672	1.023921	0.235237
O33	O	-1.027467	0.523881	-0.342064
O34	O	-0.527467	1.023881	0.157936
C35	C	-0.880216	0.357858	-0.303398
C36	C	-0.380216	0.857858	0.196602
C37	C	-0.797670	0.357860	-0.303395
C38	C	-0.297670	0.857860	0.196605
C39	C	-0.598218	0.308198	-0.261443
C40	C	-0.098218	0.808198	0.238557
C41	C	-0.548797	0.375933	-0.245951
C42	C	-0.048797	0.875933	0.254049
C43	C	-0.646540	0.357875	-0.303416
C44	C	-0.146540	0.857875	0.196584
C45	C	-0.548880	0.290156	-0.318900
C46	C	-0.048880	0.790156	0.181100
C47	C	-0.500555	0.357883	-0.303436
C48	C	-0.000555	0.857883	0.196564
C49	C	-0.598205	0.425645	-0.287894
C50	C	-0.098205	0.925645	0.212106
C51	C	-0.598292	0.339822	-0.360870
C52	C	-0.098292	0.839822	0.139130
C53	C	-0.548893	0.407604	-0.345399
C54	C	-0.048893	0.907604	0.154601
C55	C	-0.730638	0.357869	-0.303403
C56	C	-0.230638	0.857869	0.196597
C57	C	-0.416458	0.357896	-0.303449
C58	C	0.083542	0.857896	0.196551
C59	C	-1.073202	0.357847	-0.467632
C60	C	-0.573202	0.857847	0.032368
C61	C	-1.073217	0.357827	-0.537600
C62	C	-0.573217	0.857827	-0.037600
C63	C	-1.073074	0.550848	-0.303423
C64	C	-0.573074	1.050848	0.196577
C65	C	-1.073101	0.633393	-0.303436
C66	C	-0.573101	1.133393	0.196564
C67	C	-0.266873	0.357921	-0.303475
C68	C	0.233127	0.857921	0.196525
C69	C	-0.349419	0.357899	-0.303459
C70	C	0.150581	0.857899	0.196541
C71	C	-1.073283	0.164190	-0.303475
C72	C	-0.573283	0.664190	0.196525
C73	C	-1.073332	0.081644	-0.303488
C74	C	-0.573332	0.581644	0.196512
C75	C	-1.023582	0.882224	-0.345473
C76	C	-0.523582	1.382224	0.154527
C77	C	-1.091299	0.832762	-0.360929
C78	C	-0.591299	1.332762	0.139071
C79	C	-1.073256	0.930514	-0.303471
C80	C	-0.573256	1.430514	0.196529
C81	C	-1.005466	0.832894	-0.288027
C82	C	-0.505466	1.332894	0.211973
C83	C	-1.073176	0.784529	-0.303455
C84	C	-0.573176	1.284529	0.196545
C85	C	-1.141009	0.882139	-0.318957
C86	C	-0.641009	1.382139	0.181043
C87	C	-1.055131	0.882275	-0.246028
C88	C	-0.555131	1.382275	0.253972
C89	C	-1.122894	0.832836	-0.261463
C90	C	-0.622894	1.332836	0.238537
C91	C	-1.073300	1.014612	-0.303482
C92	C	-0.573300	1.514612	0.196518
C93	C	-1.073139	0.700432	-0.303445
C94	C	-0.573139	1.200432	0.196555
C95	C	-1.120814	0.310220	-1.037078
C96	C	-0.620814	0.810220	-0.537078
C97	C	-1.120809	0.310238	-0.971336
C98	C	-0.620809	0.810238	-0.471336
C99	C	-1.073281	0.357729	-0.938440
C100	C	-0.573281	0.857729	-0.438440
C101	C	-1.025769	0.405219	-0.971292
C102	C	-0.525769	0.905219	-0.471292
C103	C	-1.025782	0.405205	-1.037033
C104	C	-0.525782	0.905205	-0.537033
N105	N	-1.008251	0.363435	-0.835203
N106	N	-0.508251	0.863435	-0.335203
N107	N	-1.008241	0.363445	-0.772752
N108	N	-0.508241	0.863445	-0.272752
C109	C	-1.073242	0.357775	-0.740365
C110	C	-0.573242	0.857775	-0.240365
N111	N	-1.138254	0.352082	-0.772789
N112	N	-0.638254	0.852082	-0.272789
N113	N	-1.138263	0.352069	-0.835247
N114	N	-0.638263	0.852069	-0.335247
C115	C	-1.073263	0.357750	-0.867155
C116	C	-0.573263	0.857750	-0.367155
C117	C	-1.120748	0.310311	-0.636235
C118	C	-0.620748	0.810311	-0.136235
C119	C	-1.120744	0.310334	-0.570492
C120	C	-0.620744	0.810334	-0.070492
C121	C	-1.025698	0.405312	-0.570449
C122	C	-0.525698	0.905312	-0.070449
C123	C	-1.025709	0.405293	-0.636192
C124	C	-0.525709	0.905293	-0.136192
C125	C	-1.073233	0.357788	-0.669081
C126	C	-0.573233	0.857788	-0.169081
C127	C	-1.073177	0.357890	-0.139890
C128	C	-0.573177	0.857890	0.360110
C129	C	-1.073306	0.357701	-0.069923
C130	C	-0.573306	0.857701	0.430077
H131	H	-0.527372	0.449665	-0.380903
H132	H	-0.027372	0.949665	0.119097
C133	C	-0.627629	0.319192	-0.426502
C134	C	-0.127629	0.819192	0.073498
H135	H	-0.656558	0.358858	-0.442555
H136	H	-0.156558	0.858858	0.057445
H137	H	-0.657347	0.275884	-0.423611
H138	H	-0.157347	0.775884	0.076389
H139	H	-0.587058	0.310120	-0.453843
H140	H	-0.087058	0.810120	0.046157
H141	H	-1.106600	0.811015	-0.409500
H142	H	-0.606600	1.311015	0.090500
C143	C	-0.966955	0.911529	-0.393498
C144	C	-0.466955	1.411529	0.106502
H145	H	-0.979931	0.894574	-0.434288
H146	H	-0.479931	1.394574	0.065712
H147	H	-0.918948	0.893946	-0.382935
H148	H	-0.418948	1.393946	0.117065
H149	H	-0.967067	0.964154	-0.392908
H150	H	-0.467067	1.464154	0.107092
C151	C	-1.173061	0.257998	-0.935199
C152	C	-0.673061	0.757998	-0.435199
H153	H	-1.201360	0.229700	-0.964203
H154	H	-0.701360	0.729700	-0.464203
H155	H	-1.205401	0.286407	-0.909550
H156	H	-0.705401	0.786407	-0.409550
H157	H	-1.144648	0.225644	-0.909559
H158	H	-0.644648	0.725644	-0.409559
H159	H	-0.987073	0.443888	-0.944504
H160	H	-0.487073	0.943888	-0.444504
H161	H	-0.527057	0.391210	-0.197372
H162	H	-0.027057	0.891210	0.302628
C163	C	-1.173006	0.258103	-0.534363
C164	C	-0.673006	0.758103	-0.034363
H165	H	-1.201304	0.229806	-0.563368
H166	H	-0.701304	0.729806	-0.063368
H167	H	-1.205347	0.286519	-0.508720
H168	H	-0.705347	0.786519	-0.008720
H169	H	-1.144603	0.225747	-0.508717
H170	H	-0.644603	0.725747	-0.008717
H171	H	-0.987019	0.443954	-0.662934
H172	H	-0.487019	0.943954	-0.162934
H173	H	-0.987003	0.443983	-0.543666
H174	H	-0.487003	0.943983	-0.043666
H175	H	-1.159515	0.271541	-1.063853
H176	H	-0.659515	0.771541	-0.563853
C177	C	-0.627347	0.503036	-0.270134
C178	C	-0.127347	1.003036	0.229866
H179	H	-0.679977	0.502554	-0.270214
H180	H	-0.179977	1.002554	0.229786
H181	H	-0.610064	0.538353	-0.299769
H182	H	-0.110064	1.038353	0.200231
H183	H	-0.609989	0.515940	-0.229452
H184	H	-0.109989	1.015940	0.270548
C185	C	-0.973515	0.457431	-1.073163
C186	C	-0.473515	0.957431	-0.573163
H187	H	-0.945205	0.485717	-1.044159
H188	H	-0.445205	0.985717	-0.544159
H189	H	-1.001908	0.489786	-1.098812
H190	H	-0.501908	0.989786	-0.598812
H191	H	-0.941174	0.429004	-1.098804
H192	H	-0.441174	0.929004	-0.598804
H193	H	-1.198320	0.903682	-0.332069
H194	H	-0.698320	1.403682	0.167931
C195	C	-0.519612	0.212788	-0.336586
C196	C	-0.019612	0.712788	0.163414
H197	H	-0.536510	0.177553	-0.306715
H198	H	-0.036510	0.677553	0.193285
H199	H	-0.466991	0.213453	-0.336844
H200	H	0.033009	0.713453	0.163156
H201	H	-0.537295	0.199621	-0.377107
H202	H	-0.037295	0.699621	0.122893
C203	C	-1.173023	0.258065	-0.672419
C204	C	-0.673023	0.758065	-0.172419
H205	H	-1.166219	0.264849	-0.716277
H206	H	-0.666219	0.764849	-0.216277
H207	H	-1.222915	0.268942	-0.661658
H208	H	-0.722915	0.768942	-0.161658
H209	H	-1.162174	0.208166	-0.661650
H210	H	-0.662174	0.708166	-0.161650
C211	C	-1.179656	0.803709	-0.213475
C212	C	-0.679656	1.303709	0.286525
H213	H	-1.154917	0.774779	-0.182674
H214	H	-0.654917	1.274779	0.317326
H215	H	-1.215438	0.774027	-0.234417
H216	H	-0.715438	1.274027	0.265583
H217	H	-1.203624	0.844353	-0.193723
H218	H	-0.703624	1.344353	0.306277
C219	C	-0.627485	0.251515	-0.213448
C220	C	-0.127485	0.751515	0.286552
H221	H	-0.610536	0.264469	-0.172652
H222	H	-0.110536	0.764469	0.327348
H223	H	-0.609872	0.203528	-0.224039
H224	H	-0.109872	0.703528	0.275961
H225	H	-0.680111	0.251594	-0.214035
H226	H	-0.180111	0.751594	0.285965
C227	C	-1.034433	0.911685	-0.180435
C228	C	-0.534433	1.411685	0.319565
H229	H	-0.986255	0.894857	-0.169529
H230	H	-0.486255	1.394857	0.330471
H231	H	-1.069197	0.894042	-0.150486
H232	H	-0.569197	1.394042	0.349514
H233	H	-1.035056	0.964309	-0.180830
H234	H	-0.535056	1.464309	0.319170
H235	H	-0.948171	0.811258	-0.274971
H236	H	-0.448171	1.311258	0.225029
