data_functionalizedCrystal
_audit_creation_method	'MofGen! by Chris Wilmer'
_symmetry_space_group_name_H-M	'P1'
_symmetry_Int_Tables_number	1
_symmetry_cell_setting	triclinic
loop_
_symmetry_equiv_pos_as_xyz
  x,y,z
_cell_length_a	12.759401
_cell_length_b	16.625545
_cell_length_c	12.759393
_cell_angle_alpha	89.967170
_cell_angle_beta	89.979062
_cell_angle_gamma	90.027083
loop_
_atom_site_label
_atom_site_type_symbol
_atom_site_fract_x
_atom_site_fract_y
_atom_site_fract_z
Zn1	Zn	1.606187	-0.320930	-0.594003
Zn2	Zn	1.606045	-0.455784	-0.418316
Zn3	Zn	1.430486	-0.320973	-0.418338
Zn4	Zn	1.430444	-0.455728	-0.593953
O5	O	1.518291	-0.388354	-0.506153
O6	O	1.753189	-0.338824	-0.570709
O7	O	1.582714	-0.437943	-0.271298
O8	O	1.453870	-0.208135	-0.441671
O9	O	1.753085	-0.437901	-0.441633
O10	O	1.582957	-0.208103	-0.570731
O11	O	1.453732	-0.338897	-0.271314
O12	O	1.283459	-0.338843	-0.441622
O13	O	1.453799	-0.437805	-0.740981
O14	O	1.283429	-0.437847	-0.570646
O15	O	1.582917	-0.338770	-0.741018
O16	O	1.582674	-0.568609	-0.441585
O17	O	1.453661	-0.568568	-0.570624
C18	C	1.245323	-0.388344	-0.506132
C19	C	1.128547	-0.388359	-0.506148
C20	C	1.073696	-0.439989	-0.573225
C21	C	0.963972	-0.439992	-0.573245
C22	C	0.963958	-0.336733	-0.439104
C23	C	1.073680	-0.336727	-0.439089
C24	C	1.518176	-0.597844	-0.506120
C25	C	1.518224	-0.687466	-0.506141
C26	C	1.518265	-0.760248	-0.506161
C27	C	1.518326	-0.851556	-0.506185
C28	C	1.518380	-0.924333	-0.506198
C29	C	1.518440	-1.015647	-0.506219
C30	C	1.792324	-0.388364	-0.506174
C31	C	1.909100	-0.388369	-0.506183
C32	C	1.518369	-0.388276	-0.780186
C33	C	1.518403	-0.388243	-0.896963
C34	C	1.518434	-0.178045	-0.506209
C35	C	1.518495	-0.088424	-0.506233
C36	C	1.585639	-0.336667	-0.951846
C37	C	1.585657	-0.336632	-1.061570
C38	C	1.451199	-0.439757	-1.061519
C39	C	1.451177	-0.439787	-0.951797
C40	C	1.518273	-0.388373	-0.233185
C41	C	1.518443	-0.388178	-0.116409
H42	H	1.640376	-0.294695	-0.907203
O43	O	1.132841	-0.281045	-0.366719
H44	H	1.111820	-0.217779	-0.384872
H45	H	1.640406	-0.294633	-1.106250
H46	H	1.396468	-0.481723	-1.106178
H47	H	1.396417	-0.481785	-0.907110
H48	H	0.919318	-0.482033	-0.627868
O49	O	1.132879	-0.495665	-0.645561
H50	H	1.076299	-0.531560	-0.692215
O51	O	0.904793	-0.281049	-0.366764
H52	H	0.925825	-0.294803	-0.284279
