data_functionalizedCrystal
_audit_creation_method	'MofGen! by Chris Wilmer'
_symmetry_space_group_name_H-M	'P1'
_symmetry_Int_Tables_number	1
_symmetry_cell_setting	triclinic
loop_
_symmetry_equiv_pos_as_xyz
  x,y,z
_cell_length_a	11.792240
_cell_length_b	17.038272
_cell_length_c	10.268362
_cell_angle_alpha	90.001146
_cell_angle_beta	90.014630
_cell_angle_gamma	92.347513
loop_
_atom_site_label
_atom_site_type_symbol
_atom_site_fract_x
_atom_site_fract_y
_atom_site_fract_z
O1	O	-0.246565	1.038457	-0.108184
O2	O	-0.242650	0.810809	-0.108221
O3	O	-0.079921	0.930157	-0.108162
O4	O	-0.409294	0.919108	-0.108243
O5	O	-0.079913	0.930146	0.108438
O6	O	-0.242642	0.810798	0.108379
O7	O	-0.246557	1.038446	0.108417
Cu8	Cu	-0.244599	0.924621	0.128175
Cu9	Cu	-0.244608	0.924633	-0.127980
O10	O	-0.409286	0.919098	0.108357
C11	C	-0.239085	0.781659	0.000075
C12	C	-0.228461	0.694819	0.000062
C13	C	-0.037565	0.929458	0.000145
C14	C	0.088630	0.927380	0.000167
C15	C	0.319677	0.923561	0.000187
C16	C	0.191106	0.925683	0.000176
C17	C	0.548358	0.919797	0.000093
C18	C	0.422163	0.921874	0.000201
C19	C	-0.326001	0.645136	0.000039
C20	C	-0.316012	0.563542	0.000060
C21	C	-0.208482	0.531632	0.000094
C22	C	-0.110935	0.581321	0.000121
C23	C	-0.120925	0.662914	0.000110
C24	C	-0.173189	0.285718	0.000137
C25	C	-0.163206	0.204118	0.000144
C26	C	-0.368284	0.186344	0.000086
C27	C	-0.378265	0.267940	0.000067
C28	C	-0.280718	0.317622	0.000101
C29	C	-0.198269	0.448229	0.000111
C30	C	-0.290932	0.401023	0.000093
C31	C	-0.250122	1.067595	0.000118
C32	C	-0.260746	1.154435	0.000122
N33	N	-0.244592	0.924618	0.308341
N34	N	-0.244607	0.924643	-0.308146
C35	C	-0.244606	0.924630	0.574012
C36	C	-0.244601	0.924621	0.426174
H37	H	-0.413563	0.671111	0.000011
C38	C	-0.571994	0.176973	0.000022
C39	C	-0.475504	0.131733	0.000057
H40	H	-0.638189	0.143257	-0.000001
H41	H	-0.571622	0.209168	0.075549
H42	H	-0.571617	0.209166	-0.075519
H43	H	-0.475877	0.099544	0.075603
H44	H	-0.475877	0.099524	-0.075477
H45	H	-0.075638	0.178141	0.000171
H46	H	-0.041497	0.703366	0.000127
H47	H	-0.395440	0.523092	0.000040
C48	C	-0.421120	0.482458	-0.111312
C49	C	-0.409129	0.436094	0.000047
H50	H	-0.494094	0.504109	-0.111347
H51	H	-0.364461	0.523719	-0.111282
H52	H	-0.412955	0.450984	-0.186829
H53	H	-0.417285	0.467569	0.075564
H54	H	-0.465804	0.394827	0.000029
C55	C	0.066935	0.571353	-0.111174
C56	C	0.007266	0.546249	0.000156
H57	H	0.139910	0.549705	-0.111149
H58	H	0.026440	0.554322	-0.186702
H59	H	0.074936	0.627058	-0.111159
H60	H	-0.000743	0.490544	0.000136
H61	H	0.047771	0.563275	0.075703
H62	H	-0.093758	0.326160	0.000166
H63	H	-0.110718	0.422239	0.000175
C64	C	-0.508463	0.349345	-0.111388
C65	C	-0.496476	0.302997	-0.000011
H66	H	-0.581448	0.370979	-0.111454
H67	H	-0.451823	0.390619	-0.111354
H68	H	-0.500264	0.317866	-0.186892
H69	H	-0.504666	0.334478	0.075494
H70	H	-0.553132	0.261717	-0.000034
