data_functionalizedCrystal
_audit_creation_method	'MofGen! by Chris Wilmer'
_symmetry_space_group_name_H-M	'P1'
_symmetry_Int_Tables_number	1
_symmetry_cell_setting	triclinic
loop_
_symmetry_equiv_pos_as_xyz
  x,y,z
_cell_length_a	12.645331
_cell_length_b	12.645330
_cell_length_c	12.759393
_cell_angle_alpha	89.970851
_cell_angle_beta	90.017212
_cell_angle_gamma	89.973403
loop_
_atom_site_label
_atom_site_type_symbol
_atom_site_fract_x
_atom_site_fract_y
_atom_site_fract_z
Zn1	Zn	1.620660	0.421965	0.593963
Zn2	Zn	1.620518	0.599269	0.418290
Zn3	Zn	1.443377	0.422022	0.418306
Zn4	Zn	1.443330	0.599188	0.593936
O5	O	1.531972	0.510611	0.506124
O6	O	1.768989	0.445495	0.570664
O7	O	1.596980	0.575814	0.271271
O8	O	1.466973	0.273667	0.441625
O9	O	1.768884	0.575760	0.441599
O10	O	1.597222	0.273625	0.570680
O11	O	1.466836	0.445591	0.271283
O12	O	1.295024	0.445513	0.441599
O13	O	1.466893	0.575622	0.740961
O14	O	1.294989	0.575677	0.570634
O15	O	1.597177	0.445417	0.740980
O16	O	1.596935	0.747606	0.441572
O17	O	1.466756	0.747546	0.570618
C18	C	1.256542	0.510593	0.506116
C19	C	1.138712	0.510610	0.506137
C20	C	1.093844	0.592636	0.587194
C21	C	0.971284	0.592973	0.586953
C22	C	0.970755	0.540459	0.395281
C23	C	1.093353	0.541038	0.395750
C24	C	1.093582	0.398562	0.534968
C25	C	0.970976	0.399181	0.537409
C26	C	1.531853	0.786041	0.506113
C27	C	1.531900	0.903871	0.506144
C28	C	1.450317	1.071442	0.587580
C29	C	1.449918	0.948882	0.587316
C30	C	1.501649	0.948475	0.395424
C31	C	1.501133	1.071074	0.395920
C32	C	1.644176	1.070957	0.534536
C33	C	1.643506	0.948350	0.536956
C34	C	1.808477	0.510630	0.506133
C35	C	1.926307	0.510638	0.506136
C36	C	1.532046	0.510504	0.780157
C37	C	1.532077	0.510459	0.896934
C38	C	1.532082	1.234106	0.506161
C39	C	1.532034	1.116276	0.506187
C40	C	1.531959	0.510641	0.233157
C41	C	1.532132	0.510388	0.116380
C42	C	1.599925	0.442654	0.951808
C43	C	1.599951	0.442616	1.061532
C44	C	1.464277	0.578195	1.061499
C45	C	1.464247	0.578228	0.951776
C46	C	1.678259	0.364382	0.951829
C47	C	1.678284	0.364343	1.061553
H48	H	0.941232	0.574370	0.669137
H49	H	1.707605	0.917704	0.481989
H50	H	1.648923	0.286337	1.095598
F51	F	1.474654	0.909456	0.694625
F52	F	1.392020	0.650379	0.893379
F53	F	1.780162	0.402846	0.907335
H54	H	0.941913	0.676009	0.567826
H55	H	1.409050	0.633368	1.106165
F56	F	1.474812	1.109877	0.695244
H57	H	1.420537	0.917867	0.370972
H58	H	1.121906	0.622930	0.371382
H59	H	1.123033	0.483848	0.333285
F60	F	0.932678	0.464770	0.314171
F61	F	1.393986	1.108582	0.364529
H62	H	1.367700	1.102345	0.569039
H63	H	1.760384	0.386332	1.091330
F64	F	1.576988	0.910373	0.313988
H65	H	1.366790	0.919650	0.568534
F66	F	1.134044	0.362950	0.638846
F67	F	1.649571	0.257077	0.912926
F68	F	0.930570	0.646330	0.362881
H69	H	0.941930	0.376685	0.618992
F70	F	1.673326	0.910239	0.643462
F71	F	1.134058	0.700544	0.562502
F72	F	1.132453	0.568621	0.694947
H73	H	0.940363	0.334843	0.482722
H74	H	1.558070	1.100736	0.333209
F75	F	1.131506	0.318690	0.457808
H76	H	1.671760	1.101793	0.613902
H77	H	1.705057	1.099950	0.475255
