data_functionalizedCrystal
_audit_creation_method	'MofGen! by Chris Wilmer'
_symmetry_space_group_name_H-M	'P1'
_symmetry_Int_Tables_number	1
_symmetry_cell_setting	triclinic
loop_
_symmetry_equiv_pos_as_xyz
  x,y,z
_cell_length_a	34.408637
_cell_length_b	34.407814
_cell_length_c	34.404193
_cell_angle_alpha	60.004510
_cell_angle_beta	60.009006
_cell_angle_gamma	59.994604
loop_
_atom_site_label
_atom_site_type_symbol
_atom_site_fract_x
_atom_site_fract_y
_atom_site_fract_z
O1	O	0.053973	-0.567860	0.474801
O2	O	0.020377	-0.442124	0.382567
O3	O	0.100004	-0.521670	0.382483
O4	O	-0.025653	-0.488314	0.474886
O5	O	0.126426	-0.495253	0.408816
O6	O	0.046800	-0.415707	0.408900
O7	O	0.080396	-0.541443	0.501134
Zn8	Zn	0.067793	-0.474381	0.459198
Zn9	Zn	0.032980	-0.509186	0.424503
O10	O	0.000769	-0.461897	0.501219
N11	N	0.091552	-0.450631	0.482879
N12	N	0.009225	-0.532940	0.400823
C13	C	0.142848	-0.268847	0.534081
C14	C	0.142979	-0.399386	0.664559
C15	C	0.142862	-0.399365	0.534081
C16	C	0.273409	-0.399338	0.533986
C17	C	0.157225	-0.311914	0.548422
C18	C	0.157300	-0.385019	0.621491
C19	C	0.230339	-0.384991	0.548370
C20	C	0.157235	-0.385007	0.548422
C21	C	0.124548	-0.214028	0.515827
C22	C	0.124571	-0.417639	0.515827
C23	C	0.175526	-0.366733	0.566676
C24	C	0.353121	-0.385580	0.491988
C25	C	0.402952	-0.402180	0.475348
C26	C	0.402981	-0.482812	0.506096
C27	C	0.353151	-0.466211	0.522737
C28	C	0.136544	-0.189099	0.466839
C29	C	0.119905	-0.139265	0.450247
C30	C	0.079280	-0.139291	0.531632
C31	C	0.095918	-0.189125	0.548224
C32	C	0.075577	-0.405615	0.527900
C33	C	0.058953	-0.422228	0.511301
C34	C	0.140315	-0.462889	0.470566
C35	C	0.156941	-0.446276	0.487159
C36	C	0.075772	-0.405653	0.744326
C37	C	0.059206	-0.422280	0.794159
C38	C	0.140607	-0.462951	0.794094
C39	C	0.157172	-0.446325	0.744260
C40	C	0.124753	-0.417674	0.719377
C41	C	0.328223	-0.417595	0.515681
C42	C	-0.172390	-0.583988	0.349141
C43	C	-0.041751	-0.584138	0.218783
C44	C	-0.041941	-0.584130	0.349402
C45	C	-0.041957	-0.714607	0.349338
C46	C	-0.129326	-0.598388	0.334853
C47	C	-0.056165	-0.598473	0.261852
C48	C	-0.056282	-0.671535	0.334962
C49	C	-0.056272	-0.598469	0.334999
C50	C	-0.227205	-0.565659	0.367327
C51	C	-0.023703	-0.565882	0.367734
C52	C	-0.074511	-0.616717	0.316667
C53	C	-0.055754	-0.794298	0.391257
C54	C	-0.039181	-0.844132	0.407888
C55	C	0.041447	-0.844215	0.377269
C56	C	0.024873	-0.794381	0.360637
C57	C	-0.252183	-0.577666	0.416302
C58	C	-0.302014	-0.561001	0.432833
C59	C	-0.301886	-0.520329	0.351410
C60	C	-0.252055	-0.536994	0.334880
C61	C	-0.035709	-0.516892	0.355682
C62	C	-0.019129	-0.500308	0.372353
C63	C	0.021465	-0.581700	0.413115
C64	C	0.004884	-0.598286	0.396450
C65	C	-0.035389	-0.516907	0.139026
C66	C	-0.018707	-0.500324	0.089193
C67	C	0.021949	-0.581721	0.089240
C68	C	0.005268	-0.598303	0.139074
C69	C	-0.023402	-0.565894	0.163965
C70	C	-0.023728	-0.769425	0.367633
N71	N	0.427173	-0.450553	0.482630
O72	O	0.589997	-0.458460	0.365361
O73	O	0.590185	-0.550997	0.490963
O74	O	0.590104	-0.550786	0.411309
O75	O	0.590077	-0.458671	0.445016
O76	O	0.510940	-0.524462	0.437777
O77	O	0.511020	-0.524674	0.517432
O78	O	0.510832	-0.432136	0.391830
Zn79	Zn	0.498357	-0.474225	0.458833
Zn80	Zn	0.602660	-0.508908	0.423960
O81	O	0.510913	-0.432348	0.471484
N82	N	0.673844	-0.532580	0.400158
N83	N	0.091520	-0.115070	0.482873
O84	O	-0.025663	0.047841	0.474857
O85	O	0.099940	0.047877	0.382299
O86	O	0.020247	0.047844	0.382560
O87	O	0.054030	0.047874	0.474596
O88	O	0.046674	-0.031326	0.408942
O89	O	0.126367	-0.031293	0.408680
O90	O	0.000764	-0.031329	0.501238
Zn91	Zn	0.067761	-0.043881	0.459148
Zn92	Zn	0.032943	0.060429	0.424389
O93	O	0.080457	-0.031296	0.500977
N94	N	0.009178	0.131618	0.400665
N95	N	0.091852	-0.450680	0.818332
O96	O	0.083862	-0.567845	0.981235
O97	O	-0.008657	-0.442198	0.981276
O98	O	-0.008441	-0.521875	0.981252
O99	O	0.083646	-0.488168	0.981258
O100	O	0.017919	-0.495468	0.902085
O101	O	0.017703	-0.415791	0.902109
O102	O	0.110222	-0.541438	0.902067
Zn103	Zn	0.068148	-0.474422	0.889518
Zn104	Zn	0.033417	-0.509214	0.993825
O105	O	0.110006	-0.461761	0.902091
N106	N	0.009712	-0.532961	1.065011
C107	C	0.030439	-0.413071	0.383027
C108	C	0.129046	-0.511580	0.382922
C109	C	0.070334	-0.570496	0.500675
C110	C	-0.028274	-0.471987	0.500780
C111	C	0.550625	-0.550579	0.520021
C112	C	0.550527	-0.550317	0.421379
C113	C	0.550389	-0.432554	0.362773
C114	C	0.550491	-0.432816	0.461414
C115	C	0.128944	0.008394	0.382712
C116	C	0.030287	0.008256	0.383068
C117	C	-0.028273	0.008252	0.500793
C118	C	0.070417	0.008292	0.500470
C119	C	-0.008218	-0.413165	0.941698
C120	C	-0.007945	-0.511830	0.941653
C121	C	0.109783	-0.570471	0.941646
C122	C	0.109516	-0.471800	0.941673
H123	H	0.049370	-0.382321	0.724071
H124	H	0.023260	-0.376951	0.354059
O125	O	-0.071340	0.008270	0.535398
C126	C	-0.149754	0.008231	0.557572
C127	C	-0.101004	0.008217	0.518339
H128	H	-0.173747	0.008178	0.543797
H129	H	-0.166872	0.041377	0.567940
H130	H	-0.144718	-0.024888	0.590040
H131	H	-0.105998	0.041314	0.485845
H132	H	-0.083902	-0.024951	0.508011
H133	H	0.550540	-0.579254	0.414165
H134	H	0.138447	-0.464586	0.941669
O135	O	0.078822	-0.613552	0.535296
C136	C	0.047608	-0.662514	0.615520
C137	C	0.037936	-0.613729	0.576359
H138	H	0.014555	-0.662676	0.648726
H139	H	0.078748	-0.669454	0.624458
H140	H	0.056674	-0.691543	0.602353
H141	H	0.028849	-0.584669	0.589493
H142	H	0.006809	-0.606830	0.567427
H143	H	-0.036863	-0.519031	0.941619
O144	O	0.011608	-0.410532	0.818316
C145	C	-0.067380	-0.368452	0.813115
C146	C	-0.013488	-0.381709	0.785698
H147	H	-0.087685	-0.345154	0.786754
H148	H	-0.077198	-0.348141	0.836434
H149	H	-0.077152	-0.402280	0.836458
H150	H	-0.003677	-0.347906	0.762328
H151	H	-0.003699	-0.402038	0.762409
O152	O	0.550502	-0.398248	0.469928
C153	C	0.550397	-0.318012	0.438809
C154	C	0.550393	-0.357121	0.429100
H155	H	0.550299	-0.284748	0.405810
H156	H	0.583559	-0.331152	0.447812
H157	H	0.517298	-0.309173	0.470010
H158	H	0.583469	-0.365977	0.397893
H159	H	0.517209	-0.343960	0.420125
H160	H	-0.064365	-0.464880	0.529794
H161	H	0.550329	-0.403500	0.326702
O162	O	0.172098	-0.520133	0.348319
C163	C	0.229388	-0.568256	0.298073
C164	C	0.180629	-0.558628	0.337269
H165	H	0.236297	-0.599372	0.289120
H166	H	0.258475	-0.577323	0.311163
H167	H	0.229474	-0.535173	0.264893
H168	H	0.180497	-0.591695	0.370463
H169	H	0.151564	-0.549541	0.324140
O170	O	-0.042814	-0.370076	0.941648
C171	C	-0.065831	-0.285393	0.900641
C172	C	-0.026608	-0.334158	0.900644
H173	H	-0.052747	-0.256341	0.867488
H174	H	-0.074808	-0.278387	0.933755
H175	H	-0.098995	-0.285354	0.900666
H176	H	0.006580	-0.334233	0.900602
H177	H	-0.017672	-0.341144	0.867533
H178	H	0.550674	-0.579628	0.556096
H179	H	0.164941	0.008624	0.353583
H180	H	0.138832	-0.606554	0.941627
H181	H	0.077653	0.008301	0.529384
O182	O	0.172163	-0.490791	0.818192
C183	C	0.254650	-0.529357	0.812868
C184	C	0.218966	-0.497827	0.785519
H185	H	0.292498	-0.535048	0.786464
H186	H	0.248965	-0.565228	0.836179
H187	H	0.248899	-0.511108	0.836214
H188	H	0.224695	-0.516035	0.762147
H189	H	0.224659	-0.461958	0.762238
O190	O	0.204739	-0.457976	0.719953
C191	C	0.266338	-0.450365	0.643156
C192	C	0.212457	-0.437143	0.670624
H193	H	0.272594	-0.433520	0.603269
H194	H	0.283172	-0.490712	0.652903
H195	H	0.283137	-0.436623	0.652967
H196	H	0.195616	-0.450854	0.660827
H197	H	0.195657	-0.396794	0.660874
O198	O	0.044068	-0.377782	0.555722
C199	C	-0.038389	-0.339223	0.594393
C200	C	-0.002758	-0.370738	0.562872
H201	H	-0.076255	-0.333526	0.600192
H202	H	-0.032699	-0.303354	0.576141
H203	H	-0.032586	-0.357488	0.630213
H204	H	-0.008539	-0.352515	0.527047
H205	H	-0.008456	-0.406605	0.581161
H206	H	0.023050	0.008252	0.354152
H207	H	0.166679	-0.486211	0.447227
O208	O	0.011364	-0.410493	0.522946
C209	C	-0.054659	-0.372178	0.494374
C210	C	-0.000761	-0.385427	0.481120
H211	H	-0.064477	-0.351918	0.460565
H212	H	-0.074962	-0.348834	0.517695
H213	H	-0.064435	-0.406007	0.514680
H214	H	0.009058	-0.351625	0.460797
H215	H	0.019512	-0.408789	0.457821
O216	O	0.204545	-0.457928	0.475347
C217	C	0.279128	-0.454057	0.412124
C218	C	0.225226	-0.440844	0.425436
H219	H	0.295864	-0.440242	0.371772
H220	H	0.295985	-0.494407	0.425820
H221	H	0.285434	-0.437275	0.428934
H222	H	0.218878	-0.457595	0.408631
H223	H	0.208397	-0.400490	0.411749
O224	O	0.329040	-0.497374	0.545725
C225	C	0.334336	-0.579108	0.574488
C226	C	0.361700	-0.543864	0.548438
H227	H	0.360729	-0.616704	0.576699
H228	H	0.310995	-0.569145	0.554136
H229	H	0.311019	-0.577565	0.611950
H230	H	0.385042	-0.545388	0.510976
H231	H	0.385010	-0.553838	0.568827
H232	H	0.423225	-0.376108	0.456057
O233	O	0.328978	-0.338341	0.485114
C234	C	0.334212	-0.260115	0.452833
C235	C	0.361610	-0.313601	0.460598
H236	H	0.360583	-0.240096	0.433002
H237	H	0.310918	-0.254541	0.488758
H238	H	0.310845	-0.246107	0.430960
H239	H	0.385002	-0.327645	0.482454
H240	H	0.384873	-0.319143	0.424657
H241	H	0.423275	-0.522397	0.511838
H242	H	0.159856	-0.209371	0.440456
H243	H	0.129672	-0.118967	0.410356
H244	H	0.086148	-0.209418	0.588113
O245	O	0.051460	-0.115172	0.563167
C246	C	0.012956	-0.120458	0.645642
C247	C	0.044456	-0.147829	0.609981
H248	H	0.007291	-0.146849	0.683500
H249	H	-0.022926	-0.097150	0.639969
H250	H	0.031211	-0.097105	0.639855
H251	H	0.026243	-0.171208	0.615748
H252	H	0.080336	-0.171107	0.615664
H253	H	-0.028474	-0.460433	0.068892
H254	H	-0.058738	-0.490513	0.159288
H255	H	0.015032	-0.638195	0.159378
O256	O	0.049802	-0.613268	0.065135
C257	C	0.088333	-0.695752	0.070441
C258	C	0.056793	-0.660080	0.097800
H259	H	0.093986	-0.733608	0.096839
H260	H	0.124216	-0.690093	0.047179
H261	H	0.070115	-0.689961	0.047045
H262	H	0.074968	-0.665849	0.121221
H263	H	0.020911	-0.665748	0.121031
H264	H	-0.028907	-0.460416	0.362542
O265	O	-0.063550	-0.485394	0.327865
C266	C	-0.136833	-0.420845	0.321377
C267	C	-0.105353	-0.456500	0.352934
H268	H	-0.170632	-0.397468	0.341629
H269	H	-0.146663	-0.441085	0.311540
H270	H	-0.116486	-0.397562	0.287580
H271	H	-0.125670	-0.479792	0.386751
H272	H	-0.095520	-0.436230	0.362732
O273	O	0.049287	-0.613226	0.440951
C274	C	0.122595	-0.677734	0.447427
C275	C	0.091129	-0.642068	0.415857
H276	H	0.156436	-0.701055	0.427147
H277	H	0.102298	-0.701069	0.481214
H278	H	0.132358	-0.657454	0.457283
H279	H	0.081357	-0.662309	0.405965
H280	H	0.111444	-0.618733	0.382092
O281	O	0.016467	-0.645871	0.408204
C282	C	-0.012210	-0.711795	0.446453
C283	C	-0.025397	-0.657903	0.433186
H284	H	-0.046050	-0.721538	0.466644
H285	H	0.011048	-0.732133	0.469865
H286	H	0.008137	-0.721606	0.412637
H287	H	-0.045761	-0.648048	0.466975
H288	H	-0.048633	-0.637594	0.409755
O289	O	0.056047	-0.770295	0.337717
C290	C	0.137774	-0.775643	0.309082
C291	C	0.102519	-0.802980	0.335055
H292	H	0.175356	-0.802057	0.306913
H293	H	0.127788	-0.752323	0.329466
H294	H	0.136280	-0.752306	0.271605
H295	H	0.103994	-0.826343	0.372532
H296	H	0.112517	-0.826270	0.314635
H297	H	-0.065262	-0.864385	0.427124
O298	O	0.088643	-0.868479	0.370559
C299	C	0.148851	-0.924810	0.407385
C300	C	0.095390	-0.897349	0.415051
H301	H	0.154323	-0.948166	0.443351
H302	H	0.168917	-0.898494	0.387670
H303	H	0.162891	-0.948127	0.385453
H304	H	0.081308	-0.874032	0.436995
H305	H	0.075357	-0.923691	0.434746
H306	H	-0.095331	-0.773979	0.396956
H307	H	-0.322352	-0.570775	0.472713
O308	O	-0.228120	-0.605488	0.447887
C309	C	-0.233506	-0.644088	0.530393
C310	C	-0.260820	-0.612566	0.494678
H311	H	-0.259932	-0.649828	0.568231
H312	H	-0.210187	-0.625867	0.524735
H313	H	-0.210173	-0.679935	0.524650
H314	H	-0.284178	-0.576713	0.500400
H315	H	-0.284109	-0.630824	0.500345
H316	H	-0.322118	-0.496994	0.324987
H317	H	-0.231721	-0.527215	0.295000
