data_functionalizedCrystal
_audit_creation_method	'MofGen! by Chris Wilmer'
_symmetry_space_group_name_H-M	'P1'
_symmetry_Int_Tables_number	1
_symmetry_cell_setting	triclinic
loop_
_symmetry_equiv_pos_as_xyz
  x,y,z
_cell_length_a	27.440280
_cell_length_b	27.440280
_cell_length_c	14.560438
_cell_angle_alpha	59.993237
_cell_angle_beta	89.996099
_cell_angle_gamma	60.002656
loop_
_atom_site_label
_atom_site_type_symbol
_atom_site_fract_x
_atom_site_fract_y
_atom_site_fract_z
Zr1	Zr	0.469573	0.533367	-0.120646
O2	O	0.391768	0.635042	-0.267307
O3	O	0.493414	0.431699	-0.075676
O4	O	0.493427	0.533366	-0.267297
O5	O	0.391757	0.533373	0.075455
O6	O	0.573628	0.533358	-0.267302
O7	O	0.391755	0.533374	-0.075685
O8	O	0.573607	0.351494	0.075473
O9	O	0.391779	0.715237	-0.267320
O10	O	0.563449	0.473508	-0.056514
O11	O	0.503596	0.473513	0.056285
O12	O	0.503611	0.593213	-0.169325
O13	O	0.443758	0.593218	-0.056526
Zr14	Zr	0.597489	0.533352	0.120397
Zr15	Zr	0.597486	0.533355	-0.120655
Zr16	Zr	0.469576	0.533365	0.120406
Zr17	Zr	0.469592	0.661270	-0.120668
Zr18	Zr	0.597471	0.405449	0.120418
O19	O	0.573648	0.635021	0.075426
O20	O	0.573643	0.635024	-0.267319
O21	O	0.391772	0.635039	0.075439
O22	O	0.675295	0.431678	0.267057
O23	O	0.675290	0.431681	-0.075688
O24	O	0.493419	0.431695	0.267069
O25	O	0.675305	0.533347	-0.075705
O26	O	0.573636	0.533353	0.267047
O27	O	0.493434	0.533361	0.267053
O28	O	0.675307	0.533345	0.075436
O29	O	0.493453	0.715228	-0.267327
O30	O	0.573609	0.351492	0.267077
O31	O	0.675283	0.351482	0.267070
O32	O	0.675280	0.351484	0.075466
O33	O	0.391782	0.715236	-0.075716
O34	O	0.493456	0.715226	-0.075722
O35	O	0.563452	0.473506	0.169075
O36	O	0.623304	0.473501	0.056276
O37	O	0.563466	0.593207	-0.056534
O38	O	0.503614	0.593211	0.056265
C39	C	0.533508	0.373373	-0.000098
C40	C	0.533500	0.319074	-0.000089
C41	C	0.577716	0.040186	0.083149
C42	C	0.577710	0.091208	0.083153
O43	O	0.615290	0.080027	0.153948
N44	N	0.533525	0.160904	-0.000112
C45	C	0.489347	0.179578	-0.083393
O46	O	0.451764	0.243545	-0.154217
C47	C	0.489355	0.128557	-0.083401
C48	C	0.533539	0.058861	-0.000124
C49	C	0.621897	-0.029507	0.166419
C50	C	0.621901	-0.080525	0.166415
C51	C	0.577725	-0.061850	0.083142
C52	C	0.533544	0.007842	-0.000128
C53	C	0.445179	0.147232	-0.166687
C54	C	0.445192	0.096203	-0.166688
C55	C	0.489376	0.026507	-0.083411
C56	C	0.489372	-0.024501	-0.083404
N57	N	0.533557	-0.094197	-0.000139
C58	C	0.577733	-0.112872	0.083134
C59	C	0.489333	0.286724	-0.083371
C60	C	0.489321	0.337745	-0.083360
C61	C	0.577686	0.249371	0.083186
C62	C	0.577694	0.198349	0.083178
C63	C	0.533518	0.217028	-0.000106
C64	C	0.577739	-0.220011	0.083121
C65	C	0.577739	-0.271029	0.083113
C66	C	0.489376	-0.182651	-0.083436
C67	C	0.489375	-0.131637	-0.083425
C68	C	0.533562	-0.150321	-0.000141
O69	O	0.451812	-0.013372	-0.154166
O70	O	0.615314	-0.176839	0.153937
C71	C	0.373532	0.533375	-0.000114
C72	C	0.319229	0.533381	-0.000110
C73	C	-0.017470	0.533345	-0.083391
C74	C	-0.068488	0.533340	-0.083392
O75	O	-0.094863	0.533315	-0.154182
N76	N	-0.094004	0.533341	-0.000128
C77	C	-0.068497	0.533339	0.083148
O78	O	-0.094885	0.533339	0.153970
C79	C	-0.017477	0.533339	0.083152
C80	C	0.008033	0.533346	-0.000124
C81	C	0.008041	0.533351	-0.166659
C82	C	0.059055	0.533357	-0.166659
C83	C	0.084558	0.533358	-0.083392
C84	C	0.059047	0.533352	-0.000124
C85	C	0.008031	0.533333	0.166432
C86	C	0.059055	0.533332	0.166429
C87	C	0.084565	0.533339	0.083154
C88	C	0.135563	0.533359	0.083144
N89	N	0.161080	0.533358	-0.000120
C90	C	0.135577	0.533357	-0.083387
C91	C	-0.175641	0.533338	0.083133
C92	C	-0.226662	0.533343	0.083125
C93	C	-0.226648	0.533343	-0.083413
C94	C	-0.175629	0.533343	-0.083409
C95	C	-0.150124	0.533338	-0.000130
C96	C	0.242710	0.533371	-0.083382
C97	C	0.293726	0.533380	-0.083378
C98	C	0.293710	0.533377	0.083164
C99	C	0.242696	0.533371	0.083156
C100	C	0.217198	0.533366	-0.000122
O101	O	0.161973	0.533381	0.153900
O102	O	0.161976	0.533349	-0.154190
C103	C	0.693531	0.533344	-0.000136
C104	C	0.747833	0.533339	-0.000139
C105	C	0.533527	0.533362	-0.301644
C106	C	0.533526	0.533363	-0.403977
C107	C	0.533554	0.693347	-0.000151
C108	C	0.533562	0.747645	-0.000160
C109	C	0.502292	0.595847	-0.510939
C110	C	0.502299	0.595844	-0.607088
C111	C	0.564775	0.470868	-0.489299
C112	C	0.564771	0.470872	-0.393153
C113	C	0.533535	0.533357	0.301395
C114	C	0.533537	0.533356	0.403728
C115	C	0.693507	0.373357	-0.000109
C116	C	0.747802	0.319054	-0.000104
C117	C	0.533512	0.373370	0.301421
C118	C	0.533505	0.319071	0.403763
C119	C	0.693511	0.373354	0.301410
C120	C	0.747807	0.319050	0.403748
C121	C	0.373551	0.693365	-0.301660
C122	C	0.319255	0.747670	-0.403998
C123	C	0.373555	0.693362	-0.000140
C124	C	0.319260	0.747666	-0.000146
C125	C	0.533550	0.693350	-0.301671
C126	C	0.533557	0.747649	-0.404013
C127	C	0.742055	0.293556	-0.058987
C128	C	0.793066	0.242539	-0.059005
C129	C	0.849822	0.217017	-0.000132
C130	C	0.855568	0.242520	0.058753
C131	C	0.804558	0.293540	0.058763
C132	C	0.564746	0.293568	0.510710
C133	C	0.564738	0.242555	0.606880
C134	C	0.533492	0.217043	0.596101
C135	C	0.502247	0.242551	0.489144
C136	C	0.502252	0.293566	0.392976
C137	C	0.804553	0.293546	0.392928
C138	C	0.855574	0.242528	0.489076
C139	C	0.849849	0.217012	0.596044
C140	C	0.793098	0.242522	0.606863
C141	C	0.742077	0.293542	0.510715
C142	C	0.262509	0.773180	-0.393177
C143	C	0.211488	0.824214	-0.489326
C144	C	0.217213	0.849732	-0.596294
C145	C	0.273965	0.824219	-0.607112
C146	C	0.324985	0.773190	-0.510965
C147	C	0.325007	0.773169	0.058728
C148	C	0.273997	0.824200	0.058719
C149	C	0.217240	0.849723	-0.000158
C150	C	0.211494	0.824218	-0.059038
C151	C	0.262504	0.773191	-0.059035
C152	C	0.564809	0.773145	-0.393198
C153	C	0.564827	0.824158	-0.489350
C154	C	0.533589	0.849677	-0.596315
C155	C	0.502336	0.824176	-0.607128
C156	C	0.502322	0.773161	-0.510977
H157	H	0.613719	-0.327781	0.150932
Cl158	Cl	0.670742	0.325594	0.524338
H159	H	0.476814	0.314324	0.305899
H160	H	0.371217	0.752392	0.106679
Cl161	Cl	0.604038	0.392314	-0.258675
H162	H	0.257836	0.752406	-0.306087
H163	H	0.590191	0.314334	0.519507
H164	H	0.476865	0.646724	-0.694178
Cl165	Cl	0.670710	0.325632	-0.133014
H166	H	0.476850	0.646732	-0.519759
Cl167	Cl	0.913944	0.152876	-0.000153
Cl168	Cl	0.604116	0.856209	-0.475731
Cl169	Cl	0.153067	0.913882	-0.717156
H170	H	0.079824	0.533359	-0.234467
Cl171	Cl	0.785829	0.210486	-0.133032
H172	H	0.613720	-0.235234	0.150939
Cl173	Cl	0.677452	-0.168139	0.271110
H174	H	0.278686	0.844958	0.106670
Cl175	Cl	0.396320	0.741121	-0.524588
H176	H	0.590183	0.221793	0.693960
Cl177	Cl	0.926924	0.210426	0.132765
Cl178	Cl	0.533492	0.152908	0.717011
H179	H	0.409204	0.203974	-0.234508
Cl180	Cl	0.140151	0.856273	-0.475699
H181	H	0.590212	0.419989	-0.480499
Cl182	Cl	0.811793	0.325583	0.132805
H183	H	0.453335	0.394492	-0.151160
Cl184	Cl	0.281152	0.856304	-0.741595
Cl185	Cl	-0.143563	0.533349	-0.188100
Cl186	Cl	0.785910	0.210436	0.741346
H187	H	0.175709	0.891272	-0.000151
H188	H	0.165276	0.845007	-0.106973
H189	H	0.476807	0.221772	0.480384
H190	H	0.809226	0.314313	0.305838
H191	H	0.533605	0.891217	-0.674598
Cl192	Cl	0.255270	0.741132	-0.133046
Cl193	Cl	0.604086	0.741073	-0.258739
Cl194	Cl	0.926912	0.210466	0.475450
H195	H	0.476902	0.844962	-0.694232
H196	H	0.891398	0.175468	0.674324
H197	H	0.079819	0.533326	0.234248
H198	H	0.657873	-0.044724	0.234232
Cl199	Cl	0.633224	0.225903	0.187870
Cl200	Cl	0.633243	0.110735	0.187871
Cl201	Cl	0.433786	0.310216	-0.188074
H202	H	0.409218	0.111420	-0.234513
Cl203	Cl	0.433842	-0.159187	-0.188113
Cl204	Cl	0.433825	-0.044017	-0.188110
Cl205	Cl	0.210663	0.533366	-0.188078
Cl206	Cl	0.325793	0.533390	-0.188076
Cl207	Cl	-0.024011	0.533351	-0.271353
Cl208	Cl	0.463022	0.741121	-0.524592
H209	H	-0.247434	0.533349	0.150926
Cl210	Cl	-0.143586	0.533340	0.187830
Cl211	Cl	-0.258718	0.533340	-0.188090
H212	H	0.221920	0.533376	0.150957
Cl213	Cl	-0.024028	0.533322	0.271128
H214	H	0.314481	0.533380	0.150957
