data_functionalizedCrystal
_audit_creation_method	'MofGen! by Chris Wilmer'
_symmetry_space_group_name_H-M	'P1'
_symmetry_Int_Tables_number	1
_symmetry_cell_setting	triclinic
loop_
_symmetry_equiv_pos_as_xyz
  x,y,z
_cell_length_a	10.540539
_cell_length_b	17.038272
_cell_length_c	9.616153
_cell_angle_alpha	89.997688
_cell_angle_beta	89.995174
_cell_angle_gamma	87.818524
loop_
_atom_site_label
_atom_site_type_symbol
_atom_site_fract_x
_atom_site_fract_y
_atom_site_fract_z
O1	O	1.696176	0.110247	-0.115581
O2	O	1.327732	0.120634	-0.115599
O3	O	1.509764	0.001613	-0.115579
O4	O	1.514144	0.229269	-0.115601
O5	O	1.509738	0.001615	0.115712
O6	O	1.327705	0.120637	0.115693
O7	O	1.696149	0.110249	0.115710
Zn8	Zn	1.511923	0.115443	0.152424
Zn9	Zn	1.511958	0.115440	-0.152313
O10	O	1.514117	0.229271	0.115690
C11	C	1.280343	0.119857	0.000045
C12	C	1.139177	0.117526	0.000039
C13	C	1.505768	-0.027537	0.000066
C14	C	1.493883	-0.114398	0.000065
C15	C	0.947420	0.028219	0.000587
C16	C	1.094259	0.030581	0.000051
C17	C	1.081423	0.159366	-0.132039
C18	C	0.934602	0.156399	-0.132135
C19	C	0.934248	0.158170	0.130886
C20	C	1.081305	0.158971	0.132618
C21	C	1.602994	-0.163886	0.000072
C22	C	1.591820	-0.245501	0.000058
C23	C	1.471534	-0.277626	0.000048
C24	C	1.362416	-0.228133	0.000037
C25	C	1.373591	-0.146519	0.000041
C26	C	1.432055	-0.523611	0.000027
C27	C	1.420888	-0.605231	0.000027
C28	C	1.650293	-0.622593	0.000046
C29	C	1.661457	-0.540977	0.000058
C30	C	1.552339	-0.491491	0.000040
C31	C	1.460110	-0.361050	0.000038
C32	C	1.563764	-0.408069	0.000040
C33	C	1.743538	0.111027	0.000063
C34	C	1.884704	0.113358	0.000061
C35	C	1.518114	0.258421	0.000042
C36	C	1.529998	0.345282	0.000034
N37	N	1.511909	0.115445	0.360398
N38	N	1.511982	0.115432	-0.360287
C39	C	1.414198	0.178900	0.580758
C40	C	1.414448	0.179138	0.419590
C41	C	1.646364	0.134015	0.418852
C42	C	1.645842	0.134465	0.580070
C43	C	1.476466	0.033212	0.580316
C44	C	1.473469	0.033745	0.419089
H45	H	1.133791	-0.002340	0.094731
H46	H	0.903518	0.125473	-0.230858
H47	H	1.322932	-0.631384	0.000041
C48	C	1.793771	-0.505645	0.000051
H49	H	1.857155	-0.546807	0.000039
H50	H	1.802895	-0.474168	0.080705
H51	H	1.802899	-0.474168	-0.080618
H52	H	1.374518	0.019669	0.380886
C53	C	0.902323	-0.017996	-0.126640
H54	H	0.940658	-0.069367	-0.125521
H55	H	0.925868	0.008236	-0.209354
H56	H	0.812614	-0.021378	-0.123522
H57	H	1.438038	0.240138	0.381006
H58	H	1.121311	0.130299	-0.230328
C59	C	1.747707	0.074453	0.632766
H60	H	1.748073	0.074318	0.731560
H61	H	1.828667	0.088412	0.599526
H62	H	1.729208	0.023601	0.599732
C63	C	0.904455	-0.018183	0.128542
H64	H	0.847875	0.013946	0.182788
H65	H	0.976447	-0.033499	0.182922
H66	H	0.862504	-0.063621	0.098850
H67	H	1.119404	0.128406	0.230328
H68	H	1.547672	-0.014028	0.618440
H69	H	1.700943	-0.137736	0.000089
C70	C	1.122011	0.244604	0.143388
H71	H	1.175062	0.256255	0.066822
H72	H	1.167241	0.251475	0.227683
H73	H	1.048835	0.278916	0.142272
H74	H	1.284741	-0.106227	0.000035
C75	C	1.312029	-0.469186	0.000031
H76	H	1.238794	-0.500011	0.000044
H77	H	1.311616	-0.436983	-0.080621
H78	H	1.311615	-0.436994	0.080702
H79	H	1.721225	0.089051	0.380507
C80	C	1.686284	0.215501	0.630850
H81	H	1.702872	0.247838	0.552950
H82	H	1.760859	0.209329	0.685843
H83	H	1.620050	0.239337	0.685063
C84	C	1.146498	-0.014199	-0.128071
H85	H	1.077956	-0.033900	-0.180003
H86	H	1.200990	-0.056681	-0.098623
H87	H	1.192761	0.020368	-0.184654
H88	H	1.380080	0.015538	0.621051
C89	C	1.696073	-0.372737	0.000054
H90	H	1.759463	-0.413896	0.000052
H91	H	1.705179	-0.341261	0.080711
H92	H	1.705209	-0.341260	-0.080612
H93	H	0.892466	0.218928	-0.138136
H94	H	1.264477	-0.254296	0.000020
C95	C	1.119671	0.245619	-0.138703
H96	H	1.171331	0.256905	-0.060811
H97	H	1.045536	0.279106	-0.137476
H98	H	1.165770	0.254052	-0.221929
C99	C	1.279172	0.164050	0.633196
H100	H	1.281218	0.119013	0.691522
H101	H	1.225058	0.155577	0.556086
H102	H	1.247945	0.208398	0.684368
C103	C	1.770311	-0.677028	0.000046
H104	H	1.746433	-0.730236	0.000029
H105	H	1.819268	-0.667225	0.080701
H106	H	1.819271	-0.667215	-0.080622
C107	C	1.687475	0.214136	0.364297
H108	H	1.622891	0.236373	0.305915
H109	H	1.763976	0.207197	0.312772
H110	H	1.700893	0.248276	0.440562
C111	C	1.445706	0.260842	0.635446
H112	H	1.518197	0.256542	0.694048
H113	H	1.375558	0.282217	0.686769
H114	H	1.462829	0.294316	0.559251
C115	C	0.888075	0.120163	0.266133
H116	H	0.838147	0.076603	0.244072
H117	H	0.838338	0.157614	0.317694
H118	H	0.959261	0.102806	0.320055
H119	H	0.892879	0.220970	0.131773
C120	C	1.279816	0.164059	0.366197
H121	H	1.224475	0.157735	0.443037
H122	H	1.281776	0.117744	0.311127
H123	H	1.250125	0.207410	0.311506
C124	C	1.562497	-0.033130	0.364671
H125	H	1.537050	-0.081757	0.401776
H126	H	1.647134	-0.024079	0.392614
H127	H	1.558218	-0.034818	0.266042
H128	H	1.680669	-0.285790	0.000066
H129	H	1.362173	-0.387215	0.000033
