data_functionalizedCrystal
_audit_creation_method	'MofGen! by Chris Wilmer'
_symmetry_space_group_name_H-M	'P1'
_symmetry_Int_Tables_number	1
_symmetry_cell_setting	triclinic
loop_
_symmetry_equiv_pos_as_xyz
  x,y,z
_cell_length_a	16.793024
_cell_length_b	16.793047
_cell_length_c	33.586455
_cell_angle_alpha	113.253857
_cell_angle_beta	66.219990
_cell_angle_gamma	112.758327
loop_
_atom_site_label
_atom_site_type_symbol
_atom_site_fract_x
_atom_site_fract_y
_atom_site_fract_z
O1	O	0.005016	-0.570216	-0.583573
O2	O	-0.034529	-0.474528	-0.453458
O3	O	0.114723	-0.474535	-0.528082
O4	O	-0.144235	-0.570209	-0.508949
O5	O	0.108729	-0.346329	-0.530229
O6	O	-0.040523	-0.346322	-0.455605
O7	O	-0.000977	-0.442010	-0.585721
Cu8	Cu	-0.021297	-0.382459	-0.520859
Cu9	Cu	-0.014209	-0.534079	-0.518320
O10	O	-0.150229	-0.442003	-0.511097
C11	C	0.005100	-0.790970	-0.238461
C12	C	-0.040584	-0.395375	-0.435637
C13	C	-0.044693	-0.353446	-0.386631
C14	C	-0.039275	-0.401741	-0.363054
C15	C	-0.040566	-0.125547	-0.300731
C16	C	-0.044689	-0.223451	-0.321635
C17	C	-0.039266	-0.270752	-0.297563
C18	C	0.005118	-0.521142	-0.103554
C19	C	-0.046224	-0.263935	-0.366370
C20	C	-0.036476	-0.360146	-0.318399
C21	C	-0.030850	-0.408530	-0.294565
C22	C	-0.028014	-0.367522	-0.249895
C23	C	-0.030804	-0.278128	-0.229058
C24	C	-0.036430	-0.229743	-0.252892
C25	C	-0.027971	-0.237122	-0.184383
C26	C	-0.022345	-0.285507	-0.160550
C27	C	-0.019555	-0.374900	-0.181386
C28	C	-0.022391	-0.415909	-0.226057
C29	C	-0.019601	-0.505302	-0.246894
C30	C	-0.013975	-0.553687	-0.223060
C31	C	-0.011142	-0.512684	-0.178391
C32	C	-0.013932	-0.423291	-0.157554
C33	C	-0.005516	-0.561069	-0.154557
C34	C	-0.002726	-0.650463	-0.175394
C35	C	-0.005562	-0.691471	-0.220064
C36	C	-0.011185	-0.643081	-0.243897
C37	C	-0.022434	-0.546309	-0.291568
C38	C	-0.019644	-0.635702	-0.312405
C39	C	-0.014021	-0.684089	-0.288567
C40	C	-0.022480	-0.676711	-0.357076
C41	C	-0.028106	-0.628326	-0.380910
C42	C	-0.030896	-0.538933	-0.360073
C43	C	-0.028060	-0.497924	-0.315402
C44	C	-0.036522	-0.490548	-0.383907
C45	C	0.815184	-0.521162	-0.508596
C46	C	0.415541	-0.125553	-0.528781
C47	C	0.375032	-0.223457	-0.531493
C48	C	0.423813	-0.270761	-0.529101
C49	C	0.149318	-0.395376	-0.530584
C50	C	0.246774	-0.353455	-0.532364
C51	C	0.294574	-0.401748	-0.529976
C52	C	0.548961	-0.790984	-0.510398
C53	C	0.286104	-0.263940	-0.532530
C54	C	0.383336	-0.360149	-0.528302
C55	C	0.432207	-0.407971	-0.525810
C56	C	0.392316	-0.497392	-0.524993
C57	C	0.303554	-0.538991	-0.526667
C58	C	0.254683	-0.491169	-0.529159
C59	C	0.263666	-0.628421	-0.525851
C60	C	0.312537	-0.676243	-0.523359
C61	C	0.401299	-0.634644	-0.521685
C62	C	0.441190	-0.545223	-0.522502
C63	C	0.529952	-0.503624	-0.520828
C64	C	0.578823	-0.551446	-0.518336
C65	C	0.538939	-0.640864	-0.517520
C66	C	0.450177	-0.682463	-0.519194
C67	C	0.587810	-0.688687	-0.515028
C68	C	0.676572	-0.647088	-0.513354
C69	C	0.716463	-0.557666	-0.514172
C70	C	0.667586	-0.509847	-0.516662
C71	C	0.569840	-0.414195	-0.521644
C72	C	0.658602	-0.372596	-0.519970
C73	C	0.707476	-0.420426	-0.517480
C74	C	0.698493	-0.283174	-0.520788
C75	C	0.649622	-0.235352	-0.523280
C76	C	0.560860	-0.276951	-0.524954
C77	C	0.520969	-0.366372	-0.524136
C78	C	0.511989	-0.229129	-0.527446
C79	C	-0.040530	-0.395407	-0.935652
C80	C	0.005063	-0.791004	-0.738448
C81	C	0.009186	-0.693099	-0.717543
C82	C	0.003779	-0.645796	-0.741620
C83	C	0.005077	-0.521171	-0.603544
C84	C	0.009198	-0.563096	-0.652550
C85	C	0.003786	-0.514804	-0.676131
C86	C	-0.040516	-0.125574	-0.800747
C87	C	0.010719	-0.652613	-0.672809
C88	C	0.000994	-0.556406	-0.720789
C89	C	-0.004621	-0.508585	-0.744908
C90	C	-0.007444	-0.419162	-0.724369
C91	C	-0.004651	-0.377560	-0.679711
C92	C	0.000964	-0.425381	-0.655592
C93	C	-0.007471	-0.288129	-0.659174
C94	C	-0.013086	-0.240308	-0.683293
C95	C	-0.015878	-0.281910	-0.727951
C96	C	-0.013056	-0.371333	-0.748490
C97	C	-0.015848	-0.412935	-0.793148
C98	C	-0.021463	-0.365114	-0.817267
C99	C	-0.024282	-0.275694	-0.796731
C100	C	-0.021490	-0.234092	-0.752073
C101	C	-0.029897	-0.227873	-0.820850
C102	C	-0.032690	-0.269476	-0.865508
C103	C	-0.029867	-0.358899	-0.886047
C104	C	-0.024255	-0.406717	-0.861925
C105	C	-0.013028	-0.502367	-0.813685
C106	C	-0.015821	-0.543969	-0.858343
C107	C	-0.021433	-0.496140	-0.882464
C108	C	-0.012998	-0.633392	-0.878882
C109	C	-0.007383	-0.681213	-0.854763
C110	C	-0.004591	-0.639611	-0.810105
C111	C	-0.007414	-0.550188	-0.789566
C112	C	0.001024	-0.687432	-0.785986
O113	O	-0.000965	0.173549	-0.277957
O114	O	-0.040516	-0.085616	-0.325254
O115	O	0.108737	0.059592	-0.327284
O116	O	-0.150219	0.028341	-0.275927
O117	O	0.114753	0.055151	-0.263265
O118	O	-0.034500	-0.090057	-0.261234
O119	O	0.005051	0.169108	-0.213937
Cu120	Cu	-0.014175	0.039120	-0.231740
Cu121	Cu	-0.021290	0.044372	-0.307451
O122	O	-0.144202	0.023900	-0.211907
O123	O	-0.034458	-0.474571	0.046517
O124	O	0.005076	-0.570190	-0.083599
O125	O	-0.144170	-0.570237	-0.008972
O126	O	0.114787	-0.474523	-0.028110
O127	O	-0.150200	-0.442024	-0.011093
O128	O	-0.000954	-0.441976	-0.085720
O129	O	-0.040488	-0.346357	0.044396
Cu130	Cu	-0.021272	-0.382460	-0.020856
Cu131	Cu	-0.014141	-0.534087	-0.018347
O132	O	0.108757	-0.346309	-0.030231
C133	C	-0.850734	0.086244	-0.289716
C134	C	-0.450996	0.035117	-0.097351
C135	C	-0.410501	0.028587	-0.146852
C136	C	-0.459292	0.034683	-0.169840
C137	C	-0.184802	0.024283	-0.235878
C138	C	-0.282257	0.023363	-0.213592
C139	C	-0.330068	0.029423	-0.237088
C140	C	-0.584541	0.075410	-0.428242
C141	C	-0.321573	0.024104	-0.168302
C142	C	-0.418828	0.035176	-0.215083
C143	C	-0.467711	0.041476	-0.238329
C144	C	-0.427833	0.042022	-0.283580
C145	C	-0.339073	0.036269	-0.305586
C146	C	-0.290190	0.029970	-0.282340
C147	C	-0.299198	0.036812	-0.350842
C148	C	-0.348081	0.043111	-0.374088
C149	C	-0.436841	0.048864	-0.352082
C150	C	-0.476719	0.048318	-0.306830
C151	C	-0.565480	0.054071	-0.284825
C152	C	-0.614362	0.060370	-0.308071
C153	C	-0.574491	0.060913	-0.353321
C154	C	-0.485730	0.055160	-0.375326
C155	C	-0.623374	0.067212	-0.376567
C156	C	-0.712134	0.072965	-0.354561
C157	C	-0.752012	0.072419	-0.309309
C158	C	-0.703123	0.066123	-0.286065
C159	C	-0.605355	0.053528	-0.239569
C160	C	-0.694115	0.059281	-0.217564
C161	C	-0.743001	0.065577	-0.240813
C162	C	-0.733993	0.058735	-0.172312
C163	C	-0.685110	0.052436	-0.149066
C164	C	-0.596350	0.046683	-0.171072
C165	C	-0.556472	0.047229	-0.216323
C166	C	-0.547467	0.040383	-0.147826
O167	O	0.585213	0.169090	-0.504004
O168	O	0.494056	-0.090076	-0.525516
O169	O	0.488081	0.055124	-0.449918
O170	O	0.591189	0.023889	-0.579602
O171	O	0.359978	0.059584	-0.452885
O172	O	0.365953	-0.085616	-0.528483
O173	O	0.457110	0.173550	-0.506971
Cu174	Cu	0.399835	0.044374	-0.517998
Cu175	Cu	0.551332	0.039099	-0.514489
O176	O	0.463086	0.028349	-0.582569
C177	C	0.815354	-0.521094	-0.008709
C178	C	0.415547	-0.125494	-0.028771
C179	C	0.375059	-0.223405	-0.031498
C180	C	0.423859	-0.270708	-0.029121
C181	C	0.149365	-0.395355	-0.030599
C182	C	0.246820	-0.353421	-0.032381
C183	C	0.294640	-0.401713	-0.030008
C184	C	0.549171	-0.790955	-0.010537
C185	C	0.286131	-0.263897	-0.032533
C186	C	0.383402	-0.360104	-0.028335
C187	C	0.432293	-0.407926	-0.025859
C188	C	0.392422	-0.497356	-0.025055
C189	C	0.303660	-0.538965	-0.026727
C190	C	0.254769	-0.491143	-0.029204
C191	C	0.263791	-0.628403	-0.025925
C192	C	0.312683	-0.676224	-0.023448
C193	C	0.401445	-0.634615	-0.021775
C194	C	0.441316	-0.545185	-0.022579
C195	C	0.530078	-0.503576	-0.020906
C196	C	0.578969	-0.551398	-0.018429
C197	C	0.539104	-0.640825	-0.017627
C198	C	0.450342	-0.682434	-0.019300
C199	C	0.587995	-0.688646	-0.015150
C200	C	0.676757	-0.647037	-0.013477
C201	C	0.716628	-0.557607	-0.014281
C202	C	0.667731	-0.509789	-0.016757
C203	C	0.569946	-0.414138	-0.021709
C204	C	0.658708	-0.372530	-0.020036
C205	C	0.707602	-0.420359	-0.017561
C206	C	0.698579	-0.283100	-0.020840
C207	C	0.649688	-0.235278	-0.023317
C208	C	0.560926	-0.276887	-0.024990
C209	C	0.521055	-0.366317	-0.024186
C210	C	0.512035	-0.229066	-0.027467
O211	O	-0.620614	0.089309	0.052274
O212	O	-0.529507	0.043784	-0.078544
O213	O	-0.523494	0.194833	-0.006033
O214	O	-0.626628	-0.061740	-0.020236
O215	O	-0.395386	0.185419	-0.005549
O216	O	-0.401400	0.034370	-0.078059
O217	O	-0.492507	0.079895	0.052758
Cu218	Cu	-0.435256	0.056273	-0.012607
Cu219	Cu	-0.586758	0.067406	-0.013179
O220	O	-0.498521	-0.071154	-0.019752
C221	C	-0.437537	0.048335	0.402491
C222	C	-0.837226	0.099430	0.210091
C223	C	-0.739773	0.100339	0.187806
C224	C	-0.691967	0.094287	0.211308
C225	C	-0.571027	0.088563	0.071568
C226	C	-0.611521	0.095108	0.121070
C227	C	-0.562739	0.089011	0.144061
C228	C	-0.171338	0.037467	0.263967
C229	C	-0.700452	0.099593	0.142516
C230	C	-0.603213	0.088528	0.189308
C231	C	-0.554892	0.082255	0.212848
C232	C	-0.466098	0.076466	0.191141
C233	C	-0.425624	0.076949	0.145894
C234	C	-0.473945	0.083222	0.122354
C235	C	-0.336822	0.071163	0.124188
C236	C	-0.288502	0.064890	0.147728
C237	C	-0.328975	0.064407	0.192975
C238	C	-0.417770	0.070196	0.214682
C239	C	-0.458244	0.069713	0.259929
C240	C	-0.409923	0.063441	0.283469
C241	C	-0.321132	0.057655	0.261765
C242	C	-0.280658	0.058138	0.216518
C243	C	-0.272811	0.051382	0.285305
C244	C	-0.313285	0.050899	0.330552
C245	C	-0.402079	0.056688	0.352259
C246	C	-0.450397	0.062957	0.328716
C247	C	-0.547046	0.075500	0.281635
C248	C	-0.587520	0.075016	0.326882
C249	C	-0.539191	0.068747	0.350423
C250	C	-0.676314	0.080806	0.348589
C251	C	-0.724634	0.087078	0.325049
C252	C	-0.684160	0.087561	0.279802
C253	C	-0.595366	0.081772	0.258095
C254	C	-0.732481	0.093834	0.256262
O255	O	-0.040608	-1.085661	-0.825229
O256	O	-0.001018	-0.826491	-0.777938
O257	O	-0.150287	-0.971682	-0.775894
O258	O	0.108661	-0.940470	-0.827272
O259	O	-0.144253	-0.976123	-0.711878
O260	O	0.005016	-0.830932	-0.713922
O261	O	-0.034575	-1.090102	-0.761213
Cu262	Cu	-0.014228	-0.960923	-0.731722
Cu263	Cu	-0.021364	-0.955670	-0.807428
O264	O	0.114695	-0.944911	-0.763256
C265	C	0.026348	-0.135723	-0.395666
C266	C	-0.049775	-0.210057	-0.393259
H267	H	0.024160	-0.102464	-0.412269
H268	H	0.027009	-0.098361	-0.365887
H269	H	0.079502	-0.155933	-0.410481
H270	H	-0.102929	-0.189846	-0.378441
H271	H	-0.050444	-0.247425	-0.423043
H272	H	-0.038719	-0.156659	-0.235851
H273	H	-0.215904	0.060157	0.129977
C274	C	-0.061865	-0.709227	-0.607717
C275	C	0.014258	-0.706488	-0.645915
H276	H	-0.059684	-0.742492	-0.591115
H277	H	-0.062518	-0.649648	-0.589030
H278	H	-0.115019	-0.737413	-0.617102
H279	H	0.067413	-0.678295	-0.636529
H280	H	0.014919	-0.766078	-0.664605
C281	C	-0.711661	0.180675	0.100837
C282	C	-0.754954	0.103890	0.116314
H283	H	-0.745308	0.183322	0.084658
H284	H	-0.707719	0.232875	0.125996
H285	H	-0.652600	0.177893	0.081353
H286	H	-0.814013	0.106675	0.135801
H287	H	-0.758906	0.051677	0.091152
H288	H	0.710969	-0.684436	-0.006165
H289	H	-0.815575	0.070280	-0.222817
C290	C	-0.783398	0.173967	-0.353049
C291	C	-0.758322	0.093974	-0.379171
H292	H	-0.811908	0.186938	-0.368243
H293	H	-0.824170	0.167329	-0.324385
H294	H	-0.731116	0.221887	-0.348810
H295	H	-0.810605	0.046053	-0.383407
H296	H	-0.717547	0.100607	-0.407843
C297	C	0.034267	-0.488596	-0.461639
C298	C	-0.039640	-0.535788	-0.433215
H299	H	0.032345	-0.516526	-0.492080
H300	H	0.031781	-0.428193	-0.452595
H301	H	0.088799	-0.489080	-0.459524
H302	H	-0.094172	-0.535299	-0.435328
H303	H	-0.037162	-0.596206	-0.442262
H304	H	0.245727	-0.224039	-0.533582
H305	H	-0.315470	0.043557	-0.411085
C306	C	-0.832343	0.177180	0.317525
C307	C	-0.830469	0.100293	0.280211
H308	H	-0.892829	0.181190	0.332306
H309	H	-0.809310	0.173334	0.338113
H310	H	-0.796170	0.229161	0.307461
H311	H	-0.866637	0.048311	0.290275
H312	H	-0.853514	0.104132	0.259620
H313	H	0.280077	-0.749342	-0.022791
C314	C	0.001272	-0.813242	-0.846703
C315	C	-0.004269	-0.779916	-0.877430
H316	H	0.003191	-0.874177	-0.860698
H317	H	0.054523	-0.778324	-0.837879
H318	H	-0.050150	-0.809839	-0.820697
H319	H	0.047157	-0.783313	-0.903436
H320	H	-0.057525	-0.814844	-0.886261
C321	C	0.075913	-0.242624	-0.606584
C322	C	-0.004452	-0.242263	-0.609873
H323	H	0.077760	-0.214315	-0.576144
H324	H	0.078416	-0.302966	-0.615415
H325	H	0.126065	-0.210822	-0.625958
H326	H	-0.054605	-0.274071	-0.590502
H327	H	-0.006964	-0.181910	-0.601037
H328	H	0.003321	-0.760550	-0.802778
H329	H	-0.709407	0.080425	0.385586
H330	H	-0.023809	-0.160979	-0.735279
C331	C	-0.856732	0.063305	-0.103207
C332	C	-0.831955	0.065110	-0.148020
H333	H	-0.917203	0.067258	-0.088208
H334	H	-0.852319	0.008648	-0.103147
H335	H	-0.817485	0.112797	-0.087870
H336	H	-0.871198	0.015614	-0.163357
H337	H	-0.836376	0.119773	-0.148082
H338	H	-0.572284	0.068372	0.387422
C339	C	0.695073	-0.128121	-0.064326
C340	C	0.693705	-0.136564	-0.024196
H341	H	0.722248	-0.067178	-0.064864
H342	H	0.728927	-0.165329	-0.089644
H343	H	0.634966	-0.146117	-0.065680
H344	H	0.753812	-0.118574	-0.022842
H345	H	0.659851	-0.099342	0.001129
H346	H	-0.020027	-0.251971	-0.124027
H347	H	0.245737	-0.223998	-0.033572
C348	C	-0.036611	-0.104507	-0.191863
C349	C	-0.031051	-0.138458	-0.161386
H350	H	-0.038519	-0.043596	-0.177662
H351	H	0.014788	-0.107678	-0.217885
H352	H	-0.089884	-0.139213	-0.200705
H353	H	0.022226	-0.103756	-0.152547
H354	H	-0.082455	-0.135280	-0.135356
C355	C	-0.239968	-0.059848	-0.163255
C356	C	-0.267056	0.019805	-0.142107
H357	H	-0.206306	-0.062495	-0.147085
H358	H	-0.291825	-0.110095	-0.163479
H359	H	-0.203389	-0.060965	-0.193543
H360	H	-0.303641	0.020919	-0.111821
H361	H	-0.215192	0.070065	-0.141878
H362	H	0.191099	-0.662437	-0.527221
H363	H	-0.015393	-0.167196	-0.666497
H364	H	-0.217624	0.025258	-0.300336
C365	C	-0.340771	0.077312	0.058274
C366	C	-0.429275	0.083747	0.072413
H367	H	-0.313198	0.077626	0.027440
H368	H	-0.307150	0.127045	0.076527
H369	H	-0.341946	0.022892	0.061258
H370	H	-0.428100	0.138171	0.069432
H371	H	-0.462904	0.034011	0.054154
C372	C	0.643690	-0.081809	-0.486853
C373	C	0.693623	-0.136645	-0.524174
H374	H	0.670854	-0.020871	-0.487403
H375	H	0.583596	-0.099833	-0.488219
H376	H	0.642771	-0.087522	-0.459627
H377	H	0.694537	-0.130937	-0.551401
H378	H	0.753733	-0.118615	-0.522812
C379	C	-0.014462	-0.288979	-0.094935
C380	C	-0.010807	-0.378023	-0.108247
H381	H	-0.012538	-0.261040	-0.064495
H382	H	0.035668	-0.256990	-0.114227
H383	H	-0.069005	-0.288519	-0.097050
H384	H	0.043739	-0.378482	-0.106136
H385	H	-0.060942	-0.410020	-0.088949
C386	C	-0.048515	-0.696546	-0.108448
C387	C	0.017712	-0.696519	-0.150432
H388	H	-0.035900	-0.724985	-0.093040
H389	H	-0.048426	-0.636290	-0.090727
H390	H	-0.106135	-0.728397	-0.113106
H391	H	0.075331	-0.664662	-0.145774
H392	H	0.017631	-0.756786	-0.168157
C393	C	-0.111623	-0.672897	-0.433327
C394	C	-0.031227	-0.673591	-0.430217
H395	H	-0.113544	-0.700840	-0.463768
H396	H	-0.161746	-0.704893	-0.414036
H397	H	-0.114094	-0.612484	-0.424294
H398	H	-0.028759	-0.734004	-0.439247
H399	H	0.018909	-0.641596	-0.449515
C400	C	0.799756	-0.712222	-0.539816
C401	C	0.722703	-0.697588	-0.503458
H402	H	0.828223	-0.743400	-0.533701
H403	H	0.782745	-0.747188	-0.566716
H404	H	0.840564	-0.655998	-0.543682
H405	H	0.681891	-0.753813	-0.499594
H406	H	0.739712	-0.662622	-0.476550
C407	C	-0.084839	-0.837927	-0.287146
C408	C	-0.010937	-0.782759	-0.311565
H409	H	-0.082935	-0.898839	-0.301344
H410	H	-0.082329	-0.820350	-0.257011
H411	H	-0.139374	-0.832015	-0.286529
H412	H	0.043598	-0.788666	-0.312179
H413	H	-0.013440	-0.800341	-0.341707
H414	H	0.417746	-0.755558	-0.018645
H415	H	-0.580066	0.039960	-0.110823
C416	C	-0.491628	-0.017526	-0.452025
C417	C	-0.441710	0.055762	-0.425274
H418	H	-0.464456	-0.017149	-0.482859
H419	H	-0.492548	-0.071951	-0.449159
H420	H	-0.551730	-0.013172	-0.442202
H421	H	-0.381609	0.051404	-0.435095
H422	H	-0.440780	0.110200	-0.428143
C423	C	-0.157220	0.053512	0.147688
C424	C	-0.182647	0.051753	0.192557
H425	H	-0.096712	0.049576	0.132899
H426	H	-0.196235	0.004005	0.132226
H427	H	-0.161457	0.108158	0.147510
H428	H	-0.178417	-0.002896	0.192734
H429	H	-0.143622	0.101264	0.208022
H430	H	-0.023718	-0.530163	-0.918978
C431	C	0.830350	-0.285471	-0.016945
C432	C	0.805575	-0.374432	-0.015712
H433	H	0.890831	-0.257121	-0.015801
H434	H	0.825909	-0.285225	-0.044205
H435	H	0.791120	-0.253732	0.008341
H436	H	0.844801	-0.406173	-0.041001
H437	H	0.810023	-0.374682	0.011551
H438	H	0.771156	-0.249077	-0.019476
H439	H	0.544632	-0.155941	-0.028119
H440	H	-0.020209	-0.749804	-0.374113
C441	C	-0.730472	-0.028406	-0.094902
C442	C	-0.729116	0.051836	-0.099118
H443	H	-0.757635	-0.028772	-0.064066
H444	H	-0.764333	-0.078113	-0.113050
H445	H	-0.670363	-0.032744	-0.104725
H446	H	-0.789225	0.056171	-0.089298
H447	H	-0.695256	0.101556	-0.080964
H448	H	-0.303725	0.071562	0.087197
H449	H	0.182115	-0.525189	-0.530531
C450	C	0.179920	-0.801468	-0.524467
C451	C	0.268512	-0.774944	-0.522462
H452	H	0.152746	-0.862404	-0.523916
H453	H	0.146075	-0.764246	-0.499153
H454	H	0.180862	-0.795757	-0.551699
H455	H	0.267569	-0.780649	-0.495228
H456	H	0.302365	-0.812177	-0.547779
H457	H	-0.047834	-0.232081	-0.882358
H458	H	-0.275840	0.035205	0.347100
H459	H	-0.797237	0.091807	0.342798
H460	H	0.182201	-0.525171	-0.030575
C461	C	0.831077	-0.298371	-0.516568
C462	C	0.796465	-0.237262	-0.518939
H463	H	0.891559	-0.270025	-0.515427
H464	H	0.795187	-0.317499	-0.490064
H465	H	0.829971	-0.349028	-0.542610
H466	H	0.797564	-0.186607	-0.492895
H467	H	0.832365	-0.218121	-0.545446
C468	C	0.141055	-0.763284	-0.026536
C469	C	0.165824	-0.674325	-0.027769
H470	H	0.080570	-0.791635	-0.027672
H471	H	0.180276	-0.795021	-0.051820
H472	H	0.145507	-0.763524	0.000727
H473	H	0.161378	-0.674086	-0.055034
H474	H	0.126592	-0.642580	-0.002483
H475	H	0.780052	-0.386407	-0.516111
C476	C	0.404768	-0.789560	-0.478151
C477	C	0.406138	-0.781165	-0.518293
H478	H	0.377578	-0.850493	-0.477595
H479	H	0.464866	-0.771565	-0.476796
H480	H	0.370916	-0.752326	-0.452839
H481	H	0.439995	-0.818395	-0.543605
H482	H	0.346030	-0.799171	-0.519653
C483	C	0.557424	-0.121985	-0.568471
C484	C	0.556034	-0.130422	-0.528335
H485	H	0.584619	-0.061046	-0.569015
H486	H	0.591270	-0.159209	-0.593785
H487	H	0.497322	-0.139966	-0.569829
H488	H	0.616137	-0.112447	-0.526979
H489	H	0.522189	-0.093186	-0.503015
H490	H	0.003251	-0.391359	-0.619081
H491	H	-0.015274	-0.667410	-0.915397
H492	H	-0.226632	0.032105	-0.368836
