data_functionalizedCrystal
_audit_creation_method	'MofGen! by Chris Wilmer'
_symmetry_space_group_name_H-M	'P1'
_symmetry_Int_Tables_number	1
_symmetry_cell_setting	triclinic
loop_
_symmetry_equiv_pos_as_xyz
  x,y,z
_cell_length_a	20.875492
_cell_length_b	20.875643
_cell_length_c	14.560438
_cell_angle_alpha	89.999781
_cell_angle_beta	58.306817
_cell_angle_gamma	124.000926
loop_
_atom_site_label
_atom_site_type_symbol
_atom_site_fract_x
_atom_site_fract_y
_atom_site_fract_z
Zr1	Zr	0.693872	-0.604075	-0.140540
O2	O	0.843894	-0.489663	-0.304385
O3	O	0.549584	-0.644447	-0.082704
O4	O	0.691340	-0.636803	-0.285281
O5	O	0.702136	-0.497310	0.049332
O6	O	0.682821	-0.746843	-0.278866
O7	O	0.702138	-0.497307	-0.101809
O8	O	0.429245	-0.760517	0.083507
O9	O	0.955712	-0.483636	-0.313040
O10	O	0.600451	-0.737386	-0.062443
O11	O	0.606807	-0.655266	0.045565
O12	O	0.773707	-0.646266	-0.192943
O13	O	0.780063	-0.564147	-0.084936
Zr14	Zr	0.680282	-0.779581	0.110744
Zr15	Zr	0.680285	-0.779576	-0.130309
Zr16	Zr	0.693869	-0.604080	0.100512
Zr17	Zr	0.872209	-0.594463	-0.154344
Zr18	Zr	0.501945	-0.789193	0.124547
O19	O	0.824570	-0.739209	0.052908
O20	O	0.824575	-0.739202	-0.289838
O21	O	0.843890	-0.489669	0.038360
O22	O	0.530260	-0.893993	0.274589
O23	O	0.530265	-0.893987	-0.068157
O24	O	0.549579	-0.644454	0.260042
O25	O	0.672018	-0.886346	-0.079129
O26	O	0.682814	-0.746853	0.255485
O27	O	0.691333	-0.636813	0.249070
O28	O	0.672016	-0.886349	0.072012
O29	O	0.944912	-0.623135	-0.304908
O30	O	0.429242	-0.760521	0.275112
O31	O	0.418442	-0.900020	0.283244
O32	O	0.418445	-0.900017	0.091639
O33	O	0.955710	-0.483639	-0.121436
O34	O	0.944910	-0.623139	-0.113303
O35	O	0.600447	-0.737390	0.163147
O36	O	0.594091	-0.819509	0.055140
O37	O	0.767347	-0.728390	-0.075361
O38	O	0.773704	-0.646270	0.032646
C39	C	0.464005	-0.703852	0.002368
C40	C	0.388297	-0.707932	0.008228
C41	C	0.419046	-0.645902	-0.080606
C42	C	0.347923	-0.649738	-0.075140
C43	C	0.246051	-0.715602	0.019165
C44	C	0.215301	-0.777638	0.108003
C45	C	0.286423	-0.773805	0.102532
C46	C	0.026230	-0.733927	0.045343
C47	C	-0.044892	-0.737754	0.050809
C48	C	0.087735	-0.609854	-0.132336
C49	C	0.158853	-0.606024	-0.137795
C50	C	0.128097	-0.668063	-0.048960
N51	N	0.173350	-0.719523	0.024756
N52	N	0.200797	-0.664144	-0.054556
C53	C	0.704073	-0.472303	-0.027696
C54	C	0.709841	-0.397798	-0.032039
C55	C	0.622115	-0.410357	0.034034
C56	C	0.627541	-0.340349	0.029950
C57	C	0.720693	-0.257783	-0.040215
C58	C	0.808426	-0.245225	-0.106291
C59	C	0.802999	-0.315233	-0.102199
C60	C	0.746621	-0.043306	-0.059750
C61	C	0.752041	0.026702	-0.063839
C62	C	0.571156	-0.068426	0.072403
C63	C	0.565738	-0.138431	0.076483
C64	C	0.653470	-0.125867	0.010412
N65	N	0.726242	-0.186222	-0.044394
N66	N	0.647920	-0.197428	0.014599
C67	C	0.910149	-0.679804	-0.032164
C68	C	0.985858	-0.675724	-0.038024
C69	C	0.687081	-0.691822	-0.316418
C70	C	0.687083	-0.691820	-0.418751
C71	C	0.670082	0.088647	-0.002103
C72	C	0.664316	0.014144	0.002234
C73	C	0.777519	-0.644258	-0.534947
C74	C	0.777514	-0.644268	-0.631095
C75	C	0.596628	-0.739404	-0.494837
C76	C	0.596634	-0.739398	-0.398691
C77	C	0.687073	-0.691834	0.286622
C78	C	0.687072	-0.691836	0.388955
C79	C	0.447009	-0.923377	0.015166
C80	C	0.365533	-1.001962	0.025369
C81	C	0.464001	-0.703857	0.303888
C82	C	0.388291	-0.707940	0.412081
C83	C	0.447005	-0.923382	0.316686
C84	C	0.365527	-1.001970	0.429222
C85	C	0.927149	-0.460274	-0.346482
C86	C	1.008627	-0.381686	-0.459019
C87	C	0.927145	-0.460279	-0.044962
C88	C	1.008622	-0.381694	-0.055166
C89	C	0.910153	-0.679799	-0.333684
C90	C	0.985863	-0.675716	-0.441878
C91	C	0.330590	-0.995999	-0.031226
C92	C	0.254044	-1.069831	-0.021663
C93	C	0.212438	-1.149626	0.044504
C94	C	0.247388	-1.155587	0.101100
C95	C	0.323937	-1.081755	0.091529
C96	C	0.349417	-0.752725	0.524277
C97	C	0.278290	-0.756558	0.625944
C98	C	0.246032	-0.715610	0.615414
C99	C	0.284914	-0.670819	0.503206
C100	C	0.356045	-0.666982	0.401541
C101	C	0.323946	-1.081748	0.425692
C102	C	0.247398	-1.155595	0.531423
C103	C	0.212428	-1.149663	0.640683
C104	C	0.254017	-1.069876	0.644209
C105	C	0.330568	-0.996030	0.538480
C106	C	1.050217	-0.301908	-0.455490
C107	C	1.126787	-0.228059	-0.561222
C108	C	1.161761	-0.233991	-0.670482
C109	C	1.120167	-0.313778	-0.674008
C110	C	1.043604	-0.387625	-0.568277
C111	C	1.043572	-0.387657	0.001419
C112	C	1.120137	-0.313824	-0.008173
C113	C	1.161746	-0.234029	-0.074342
C114	C	1.126793	-0.228068	-0.130934
C115	C	1.050234	-0.301900	-0.121349
C116	C	1.018098	-0.716673	-0.431309
C117	C	1.089224	-0.712854	-0.532957
C118	C	1.128121	-0.668071	-0.645173
C119	C	1.095880	-0.627113	-0.655739
C120	C	1.024749	-0.630938	-0.554092
H121	H	0.241799	-0.552402	-0.214603
H122	H	1.115467	-0.746206	-0.524331
Cl123	Cl	0.367898	-1.089228	0.288351
H124	H	0.001176	-0.784443	0.117678
Cl125	Cl	1.217547	-0.663267	-0.772949
H126	H	1.009699	-0.452623	0.055308
Cl127	Cl	0.404900	-0.610681	0.260500
Cl128	Cl	0.891225	-0.584453	-0.560168
H129	H	1.224085	-0.173917	-0.082138
Cl130	Cl	0.116202	-1.242436	0.056527
Cl131	Cl	0.195125	-1.255888	0.526962
H132	H	0.998512	-0.597581	-0.562714
H133	H	1.160641	-0.163101	-0.558327
H134	H	0.986439	-0.753140	-0.339947
Cl135	Cl	0.210119	-1.062317	-0.092814
H136	H	1.148653	-0.318598	-0.762980
Cl137	Cl	1.144798	-0.570808	-0.796822
H138	H	0.150094	-1.209800	0.726766
Cl139	Cl	1.179108	-0.127747	-0.214109
H140	H	0.546260	-0.477583	0.091175
H141	H	0.364465	-0.931032	-0.085119
Cl142	Cl	1.006299	-0.294389	-0.192484
Cl143	Cl	0.517252	-0.356143	0.113030
Cl144	Cl	0.482928	-0.799206	-0.469630
Cl145	Cl	1.164058	-0.321337	0.062985
H146	H	1.021747	-0.297061	-0.366535
Cl147	Cl	0.156606	-0.720443	0.743236
H148	H	0.364415	-0.931074	0.541370
Cl149	Cl	0.547113	-0.563095	-0.199163
Cl150	Cl	0.448627	-0.242226	0.164694
Cl151	Cl	0.210042	-1.062432	0.781575
H152	H	0.522985	-0.778134	-0.304072
Cl153	Cl	0.229421	-0.812873	0.766990
H154	H	-0.127846	-0.791390	0.127609
Cl155	Cl	0.891211	-0.584473	-0.777170
Cl156	Cl	0.460871	-0.084212	0.155464
H157	H	0.258639	-0.637481	0.494650
H158	H	0.213501	-1.220566	0.154972
Cl159	Cl	0.367849	-1.089267	0.162696
Cl160	Cl	0.389951	-0.804212	0.537546
Cl161	Cl	1.258013	-0.141147	-0.803391
Cl162	Cl	0.991321	-0.487915	-0.572734
H163	H	0.818059	-0.033066	-0.113570
H164	H	0.112766	-0.559347	-0.204662
Cl165	Cl	0.386587	-0.571751	-0.186819
H166	H	0.132350	-0.831269	0.184784
H167	H	0.827901	0.093934	-0.120981
Cl168	Cl	0.925533	-0.141427	-0.194490
Cl169	Cl	0.913288	-0.299442	-0.185262
Cl170	Cl	0.247763	-0.851792	0.214209
