data_functionalizedCrystal
_audit_creation_method	'MofGen! by Chris Wilmer'
_symmetry_space_group_name_H-M	'P1'
_symmetry_Int_Tables_number	1
_symmetry_cell_setting	triclinic
loop_
_symmetry_equiv_pos_as_xyz
  x,y,z
_cell_length_a	12.645330
_cell_length_b	12.759401
_cell_length_c	12.759393
_cell_angle_alpha	89.979899
_cell_angle_beta	90.030312
_cell_angle_gamma	89.989407
loop_
_atom_site_label
_atom_site_type_symbol
_atom_site_fract_x
_atom_site_fract_y
_atom_site_fract_z
Zn1	Zn	-0.422033	-1.606278	0.594015
Zn2	Zn	-0.599335	-1.606178	0.418337
Zn3	Zn	-0.422081	-1.430579	0.418351
Zn4	Zn	-0.599249	-1.430576	0.593976
O5	O	-0.510675	-1.518403	0.506170
O6	O	-0.445568	-1.753286	0.570722
O7	O	-0.575878	-1.582843	0.271318
O8	O	-0.273727	-1.453929	0.441676
O9	O	-0.575832	-1.753212	0.441652
O10	O	-0.273692	-1.583014	0.570735
O11	O	-0.445650	-1.453831	0.271328
O12	O	-0.445567	-1.283557	0.441638
O13	O	-0.575685	-1.453924	0.741002
O14	O	-0.575731	-1.283555	0.570668
O15	O	-0.445485	-1.583012	0.741031
O16	O	-0.747671	-1.582841	0.441614
O17	O	-0.747608	-1.453827	0.570655
C18	C	-0.510646	-1.245435	0.506151
C19	C	-0.510659	-1.128659	0.506168
C20	C	-0.442951	-1.073836	0.573477
C21	C	-0.442958	-0.964112	0.573482
C22	C	-0.578389	-0.964043	0.438866
C23	C	-0.578376	-1.073765	0.438856
C24	C	-0.786104	-1.518351	0.506152
C25	C	-0.903934	-1.518426	0.506179
C26	C	-0.948811	-1.599681	0.425069
C27	C	-1.071372	-1.599495	0.424780
C28	C	-1.071940	-1.407708	0.476431
C29	C	-0.949342	-1.408125	0.475813
C30	C	-0.949006	-1.547030	0.617301
C31	C	-1.071611	-1.549526	0.616737
C32	C	-0.234169	-1.518483	0.506211
C33	C	-0.116339	-1.518517	0.506229
C34	C	-0.510570	-1.518479	0.780203
C35	C	-0.510526	-1.518512	0.896980
C36	C	-0.510695	-0.792436	0.506186
C37	C	-0.510678	-0.909213	0.506183
C38	C	-0.510702	-1.518387	0.233203
C39	C	-0.510448	-1.518558	0.116426
C40	C	-0.442680	-1.585754	1.061590
C41	C	-0.442721	-1.585734	0.951866
C42	C	-0.578301	-1.451313	0.951824
C43	C	-0.578265	-1.451339	1.061546
H44	H	-0.387822	-0.919480	0.628291
H45	H	-0.918081	-1.580958	0.343203
Cl46	Cl	-0.663518	-0.895027	0.354254
Cl47	Cl	-1.116790	-1.570263	0.297682
H48	H	-0.387458	-1.640488	1.106270
Cl49	Cl	-0.663545	-1.366805	0.882825
Cl50	Cl	-1.117719	-1.726335	0.453533
Cl51	Cl	-0.903506	-1.311445	0.563072
Cl52	Cl	-0.903192	-1.726887	0.453455
H53	H	-0.633513	-1.118403	0.384039
H54	H	-0.920833	-1.383923	0.394594
H55	H	-0.633456	-1.396619	1.106195
H56	H	-0.387808	-1.118527	0.628283
Cl57	Cl	-1.116910	-1.311723	0.564855
H58	H	-1.102214	-1.494711	0.680400
H59	H	-0.919976	-1.487856	0.677731
Cl60	Cl	-1.119471	-1.369732	0.352432
Cl61	Cl	-0.901172	-1.669630	0.659214
H62	H	-1.100622	-1.631072	0.639211
H63	H	-0.387538	-1.640453	0.907223
