data_functionalizedCrystal
_audit_creation_method	'MofGen! by Chris Wilmer'
_symmetry_space_group_name_H-M	'P1'
_symmetry_Int_Tables_number	1
_symmetry_cell_setting	triclinic
loop_
_symmetry_equiv_pos_as_xyz
  x,y,z
_cell_length_a	16.109301
_cell_length_b	10.967829
_cell_length_c	15.186229
_cell_angle_alpha	77.868373
_cell_angle_beta	89.999362
_cell_angle_gamma	84.100403
loop_
_atom_site_label
_atom_site_type_symbol
_atom_site_fract_x
_atom_site_fract_y
_atom_site_fract_z
O1	O	1.104076	0.160392	-0.097510
O2	O	1.604076	0.660392	0.402490
O3	O	0.862131	0.180353	-0.100553
O4	O	1.362131	0.680353	0.399447
O5	O	0.988683	-0.011279	-0.071462
O6	O	1.488683	0.488721	0.428538
O7	O	0.977524	0.352025	-0.126601
O8	O	1.477524	0.852025	0.373399
O9	O	0.988674	-0.011282	0.074995
O10	O	1.488674	0.488718	0.574995
O11	O	0.862123	0.180350	0.045905
O12	O	1.362123	0.680350	0.545905
O13	O	1.104067	0.160390	0.048948
O14	O	1.604067	0.660390	0.548948
Zn15	Zn	0.983093	0.170370	0.070680
Zn16	Zn	1.483093	0.670370	0.570680
Zn17	Zn	0.983105	0.170373	-0.122285
Zn18	Zn	1.483105	0.670373	0.377715
O19	O	0.977515	0.352022	0.019857
O20	O	1.477515	0.852022	0.519857
C21	C	0.831147	0.179543	-0.027203
C22	C	1.331147	0.679543	0.472797
C23	C	0.738838	0.177119	-0.026840
C24	C	1.238838	0.677119	0.473160
C25	C	0.517202	0.285194	-0.043232
C26	C	1.017202	0.785194	0.456768
C27	C	0.430468	0.282906	-0.042880
C28	C	0.930468	0.782906	0.457120
C29	C	0.449003	0.055541	-0.008376
C30	C	0.949003	0.555541	0.491624
C31	C	0.535735	0.057829	-0.008723
C32	C	1.035735	0.557829	0.491277
C33	C	0.569832	0.172659	-0.026156
C34	C	1.069832	0.672659	0.473844
C35	C	0.396366	0.168083	-0.025457
C36	C	0.896366	0.668083	0.474543
C37	C	0.302325	0.165602	-0.025074
C38	C	0.802325	0.665602	0.474926
C39	C	0.663879	0.175141	-0.026537
C40	C	1.163879	0.675141	0.473463
C41	C	0.987866	-0.057770	0.008820
C42	C	1.487866	0.442230	0.508820
C43	C	0.985435	-0.196294	0.029838
C44	C	1.485435	0.303706	0.529838
C45	C	0.984355	-0.258044	-0.036662
C46	C	1.484355	0.241956	0.463338
C47	C	0.981843	-0.401216	-0.014941
C48	C	1.481843	0.098784	0.485059
C49	C	1.135051	0.161200	-0.024404
C50	C	1.635051	0.661200	0.475596
C51	C	1.227360	0.163624	-0.024772
C52	C	1.727360	0.663624	0.475228
C53	C	0.978332	0.398513	-0.060427
C54	C	1.478332	0.898513	0.439573
C55	C	0.980763	0.537037	-0.081451
C56	C	1.480763	1.037037	0.418549
N57	N	0.983092	0.170366	0.202373
N58	N	1.483092	0.670366	0.702373
N59	N	0.983113	0.170367	-0.253976
N60	N	1.483113	0.670367	0.246024
C61	C	1.039148	0.085540	0.440973
C62	C	1.539148	0.585540	0.940973
C63	C	1.039151	0.085537	0.533163
C64	C	1.539151	0.585537	1.033163
C65	C	0.927050	0.255197	0.507417
C66	C	1.427050	0.755197	1.007417
C67	C	0.927044	0.255193	0.415229
C68	C	1.427044	0.755193	0.915229
C69	C	0.983098	0.170366	0.382009
C70	C	1.483098	0.670366	0.882009
C71	C	0.983107	0.170367	0.566387
C72	C	1.483107	0.670367	1.066387
C73	C	0.983109	0.170364	0.666343
C74	C	1.483109	0.670364	1.166343
C75	C	0.983095	0.170367	0.282047
C76	C	1.483095	0.670367	0.782047
H77	H	0.578589	-0.033815	0.005186
H78	H	1.078589	0.466185	0.505186
H79	H	0.881414	0.324263	0.534474
H80	H	1.381414	0.824263	1.034474
F81	F	0.374458	0.402681	-0.061053
F82	F	0.874458	0.902681	0.438947
H83	H	0.985288	-0.204917	-0.109676
H84	H	1.485288	0.295083	0.390324
H85	H	0.881397	0.324269	0.367218
H86	H	1.381397	0.824269	0.867218
F87	F	1.098805	-0.004748	0.595914
F88	F	1.598805	0.495252	1.095914
F89	F	0.984205	-0.265727	0.125274
F90	F	1.484205	0.234273	0.625274
H91	H	0.544961	0.378696	-0.057421
H92	H	1.044961	0.878696	0.442579
H93	H	1.084789	0.016467	0.413928
H94	H	1.584789	0.516467	0.913928
H95	H	0.421230	-0.037950	0.005822
H96	H	0.921230	0.462050	0.505822
F97	F	0.980613	-0.470644	0.080500
F98	F	1.480613	0.029356	0.580500
F99	F	0.981960	-0.393531	-0.176894
F100	F	1.481960	0.106469	0.323106
