data_functionalizedCrystal
_audit_creation_method	'MofGen! by Chris Wilmer'
_symmetry_space_group_name_H-M	'P1'
_symmetry_Int_Tables_number	1
_symmetry_cell_setting	triclinic
loop_
_symmetry_equiv_pos_as_xyz
  x,y,z
_cell_length_a	15.995343
_cell_length_b	15.072220
_cell_length_c	19.288865
_cell_angle_alpha	89.985399
_cell_angle_beta	96.687284
_cell_angle_gamma	89.999635
loop_
_atom_site_label
_atom_site_type_symbol
_atom_site_fract_x
_atom_site_fract_y
_atom_site_fract_z
O1	O	1.110651	0.073704	-0.089510
O2	O	0.866833	0.073727	-0.100571
O3	O	0.995787	0.073697	0.006072
O4	O	0.981697	0.073733	-0.196153
O5	O	0.995778	-0.073868	0.006085
O6	O	0.866824	-0.073839	-0.100558
O7	O	1.110642	-0.073861	-0.089497
Zn8	Zn	0.988732	-0.097279	-0.095025
Zn9	Zn	0.988743	0.097144	-0.095042
O10	O	0.981688	-0.073832	-0.196140
C11	C	0.835635	-0.000053	-0.100108
C12	C	0.742690	-0.000046	-0.098740
C13	C	0.572513	-0.000058	-0.096257
C14	C	0.549458	-0.000072	-0.019277
C15	C	0.452785	-0.000412	-0.017829
C16	C	0.404962	-0.000069	-0.093811
C17	C	0.433903	-0.084161	-0.132510
C18	C	0.530692	-0.084227	-0.133423
C19	C	0.530608	0.083589	-0.134565
C20	C	0.434124	0.084688	-0.131723
C21	C	0.310269	-0.000078	-0.092433
C22	C	0.667206	-0.000055	-0.097637
N23	N	0.988731	-0.229968	-0.095013
C24	C	0.988744	-0.589169	-0.095037
C25	C	1.057967	-0.551551	-0.038165
C26	C	1.057788	-0.448725	-0.037955
C27	C	0.988738	-0.410965	-0.095025
C28	C	0.901440	-0.448303	-0.079199
C29	C	0.901850	-0.551161	-0.078797
C30	C	1.006030	-0.551235	-0.167903
C31	C	1.008015	-0.448371	-0.167415
C32	C	0.988729	-0.310252	-0.095020
C33	C	0.988747	-0.689883	-0.095041
C34	C	1.141840	-0.000079	-0.089959
C35	C	1.234785	-0.000081	-0.091328
C36	C	0.995329	-0.000088	0.031956
C37	C	0.993968	-0.000096	0.109063
N38	N	0.988751	0.229833	-0.095049
C39	C	0.982146	-0.000045	-0.222024
C40	C	0.983507	-0.000031	-0.299131
C41	C	1.069633	-0.000107	0.153565
C42	C	1.068354	-0.000093	0.226015
C43	C	0.991407	-0.000085	0.253960
C44	C	0.915732	-0.000069	0.209449
C45	C	0.917013	-0.000074	0.137000
C46	C	0.930914	-0.051769	0.362408
C47	C	0.929637	-0.051769	0.434856
C48	C	0.987453	-0.000065	0.477416
C49	C	1.046562	0.051627	0.447522
C50	C	1.047843	0.051622	0.375073
C51	C	0.990009	-0.000079	0.332518
C52	C	1.061737	-0.000060	0.600477
C53	C	1.060455	-0.000040	0.672929
C54	C	0.907831	-0.000025	0.656361
C55	C	0.909115	-0.000036	0.583911
C56	C	0.986070	-0.000057	0.555974
H57	H	0.558973	0.147349	-0.110283
C58	C	1.090175	-0.586266	-0.188450
N59	N	1.153557	-0.612652	-0.203918
H60	H	0.883831	-0.093877	0.327760
C61	C	0.830185	-0.415256	-0.133664
N62	N	0.776517	-0.390361	-0.174688
C63	C	0.427249	0.081000	0.023108
N64	N	0.408021	0.142317	0.053950
H65	H	0.847500	-0.000032	0.547677
H66	H	0.434459	-0.061056	0.012334
H67	H	0.413908	-0.146990	-0.105947
C68	C	1.151594	-0.000111	0.274976
N69	N	1.214291	-0.000127	0.311851
C70	C	0.567011	-0.169481	-0.097621
N71	N	0.594363	-0.233696	-0.070651
C72	C	1.112855	0.108490	0.342191
N73	N	1.161820	0.151327	0.317424
C74	C	0.944288	-0.413642	-0.227269
N75	N	0.896283	-0.387483	-0.272350
C76	C	1.042895	-0.415502	0.035096
N77	N	1.031673	-0.390480	0.090121
H78	H	1.093642	0.093730	0.482173
C79	C	0.937833	-0.584106	-0.225080
N80	N	0.886466	-0.608872	-0.268140
H81	H	0.885780	-0.422560	-0.026663
H82	H	0.544407	0.084410	-0.191227
C83	C	0.550095	-0.089062	-0.209685
N84	N	0.564706	-0.092711	-0.267124
C85	C	0.833773	-0.000064	0.088046
N86	N	0.771074	-0.000059	0.051173
H87	H	1.123086	-0.576284	-0.047437
H88	H	0.853081	-0.000061	0.232207
H89	H	1.072233	-0.423967	-0.179424
H90	H	0.577581	0.060222	0.010556
C91	C	1.154286	-0.000123	0.122838
N92	N	1.218047	-0.000133	0.099694
C93	C	0.881213	-0.583597	-0.007006
N94	N	0.865669	-0.608024	0.047069
H95	H	1.124398	-0.000073	0.577730
H96	H	0.578549	-0.060295	0.010080
C97	C	0.830186	-0.584783	-0.132624
N98	N	0.776205	-0.610103	-0.173162
H99	H	1.122072	-0.000045	0.709162
H100	H	0.845179	-0.000014	0.679114
H101	H	0.415676	0.146901	-0.103541
H102	H	0.881503	-0.093855	0.459190
C103	C	0.389342	0.091898	-0.206633
N104	N	0.355613	0.097321	-0.263058
H105	H	0.401846	-0.087043	-0.188431
H106	H	1.122689	-0.423480	-0.047379
C107	C	1.043300	-0.586485	0.034475
N108	N	1.032249	-0.612798	0.089188
