data_functionalizedCrystal
_audit_creation_method	'MofGen! by Chris Wilmer'
_symmetry_space_group_name_H-M	'P1'
_symmetry_Int_Tables_number	1
_symmetry_cell_setting	triclinic
loop_
_symmetry_equiv_pos_as_xyz
  x,y,z
_cell_length_a	17.038272
_cell_length_b	10.489741
_cell_length_c	8.965430
_cell_angle_alpha	89.999293
_cell_angle_beta	90.001545
_cell_angle_gamma	92.174635
loop_
_atom_site_label
_atom_site_type_symbol
_atom_site_fract_x
_atom_site_fract_y
_atom_site_fract_z
O1	O	1.038972	-0.277137	-0.123852
O2	O	0.811315	-0.272737	-0.123895
O3	O	0.930324	-0.089824	-0.123864
O4	O	0.919963	-0.460050	-0.123883
O5	O	0.930314	-0.089836	0.124215
O6	O	0.811305	-0.272749	0.124183
O7	O	1.038962	-0.277149	0.124227
Cu8	Cu	0.925133	-0.274950	0.146857
Cu9	Cu	0.925144	-0.274936	-0.146525
O10	O	0.919953	-0.460062	0.124195
C11	C	0.782159	-0.268740	0.000138
C12	C	0.695297	-0.256798	0.000122
C13	C	0.929536	-0.042225	0.000175
C14	C	0.927195	0.099624	0.000172
N15	N	0.925130	-0.274960	0.353206
C16	C	0.645818	-0.366437	0.000117
C17	C	0.564202	-0.355208	0.000138
C18	C	0.532067	-0.234341	0.000154
C19	C	0.581553	-0.124695	0.000163
C20	C	0.663167	-0.135924	0.000152
C21	C	0.286080	-0.194670	0.000196
C22	C	0.204459	-0.183449	0.000202
C23	C	0.187114	-0.413964	0.000180
C24	C	0.268730	-0.425183	0.000161
C25	C	0.318209	-0.315536	0.000178
C26	C	0.448643	-0.222861	0.000171
C27	C	0.401631	-0.327017	0.000171
C28	C	1.068118	-0.281146	0.000190
C29	C	1.154980	-0.293088	0.000197
C30	C	0.920741	-0.507661	0.000154
C31	C	0.923082	-0.649510	0.000147
C32	C	0.851474	0.174846	0.000146
C33	C	0.887239	0.263617	0.122469
C34	C	0.887267	0.263602	-0.122118
C35	C	0.962991	0.186526	0.122595
C36	C	0.963009	0.186502	-0.122101
C37	C	0.998829	0.275241	0.000252
N38	N	0.925153	-0.274917	-0.352874
C39	C	0.870075	-0.359519	0.450497
C40	C	0.940910	-0.391956	0.549923
C41	C	0.854325	-0.242537	0.549907
C42	C	0.996000	-0.307457	0.450443
C43	C	0.909369	-0.157984	0.450419
C44	C	0.980254	-0.190377	0.549800
H45	H	0.671975	-0.464860	0.000104
H46	H	0.954257	-0.490861	0.593630
H47	H	1.055902	-0.334979	0.406936
C48	C	0.891306	-0.024407	0.391315
N49	N	0.877692	0.076203	0.346794
C50	C	0.843949	0.309561	0.262158
N51	N	0.811338	0.344163	0.367366
H52	H	0.995025	0.152469	-0.225509
C53	C	1.083009	0.334150	0.000363
N54	N	1.146412	0.378525	0.000456
C55	C	0.843972	0.309508	-0.261826
N56	N	0.811358	0.344078	-0.367050
H57	H	1.026873	-0.118850	0.593127
C58	C	0.304072	-0.558146	0.000167
N59	N	0.330691	-0.658296	0.000176
C60	C	0.773419	-0.205509	0.608925
N61	N	0.712478	-0.177628	0.653371
H62	H	0.523919	-0.444488	0.000133
H63	H	0.146820	-0.503232	0.000169
C64	C	0.807241	-0.456224	0.391575
N65	N	0.759919	-0.529066	0.347190
H66	H	0.178299	-0.085020	0.000212
C67	C	0.340496	-0.074054	0.000205
N68	N	0.381485	0.016800	0.000209
H69	H	0.555383	-0.026282	0.000196
H70	H	0.427799	-0.425427	0.000167
C71	C	0.767369	0.115625	0.000299
N72	N	0.704024	0.071016	0.000423
C73	C	1.006229	0.140826	0.262465
N74	N	1.038792	0.106401	0.367817
H75	H	0.703453	-0.046645	0.000155
H76	H	0.422470	-0.124451	0.000225
