data_functionalizedCrystal
_audit_creation_method	'MofGen! by Chris Wilmer'
_symmetry_space_group_name_H-M	'P1'
_symmetry_Int_Tables_number	1
_symmetry_cell_setting	triclinic
loop_
_symmetry_equiv_pos_as_xyz
  x,y,z
_cell_length_a	14.908520
_cell_length_b	11.169417
_cell_length_c	11.169409
_cell_angle_alpha	90.022423
_cell_angle_beta	93.260433
_cell_angle_gamma	86.680427
loop_
_atom_site_label
_atom_site_type_symbol
_atom_site_fract_x
_atom_site_fract_y
_atom_site_fract_z
Zn1	Zn	-0.359109	-1.807304	-0.706122
Zn2	Zn	-0.510001	-1.795565	-0.517002
Zn3	Zn	-0.359159	-1.606583	-0.505454
Zn4	Zn	-0.509922	-1.594978	-0.717635
O5	O	-0.434548	-1.701108	-0.611553
O6	O	-0.379137	-1.973695	-0.681050
O7	O	-0.490045	-1.770441	-0.347525
O8	O	-0.232908	-1.642979	-0.522422
O9	O	-0.489997	-1.965071	-0.542104
O10	O	-0.232872	-1.790447	-0.669852
O11	O	-0.379222	-1.631596	-0.339040
O12	O	-0.379146	-1.437095	-0.533585
O13	O	-0.489863	-1.623199	-0.884053
O14	O	-0.489911	-1.428569	-0.689473
O15	O	-0.379061	-1.779194	-0.875595
O16	O	-0.636234	-1.759187	-0.553268
O17	O	-0.636176	-1.611817	-0.700672
C18	C	-0.434526	-1.389285	-0.611526
C19	C	-0.434539	-1.255884	-0.611544
C20	C	-0.668939	-1.683002	-0.629498
C21	C	-0.769212	-1.675366	-0.637215
C22	C	-0.957636	-1.814632	-0.498349
C23	C	-1.051852	-1.807461	-0.505596
C24	C	-1.051862	-1.653860	-0.658962
C25	C	-0.957646	-1.661031	-0.651715
C26	C	-0.910536	-1.741418	-0.571404
C27	C	-0.816318	-1.748582	-0.564152
C28	C	-0.816330	-1.594988	-0.717523
C29	C	-0.910546	-1.587818	-0.724770
C30	C	-0.199241	-1.719317	-0.593564
C31	C	-0.098968	-1.727077	-0.585898
C32	C	-0.434448	-1.701211	-0.924588
C33	C	-0.434405	-1.701256	-1.057985
C34	C	-0.434562	-1.014149	-0.611571
C35	C	-0.434549	-1.147550	-0.611553
C36	C	-0.434582	-1.701078	-0.299731
C37	C	-0.434371	-1.701286	-0.166315
H38	H	-0.777963	-1.814034	-0.498756
Br39	Br	-0.893697	-1.923701	-0.389338
H40	H	-1.090235	-1.588421	-0.724354
Br41	Br	-0.974488	-1.478733	-0.833764
Br42	Br	-1.115771	-1.906832	-0.406451
H43	H	-0.777971	-1.535369	-0.777006
