data_functionalizedCrystal
_audit_creation_method	'MofGen! by Chris Wilmer'
_symmetry_space_group_name_H-M	'P1'
_symmetry_Int_Tables_number	1
_symmetry_cell_setting	triclinic
loop_
_symmetry_equiv_pos_as_xyz
  x,y,z
_cell_length_a	12.759401
_cell_length_b	15.297327
_cell_length_c	12.759393
_cell_angle_alpha	99.641677
_cell_angle_beta	89.981425
_cell_angle_gamma	99.706828
loop_
_atom_site_label
_atom_site_type_symbol
_atom_site_fract_x
_atom_site_fract_y
_atom_site_fract_z
Zn1	Zn	1.533800	-0.359096	-0.666298
Zn2	Zn	1.503249	-0.509983	-0.521004
Zn3	Zn	1.358092	-0.359144	-0.490647
Zn4	Zn	1.327660	-0.509915	-0.696631
O5	O	1.430700	-0.434534	-0.593645
O6	O	1.676766	-0.379120	-0.647035
O7	O	1.483945	-0.490023	-0.369966
O8	O	1.406922	-0.232892	-0.488549
O9	O	1.654321	-0.489977	-0.540288
O10	O	1.536013	-0.232857	-0.617599
O11	O	1.377298	-0.379202	-0.347663
O12	O	1.207036	-0.379135	-0.517961
O13	O	1.355054	-0.489859	-0.839619
O14	O	1.184677	-0.489906	-0.669297
O15	O	1.506504	-0.379053	-0.817333
O16	O	1.454436	-0.636219	-0.569700
O17	O	1.325430	-0.636169	-0.698733
C18	C	1.157736	-0.434519	-0.593627
C19	C	1.040956	-0.434534	-0.593649
C20	C	0.997761	-0.376915	-0.649357
C21	C	0.888035	-0.376924	-0.649366
C22	C	0.864708	-0.492179	-0.537957
C23	C	0.974433	-0.492164	-0.537943
C24	C	0.759571	-0.270586	-0.665720
C25	C	0.716370	-0.212976	-0.721446
C26	C	0.754802	-0.199224	-0.821215
C27	C	0.836429	-0.243096	-0.865282
C28	C	0.879623	-0.300714	-0.809563
C29	C	0.841196	-0.314448	-0.709776
C30	C	1.102899	-0.598504	-0.521600
C31	C	1.146093	-0.656126	-0.465886
C32	C	1.107662	-0.669887	-0.366117
C33	C	1.026028	-0.626031	-0.322057
C34	C	0.982834	-0.568408	-0.377771
C35	C	1.021273	-0.554646	-0.477538
C36	C	1.383344	-0.668928	-0.640825
C37	C	1.363181	-0.769202	-0.661044
C38	C	1.575242	-1.051840	-0.449497
C39	C	1.594186	-0.957627	-0.430495
C40	C	1.536437	-0.910516	-0.488131
C41	C	1.459740	-0.957627	-0.564771
C42	C	1.440788	-1.051850	-0.583769
C43	C	1.401983	-0.910526	-0.622403
C44	C	1.325286	-0.957637	-0.699043
C45	C	1.306339	-1.051850	-0.718038
C46	C	1.364088	-1.098961	-0.660403
C47	C	1.420934	-0.816304	-0.603405
C48	C	1.286480	-0.816314	-0.737677
C49	C	1.267537	-0.910527	-0.756679
C50	C	1.704730	-0.434551	-0.593664
C51	C	1.821505	-0.434558	-0.593672
C52	C	1.430792	-0.434443	-0.867660
C53	C	1.430831	-0.434404	-0.984429
C54	C	1.478270	-0.199226	-0.546304
C55	C	1.498541	-0.098951	-0.526131
C56	C	1.375327	-0.376689	-1.027675
C57	C	1.375357	-0.376661	-1.137394
C58	C	1.486404	-0.492066	-1.160611
C59	C	1.486367	-0.492098	-1.050895
C60	C	1.258021	-0.344375	-1.280845
C61	C	1.202528	-0.286646	-1.324092
C62	C	1.204183	-0.198628	-1.270778
C63	C	1.261350	-0.168320	-1.174214
C64	C	1.316852	-0.226045	-1.130972
C65	C	1.315174	-0.314076	-1.184287
C66	C	1.603707	-0.524375	-0.907440
C67	C	1.659215	-0.582095	-0.864195
C68	C	1.657570	-0.670115	-0.917508
C69	C	1.600422	-0.700420	-1.014074
C70	C	1.544914	-0.642699	-1.057319
C71	C	1.546557	-0.554680	-1.003999
C72	C	1.430682	-0.434560	-0.320683
C73	C	1.430898	-0.434345	-0.203864
H74	H	0.946086	-0.336429	-0.845438
C75	C	0.626594	-0.164712	-0.672970
H76	H	0.609904	-0.181138	-0.605558
H77	H	0.565303	-0.181770	-0.718827
H78	H	0.649202	-0.101446	-0.664606
C79	C	0.983745	-0.641163	-0.212312
H80	H	0.928935	-0.606796	-0.194057
H81	H	1.040034	-0.622856	-0.160463
H82	H	0.956158	-0.703180	-0.214722
C83	C	1.678514	-0.905807	-0.346171
H84	H	1.681512	-0.842948	-0.343093
H85	H	1.746018	-0.921171	-0.364670
H86	H	1.660015	-0.921321	-0.278703
H87	H	1.363401	-0.201367	-1.052355
H88	H	1.622247	-1.090206	-0.402572
C89	C	1.143141	-0.135129	-1.318347
H90	H	1.108856	-0.165785	-1.383486
H91	H	1.191516	-0.083806	-1.330994
H92	H	1.091370	-0.116638	-1.269910
C93	C	1.557282	-0.806884	-0.467239
H94	H	1.611238	-0.785574	-0.413348
H95	H	1.493771	-0.785623	-0.444734
H96	H	1.579726	-0.785520	-0.530749
H97	H	1.205089	-0.948898	-0.819080
C98	C	1.263225	-0.071479	-1.115606
H99	H	1.221991	-0.041439	-1.155194
H100	H	1.334486	-0.040245	-1.108300
H101	H	1.234343	-0.073008	-1.047172
C102	C	1.343247	-1.202596	-0.681298
H103	H	1.388624	-1.223902	-0.635993
H104	H	1.357100	-1.223855	-0.753398
H105	H	1.271156	-1.223969	-0.667371
H106	H	1.155981	-0.311331	-1.402716
H107	H	1.702781	-0.717107	-0.882292
H108	H	1.256652	-0.416051	-1.324256
C109	C	1.482053	-0.676032	-1.163541
H110	H	1.489017	-0.736722	-1.189101
H111	H	1.509251	-0.639552	-1.214060
H112	H	1.409102	-0.672397	-1.152987
H113	H	1.051923	-0.329986	-0.694712
H114	H	1.483381	-0.777954	-0.541003
C115	C	1.722055	-0.548769	-0.757960
H116	H	1.715068	-0.488086	-0.732387
H117	H	1.795005	-0.552401	-0.768486
H118	H	1.694833	-0.585259	-0.707453
H119	H	1.142815	-0.716834	-0.320774
C120	C	1.605346	-0.427605	-0.848694
H121	H	1.564043	-0.397590	-0.888242
H122	H	1.676543	-0.396231	-0.841252
H123	H	1.576396	-0.429314	-0.780316
C124	C	1.222957	-0.764502	-0.801084
H125	H	1.245236	-0.701643	-0.778802
H126	H	1.149256	-0.779999	-0.788777
H127	H	1.235211	-0.779887	-0.874793
H128	H	1.243875	-1.090206	-0.780432
C129	C	0.717301	-0.285703	-0.555968
H130	H	0.662493	-0.251333	-0.537717
H131	H	0.773594	-0.267390	-0.504123
H132	H	0.689712	-0.347718	-0.558362
C133	C	1.314220	-0.313244	-0.954570
H134	H	1.281157	-0.278875	-0.996046
H135	H	1.362331	-0.273947	-0.903860
H136	H	1.261449	-0.347777	-0.918717
C137	C	1.145175	-0.583363	-0.631347
H138	H	1.107768	-0.542756	-0.658211
H139	H	1.134979	-0.639148	-0.678891
H140	H	1.218863	-0.558827	-0.624638
C141	C	1.547508	-0.555513	-1.233718
H142	H	1.580554	-0.589895	-1.192247
H143	H	1.600275	-0.520989	-1.269575
H144	H	1.499386	-0.594811	-1.284426
H145	H	1.599087	-0.772091	-1.057487
C146	C	0.878684	-0.227989	-0.975043
H147	H	0.933472	-0.262377	-0.993310
H148	H	0.906271	-0.165981	-0.972668
H149	H	0.822372	-0.246311	-1.026875
C150	C	0.707287	-0.135850	-0.882508
H151	H	0.653176	-0.111689	-0.841974
H152	H	0.677745	-0.168534	-0.948792
H153	H	0.761632	-0.088212	-0.894549
H154	H	0.810531	-0.539100	-0.492605
H155	H	0.916362	-0.532698	-0.341888
H156	H	1.212577	-0.691824	-0.501761
