data_functionalizedCrystal
_audit_creation_method	'MofGen! by Chris Wilmer'
_symmetry_space_group_name_H-M	'P1'
_symmetry_Int_Tables_number	1
_symmetry_cell_setting	triclinic
loop_
_symmetry_equiv_pos_as_xyz
  x,y,z
_cell_length_a	18.050591
_cell_length_b	18.050590
_cell_length_c	18.050582
_cell_angle_alpha	90.023337
_cell_angle_beta	90.020922
_cell_angle_gamma	90.014558
loop_
_atom_site_label
_atom_site_type_symbol
_atom_site_fract_x
_atom_site_fract_y
_atom_site_fract_z
Zn1	Zn	1.135342	-0.295786	0.420027
Zn2	Zn	1.468676	0.037548	0.753361
Zn3	Zn	1.802009	0.370881	1.086694
Zn4	Zn	1.135274	-0.419969	0.295836
Zn5	Zn	1.468607	-0.086636	0.629169
Zn6	Zn	1.801941	0.246698	0.962502
Zn7	Zn	1.011162	-0.295789	0.295839
Zn8	Zn	1.344495	0.037545	0.629172
Zn9	Zn	1.677828	0.370878	0.962505
Zn10	Zn	1.011131	-0.419930	0.419971
Zn11	Zn	1.344464	-0.086596	0.753305
Zn12	Zn	1.677797	0.246737	1.086638
O13	O	1.073227	-0.357868	0.357918
O14	O	1.406561	-0.024535	0.691252
O15	O	1.739894	0.308798	1.024585
O16	O	1.239258	-0.312274	0.403576
O17	O	1.572591	0.021059	0.736909
O18	O	1.905925	0.354393	1.070242
O19	O	1.118795	-0.403514	0.191912
O20	O	1.452128	-0.070181	0.525245
O21	O	1.785461	0.263153	0.858578
O22	O	1.027676	-0.191864	0.312337
O23	O	1.361009	0.141470	0.645671
O24	O	1.694343	0.474803	0.979004
O25	O	1.239208	-0.403511	0.312332
O26	O	1.572541	-0.070178	0.645666
O27	O	1.905874	0.263156	0.978999
O28	O	1.118911	-0.191862	0.403578
O29	O	1.452245	0.141472	0.736912
O30	O	1.785578	0.474805	1.070245
O31	O	1.027610	-0.312279	0.191914
O32	O	1.360943	0.021054	0.525247
O33	O	1.694276	0.354388	0.858580
O34	O	0.907233	-0.312241	0.312283
O35	O	1.240566	0.021092	0.645616
O36	O	1.573900	0.354426	0.978949
O37	O	1.027623	-0.403444	0.523903
O38	O	1.360956	-0.070111	0.857237
O39	O	1.694290	0.263223	1.190570
O40	O	0.907210	-0.403447	0.403482
O41	O	1.240543	-0.070114	0.736816
O42	O	1.573877	0.263220	1.070149
O43	O	1.118881	-0.312236	0.523945
O44	O	1.452214	0.021097	0.857278
O45	O	1.785548	0.354431	1.190611
O46	O	1.118765	-0.523888	0.312278
O47	O	1.452098	-0.190555	0.645611
O48	O	1.785431	0.142778	0.978945
O49	O	1.027557	-0.523860	0.403480
O50	O	1.360890	-0.190526	0.736813
O51	O	1.694224	0.142807	1.070146
C52	C	0.880275	-0.357841	0.357877
C53	C	1.213608	-0.024507	0.691211
C54	C	1.546942	0.308826	1.024544
C55	C	0.797729	-0.357847	0.357877
C56	C	1.131063	-0.024513	0.691211
C57	C	1.464396	0.308820	1.024544
C58	C	0.598269	-0.308191	0.308397
C59	C	0.931603	0.025142	0.641730
C60	C	1.264936	0.358475	0.975064
C61	C	0.548861	-0.375927	0.290120
C62	C	0.882195	-0.042594	0.623453
C63	C	1.215528	0.290739	0.956787
C64	C	0.646599	-0.357869	0.357911
C65	C	0.979932	-0.024536	0.691244
C66	C	1.313266	0.308797	1.024578
C67	C	0.548925	-0.290157	0.376186
C68	C	0.882259	0.043176	0.709519
C69	C	1.215592	0.376510	1.042853
C70	C	0.500614	-0.357885	0.357942
C71	C	0.833947	-0.024552	0.691275
C72	C	1.167280	0.308782	1.024609
C73	C	0.598278	-0.425641	0.339598
C74	C	0.931611	-0.092307	0.672932
C75	C	1.264945	0.241026	1.006265
C76	C	0.598346	-0.339825	0.425696
C77	C	0.931680	-0.006491	0.759029
C78	C	1.265013	0.326842	1.092363
C79	C	0.548961	-0.407607	0.407445
C80	C	0.882294	-0.074274	0.740778
C81	C	1.215627	0.259059	1.074111
C82	C	0.730697	-0.357859	0.357891
C83	C	1.064031	-0.024526	0.691224
C84	C	1.397364	0.308808	1.024558
C85	C	0.416517	-0.357903	0.357962
C86	C	0.749851	-0.024569	0.691295
C87	C	1.083184	0.308764	1.024628
C88	C	1.073170	-0.550820	0.357889
C89	C	1.406503	-0.217487	0.691222
C90	C	1.739837	0.115846	1.024555
C91	C	1.073214	-0.633366	0.357901
C92	C	1.406547	-0.300033	0.691234
C93	C	1.739880	0.033300	1.024568
C94	C	1.122916	-0.832806	0.308375
C95	C	1.456249	-0.499472	0.641708
C96	C	1.789582	-0.166139	0.975041
C97	C	1.141051	-0.882145	0.376157
C98	C	1.474384	-0.548812	0.709490
C99	C	1.807718	-0.215479	1.042823
C100	C	1.073256	-0.784497	0.357930
C101	C	1.406589	-0.451163	0.691264
C102	C	1.739922	-0.117830	1.024597
C103	C	1.055196	-0.882238	0.290179
C104	C	1.388529	-0.548905	0.623512
C105	C	1.721863	-0.215572	0.956846
C106	C	1.073298	-0.930482	0.357953
C107	C	1.406631	-0.597148	0.691286
C108	C	1.739965	-0.263815	1.024620
C109	C	1.091426	-0.832749	0.425748
C110	C	1.424759	-0.499416	0.759082
C111	C	1.758093	-0.166082	1.092415
C112	C	1.005539	-0.832838	0.339725
C113	C	1.338873	-0.499504	0.673058
C114	C	1.672206	-0.166171	1.006391
C115	C	1.023649	-0.882155	0.407554
C116	C	1.356982	-0.548822	0.740887
C117	C	1.690316	-0.215489	1.074220
C118	C	1.073233	-0.700398	0.357916
C119	C	1.406567	-0.367065	0.691250
C120	C	1.739900	-0.033732	1.024583
C121	C	1.073320	-1.014578	0.357975
C122	C	1.406653	-0.681245	0.691308
C123	C	1.739987	-0.347911	1.024641
C124	C	1.266933	-0.357897	0.357960
C125	C	1.600266	-0.024563	0.691293
C126	C	1.933599	0.308770	1.024627
C127	C	1.349479	-0.357909	0.357978
C128	C	1.682812	-0.024575	0.691311
C129	C	2.016145	0.308758	1.024644
C130	C	1.073256	-0.357835	0.551624
C131	C	1.406590	-0.024502	0.884957
C132	C	1.739923	0.308831	1.218291
C133	C	1.073269	-0.357821	0.634170
C134	C	1.406602	-0.024488	0.967503
C135	C	1.739935	0.308845	1.300836
C136	C	1.073305	-0.164163	0.357964
C137	C	1.406638	0.169171	0.691298
C138	C	1.739971	0.502504	1.024631
C139	C	1.073338	-0.081617	0.357984
C140	C	1.406671	0.251716	0.691317
C141	C	1.740004	0.585050	1.024651
C142	C	1.073241	-0.357848	0.164966
C143	C	1.406574	-0.024514	0.498300
C144	C	1.739908	0.308819	0.831633
C145	C	1.073372	-0.357652	0.082421
C146	C	1.406706	-0.024319	0.415754
C147	C	1.740039	0.309014	0.749088
C148	C	1.023681	-0.407353	0.833598
C149	C	1.357014	-0.074019	1.166931
C150	C	1.690347	0.259314	1.500265
C151	C	1.091439	-0.425511	0.882996
C152	C	1.424772	-0.092177	1.216330
C153	C	1.758106	0.241156	1.549663
C154	C	1.073305	-0.357765	0.785300
C155	C	1.406639	-0.024431	1.118634
C156	C	1.739972	0.308902	1.451967
C157	C	1.005584	-0.339586	0.882984
C158	C	1.338918	-0.006253	1.216317
C159	C	1.672251	0.327081	1.549651
C160	C	1.073335	-0.357711	0.931285
C161	C	1.406668	-0.024378	1.264619
C162	C	1.740001	0.308955	1.597952
C163	C	1.141099	-0.375958	0.833611
C164	C	1.474432	-0.042625	1.166945
C165	C	1.807766	0.290708	1.500278
C166	C	1.055199	-0.290002	0.833594
C167	C	1.388532	0.043331	1.166928
C168	C	1.721865	0.376665	1.500261
C169	C	1.123004	-0.308134	0.882970
C170	C	1.456337	0.025199	1.216304
C171	C	1.789671	0.358532	1.549637
C172	C	1.073287	-0.357797	0.701202
C173	C	1.406621	-0.024464	1.034535
C174	C	1.739954	0.308869	1.367869
C175	C	1.073360	-0.357679	1.015382
C176	C	1.406694	-0.024345	1.348715
C177	C	1.740027	0.308988	1.682049
H178	H	0.527446	-0.449673	0.449330
H179	H	0.860779	-0.116340	0.782663
H180	H	1.194113	0.216993	1.115997
H181	H	1.164925	-0.811136	0.266510
H182	H	1.498259	-0.477803	0.599843
H183	H	1.831592	-0.144470	0.933177
H184	H	1.198335	-0.903806	0.391570
H185	H	1.531669	-0.570473	0.724903
H186	H	1.865002	-0.237139	1.058236
H187	H	0.527208	-0.232894	0.391604
H188	H	0.860541	0.100439	0.724938
H189	H	1.193875	0.433772	1.058271
H190	H	0.948301	-0.324232	0.904672
H191	H	1.281634	0.009101	1.238005
H192	H	1.614968	0.342434	1.571339
H193	H	1.165031	-0.266177	0.904511
H194	H	1.498364	0.067157	1.237845
H195	H	1.831698	0.400490	1.571178
H196	H	0.981754	-0.449342	0.811921
H197	H	1.315087	-0.116009	1.145254
H198	H	1.648421	0.217324	1.478587
H199	H	1.039846	-0.232736	0.811878
H200	H	1.373180	0.100598	1.145211
H201	H	1.706513	0.433931	1.478545
H202	H	0.619920	-0.266226	0.266480
H203	H	0.953253	0.067108	0.599813
H204	H	1.286587	0.400441	0.933146
H205	H	1.039904	-0.903976	0.232873
H206	H	1.373237	-0.570643	0.566206
H207	H	1.706570	-0.237310	0.899540
H208	H	0.527126	-0.391201	0.232809
H209	H	0.860459	-0.057868	0.566142
H210	H	1.193793	0.275465	0.899476
H211	H	1.106771	-0.482794	0.904696
H212	H	1.440105	-0.149460	1.238030
H213	H	1.773438	0.183873	1.571363
H214	H	0.619866	-0.482928	0.324091
H215	H	0.953199	-0.149594	0.657424
H216	H	1.286533	0.183739	0.990758
H217	H	0.620100	-0.324530	0.482990
H218	H	0.953433	0.008804	0.816323
H219	H	1.286766	0.342137	1.149656
H220	H	1.106662	-0.811103	0.483104
H221	H	1.439995	-0.477770	0.816437
H222	H	1.773328	-0.144437	1.149770
H223	H	0.948271	-0.811161	0.324291
H224	H	1.281605	-0.477828	0.657625
H225	H	1.614938	-0.144495	0.990958
H226	H	0.981672	-0.903687	0.449520
H227	H	1.315005	-0.570354	0.782853
H228	H	1.648338	-0.237021	1.116186
H229	H	1.198399	-0.391377	0.812015
H230	H	1.531732	-0.058043	1.145348
H231	H	1.865066	0.275290	1.478681
