data_functionalizedCrystal
_audit_creation_method	'MofGen! by Chris Wilmer'
_symmetry_space_group_name_H-M	'P1'
_symmetry_Int_Tables_number	1
_symmetry_cell_setting	triclinic
loop_
_symmetry_equiv_pos_as_xyz
  x,y,z
_cell_length_a	13.897449
_cell_length_b	12.759400
_cell_length_c	12.759393
_cell_angle_alpha	90.031564
_cell_angle_beta	90.022656
_cell_angle_gamma	90.014517
loop_
_atom_site_label
_atom_site_type_symbol
_atom_site_fract_x
_atom_site_fract_y
_atom_site_fract_z
Zn1	Zn	-1.474721	0.418209	-0.594098
Zn2	Zn	-1.474624	0.593928	-0.418418
Zn3	Zn	-1.313411	0.418263	-0.418425
Zn4	Zn	-1.313400	0.593846	-0.594047
O5	O	-1.394039	0.506061	-0.506247
O6	O	-1.609690	0.441530	-0.570812
O7	O	-1.453202	0.570682	-0.271398
O8	O	-1.334854	0.271235	-0.441752
O9	O	-1.609618	0.570630	-0.441741
O10	O	-1.453368	0.271195	-0.570819
O11	O	-1.334760	0.441622	-0.271403
O12	O	-1.178428	0.441543	-0.441703
O13	O	-1.334836	0.570490	-0.741075
O14	O	-1.178420	0.570543	-0.570731
O15	O	-1.453358	0.441451	-0.741112
O16	O	-1.453192	0.740938	-0.441691
O17	O	-1.334742	0.740878	-0.570725
C18	C	-1.143425	0.506041	-0.506213
C19	C	-1.036211	0.506057	-0.506223
C20	C	-1.393982	0.779029	-0.506225
C21	C	-1.394045	0.895805	-0.506251
C22	C	-1.394106	0.505955	-0.780280
C23	C	-1.394135	0.505910	-0.897057
C24	C	-0.839915	0.506055	-0.506243
C25	C	-0.949148	0.506053	-0.506229
C26	C	-0.645632	0.506076	-0.506272
C27	C	-0.752846	0.506065	-0.506256
C28	C	-1.394123	0.232028	-0.506292
C29	C	-1.394158	0.115251	-0.506311
C30	C	-1.455791	0.950664	-0.439137
C31	C	-1.455850	1.060388	-0.439170
C32	C	-1.332410	1.060385	-0.573432
C33	C	-1.332356	0.950663	-0.573404
C34	C	-1.517480	0.895806	-0.371984
C35	C	-1.579230	0.950665	-0.304864
C36	C	-1.579289	1.060389	-0.304896
C37	C	-1.517598	1.115254	-0.372049
C38	C	-1.455858	0.438713	-0.951940
C39	C	-1.455881	0.438675	-1.061665
C40	C	-1.332456	0.573041	-1.061612
C41	C	-1.332429	0.573073	-0.951890
C42	C	-1.517564	0.371550	-0.897107
C43	C	-1.579293	0.304348	-0.951991
C44	C	-1.579316	0.304310	-1.061715
C45	C	-1.517610	0.371475	-1.116556
C46	C	-1.394027	0.506091	-0.233279
C47	C	-1.394185	0.505840	-0.116503
H48	H	-1.517436	0.806463	-0.371947
O49	O	-1.639291	0.897421	-0.239748
C50	C	-1.803371	0.863794	-0.188852
C51	C	-1.735461	0.924134	-0.262679
H52	H	-1.881137	0.885386	-0.207350
H53	H	-1.792808	0.775936	-0.200356
H54	H	-1.786431	0.885446	-0.104134
H55	H	-1.752358	0.902570	-0.347426
H56	H	-1.746037	1.011977	-0.251084
H57	H	-1.629575	1.105051	-0.250252
H58	H	-1.517659	1.204599	-0.372078
H59	H	-1.282154	0.627775	-0.907203
H60	H	-1.282184	1.105066	-0.628103
O61	O	-1.272293	0.897529	-0.638636
C62	C	-1.149921	0.909096	-0.771874
C63	C	-1.217869	0.969401	-0.698024
H64	H	-1.105917	0.967178	-0.819923
H65	H	-1.099415	0.857830	-0.723636
H66	H	-1.194185	0.857624	-0.826788
H67	H	-1.173683	1.020930	-0.643094
H68	H	-1.268378	1.020601	-0.746326
O69	O	-1.639193	0.239202	-0.898561
C70	C	-1.693810	0.179653	-0.729552
C71	C	-1.625942	0.253507	-0.789926
H72	H	-1.683106	0.191177	-0.641710
H73	H	-1.771610	0.198101	-0.751055
H74	H	-1.676910	0.094941	-0.751207
H75	H	-1.642756	0.338244	-0.768304
H76	H	-1.548162	0.234969	-0.768418
O77	O	-1.639363	0.238998	-1.114868
C78	C	-1.761743	0.105688	-1.103333
C79	C	-1.693799	0.179616	-1.043010
H80	H	-1.805758	0.057643	-1.045262
H81	H	-1.812239	0.153864	-1.154671
H82	H	-1.717474	0.050773	-1.154735
H83	H	-1.737990	0.234546	-0.991551
H84	H	-1.643301	0.131375	-0.991739
H85	H	-1.517555	0.371576	-0.807764
O86	O	-1.517785	0.371340	-1.223142
C87	C	-1.585504	0.297523	-1.380627
C88	C	-1.585414	0.297580	-1.259923
H89	H	-1.640161	0.237879	-1.410401
H90	H	-1.605558	0.378846	-1.410454
H91	H	-1.510796	0.275753	-1.410387
H92	H	-1.660099	0.319305	-1.230074
H93	H	-1.565305	0.216247	-1.230168
O94	O	-1.272617	0.638254	-1.115044
C95	C	-1.217929	0.697716	-1.284056
C96	C	-1.285757	0.623822	-1.223678
H97	H	-1.228515	0.686058	-1.371897
H98	H	-1.234840	0.782462	-1.262540
H99	H	-1.140160	0.679280	-1.262418
H100	H	-1.363550	0.642163	-1.245284
H101	H	-1.268764	0.539097	-1.245200
