data_functionalizedCrystal
_audit_creation_method	'MofGen! by Chris Wilmer'
_symmetry_space_group_name_H-M	'P1'
_symmetry_Int_Tables_number	1
_symmetry_cell_setting	triclinic
loop_
_symmetry_equiv_pos_as_xyz
  x,y,z
_cell_length_a	14.853558
_cell_length_b	15.995350
_cell_length_c	13.930277
_cell_angle_alpha	89.997676
_cell_angle_beta	89.993309
_cell_angle_gamma	83.561754
loop_
_atom_site_label
_atom_site_type_symbol
_atom_site_fract_x
_atom_site_fract_y
_atom_site_fract_z
O1	O	1.196226	0.109280	-0.079814
O2	O	0.933748	0.122310	-0.079818
O3	O	1.072162	-0.006084	-0.079815
O4	O	1.057812	0.237675	-0.079817
O5	O	1.072143	-0.006087	0.079847
O6	O	0.933729	0.122307	0.079844
O7	O	1.196207	0.109277	0.079848
Zn8	Zn	1.064965	0.115792	0.105195
Zn9	Zn	1.064990	0.115795	-0.105166
O10	O	1.057793	0.237672	0.079845
C11	C	0.900150	0.121720	0.000012
C12	C	0.800069	0.119955	0.000011
C13	C	1.071559	-0.037281	0.000014
C14	C	1.069781	-0.130234	0.000008
C15	C	0.753060	0.119129	-0.087025
C16	C	0.753037	0.119116	0.087045
C17	C	0.659006	0.117453	0.087046
C18	C	0.611997	0.116626	0.000011
C19	C	0.659020	0.117463	-0.087026
C20	C	0.611977	0.116607	0.174082
C21	C	0.517940	0.114944	0.174087
C22	C	0.470929	0.114123	0.087050
C23	C	0.517958	0.114961	0.000010
C24	C	0.470949	0.114135	-0.087025
C25	C	0.517975	0.114978	-0.174067
C26	C	0.612009	0.116643	-0.174062
C27	C	0.376895	0.112459	0.087046
C28	C	0.376909	0.112469	-0.087026
C29	C	1.063393	-0.467988	0.000012
C30	C	0.964817	-0.420666	-0.000348
C31	C	0.966596	-0.323974	0.000012
C32	C	1.066562	-0.300424	0.000009
C33	C	1.115172	-0.341448	0.091183
C34	C	1.112696	-0.438087	0.091260
C35	C	1.114754	-0.438440	-0.090306
C36	C	1.114730	-0.341494	-0.091511
C37	C	1.068357	-0.205725	0.000011
C38	C	1.061601	-0.562688	0.000016
C39	C	1.229805	0.109867	0.000015
C40	C	1.329886	0.111633	0.000010
C41	C	1.058396	0.268869	0.000013
C42	C	1.060174	0.361821	0.000013
N43	N	1.064954	0.115789	0.248761
N44	N	1.065008	0.115792	-0.248732
C45	C	1.003698	0.172626	0.701029
C46	C	1.126307	0.058958	0.701001
C47	C	1.126296	0.058955	0.600506
C48	C	1.064987	0.115790	0.550267
C49	C	1.003687	0.172627	0.600524
C50	C	1.187601	0.002125	0.550241
C51	C	1.187593	0.002121	0.449739
C52	C	1.126278	0.058952	0.399499
C53	C	1.064976	0.115791	0.449762
C54	C	1.003666	0.172625	0.399524
C55	C	0.942358	0.229461	0.449785
C56	C	0.942372	0.229458	0.550284
C57	C	1.126264	0.058954	0.299000
C58	C	1.003655	0.172626	0.299019
H59	H	0.338641	0.111801	-0.157902
Cl60	Cl	1.264679	-0.069316	0.613395
H61	H	1.237512	-0.044158	0.408822
Cl62	Cl	0.812175	0.120189	-0.196443
H63	H	1.187433	-0.470118	-0.090920
H64	H	1.176228	0.012689	0.741909
Cl65	Cl	0.865292	0.300913	0.386618
H66	H	1.187630	-0.326050	-0.097018
Cl67	Cl	0.926570	0.244075	0.235870
H68	H	0.925585	-0.440306	0.064669
H69	H	0.892459	0.275732	0.591213
Cl70	Cl	0.926626	0.244071	0.764210
H71	H	0.338610	0.111780	0.157914
H72	H	1.176184	0.012684	0.258082
H73	H	0.479689	0.114301	-0.244931
H74	H	0.479660	0.114256	0.244961
H75	H	0.791318	0.119782	0.157905
Cl76	Cl	0.671134	0.117692	-0.283475
H77	H	0.650260	0.117273	0.244941
Cl78	Cl	0.907177	-0.281015	0.101087
H79	H	0.928385	-0.295594	-0.065345
H80	H	1.077233	-0.456430	0.159415
Cl81	Cl	0.903993	-0.449342	-0.101294
Cl82	Cl	1.228561	-0.319513	0.096422
Cl83	Cl	1.224429	-0.487753	0.097658
Cl84	Cl	1.064998	-0.470192	-0.196999
Cl85	Cl	1.063022	-0.297695	0.195941
H86	H	1.079190	-0.314285	-0.158959
