data_functionalizedCrystal
_audit_creation_method	'MofGen! by Chris Wilmer'
_symmetry_space_group_name_H-M	'P1'
_symmetry_Int_Tables_number	1
_symmetry_cell_setting	triclinic
loop_
_symmetry_equiv_pos_as_xyz
  x,y,z
_cell_length_a	16.974800
_cell_length_b	13.262508
_cell_length_c	16.053802
_cell_angle_alpha	108.475487
_cell_angle_beta	91.074188
_cell_angle_gamma	82.923469
loop_
_atom_site_label
_atom_site_type_symbol
_atom_site_fract_x
_atom_site_fract_y
_atom_site_fract_z
O1	O	1.048044	0.135751	0.032240
O2	O	1.548044	0.635751	0.532240
O3	O	0.818459	0.152053	0.020422
O4	O	1.318459	0.652053	0.520422
O5	O	0.940703	-0.011106	-0.008361
O6	O	1.440703	0.488894	0.491639
O7	O	0.925800	0.298909	0.061023
O8	O	1.425800	0.798909	0.561023
O9	O	0.933975	-0.002162	0.132073
O10	O	1.433975	0.497838	0.632073
O11	O	0.811730	0.160996	0.160857
O12	O	1.311730	0.660996	0.660857
O13	O	1.041316	0.144694	0.172675
O14	O	1.541316	0.644694	0.672675
Zn15	Zn	0.925455	0.154265	0.189063
Zn16	Zn	1.425455	0.654265	0.689063
Zn17	Zn	0.934320	0.142482	0.004034
Zn18	Zn	1.434320	0.642482	0.504034
O19	O	0.919072	0.307852	0.201458
O20	O	1.419072	0.807852	0.701458
C21	C	0.785737	0.155741	0.088477
C22	C	1.285737	0.655741	0.588477
C23	C	0.698263	0.153392	0.082030
C24	C	1.198263	0.653392	0.582030
C25	C	0.653504	0.157162	0.155554
C26	C	1.153504	0.657162	0.655554
C27	C	0.571314	0.154938	0.149496
C28	C	1.071314	0.654938	0.649496
C29	C	0.533883	0.148953	0.069914
C30	C	1.033883	0.648953	0.569914
C31	C	0.578648	0.145180	-0.003616
C32	C	1.078648	0.645180	0.496384
C33	C	0.660838	0.147396	0.002442
C34	C	1.160838	0.647396	0.502442
C35	C	0.288467	0.141797	0.043587
C36	C	0.788467	0.641797	0.543587
C37	C	0.206271	0.139584	0.037535
C38	C	0.706271	0.639584	0.537535
C39	C	0.198943	0.149341	0.190647
C40	C	0.698943	0.649341	0.690647
C41	C	0.281133	0.151562	0.196699
C42	C	0.781133	0.651562	0.696699
C43	C	0.325892	0.147784	0.123168
C44	C	0.825892	0.647784	0.623168
N45	N	0.449871	0.146684	0.063720
N46	N	0.949871	0.646684	0.563720
N47	N	0.409903	0.150045	0.129361
N48	N	0.909903	0.650045	0.629361
C49	C	0.937122	-0.046311	0.052830
C50	C	1.437122	0.453689	0.552830
C51	C	0.936467	-0.164536	0.025936
C52	C	1.436467	0.335464	0.525936
C53	C	0.919945	-0.478306	0.256340
C54	C	1.419945	0.021694	0.756340
C55	C	0.920555	-0.367226	0.281609
C56	C	1.420555	0.132774	0.781609
C57	C	0.924533	-0.316548	0.217693
C58	C	1.424533	0.183452	0.717693
C59	C	0.927901	-0.376961	0.128504
C60	C	1.427901	0.123039	0.628504
C61	C	0.927286	-0.488050	0.103232
C62	C	1.427286	0.011950	0.603232
C63	C	0.931874	-0.326293	0.064585
C64	C	1.431874	0.173707	0.564585
C65	C	0.935242	-0.386706	-0.024604
C66	C	1.435242	0.113294	0.475396
C67	C	0.934627	-0.497784	-0.049871
C68	C	1.434627	0.002216	0.450129
C69	C	0.930649	-0.548462	0.014045
C70	C	1.430649	-0.048462	0.514045
C71	C	0.932489	-0.215203	0.089857
C72	C	1.432489	0.284797	0.589857
C73	C	0.939830	-0.224948	-0.063251
C74	C	1.439830	0.275052	0.436749
C75	C	0.939221	-0.336028	-0.088520
C76	C	1.439221	0.163972	0.411480
C77	C	1.074037	0.141006	0.104618
C78	C	1.574037	0.641006	0.604618
C79	C	1.161512	0.143354	0.111059
C80	C	1.661512	0.643354	0.611059
C81	C	0.922652	0.343058	0.140264
C82	C	1.422652	0.843058	0.640264
C83	C	0.923308	0.461283	0.167153
C84	C	1.423308	0.961283	0.667153
N85	N	0.919411	0.162306	0.315340
N86	N	1.419411	0.662306	0.815340
N87	N	0.940370	0.134432	-0.122245
N88	N	1.440370	0.634432	0.377755
C89	C	0.971444	0.092907	0.346794
C90	C	1.471444	0.592907	0.846794
C91	C	0.967224	0.098542	0.435195
C92	C	1.467224	0.598542	0.935195
C93	C	0.910972	0.173583	0.492142
C94	C	1.410972	0.673583	0.992142
C95	C	0.858933	0.242985	0.460683
C96	C	1.358933	0.742985	0.960683
C97	C	0.863150	0.237344	0.372282
C98	C	1.363150	0.737344	0.872282
C99	C	0.892549	0.198193	0.757895
C100	C	1.392549	0.698193	1.257895
C101	C	0.888337	0.203831	0.846301
C102	C	1.388337	0.703831	1.346301
C103	C	0.996627	0.059386	0.820807
C104	C	1.496627	0.559386	1.320807
C105	C	1.000843	0.053756	0.732406
C106	C	1.500843	0.553756	1.232406
C107	C	0.948801	0.123155	0.700954
C108	C	1.448801	0.623155	1.200954
N109	N	0.906658	0.179347	0.582503
N110	N	1.406658	0.679347	1.082503
N111	N	0.953112	0.117385	0.610593
N112	N	1.453112	0.617385	1.110593
H113	H	0.175798	0.134714	-0.027272
H114	H	0.675798	0.634714	0.472728
C115	C	0.149703	0.153535	0.271532
C116	C	0.649703	0.653535	0.771532
H117	H	0.095393	0.151364	0.256531
H118	H	0.595393	0.651364	0.756531
H119	H	0.155195	0.217958	0.317610
H120	H	0.655195	0.717958	0.817610
H121	H	0.168139	0.093862	0.290350
H122	H	0.668139	0.593862	0.790350
H123	H	0.943064	-0.183686	-0.115297
H124	H	1.443064	0.316314	0.384703
H125	H	0.813128	0.304081	0.507054
H126	H	1.313128	0.804081	1.007054
H127	H	1.017253	0.031806	0.300433
H128	H	1.517253	0.531806	0.800433
H129	H	1.046647	-0.007347	0.686040
H130	H	1.546647	0.492653	1.186040
C131	C	0.805917	0.313687	0.337684
C132	C	1.305917	0.813687	0.837684
H133	H	0.771816	0.359194	0.384262
H134	H	1.271816	0.859194	0.884262
H135	H	0.775049	0.273060	0.292287
H136	H	1.275049	0.773060	0.792287
H137	H	0.835578	0.355924	0.315173
H138	H	1.335578	0.855924	0.815173
H139	H	0.324900	0.138716	-0.016289
H140	H	0.824900	0.638716	0.483711
C141	C	1.053860	-0.016954	0.855405
C142	C	1.553860	0.483046	1.355405
H143	H	1.043290	-0.002857	0.916207
H144	H	1.543290	0.497143	1.416207
H145	H	1.107061	-0.006130	0.847121
H146	H	1.607061	0.493870	1.347121
H147	H	1.046527	-0.088986	0.824235
H148	H	1.546527	0.411014	1.324235
H149	H	0.842528	0.264942	0.892666
H150	H	1.342528	0.764942	1.392666
C151	C	0.322299	0.158172	0.284244
C152	C	0.822299	0.658172	0.784244
H153	H	0.283870	0.160099	0.327166
H154	H	0.783870	0.660099	0.827166
H155	H	0.347715	0.221292	0.303424
H156	H	0.847715	0.721292	0.803424
H157	H	0.360701	0.097196	0.276155
H158	H	0.860701	0.597196	0.776155
C159	C	1.024468	0.022213	0.469793
C160	C	1.524468	0.522213	0.969793
H161	H	1.058581	-0.023274	0.423219
H162	H	1.558581	0.476726	0.923219
H163	H	0.994821	-0.020027	0.492308
H164	H	1.494821	0.479973	0.992308
H165	H	1.055334	0.062856	0.515190
H166	H	1.555334	0.562856	1.015190
C167	C	0.835327	0.274554	0.723310
C168	C	1.335327	0.774554	1.223310
H169	H	0.845890	0.260451	0.662506
H170	H	1.345890	0.760451	1.162506
H171	H	0.842667	0.346575	0.754485
H172	H	1.342667	0.846575	1.254485
H173	H	0.782120	0.263736	0.731591
H174	H	1.282120	0.763736	1.231591
C175	C	0.694673	0.163726	0.243090
C176	C	1.194673	0.663726	0.743090
H177	H	0.656243	0.165637	0.286006
H178	H	1.156243	0.665637	0.786006
H179	H	0.720103	0.226833	0.262297
H180	H	1.220103	0.726833	0.762297
H181	H	0.733063	0.102732	0.234972
H182	H	1.233063	0.602732	0.734972
H183	H	0.697279	0.144329	-0.057429
H184	H	1.197279	0.644329	0.442571
H185	H	0.929739	-0.166025	0.162475
H186	H	1.429739	0.333975	0.662475
H187	H	0.534876	0.157990	0.209363
H188	H	1.034876	0.657990	0.709363
C189	C	0.916858	-0.300782	0.379708
C190	C	1.416858	0.199218	0.879708
H191	H	0.914409	-0.346872	0.414156
H192	H	1.414409	0.153128	0.914156
H193	H	0.870955	-0.249253	0.391457
H194	H	1.370955	0.250747	0.891457
H195	H	0.962945	-0.265241	0.394040
H196	H	1.462945	0.234759	0.894040
H197	H	0.548166	0.140300	-0.068415
H198	H	1.048166	0.640300	0.431585
C199	C	0.929949	-0.670646	-0.013754
C200	C	1.429949	-0.170646	0.486246
H201	H	0.932517	-0.699369	-0.076025
H202	H	1.432517	-0.199369	0.423975
H203	H	0.882457	-0.685962	0.007514
H204	H	1.382457	-0.185962	0.507514
H205	H	0.974447	-0.701989	0.010090
H206	H	1.474447	-0.201989	0.510090
H207	H	0.925028	-0.226102	0.238273
H208	H	1.425028	0.273898	0.738273
C209	C	0.915563	-0.534046	0.326639
C210	C	1.415563	-0.034046	0.826639
H211	H	0.913641	-0.482160	0.383376
H212	H	1.413641	0.017840	0.883376
H213	H	0.961158	-0.585173	0.321261
H214	H	1.461158	-0.085173	0.821261
H215	H	0.869169	-0.569179	0.318661
H216	H	1.369169	-0.069179	0.818661
C217	C	0.938319	-0.564233	-0.147976
C218	C	1.438319	-0.064233	0.352024
H219	H	0.940781	-0.518147	-0.182424
H220	H	1.440781	-0.018147	0.317576
H221	H	0.892238	-0.599776	-0.162308
H222	H	1.392238	-0.099776	0.337692
H223	H	0.984228	-0.615762	-0.159723
H224	H	1.484228	-0.115762	0.340277
H225	H	0.941963	-0.385231	-0.161139
H226	H	1.441963	0.114769	0.338861
