data_functionalizedCrystal
_audit_creation_method	'MofGen! by Chris Wilmer'
_symmetry_space_group_name_H-M	'P1'
_symmetry_Int_Tables_number	1
_symmetry_cell_setting	triclinic
loop_
_symmetry_equiv_pos_as_xyz
  x,y,z
_cell_length_a	14.519709
_cell_length_b	9.482900
_cell_length_c	11.026607
_cell_angle_alpha	101.400185
_cell_angle_beta	96.133081
_cell_angle_gamma	80.698649
loop_
_atom_site_label
_atom_site_type_symbol
_atom_site_fract_x
_atom_site_fract_y
_atom_site_fract_z
O1	O	1.261291	-0.120696	0.140186
O2	O	1.761291	0.379304	0.640186
O3	O	0.995906	-0.120740	0.158920
O4	O	1.495906	0.379260	0.658920
O5	O	1.106603	-0.120716	-0.027148
O6	O	1.606603	0.379284	0.472852
O7	O	1.150594	-0.120720	0.326254
O8	O	1.650594	0.379280	0.826254
O9	O	1.084143	0.121071	0.010799
O10	O	1.584143	0.621071	0.510799
O11	O	0.973446	0.121048	0.196866
O12	O	1.473446	0.621048	0.696866
O13	O	1.238831	0.121091	0.178133
O14	O	1.738831	0.621091	0.678133
Cu15	Cu	1.104088	0.143147	0.190964
Cu16	Cu	1.604088	0.643147	0.690964
Cu17	Cu	1.130649	-0.142795	0.146088
Cu18	Cu	1.630649	0.357205	0.646088
O19	O	1.128134	0.121068	0.364200
O20	O	1.628134	0.621068	0.864200
C21	C	0.950173	0.000148	0.177018
C22	C	1.450173	0.500148	0.677018
C23	C	0.847362	0.000132	0.174399
C24	C	1.347362	0.500132	0.674399
N25	N	1.085413	0.344263	0.222527
N26	N	1.585413	0.844263	0.722527
N27	N	1.149330	-0.343911	0.114516
N28	N	1.649330	0.156089	0.614516
C29	C	0.470873	0.000198	0.164774
C30	C	0.970873	0.500198	0.664774
C31	C	0.575623	0.000179	0.167447
C32	C	1.075623	0.500179	0.667447
C33	C	0.659114	0.000163	0.169586
C34	C	1.159114	0.500163	0.669586
C35	C	0.763871	0.000147	0.172260
C36	C	1.263871	0.500147	0.672260
C37	C	1.284565	0.000200	0.160033
C38	C	1.784565	0.500200	0.660033
C39	C	1.387377	0.000207	0.162652
C40	C	1.887377	0.500207	0.662652
C41	C	1.087258	0.000174	-0.053403
C42	C	1.587258	0.500174	0.446597
C43	C	1.063067	0.000165	-0.188171
C44	C	1.563067	0.500165	0.311829
C45	C	1.125134	0.416471	0.155391
C46	C	1.625134	0.916471	0.655391
C47	C	1.109604	0.583885	0.181661
C48	C	1.609604	1.083885	0.681661
C49	C	1.129865	0.000174	-0.261831
C50	C	1.629865	0.500174	0.238169
C51	C	1.104864	0.000165	-0.401121
C52	C	1.604864	0.500165	0.098879
C53	C	1.147479	0.000174	0.390455
C54	C	1.647479	0.500174	0.890455
C55	C	1.171672	0.000174	0.525222
C56	C	1.671672	0.500174	1.025222
H57	H	1.170633	0.354352	0.078461
H58	H	1.670633	0.854352	0.578461
H59	H	1.247386	0.000077	-0.434745
H60	H	1.747386	0.500077	0.065255
O61	O	1.209602	0.573827	0.012600
O62	O	1.709602	1.073827	0.512600
H63	H	1.269424	0.504475	0.052817
H64	H	1.769424	1.004475	0.552817
O65	O	1.049327	0.666145	0.283572
O66	O	1.549327	1.166145	0.783572
H67	H	1.046595	0.784729	0.288222
H68	H	1.546595	1.284729	0.788222
H69	H	1.039905	0.406383	0.299448
H70	H	1.539905	0.906383	0.799448
O71	O	1.230141	0.000192	-0.208789
O72	O	1.730141	0.500192	0.291211
H73	H	1.234041	0.000205	-0.107707
H74	H	1.734041	0.500205	0.392293
O75	O	1.004584	0.000143	-0.454161
O76	O	1.504584	0.500143	0.045839
H77	H	0.960609	0.098683	-0.407602
H78	H	1.460609	0.598683	0.092398
O79	O	0.962790	0.000158	-0.241211
O80	O	1.462790	0.500158	0.258789
H81	H	0.958887	0.000168	-0.342289
H82	H	1.458887	0.500168	0.157711
