data_functionalizedCrystal
_audit_creation_method	'MofGen! by Chris Wilmer'
_symmetry_space_group_name_H-M	'P1'
_symmetry_Int_Tables_number	1
_symmetry_cell_setting	triclinic
loop_
_symmetry_equiv_pos_as_xyz
  x,y,z
_cell_length_a	10.686220
_cell_length_b	16.120444
_cell_length_c	10.686551
_cell_angle_alpha	91.291368
_cell_angle_beta	89.691918
_cell_angle_gamma	97.071939
loop_
_atom_site_label
_atom_site_type_symbol
_atom_site_fract_x
_atom_site_fract_y
_atom_site_fract_z
Zn1	Zn	1.957915	-0.203138	0.579050
Zn2	Zn	2.291249	0.130195	0.912383
Zn3	Zn	2.624582	0.463529	1.245717
Zn4	Zn	1.931016	-0.353950	0.381663
Zn5	Zn	2.264350	-0.020616	0.714996
Zn6	Zn	2.597683	0.312717	1.048329
Zn7	Zn	1.730526	-0.224453	0.387116
Zn8	Zn	2.063859	0.108881	0.720449
Zn9	Zn	2.397193	0.442214	1.053783
Zn10	Zn	1.737566	-0.352261	0.607302
Zn11	Zn	2.070899	-0.018928	0.940635
Zn12	Zn	2.404232	0.314405	1.273969
O13	O	1.839256	-0.283450	0.488783
O14	O	2.172589	0.049883	0.822116
O15	O	2.505923	0.383216	1.155449
O16	O	2.130470	-0.214930	0.538760
O17	O	2.463804	0.118404	0.872094
O18	O	2.797137	0.451737	1.205427
O19	O	1.890217	-0.346399	0.207630
O20	O	2.223550	-0.013065	0.540964
O21	O	2.556884	0.320268	0.874297
O22	O	1.769001	-0.105022	0.403035
O23	O	2.102334	0.228312	0.736368
O24	O	2.435668	0.561645	1.069702
O25	O	2.110707	-0.325731	0.393741
O26	O	2.444041	0.007603	0.727074
O27	O	2.777374	0.340936	1.060408
O28	O	1.936063	-0.089362	0.544048
O29	O	2.269396	0.243972	0.877381
O30	O	2.602730	0.577305	1.210715
O31	O	1.742918	-0.251258	0.211637
O32	O	2.076251	0.082076	0.544970
O33	O	2.409584	0.415409	0.878303
O34	O	1.555337	-0.249620	0.430430
O35	O	1.888670	0.083713	0.763763
O36	O	2.222003	0.417046	1.097096
O37	O	1.780999	-0.322853	0.778310
O38	O	2.114333	0.010481	1.111643
O39	O	2.447666	0.343814	1.444977
O40	O	1.560509	-0.343521	0.592199
O41	O	1.893842	-0.010187	0.925533
O42	O	2.227176	0.323146	1.258866
O43	O	1.942889	-0.213292	0.757553
O44	O	2.276223	0.120041	1.090887
O45	O	2.609556	0.453374	1.424220
O46	O	1.897043	-0.470329	0.421136
O47	O	2.230377	-0.136996	0.754469
O48	O	2.563710	0.196337	1.087802
O49	O	1.754916	-0.469089	0.586912
O50	O	2.088250	-0.135756	0.920245
O51	O	2.421583	0.197578	1.253578
C52	C	1.512256	-0.298701	0.514973
C53	C	1.845590	0.034633	0.848306
C54	C	2.178923	0.367966	1.181640
C55	C	1.372365	-0.305243	0.526208
C56	C	1.705699	0.028090	0.859542
C57	C	2.039032	0.361423	1.192875
C58	C	1.823861	-0.499940	0.506522
C59	C	2.157194	-0.166607	0.839856
C60	C	2.490528	0.166727	1.173189
C61	C	1.817394	-0.592548	0.514144
C62	C	2.150727	-0.259214	0.847477
C63	C	2.484060	0.074119	1.180810
C64	C	1.873136	-0.803942	0.449489
C65	C	2.206469	-0.470609	0.782823
C66	C	2.539802	-0.137276	1.116156
C67	C	1.805610	-0.762096	0.528070
C68	C	2.138944	-0.428762	0.861404
C69	C	2.472277	-0.095429	1.194737
C70	C	1.812169	-0.667750	0.520319
C71	C	2.145502	-0.334417	0.853653
C72	C	2.478835	-0.001084	1.186986
C73	C	1.866579	-0.898296	0.457238
C74	C	2.199912	-0.564963	0.790572
C75	C	2.533246	-0.231629	1.123905
C76	C	2.167532	-0.268141	0.462491
C77	C	2.500866	0.065192	0.795824
C78	C	2.834199	0.398526	1.129158
C79	C	2.307424	-0.261617	0.451287
C80	C	2.640758	0.071716	0.784620
C81	C	2.974091	0.405050	1.117954
C82	C	1.865730	-0.265507	0.814511
C83	C	2.199063	0.067827	1.147844
C84	C	2.532397	0.401160	1.481178
C85	C	1.877012	-0.257860	0.953317
C86	C	2.210345	0.075473	1.286650
C87	C	2.543679	0.408807	1.619984
C88	C	1.854747	-0.066112	0.470998
C89	C	2.188081	0.267221	0.804332
C90	C	2.521414	0.600554	1.137665
C91	C	1.861349	0.026504	0.463420
C92	C	2.194682	0.359838	0.796753
C93	C	2.528015	0.693171	1.130086
C94	C	1.812961	-0.301261	0.164311
C95	C	2.146295	0.032073	0.497644
C96	C	2.479628	0.365406	0.830977
C97	C	1.801940	-0.308661	0.025467
C98	C	2.135273	0.024672	0.358800
C99	C	2.468607	0.358005	0.692133
H100	H	1.358846	-0.219262	0.378547
H101	H	1.692180	0.114071	0.711880
H102	H	2.025513	0.447405	1.045214
H103	H	1.320936	-0.347607	0.598946
H104	H	1.654269	-0.014274	0.932279
H105	H	1.987603	0.319060	1.265612
F106	F	1.723606	-0.807879	0.623611
F107	F	2.056939	-0.474546	0.956944
F108	F	2.390272	-0.141213	1.290278
H109	H	1.935866	-0.768917	0.376397
H110	H	2.269200	-0.435584	0.709730
H111	H	2.602533	-0.102250	1.043063
H112	H	1.949925	-0.208517	0.997743
H113	H	2.283258	0.124816	1.331076
H114	H	2.616592	0.458150	1.664409
H115	H	1.729040	-0.358006	0.981047
H116	H	2.062373	-0.024673	1.314380
H117	H	2.395707	0.308660	1.647713
