data_functionalizedCrystal
_audit_creation_method	'MofGen! by Chris Wilmer'
_symmetry_space_group_name_H-M	'P1'
_symmetry_Int_Tables_number	1
_symmetry_cell_setting	triclinic
loop_
_symmetry_equiv_pos_as_xyz
  x,y,z
_cell_length_a	12.827893
_cell_length_b	25.639240
_cell_length_c	12.827893
_cell_angle_alpha	90.020647
_cell_angle_beta	90.003786
_cell_angle_gamma	90.032919
loop_
_atom_site_label
_atom_site_type_symbol
_atom_site_fract_x
_atom_site_fract_y
_atom_site_fract_z
Zn1	Zn	1.597384	-0.208239	0.590751
Zn2	Zn	1.597272	-0.295650	0.415971
Zn3	Zn	1.422672	-0.208231	0.416025
Zn4	Zn	1.422557	-0.295646	0.590670
O5	O	1.509971	-0.251942	0.503354
O6	O	1.743605	-0.219840	0.567577
O7	O	1.574112	-0.284052	0.269742
O8	O	1.445943	-0.135067	0.439259
O9	O	1.743523	-0.284060	0.439167
O10	O	1.574303	-0.135073	0.567630
O11	O	1.445835	-0.219825	0.269782
O12	O	1.276421	-0.219821	0.439181
O13	O	1.445747	-0.284053	0.736917
O14	O	1.276337	-0.284045	0.567492
O15	O	1.574191	-0.219836	0.736976
O16	O	1.574001	-0.368815	0.439089
O17	O	1.445639	-0.368812	0.567440
C18	C	1.238461	-0.251932	0.503334
C19	C	1.122308	-0.251940	0.503351
C20	C	1.070564	-0.220219	0.566991
C21	C	0.950514	-0.220227	0.567009
C22	C	1.509824	-0.387784	0.503272
C23	C	1.509856	-0.445898	0.503272
C24	C	1.576841	-0.806226	0.570317
C25	C	1.576872	-0.860830	0.570339
O26	O	1.633650	-0.889037	0.627259
N27	N	1.510116	-0.888181	0.503455
C28	C	1.443318	-0.860924	0.436554
O29	O	1.386539	-0.889201	0.379667
C30	C	1.443282	-0.806320	0.436538
C31	C	1.510050	-0.778973	0.503419
C32	C	1.643603	-0.778879	0.637193
C33	C	1.643573	-0.724278	0.637170
C34	C	1.576782	-0.697025	0.570272
C35	C	1.510021	-0.724372	0.503396
C36	C	1.376479	-0.779065	0.369643
C37	C	1.376449	-0.724458	0.369634
C38	C	1.443217	-0.697110	0.436514
C39	C	1.443200	-0.642519	0.436474
N40	N	1.509956	-0.615169	0.503358
C41	C	1.576747	-0.642422	0.570256
C42	C	1.443396	-0.975594	0.436592
C43	C	1.443436	-1.030197	0.436601
C44	C	1.576989	-1.030100	0.570388
C45	C	1.576954	-0.975496	0.570372
C46	C	1.510152	-0.948244	0.503475
C47	C	1.576680	-0.527757	0.570203
C48	C	1.576647	-0.473151	0.570171
C49	C	1.443091	-0.473253	0.436389
C50	C	1.443127	-0.527854	0.436416
C51	C	1.509925	-0.555104	0.503332
O52	O	1.386448	-0.614277	0.379587
O53	O	1.633506	-0.614138	0.627143
C54	C	1.782541	-0.251952	0.503375
C55	C	1.898695	-0.251956	0.503384
C56	C	1.509969	-0.251945	0.775924
C57	C	1.509968	-0.251946	0.892077
C58	C	1.510148	-0.115569	0.503459
C59	C	1.510223	-0.057454	0.503504
C60	C	1.573519	-0.220174	0.943891
C61	C	1.573519	-0.220175	1.063942
C62	C	1.509966	-0.251950	1.231844
C63	C	1.509967	-0.251948	1.115691
H64	H	1.077732	-0.279103	0.448877
O65	O	1.648732	-0.557139	0.642375
H66	H	1.601938	-0.582017	0.695526
O67	O	1.304401	-0.695068	0.297468
H68	H	1.251172	-0.670203	0.344179
O69	O	1.304458	-0.808549	0.297507
H70	H	1.315694	-0.851099	0.308739
O71	O	1.645592	-0.184137	0.884938
H72	H	1.727615	-0.193096	0.905832
H73	H	1.115140	-0.193053	0.621459
H74	H	1.389078	-1.052458	0.382129
H75	H	1.455553	-0.279145	0.936594
O76	O	0.957623	-0.287934	0.431204
H77	H	0.936717	-0.278913	0.349208
H78	H	1.631021	-0.450887	0.624633
O79	O	1.645596	-0.184143	1.122960
H80	H	1.692154	-0.160870	1.066784
H81	H	1.455560	-0.279154	1.071139
H82	H	1.697938	-0.702015	0.691633
O83	O	0.891578	-0.184246	0.639178
H84	H	0.841832	-0.207713	0.692213
O85	O	1.715652	-0.808269	0.709350
H86	H	1.762066	-0.780071	0.755837
O87	O	1.371362	-0.946201	0.364414
H88	H	1.324964	-0.974397	0.317904
H89	H	1.631321	-0.953233	0.624833
O90	O	1.649020	-1.059498	0.642560
H91	H	1.637811	-1.102061	0.631339
O92	O	1.371119	-0.557355	0.364282
H93	H	1.324667	-0.529229	0.317763
H94	H	1.388713	-0.451055	0.381917
