data_functionalizedCrystal
_audit_creation_method	'MofGen! by Chris Wilmer'
_symmetry_space_group_name_H-M	'P1'
_symmetry_Int_Tables_number	1
_symmetry_cell_setting	triclinic
loop_
_symmetry_equiv_pos_as_xyz
  x,y,z
_cell_length_a	8.634740
_cell_length_b	17.699083
_cell_length_c	16.776229
_cell_angle_alpha	90.007545
_cell_angle_beta	89.993840
_cell_angle_gamma	88.073339
loop_
_atom_site_label
_atom_site_type_symbol
_atom_site_fract_x
_atom_site_fract_y
_atom_site_fract_z
O1	O	2.045142	-0.246700	-0.066292
O2	O	1.596268	-0.226013	-0.066293
O3	O	1.833387	-0.127104	-0.066285
O4	O	1.808023	-0.345609	-0.066299
O5	O	1.833355	-0.127094	0.066291
O6	O	1.596236	-0.226004	0.066284
O7	O	2.045111	-0.246690	0.066285
Zn8	Zn	1.820668	-0.236346	0.087334
Zn9	Zn	1.820710	-0.236358	-0.087342
O10	O	1.807992	-0.345600	0.066277
C11	C	1.538819	-0.221322	-0.000005
C12	C	1.367688	-0.207349	-0.000005
C13	C	1.832462	-0.098835	0.000003
C14	C	1.829736	-0.014615	0.000003
C15	C	2.102559	-0.251381	-0.000005
C16	C	2.273690	-0.265354	-0.000010
C17	C	1.808916	-0.373869	-0.000013
C18	C	1.811643	-0.458088	-0.000019
N19	N	1.820651	-0.236337	0.206545
C20	C	1.968919	0.023730	0.000005
C21	C	1.966348	0.102863	-0.000002
C22	C	1.824592	0.143649	-0.000005
C23	C	1.685397	0.105299	-0.000009
C24	C	1.687970	0.026167	-0.000008
C25	C	1.675019	0.424428	-0.000015
C26	C	1.672457	0.503565	-0.000014
C27	C	1.953398	0.501124	-0.000010
C28	C	1.955970	0.421992	-0.000009
C29	C	1.816777	0.383648	-0.000017
C30	C	1.819566	0.297843	-0.000011
C31	C	1.821801	0.229453	-0.000005
N32	N	1.820739	-0.236361	-0.206553
C33	C	1.925680	-0.192564	0.248265
C34	C	1.925688	-0.192564	0.331718
C35	C	1.820675	-0.236342	0.373448
C36	C	1.715635	-0.280117	0.331721
C37	C	1.715621	-0.280113	0.248271
C38	C	1.715691	-0.280136	0.668269
C39	C	1.715717	-0.280139	0.751725
C40	C	1.925759	-0.192587	0.751715
C41	C	1.925744	-0.192583	0.668265
C42	C	1.820700	-0.236355	0.626546
C43	C	1.820690	-0.236353	0.536057
C44	C	1.820691	-0.236348	0.463935
H45	H	1.324141	-0.325708	-0.000009
C46	C	1.299560	-0.125819	-0.000000
H47	H	1.381476	-0.091303	0.000008
H48	H	1.237600	-0.117928	-0.046231
H49	H	1.237585	-0.117924	0.046239
C50	C	2.106510	0.543304	-0.000014
H51	H	2.084684	0.596274	-0.000025
H52	H	2.164640	0.529844	0.046219
H53	H	2.164656	0.529825	-0.046251
H54	H	1.574632	-0.005053	-0.000009
C55	C	2.124854	-0.021128	0.000008
H56	H	2.207377	0.013046	0.000001
H57	H	2.131691	-0.052042	0.046240
H58	H	2.131706	-0.052053	-0.046230
C59	C	1.600126	-0.328274	0.377622
H60	H	1.615186	-0.322015	0.433298
H61	H	1.497272	-0.312526	0.363962
H62	H	1.616682	-0.380001	0.363931
H63	H	1.561679	0.393218	-0.000022
C64	C	2.041253	-0.144424	0.622366
H65	H	2.103797	-0.118347	0.659166
H66	H	2.105312	-0.176336	0.589796
H67	H	1.985899	-0.108862	0.589827
H68	H	2.079686	0.134080	0.000001
C69	C	1.600161	-0.328291	0.622388
H70	H	1.537637	-0.354370	0.659195
H71	H	1.536084	-0.296375	0.589846
H72	H	1.655495	-0.363850	0.589823
C73	C	1.600096	-0.328264	0.202374
H74	H	1.615117	-0.321986	0.146698
H75	H	1.616639	-0.379991	0.216037
H76	H	1.497246	-0.312508	0.216065
H77	H	2.011287	-0.156943	0.785692
H78	H	1.630197	-0.315790	0.785700
C79	C	2.111897	0.377128	-0.000002
H80	H	2.093494	0.324508	0.000006
H81	H	2.169211	0.389588	-0.046233
H82	H	2.169177	0.389603	0.046237
C83	C	1.516522	0.548432	-0.000024
H84	H	1.534931	0.601052	-0.000015
H85	H	1.459242	0.535962	-0.046260
H86	H	1.459206	0.535972	0.046211
C87	C	1.529464	0.150158	-0.000018
H88	H	1.446940	0.115985	-0.000028
H89	H	1.522600	0.181086	0.046212
H90	H	1.522642	0.181069	-0.046259
C91	C	2.041205	-0.144414	0.202366
H92	H	2.026170	-0.150687	0.146690
H93	H	2.024673	-0.092689	0.216051
H94	H	2.144056	-0.160175	0.216033
C95	C	2.041234	-0.144421	0.377607
H96	H	2.103789	-0.118357	0.340802
H97	H	1.985925	-0.108861	0.410175
H98	H	2.105300	-0.176351	0.410145
