data_functionalizedCrystal
_audit_creation_method	'MofGen! by Chris Wilmer'
_symmetry_space_group_name_H-M	'P1'
_symmetry_Int_Tables_number	1
_symmetry_cell_setting	triclinic
loop_
_symmetry_equiv_pos_as_xyz
  x,y,z
_cell_length_a	18.215407
_cell_length_b	17.077402
_cell_length_c	17.077396
_cell_angle_alpha	90.029784
_cell_angle_beta	89.982278
_cell_angle_gamma	89.982604
loop_
_atom_site_label
_atom_site_type_symbol
_atom_site_fract_x
_atom_site_fract_y
_atom_site_fract_z
Zn1	Zn	1.125081	0.312623	-0.443798
Zn2	Zn	1.625081	0.812623	0.056202
Zn3	Zn	1.124994	0.443898	-0.312529
Zn4	Zn	1.624994	0.943898	0.187471
Zn5	Zn	1.002014	0.312638	-0.312550
Zn6	Zn	1.502014	0.812638	0.187450
Zn7	Zn	1.001984	0.443838	-0.443757
Zn8	Zn	1.501984	0.943838	0.056243
O9	O	1.063519	0.378249	-0.378159
O10	O	1.563519	0.878249	0.121841
O11	O	1.228054	0.330056	-0.426394
O12	O	1.728054	0.830056	0.073606
O13	O	1.108657	0.426517	-0.202685
O14	O	1.608657	0.926517	0.297315
O15	O	1.018388	0.202789	-0.329987
O16	O	1.518388	0.702789	0.170013
O17	O	1.227990	0.426503	-0.329951
O18	O	1.727990	0.926503	0.170049
O19	O	1.108805	0.202778	-0.426414
O20	O	1.608805	0.702778	0.073586
O21	O	1.018304	0.330081	-0.202701
O22	O	1.518304	0.830081	0.297299
O23	O	0.899026	0.330023	-0.329947
O24	O	1.399026	0.830023	0.170053
O25	O	1.018337	0.426401	-0.553609
O26	O	1.518337	0.926401	-0.053609
O27	O	0.899004	0.426415	-0.426344
O28	O	1.399004	0.926415	0.073656
O29	O	1.108776	0.329998	-0.553640
O30	O	1.608776	0.829998	-0.053640
O31	O	1.108628	0.553737	-0.329911
O32	O	1.608628	1.053737	0.170089
O33	O	1.018253	0.553693	-0.426323
O34	O	1.518253	1.053693	0.073677
C35	C	0.872312	0.378215	-0.378143
C36	C	1.372312	0.878215	0.121857
C37	C	0.790513	0.378219	-0.378155
C38	C	1.290513	0.878219	0.121845
C39	C	0.525484	0.328126	-0.428456
C40	C	1.025484	0.828126	0.071544
C41	C	0.602342	0.328113	-0.428454
C42	C	1.102342	0.828113	0.071546
C43	C	0.602295	0.428398	-0.327878
C44	C	1.102295	0.928398	0.172122
C45	C	0.525438	0.428414	-0.327885
C46	C	1.025438	0.928414	0.172115
C47	C	0.487034	0.378274	-0.378173
C48	C	0.987034	0.878274	0.121827
C49	C	0.640750	0.378245	-0.378164
C50	C	1.140750	0.878245	0.121836
C51	C	0.724084	0.378231	-0.378161
C52	C	1.224084	0.878231	0.121839
C53	C	0.403695	0.378288	-0.378177
C54	C	0.903695	0.878288	0.121823
C55	C	1.063448	0.582197	-0.378127
C56	C	1.563448	1.082197	0.121873
C57	C	1.063484	0.669447	-0.378140
C58	C	1.563484	1.169447	0.121860
C59	C	1.063563	0.378191	-0.582903
C60	C	1.563563	0.878191	-0.082903
C61	C	1.063582	0.378167	-0.670153
C62	C	1.563582	0.878167	-0.170153
C63	C	1.255471	0.378284	-0.378175
C64	C	1.755471	0.878284	0.121825
C65	C	1.337270	0.378299	-0.378181
C66	C	1.837270	0.878299	0.121819
C67	C	1.063610	0.173505	-0.378207
C68	C	1.563610	0.673505	0.121793
C69	C	1.063649	0.086255	-0.378228
C70	C	1.563649	0.586255	0.121772
C71	C	1.110591	0.710434	-0.327992
C72	C	1.610591	1.210434	0.172008
C73	C	1.110627	0.792414	-0.328012
C74	C	1.610627	1.292414	0.171988
C75	C	1.063552	0.833406	-0.378177
C76	C	1.563552	1.333406	0.121823
C77	C	1.016444	0.792414	-0.428330
C78	C	1.516444	1.292414	0.071670
C79	C	1.016412	0.710435	-0.428314
C80	C	1.516412	1.210435	0.071686
C81	C	1.016512	0.963284	-0.428360
C82	C	1.516512	1.463284	0.071640
C83	C	1.016543	1.045268	-0.428376
C84	C	1.516543	1.545268	0.071624
C85	C	1.110727	1.045263	-0.328059
C86	C	1.610727	1.545263	0.171941
C87	C	1.110695	0.963284	-0.328042
C88	C	1.610695	1.463284	0.171958
C89	C	1.063585	0.922297	-0.378195
C90	C	1.563585	1.422297	0.121805
C91	C	1.110675	0.327965	-0.711160
C92	C	1.610675	0.827965	-0.211160
C93	C	1.110684	0.327939	-0.793141
C94	C	1.610684	0.827939	-0.293141
C95	C	1.063603	0.378119	-0.834112
C96	C	1.563603	0.878119	-0.334112
C97	C	1.016504	0.428323	-0.793099
C98	C	1.516504	0.928323	-0.293099
C99	C	1.016492	0.428344	-0.711120
C100	C	1.516492	0.928344	-0.211120
C101	C	1.016534	0.428275	-0.963970
C102	C	1.516534	0.928275	-0.463970
C103	C	1.016547	0.428255	-1.045954
C104	C	1.516547	0.928255	-0.545954
C105	C	1.110726	0.327870	-1.045990
C106	C	1.610726	0.827870	-0.545990
C107	C	1.110714	0.327892	-0.964011
C108	C	1.610714	0.827892	-0.464011
C109	C	1.063616	0.378097	-0.923004
C110	C	1.563616	0.878097	-0.423004
C111	C	1.063517	0.378250	-0.174211
C112	C	1.563517	0.878250	0.325789
C113	C	1.063640	0.378054	-0.086962
C114	C	1.563640	0.878054	0.413038
H115	H	0.633645	0.287279	-0.469401
H116	H	1.133645	0.787279	0.030599
O117	O	0.483962	0.482499	-0.273640
O118	O	0.983962	0.982499	0.226360
H119	H	0.498715	0.544121	-0.286988
H120	H	0.998715	1.044121	0.213012
O121	O	0.965669	0.836631	-0.482432
O122	O	1.465669	1.336631	0.017568
H123	H	0.978254	0.820854	-0.544051
H124	H	1.478254	1.320854	-0.044051
O125	O	0.965722	0.482445	-0.837289
O126	O	1.465722	0.982445	-0.337289
H127	H	0.907968	0.468966	-0.821552
H128	H	1.407968	0.968966	-0.321552
H129	H	0.978054	0.677064	-0.469150
H130	H	1.478054	1.177064	0.030850
O131	O	1.161456	0.273843	-0.666970
O132	O	1.661456	0.773843	-0.166970
H133	H	1.194199	0.238925	-0.709261
H134	H	1.694199	0.738925	-0.209261
H135	H	0.494218	0.287298	-0.469404
H136	H	0.994218	0.787298	0.030596
H137	H	0.633572	0.469219	-0.286934
H138	H	1.133572	0.969219	0.213066
O139	O	1.161368	0.666221	-0.273889
O140	O	1.661368	1.166221	0.226111
H141	H	1.194135	0.708499	-0.239028
H142	H	1.694135	1.208499	0.260972
H143	H	1.149034	0.287062	-0.826525
H144	H	1.649034	0.787062	-0.326525
O145	O	1.161496	0.273776	-0.919815
O146	O	1.661496	0.773776	-0.419815
H147	H	1.194244	0.238857	-0.962100
H148	H	1.694244	0.738857	-0.462100
O149	O	1.161520	0.273711	-1.090212
O150	O	1.661520	0.773711	-0.590212
H151	H	1.153613	0.282116	-1.154100
H152	H	1.653613	0.782116	-0.654100
H153	H	1.148985	0.825782	-0.287176
H154	H	1.648985	1.325782	0.212824
H155	H	1.149023	0.929909	-0.287190
H156	H	1.649023	1.429909	0.212810
O157	O	1.161547	1.089463	-0.273970
O158	O	1.661547	1.589463	0.226030
H159	H	1.153671	1.153355	-0.282416
H160	H	1.653671	1.653355	0.217584
H161	H	0.978208	0.469114	-1.079311
H162	H	1.478208	0.969114	-0.579311
O163	O	0.965732	0.482418	-0.919735
O164	O	1.465732	0.982418	-0.419735
H165	H	0.932999	0.517312	-0.961997
H166	H	1.432999	1.017312	-0.461997
O167	O	0.965702	0.919072	-0.482453
O168	O	1.465702	1.419072	0.017547
H169	H	0.928272	0.881773	-0.447272
H170	H	1.428272	1.381773	0.052728
H171	H	0.978224	1.078642	-0.469239
H172	H	1.478224	1.578642	0.030761
O173	O	0.965690	0.482479	-0.666885
O174	O	1.465690	0.982479	-0.166885
H175	H	0.932953	0.517369	-0.709146
H176	H	1.432953	1.017369	-0.209146
