data_functionalizedCrystal
_audit_creation_method	'MofGen! by Chris Wilmer'
_symmetry_space_group_name_H-M	'P1'
_symmetry_Int_Tables_number	1
_symmetry_cell_setting	triclinic
loop_
_symmetry_equiv_pos_as_xyz
  x,y,z
_cell_length_a	15.995350
_cell_length_b	19.188930
_cell_length_c	14.472310
_cell_angle_alpha	89.993787
_cell_angle_beta	89.990621
_cell_angle_gamma	83.318578
loop_
_atom_site_label
_atom_site_type_symbol
_atom_site_fract_x
_atom_site_fract_y
_atom_site_fract_z
O1	O	1.110667	0.089991	-0.076773
O2	O	0.866851	0.101105	-0.076794
O3	O	0.995795	-0.006090	-0.076765
O4	O	0.981723	0.197186	-0.076802
O5	O	0.995762	-0.006083	0.076917
O6	O	0.866818	0.101111	0.076888
O7	O	1.110634	0.089998	0.076909
Cu8	Cu	0.988723	0.095555	0.090931
Cu9	Cu	0.988762	0.095547	-0.090816
O10	O	0.981690	0.197192	0.076880
C11	C	0.835641	0.100648	0.000045
C12	C	0.742696	0.099271	0.000038
C13	C	0.404967	0.094324	0.000058
C14	C	0.452680	0.017982	0.000415
C15	C	0.549365	0.019360	0.000062
C16	C	0.572518	0.096778	0.000049
C17	C	0.531312	0.134429	-0.087714
C18	C	0.434683	0.132511	-0.087781
C19	C	0.434301	0.134095	0.086984
C20	C	0.531246	0.134077	0.088137
C21	C	0.667211	0.098169	0.000040
C22	C	0.310274	0.092936	0.000060
C23	C	0.995323	-0.032099	0.000079
C24	C	0.993955	-0.109607	0.000087
C25	C	1.069615	-0.154338	0.000097
C26	C	1.068330	-0.227165	0.000082
C27	C	0.991380	-0.255258	0.000075
C28	C	0.915710	-0.210517	0.000059
C29	C	0.916997	-0.137691	0.000065
N30	N	0.932550	-0.363410	0.052371
N31	N	0.931332	-0.432592	0.052368
C32	C	0.987497	-0.474676	0.000056
N33	N	1.044938	-0.444967	-0.052240
N34	N	1.046158	-0.375779	-0.052233
C35	C	0.989976	-0.334224	0.000069
C36	C	1.061769	-0.598375	0.000050
C37	C	1.060480	-0.671204	0.000029
C38	C	0.907859	-0.654553	0.000015
C39	C	0.909149	-0.581727	0.000027
C40	C	0.986106	-0.553643	0.000048
C41	C	1.141843	0.090454	0.000068
C42	C	1.234789	0.091831	0.000069
C43	C	0.982162	0.223201	0.000034
C44	C	0.983530	0.300709	0.000020
N45	N	0.988701	0.095560	0.218762
N46	N	0.988790	0.095537	-0.218647
C47	C	0.988761	0.095545	0.592853
C48	C	0.919535	0.152710	0.553672
C49	C	0.919694	0.152918	0.446584
C50	C	0.988731	0.095552	0.407262
C51	C	1.076037	0.111464	0.446103
C52	C	1.075648	0.111870	0.553224
C53	C	0.971460	0.022298	0.553394
C54	C	0.969454	0.022787	0.446266
C55	C	0.988719	0.095555	0.302374
C56	C	0.988778	0.095543	0.697741
H57	H	0.546404	0.190533	0.093428
N58	N	0.565584	0.099576	0.169590
N59	N	0.518387	0.073006	0.225010
H60	H	0.542638	0.048629	0.282531
N61	N	0.394196	0.204705	0.087707
N62	N	0.344216	0.225727	0.024549
H63	H	0.315887	0.275592	0.025052
H64	H	0.559796	0.108273	-0.153020
H65	H	1.091696	0.164273	0.419257
N66	N	0.837115	-0.239220	0.000044
N67	N	0.835975	-0.304243	0.000040
H68	H	0.780465	-0.324516	0.000024
N69	N	1.142232	0.061657	0.585723
N70	N	1.199290	0.081063	0.635140
H71	H	1.246330	0.045610	0.658082
H72	H	0.845205	-0.677425	0.000005
H73	H	0.413843	0.109140	0.153506
H74	H	1.021946	-0.020242	0.578732
N75	N	1.148229	-0.125663	0.000117
N76	N	1.215779	-0.165616	0.000124
H77	H	1.271302	-0.145364	0.000136
N78	N	1.145626	-0.272858	0.000092
N79	N	1.214329	-0.247773	0.000109
H80	H	1.268920	-0.280041	0.000118
N81	N	0.393952	0.202815	-0.092819
N82	N	0.315389	0.213923	-0.093776
H83	H	0.286624	0.263573	-0.097344
N84	N	1.142184	0.060617	0.414148
N85	N	1.125679	0.011969	0.362267
H86	H	1.172394	-0.023943	0.339698
H87	H	0.854420	0.143386	0.579456
N88	N	0.893326	0.003127	0.587315
N89	N	0.849439	0.043220	0.640993
H90	H	0.794250	0.029690	0.664948
H91	H	0.545229	0.191306	-0.090987
N92	N	0.839701	-0.092005	0.000049
N93	N	0.770999	-0.117092	0.000034
H94	H	0.716406	-0.084826	0.000023
N95	N	0.429615	-0.020268	0.079418
N96	N	0.377736	0.008284	0.136380
H97	H	0.361462	-0.018723	0.192195
H98	H	1.124432	-0.575508	0.000063
H99	H	0.433211	-0.012395	-0.062166
N100	N	1.137779	-0.716887	0.000048
N101	N	1.188995	-0.714331	0.064842
H102	H	1.243590	-0.746594	0.064856
N103	N	0.888886	0.007645	0.414421
N104	N	0.845778	0.050250	0.363187
H105	H	0.788876	0.039558	0.340691
N106	N	0.831855	-0.536041	0.000019
N107	N	0.763154	-0.561129	0.000009
H108	H	0.708561	-0.528863	0.000001
N109	N	0.838153	0.141366	0.413651
N110	N	0.780732	0.133084	0.469782
H111	H	0.723096	0.125056	0.446529
N112	N	0.933171	0.220511	0.587425
N113	N	0.993650	0.226913	0.640210
H114	H	1.003283	0.274796	0.664050
H115	H	0.930714	0.207273	0.420941
H116	H	1.090934	0.165288	0.578192
H117	H	1.016620	-0.021746	0.419504
H118	H	0.577346	-0.010441	-0.062950
N119	N	0.585151	-0.017765	0.078986
N120	N	0.563196	0.002251	0.158463
H121	H	0.588466	-0.023975	0.214205
N122	N	0.411866	0.098062	-0.170074
N123	N	0.467280	0.075599	-0.227056
H124	H	0.451171	0.051267	-0.285177
