data_functionalizedCrystal
_audit_creation_method	'MofGen! by Chris Wilmer'
_symmetry_space_group_name_H-M	'P1'
_symmetry_Int_Tables_number	1
_symmetry_cell_setting	triclinic
loop_
_symmetry_equiv_pos_as_xyz
  x,y,z
_cell_length_a	14.044191
_cell_length_b	27.732025
_cell_length_c	13.101039
_cell_angle_alpha	93.348543
_cell_angle_beta	86.337551
_cell_angle_gamma	87.912623
loop_
_atom_site_label
_atom_site_type_symbol
_atom_site_fract_x
_atom_site_fract_y
_atom_site_fract_z
O1	O	1.261228	0.114038	-0.085103
O2	O	0.985321	0.109831	-0.085118
O3	O	1.131857	0.041939	-0.085141
O4	O	1.114692	0.181930	-0.085080
O5	O	1.121343	0.046819	0.085290
O6	O	0.974807	0.114711	0.085313
O7	O	1.250714	0.118918	0.085328
Zn8	Zn	1.111091	0.117589	0.112380
Zn9	Zn	1.124944	0.111160	-0.112170
O10	O	1.104178	0.186810	0.085351
C11	C	0.944777	0.110431	0.000095
C12	C	0.839633	0.104942	0.000087
C13	C	0.588917	0.133835	0.000110
C14	C	0.647124	0.094916	0.000091
C15	C	0.754246	0.100496	0.000089
C16	C	0.481785	0.128255	0.000112
C17	C	1.126243	0.026355	0.000064
C18	C	1.125170	-0.027352	0.000034
C19	C	1.123262	-0.413535	-0.092809
C20	C	1.127286	-0.211687	-0.092842
O21	O	1.132718	-0.187856	-0.171854
N22	N	1.122058	-0.183782	0.000057
C23	C	1.115829	-0.206342	0.092972
O24	O	1.111485	-0.177976	0.171988
C25	C	1.111812	-0.408189	0.093003
C26	C	1.117031	-0.436091	0.000098
C27	C	1.128481	-0.441437	-0.185707
C28	C	1.127470	-0.491895	-0.185698
C29	C	1.121239	-0.514452	-0.092791
C30	C	1.116020	-0.486550	0.000107
C31	C	1.105591	-0.430748	0.185917
C32	C	1.104589	-0.481213	0.185916
C33	C	1.109808	-0.509116	0.093011
C34	C	1.108778	-0.559565	0.093023
N35	N	1.114006	-0.587470	0.000124
C36	C	1.120237	-0.564913	-0.092783
C37	C	1.117937	-0.100370	0.092948
C38	C	1.118940	-0.049909	0.092941
C39	C	1.130398	-0.055257	-0.092873
C40	C	1.129388	-0.105719	-0.092865
C41	C	1.123165	-0.128275	0.000049
C42	C	1.118112	-0.670880	-0.092757
C43	C	1.117096	-0.721343	-0.092740
C44	C	1.105643	-0.715990	0.093074
C45	C	1.106653	-0.665532	0.093057
C46	C	1.112892	-0.642978	0.000133
O47	O	1.103358	-0.583429	0.171994
O48	O	1.124602	-0.593288	-0.171788
C49	C	1.124273	-0.363076	-0.092818
C50	C	1.119053	-0.335174	0.000080
C51	C	1.112823	-0.357730	0.092987
C52	C	1.120056	-0.284712	0.000072
C53	C	1.126287	-0.262156	-0.092835
C54	C	1.131515	-0.290061	-0.185735
C55	C	1.130504	-0.340519	-0.185726
C56	C	1.107595	-0.329826	0.185886
C57	C	1.108605	-0.279367	0.185869
C58	C	1.114836	-0.256811	0.092962
C59	C	1.291258	0.118318	0.000113
C60	C	1.396403	0.123806	0.000114
C61	C	1.109792	0.202394	0.000144
C62	C	1.110865	0.256101	0.000167
N63	N	1.101644	0.121977	0.265630
N64	N	1.134398	0.106768	-0.265420
C65	C	1.088791	0.127952	0.474675
C66	C	1.147248	0.100795	0.525542
C67	C	1.140097	0.104119	0.641861
C68	C	1.095941	0.124628	0.358345
H69	H	1.123192	-0.652523	-0.168425
O70	O	1.098708	-0.503150	0.276149
C71	C	1.179837	-0.534123	0.281706
H72	H	1.240755	-0.521787	0.228980
H73	H	1.202307	-0.532979	0.363875
H74	H	1.162053	-0.572648	0.256757
O75	O	1.022601	0.158677	0.526772
C76	C	0.969666	0.183286	0.456576
H77	H	0.973446	0.161287	0.380050
H78	H	0.892039	0.188312	0.487687
H79	H	1.000705	0.220159	0.445229
O80	O	0.610449	0.050200	0.000016
C81	C	0.510106	0.054509	0.000043
H82	H	0.488452	0.090303	-0.032193
H83	H	0.483141	0.023368	-0.049462
H84	H	0.477582	0.053340	0.081805
O85	O	1.100364	-0.403630	0.276143
C86	C	1.018550	-0.372336	0.281725
H87	H	0.964122	-0.387699	0.229009
H88	H	0.985963	-0.368762	0.363901
H89	H	1.039407	-0.335244	0.256780
H90	H	0.619535	0.171341	0.000123
H91	H	1.121342	-0.744059	-0.168398
O92	O	1.213396	0.070041	0.473443
C93	C	1.266365	0.045455	0.543647
H94	H	1.222897	0.045405	0.620161
H95	H	1.283157	0.006620	0.512528
H96	H	1.335871	0.064459	0.555019
H97	H	1.136581	-0.271686	-0.261383
H98	H	1.131726	-0.514609	-0.261352
H99	H	1.133558	-0.423077	-0.261368
H100	H	1.133636	-0.128434	-0.168517
H101	H	1.135465	-0.036883	-0.168522
H102	H	1.114672	-0.027194	0.168594
H103	H	1.112869	-0.118730	0.168614
H104	H	1.100566	-0.734365	0.168716
O105	O	1.101582	-0.638497	0.183395
C106	C	1.095820	-0.669228	0.265397
H107	H	1.126798	-0.706687	0.238177
H108	H	1.138084	-0.653860	0.330392
H109	H	1.017921	-0.671987	0.293933
O110	O	1.135457	-0.367566	-0.276040
C111	C	1.057105	-0.354933	-0.332546
H112	H	1.028844	-0.316892	-0.306123
H113	H	1.080838	-0.356079	-0.417538
H114	H	0.998277	-0.381611	-0.319673
O115	O	1.103568	-0.252339	0.276217
C116	C	1.097830	-0.283075	0.358214
H117	H	1.128783	-0.320536	0.330971
H118	H	1.140130	-0.267715	0.423187
H119	H	1.019940	-0.285827	0.386788
O120	O	1.101687	-0.351764	0.276109
C121	C	1.182802	-0.382744	0.281694
H122	H	1.243742	-0.370411	0.228994
H123	H	1.205243	-0.381604	0.363875
H124	H	1.165014	-0.421266	0.256731
