data_functionalizedCrystal
_audit_creation_method	'MofGen! by Chris Wilmer'
_symmetry_space_group_name_H-M	'P1'
_symmetry_Int_Tables_number	1
_symmetry_cell_setting	triclinic
loop_
_symmetry_equiv_pos_as_xyz
  x,y,z
_cell_length_a	10.654541
_cell_length_b	17.699083
_cell_length_c	16.776229
_cell_angle_alpha	89.992455
_cell_angle_beta	89.994225
_cell_angle_gamma	83.883471
loop_
_atom_site_label
_atom_site_type_symbol
_atom_site_fract_x
_atom_site_fract_y
_atom_site_fract_z
O1	O	1.665988	0.106296	-0.066266
O2	O	2.165988	0.606296	0.433734
O3	O	1.300331	0.116425	-0.066273
O4	O	1.800331	0.616425	0.433727
O5	O	1.493490	0.001237	-0.066262
O6	O	1.993490	0.501237	0.433738
O7	O	1.472829	0.221484	-0.066276
O8	O	1.972829	0.721484	0.433724
O9	O	1.493465	0.001230	0.066315
O10	O	1.993465	0.501230	0.566315
O11	O	1.300306	0.116418	0.066304
O12	O	1.800306	0.616418	0.566304
O13	O	1.665962	0.106288	0.066311
O14	O	2.165962	0.606288	0.566311
Zn15	Zn	1.483130	0.111352	0.087357
Zn16	Zn	1.983130	0.611352	0.587357
Zn17	Zn	1.483164	0.111362	-0.087318
Zn18	Zn	1.983164	0.611362	0.412682
O19	O	1.472803	0.221477	0.066300
O20	O	1.972803	0.721477	0.566300
C21	C	1.492737	-0.026968	0.000026
C22	C	1.992737	0.473032	0.500026
C23	C	1.490516	-0.111001	0.000027
C24	C	1.990516	0.388999	0.500027
C25	C	1.253534	0.115678	0.000015
C26	C	1.753534	0.615678	0.500015
C27	C	1.114129	0.113454	0.000012
C28	C	1.614129	0.613454	0.500012
C29	C	1.603896	-0.158901	0.000030
C30	C	2.103896	0.341099	0.500030
C31	C	1.601802	-0.237858	0.000023
C32	C	2.101802	0.262142	0.500023
C33	C	1.486326	-0.268912	0.000018
C34	C	1.986326	0.231088	0.500018
C35	C	1.372937	-0.221005	0.000013
C36	C	1.872937	0.278995	0.500013
C37	C	1.375033	-0.142050	0.000014
C38	C	1.875033	0.357950	0.500014
C39	C	1.364483	-0.539422	0.000006
C40	C	1.864483	-0.039422	0.500006
C41	C	1.362396	-0.618383	0.000007
C42	C	1.862396	-0.118383	0.500007
C43	C	1.591252	-0.635230	0.000015
C44	C	2.091252	-0.135230	0.500015
C45	C	1.593348	-0.556275	0.000016
C46	C	2.093348	-0.056275	0.500016
C47	C	1.479960	-0.508375	0.000006
C48	C	1.979960	-0.008375	0.500006
C49	C	1.482232	-0.422761	0.000013
C50	C	1.982232	0.077239	0.500013
C51	C	1.484052	-0.354524	0.000018
C52	C	1.984052	0.145476	0.500018
C53	C	1.083747	0.251193	-0.000007
C54	C	1.583747	0.751193	0.499993
C55	C	1.003066	0.319015	-0.000019
C56	C	1.503066	0.819015	0.499981
C57	C	0.872084	0.316920	-0.000020
C58	C	1.372084	0.816920	0.499980
C59	C	0.821783	0.246997	-0.000006
C60	C	1.321783	0.746997	0.499994
C61	C	0.902464	0.179175	0.000007
C62	C	1.402464	0.679175	0.500007
C63	C	1.033447	0.181277	0.000005
C64	C	1.533447	0.681277	0.500005
C65	C	0.932846	0.041438	0.000032
C66	C	1.432846	0.541438	0.500032
C67	C	1.063828	0.043531	0.000027
C68	C	1.563828	0.543531	0.500027
C69	C	0.882545	-0.028485	0.000046
C70	C	1.382545	0.471515	0.500046
C71	C	0.963227	-0.096308	0.000053
C72	C	1.463227	0.403692	0.500053
C73	C	1.094215	-0.094211	0.000053
C74	C	1.594215	0.405789	0.500053
C75	C	1.144509	-0.024291	0.000039
C76	C	1.644509	0.475709	0.500039
C77	C	1.712760	0.107035	0.000022
C78	C	2.212760	0.607035	0.500022
C79	C	1.852165	0.109260	0.000019
C80	C	2.352165	0.609260	0.500019
C81	C	1.473556	0.249682	0.000010
C82	C	1.973556	0.749682	0.500010
C83	C	1.475777	0.333714	0.000005
C84	C	1.975777	0.833714	0.500005
N85	N	1.483116	0.111345	0.206568
N86	N	1.983116	0.611345	0.706568
N87	N	1.483187	0.111363	-0.206530
N88	N	1.983187	0.611363	0.293470
C89	C	1.568673	0.060361	0.248290
C90	C	2.068673	0.560361	0.748290
C91	C	1.568680	0.060360	0.331742
C92	C	2.068680	0.560360	0.831742
C93	C	1.483135	0.111348	0.373471
C94	C	1.983135	0.611348	0.873471
C95	C	1.397569	0.162335	0.331743
C96	C	1.897569	0.662335	0.831743
C97	C	1.397557	0.162331	0.248293
C98	C	1.897557	0.662331	0.748293
C99	C	1.397615	0.162350	0.668290
C100	C	1.897615	0.662350	1.168290
C101	C	1.397636	0.162351	0.751747
C102	C	1.897636	0.662351	1.251747
C103	C	1.568737	0.060379	0.751740
C104	C	2.068737	0.560379	1.251740
C105	C	1.568725	0.060376	0.668289
C106	C	2.068725	0.560376	1.168289
C107	C	1.483156	0.111359	0.626569
C108	C	1.983156	0.611359	1.126569
C109	C	1.483147	0.111358	0.536080
C110	C	1.983147	0.611358	1.036080
C111	C	1.483148	0.111353	0.463958
C112	C	1.983148	0.611353	0.963958
H113	H	1.697930	-0.133623	0.000039
H114	H	2.197930	0.366377	0.500039
H115	H	1.268356	-0.643664	0.000005
H116	H	1.768356	-0.143664	0.500005
H117	H	1.251159	-0.022576	0.000030
H118	H	1.751159	0.477424	0.500030
Cl119	Cl	1.289990	0.226426	0.195843
Cl120	Cl	1.789990	0.726426	0.695843
Cl121	Cl	1.676228	-0.003739	0.195840
Cl122	Cl	2.176228	0.496261	0.695840
H123	H	1.278915	-0.246296	0.000004
H124	H	1.778915	0.253704	0.500004
H125	H	0.806392	0.372147	-0.000025
H126	H	1.306392	0.872147	0.499975
H127	H	1.327911	0.203848	0.365724
H128	H	1.827911	0.703848	0.865724
H129	H	1.638346	0.018845	0.365712
H130	H	2.138346	0.518845	0.865712
Cl131	Cl	1.676274	-0.003723	0.615833
Cl132	Cl	2.176274	0.496277	1.115833
H133	H	1.638409	0.018863	0.785718
H134	H	2.138409	0.518863	1.285718
H135	H	1.282707	-0.103050	0.000011
H136	H	1.782707	0.396950	0.500011
Cl137	Cl	1.744344	-0.298073	0.000030
Cl138	Cl	2.244344	0.201927	0.500030
Cl139	Cl	1.221937	-0.479215	-0.000009
Cl140	Cl	1.721937	0.020785	0.499991
H141	H	1.159900	-0.149440	0.000066
H142	H	1.659900	0.350560	0.500066
Cl143	Cl	1.733800	-0.695452	0.000024
Cl144	Cl	2.233800	-0.195452	0.500024
Cl145	Cl	1.738523	-0.517240	0.000020
Cl146	Cl	2.238523	-0.017240	0.500020
Cl147	Cl	1.248409	0.253832	-0.000021
Cl148	Cl	1.748409	0.753832	0.499979
H149	H	1.044036	0.375945	-0.000029
H150	H	1.544036	0.875945	0.499971
Cl151	Cl	1.290084	0.226454	0.804205
Cl152	Cl	1.790084	0.726454	1.304205
H153	H	0.715130	0.245298	0.000003
H154	H	1.215130	0.745298	0.500003
Cl155	Cl	0.717881	-0.031118	0.000049
Cl156	Cl	1.217881	0.468882	0.500049
H157	H	1.327943	0.203864	0.634328
H158	H	1.827943	0.703864	1.134328
H159	H	0.922260	-0.153235	0.000064
H160	H	1.422260	0.346765	0.500064
