data_functionalizedCrystal
_audit_creation_method	'MofGen! by Chris Wilmer'
_symmetry_space_group_name_H-M	'P1'
_symmetry_Int_Tables_number	1
_symmetry_cell_setting	triclinic
loop_
_symmetry_equiv_pos_as_xyz
  x,y,z
_cell_length_a	13.897449
_cell_length_b	12.759400
_cell_length_c	12.759393
_cell_angle_alpha	90.025504
_cell_angle_beta	89.976287
_cell_angle_gamma	89.997846
loop_
_atom_site_label
_atom_site_type_symbol
_atom_site_fract_x
_atom_site_fract_y
_atom_site_fract_z
Zn1	Zn	-1.474814	-0.418220	0.594134
Zn2	Zn	-0.974814	0.081780	1.094134
Zn3	Zn	-1.474749	-0.593936	0.418470
Zn4	Zn	-0.974749	-0.093936	0.918470
Zn5	Zn	-1.313501	-0.418271	0.418461
Zn6	Zn	-0.813501	0.081729	0.918461
Zn7	Zn	-1.313528	-0.593857	0.594099
Zn8	Zn	-0.813528	-0.093857	1.094099
O9	O	-1.394148	-0.506071	0.506291
O10	O	-0.894148	-0.006071	1.006291
O11	O	-1.609787	-0.441541	0.570851
O12	O	-1.109787	0.058459	1.070851
O13	O	-1.453320	-0.570687	0.271448
O14	O	-0.953320	-0.070687	0.771448
O15	O	-1.334915	-0.271243	0.441776
O16	O	-0.834915	0.228757	0.941776
O17	O	-1.609739	-0.570638	0.441791
O18	O	-1.109739	-0.070638	0.941791
O19	O	-1.453431	-0.271206	0.570842
O20	O	-0.953431	0.228794	1.070842
O21	O	-1.334852	-0.441627	0.271441
O22	O	-0.834852	0.058373	0.771441
O23	O	-1.178523	-0.441551	0.441741
O24	O	-0.678523	0.058449	0.941741
O25	O	-1.334962	-0.570504	0.741124
O26	O	-0.834962	-0.070504	1.241124
O27	O	-1.178543	-0.570553	0.570781
O28	O	-0.678543	-0.070553	1.070781
O29	O	-1.453458	-0.441465	0.741151
O30	O	-0.953458	0.058535	1.241151
O31	O	-1.453347	-0.740946	0.441756
O32	O	-0.953347	-0.240946	0.941756
O33	O	-1.334898	-0.740888	0.570790
O34	O	-0.834898	-0.240888	1.070790
C35	C	-1.143533	-0.506050	0.506257
C36	C	-0.643533	-0.006050	1.006257
C37	C	-1.036319	-0.506066	0.506267
C38	C	-0.536319	-0.006066	1.006267
C39	C	-1.394145	-0.779038	0.506293
C40	C	-0.894145	-0.279038	1.006293
C41	C	-1.394231	-0.895815	0.506329
C42	C	-0.894231	-0.395815	1.006329
C43	C	-1.394220	-0.505970	0.780324
C44	C	-0.894220	-0.005970	1.280324
C45	C	-1.394251	-0.505927	0.897101
C46	C	-0.894251	-0.005927	1.397101
C47	C	-0.840024	-0.506065	0.506287
C48	C	-0.340024	-0.006065	1.006287
C49	C	-0.949257	-0.506062	0.506273
C50	C	-0.449257	-0.006062	1.006273
C51	C	-0.645741	-0.506086	0.506316
C52	C	-0.145741	-0.006086	1.006316
C53	C	-0.752955	-0.506074	0.506300
C54	C	-0.252955	-0.006074	1.006300
C55	C	-1.394177	-0.232038	0.506312
C56	C	-0.894177	0.267962	1.006312
C57	C	-1.394190	-0.115261	0.506321
C58	C	-0.894190	0.384739	1.006321
C59	C	-1.332553	0.049366	0.573507
C60	C	-0.832553	0.549366	1.073507
C61	C	-1.332529	-0.060358	0.573501
C62	C	-0.832529	0.439642	1.073501
C63	C	-1.455871	-0.060434	0.439135
C64	C	-0.955871	0.439566	0.939135
C65	C	-1.455889	0.049288	0.439137
C66	C	-0.955889	0.549288	0.939137
C67	C	-1.394131	-0.506096	0.233324
C68	C	-0.894131	-0.006096	0.733324
C69	C	-1.394287	-0.505843	0.116547
C70	C	-0.894287	-0.005843	0.616547
C71	C	-1.455956	-0.438725	0.951979
C72	C	-0.955956	0.061275	1.451979
C73	C	-1.455972	-0.438680	1.061703
C74	C	-0.955972	0.061320	1.561703
C75	C	-1.332575	-0.573047	1.061662
C76	C	-0.832575	-0.073047	1.561662
C77	C	-1.332555	-0.573086	0.951940
C78	C	-0.832555	-0.073086	1.451940
H79	H	-1.282345	0.094062	0.628218
H80	H	-0.782345	0.594062	1.128218
F81	F	-1.521654	-0.367161	1.120102
F82	F	-1.021654	0.132839	1.620102
H83	H	-1.506190	-0.384037	0.907332
H84	H	-1.006190	0.115963	1.407332
H85	H	-1.282300	-0.627809	0.907258
H86	H	-0.782300	-0.127809	1.407258
H87	H	-1.506072	-0.105145	0.384431
H88	H	-1.006072	0.394855	0.884431
F89	F	-1.266882	-0.118695	0.645002
F90	F	-0.766882	0.381305	1.145002
F91	F	-1.521538	0.107633	0.367630
F92	F	-1.021538	0.607633	0.867630
H93	H	-1.282347	-0.627728	1.106326
H94	H	-0.782347	-0.127728	1.606326
