data_functionalizedCrystal
_audit_creation_method	'MofGen! by Chris Wilmer'
_symmetry_space_group_name_H-M	'P1'
_symmetry_Int_Tables_number	1
_symmetry_cell_setting	triclinic
loop_
_symmetry_equiv_pos_as_xyz
  x,y,z
_cell_length_a	21.395364
_cell_length_b	18.215405
_cell_length_c	21.395355
_cell_angle_alpha	90.015775
_cell_angle_beta	90.024727
_cell_angle_gamma	90.020354
loop_
_atom_site_label
_atom_site_type_symbol
_atom_site_fract_x
_atom_site_fract_y
_atom_site_fract_z
Zn1	Zn	0.957897	-0.293102	0.354276
Zn2	Zn	1.457897	0.206898	0.854276
Zn3	Zn	0.957815	-0.416151	0.249504
Zn4	Zn	1.457815	0.083849	0.749504
Zn5	Zn	0.853112	-0.293099	0.249513
Zn6	Zn	1.353112	0.206901	0.749513
Zn7	Zn	0.853097	-0.416128	0.354244
Zn8	Zn	1.353097	0.083872	0.854244
O9	O	0.905480	-0.354620	0.301884
O10	O	1.405480	0.145380	0.801884
O11	O	1.045564	-0.309436	0.340388
O12	O	1.545564	0.190564	0.840388
O13	O	0.943898	-0.399835	0.161827
O14	O	1.443898	0.100165	0.661827
O15	O	0.867052	-0.190115	0.263427
O16	O	1.367052	0.309885	0.763427
O17	O	1.045504	-0.399839	0.263412
O18	O	1.545504	0.100161	0.763412
O19	O	0.944037	-0.190118	0.340397
O20	O	1.444037	0.309882	0.840397
O21	O	0.866973	-0.309430	0.161834
O22	O	1.366973	0.190570	0.661834
O23	O	0.765432	-0.309408	0.263396
O24	O	1.265432	0.190592	0.763396
O25	O	0.867027	-0.399800	0.441926
O26	O	1.367027	0.100200	0.941926
O27	O	0.765421	-0.399797	0.340341
O28	O	1.265421	0.100203	0.840341
O29	O	0.944023	-0.309414	0.441950
O30	O	1.444023	0.190586	0.941950
O31	O	0.943884	-0.519132	0.263380
O32	O	1.443884	-0.019132	0.763380
O33	O	0.866948	-0.519115	0.340332
O34	O	1.366948	-0.019115	0.840332
C35	C	0.742693	-0.354600	0.301866
C36	C	1.242693	0.145400	0.801866
C37	C	0.673051	-0.354610	0.301873
C38	C	1.173051	0.145390	0.801873
C39	C	0.171266	-0.401772	0.341911
C40	C	0.671266	0.098228	0.841911
C41	C	0.236701	-0.401772	0.341904
C42	C	0.736701	0.098228	0.841904
C43	C	0.269413	-0.354636	0.301904
C44	C	0.769413	0.145364	0.801904
C45	C	0.236684	-0.307510	0.261896
C46	C	0.736684	0.192490	0.761896
C47	C	0.171250	-0.307516	0.261899
C48	C	0.671250	0.192484	0.761899
C49	C	0.373093	-0.288313	0.297050
C50	C	0.873093	0.211687	0.797050
C51	C	0.438526	-0.288306	0.297051
C52	C	0.938526	0.211694	0.797051
C53	C	0.471234	-0.354617	0.301890
C54	C	0.971234	0.145383	0.801890
C55	C	0.438500	-0.420937	0.306741
C56	C	0.938500	0.079063	0.806741
C57	C	0.373066	-0.420944	0.306745
C58	C	0.873066	0.079056	0.806745
C59	C	0.340365	-0.354624	0.301896
C60	C	0.840365	0.145376	0.801896
C61	C	0.574908	-0.401744	0.341886
C62	C	1.074908	0.098256	0.841886
C63	C	0.640344	-0.401745	0.341875
C64	C	1.140344	0.098255	0.841875
C65	C	0.640326	-0.307476	0.261869
C66	C	1.140326	0.192524	0.761869
C67	C	0.574890	-0.307482	0.261877
C68	C	1.074890	0.192518	0.761877
C69	C	0.542185	-0.354614	0.301889
C70	C	1.042185	0.145386	0.801889
C71	C	0.905422	-0.545826	0.301866
C72	C	1.405422	-0.045826	0.801866
C73	C	0.905455	-0.627625	0.301879
C74	C	1.405455	-0.127625	0.801879
C75	C	0.945578	-0.892626	0.342018
C76	C	1.445578	-0.392626	0.842018
C77	C	0.945557	-0.815768	0.342008
C78	C	1.445557	-0.315768	0.842008
C79	C	0.865462	-0.815872	0.261787
C80	C	1.365462	-0.315872	0.761787
C81	C	0.865487	-0.892730	0.261793
C82	C	1.365487	-0.392730	0.761793
C83	C	0.905544	-0.931105	0.301913
C84	C	1.405544	-0.431105	0.801913
C85	C	0.905498	-0.777389	0.301896
C86	C	1.405498	-0.277389	0.801896
C87	C	0.905475	-0.694055	0.301886
C88	C	1.405475	-0.194055	0.801886
C89	C	0.905568	-1.014444	0.301923
C90	C	1.405568	-0.514444	0.801923
C91	C	1.068903	-0.354640	0.301903
C92	C	1.568903	0.145360	0.801903
C93	C	1.138545	-0.354649	0.301911
C94	C	1.638545	0.145351	0.801911
C95	C	0.905532	-0.354605	0.465307
C96	C	1.405532	0.145395	0.965307
C97	C	0.905554	-0.354599	0.534949
C98	C	1.405554	0.145401	1.034949
C99	C	0.905556	-0.162667	0.301916
C100	C	1.405556	0.337333	0.801916
C101	C	0.905588	-0.080868	0.301930
C102	C	1.405588	0.419132	0.801930
C103	C	0.905464	-0.354582	0.139097
C104	C	1.405464	0.145418	0.639097
C105	C	0.905564	-0.354381	0.069456
C106	C	1.405564	0.145619	0.569456
C107	C	0.945645	-0.307532	0.567675
C108	C	1.445645	0.192468	1.067675
C109	C	0.945644	-0.307501	0.633111
C110	C	1.445644	0.192499	1.133111
C111	C	0.905559	-0.354548	0.665817
C112	C	1.405559	0.145452	1.165817
C113	C	0.865461	-0.401618	0.633083
C114	C	1.365461	0.098382	1.133083
C115	C	0.865459	-0.401643	0.567648
C116	C	1.365459	0.098357	1.067648
C117	C	0.900592	-0.420812	0.769485
C118	C	1.400592	0.079188	1.269485
C119	C	0.900599	-0.420789	0.834918
C120	C	1.400599	0.079211	1.334918
C121	C	0.905563	-0.354471	0.867638
C122	C	1.405563	0.145529	1.367638
C123	C	0.910534	-0.288175	0.834917
C124	C	1.410534	0.211825	1.334917
C125	C	0.910531	-0.288200	0.769482
C126	C	1.410531	0.211800	1.269482
C127	C	0.905557	-0.354526	0.736770
C128	C	1.405557	0.145474	1.236770
C129	C	0.945654	-0.307366	0.971317
C130	C	1.445654	0.192634	1.471317
C131	C	0.945649	-0.307333	1.036754
C132	C	1.445649	0.192667	1.536754
C133	C	0.865470	-0.401457	1.036724
C134	C	1.365470	0.098543	1.536724
C135	C	0.865472	-0.401483	0.971289
C136	C	1.365472	0.098517	1.471289
C137	C	0.905568	-0.354439	0.938589
C138	C	1.405568	0.145561	1.438589
H139	H	0.346417	-0.474944	0.310693
H140	H	0.846417	0.025056	0.810693
O141	O	0.988747	-0.774269	0.385258
O142	O	1.488747	-0.274269	0.885258
H143	H	0.977981	-0.788999	0.434425
H144	H	1.477981	-0.288999	0.934425
O145	O	0.271965	-0.256677	0.218748
O146	O	0.771965	0.243323	0.718748
H147	H	0.238216	-0.223915	0.190927
H148	H	0.738216	0.276085	0.690927
O149	O	0.822254	-0.774483	0.218521
O150	O	1.322254	-0.274483	0.718521
H151	H	0.828957	-0.714575	0.225257
H152	H	1.328957	-0.214575	0.725257
H153	H	0.914577	-0.234172	0.861555
H154	H	1.414577	0.265828	1.361555
O155	O	0.822304	-0.934232	0.218532
O156	O	1.322304	-0.434232	0.718532
H157	H	0.850380	-0.969230	0.186683
H158	H	1.350380	-0.469230	0.686683
H159	H	0.978293	-0.269224	0.541055
H160	H	1.478293	0.230776	1.041055
O161	O	0.988885	-0.256560	1.072057
O162	O	1.488885	0.243440	1.572057
H163	H	1.020743	-0.289490	1.101892
H164	H	1.520743	0.210510	1.601892
O165	O	0.337822	-0.216786	0.291818
O166	O	0.837822	0.283214	0.791818
H167	H	0.286823	-0.227932	0.292625
H168	H	0.786823	0.272068	0.792625
O169	O	0.539618	-0.452580	0.385027
O170	O	1.039618	0.047420	0.885027
H171	H	0.509779	-0.489964	0.356923
H172	H	1.009779	0.010036	0.856923
H173	H	0.896555	-0.474771	0.861555
H174	H	1.396555	0.025229	1.361555
H175	H	0.978289	-0.269170	0.659762
H176	H	1.478289	0.230830	1.159762
H177	H	0.832826	-0.439757	1.063353
H178	H	1.332826	0.060243	1.563353
O179	O	0.473771	-0.492464	0.311960
O180	O	0.973771	0.007536	0.811960
H181	H	0.440017	-0.538577	0.315338
H182	H	0.940017	-0.038577	0.815338
O183	O	0.675642	-0.452570	0.385022
O184	O	1.175642	0.047430	0.885022
H185	H	0.641904	-0.485336	0.412848
H186	H	1.141904	0.014664	0.912848
H187	H	0.896382	-0.474802	0.742851
H188	H	1.396382	0.025198	1.242851
O189	O	0.822204	-0.452393	0.532344
O190	O	1.322204	0.047607	1.032344
H191	H	0.794324	-0.485099	0.566077
H192	H	1.294324	0.014901	1.066077
O193	O	0.675597	-0.256633	0.218725
O194	O	1.175597	0.243367	0.718725
H195	H	0.726595	-0.264542	0.225445
H196	H	1.226595	0.235458	0.725445
O197	O	0.473821	-0.216773	0.291816
O198	O	0.973821	0.283227	0.791816
H199	H	0.503650	-0.209315	0.333800
H200	H	1.003650	0.290685	0.833800
O201	O	0.822223	-0.452360	0.668354
O202	O	1.322223	0.047640	1.168354
H203	H	0.850249	-0.489801	0.698175
H204	H	1.350249	0.010199	1.198175
H205	H	0.548248	-0.269107	0.229307
H206	H	1.048248	0.230893	0.729307
H207	H	0.914577	-0.234219	0.742843
H208	H	1.414577	0.265781	1.242843
H209	H	0.978299	-0.269056	0.944692
H210	H	1.478299	0.230944	1.444692
H211	H	0.978193	-0.923869	0.374688
H212	H	1.478193	-0.423869	0.874688
H213	H	0.144641	-0.440153	0.374489
H214	H	0.644641	0.059847	0.874489
H215	H	0.263348	-0.440145	0.374479
H216	H	0.763348	0.059855	0.874479
H217	H	0.144609	-0.269141	0.229326
H218	H	0.644609	0.230859	0.729326
H219	H	0.832830	-0.439814	0.944643
H220	H	1.332830	0.060186	1.444643
