data_functionalizedCrystal
_audit_creation_method	'MofGen! by Chris Wilmer'
_symmetry_space_group_name_H-M	'P1'
_symmetry_Int_Tables_number	1
_symmetry_cell_setting	triclinic
loop_
_symmetry_equiv_pos_as_xyz
  x,y,z
_cell_length_a	12.759395
_cell_length_b	17.077402
_cell_length_c	17.077404
_cell_angle_alpha	89.987751
_cell_angle_beta	90.006026
_cell_angle_gamma	89.975580
loop_
_atom_site_label
_atom_site_type_symbol
_atom_site_fract_x
_atom_site_fract_y
_atom_site_fract_z
Zn1	Zn	1.606059	0.312612	0.443787
Zn2	Zn	2.106059	0.812612	0.943787
Zn3	Zn	1.605969	0.443847	0.312518
Zn4	Zn	2.105969	0.943847	0.812518
Zn5	Zn	1.430401	0.312602	0.312541
Zn6	Zn	1.930401	0.812602	0.812541
Zn7	Zn	1.430324	0.443843	0.443747
Zn8	Zn	1.930324	0.943843	0.943747
O9	O	1.518188	0.378226	0.378148
O10	O	2.018188	0.878226	0.878148
O11	O	1.753068	0.330026	0.426382
O12	O	2.253068	0.830026	0.926382
O13	O	1.582674	0.426434	0.202674
O14	O	2.082674	0.926434	0.702674
O15	O	1.453773	0.202757	0.329977
O16	O	1.953773	0.702757	0.829977
O17	O	1.753002	0.426443	0.329939
O18	O	2.253002	0.926443	0.829939
O19	O	1.582827	0.202764	0.426403
O20	O	2.082827	0.702764	0.926403
O21	O	1.453685	0.330009	0.202691
O22	O	1.953685	0.830009	0.702691
O23	O	1.283370	0.330006	0.329938
O24	O	1.783370	0.830006	0.829938
O25	O	1.453641	0.426438	0.553599
O26	O	1.953641	0.926438	1.053599
O27	O	1.283313	0.426428	0.426335
O28	O	1.783313	0.926428	0.926335
O29	O	1.582753	0.330023	0.553629
O30	O	2.082753	0.830023	1.053629
O31	O	1.582599	0.553693	0.329900
O32	O	2.082599	1.053693	0.829900
O33	O	1.453554	0.553690	0.426313
O34	O	1.953554	1.053690	0.926313
C35	C	1.245221	0.378216	0.378135
C36	C	1.745221	0.878216	0.878135
C37	C	1.128444	0.378231	0.378148
C38	C	1.628444	0.878231	0.878148
C39	C	1.518087	0.582174	0.378117
C40	C	2.018087	1.082174	0.878117
C41	C	1.518140	0.669424	0.378130
C42	C	2.018140	1.169424	0.878130
C43	C	1.518198	0.378231	0.582893
C44	C	2.018198	0.878231	1.082893
C45	C	1.518203	0.378233	0.670142
C46	C	2.018203	0.878233	1.170142
C47	C	1.128424	0.478798	0.478363
C48	C	1.628424	0.978798	0.978363
C49	C	1.073553	0.529087	0.528473
C50	C	1.573553	1.029087	1.028473
C51	C	0.963831	0.529097	0.528483
C52	C	1.463831	1.029097	1.028483
C53	C	0.908978	0.478810	0.478379
C54	C	1.408978	0.978810	0.978379
C55	C	0.963849	0.428520	0.428269
C56	C	1.463849	0.928520	0.928269
C57	C	1.073573	0.428518	0.428263
C58	C	1.573573	0.928518	0.928263
C59	C	0.963869	0.327951	0.328058
C60	C	1.463869	0.827951	0.828058
C61	C	1.073591	0.327944	0.328044
C62	C	1.573591	0.827944	0.828044
C63	C	0.909016	0.277664	0.277954
C64	C	1.409016	0.777664	0.777954
C65	C	0.963887	0.227377	0.227839
C66	C	1.463887	0.727377	0.727839
C67	C	1.073615	0.227370	0.227831
C68	C	1.573615	0.727370	0.727831
C69	C	1.128462	0.277655	0.277933
C70	C	1.628462	0.777655	0.777933
C71	C	1.792222	0.378236	0.378162
C72	C	2.292222	0.878236	0.878162
C73	C	1.908998	0.378240	0.378168
C74	C	2.408998	0.878240	0.878168
C75	C	1.518319	0.173482	0.378197
C76	C	2.018319	0.673482	0.878197
C77	C	1.518374	0.086232	0.378218
C78	C	2.018374	0.586232	0.878218
C79	C	1.585402	0.710389	0.327981
C80	C	2.085402	1.210389	0.827981
C81	C	1.585453	0.792369	0.328001
C82	C	2.085453	1.292369	0.828001
C83	C	1.518236	0.833383	0.378167
C84	C	2.018236	1.333383	0.878167
C85	C	1.450971	0.792412	0.428321
C86	C	1.950971	1.292412	0.928321
C87	C	1.450925	0.710433	0.428304
C88	C	1.950925	1.210433	0.928304
C89	C	1.451068	0.963282	0.428350
C90	C	1.951068	1.463282	0.928350
C91	C	1.451112	1.045266	0.428366
C92	C	1.951112	1.545266	0.928366
C93	C	1.585596	1.045218	0.328048
C94	C	2.085596	1.545218	0.828048
C95	C	1.585551	0.963239	0.328031
C96	C	2.085551	1.463239	0.828031
C97	C	1.518284	0.922274	0.378184
C98	C	2.018284	1.422274	0.878184
C99	C	1.585423	0.328038	0.711149
C100	C	2.085423	0.828038	1.211149
C101	C	1.585414	0.328037	0.793130
C102	C	2.085414	0.828037	1.293130
C103	C	1.518190	0.378235	0.834102
C104	C	2.018190	0.878235	1.334102
C105	C	1.450962	0.428432	0.793089
C106	C	1.950962	0.928432	1.293089
C107	C	1.450966	0.428429	0.711110
C108	C	1.950966	0.928429	1.211110
C109	C	1.450960	0.428438	0.963959
C110	C	1.950960	0.928438	1.463959
C111	C	1.450957	0.428442	1.045944
C112	C	1.950957	0.928442	1.545944
C113	C	1.585407	0.328045	1.045979
C114	C	2.085407	0.828045	1.545979
C115	C	1.585411	0.328042	0.964000
C116	C	2.085411	0.828042	1.464000
C117	C	1.518185	0.378240	0.922993
C118	C	2.018185	0.878240	1.422993
C119	C	1.518173	0.378241	1.174201
C120	C	2.018173	0.878241	1.674201
C121	C	1.518177	0.378247	1.086951
C122	C	2.018177	0.878247	1.586951
H123	H	1.217765	0.478801	0.478355
H124	H	1.717765	0.978801	0.978355
F125	F	1.657089	0.919591	0.274639
F126	F	2.157089	1.419591	0.774639
H127	H	1.640157	0.287170	0.930642
H128	H	2.140157	0.787170	1.430642
H129	H	1.217803	0.277656	0.277929
H130	H	1.717803	0.777656	0.777929
F131	F	1.132005	0.173840	0.174499
F132	F	1.632005	0.673840	0.674499
F133	F	1.656979	0.274613	0.667551
F134	F	2.156979	0.774613	1.167551
F135	F	1.656956	0.274621	1.089622
F136	F	2.156956	0.774621	1.589622
H137	H	1.640371	1.078576	0.287214
H138	H	2.140371	1.578576	0.787214
H139	H	1.396397	1.078657	0.469230
H140	H	1.896397	1.578657	0.969230
H141	H	1.640133	0.677001	0.287128
H142	H	2.140133	1.177001	0.787128
H143	H	1.118226	0.570029	0.569269
H144	H	1.618226	1.070029	1.069269
F145	F	1.657046	0.835964	0.274629
F146	F	2.157046	1.335964	0.774629
H147	H	1.396296	0.929930	0.469193
H148	H	1.896296	1.429930	0.969193
H149	H	1.396214	0.469317	1.079301
H150	H	1.896214	0.969317	1.579301
F151	F	1.379439	0.836064	0.481715
F152	F	1.879439	1.336064	0.981715
F153	F	1.379338	0.666835	0.481681
F154	F	1.879338	1.166835	0.981681
H155	H	1.640154	0.287165	0.826514
H156	H	2.140154	0.787165	1.326514
H157	H	1.396200	0.469302	0.930574
H158	H	1.896200	0.969302	1.430574
H159	H	1.396223	0.469302	0.826455
H160	H	1.896223	0.969302	1.326455
H161	H	0.819675	0.277672	0.277969
H162	H	1.319675	0.777672	0.777969
F163	F	0.905432	0.582616	0.581819
F164	F	1.405432	1.082616	1.081819
F165	F	0.792202	0.478813	0.478401
F166	F	1.292202	0.978813	0.978401
H167	H	1.396218	0.469295	0.677724
H168	H	1.896218	0.969295	1.177724
H169	H	0.919217	0.186434	0.187052
H170	H	1.419217	0.686434	0.687052
