data_functionalizedCrystal
_audit_creation_method	'MofGen! by Chris Wilmer'
_symmetry_space_group_name_H-M	'P1'
_symmetry_Int_Tables_number	1
_symmetry_cell_setting	triclinic
loop_
_symmetry_equiv_pos_as_xyz
  x,y,z
_cell_length_a	23.532407
_cell_length_b	15.944551
_cell_length_c	15.021413
_cell_angle_alpha	89.996935
_cell_angle_beta	89.990280
_cell_angle_gamma	96.826293
loop_
_atom_site_label
_atom_site_type_symbol
_atom_site_fract_x
_atom_site_fract_y
_atom_site_fract_z
O1	O	0.755658	-0.101953	-0.074084
O2	O	0.589851	-0.116707	-0.074075
O3	O	0.677282	0.012983	-0.074072
O4	O	0.668227	-0.231643	-0.074087
O5	O	0.677268	0.012965	0.073992
O6	O	0.589838	-0.116725	0.073989
O7	O	0.755644	-0.101972	0.073980
Zn8	Zn	0.672738	-0.109351	0.097493
Zn9	Zn	0.672757	-0.109327	-0.097588
O10	O	0.668213	-0.231661	0.073977
C11	C	0.568627	-0.116340	-0.000042
C12	C	0.505406	-0.115211	-0.000038
C13	C	0.776868	-0.102338	-0.000055
C14	C	0.840090	-0.103468	-0.000065
C15	C	0.676899	0.044265	-0.000039
C16	C	0.675772	0.137501	-0.000039
C17	C	1.238923	-0.033805	-0.000029
C18	C	1.298327	-0.034854	-0.000025
O19	O	1.334822	0.029724	0.000011
N20	N	1.321252	-0.111955	-0.000033
C21	C	1.284769	-0.188011	-0.000035
O22	O	1.309723	-0.253687	-0.000040
C23	C	1.225366	-0.186960	-0.000033
C24	C	1.202445	-0.109855	-0.000034
C25	C	1.216001	0.043294	-0.000030
C26	C	1.156601	0.044343	-0.000035
C27	C	1.120122	-0.031707	-0.000040
C28	C	1.143044	-0.108806	-0.000040
C29	C	1.188884	-0.263016	-0.000029
C30	C	1.129477	-0.261959	-0.000026
C31	C	1.106556	-0.184853	-0.000027
C32	C	1.047166	-0.183807	-0.000050
N33	N	1.024241	-0.106707	-0.000043
C34	C	1.060719	-0.030657	-0.000038
C35	C	1.409520	-0.190210	-0.000039
C36	C	1.468922	-0.191261	-0.000048
C37	C	1.482476	-0.038104	-0.000036
C38	C	1.423073	-0.037054	-0.000034
C39	C	1.386595	-0.113110	-0.000031
C40	C	0.935974	-0.028460	-0.000050
C41	C	0.876568	-0.027417	-0.000060
C42	C	0.863019	-0.180574	-0.000066
C43	C	0.922420	-0.181617	-0.000062
C44	C	0.958897	-0.105553	-0.000051
O45	O	1.010637	-0.248352	-0.000083
O46	O	1.035757	0.035009	-0.000021
C47	C	0.668596	-0.262943	-0.000057
C48	C	0.669723	-0.356179	-0.000064
N49	N	0.672730	-0.109367	0.230631
C50	C	0.618885	0.351879	-0.000048
C51	C	0.645295	0.413109	0.072955
C52	C	0.673733	0.308210	-0.000046
C53	C	0.645321	0.413111	-0.073025
C54	C	0.671760	0.473106	-0.000056
C55	C	0.700158	0.368213	0.073018
C56	C	0.700177	0.368208	-0.073027
C57	C	0.726627	0.429421	-0.000006
C58	C	0.674869	0.213217	-0.000039
C59	C	0.670629	0.568098	-0.000056
N60	N	0.672770	-0.109304	-0.230725
C61	C	0.632296	-0.169308	0.470312
C62	C	0.683757	-0.185181	0.529643
C63	C	0.672745	-0.109346	0.412238
C64	C	0.621298	-0.093492	0.529649
C65	C	0.672754	-0.109328	0.587662
C66	C	0.724232	-0.125257	0.470262
C67	C	0.661739	-0.033535	0.470262
C68	C	0.713237	-0.049376	0.529566
C69	C	0.672738	-0.109359	0.311180
C70	C	0.672766	-0.109314	0.688717
H71	H	0.965667	0.033479	-0.000042
C72	C	1.290656	0.130984	0.076081
C73	C	1.256092	0.126899	-0.000029
H74	H	1.315401	0.182605	0.076076
H75	H	1.312816	0.084930	0.076073
H76	H	1.267192	0.128201	0.127711
H77	H	1.279557	0.129676	-0.051660
H78	H	1.233931	0.172966	-0.000030
H79	H	1.207536	-0.325803	-0.000031
C80	C	0.569232	-0.001534	0.616133
C81	C	0.562561	-0.075391	0.564865
H82	H	0.532969	0.009631	0.637876
H83	H	0.585305	0.044449	0.580434
H84	H	0.593939	-0.008601	0.664869
H85	H	0.537857	-0.068321	0.516126
H86	H	0.546479	-0.121384	0.600567
H87	H	0.652405	0.030548	0.444159
H88	H	0.857909	0.035374	-0.000063
H89	H	1.379822	-0.252148	-0.000043
H90	H	0.693074	-0.249285	0.555725
H91	H	0.747484	0.001343	0.555420
C92	C	1.071566	0.113979	-0.000038
C93	C	1.131410	0.129100	-0.000033
H94	H	1.056019	0.166308	-0.000041
H95	H	1.059039	0.082689	0.051590
H96	H	1.059054	0.082695	-0.051677
H97	H	1.143922	0.160379	0.051610
H98	H	1.143942	0.160404	-0.051666
H99	H	1.404415	0.025732	-0.000034
C100	C	0.597843	-0.317139	0.465153
C101	C	0.586168	-0.237811	0.435176
H102	H	0.569369	-0.359429	0.443454
H103	H	0.597753	-0.317934	0.528378
H104	H	0.634321	-0.327857	0.443942
H105	H	0.549691	-0.227091	0.456392
H106	H	0.586252	-0.237014	0.371937
H107	H	0.767753	-0.138736	0.444285
H108	H	1.512188	0.023820	-0.000032
H109	H	1.487579	-0.254048	-0.000059
C110	C	1.122051	-0.413455	-0.000034
C111	C	1.089382	-0.345564	-0.000031
H112	H	1.097297	-0.465068	-0.000045
H113	H	1.145492	-0.410683	0.051599
H114	H	1.145513	-0.410664	-0.051667
H115	H	1.065923	-0.348352	0.051606
H116	H	1.065931	-0.348338	-0.051669
C117	C	0.903052	-0.332900	-0.000075
C118	C	0.947619	-0.266371	-0.000066
H119	H	0.918607	-0.385223	-0.000066
H120	H	0.880178	-0.329299	-0.051710
H121	H	0.880153	-0.329303	0.051557
H122	H	0.970515	-0.269964	-0.051701
H123	H	0.970503	-0.269973	0.051575
H124	H	0.833308	-0.242492	-0.000075
C125	C	0.817065	0.450983	-0.075681
C126	C	0.788146	0.474682	0.000043
H127	H	0.855047	0.478915	-0.075642
H128	H	0.797686	0.466358	-0.127564
H129	H	0.818084	0.391604	-0.075180
H130	H	0.787124	0.534060	-0.000461
H131	H	0.807531	0.459313	0.051940
H132	H	0.573358	0.318187	0.000027
C133	C	0.702677	0.363684	-0.232726
C134	C	0.731475	0.341295	-0.156350
H135	H	0.721995	0.347061	-0.284169
H136	H	0.701890	0.423099	-0.233621
H137	H	0.664618	0.336062	-0.232190
H138	H	0.769533	0.368921	-0.156883
H139	H	0.732269	0.281869	-0.155455
C140	C	0.557598	0.400416	-0.156190
C141	C	0.614004	0.439972	-0.156344
H142	H	0.538263	0.416993	-0.207629
H143	H	0.538485	0.416553	-0.104357
H144	H	0.557793	0.340874	-0.156496
H145	H	0.613808	0.499514	-0.156031
H146	H	0.633121	0.423839	-0.208191
C147	C	0.557563	0.400446	0.156146
C148	C	0.613972	0.439989	0.156274
H149	H	0.538223	0.417043	0.207580
H150	H	0.557750	0.340910	0.156475
H151	H	0.538457	0.416581	0.104303
H152	H	0.633079	0.423849	0.208115
H153	H	0.613788	0.499538	0.155954
H154	H	0.723332	0.348410	0.134804
