data_functionalizedCrystal
_audit_creation_method	'MofGen! by Chris Wilmer'
_symmetry_space_group_name_H-M	'P1'
_symmetry_Int_Tables_number	1
_symmetry_cell_setting	triclinic
loop_
_symmetry_equiv_pos_as_xyz
  x,y,z
_cell_length_a	29.839131
_cell_length_b	16.120490
_cell_length_c	16.120297
_cell_angle_alpha	90.129683
_cell_angle_beta	92.867727
_cell_angle_gamma	87.133579
loop_
_atom_site_label
_atom_site_type_symbol
_atom_site_fract_x
_atom_site_fract_y
_atom_site_fract_z
Zn1	Zn	-0.227636	1.247317	-0.534499
Zn2	Zn	-0.299153	1.254226	-0.395429
Zn3	Zn	-0.220041	1.115311	-0.388421
Zn4	Zn	-0.298735	1.108182	-0.527402
O5	O	-0.261391	1.181259	-0.461438
O6	O	-0.240476	1.364598	-0.521954
O7	O	-0.285655	1.241674	-0.278135
O8	O	-0.158185	1.132913	-0.407835
O9	O	-0.293019	1.369675	-0.419780
O10	O	-0.163765	1.229897	-0.515158
O11	O	-0.227531	1.139613	-0.272985
O12	O	-0.227126	0.998000	-0.400954
O13	O	-0.292307	1.120764	-0.644709
O14	O	-0.284942	0.992763	-0.503063
O15	O	-0.240071	1.222985	-0.649922
O16	O	-0.361961	1.234762	-0.412899
O17	O	-0.361654	1.127464	-0.509859
C18	C	-0.255165	0.965209	-0.450479
C19	C	-0.252513	0.872781	-0.445810
C20	C	-0.275145	0.659806	-0.485656
C21	C	-0.247675	0.703559	-0.437285
C22	C	-0.250367	0.797723	-0.442030
C23	C	-0.272453	0.565634	-0.480913
C24	C	-0.378108	1.181111	-0.461389
C25	C	-0.428043	1.181122	-0.461400
C26	C	-0.737843	1.237222	-0.411033
C27	C	-0.925520	1.237323	-0.411071
O28	O	-0.949914	1.284903	-0.368210
N29	N	-0.948840	1.181428	-0.461509
C30	C	-0.925237	1.125508	-0.511946
O31	O	-0.949378	1.077974	-0.554854
C32	C	-0.737561	1.125412	-0.511912
C33	C	-0.714244	1.181304	-0.461464
C34	C	-0.714526	1.293110	-0.360590
C35	C	-0.667610	1.293082	-0.360578
C36	C	-0.644010	1.237164	-0.411009
C37	C	-0.667328	1.181275	-0.461452
C38	C	-0.713960	1.069496	-0.562353
C39	C	-0.667038	1.069478	-0.562341
C40	C	-0.643721	1.125371	-0.511893
C41	C	-0.596812	1.125329	-0.511871
N42	N	-0.573492	1.181224	-0.461432
C43	C	-0.597092	1.237141	-0.411001
C44	C	-1.023770	1.125562	-0.511959
C45	C	-1.070688	1.125584	-0.511966
C46	C	-1.070968	1.237400	-0.411092
C47	C	-1.024048	1.237373	-0.411081
C48	C	-1.000450	1.181456	-0.461520
C49	C	-0.498563	1.237076	-0.410979
C50	C	-0.451643	1.237040	-0.410969
C51	C	-0.451367	1.125227	-0.511846
C52	C	-0.498283	1.125260	-0.511853
C53	C	-0.521881	1.181191	-0.461417
O54	O	-0.572389	1.077780	-0.554716
O55	O	-0.572943	1.284680	-0.368113
C56	C	-0.784760	1.237251	-0.411046
C57	C	-0.808077	1.181362	-0.461489
C58	C	-0.784478	1.125445	-0.511920
C59	C	-0.854996	1.181385	-0.461496
C60	C	-0.878595	1.237302	-0.411065
C61	C	-0.855276	1.293197	-0.360627
C62	C	-0.808359	1.293168	-0.360615
C63	C	-0.807797	1.069550	-0.562358
C64	C	-0.854714	1.069583	-0.562365
C65	C	-0.878313	1.125500	-0.511935
C66	C	-0.144219	1.181429	-0.461506
C67	C	-0.094287	1.181502	-0.461535
C68	C	-0.266990	1.170309	-0.678331
C69	C	-0.269375	1.165642	-0.770758
C70	C	-0.267642	1.398152	-0.472440
C71	C	-0.270305	1.490579	-0.477129
C72	C	-0.273720	1.157092	-0.939983
C73	C	-0.248932	1.205590	-0.983753
C74	C	-0.251349	1.200833	-1.077915
C75	C	-0.271303	1.161848	-0.845812
C76	C	-0.255783	1.192215	-0.245390
C77	C	-0.253275	1.197042	-0.152972
H78	H	-0.300684	0.693066	-0.530627
N79	N	-0.220030	1.262154	-0.942042
N80	N	-0.218082	1.265987	-0.864500
H81	H	-0.197672	1.305934	-0.835036
H82	H	-0.732937	1.023979	-0.603429
H83	H	-0.432145	1.079697	-0.552904
H84	H	-0.296757	1.112003	-0.973226
N85	N	-0.215637	0.661854	-0.380845
N86	N	-0.189812	0.702938	-0.335358
H87	H	-0.167187	0.673482	-0.295495
H88	H	-0.432659	1.282554	-0.369885
N89	N	-0.522656	1.294211	-0.359455
N90	N	-0.501824	1.344101	-0.314421
H91	H	-0.518838	1.384449	-0.278026
N92	N	-0.643801	1.350170	-0.309031
N93	N	-0.646933	1.348587	-0.232023
H94	H	-0.630122	1.388910	-0.195613
N95	N	-0.738621	1.350244	-0.309071
N96	N	-0.717787	1.400137	-0.264043
H97	H	-0.734801	1.440488	-0.227651
H98	H	-1.005066	1.282886	-0.370002
N99	N	-1.095086	1.294511	-0.359579
N100	N	-1.136977	1.294517	-0.359600
H101	H	-1.154013	1.334851	-0.323224
H102	H	-0.874498	1.338725	-0.319562
N103	N	-1.094496	1.068473	-0.563488
N104	N	-1.073413	1.018554	-0.608509
H105	H	-1.090226	0.978218	-0.644902
H106	H	-1.004559	1.080025	-0.553034
H107	H	-0.873695	1.024061	-0.603445
N108	N	-0.642941	1.012358	-0.613876
N109	N	-0.663770	0.962465	-0.658913
H110	H	-0.646752	0.922123	-0.695309
H111	H	-0.517269	1.079750	-0.552935
H112	H	-0.789378	1.338681	-0.319535
H113	H	-0.788586	1.024016	-0.603426
