data_functionalizedCrystal
_audit_creation_method	'MofGen! by Chris Wilmer'
_symmetry_space_group_name_H-M	'P1'
_symmetry_Int_Tables_number	1
_symmetry_cell_setting	triclinic
loop_
_symmetry_equiv_pos_as_xyz
  x,y,z
_cell_length_a	13.339070
_cell_length_b	13.339070
_cell_length_c	11.804365
_cell_angle_alpha	105.112168
_cell_angle_beta	74.875130
_cell_angle_gamma	115.629294
loop_
_atom_site_label
_atom_site_type_symbol
_atom_site_fract_x
_atom_site_fract_y
_atom_site_fract_z
O1	O	-1.512774	-0.534576	0.099059
O2	O	-1.197964	-0.462317	0.099053
O3	O	-1.319238	-0.341042	0.099052
O4	O	-1.391499	-0.655850	0.099060
O5	O	-1.287299	-0.372924	-0.099004
O6	O	-1.166024	-0.494199	-0.099002
O7	O	-1.480834	-0.566458	-0.098997
Cu8	Cu	-1.320513	-0.533239	-0.117083
Cu9	Cu	-1.358285	-0.495535	0.117140
O10	O	-1.359560	-0.687732	-0.098995
C11	C	-1.140878	-0.466052	0.000025
C12	C	-1.018364	-0.429669	0.000023
C13	C	-1.291062	-0.315868	0.000026
C14	C	-1.254680	-0.193353	0.000030
C15	C	-1.537920	-0.562722	0.000034
C16	C	-1.660436	-0.599104	0.000044
N17	N	-1.293954	-0.559760	-0.281824
C18	C	-0.732981	-0.712563	0.000049
C19	C	-0.848090	-0.746750	0.000055
C20	C	-0.890664	-0.667483	0.000046
C21	C	-0.818118	-0.554023	0.000033
C22	C	-0.702998	-0.519831	0.000037
C23	C	-0.860682	-0.474750	0.000034
C24	C	-0.788135	-0.361290	0.000021
C25	C	-0.673027	-0.327105	0.000023
C26	C	-0.630453	-0.406372	0.000032
C27	C	-0.975801	-0.508942	0.000030
C28	C	-0.945819	-0.316210	0.000018
C29	C	-0.830709	-0.282023	0.000012
C30	C	-1.387736	-0.712906	0.000034
C31	C	-1.424120	-0.835420	0.000037
C32	C	-1.537579	0.092035	0.000034
C33	C	-1.571765	-0.023075	0.000023
C34	C	-1.492497	-0.065650	0.000025
C35	C	-1.379036	0.006896	0.000037
C36	C	-1.344846	0.122016	0.000039
C37	C	-1.299763	-0.035669	0.000030
C38	C	-1.186303	0.036878	0.000042
C39	C	-1.152118	0.151986	0.000044
C40	C	-1.231386	0.194561	0.000042
C41	C	-1.333954	-0.150789	0.000029
C42	C	-1.141220	-0.120808	0.000033
C43	C	-1.107035	-0.005698	0.000044
C44	C	-1.448622	-0.405301	-0.655774
C45	C	-1.468712	-0.385233	-0.531113
C46	C	-1.425024	-0.428863	-0.468784
C47	C	-1.361243	-0.492564	-0.531130
C48	C	-1.341160	-0.512642	-0.655803
C49	C	-1.317561	-0.536204	-0.468814
C50	C	-1.253781	-0.599906	-0.531159
C51	C	-1.233699	-0.619979	-0.655820
C52	C	-1.277387	-0.576349	-0.718149
C53	C	-1.337645	-0.516126	-0.344140
C54	C	-1.230182	-0.623468	-0.344169
C55	C	-1.210092	-0.643536	-0.468830
N56	N	-1.384850	-0.469008	0.281880
H57	H	-1.034858	-0.601322	0.000036
H58	H	-1.261027	-0.592684	-0.819658
F59	F	-1.056849	-0.166114	0.000028
H60	H	-0.907152	-0.839127	0.000075
H61	H	-1.389575	-0.464261	-0.293389
H62	H	-1.426334	-0.209846	0.000019
F63	F	-1.446404	-0.407501	-0.336108
H64	H	-1.158161	-0.695404	-0.519608
H65	H	-0.613964	-0.234716	0.000026
F66	F	-1.013175	-0.703870	0.000050
F67	F	-0.687665	-0.796909	0.000074
F68	F	-1.536589	-0.317441	-0.464765
H69	H	-1.484195	-0.369790	-0.706530
H70	H	-1.181777	-0.671859	-0.706582
H71	H	-1.520338	-0.159379	0.000017
H72	H	-1.194609	-0.658998	-0.293422
H73	H	-0.536722	-0.378543	0.000027
F74	F	-1.692515	-0.100273	0.000031
H75	H	-0.771627	-0.189640	0.000011
H76	H	-0.980482	-0.251662	0.000016
F77	F	-1.621925	0.137352	0.000013
H78	H	-1.203558	0.288293	0.000055
H79	H	-1.059730	0.211050	0.000044
H80	H	-1.014653	0.053386	0.000053
