data_functionalizedCrystal
_audit_creation_method	'MofGen! by Chris Wilmer'
_symmetry_space_group_name_H-M	'P1'
_symmetry_Int_Tables_number	1
_symmetry_cell_setting	triclinic
loop_
_symmetry_equiv_pos_as_xyz
  x,y,z
_cell_length_a	15.995350
_cell_length_b	14.971486
_cell_length_c	13.448316
_cell_angle_alpha	90.006811
_cell_angle_beta	89.996887
_cell_angle_gamma	96.446748
loop_
_atom_site_label
_atom_site_type_symbol
_atom_site_fract_x
_atom_site_fract_y
_atom_site_fract_z
O1	O	1.111103	-0.115296	-0.082608
O2	O	1.611103	0.384704	0.417392
O3	O	0.867342	-0.129533	-0.082629
O4	O	1.367342	0.370467	0.417371
O5	O	0.995756	0.007793	-0.082611
O6	O	1.495756	0.507793	0.417389
O7	O	0.982690	-0.252622	-0.082626
O8	O	1.482690	0.247378	0.417374
O9	O	0.995740	0.007802	0.082773
O10	O	1.495740	0.507802	0.582773
O11	O	0.867326	-0.129524	0.082755
O12	O	1.367326	0.370476	0.582755
O13	O	1.111087	-0.115287	0.082776
O14	O	1.611087	0.384713	0.582776
Cu15	Cu	0.989205	-0.122405	0.097866
Cu16	Cu	1.489205	0.377595	0.597866
Cu17	Cu	0.989224	-0.122415	-0.097719
Cu18	Cu	1.489224	0.377585	0.402281
O19	O	0.982673	-0.252613	0.082758
O20	O	1.482673	0.247387	0.582758
C21	C	0.836139	-0.128940	0.000061
C22	C	1.336139	0.371060	0.500061
C23	C	0.743187	-0.127175	0.000053
C24	C	1.243187	0.372825	0.500053
C25	C	0.995164	0.041122	0.000081
C26	C	1.495164	0.541122	0.500081
C27	C	0.993413	0.140417	0.000080
C28	C	1.493413	0.640417	0.500080
N29	N	0.989198	-0.122397	0.235431
N30	N	1.489198	0.377603	0.735431
C31	C	0.405433	-0.120838	0.000074
C32	C	0.905433	0.379162	0.500074
C33	C	0.452769	-0.023037	0.000449
C34	C	0.952769	0.476963	0.500449
C35	C	0.549461	-0.024802	0.000069
C36	C	1.049461	0.475198	0.500069
C37	C	0.572997	-0.123982	0.000064
C38	C	1.072997	0.376018	0.500064
C39	C	0.531967	-0.172225	-0.094377
C40	C	1.031967	0.327775	0.405623
C41	C	0.435329	-0.169768	-0.094449
C42	C	0.935329	0.330232	0.405551
C43	C	0.434974	-0.171780	0.093623
C44	C	0.934974	0.328220	0.593623
C45	C	0.531919	-0.171756	0.094865
C46	C	1.031919	0.328244	0.594865
C47	C	0.667696	-0.125763	0.000055
C48	C	1.167696	0.374237	0.500055
C49	C	0.310733	-0.119060	0.000076
C50	C	0.810733	0.380940	0.500076
C51	C	1.142291	-0.115880	0.000084
C52	C	1.642291	0.384120	0.500084
C53	C	1.235243	-0.117645	0.000085
C54	C	1.735243	0.382355	0.500085
C55	C	0.983266	-0.285942	0.000064
C56	C	1.483266	0.214058	0.500064
C57	C	0.985017	-0.385237	0.000059
C58	C	1.485017	0.114763	0.500059
C59	C	1.068852	0.197728	0.000087
C60	C	1.568852	0.697728	0.500087
C61	C	1.067202	0.291026	0.000077
C62	C	1.567202	0.791026	0.500077
C63	C	0.990111	0.327010	0.000067
C64	C	1.490111	0.827010	0.500067
C65	C	0.914666	0.269691	0.000057
C66	C	1.414666	0.769691	0.500057
C67	C	0.916317	0.176395	0.000060
C68	C	1.416317	0.676395	0.500060
C69	C	0.911229	0.464150	0.000053
C70	C	1.411229	0.964150	0.500053
C71	C	0.909577	0.557452	0.000052
C72	C	1.409577	1.057452	0.500052
C73	C	1.062114	0.578780	0.000070
C74	C	1.562114	1.078780	0.500070
C75	C	1.063766	0.485484	0.000073
C76	C	1.563766	0.985484	0.500073
C77	C	0.988320	0.428172	0.000065
C78	C	1.488320	0.928172	0.500065
N79	N	0.989238	-0.122415	-0.235284
N80	N	1.489238	0.377585	0.264716
C81	C	1.046077	-0.061614	0.287479
C82	C	1.546077	0.438386	0.787479
C83	C	1.046083	-0.061614	0.391582
C84	C	1.546083	0.438386	0.891582
C85	C	0.989212	-0.122401	0.443635
C86	C	1.489212	0.377599	0.943635
C87	C	0.932326	-0.183187	0.391580
C88	C	1.432326	0.316813	0.891580
C89	C	0.932318	-0.183183	0.287478
C90	C	1.432318	0.316817	0.787478
C91	C	0.932350	-0.183193	0.608560
C92	C	1.432350	0.316807	1.108560
C93	C	0.932359	-0.183199	0.712668
C94	C	1.432359	0.316801	1.212668
C95	C	1.046114	-0.061624	0.712664
C96	C	1.546114	0.438376	1.212664
C97	C	1.046106	-0.061620	0.608562
C98	C	1.546106	0.438380	1.108562
C99	C	0.989221	-0.122407	0.556514
C100	C	1.489221	0.377593	1.056514
H101	H	0.577845	0.013120	0.067769
H102	H	1.077845	0.513120	0.567769
N103	N	0.394971	-0.259847	-0.099829
N104	N	0.894971	0.240153	0.400171
N105	N	0.438204	-0.324326	-0.103525
N106	N	0.938204	0.175674	0.396475
H107	H	0.409705	-0.387944	-0.107328
H108	H	0.909705	0.112056	0.392672
H109	H	0.846803	0.586747	0.000059
H110	H	1.346803	1.086747	0.500059
H111	H	0.849793	0.417488	0.000043
H112	H	1.349793	0.917488	0.500043
N113	N	0.429453	0.025988	0.085419
N114	N	0.929453	0.525988	0.585419
N115	N	0.395901	0.096795	0.074182
N116	N	0.895901	0.596795	0.574182
H117	H	0.379425	0.131409	0.134202
H118	H	0.879425	0.631409	0.634202
N119	N	0.566091	-0.127565	0.182526
N120	N	1.066091	0.372435	0.682526
N121	N	0.541535	-0.155375	0.266373
N122	N	1.041535	0.344625	0.766373
H123	H	0.565663	-0.124155	0.328284
H124	H	1.065663	0.375845	0.828284
H125	H	1.092431	-0.012129	0.755047
H126	H	1.592431	0.487871	1.255047
N127	N	0.409157	-0.131661	0.183419
N128	N	0.909157	0.368339	0.683419
N129	N	0.368666	-0.065029	0.179555
N130	N	0.868666	0.434971	0.679555
H131	H	0.350431	-0.036687	0.242968
H132	H	0.850431	0.463313	0.742968
H133	H	1.128633	0.337686	0.000085
H134	H	1.628633	0.837686	0.500085
N135	N	0.549794	-0.263627	-0.098809
N136	N	1.049794	0.236373	0.401191
N137	N	0.588843	-0.290416	-0.171489
N138	N	1.088843	0.209584	0.328511
H139	H	0.601436	-0.354969	-0.174619
H140	H	1.101436	0.145031	0.325381
H141	H	0.851897	0.298997	0.000042
H142	H	1.351897	0.798997	0.500042
N143	N	0.428134	0.025774	-0.084034
N144	N	0.928134	0.525774	0.415966
N145	N	0.375867	-0.011156	-0.144518
N146	N	0.875867	0.488844	0.355482
H147	H	0.358466	0.023314	-0.204186
H148	H	0.858466	0.523314	0.295814
H149	H	0.577287	0.013369	-0.067744
H150	H	1.077287	0.513369	0.432256
H151	H	0.854886	0.129732	0.000054
H152	H	1.354886	0.629732	0.500054
N153	N	0.567539	-0.130237	-0.182559
N154	N	1.067539	0.369763	0.317441
N155	N	0.644736	-0.127686	-0.198660
N156	N	1.144736	0.372314	0.301340
H157	H	0.669863	-0.098037	-0.260941
H158	H	1.169863	0.401963	0.239059
H159	H	0.547356	-0.244081	0.100565
H160	H	1.047356	0.255919	0.600565
H161	H	0.403284	-0.243888	0.094259
H162	H	0.903284	0.256112	0.594259
H163	H	0.886025	-0.232690	0.566185
H164	H	1.386025	0.267310	1.066185
H165	H	0.416992	-0.134594	-0.165042
H166	H	0.916992	0.365406	0.334958
H167	H	0.886048	-0.232697	0.755045
H168	H	1.386048	0.267303	1.255045
N169	N	1.139184	0.637315	0.000097
N170	N	1.639184	1.137315	0.500097
N171	N	1.155269	0.691760	0.069815
N172	N	1.655269	1.191760	0.569815
H173	H	1.209698	0.733103	0.069842
H174	H	1.709698	1.233103	0.569842
N175	N	1.147608	0.160990	0.000111
N176	N	1.647608	0.660990	0.500111
N177	N	1.214958	0.212176	0.000118
N178	N	1.714958	0.712176	0.500118
H179	H	1.270583	0.186234	0.000134
H180	H	1.770583	0.686234	0.500134
H181	H	0.886017	-0.232678	0.433967
H182	H	1.386017	0.267322	0.933967
H183	H	1.126540	0.456189	0.000088
H184	H	1.626540	0.956189	0.500088
H185	H	1.092392	-0.012118	0.245104
H186	H	1.592392	0.487882	0.745104
N187	N	1.104186	0.000484	0.444732
N188	N	1.604186	0.500484	0.944732
N189	N	1.154961	0.054752	0.398245
N190	N	1.654961	0.554752	0.898245
H191	H	1.195999	0.098613	0.435781
H192	H	1.695999	0.598613	0.935781
H193	H	1.092418	-0.012127	0.566181
H194	H	1.592418	0.487873	1.066181
N195	N	0.874208	-0.245274	0.234324
N196	N	1.374208	0.254726	0.734324
N197	N	0.823433	-0.299543	0.280809
N198	N	1.323433	0.200457	0.780809
H199	H	0.782388	-0.343395	0.243271
H200	H	1.282388	0.156605	0.743271
