data_functionalizedCrystal
_audit_creation_method	'MofGen! by Chris Wilmer'
_symmetry_space_group_name_H-M	'P1'
_symmetry_Int_Tables_number	1
_symmetry_cell_setting	triclinic
loop_
_symmetry_equiv_pos_as_xyz
  x,y,z
_cell_length_a	25.639242
_cell_length_b	12.827892
_cell_length_c	12.827885
_cell_angle_alpha	90.029786
_cell_angle_beta	89.969977
_cell_angle_gamma	89.989080
loop_
_atom_site_label
_atom_site_type_symbol
_atom_site_fract_x
_atom_site_fract_y
_atom_site_fract_z
Zn1	Zn	0.799350	0.416107	-0.591148
Zn2	Zn	0.799297	0.590884	-0.416409
Zn3	Zn	0.711915	0.416144	-0.416389
Zn4	Zn	0.711907	0.590793	-0.591076
O5	O	0.755617	0.503482	-0.503756
O6	O	0.872508	0.439314	-0.568007
O7	O	0.787687	0.567759	-0.270170
O8	O	0.723538	0.269903	-0.439594
O9	O	0.872470	0.567722	-0.439627
O10	O	0.787777	0.269876	-0.567988
O11	O	0.723487	0.439378	-0.270156
O12	O	0.638748	0.439289	-0.439523
O13	O	0.723526	0.567567	-0.737322
O14	O	0.638743	0.567603	-0.567865
O15	O	0.787770	0.439226	-0.737375
O16	O	0.787680	0.737108	-0.439556
O17	O	0.723474	0.737041	-0.567884
C18	C	0.619775	0.503441	-0.503685
C19	C	0.561661	0.503449	-0.503679
C20	C	0.755585	0.774992	-0.503737
C21	C	0.755619	0.891145	-0.503764
C22	C	0.755653	0.503382	-0.776326
C23	C	0.755668	0.503339	-0.892479
C24	C	0.201304	0.570407	-0.570520
C25	C	0.146699	0.570413	-0.570536
O26	O	0.118468	0.627292	-0.627306
N27	N	0.119378	0.503511	-0.503824
C28	C	0.146664	0.436590	-0.437098
O29	O	0.118412	0.379685	-0.380356
C30	C	0.201268	0.436580	-0.437088
C31	C	0.228586	0.503494	-0.503797
C32	C	0.228622	0.637315	-0.637224
C33	C	0.283223	0.637309	-0.637206
C34	C	0.310505	0.570396	-0.570483
C35	C	0.283186	0.503488	-0.503779
C36	C	0.228553	0.369655	-0.370368
C37	C	0.283160	0.369649	-0.370364
C38	C	0.310478	0.436563	-0.437073
C39	C	0.365069	0.436570	-0.437038
N40	N	0.392390	0.503472	-0.503750
C41	C	0.365108	0.570385	-0.570473
C42	C	0.031994	0.436617	-0.437126
C43	C	-0.022609	0.436632	-0.437131
C44	C	-0.022570	0.570454	-0.570570
C45	C	0.032034	0.570443	-0.570560
C46	C	0.059315	0.503519	-0.503839
C47	C	0.479773	0.570370	-0.570429
C48	C	0.534379	0.570362	-0.570402
C49	C	0.534335	0.436537	-0.436967
C50	C	0.479734	0.436548	-0.436989
C51	C	0.452455	0.503468	-0.503729
O52	O	0.393335	0.379717	-0.380300
O53	O	0.393368	0.627272	-0.627215
C54	C	0.891990	0.503524	-0.503827
C55	C	0.950104	0.503542	-0.503858
C56	C	0.755664	0.230912	-0.503797
C57	C	0.755685	0.114759	-0.503815
C58	C	0.787427	0.942929	-0.440334
C59	C	0.787463	1.062979	-0.440361
C60	C	0.787462	0.439819	-0.944290
C61	C	0.787478	0.439774	-1.064341
C62	C	0.755612	0.503507	-0.232246
C63	C	0.755698	0.503255	-0.116093
H64	H	0.556619	0.624855	-0.624726
N65	N	0.719630	0.575339	-0.951440
H66	H	0.698411	0.617736	-0.900371
H67	H	0.695468	0.532737	-0.996721
H68	H	0.457569	0.624860	-0.624777
H69	H	0.305461	0.691796	-0.691530
H70	H	0.814667	0.385468	-0.899771
H71	H	0.054273	0.624929	-0.624882
N72	N	0.199201	0.709499	-0.709186
H73	H	0.208730	0.693366	-0.783879
H74	H	0.208715	0.784107	-0.692721
N75	N	-0.052001	0.642627	-0.642539
H76	H	-0.090736	0.632473	-0.632420
H77	H	-0.042433	0.626448	-0.717199
H78	H	0.206319	0.315169	-0.316043
N79	N	0.719637	0.575282	-1.057077
H80	H	0.682278	0.559042	-1.076001
H81	H	0.727777	0.649936	-1.076024
H82	H	-0.044847	0.382155	-0.382799
N83	N	0.061420	0.364449	-0.365146
H84	H	0.084091	0.316063	-0.407686
H85	H	0.035793	0.322142	-0.322899
N86	N	0.823539	0.367740	-1.123348
H87	H	0.818440	0.377920	-1.200744
H88	H	0.815420	0.293093	-1.104333
N89	N	0.450261	0.364415	-0.365013
H90	H	0.427618	0.316036	-0.407554
H91	H	0.427621	0.406934	-0.316552
H92	H	0.556558	0.382061	-0.382639
H93	H	0.814635	0.898388	-0.386013
N94	N	0.312579	0.297457	-0.298399
H95	H	0.303049	0.313596	-0.223708
H96	H	0.351307	0.307629	-0.308592
N97	N	0.823532	1.121955	-0.368413
H98	H	0.818443	1.199355	-0.378626
H99	H	0.860873	1.102865	-0.384732
N100	N	0.719575	0.950138	-0.575718
H101	H	0.698342	0.899087	-0.618042
H102	H	0.740876	0.995356	-0.624096
H103	H	0.728448	1.070234	-0.558118
