data_functionalizedCrystal
_audit_creation_method	'MofGen! by Chris Wilmer'
_symmetry_space_group_name_H-M	'P1'
_symmetry_Int_Tables_number	1
_symmetry_cell_setting	triclinic
loop_
_symmetry_equiv_pos_as_xyz
  x,y,z
_cell_length_a	12.594517
_cell_length_b	12.594516
_cell_length_c	16.959447
_cell_angle_alpha	89.974854
_cell_angle_beta	89.984240
_cell_angle_gamma	90.015853
loop_
_atom_site_label
_atom_site_type_symbol
_atom_site_fract_x
_atom_site_fract_y
_atom_site_fract_z
Zn1	Zn	1.627208	-0.423727	-0.446967
Zn2	Zn	1.627117	-0.601734	-0.314801
Zn3	Zn	1.449230	-0.423769	-0.314802
Zn4	Zn	1.449195	-0.601663	-0.446936
O5	O	1.538187	-0.512723	-0.380877
O6	O	1.776142	-0.447352	-0.429448
O7	O	1.603496	-0.578174	-0.204190
O8	O	1.472892	-0.274818	-0.332347
O9	O	1.776075	-0.578133	-0.332346
O10	O	1.603652	-0.274787	-0.429449
O11	O	1.472803	-0.447424	-0.204191
O12	O	1.300279	-0.447355	-0.332317
O13	O	1.472832	-0.578012	-0.557551
O14	O	1.300253	-0.578053	-0.429395
O15	O	1.603618	-0.447283	-0.557574
O16	O	1.603462	-0.750670	-0.332315
O17	O	1.472743	-0.750618	-0.429395
C18	C	1.261646	-0.512702	-0.380853
C19	C	1.143341	-0.512718	-0.380862
C20	C	1.074071	-0.441535	-0.328162
C21	C	1.003262	-0.538623	-0.308722
C22	C	1.003350	-0.415678	-0.400315
C23	C	1.074091	-0.609858	-0.361385
C24	C	1.074185	-0.486847	-0.453011
C25	C	1.003408	-0.584002	-0.433599
C26	C	1.538118	-0.789264	-0.380869
C27	C	1.538185	-0.907570	-0.380892
C28	C	1.467080	-0.976833	-0.433656
C29	C	1.441156	-1.047697	-0.361530
C30	C	1.564206	-1.047505	-0.453030
C31	C	1.512210	-0.976875	-0.308728
C32	C	1.635305	-0.976677	-0.400276
C33	C	1.609418	-1.047509	-0.328101
C34	C	1.815808	-0.512745	-0.380900
C35	C	1.934114	-0.512755	-0.380911
C36	C	1.538232	-0.512635	-0.587045
C37	C	1.538250	-0.512598	-0.674901
C38	C	1.538286	-0.235102	-0.380902
C39	C	1.538329	-0.116797	-0.380912
C40	C	1.470283	-0.580550	-1.046368
C41	C	1.606472	-0.444421	-1.046387
C42	C	1.606444	-0.444443	-0.963841
C43	C	1.538335	-0.512521	-0.922555
C44	C	1.470255	-0.580577	-0.963814
C45	C	1.674530	-0.376397	-0.922575
C46	C	1.674505	-0.376417	-0.840024
C47	C	1.606391	-0.444491	-0.798736
C48	C	1.538307	-0.512548	-0.840001
C49	C	1.470199	-0.580626	-0.798715
C50	C	1.402109	-0.648679	-0.839978
C51	C	1.402140	-0.648650	-0.922526
C52	C	1.606359	-0.444520	-0.716188
C53	C	1.470170	-0.580653	-0.716161
C54	C	1.538204	-0.512734	-0.175510
C55	C	1.538392	-0.512472	-0.087654
H56	H	0.972577	-0.644285	-0.478187
N57	N	1.689155	-1.088360	-0.268947
H58	H	1.669419	-1.062529	-0.214511
H59	H	1.689183	-1.168544	-0.269667
N60	N	0.961996	-0.567649	-0.227933
H61	H	0.987188	-0.513487	-0.188216
H62	H	0.881823	-0.568739	-0.228867
N63	N	1.593283	-1.088601	-0.533828
H64	H	1.666063	-1.061659	-0.548875
H65	H	1.593735	-1.168784	-0.533058
H66	H	1.717351	-0.945461	-0.416690
N67	N	1.332456	-1.089033	-0.339810
H68	H	1.312305	-1.062234	-0.285718
H69	H	1.278807	-1.063328	-0.379734
N70	N	1.396825	-0.653926	-1.090865
H71	H	1.407165	-0.643576	-1.149425
H72	H	1.413342	-0.729955	-1.076434
N73	N	1.328720	-0.722040	-0.967046
H74	H	1.345212	-0.798098	-0.952674
H75	H	1.252697	-0.705418	-0.952674
H76	H	1.490164	-0.945978	-0.247712
N77	N	1.396692	-0.654064	-0.671633
H78	H	1.353562	-0.697162	-0.710300
H79	H	1.439976	-0.703344	-0.637373
N80	N	1.679810	-0.371143	-0.671689
H81	H	1.729102	-0.414431	-0.637442
H82	H	1.722893	-0.328043	-0.710427
N83	N	1.387286	-0.935713	-0.492667
H84	H	1.388273	-0.855525	-0.492595
H85	H	1.406173	-0.962582	-0.546989
N86	N	1.328648	-0.722110	-0.795452
H87	H	1.371876	-0.771450	-0.761198
H88	H	1.279346	-0.678785	-0.761250
H89	H	1.661929	-0.389001	-1.080007
H90	H	1.729987	-0.320978	-0.956196
N91	N	1.747940	-0.303022	-0.795522
H92	H	1.791090	-0.259893	-0.834203
H93	H	1.704618	-0.253771	-0.761281
N94	N	0.962189	-0.306957	-0.422092
H95	H	0.882003	-0.307946	-0.422450
H96	H	0.987967	-0.253297	-0.382211
H97	H	1.105098	-0.381396	-0.283540
H98	H	1.105034	-0.691963	-0.344884
H99	H	1.105361	-0.464912	-0.513987
