data_functionalizedCrystal
_audit_creation_method	'MofGen! by Chris Wilmer'
_symmetry_space_group_name_H-M	'P1'
_symmetry_Int_Tables_number	1
_symmetry_cell_setting	triclinic
loop_
_symmetry_equiv_pos_as_xyz
  x,y,z
_cell_length_a	21.395362
_cell_length_b	21.295417
_cell_length_c	21.395355
_cell_angle_alpha	90.020404
_cell_angle_beta	90.043940
_cell_angle_gamma	90.045579
loop_
_atom_site_label
_atom_site_type_symbol
_atom_site_fract_x
_atom_site_fract_y
_atom_site_fract_z
Zn1	Zn	0.957864	-0.250415	0.354577
Zn2	Zn	1.457864	0.249585	0.854577
Zn3	Zn	0.957768	-0.355667	0.249796
Zn4	Zn	1.457768	0.144333	0.749796
Zn5	Zn	0.853079	-0.250445	0.249779
Zn6	Zn	1.353079	0.249555	0.749779
Zn7	Zn	0.853050	-0.355680	0.354501
Zn8	Zn	1.353050	0.144320	0.854501
O9	O	0.905440	-0.303052	0.302163
O10	O	1.405440	0.196948	0.802163
O11	O	1.045529	-0.264359	0.340717
O12	O	1.545529	0.235641	0.840717
O13	O	0.943853	-0.341716	0.162116
O14	O	1.443853	0.158284	0.662116
O15	O	0.867031	-0.162351	0.263705
O16	O	1.367031	0.337649	0.763705
O17	O	1.045459	-0.341687	0.263735
O18	O	1.545459	0.158313	0.763735
O19	O	0.944016	-0.162330	0.340700
O20	O	1.444016	0.337670	0.840700
O21	O	0.866938	-0.264409	0.162103
O22	O	1.366938	0.235591	0.662103
O23	O	0.765397	-0.264422	0.263631
O24	O	1.265397	0.235578	0.763631
O25	O	0.866982	-0.341709	0.442189
O26	O	1.366982	0.158291	0.942189
O27	O	0.765376	-0.341738	0.340570
O28	O	1.265376	0.158262	0.840570
O29	O	0.943988	-0.264372	0.442245
O30	O	1.443988	0.235628	0.942245
O31	O	0.943825	-0.443758	0.263661
O32	O	1.443825	0.056242	0.763661
O33	O	0.866889	-0.443767	0.340587
O34	O	1.366889	0.056233	0.840587
C35	C	0.742652	-0.303085	0.302091
C36	C	1.242652	0.196915	0.802091
C37	C	0.673011	-0.303114	0.302074
C38	C	1.173011	0.196886	0.802074
C39	C	0.905360	-0.466603	0.302132
C40	C	1.405360	0.033397	0.802132
C41	C	0.905383	-0.536571	0.302139
C42	C	1.405383	-0.036571	0.802139
C43	C	0.640303	-0.343426	0.342077
C44	C	1.140303	0.156574	0.842077
C45	C	0.574868	-0.343411	0.342105
C46	C	1.074868	0.156589	0.842105
C47	C	0.542143	-0.303090	0.302119
C48	C	1.042143	0.196910	0.802119
C49	C	0.574859	-0.262771	0.262114
C50	C	1.074859	0.237229	0.762114
C51	C	0.640293	-0.262783	0.262092
C52	C	1.140293	0.237217	0.762092
C53	C	0.438418	-0.298019	0.245714
C54	C	0.938418	0.201981	0.745714
C55	C	0.372985	-0.298011	0.245735
C56	C	0.872985	0.201989	0.745735
C57	C	0.340322	-0.303049	0.302188
C58	C	0.840322	0.196951	0.802188
C59	C	0.373100	-0.308108	0.358622
C60	C	0.873100	0.191892	0.858622
C61	C	0.438534	-0.308120	0.358599
C62	C	0.938534	0.191880	0.858599
C63	C	0.471191	-0.303072	0.302139
C64	C	0.971191	0.196928	0.802139
C65	C	0.236662	-0.343346	0.342224
C66	C	0.736662	0.156654	0.842224
C67	C	0.171225	-0.343326	0.342253
C68	C	0.671225	0.156674	0.842253
C69	C	0.171217	-0.262690	0.262257
C70	C	0.671217	0.237310	0.762257
C71	C	0.236653	-0.262706	0.262234
C72	C	0.736653	0.237294	0.762234
C73	C	0.269371	-0.303038	0.302216
C74	C	0.769371	0.196962	0.802216
C75	C	0.945447	-0.569370	0.342259
C76	C	1.445447	-0.069370	0.842259
C77	C	0.945469	-0.635112	0.342275
C78	C	1.445469	-0.135112	0.842275
C79	C	0.905434	-0.668054	0.302159
C80	C	1.405434	-0.168054	0.802159
C81	C	0.865363	-0.635248	0.262036
C82	C	1.365363	-0.135248	0.762036
C83	C	0.865338	-0.569506	0.262026
C84	C	1.365338	-0.069506	0.762026
N85	N	0.900697	-0.771307	0.247324
N86	N	1.400697	-0.271307	0.747324
N87	N	0.900725	-0.833759	0.247335
N88	N	1.400725	-0.333759	0.747335
C89	C	0.905507	-0.866129	0.302187
C90	C	1.405507	-0.366129	0.802187
N91	N	0.910273	-0.833688	0.357029
N92	N	1.410273	-0.333688	0.857029
N93	N	0.910249	-0.771230	0.357017
N94	N	1.410249	-0.271230	0.857017
C95	C	0.905457	-0.739339	0.302165
C96	C	1.405457	-0.239339	0.802165
C97	C	0.945597	-0.970212	0.342327
C98	C	1.445597	-0.470212	0.842327
C99	C	0.945615	-1.035956	0.342344
C100	C	1.445615	-0.535956	0.842344
C101	C	0.865512	-1.036090	0.262100
C102	C	1.365512	-0.536090	0.762100
C103	C	0.865491	-0.970348	0.262089
C104	C	1.365491	-0.470348	0.762089
C105	C	0.905537	-0.937413	0.302202
C106	C	1.405537	-0.437413	0.802202
C107	C	1.068864	-0.303019	0.302237
C108	C	1.568864	0.196981	0.802237
C109	C	1.138505	-0.303005	0.302268
C110	C	1.638505	0.196995	0.802268
C111	C	0.905492	-0.303039	0.465587
C112	C	1.405492	0.196961	0.965587
C113	C	0.905514	-0.303033	0.535228
C114	C	1.405514	0.196967	1.035228
C115	C	0.905537	-0.138861	0.302209
C116	C	1.405537	0.361139	0.802209
C117	C	0.905579	-0.068893	0.302228
C118	C	1.405579	0.431107	0.802228
C119	C	0.905424	-0.303019	0.139376
C120	C	1.405424	0.196981	0.639376
C121	C	0.905524	-0.302847	0.069735
C122	C	1.405524	0.197153	0.569735
C123	C	0.945610	-0.262762	0.567971
C124	C	1.445610	0.237238	1.067971
C125	C	0.945609	-0.262735	0.633407
C126	C	1.445609	0.237265	1.133407
C127	C	0.905519	-0.302991	0.666096
C128	C	1.405519	0.197009	1.166096
C129	C	0.865416	-0.343265	0.633345
C130	C	1.365416	0.156735	1.133345
C131	C	0.865413	-0.343286	0.567911
C132	C	1.365413	0.156714	1.067911
C133	C	0.900544	-0.359672	0.769758
C134	C	1.400544	0.140328	1.269758
C135	C	0.900551	-0.359652	0.835191
C136	C	1.400551	0.140348	1.335191
C137	C	0.905523	-0.302924	0.867917
C138	C	1.405523	0.197076	1.367917
C139	C	0.910501	-0.246215	0.835202
C140	C	1.410501	0.253785	1.335202
C141	C	0.910499	-0.246237	0.769768
C142	C	1.410499	0.253763	1.269768
C143	C	0.905517	-0.302971	0.737049
C144	C	1.405517	0.197029	1.237049
C145	C	0.945620	-0.262620	0.971613
C146	C	1.445620	0.237380	1.471613
C147	C	0.945615	-0.262592	1.037050
C148	C	1.445615	0.237408	1.537050
C149	C	0.865425	-0.343127	1.036987
C150	C	1.365425	0.156873	1.536987
C151	C	0.865427	-0.343150	0.971552
C152	C	1.365427	0.156850	1.471552
C153	C	0.905528	-0.302897	0.938869
C154	C	1.405528	0.197103	1.438869
H155	H	0.548232	-0.376237	0.374682
H156	H	1.048232	0.123763	0.874682
H157	H	0.346302	-0.293896	0.199784
H158	H	0.846302	0.206104	0.699784
H159	H	0.978269	-0.229840	0.945001
H160	H	1.478269	0.270160	1.445001
H161	H	0.832760	-0.376079	0.541252
H162	H	1.332760	0.123921	1.041252
C163	C	0.989541	-0.671201	0.386405
C164	C	1.489541	-0.171201	0.886405
H165	H	0.983817	-0.715071	0.380667
H166	H	1.483817	-0.215071	0.880667
H167	H	1.031638	-0.660382	0.377284
H168	H	1.531638	-0.160382	0.877284
H169	H	0.980346	-0.660419	0.428493
H170	H	1.480346	-0.160419	0.928493
H171	H	0.832871	-0.943642	0.229417
H172	H	1.332871	-0.443642	0.729417
H173	H	0.465220	-0.312237	0.404549
H174	H	0.965220	0.187763	0.904549
H175	H	0.914551	-0.200022	0.861846
H176	H	1.414551	0.299978	1.361846
C177	C	0.989488	-0.533142	0.386386
C178	C	1.489488	-0.033142	0.886386
H179	H	0.983740	-0.489290	0.380632
H180	H	1.483740	0.010710	0.880632
H181	H	0.980304	-0.543907	0.428473
H182	H	1.480304	-0.043907	0.928473
H183	H	1.031597	-0.543870	0.377265
H184	H	1.531597	-0.043870	0.877265
C185	C	0.135246	-0.387680	0.386249
C186	C	0.635246	0.112320	0.886249
H187	H	0.164106	-0.411707	0.410049
H188	H	0.664106	0.088293	0.910049
H189	H	0.109771	-0.363647	0.413608
H190	H	0.609771	0.136353	0.913608
H191	H	0.109671	-0.415064	0.362226
H192	H	0.609671	0.084936	0.862226
C193	C	0.821269	-0.533424	0.217892
C194	C	1.321269	-0.033424	0.717892
H195	H	0.826986	-0.489554	0.223634
H196	H	1.326986	0.010446	0.723634
H197	H	0.830460	-0.544209	0.175807
H198	H	1.330460	-0.044209	0.675807
H199	H	0.779169	-0.544241	0.227017
H200	H	1.279169	-0.044241	0.727017
H201	H	0.832911	-1.062911	0.229441
H202	H	1.332911	-0.562911	0.729441
C203	C	0.989714	-0.218481	0.532023
C204	C	1.489714	0.281519	1.032023
H205	H	1.013590	-0.194489	0.560900
H206	H	1.513590	0.305511	1.060900
H207	H	1.016998	-0.242563	0.506515
H208	H	1.516998	0.257437	1.006515
H209	H	0.965758	-0.191062	0.506483
H210	H	1.465758	0.308938	1.006483
H211	H	0.978202	-0.943396	0.374992
H212	H	1.478202	-0.443396	0.874992
C213	C	0.989721	-0.218440	0.669432
C214	C	1.489721	0.281560	1.169432
H215	H	1.013605	-0.194474	0.640595
H216	H	1.513605	0.305526	1.140595
H217	H	0.965776	-0.191007	0.694945
H218	H	1.465776	0.308993	1.194945
H219	H	1.017005	-0.242518	0.694973
H220	H	1.517005	0.257482	1.194973
H221	H	0.914551	-0.200062	0.743134
H222	H	1.414551	0.299938	1.243134
C223	C	0.821321	-0.387547	0.669301
C224	C	1.321321	0.112453	1.169301
H225	H	0.827070	-0.381772	0.712961
H226	H	1.327070	0.118228	1.212961
H227	H	0.779228	-0.378349	0.658550
H228	H	1.279228	0.121651	1.158550
H229	H	0.830471	-0.429846	0.658580
H230	H	1.330471	0.070154	1.158580
H231	H	0.896501	-0.405828	0.861823
H232	H	1.396501	0.094172	1.361823
C233	C	0.895075	-0.422075	0.733763
C234	C	1.395075	0.077925	1.233763
H235	H	0.895780	-0.413966	0.690108
H236	H	1.395780	0.086034	1.190108
H237	H	0.929143	-0.448543	0.744511
H238	H	1.429143	0.051457	1.244511
H239	H	0.856916	-0.442207	0.744458
H240	H	1.356916	0.057793	1.244458
C241	C	0.989723	-0.218292	1.073068
C242	C	1.489723	0.281708	1.573068
H243	H	1.013607	-0.194328	1.044229
H244	H	1.513607	0.305672	1.544229
H245	H	0.965776	-0.190857	1.098576
H246	H	1.465776	0.309143	1.598576
H247	H	1.017008	-0.242365	1.098613
H248	H	1.517008	0.257635	1.598613
H249	H	0.978239	-1.062659	0.375017
H250	H	1.478239	-0.562659	0.875017
C251	C	0.821328	-0.387453	0.935529
C252	C	1.321328	0.112547	1.435529
H253	H	0.827065	-0.381697	0.891878
H254	H	1.327065	0.118303	1.391878
H255	H	0.830471	-0.429743	0.946258
H256	H	1.330471	0.070257	1.446258
H257	H	0.779234	-0.378241	0.946222
H258	H	1.279234	0.121759	1.446222
C259	C	0.676290	-0.387782	0.386063
C260	C	1.176290	0.112218	0.886063
H261	H	0.647435	-0.411784	0.409895
H262	H	1.147435	0.088216	0.909895
H263	H	0.701766	-0.415179	0.362040
H264	H	1.201766	0.084821	0.862040
H265	H	0.701866	-0.363741	0.413401
H266	H	1.201866	0.136259	0.913401
H267	H	0.263303	-0.376183	0.374784
H268	H	0.763303	0.123817	0.874784
H269	H	0.548210	-0.229940	0.229559
H270	H	1.048210	0.270060	0.729559
C271	C	0.821331	-0.387411	1.072938
C272	C	1.321331	0.112589	1.572938
H273	H	0.827078	-0.381635	1.116598
H274	H	1.327078	0.118365	1.616598
H275	H	0.779237	-0.378217	1.062185
H276	H	1.279237	0.121783	1.562185
H277	H	0.830484	-0.429709	1.062218
H278	H	1.330484	0.070291	1.562218
H279	H	0.346508	-0.312209	0.404591
H280	H	0.846508	0.187791	0.904591
H281	H	0.144573	-0.229857	0.229703
H282	H	0.644573	0.270143	0.729703
H283	H	0.263284	-0.229883	0.229656
H284	H	0.763284	0.270117	0.729656
H285	H	0.666923	-0.229954	0.229517
H286	H	1.166923	0.270046	0.729517
C287	C	0.474341	-0.292442	0.183615
C288	C	0.974341	0.207558	0.683615
H289	H	0.445450	-0.289427	0.150010
H290	H	0.945450	0.210573	0.650010
H291	H	0.499891	-0.255951	0.184508
H292	H	0.999891	0.244049	0.684508
H293	H	0.499837	-0.328508	0.178013
H294	H	0.999837	0.171492	0.678013
C295	C	0.821328	-0.671481	0.217909
C296	C	1.321328	-0.171481	0.717909
H297	H	0.827085	-0.715332	0.223656
H298	H	1.327085	-0.215332	0.723656
H299	H	0.779221	-0.660754	0.227023
H300	H	1.279221	-0.160754	0.727023
H301	H	0.830518	-0.660716	0.175819
H302	H	1.330518	-0.160716	0.675819
