data_functionalizedCrystal
_audit_creation_method	'MofGen! by Chris Wilmer'
_symmetry_space_group_name_H-M	'P1'
_symmetry_Int_Tables_number	1
_symmetry_cell_setting	triclinic
loop_
_symmetry_equiv_pos_as_xyz
  x,y,z
_cell_length_a	11.792241
_cell_length_b	10.268362
_cell_length_c	11.792254
_cell_angle_alpha	89.998485
_cell_angle_beta	84.196007
_cell_angle_gamma	90.000220
loop_
_atom_site_label
_atom_site_type_symbol
_atom_site_fract_x
_atom_site_fract_y
_atom_site_fract_z
O1	O	-1.506917	0.108155	-0.155561
O2	O	-1.256917	0.358155	0.094439
O3	O	-1.006917	0.608155	0.344439
O4	O	-0.756917	0.858155	0.594439
O5	O	-1.176576	0.108190	-0.171594
O6	O	-0.926576	0.358190	0.078406
O7	O	-0.676576	0.608190	0.328406
O8	O	-0.426576	0.858190	0.578406
O9	O	-1.349755	0.108162	0.001592
O10	O	-1.099755	0.358162	0.251592
O11	O	-0.849755	0.608162	0.501592
O12	O	-0.599755	0.858162	0.751592
O13	O	-1.333737	0.108182	-0.328747
O14	O	-1.083737	0.358182	-0.078747
O15	O	-0.833737	0.608182	0.171253
O16	O	-0.583737	0.858182	0.421253
O17	O	-1.349739	-0.108438	0.001586
O18	O	-1.099739	0.141562	0.251586
O19	O	-0.849739	0.391562	0.501586
O20	O	-0.599739	0.641562	0.751586
O21	O	-1.176560	-0.108411	-0.171600
O22	O	-0.926560	0.141589	0.078400
O23	O	-0.676560	0.391589	0.328400
O24	O	-0.426560	0.641589	0.578400
O25	O	-1.506900	-0.108446	-0.155567
O26	O	-1.256900	0.141554	0.094433
O27	O	-1.006900	0.391554	0.344433
O28	O	-0.756900	0.641554	0.594433
Cu29	Cu	-1.341728	-0.128206	-0.163584
Cu30	Cu	-1.091728	0.121794	0.086416
Cu31	Cu	-0.841728	0.371794	0.336416
Cu32	Cu	-0.591728	0.621794	0.586416
Cu33	Cu	-1.341748	0.127950	-0.163577
Cu34	Cu	-1.091748	0.377950	0.086423
Cu35	Cu	-0.841748	0.627950	0.336423
Cu36	Cu	-0.591748	0.877950	0.586423
O37	O	-1.333721	-0.108418	-0.328753
O38	O	-1.083721	0.141582	-0.078753
O39	O	-0.833721	0.391582	0.171247
O40	O	-0.583721	0.641582	0.421247
C41	C	-1.134277	-0.000106	-0.170590
C42	C	-0.884277	0.249894	0.079410
C43	C	-0.634277	0.499894	0.329410
C44	C	-0.384277	0.749894	0.579410
C45	C	-1.008263	-0.000093	-0.167576
C46	C	-0.758263	0.249907	0.082424
C47	C	-0.508263	0.499907	0.332424
C48	C	-0.258263	0.749907	0.582424
N49	N	-1.341723	-0.308372	-0.163588
N50	N	-1.091723	-0.058372	0.086412
N51	N	-0.841723	0.191628	0.336412
N52	N	-0.591723	0.441628	0.586412
C53	C	-1.341731	-0.426214	-0.163589
C54	C	-1.091731	-0.176214	0.086411
C55	C	-0.841731	0.073786	0.336411
C56	C	-0.591731	0.323786	0.586411
C57	C	-1.341745	-0.574052	-0.163579
C58	C	-1.091745	-0.324052	0.086421
C59	C	-0.841745	-0.074052	0.336421
C60	C	-0.591745	0.175948	0.586421
C61	C	-0.777551	-0.000128	-0.162033
C62	C	-0.527551	0.249872	0.087967
C63	C	-0.277551	0.499872	0.337967
C64	C	-0.027551	0.749872	0.587967
C65	C	-0.905936	-0.000109	-0.165112
C66	C	-0.655936	0.249891	0.084888
C67	C	-0.405936	0.499891	0.334888
C68	C	-0.155936	0.749891	0.584888
C69	C	-0.549199	-0.000144	-0.156571
C70	C	-0.299199	0.249856	0.093429
C71	C	-0.049199	0.499856	0.343429
C72	C	0.200801	0.749856	0.593429
C73	C	-0.675213	-0.000138	-0.159586
C74	C	-0.425213	0.249862	0.090414
C75	C	-0.175213	0.499862	0.340414
C76	C	0.074787	0.749862	0.590414
C77	C	-1.348738	-0.000138	0.043880
C78	C	-1.098738	0.249862	0.293880
C79	C	-0.848738	0.499862	0.543880
C80	C	-0.598738	0.749862	0.793880
C81	C	-1.345718	-0.000136	0.169893
C82	C	-1.095718	0.249864	0.419893
C83	C	-0.845718	0.499864	0.669893
C84	C	-0.595718	0.749864	0.919893
N85	N	-1.341762	0.308115	-0.163564
N86	N	-1.091762	0.558115	0.086436
N87	N	-0.841762	0.808115	0.336436
N88	N	-0.591762	1.058115	0.586436
C89	C	-1.334738	-0.000116	-0.371041
C90	C	-1.084738	0.249884	-0.121041
C91	C	-0.834738	0.499884	0.128959
C92	C	-0.584738	0.749884	0.378959
C93	C	-1.337758	-0.000109	-0.497054
C94	C	-1.087758	0.249891	-0.247054
C95	C	-0.837758	0.499891	0.002946
C96	C	-0.587758	0.749891	0.252946
C97	C	-1.343264	-0.000131	0.272229
C98	C	-1.093264	0.249869	0.522229
C99	C	-0.843264	0.499869	0.772229
C100	C	-0.593264	0.749869	1.022229
C101	C	-1.340196	-0.000119	0.400616
C102	C	-1.090196	0.249881	0.650616
C103	C	-0.840196	0.499881	0.900616
C104	C	-0.590196	0.749881	1.150616
