data_functionalizedCrystal
_audit_creation_method	'MofGen! by Chris Wilmer'
_symmetry_space_group_name_H-M	'P1'
_symmetry_Int_Tables_number	1
_symmetry_cell_setting	triclinic
loop_
_symmetry_equiv_pos_as_xyz
  x,y,z
_cell_length_a	31.640172
_cell_length_b	14.560438
_cell_length_c	31.640172
_cell_angle_alpha	89.995537
_cell_angle_beta	60.000198
_cell_angle_gamma	59.999297
loop_
_atom_site_label
_atom_site_type_symbol
_atom_site_fract_x
_atom_site_fract_y
_atom_site_fract_z
Zr1	Zr	0.462543	-0.120548	0.407240
O2	O	0.550716	-0.267186	0.339763
O3	O	0.374375	-0.075597	0.427917
O4	O	0.462540	-0.267196	0.427929
O5	O	0.462552	0.075551	0.339752
O6	O	0.462533	-0.267202	0.497485
O7	O	0.462551	-0.075587	0.339752
O8	O	0.304821	0.075533	0.497464
O9	O	0.620263	-0.267185	0.339773
O10	O	0.410633	-0.056429	0.488655
O11	O	0.410639	0.056368	0.436746
O12	O	0.514442	-0.169215	0.436760
O13	O	0.514449	-0.056417	0.384851
Zr14	Zr	0.462534	0.120490	0.518175
Zr15	Zr	0.462532	-0.120558	0.518175
Zr16	Zr	0.462545	0.120500	0.407241
Zr17	Zr	0.573464	-0.120546	0.407256
Zr18	Zr	0.351614	0.120487	0.518160
O19	O	0.550702	0.075539	0.497498
O20	O	0.550700	-0.267200	0.497497
O21	O	0.550719	0.075553	0.339764
O22	O	0.374361	0.267128	0.585652
O23	O	0.374359	-0.075611	0.585651
O24	O	0.374378	0.267142	0.427918
O25	O	0.462525	-0.075609	0.585664
O26	O	0.462537	0.267138	0.497487
O27	O	0.462544	0.267144	0.427930
O28	O	0.462527	0.075529	0.585664
O29	O	0.620254	-0.267192	0.427951
O30	O	0.304823	0.267134	0.497465
O31	O	0.304814	0.267127	0.585643
O32	O	0.304812	0.075525	0.585642
O33	O	0.620265	-0.075584	0.339773
O34	O	0.620256	-0.075591	0.427951
O35	O	0.410635	0.169157	0.488656
O36	O	0.410629	0.056359	0.540564
O37	O	0.514438	-0.056426	0.488669
O38	O	0.514444	0.056371	0.436761
C39	C	0.323794	-0.000032	0.462689
C40	C	0.276706	-0.000034	0.462682
C41	C	0.462553	-0.000017	0.323946
C42	C	0.462558	-0.000013	0.276852
C43	C	0.462541	0.301485	0.462709
C44	C	0.462542	0.403817	0.462709
C45	C	-0.015339	-0.058898	0.489814
C46	C	-0.192335	-0.058897	0.489825
O47	O	-0.215243	-0.108931	0.512888
N48	N	-0.214461	-0.000020	0.462728
C49	C	-0.192338	0.058867	0.435630
O50	O	-0.215223	0.108954	0.412587
C51	C	-0.015346	0.058872	0.435623
C52	C	0.006782	-0.000018	0.462717
C53	C	0.006788	-0.117782	0.516906
C54	C	0.051037	-0.117786	0.516901
C55	C	0.073158	-0.058907	0.489804
C56	C	0.051030	-0.000023	0.462711
C57	C	0.006773	0.117765	0.408528
C58	C	0.051023	0.117763	0.408529
C59	C	0.073151	0.058873	0.435623
C60	C	0.117400	0.058852	0.435609
N61	N	0.139526	-0.000025	0.462705
C62	C	0.117405	-0.058904	0.489803
C63	C	-0.285260	0.058858	0.435635
C64	C	-0.329507	0.058855	0.435636
C65	C	-0.329502	-0.058907	0.489832
C66	C	-0.285251	-0.058910	0.489827
C67	C	-0.263135	-0.000019	0.462731
C68	C	0.210330	-0.058910	0.489789
C69	C	0.254585	-0.058913	0.489780
C70	C	0.254573	0.058853	0.435587
C71	C	0.210325	0.058852	0.435593
C72	C	0.188203	-0.000032	0.462699
O73	O	0.140330	0.108870	0.412563
O74	O	0.140288	-0.108964	0.512851
C75	C	-0.059588	-0.058893	0.489819
C76	C	-0.081715	-0.000009	0.462727
C77	C	-0.059594	0.058871	0.435630
C78	C	-0.125962	-0.000012	0.462728
C79	C	-0.148084	-0.058891	0.489826
C80	C	-0.125958	-0.117768	0.516922
C81	C	-0.081709	-0.117773	0.516917
C82	C	-0.081720	0.117747	0.408533
C83	C	-0.125968	0.117746	0.408540
C84	C	-0.148089	0.058866	0.435638
C85	C	0.601283	-0.000026	0.462727
C86	C	0.648371	-0.000025	0.462733
C87	C	0.462536	-0.301543	0.462707
C88	C	0.462536	-0.403875	0.462707
C89	C	0.516728	0.393022	0.435621
C90	C	0.516725	0.489177	0.435618
C91	C	0.408345	0.606918	0.489796
C92	C	0.408348	0.510764	0.489795
C93	C	0.462527	-0.083290	-0.015154
C94	C	0.462520	-0.083298	-0.192141
O95	O	0.462493	-0.154083	-0.215013
N96	N	0.462522	-0.000036	-0.214271
C97	C	0.462521	0.083238	-0.192150
O98	O	0.462517	0.154064	-0.215031
C99	C	0.462525	0.083250	-0.015162
C100	C	0.462529	-0.000024	0.006963
C101	C	0.462531	-0.166557	0.006971
C102	C	0.462536	-0.166557	0.051214
C103	C	0.462537	-0.083291	0.073331
C104	C	0.462534	-0.000025	0.051205
C105	C	0.462520	0.166528	0.006960
C106	C	0.462519	0.166526	0.051210
C107	C	0.462524	0.083251	0.073335
C108	C	0.462541	0.083241	0.117564
N109	N	0.462539	-0.000021	0.139695
C110	C	0.462537	-0.083287	0.117578
C111	C	0.462521	0.083225	-0.285072
C112	C	0.462521	0.083221	-0.329319
C113	C	0.462518	-0.083315	-0.329306
C114	C	0.462522	-0.083315	-0.285060
C115	C	0.462519	-0.000037	-0.262941
C116	C	0.462549	-0.083283	0.210490
C117	C	0.462556	-0.083279	0.254735
C118	C	0.462556	0.083260	0.254719
C119	C	0.462551	0.083253	0.210477
C120	C	0.462546	-0.000024	0.188364
O121	O	0.462561	0.153996	0.140468
O122	O	0.462529	-0.154089	0.140474
C123	C	0.462522	-0.083290	-0.059396
C124	C	0.462519	-0.000023	-0.081522
C125	C	0.462520	0.083243	-0.059405
C126	C	0.462519	-0.000027	-0.125769
C127	C	0.462517	-0.083293	-0.147886
C128	C	0.462515	-0.166555	-0.125756
C129	C	0.462520	-0.166556	-0.081513
C130	C	0.462522	0.166505	-0.081536
C131	C	0.462518	0.166499	-0.125778
C132	C	0.462516	0.083232	-0.147895
C133	C	0.462524	-0.000041	0.601470
C134	C	0.462520	-0.000045	0.648564
C135	C	0.323780	-0.000045	0.601450
C136	C	0.276687	-0.000050	0.648538
C137	C	0.323797	0.301482	0.462689
C138	C	0.276709	0.403812	0.462683
C139	C	0.323782	0.301470	0.601451
C140	C	0.276690	0.403796	0.648539
C141	C	0.601295	-0.301528	0.323964
C142	C	0.648387	-0.403854	0.276876
C143	C	0.601297	-0.000014	0.323965
C144	C	0.648391	-0.000008	0.276877
C145	C	0.601281	-0.301540	0.462726
C146	C	0.648368	-0.403870	0.462732
C147	C	0.254573	-0.058937	0.643555
C148	C	0.210330	-0.058964	0.687795
C149	C	0.188198	-0.000098	0.737018
C150	C	0.210316	0.058791	0.742000
C151	C	0.254561	0.058811	0.697760
C152	C	0.254594	0.510752	0.489776
C153	C	0.210356	0.606911	0.489769
C154	C	0.188231	0.596128	0.462670
C155	C	0.210351	0.489177	0.435574
C156	C	0.254591	0.393020	0.435579
C157	C	0.254571	0.392970	0.697753
C158	C	0.210329	0.489107	0.742002
C159	C	0.188203	0.596068	0.737036
C160	C	0.210326	0.606892	0.687817
C161	C	0.254570	0.510756	0.643569
C162	C	0.670511	-0.393028	0.227663
C163	C	0.714767	-0.489165	0.183414
C164	C	0.736896	-0.596127	0.188380
C165	C	0.714770	-0.606950	0.237599
C166	C	0.670518	-0.510814	0.281846
C167	C	0.670508	0.058869	0.281860
C168	C	0.714764	0.058869	0.237620
C169	C	0.736897	-0.000001	0.188398
C170	C	0.714778	-0.058885	0.183416
C171	C	0.670526	-0.058892	0.227655
C172	C	0.670479	-0.393051	0.489836
C173	C	0.714717	-0.489192	0.489852
C174	C	0.736847	-0.596151	0.462761
C175	C	0.714732	-0.606967	0.435657
C176	C	0.670491	-0.510828	0.435644
H177	H	0.272601	-0.106872	0.511843
Br178	Br	0.284597	0.247891	0.398808
H179	H	0.462519	0.151041	-0.267066
Br180	Br	0.744723	-0.474485	0.526637
Br181	Br	0.462514	0.279549	-0.023058
Br182	Br	0.180291	0.752063	0.681086
H183	H	-0.347520	-0.106851	0.511895
H184	H	0.652497	-0.305943	0.223609
H185	H	0.272594	0.106788	0.413523
H186	H	0.772870	-0.674425	0.462775
H187	H	0.152176	0.674339	0.773069
H188	H	0.462515	0.234343	0.069218
Br189	Br	-0.359522	0.138758	0.398854
H190	H	0.152208	0.674434	0.462670
Br191	Br	0.180318	0.474562	0.398800
Br192	Br	0.744776	-0.752135	0.398888
H193	H	-0.063696	-0.165726	0.538979
H194	H	0.652494	-0.519653	0.413571
H195	H	0.272573	0.519586	0.603499
Br196	Br	0.590276	0.247882	0.398860
H197	H	0.772929	-0.674397	0.152347
H198	H	0.732793	-0.694050	0.241636
Br199	Br	-0.023222	-0.197707	0.553684
H200	H	0.364222	0.694004	0.511849
Br201	Br	0.590268	0.474520	0.398846
H202	H	-0.267257	0.106818	0.413569
H203	H	0.364220	0.519562	0.511853
Br204	Br	0.796954	0.000020	0.128363
H205	H	0.192321	0.480274	0.782074
Br206	Br	0.284593	0.247820	0.704507
Br207	Br	0.744784	-0.474450	0.116624
Br208	Br	0.462565	-0.196305	0.284758
Br209	Br	0.640482	0.138769	0.348657
Br210	Br	0.180313	-0.138820	0.526577
H211	H	0.192328	-0.106918	0.683729
Br212	Br	0.128150	-0.000137	0.797053
H213	H	0.462543	-0.151093	0.192491
Br214	Br	0.284564	0.138744	0.704533
Br215	Br	0.640495	-0.525527	0.348635
H216	H	0.652468	-0.305969	0.511897
Br217	Br	0.284607	0.525417	0.526560
Br218	Br	0.744772	0.138792	0.244394
H219	H	0.192289	0.106718	0.782083
H220	H	0.462537	-0.234364	0.069227
H221	H	0.192351	0.693985	0.511836
H222	H	0.732806	-0.106815	0.143333
Br223	Br	0.462527	-0.279577	-0.051493
Br224	Br	0.640512	-0.138798	0.220883
Br225	Br	0.462528	-0.196333	-0.255038
H226	H	0.069049	-0.165736	0.538965
Br227	Br	0.081034	0.197695	0.371756
Br228	Br	-0.255226	-0.138834	0.526599
Br229	Br	0.462516	-0.196318	-0.359331
H230	H	0.192315	0.106790	0.413524
Br231	Br	-0.023247	0.197694	0.371756
Br232	Br	-0.155985	-0.197682	0.553694
H233	H	-0.143977	0.165698	0.386472
H234	H	-0.063715	0.165698	0.386468
H235	H	0.462527	-0.234363	-0.011031
Br236	Br	0.462530	0.196224	-0.359349
Br237	Br	0.462557	0.196258	0.180445
H238	H	0.462517	-0.234357	-0.143772
Br239	Br	0.462560	0.196257	0.284741
H240	H	0.462519	0.234309	-0.143792
H241	H	0.272593	-0.106887	0.603480
H242	H	0.462522	0.234312	-0.063531
