data_functionalizedCrystal
_audit_creation_method	'MofGen! by Chris Wilmer'
_symmetry_space_group_name_H-M	'P1'
_symmetry_Int_Tables_number	1
_symmetry_cell_setting	triclinic
loop_
_symmetry_equiv_pos_as_xyz
  x,y,z
_cell_length_a	14.971506
_cell_length_b	13.262508
_cell_length_c	14.048226
_cell_angle_alpha	105.911903
_cell_angle_beta	89.993237
_cell_angle_gamma	84.044748
loop_
_atom_site_label
_atom_site_type_symbol
_atom_site_fract_x
_atom_site_fract_y
_atom_site_fract_z
O1	O	1.187318	0.136879	-0.043726
O2	O	1.687318	0.636879	0.456274
O3	O	0.926965	0.153237	-0.039491
O4	O	1.426965	0.653237	0.460509
O5	O	1.063695	-0.007720	-0.081160
O6	O	1.563695	0.492280	0.418840
O7	O	1.050588	0.297836	-0.002056
O8	O	1.550588	0.797836	0.497944
O9	O	1.063678	-0.007729	0.077159
O10	O	1.563678	0.492271	0.577159
O11	O	0.926949	0.153227	0.118828
O12	O	1.426949	0.653227	0.618828
O13	O	1.187301	0.136870	0.114593
O14	O	1.687301	0.636870	0.614593
Zn15	Zn	1.057122	0.145047	0.141847
Zn16	Zn	1.557122	0.645047	0.641847
Zn17	Zn	1.057144	0.145060	-0.066745
Zn18	Zn	1.557144	0.645060	0.433255
O19	O	1.050572	0.297827	0.156263
O20	O	1.550572	0.797827	0.656263
C21	C	0.893631	0.152497	0.039478
C22	C	1.393631	0.652497	0.539478
C23	C	0.794328	0.150293	0.038908
C24	C	1.294328	0.650293	0.538908
C25	C	1.062953	-0.046828	-0.012126
C26	C	1.562953	0.453172	0.487874
C27	C	1.060758	-0.163345	-0.042297
C28	C	1.560758	0.336655	0.457703
C29	C	0.356286	0.236443	0.061201
C30	C	0.856286	0.736443	0.561201
C31	C	0.449592	0.238505	0.061731
C32	C	0.949592	0.738505	0.561731
C33	C	0.506548	0.143937	0.037253
C34	C	1.006548	0.643937	0.537253
C35	C	0.470194	0.047300	0.012233
C36	C	0.970194	0.547300	0.512233
C37	C	0.376890	0.045239	0.011697
C38	C	0.876890	0.545239	0.511697
C39	C	0.664669	0.051603	0.013355
C40	C	1.164669	0.551603	0.513355
C41	C	0.757980	0.053664	0.013893
C42	C	1.257980	0.553664	0.513893
C43	C	0.737371	0.244869	0.063389
C44	C	1.237371	0.744869	0.563389
C45	C	0.644067	0.242808	0.062853
C46	C	1.144067	0.742808	0.562853
C47	C	0.607720	0.146171	0.037835
C48	C	1.107720	0.646171	0.537835
C49	C	1.054528	-0.491820	0.217867
C50	C	1.554528	0.008180	0.717867
C51	C	1.056584	-0.382346	0.246215
C52	C	1.556584	0.117654	0.746215
C53	C	1.057628	-0.327590	0.174089
C54	C	1.557628	0.172410	0.674089
C55	C	1.056615	-0.382320	0.073611
C56	C	1.556615	0.117680	0.573611
C57	C	1.054552	-0.491803	0.045261
C58	C	1.554552	0.008197	0.545261
C59	C	1.057651	-0.327574	0.001483
C60	C	1.557651	0.172426	0.501483
C61	C	1.056639	-0.382303	-0.098995
C62	C	1.556639	0.117697	0.401005
C63	C	1.054576	-0.491776	-0.127341
C64	C	1.554576	0.008224	0.372659
C65	C	1.053532	-0.546532	-0.055215
C66	C	1.553532	-0.046532	0.444785
C67	C	1.059715	-0.218090	0.029834
C68	C	1.559715	0.281910	0.529834
C69	C	1.059738	-0.218073	-0.142773
C70	C	1.559738	0.281927	0.357227
C71	C	1.057683	-0.327548	-0.171121
C72	C	1.557683	0.172452	0.328879
C73	C	1.220636	0.137610	0.035622
C74	C	1.720636	0.637610	0.535622
C75	C	1.319938	0.139814	0.036187
C76	C	1.819938	0.639814	0.536187
C77	C	1.051313	0.336935	0.087227
C78	C	1.551313	0.836935	0.587227
C79	C	1.053509	0.453452	0.117391
C80	C	1.553509	0.953452	0.617391
N81	N	1.057114	0.145038	0.284206
N82	N	1.557114	0.645038	0.784206
N83	N	1.057159	0.145061	-0.209105
N84	N	1.557159	0.645061	0.290895
C85	C	1.117677	0.073796	0.315580
C86	C	1.617677	0.573796	0.815580
C87	C	1.117683	0.073795	0.415238
C88	C	1.617683	0.573795	0.915238
C89	C	1.057130	0.145043	0.483520
C90	C	1.557130	0.645043	0.983520
C91	C	0.996560	0.216288	0.452140
C92	C	1.496560	0.716288	0.952140
C93	C	0.996551	0.216283	0.352483
C94	C	1.496551	0.716283	0.852483
C95	C	0.996586	0.216296	0.659856
C96	C	1.496586	0.716296	1.159856
C97	C	0.996597	0.216303	0.759520
C98	C	1.496597	0.716303	1.259520
C99	C	1.117718	0.073808	0.722611
C100	C	1.617718	0.573808	1.222611
C101	C	1.117709	0.073803	0.622954
C102	C	1.617709	0.573803	1.122954
C103	C	1.057140	0.145050	0.591581
C104	C	1.557140	0.645050	1.091581
H105	H	0.309918	0.313452	0.081141
H106	H	0.809918	0.813452	0.581141
H107	H	1.060531	-0.173539	0.111644
H108	H	1.560531	0.326461	0.611644
N109	N	0.931273	0.293132	0.833164
N110	N	1.431273	0.793132	1.333164
H111	H	0.940474	0.282323	0.901057
H112	H	1.440474	0.782323	1.401057
H113	H	0.941862	0.367616	0.835021
H114	H	1.441862	0.867616	1.335021
N115	N	0.931256	0.293134	0.626013
N116	N	1.431256	0.793134	1.126013
H117	H	0.892899	0.338273	0.684391
H118	H	1.392899	0.838273	1.184391
H119	H	0.965664	0.339601	0.596681
H120	H	1.465664	0.839601	1.096681
H121	H	0.947252	0.274296	0.507741
H122	H	1.447252	0.774296	1.007741
H123	H	0.516576	-0.029699	-0.007703
H124	H	1.016576	0.470301	0.492297
H125	H	0.947233	0.274294	0.326940
H126	H	1.447233	0.774294	0.826940
N127	N	1.053503	-0.550844	-0.235703
N128	N	1.553503	-0.050844	0.264297
H129	H	1.108036	-0.604693	-0.253447
H130	H	1.608036	-0.104693	0.246553
H131	H	0.997239	-0.587782	-0.249057
H132	H	1.497239	-0.087782	0.250943
H133	H	0.347298	-0.033446	-0.008674
H134	H	0.847298	0.466554	0.491326
H135	H	0.597695	0.319814	0.082791
H136	H	1.097695	0.819814	0.582791
N137	N	1.059836	-0.209514	0.204660
N138	N	1.559836	0.290486	0.704660
H139	H	1.060318	-0.183151	0.279255
H140	H	1.560318	0.316849	0.779255
H141	H	1.115718	-0.191648	0.175363
H142	H	1.615718	0.308352	0.675363
H143	H	1.057418	-0.337794	0.328024
H144	H	1.557418	0.162206	0.828024
H145	H	1.053672	-0.536411	0.276581
H146	H	1.553672	-0.036411	0.776581
N147	N	0.625463	-0.052624	-0.013633
N148	N	1.125463	0.447376	0.486367
H149	H	0.675701	-0.112221	-0.029056
H150	H	1.175701	0.387779	0.470944
H151	H	0.587191	-0.057643	0.043758
H152	H	1.087191	0.442357	0.543758
H153	H	0.479182	0.317190	0.082091
H154	H	0.979182	0.817190	0.582091
H155	H	1.166990	0.015782	0.259990
H156	H	1.666990	0.515782	0.759990
N157	N	1.051316	-0.664611	-0.085778
N158	N	1.551316	-0.164611	0.414222
H159	H	0.995436	-0.682550	-0.056534
H160	H	1.495436	-0.182550	0.443466
H161	H	1.050863	-0.690908	-0.160376
H162	H	1.550863	-0.190908	0.339624
N163	N	0.776568	0.349101	0.090377
N164	N	1.276568	0.849101	0.590377
H165	H	0.844317	0.336061	0.086999
H166	H	1.344317	0.836061	0.586999
H167	H	0.755765	0.390495	0.042403
H168	H	1.255765	0.890495	0.542403
H169	H	0.804352	-0.023342	-0.006047
H170	H	1.304352	0.476658	0.493953
N171	N	1.056592	-0.386581	-0.279491
N172	N	1.556592	0.113419	0.220509
H173	H	1.055128	-0.464242	-0.286500
H174	H	1.555128	0.035758	0.213500
H175	H	1.001575	-0.359013	-0.310045
H176	H	1.501575	0.140987	0.189955
N177	N	1.060830	-0.159025	-0.220573
N178	N	1.560830	0.340975	0.279427
H179	H	1.062284	-0.081366	-0.187368
H180	H	1.562284	0.418634	0.312632
H181	H	1.115846	-0.186574	-0.265416
H182	H	1.615846	0.313426	0.234584
N183	N	1.183035	-0.003008	0.449088
N184	N	1.683035	0.496992	0.949088
H185	H	1.221408	-0.048126	0.390713
H186	H	1.721408	0.451874	0.890713
H187	H	1.222708	0.037301	0.500839
H188	H	1.722708	0.537301	1.000839
H189	H	1.167020	0.015793	0.567358
H190	H	1.667020	0.515793	1.067358
H191	H	1.167035	0.015796	0.748160
H192	H	1.667035	0.515796	1.248160
