data_functionalizedCrystal
_audit_creation_method	'MofGen! by Chris Wilmer'
_symmetry_space_group_name_H-M	'P1'
_symmetry_Int_Tables_number	1
_symmetry_cell_setting	triclinic
loop_
_symmetry_equiv_pos_as_xyz
  x,y,z
_cell_length_a	16.959455
_cell_length_b	18.050589
_cell_length_c	16.959447
_cell_angle_alpha	89.973275
_cell_angle_beta	89.983056
_cell_angle_gamma	90.025168
loop_
_atom_site_label
_atom_site_type_symbol
_atom_site_fract_x
_atom_site_fract_y
_atom_site_fract_z
Zn1	Zn	1.208359	-0.295705	-0.446929
Zn2	Zn	1.708359	0.204295	0.053071
Zn3	Zn	1.208257	-0.419906	-0.314759
Zn4	Zn	1.708257	0.080094	0.185241
Zn5	Zn	1.076182	-0.295728	-0.314766
Zn6	Zn	1.576182	0.204272	0.185234
Zn7	Zn	1.076134	-0.419851	-0.446897
Zn8	Zn	1.576134	0.080149	0.053103
O9	O	1.142233	-0.357798	-0.380838
O10	O	1.642233	0.142202	0.119162
O11	O	1.318957	-0.312194	-0.429406
O12	O	1.818957	0.187806	0.070594
O13	O	1.190714	-0.403467	-0.204149
O14	O	1.690714	0.096533	0.295851
O15	O	1.093778	-0.191800	-0.332314
O16	O	1.593778	0.308200	0.167686
O17	O	1.318882	-0.403444	-0.332301
O18	O	1.818882	0.096556	0.167699
O19	O	1.190889	-0.191783	-0.429414
O20	O	1.690889	0.308217	0.070586
O21	O	1.093679	-0.312234	-0.204154
O22	O	1.593679	0.187766	0.295846
O23	O	0.965565	-0.312180	-0.332284
O24	O	1.465565	0.187820	0.167716
O25	O	1.093697	-0.403349	-0.557512
O26	O	1.593697	0.096651	-0.057512
O27	O	0.965529	-0.403372	-0.429360
O28	O	1.465529	0.096628	0.070640
O29	O	1.190842	-0.312140	-0.557536
O30	O	1.690842	0.187860	-0.057536
O31	O	1.190668	-0.523824	-0.332271
O32	O	1.690668	-0.023824	0.167729
O33	O	1.093597	-0.523783	-0.429353
O34	O	1.593597	-0.023783	0.070647
C35	C	0.936867	-0.357773	-0.380820
C36	C	1.436867	0.142227	0.119180
C37	C	0.849010	-0.357780	-0.380831
C38	C	1.349010	0.142220	0.119169
C39	C	0.477529	-0.310275	-0.330396
C40	C	0.977529	0.189725	0.169604
C41	C	0.477541	-0.405381	-0.431325
C42	C	0.977541	0.094619	0.068675
C43	C	0.560086	-0.405371	-0.431320
C44	C	1.060086	0.094629	0.068680
C45	C	0.601357	-0.357812	-0.380852
C46	C	1.101357	0.142188	0.119148
C47	C	0.560082	-0.310264	-0.330388
C48	C	1.060082	0.189736	0.169612
C49	C	0.601368	-0.452923	-0.481777
C50	C	1.101368	0.047077	0.018223
C51	C	0.683919	-0.452915	-0.481774
C52	C	1.183919	0.047085	0.018226
C53	C	0.725191	-0.405352	-0.431309
C54	C	1.225191	0.094648	0.068691
C55	C	0.683911	-0.357802	-0.380844
C56	C	1.183911	0.142198	0.119156
C57	C	0.725182	-0.310243	-0.330375
C58	C	1.225182	0.189757	0.169625
C59	C	0.683903	-0.262688	-0.279913
C60	C	1.183903	0.237312	0.220087
C61	C	0.601354	-0.262701	-0.279923
C62	C	1.101354	0.237299	0.220077
C63	C	0.807739	-0.405339	-0.431299
C64	C	1.307739	0.094661	0.068701
C65	C	0.807735	-0.310232	-0.330367
C66	C	1.307735	0.189768	0.169633
C67	C	1.142138	-0.550750	-0.380825
C68	C	1.642138	-0.050750	0.119175
C69	C	1.142169	-0.633295	-0.380846
C70	C	1.642169	-0.133295	0.119154
C71	C	1.089434	-0.832751	-0.433620
C72	C	1.589434	-0.332751	0.066380
C73	C	1.070168	-0.882194	-0.361493
C74	C	1.570168	-0.382194	0.138507
C75	C	1.142247	-0.784426	-0.380856
C76	C	1.642247	-0.284426	0.119144
C77	C	1.161552	-0.882064	-0.452991
C78	C	1.661552	-0.382064	0.047009
C79	C	1.142320	-0.930411	-0.380872
C80	C	1.642320	-0.430411	0.119128
C81	C	1.122943	-0.832782	-0.308691
C82	C	1.622943	-0.332782	0.191309
C83	C	1.214360	-0.832648	-0.400237
C84	C	1.714360	-0.332648	0.099763
C85	C	1.195121	-0.882069	-0.328061
C86	C	1.695121	-0.382069	0.171939
C87	C	1.142202	-0.700328	-0.380848
C88	C	1.642202	-0.200328	0.119152
C89	C	1.142365	-1.014507	-0.380872
C90	C	1.642365	-0.514507	0.119128
C91	C	1.348401	-0.357823	-0.380857
C92	C	1.848401	0.142177	0.119143
C93	C	1.436258	-0.357833	-0.380864
C94	C	1.936258	0.142167	0.119136
C95	C	1.142275	-0.357736	-0.587006
C96	C	1.642275	0.142264	-0.087006
C97	C	1.142293	-0.357709	-0.674863
C98	C	1.642293	0.142291	-0.174863
C99	C	1.142350	-0.164092	-0.380868
C100	C	1.642350	0.335908	0.119132
C101	C	1.142400	-0.081546	-0.380881
C102	C	1.642400	0.418454	0.119119
C103	C	1.091841	-0.310130	-1.046348
C104	C	1.591841	0.189870	-0.546348
C105	C	1.192885	-0.405132	-1.046329
C106	C	1.692885	0.094868	-0.546329
C107	C	1.192871	-0.405150	-0.963784
C108	C	1.692871	0.094850	-0.463784
C109	C	1.142341	-0.357657	-0.922516
C110	C	1.642341	0.142343	-0.422516
C111	C	1.091824	-0.310148	-0.963794
C112	C	1.591824	0.189852	-0.463794
C113	C	1.243381	-0.452664	-0.922499
C114	C	1.743381	0.047336	-0.422499
C115	C	1.243369	-0.452683	-0.839948
C116	C	1.743369	0.047317	-0.339948
C117	C	1.192842	-0.405187	-0.798679
C118	C	1.692842	0.094813	-0.298679
C119	C	1.142324	-0.357675	-0.839962
C120	C	1.642324	0.142325	-0.339962
C121	C	1.091794	-0.310182	-0.798695
C122	C	1.591794	0.189818	-0.298695
C123	C	1.041279	-0.262666	-0.839977
C124	C	1.541279	0.237334	-0.339977
C125	C	1.041298	-0.262651	-0.922525
C126	C	1.541298	0.237349	-0.422525
C127	C	1.192824	-0.405202	-0.716130
C128	C	1.692824	0.094798	-0.216130
C129	C	1.091777	-0.310200	-0.716141
C130	C	1.591777	0.189800	-0.216141
C131	C	1.142236	-0.357805	-0.175472
C132	C	1.642236	0.142195	0.324528
C133	C	1.142372	-0.357623	-0.087615
C134	C	1.642372	0.142377	0.412385
H135	H	0.567759	-0.491648	-0.522861
H136	H	1.067759	0.008352	-0.022861
H137	H	1.233957	-0.443884	-0.682522
H138	H	1.733957	0.056116	-0.182522
Cl139	Cl	1.264127	-0.915293	-0.259104
Cl140	Cl	1.764127	-0.415293	0.240896
Cl141	Cl	0.976062	-0.915793	-0.336185
Cl142	Cl	1.476062	-0.415793	0.163815
Cl143	Cl	1.028254	-0.250487	-0.664268
Cl144	Cl	1.528254	0.249513	-0.164268
H145	H	1.234018	-0.443804	-1.079935
H146	H	1.734018	0.056196	-0.579935
H147	H	0.717521	-0.491636	-0.522864
H148	H	1.217521	0.008364	-0.022864
Cl149	Cl	0.859629	-0.465121	-0.494727
Cl150	Cl	1.359629	0.034879	0.005273
H151	H	1.284511	-0.491338	-0.956105
H152	H	1.784511	0.008662	-0.456105
H153	H	1.044707	-0.811095	-0.478178
H154	H	1.544707	-0.311095	0.021822
Cl155	Cl	1.097671	-0.799502	-0.214488
Cl156	Cl	1.597671	-0.299502	0.285512
Cl157	Cl	0.549457	-0.202925	-0.216490
Cl158	Cl	1.049457	0.297075	0.283510
Cl159	Cl	0.859612	-0.250437	-0.266921
Cl160	Cl	1.359612	0.249563	0.233079
H161	H	1.275296	-0.810870	-0.416650
H162	H	1.775296	-0.310870	0.083350
Cl163	Cl	1.186716	-0.915491	-0.547164
Cl164	Cl	1.686716	-0.415491	-0.047164
Cl165	Cl	0.425638	-0.250491	-0.266966
Cl166	Cl	0.925638	0.249509	0.233034
H167	H	1.284500	-0.491375	-0.806343
H168	H	1.784500	0.008625	-0.306343
Cl169	Cl	0.735796	-0.202907	-0.216465
Cl170	Cl	1.235796	0.297093	0.283535
Cl171	Cl	0.425657	-0.465182	-0.494751
Cl172	Cl	0.925657	0.034818	0.005249
Cl173	Cl	0.977760	-0.202963	-0.788088
Cl174	Cl	1.477760	0.297037	-0.288088
H175	H	1.000171	-0.223967	-0.956144
H176	H	1.500171	0.276033	-0.456144
H177	H	1.050716	-0.271441	-1.079963
H178	H	1.550716	0.228559	-0.579963
