data_functionalizedCrystal
_audit_creation_method	'MofGen! by Chris Wilmer'
_symmetry_space_group_name_H-M	'P1'
_symmetry_Int_Tables_number	1
_symmetry_cell_setting	triclinic
loop_
_symmetry_equiv_pos_as_xyz
  x,y,z
_cell_length_a	16.120484
_cell_length_b	21.395364
_cell_length_c	16.120256
_cell_angle_alpha	92.878538
_cell_angle_beta	95.616173
_cell_angle_gamma	92.921329
loop_
_atom_site_label
_atom_site_type_symbol
_atom_site_fract_x
_atom_site_fract_y
_atom_site_fract_z
Zn1	Zn	-0.356854	0.925600	-0.489462
Zn2	Zn	0.143146	1.425600	0.010538
Zn3	Zn	-0.489540	0.925521	-0.356772
Zn4	Zn	0.010460	1.425521	0.143228
Zn5	Zn	-0.349776	0.826419	-0.349707
Zn6	Zn	0.150224	1.326419	0.150293
Zn7	Zn	-0.496575	0.815201	-0.496495
Zn8	Zn	0.003425	1.315201	0.003505
O9	O	-0.423186	0.873185	-0.423109
O10	O	0.076814	1.373185	0.076891
O11	O	-0.374474	1.013266	-0.471875
O12	O	0.125526	1.513266	0.028125
O13	O	-0.465094	0.917037	-0.238873
O14	O	0.034906	1.417037	0.261127
O15	O	-0.233750	0.844304	-0.362346
O16	O	0.266250	1.344304	0.137654
O17	O	-0.471957	1.013208	-0.374388
O18	O	0.028043	1.513208	0.125612
O19	O	-0.238951	0.917171	-0.465024
O20	O	0.261049	1.417171	0.034976
O21	O	-0.362410	0.844227	-0.233682
O22	O	0.137590	1.344227	0.266318
O23	O	-0.369231	0.737255	-0.369165
O24	O	0.130769	1.237255	0.130835
O25	O	-0.483947	0.825184	-0.612524
O26	O	0.016053	1.325184	-0.112524
O27	O	-0.477083	0.729012	-0.477009
O28	O	0.022917	1.229012	0.022991
O29	O	-0.381295	0.906293	-0.607358
O30	O	0.118705	1.406293	-0.107358
O31	O	-0.607438	0.906159	-0.381207
O32	O	-0.107438	1.406159	0.118793
O33	O	-0.612606	0.825107	-0.483860
O34	O	-0.112606	1.325107	0.016140
C35	C	-0.423153	0.710400	-0.423084
C36	C	0.076847	1.210400	0.076916
C37	C	-0.423160	0.640758	-0.423094
C38	C	0.076840	1.140758	0.076906
C39	C	-0.372558	0.138981	-0.473976
C40	C	0.127442	0.638981	0.026024
C41	C	-0.372552	0.204416	-0.473975
C42	C	0.127448	0.704416	0.026025
C43	C	-0.423213	0.237116	-0.423129
C44	C	0.076787	0.737116	0.076871
C45	C	-0.473900	0.204374	-0.372296
C46	C	0.026100	0.704374	0.127704
C47	C	-0.473911	0.138939	-0.372304
C48	C	0.026089	0.638939	0.127696
C49	C	-0.425876	0.343515	-0.348130
C50	C	0.074124	0.843515	0.151870
C51	C	-0.425859	0.408949	-0.348120
C52	C	0.074141	0.908949	0.151880
C53	C	-0.423184	0.438939	-0.423105
C54	C	0.076816	0.938939	0.076895
C55	C	-0.420508	0.403488	-0.498101
C56	C	0.079492	0.903488	0.001899
C57	C	-0.420519	0.338053	-0.498109
C58	C	0.079481	0.838053	0.001891
C59	C	-0.423207	0.308069	-0.423115
C60	C	0.076793	0.808069	0.076885
C61	C	-0.372497	0.542626	-0.473939
C62	C	0.127503	1.042626	0.026061
C63	C	-0.372497	0.608063	-0.473940
C64	C	0.127503	1.108063	0.026060
C65	C	-0.473841	0.608019	-0.372253
C66	C	0.026159	1.108019	0.127747
C67	C	-0.473846	0.542584	-0.372259
C68	C	0.026154	1.042584	0.127741
C69	C	-0.423170	0.509891	-0.423101
C70	C	0.076830	1.009891	0.076899
C71	C	-0.640351	0.864424	-0.434081
C72	C	-0.140351	1.364424	0.065919
C73	C	-0.733256	0.860731	-0.438803
C74	C	-0.233256	1.360731	0.061197
C75	C	-0.903356	0.853994	-0.447441
C76	C	-0.403356	1.353994	0.052559
C77	C	-0.942177	0.892489	-0.398791
C78	C	-0.442177	1.392489	0.101209
C79	C	-1.036826	0.888740	-0.403597
C80	C	-0.536826	1.388740	0.096403
C81	C	-0.808698	0.857742	-0.442636
C82	C	-0.308698	1.357742	0.057364
C83	C	-0.205175	0.881998	-0.412112
C84	C	0.294825	1.381998	0.087888
C85	C	-0.112271	0.885753	-0.407426
C86	C	0.387729	1.385753	0.092574
C87	C	-0.434195	0.864496	-0.641116
C88	C	0.065805	1.364496	-0.141116
C89	C	-0.438886	0.860793	-0.734018
C90	C	0.061114	1.360793	-0.234018
C91	C	-0.423220	1.036606	-0.423135
C92	C	0.076780	1.536606	0.076865
C93	C	-0.423235	1.106247	-0.423146
C94	C	0.076765	1.606247	0.076854
C95	C	-0.398701	0.892495	-0.942944
C96	C	0.101299	1.392495	-0.442944
C97	C	-0.447416	0.854013	-0.904103
C98	C	0.052584	1.354013	-0.404103
C99	C	-0.442669	0.857786	-0.809459
C100	C	0.057331	1.357786	-0.309459
C101	C	-0.403447	0.888722	-1.037596
C102	C	0.096553	1.388722	-0.537596
C103	C	-0.412160	0.881879	-0.205947
C104	C	0.087840	1.381879	0.294053
C105	C	-0.407234	0.885713	-0.113034
C106	C	0.092766	1.385713	0.386966
H107	H	-0.331297	0.112366	-0.515379
H108	H	0.168703	0.612366	-0.015379
H109	H	-0.904329	0.928260	-0.353530
H110	H	-0.404329	1.428260	0.146470
H111	H	-0.515109	0.515931	-0.330864
H112	H	-0.015109	1.015931	0.169136
H113	H	-0.353433	0.928273	-0.905119
H114	H	0.146567	1.428273	-0.405119
H115	H	-0.941201	0.818224	-0.492698
H116	H	-0.441201	1.318224	0.007302
C117	C	-0.508585	0.805679	-0.955198
C118	C	-0.008585	1.305679	-0.455198
C119	C	-0.513313	0.801928	-1.051207
C120	C	-0.013313	1.301928	-0.551207
C121	C	-0.574481	0.753598	-1.102306
C122	C	-0.074481	1.253598	-0.602306
C123	C	-0.630922	0.709021	-1.057396
C124	C	-0.130922	1.209021	-0.557396
C125	C	-0.626195	0.712771	-0.961382
C126	C	-0.126195	1.212771	-0.461382
C127	C	-0.565027	0.761100	-0.910283
C128	C	-0.065027	1.261100	-0.410283
H129	H	-0.471531	0.834928	-1.084456
H130	H	0.028469	1.334928	-0.584456
H131	H	-0.577980	0.750823	-1.173382
H132	H	-0.077980	1.250823	-0.673382
H133	H	-0.676202	0.673245	-1.095223
H134	H	-0.176202	1.173245	-0.595223
H135	H	-0.667977	0.679771	-0.928133
H136	H	-0.167977	1.179771	-0.428133
H137	H	-0.561528	0.763876	-0.839207
H138	H	-0.061528	1.263876	-0.339207
H139	H	-0.331281	0.231074	-0.515366
H140	H	0.168719	0.731074	-0.015366
H141	H	-0.428057	0.319102	-0.287064
H142	H	0.071943	0.819102	0.212936
C143	C	-0.417587	0.299056	-0.580600
C144	C	0.082413	0.799056	-0.080600
C145	C	-0.414645	0.332035	-0.663087
C146	C	0.085355	0.832035	-0.163087
C147	C	-0.411716	0.293038	-0.745579
C148	C	0.088284	0.793038	-0.245579
C149	C	-0.411729	0.221062	-0.745584
C150	C	0.088271	0.721062	-0.245584
C151	C	-0.414671	0.188079	-0.663094
C152	C	0.085329	0.688079	-0.163094
C153	C	-0.417600	0.227077	-0.580602
C154	C	0.082400	0.727077	-0.080602
H155	H	-0.414635	0.385319	-0.663086
H156	H	0.085365	0.885319	-0.163086
H157	H	-0.409538	0.317454	-0.806643
H158	H	0.090462	0.817454	-0.306643
H159	H	-0.409561	0.192194	-0.806650
H160	H	0.090439	0.692194	-0.306650
H161	H	-0.414681	0.134795	-0.663095
H162	H	0.085319	0.634795	-0.163095
H163	H	-0.419778	0.202661	-0.519538
H164	H	0.080222	0.702661	-0.019538
H165	H	-0.418326	0.427905	-0.559160
H166	H	0.081674	0.927905	-0.059160
H167	H	-0.331234	0.516006	-0.515337
H168	H	0.168766	1.016006	-0.015337
H169	H	-0.515097	0.634643	-0.330860
H170	H	-0.015097	1.134643	0.169140
C171	C	-0.316749	0.644073	-0.529858
C172	C	0.183251	1.144073	-0.029858
C173	C	-0.261009	0.608109	-0.585776
C174	C	0.238991	1.108109	-0.085776
C175	C	-0.205259	0.644121	-0.641694
C176	C	0.294741	1.144121	-0.141694
C177	C	-0.205249	0.716096	-0.641694
C178	C	0.294751	1.216096	-0.141694
C179	C	-0.260991	0.752064	-0.585773
C180	C	0.239009	1.252064	-0.085773
C181	C	-0.316741	0.716053	-0.529855
C182	C	0.183259	1.216053	-0.029855
H183	H	-0.261014	0.554825	-0.585779
H184	H	0.238986	1.054825	-0.085779
H185	H	-0.163995	0.617494	-0.683091
H186	H	0.336005	1.117494	-0.183091
H187	H	-0.163980	0.742754	-0.683087
H188	H	0.336020	1.242754	-0.183087
H189	H	-0.260986	0.805348	-0.585770
H190	H	0.239014	1.305348	-0.085770
H191	H	-0.358005	0.742679	-0.488459
H192	H	0.141995	1.242679	0.011541
H193	H	-0.428032	0.437808	-0.287053
H194	H	0.071968	0.937808	0.212947
C195	C	-0.529655	0.102928	-0.316382
C196	C	-0.029655	0.602928	0.183618
C197	C	-0.517893	0.115979	-0.221023
C198	C	-0.017893	0.615979	0.278977
C199	C	-0.573635	0.079967	-0.165100
C200	C	-0.073635	0.579967	0.334900
C201	C	-0.641140	0.030904	-0.204535
C202	C	-0.141140	0.530904	0.295465
C203	C	-0.652906	0.017851	-0.299899
C204	C	-0.152906	0.517851	0.200101
C205	C	-0.597163	0.053863	-0.355823
C206	C	-0.097163	0.553863	0.144177
H207	H	-0.467919	0.152300	-0.191826
H208	H	0.032081	0.652300	0.308174
H209	H	-0.564926	0.089630	-0.094504
H210	H	-0.064926	0.589630	0.405496
H211	H	-0.682405	0.004246	-0.163137
H212	H	-0.182405	0.504246	0.336863
H213	H	-0.702880	-0.018471	-0.329096
H214	H	-0.202880	0.481529	0.170904
H215	H	-0.605873	0.044200	-0.426418
H216	H	-0.105873	0.544200	0.073582
H217	H	-0.515151	0.231002	-0.330899
H218	H	-0.015151	0.731002	0.169101
