data_functionalizedCrystal
_audit_creation_method	'MofGen! by Chris Wilmer'
_symmetry_space_group_name_H-M	'P1'
_symmetry_Int_Tables_number	1
_symmetry_cell_setting	triclinic
loop_
_symmetry_equiv_pos_as_xyz
  x,y,z
_cell_length_a	18.050591
_cell_length_b	13.897447
_cell_length_c	13.897441
_cell_angle_alpha	90.025556
_cell_angle_beta	89.974236
_cell_angle_gamma	89.982798
loop_
_atom_site_label
_atom_site_type_symbol
_atom_site_fract_x
_atom_site_fract_y
_atom_site_fract_z
Zn1	Zn	1.135364	0.384096	-0.545593
Zn2	Zn	1.135280	0.545415	-0.384306
Zn3	Zn	1.011173	0.384124	-0.384291
Zn4	Zn	1.011147	0.545340	-0.545538
O5	O	1.073241	0.464744	-0.464932
O6	O	1.239278	0.405515	-0.524227
O7	O	1.118792	0.524063	-0.249322
O8	O	1.027694	0.249139	-0.405705
O9	O	1.239216	0.524035	-0.405730
O10	O	1.118936	0.249118	-0.524213
O11	O	1.027612	0.405563	-0.249311
O12	O	0.907245	0.405490	-0.405652
O13	O	1.027649	0.523907	-0.680527
O14	O	0.907226	0.523934	-0.524119
O15	O	1.118911	0.405442	-0.680567
O16	O	1.118767	0.680387	-0.405677
O17	O	1.027567	0.680331	-0.524134
C18	C	0.880289	0.464708	-0.464879
C19	C	0.797743	0.464716	-0.464879
C20	C	0.598281	0.400231	-0.400604
C21	C	0.548868	0.488213	-0.376875
C22	C	0.646613	0.464745	-0.464922
C23	C	0.548944	0.376794	-0.488649
C24	C	0.500628	0.464766	-0.464963
C25	C	0.598287	0.552773	-0.441147
C26	C	0.598367	0.441295	-0.552962
C27	C	0.548976	0.529337	-0.529266
C28	C	0.730711	0.464732	-0.464897
C29	C	0.416531	0.464789	-0.464988
C30	C	1.073175	0.715358	-0.464922
C31	C	1.073215	0.822572	-0.464950
C32	C	1.073249	0.909642	-0.464976
C33	C	1.073298	1.018874	-0.465006
C34	C	1.266947	0.464781	-0.464986
C35	C	1.349492	0.464796	-0.465009
C36	C	1.073286	0.464663	-0.716525
C37	C	1.073306	0.464628	-0.823739
C38	C	1.073322	1.213151	-0.464975
C39	C	1.073342	1.105937	-0.465025
C40	C	1.073321	0.464601	-0.910809
C41	C	1.073342	0.464558	-1.020041
C42	C	1.073238	0.464755	-0.214318
C43	C	1.073363	0.464518	-0.107104
H44	H	0.619871	0.627183	-0.421014
O45	O	0.523181	0.594429	-0.594167
C46	C	0.445076	0.593194	-0.594018
H47	H	0.424742	0.520994	-0.565452
H48	H	0.423856	0.604060	-0.670495
H49	H	0.423474	0.653526	-0.545989
H50	H	0.527230	0.302416	-0.508667
O51	O	0.624420	0.417472	-0.641660
C52	C	0.668477	0.333969	-0.634778
H53	H	0.690075	0.326346	-0.558089
H54	H	0.717231	0.339811	-0.686619
H55	H	0.633754	0.268227	-0.654063
O56	O	0.624079	0.335322	-0.335520
C57	C	0.598837	0.360411	-0.242818
H58	H	0.584974	0.440421	-0.240866
H59	H	0.643980	0.344244	-0.187804
H60	H	0.547149	0.316856	-0.224821
O61	O	0.522836	0.511719	-0.288076
C62	C	0.478803	0.435857	-0.252528
H63	H	0.457193	0.391076	-0.315263
H64	H	0.430058	0.466736	-0.210437
H65	H	0.513551	0.388417	-0.203142
