data_functionalizedCrystal
_audit_creation_method	'MofGen! by Chris Wilmer'
_symmetry_space_group_name_H-M	'P1'
_symmetry_Int_Tables_number	1
_symmetry_cell_setting	triclinic
loop_
_symmetry_equiv_pos_as_xyz
  x,y,z
_cell_length_a	14.908618
_cell_length_b	11.169417
_cell_length_c	11.169409
_cell_angle_alpha	89.980176
_cell_angle_beta	86.730959
_cell_angle_gamma	93.294137
loop_
_atom_site_label
_atom_site_type_symbol
_atom_site_fract_x
_atom_site_fract_y
_atom_site_fract_z
Zn1	Zn	0.359054	1.862604	-0.706151
Zn2	Zn	0.859054	2.362604	-0.206151
Zn3	Zn	0.509943	1.874110	-0.517070
Zn4	Zn	1.009943	2.374110	-0.017070
Zn5	Zn	0.359109	1.661894	-0.505490
Zn6	Zn	0.859109	2.161894	-0.005490
Zn7	Zn	0.509869	1.673508	-0.717710
Zn8	Zn	1.009869	2.173508	-0.217710
O9	O	0.434494	1.768029	-0.611605
O10	O	0.934494	2.268029	-0.111605
O11	O	0.379078	2.032081	-0.681079
O12	O	0.879078	2.532081	-0.181079
O13	O	0.489988	1.845914	-0.347588
O14	O	0.989988	2.345914	0.152412
O15	O	0.232861	1.678843	-0.522424
O16	O	0.732861	2.178843	-0.022424
O17	O	0.489935	2.040534	-0.542162
O18	O	0.989935	2.540534	-0.042162
O19	O	0.232820	1.826304	-0.669849
O20	O	0.732820	2.326304	-0.169849
O21	O	0.379171	1.690000	-0.339080
O22	O	0.879171	2.190000	0.160920
O23	O	0.379100	1.495485	-0.533632
O24	O	0.879100	1.995485	-0.033632
O25	O	0.489810	1.698638	-0.884122
O26	O	0.989810	2.198638	-0.384122
O27	O	0.489863	1.504017	-0.689549
O28	O	0.989863	2.004017	-0.189549
O29	O	0.379006	1.837566	-0.875630
O30	O	0.879006	2.337566	-0.375630
O31	O	0.636174	1.857175	-0.553369
O32	O	1.136174	2.357175	-0.053369
O33	O	0.636120	1.709794	-0.700778
O34	O	1.136120	2.209794	-0.200778
C35	C	0.434480	1.456203	-0.611589
C36	C	0.934480	1.956203	-0.111589
C37	C	0.434496	1.322805	-0.611612
C38	C	0.934496	1.822805	-0.111612
C39	C	0.199193	1.749995	-0.593556
C40	C	0.699193	2.249995	-0.093556
C41	C	0.098921	1.742310	-0.585864
C42	C	0.598921	2.242310	-0.085864
C43	C	-0.042387	1.654714	-0.498274
C44	C	0.457613	2.154714	0.001726
C45	C	0.051827	1.661929	-0.505496
C46	C	0.551827	2.161929	-0.005496
C47	C	0.051795	1.815484	-0.659013
C48	C	0.551795	2.315484	-0.159013
C49	C	-0.042419	1.808269	-0.651791
C50	C	0.457581	2.308269	-0.151791
C51	C	-0.089507	1.727880	-0.571420
C52	C	0.410493	2.227880	-0.071420
C53	C	-0.183722	1.720660	-0.564204
C54	C	0.316278	2.220660	-0.064204
C55	C	-0.183753	1.874221	-0.717715
C56	C	0.316247	2.374221	-0.217715
C57	C	-0.089539	1.881436	-0.724937
C58	C	0.410461	2.381436	-0.224937
C59	C	0.668880	1.786026	-0.629611
C60	C	1.168880	2.286026	-0.129611
C61	C	0.769151	1.793835	-0.637354
C62	C	1.269151	2.293835	-0.137354
C63	C	0.434394	1.768114	-0.924640
C64	C	0.934394	2.268114	-0.424640
C65	C	0.434351	1.768150	-1.058037
C66	C	0.934351	2.268150	-0.558037
C67	C	0.434508	2.081073	-0.611623
C68	C	0.934508	2.581073	-0.111623
C69	C	0.434514	2.214473	-0.611630
C70	C	0.934514	2.714473	-0.111630
C71	C	0.434529	1.768009	-0.299783
C72	C	0.934529	2.268009	0.200217
C73	C	0.434317	1.768186	-0.166368
C74	C	0.934317	2.268186	0.333632
H75	H	-0.222060	1.655201	-0.498765
H76	H	0.277940	2.155201	0.001235
H77	H	0.090150	1.880942	-0.724439
H78	H	0.590150	2.380942	-0.224439
H79	H	-0.080726	1.589250	-0.432840
H80	H	0.419274	2.089250	0.067160
H81	H	-0.222128	1.933795	-0.777279
H82	H	0.277872	2.433795	-0.277279
H83	H	0.090188	1.602349	-0.445932
H84	H	0.590188	2.102349	0.054068
Cl85	Cl	-0.030334	1.982492	-0.825968
Cl86	Cl	0.469666	2.482492	-0.325968
