data_functionalizedCrystal
_audit_creation_method	'MofGen! by Chris Wilmer'
_symmetry_space_group_name_H-M	'P1'
_symmetry_Int_Tables_number	1
_symmetry_cell_setting	triclinic
loop_
_symmetry_equiv_pos_as_xyz
  x,y,z
_cell_length_a	35.277628
_cell_length_b	35.288095
_cell_length_c	35.277682
_cell_angle_alpha	59.997929
_cell_angle_beta	89.998958
_cell_angle_gamma	60.000166
loop_
_atom_site_label
_atom_site_type_symbol
_atom_site_fract_x
_atom_site_fract_y
_atom_site_fract_z
O1	O	-0.323087	-0.271234	0.011271
O2	O	-0.267964	-0.193634	-0.011228
O3	O	-0.267962	-0.271233	0.066395
O4	O	-0.323089	-0.193635	-0.066351
O5	O	-0.204915	-0.334261	0.066394
O6	O	-0.204918	-0.256661	-0.011228
O7	O	-0.260040	-0.334261	0.011271
Cu8	Cu	-0.226722	-0.301216	0.000022
Cu9	Cu	-0.301282	-0.226679	0.000022
O10	O	-0.260043	-0.256662	-0.066351
C11	C	-0.163481	-0.071298	-0.023519
C12	C	-0.186872	-0.024531	-0.020298
C13	C	-0.117860	-0.093995	-0.023838
C14	C	-0.163483	-0.139918	-0.023524
C15	C	-0.186875	-0.166518	-0.020308
C16	C	-0.117862	-0.162510	-0.023843
C17	C	-0.094838	-0.139921	-0.023519
C18	C	-0.044836	-0.166525	-0.020298
C19	C	-0.186401	-0.093991	-0.023843
C20	C	-0.004439	-0.188019	-0.017694
C21	C	-0.205769	0.013252	-0.017695
C22	C	-0.205774	-0.188010	-0.017709
C23	C	0.046241	-0.214983	-0.014429
C24	C	-0.229477	0.060653	-0.014430
C25	C	-0.229483	-0.214971	-0.014450
C26	C	-0.500364	-0.466062	0.034181
C27	C	-0.477341	-0.511990	0.034503
C28	C	-0.431722	-0.466060	0.034178
C29	C	-0.408804	-0.511988	0.034500
C30	C	-0.431721	-0.534685	0.034181
C31	C	-0.477342	-0.443470	0.034500
C32	C	-0.665895	-0.342485	0.021756
C33	C	-0.712772	-0.317221	0.018243
C34	C	-0.736287	-0.338907	0.016481
C35	C	-0.787116	-0.311512	0.012664
C36	C	-0.712921	-0.385861	0.018236
C37	C	-0.666047	-0.411125	0.021755
C38	C	-0.642533	-0.389434	0.023515
C39	C	-0.389805	-0.687746	0.021758
C40	C	-0.368199	-0.731097	0.018245
C41	C	-0.322995	-0.752841	0.016478
C42	C	-0.299567	-0.799839	0.012662
C43	C	-0.299393	-0.731235	0.018230
C44	C	-0.320995	-0.687892	0.021751
C45	C	-0.366205	-0.666148	0.023512
C46	C	-0.389808	-0.342477	0.021744
C47	C	-0.368205	-0.317208	0.018222
C48	C	-0.322998	-0.338892	0.016457
C49	C	-0.299573	-0.311495	0.012637
C50	C	-0.299398	-0.385842	0.018210
C51	C	-0.321003	-0.411107	0.021730
C52	C	-0.366208	-0.389423	0.023501
C53	C	-0.591706	-0.416830	0.027326
C54	C	-0.551191	-0.438667	0.030366
C55	C	-0.408299	-0.438663	0.030360
C56	C	-0.389629	-0.416824	0.027317
C57	C	-0.408298	-0.581682	0.030365
C58	C	-0.389627	-0.619146	0.027325
C59	C	-0.432024	-0.061845	-0.438511
C60	C	-0.477645	-0.015917	-0.461431
C61	C	-0.432025	-0.061844	-0.369869
C62	C	-0.477645	-0.015916	-0.392892
C63	C	-0.500668	0.006779	-0.438513
C64	C	-0.409106	-0.084435	-0.392891
C65	C	-0.320834	-0.185425	-0.480424
C66	C	-0.299076	-0.210690	-0.502029
C67	C	-0.322531	-0.189005	-0.547237
C68	C	-0.298945	-0.216401	-0.570661
C69	C	-0.367745	-0.142051	-0.570839
C70	C	-0.389497	-0.116787	-0.549237
C71	C	-0.366040	-0.138476	-0.504027
C72	C	-0.666200	0.159838	-0.549704
C73	C	-0.713077	0.203188	-0.571462
C74	C	-0.736595	0.224934	-0.548009
C75	C	-0.787423	0.271931	-0.571594
C76	C	-0.713230	0.203329	-0.502796
C77	C	-0.666353	0.159987	-0.481041
C78	C	-0.642841	0.138241	-0.504500
C79	C	-0.320836	-0.185423	-0.204335
C80	C	-0.299080	-0.210691	-0.157455
C81	C	-0.322536	-0.189006	-0.133940
C82	C	-0.298950	-0.216402	-0.083110
C83	C	-0.367748	-0.142056	-0.157305
C84	C	-0.389502	-0.116792	-0.204182
C85	C	-0.366040	-0.138478	-0.227695
C86	C	-0.389632	-0.111079	-0.480604
C87	C	-0.408436	-0.089241	-0.461934
C88	C	-0.408437	-0.089240	-0.319041
C89	C	-0.389634	-0.111078	-0.278525
C90	C	-0.551496	0.053776	-0.462102
C91	C	-0.592011	0.091239	-0.480906
O92	O	0.196122	-0.334274	0.011291
O93	O	0.063378	-0.256674	-0.011208
O94	O	0.140994	-0.334276	0.066414
O95	O	0.118506	-0.256671	-0.066331
O96	O	0.140996	-0.271251	0.066419
O97	O	0.063380	-0.193649	-0.011203
O98	O	0.196124	-0.271249	0.011296
Cu99	Cu	0.129752	-0.226694	0.000047
Cu100	Cu	0.129750	-0.301228	0.000041
O101	O	0.118508	-0.193647	-0.066327
O102	O	-0.260036	0.184774	0.011294
O103	O	-0.204910	0.074561	-0.011204
O104	O	-0.204913	0.074554	0.066418
O105	O	-0.260033	0.184781	-0.066328
O106	O	-0.267961	0.074557	0.066413
O107	O	-0.267958	0.074564	-0.011209
O108	O	-0.323083	0.184777	0.011289
Cu109	Cu	-0.301278	0.129670	0.000040
Cu110	Cu	-0.226716	0.129668	0.000045
O111	O	-0.323081	0.184784	-0.066333
O112	O	-0.936929	0.397535	-0.602582
O113	O	-0.804185	0.287317	-0.547454
O114	O	-0.881802	0.287315	-0.547452
O115	O	-0.859312	0.397537	-0.602584
O116	O	-0.881801	0.287314	-0.610498
O117	O	-0.804183	0.287316	-0.610500
O118	O	-0.936927	0.397533	-0.665628
Cu119	Cu	-0.870555	0.342425	-0.643820
Cu120	Cu	-0.870557	0.342426	-0.569261
O121	O	-0.859310	0.397536	-0.665629
O122	O	-0.267961	-0.271234	-0.665316
O123	O	-0.323086	-0.193638	-0.610192
O124	O	-0.323085	-0.271236	-0.610189
O125	O	-0.267962	-0.193636	-0.665319
O126	O	-0.260038	-0.334264	-0.547142
O127	O	-0.260039	-0.256666	-0.547145
O128	O	-0.204914	-0.334262	-0.602269
Cu129	Cu	-0.226720	-0.301219	-0.568950
Cu130	Cu	-0.301280	-0.226681	-0.643511
O131	O	-0.204915	-0.256664	-0.602272
C132	C	-0.094840	-0.456607	0.293255
C133	C	-0.044837	-0.503376	0.316647
C134	C	-0.117862	-0.433912	0.316174
C135	C	-0.163483	-0.387984	0.224612
C136	C	-0.186875	-0.361381	0.174609
C137	C	-0.186401	-0.365393	0.247634
C138	C	-0.163483	-0.387984	0.293255
C139	C	-0.186874	-0.361382	0.316646
C140	C	-0.117862	-0.433912	0.247635
C141	C	-0.205772	-0.339889	0.335543
C142	C	-0.004440	-0.541160	0.335545
C143	C	-0.205773	-0.339888	0.134212
C144	C	-0.229480	-0.312925	0.359250
C145	C	0.046239	-0.588562	0.359254
C146	C	-0.229481	-0.312924	0.083532
C147	C	0.153295	-0.388013	0.293279
C148	C	0.150076	-0.361413	0.316673
C149	C	0.153614	-0.433940	0.316196
C150	C	0.153297	-0.388008	0.224634
C151	C	0.150079	-0.361403	0.174632
C152	C	0.153616	-0.433935	0.247655
C153	C	0.153293	-0.456633	0.293275
C154	C	0.150072	-0.503401	0.316665
C155	C	0.153617	-0.365420	0.247659
C156	C	0.147469	-0.541185	0.335561
C157	C	0.147474	-0.339922	0.335572
C158	C	0.147479	-0.339908	0.134234
C159	C	0.144204	-0.588587	0.359267
C160	C	0.144211	-0.312962	0.359282
C161	C	0.144218	-0.312942	0.083555
C162	C	-0.163482	-0.139963	0.293267
C163	C	-0.186875	-0.166567	0.316654
C164	C	-0.117861	-0.162559	0.316187
C165	C	-0.163482	-0.071333	0.224628
C166	C	-0.186873	-0.024557	0.174627
C167	C	-0.117860	-0.094033	0.247653
C168	C	-0.094838	-0.139967	0.293272
C169	C	-0.044835	-0.166574	0.316665
C170	C	-0.186401	-0.094030	0.247648
C171	C	-0.004438	-0.188070	0.335563
C172	C	-0.205773	-0.188061	0.335549
C173	C	-0.205771	0.013233	0.134231
C174	C	0.046242	-0.215038	0.359273
C175	C	-0.229482	-0.215026	0.359253
C176	C	-0.229479	0.060643	0.083553
C177	C	0.095627	0.006487	-0.438489
C178	C	0.095306	-0.016206	-0.461409
C179	C	0.095623	-0.062137	-0.369847
C180	C	0.095303	-0.084726	-0.392871
C181	C	0.095625	-0.062133	-0.438492
C182	C	0.095305	-0.016210	-0.392868
C183	C	0.108059	0.159543	-0.480399
C184	C	0.111575	0.202893	-0.502003
C185	C	0.113340	0.224640	-0.547210
C186	C	0.117161	0.271637	-0.570634
C187	C	0.111587	0.203038	-0.570814
C188	C	0.108065	0.159695	-0.549212
C189	C	0.106302	0.137948	-0.504002
C190	C	0.108054	-0.116452	-0.549685
C191	C	0.111568	-0.141562	-0.571444
C192	C	0.113332	-0.188519	-0.547992
C193	C	0.117148	-0.215753	-0.571578
C194	C	0.111577	-0.210363	-0.502779
C195	C	0.108055	-0.185249	-0.481023
C196	C	0.106297	-0.138292	-0.504481
C197	C	0.108046	-0.116473	-0.204312
C198	C	0.111564	-0.141591	-0.157432
C199	C	0.113326	-0.188548	-0.133918
C200	C	0.117142	-0.215786	-0.083088
C201	C	0.111574	-0.210388	-0.157283
C202	C	0.108058	-0.185270	-0.204161
C203	C	0.106290	-0.138308	-0.227673
C204	C	0.102487	0.090947	-0.480580
C205	C	0.099445	0.053484	-0.461911
C206	C	0.099438	-0.089371	-0.319019
C207	C	0.102477	-0.111078	-0.278503
C208	C	0.099442	-0.089362	-0.462081
C209	C	0.102482	-0.111066	-0.480886
O210	O	0.118477	-0.256700	0.452885
O211	O	0.140984	-0.334299	0.397762
O212	O	0.063360	-0.256699	0.397752
O213	O	0.196101	-0.334300	0.452895
O214	O	0.063367	-0.193672	0.334708
O215	O	0.140992	-0.271271	0.334718
O216	O	0.118484	-0.193673	0.389842
Cu217	Cu	0.129739	-0.226717	0.356523
Cu218	Cu	0.129730	-0.301254	0.431080
O219	O	0.196108	-0.271272	0.389852
C220	C	-0.500364	0.533998	-0.438484
C221	C	-0.477341	0.556591	-0.461399
C222	C	-0.431721	0.465364	-0.369840
C223	C	-0.408802	0.488061	-0.392859
C224	C	-0.431720	0.533995	-0.438478
C225	C	-0.477342	0.488064	-0.392865
C226	C	-0.665898	0.588334	-0.480407
C227	C	-0.712776	0.613450	-0.502014
C228	C	-0.736291	0.660414	-0.547220
C229	C	-0.787122	0.687654	-0.570647
C230	C	-0.712926	0.682257	-0.570819
C231	C	-0.666050	0.657138	-0.549214
C232	C	-0.642536	0.610174	-0.504006
C233	C	-0.389802	0.657585	-0.549654
C234	C	-0.368196	0.682850	-0.571408
C235	C	-0.322990	0.661164	-0.547952
C236	C	-0.299561	0.688558	-0.571532
C237	C	-0.299388	0.614205	-0.502740
C238	C	-0.320990	0.588935	-0.480990
C239	C	-0.366202	0.610633	-0.504452
C240	C	-0.389804	0.312282	-0.204314
C241	C	-0.368201	0.268929	-0.157436
C242	C	-0.322993	0.247179	-0.133918
C243	C	-0.299567	0.200174	-0.083089
C244	C	-0.299392	0.268786	-0.157278
C245	C	-0.320998	0.312139	-0.204154
C246	C	-0.366204	0.333881	-0.227670
C247	C	-0.591708	0.582942	-0.480581
C248	C	-0.551193	0.561234	-0.461909
C249	C	-0.408297	0.418359	-0.319013
C250	C	-0.389626	0.380890	-0.278499
C251	C	-0.408296	0.561393	-0.462062
C252	C	-0.389624	0.583232	-0.480862
H253	H	-0.495827	-0.530983	0.035020
H254	H	0.106623	0.141841	-0.443588
H255	H	0.106630	-0.203055	-0.223182
C256	C	-0.047922	-0.227516	-0.024757
C257	C	-0.092908	-0.212397	-0.024543
H258	H	-0.032516	-0.258315	-0.025187
H259	H	-0.049511	-0.198972	-0.051538
H260	H	-0.031226	-0.235525	0.002313
H261	H	-0.109605	-0.204384	-0.051615
H262	H	-0.091321	-0.240948	0.002240
C263	C	-0.117534	-0.015668	-0.064504
C264	C	-0.092899	-0.068347	-0.024583
H265	H	-0.102123	0.000167	-0.064976
H266	H	-0.119142	-0.015881	-0.091266
H267	H	-0.148044	0.004438	-0.064338
H268	H	-0.062390	-0.088455	-0.024750
H269	H	-0.091286	-0.068137	0.002187
H270	H	-0.371318	0.469063	-0.374372
C271	C	-0.323570	-0.480312	0.027121
C272	C	-0.295061	-0.462716	0.023661
H273	H	-0.307554	-0.512172	0.028311
H274	H	-0.331373	-0.487332	0.054554
H275	H	-0.351116	-0.453368	0.000841
H276	H	-0.267517	-0.489659	0.049943
H277	H	-0.287251	-0.455700	-0.003775
H278	H	-0.732097	0.220775	-0.608274
C279	C	0.154518	-0.300398	0.252561
C280	C	0.154313	-0.315529	0.222706
H281	H	0.154949	-0.269600	0.237155
H282	H	0.127450	-0.292390	0.261242
H283	H	0.181299	-0.328942	0.279531
H284	H	0.127530	-0.286986	0.195737
H285	H	0.181384	-0.323535	0.214018
C286	C	0.143673	-0.073348	-0.246628
C287	C	0.106108	-0.064857	-0.230156
H288	H	0.142476	-0.041482	-0.262586
H289	H	0.171897	-0.101554	-0.221224
H290	H	0.142119	-0.082757	-0.267251
H291	H	0.107665	-0.055452	-0.209530
H292	H	0.077877	-0.036642	-0.255564
H293	H	-0.262264	-0.248919	-0.482808
H294	H	0.094791	0.002793	-0.498893
H295	H	-0.262581	0.251075	-0.138127
H296	H	-0.732378	0.221040	-0.483702
H297	H	0.112999	-0.123775	-0.608256
C298	C	-0.252337	-0.023195	0.177702
C299	C	-0.236999	-0.068387	0.222688
H300	H	-0.283572	-0.007369	0.162292
H301	H	-0.250574	0.001991	0.179294
H302	H	-0.233272	-0.033562	0.161008
H303	H	-0.256063	-0.058020	0.239382
H304	H	-0.238766	-0.093578	0.221097
C305	C	0.102681	0.093309	-0.546643
C306	C	0.106141	0.135948	-0.575153
H307	H	0.101493	0.078650	-0.562659
H308	H	0.128956	0.066446	-0.519098
H309	H	0.075243	0.105918	-0.538842
H310	H	0.133582	0.123339	-0.582951
H311	H	0.079864	0.162816	-0.602706
C312	C	-0.252348	-0.023161	-0.024758
C313	C	-0.237005	-0.068346	-0.024550
H314	H	-0.283589	-0.007328	-0.025199
H315	H	-0.233299	-0.033534	0.002315
H316	H	-0.250570	0.002026	-0.051535
H317	H	-0.238780	-0.093535	0.002230
H318	H	-0.256060	-0.057974	-0.051625
H319	H	-0.099372	-0.452898	0.229148
H320	H	0.154122	-0.452930	0.353678
C321	C	-0.117523	-0.015705	0.209913
C322	C	-0.092904	-0.068392	0.222711
H323	H	-0.102113	0.000120	0.194521
H324	H	-0.148038	0.004397	0.189656
H325	H	-0.119108	-0.015904	0.236887
H326	H	-0.091322	-0.068194	0.195737
H327	H	-0.062381	-0.088500	0.242970
H328	H	-0.647332	0.142401	-0.444230
C329	C	-0.437814	-0.071678	-0.161865
C330	C	-0.393537	-0.118219	-0.131458
H331	H	-0.453736	-0.056966	-0.145907
H332	H	-0.435001	-0.046270	-0.187265
H333	H	-0.454736	-0.080238	-0.173039
H334	H	-0.376614	-0.109657	-0.120287
H335	H	-0.396348	-0.143632	-0.106050
C336	C	0.111221	0.198388	-0.431814
C337	C	0.113509	0.226631	-0.476056
H338	H	0.112418	0.213041	-0.415795
H339	H	0.082993	0.201224	-0.434688
H340	H	0.136705	0.161745	-0.414951
H341	H	0.088023	0.263274	-0.492920
H342	H	0.141741	0.223801	-0.473184
C343	C	0.194204	-0.512267	0.247325
C344	C	0.154305	-0.459576	0.222705
H345	H	0.194625	-0.528096	0.231924
H346	H	0.220981	-0.512077	0.248896
H347	H	0.194061	-0.532364	0.277849
H348	H	0.154450	-0.439478	0.192182
H349	H	0.127521	-0.459763	0.221129
C350	C	-0.330120	-0.552918	0.075108
C351	C	-0.358200	-0.537642	0.035205
H352	H	-0.298880	-0.568761	0.075546
H353	H	-0.340528	-0.522259	0.074953
H354	H	-0.331902	-0.578100	0.101886
H355	H	-0.356420	-0.512457	0.008426
H356	H	-0.347789	-0.568305	0.035355
H357	H	-0.732070	-0.403516	0.016804
H358	H	-0.099377	-0.452909	0.353658
H359	H	-0.099381	-0.199518	0.353671
H360	H	-0.223883	-0.328432	0.229146
C361	C	-0.364887	-0.150310	-0.634506
C362	C	-0.393526	-0.118218	-0.620528
H363	H	-0.380808	-0.135596	-0.665182
H364	H	-0.337350	-0.151565	-0.633785
H365	H	-0.357088	-0.185531	-0.614034
H366	H	-0.401323	-0.082998	-0.640998
H367	H	-0.421072	-0.116957	-0.621252
H368	H	0.094785	-0.121682	-0.374387
C369	C	0.094393	0.054618	-0.397769
C370	C	0.094601	0.009432	-0.367915
H371	H	0.093954	0.070448	-0.382364
H372	H	0.121464	0.044247	-0.406445
H373	H	0.067615	0.079807	-0.424741
H374	H	0.121381	-0.015759	-0.340944
H375	H	0.067527	0.019801	-0.359232
H376	H	0.113001	-0.123813	-0.138408
H377	H	0.113009	-0.248624	-0.138135
C378	C	-0.477971	0.025041	-0.540110
C379	C	-0.502602	0.009763	-0.512043
H380	H	-0.493380	0.040903	-0.571356
H381	H	-0.476373	0.050203	-0.538306
H382	H	-0.447458	-0.005624	-0.529705
H383	H	-0.533115	0.040430	-0.522446
H384	H	-0.504206	-0.015400	-0.513848
H385	H	-0.647026	-0.449354	0.023185
H386	H	-0.301729	-0.203089	-0.443614
C387	C	-0.670457	0.522838	-0.414571
C388	C	-0.640052	0.536709	-0.430718
H389	H	-0.654498	0.490966	-0.383897
H390	H	-0.695856	0.551040	-0.414553
H391	H	-0.681630	0.517094	-0.434309
H392	H	-0.628881	0.542457	-0.410982
H393	H	-0.614645	0.508501	-0.430733
H394	H	-0.426614	0.329984	-0.223458
H395	H	-0.495829	-0.406511	0.035012
C396	C	-0.438385	-0.251906	0.018592
C397	C	-0.394147	-0.265601	0.016295
H398	H	-0.454399	-0.220048	0.017406
H399	H	-0.455253	-0.246206	-0.006890
H400	H	-0.435505	-0.280174	0.046824
H401	H	-0.397027	-0.237334	-0.011938
H402	H	-0.377275	-0.271298	0.041779
C403	C	-0.468572	-0.609830	-0.013873
C404	C	-0.439497	-0.663849	0.023697
H405	H	-0.499250	-0.595077	-0.012678
H406	H	-0.457611	-0.590762	-0.012324
H407	H	-0.468579	-0.607015	-0.042098
H408	H	-0.439487	-0.666663	0.051923
H409	H	-0.450461	-0.682922	0.022152
C410	C	-0.468569	-0.306048	-0.013880
C411	C	-0.439499	-0.318641	0.023684
H412	H	-0.499246	-0.291337	-0.012681
H413	H	-0.468582	-0.280639	-0.042105
H414	H	-0.457597	-0.337631	-0.012324
H415	H	-0.450469	-0.287057	0.022127
H416	H	-0.439488	-0.344052	0.051917
C417	C	-0.439241	-0.023531	-0.267301
C418	C	-0.439194	-0.065180	-0.229865
H419	H	-0.469920	0.008332	-0.283157
H420	H	-0.419456	-0.017840	-0.256129
H421	H	-0.428387	-0.032836	-0.288011
H422	H	-0.450045	-0.055876	-0.209153
H423	H	-0.458986	-0.070870	-0.241037
C424	C	0.116996	0.269541	-0.634479
C425	C	0.113532	0.226938	-0.620502
H426	H	0.118202	0.284292	-0.665153
H427	H	0.090715	0.296351	-0.633759
H428	H	0.144427	0.256871	-0.614005
H429	H	0.086100	0.239609	-0.640973
H430	H	0.139816	0.200123	-0.621225
H431	H	0.106619	-0.078217	-0.568789
H432	H	0.113006	-0.248593	-0.483685
H433	H	-0.646754	-0.324820	0.023190
C434	C	0.108418	-0.255777	-0.415333
C435	C	0.106127	-0.209258	-0.431328
H436	H	0.107232	-0.270602	-0.384651
H437	H	0.082934	-0.247161	-0.435115
H438	H	0.136647	-0.281122	-0.415378
H439	H	0.077896	-0.183912	-0.431286
H440	H	0.131613	-0.217874	-0.411540
C441	C	-0.455186	-0.051477	-0.619422
C442	C	-0.439191	-0.065177	-0.575180
H443	H	-0.485866	-0.019617	-0.635436
H444	H	-0.435403	-0.045779	-0.636287
H445	H	-0.455144	-0.079742	-0.616544
H446	H	-0.439230	-0.036914	-0.578057
H447	H	-0.458980	-0.070872	-0.558311
C448	C	-0.547295	0.621648	-0.527332
C449	C	-0.502300	0.606504	-0.511990
H450	H	-0.562705	0.652468	-0.558561
H451	H	-0.545722	0.593125	-0.525589
H452	H	-0.563977	0.629630	-0.508255
H453	H	-0.485617	0.598518	-0.531065
H454	H	-0.503871	0.635033	-0.513737
H455	H	-0.262576	0.596543	-0.483644
C456	C	-0.547286	0.492067	-0.397768
C457	C	-0.502294	0.462421	-0.367913
H458	H	-0.562687	0.476234	-0.382363
H459	H	-0.563977	0.527804	-0.406446
H460	H	-0.545705	0.492259	-0.424739
H461	H	-0.503874	0.462233	-0.340943
H462	H	-0.485599	0.426675	-0.359228
H463	H	-0.387422	0.251343	-0.138417
C464	C	-0.775894	0.626820	-0.471846
C465	C	-0.738460	0.589446	-0.476074
H466	H	-0.791751	0.612001	-0.455833
H467	H	-0.764719	0.635423	-0.454975
H468	H	-0.796602	0.658380	-0.501863
H469	H	-0.717749	0.557887	-0.446056
H470	H	-0.749634	0.580836	-0.492945
H471	H	-0.732075	0.720493	-0.607626
C472	C	-0.670907	0.727674	-0.619390
C473	C	-0.640369	0.681148	-0.575151
H474	H	-0.655052	0.742500	-0.635400
H475	H	-0.682071	0.719065	-0.636262
H476	H	-0.696304	0.753015	-0.616510
H477	H	-0.614974	0.655806	-0.578031
H478	H	-0.629198	0.689756	-0.558275
H479	H	-0.426614	0.675254	-0.568760
H480	H	-0.387419	-0.748683	0.016816
H481	H	-0.387416	0.721084	-0.608218
H482	H	-0.301770	0.550701	-0.444180
C483	C	-0.250811	0.307639	-0.199293
C484	C	-0.295054	0.335885	-0.229832
H485	H	-0.234794	0.322297	-0.215148
H486	H	-0.253683	0.310465	-0.173897
H487	H	-0.233949	0.270998	-0.188131
H488	H	-0.311918	0.372525	-0.240992
H489	H	-0.292184	0.333064	-0.255237
C490	C	-0.737568	-0.225906	-0.022435
C491	C	-0.738455	-0.265609	0.016307
H492	H	-0.753426	-0.194042	-0.023632
H493	H	-0.706288	-0.237850	-0.020084
H494	H	-0.752395	-0.218897	-0.049864
H495	H	-0.723624	-0.272621	0.043737
H496	H	-0.769741	-0.253663	0.013960
C497	C	-0.235723	-0.797742	0.012831
C498	C	-0.249702	-0.755135	0.016291
H499	H	-0.205048	-0.812493	0.011630
H500	H	-0.236445	-0.824550	0.039113
H501	H	-0.256193	-0.785074	-0.014601
H502	H	-0.229235	-0.767804	0.043725
H503	H	-0.248977	-0.728322	-0.009993
H504	H	-0.262587	-0.403497	0.016771
C505	C	-0.250814	-0.692379	0.021381
C506	C	-0.295055	-0.664143	0.023674
H507	H	-0.234803	-0.677713	0.022564
H508	H	-0.233947	-0.729016	0.046866
H509	H	-0.253692	-0.689548	-0.006849
H510	H	-0.292177	-0.666977	0.051905
H511	H	-0.311926	-0.627497	-0.001813
H512	H	-0.496128	0.003076	-0.374407
C513	C	-0.330413	-0.122526	-0.392541
C514	C	-0.358506	-0.134327	-0.367927
H515	H	-0.299176	-0.153326	-0.377124
H516	H	-0.340817	-0.112275	-0.423054
H517	H	-0.332188	-0.093977	-0.394129
H518	H	-0.356733	-0.162873	-0.366341
H519	H	-0.348099	-0.144585	-0.337404
C520	C	-0.233387	-0.275992	-0.162314
C521	C	-0.249384	-0.262296	-0.131775
H522	H	-0.202705	-0.307848	-0.146461
H523	H	-0.253166	-0.281695	-0.173478
H524	H	-0.233435	-0.247722	-0.187712
H525	H	-0.249339	-0.290564	-0.106378
H526	H	-0.229600	-0.256596	-0.120604
H527	H	-0.647059	0.142138	-0.568809
C528	C	-0.290915	-0.171788	-0.267630
C529	C	-0.295053	-0.209256	-0.230185
H530	H	-0.274998	-0.186501	-0.283589
H531	H	-0.320952	-0.140216	-0.288246
H532	H	-0.273982	-0.163246	-0.256446
H533	H	-0.311989	-0.217795	-0.241369
H534	H	-0.265011	-0.240837	-0.209566
