data_functionalizedCrystal
_audit_creation_method	'MofGen! by Chris Wilmer'
_symmetry_space_group_name_H-M	'P1'
_symmetry_Int_Tables_number	1
_symmetry_cell_setting	triclinic
loop_
_symmetry_equiv_pos_as_xyz
  x,y,z
_cell_length_a	21.395364
_cell_length_b	15.297327
_cell_length_c	21.395364
_cell_angle_alpha	80.327192
_cell_angle_beta	90.017013
_cell_angle_gamma	99.721665
loop_
_atom_site_label
_atom_site_type_symbol
_atom_site_fract_x
_atom_site_fract_y
_atom_site_fract_z
Zn1	Zn	0.914670	-0.359086	0.397403
Zn2	Zn	0.896466	-0.509909	0.310746
Zn3	Zn	0.809899	-0.359087	0.292640
Zn4	Zn	0.791727	-0.509964	0.415493
O5	O	0.853191	-0.434511	0.354071
O6	O	0.999936	-0.379069	0.385915
O7	O	0.884969	-0.489880	0.220664
O8	O	0.839021	-0.232823	0.291389
O9	O	0.986562	-0.489879	0.322249
O10	O	0.915996	-0.232823	0.368358
O11	O	0.821369	-0.379071	0.207361
O12	O	0.719808	-0.379124	0.308930
O13	O	0.808050	-0.489972	0.500774
O14	O	0.706457	-0.489973	0.399190
O15	O	0.898375	-0.379122	0.487483
O16	O	0.867349	-0.636179	0.339789
O17	O	0.790398	-0.636219	0.416746
C18	C	0.690398	-0.434555	0.354058
C19	C	0.620752	-0.434596	0.354071
C20	C	0.595014	-0.376992	0.387295
C21	C	0.529581	-0.376968	0.387295
C22	C	0.489887	-0.434564	0.354078
C23	C	0.515633	-0.492172	0.320846
C24	C	0.581065	-0.492188	0.320843
C25	C	0.376401	-0.515818	0.358803
C26	C	0.310970	-0.515803	0.358811
C27	C	0.288072	-0.434514	0.354086
C28	C	0.330614	-0.353237	0.349366
C29	C	0.396047	-0.353253	0.349362
C30	C	0.418936	-0.434553	0.354078
C31	C	0.191386	-0.376879	0.387312
C32	C	0.125952	-0.376854	0.387307
C33	C	0.112004	-0.492066	0.320863
C34	C	0.177437	-0.492083	0.320864
C35	C	0.217124	-0.434491	0.354091
C36	C	0.824943	-0.668938	0.382209
C37	C	0.812916	-0.769227	0.394268
C38	C	0.939409	-1.051715	0.268099
C39	C	0.950709	-0.957489	0.256766
C40	C	0.916262	-0.910419	0.291140
C41	C	0.870513	-0.957584	0.336850
C42	C	0.859208	-1.051819	0.348181
C43	C	0.836061	-0.910523	0.371222
C44	C	0.790311	-0.957688	0.416932
C45	C	0.779009	-1.051915	0.428261
C46	C	0.813457	-1.098985	0.393886
C47	C	0.847365	-0.816288	0.359892
C48	C	0.767164	-0.816392	0.439974
C49	C	0.755864	-0.910618	0.451306
C50	C	1.016619	-0.434468	0.354084
C51	C	1.086263	-0.434449	0.354089
C52	C	0.853216	-0.434553	0.517499
C53	C	0.853227	-0.434571	0.587142
C54	C	0.881566	-0.199169	0.325836
C55	C	0.893658	-0.098880	0.313804
C56	C	0.900252	-0.376861	0.612937
C57	C	0.900245	-0.376846	0.678371
C58	C	0.853216	-0.434558	0.718009
C59	C	0.806183	-0.492271	0.692207
C60	C	0.806188	-0.492278	0.626773
C61	C	0.838461	-0.515840	0.831440
C62	C	0.838460	-0.515835	0.896873
C63	C	0.853196	-0.434536	0.919827
C64	C	0.867947	-0.353241	0.877341
C65	C	0.867952	-0.353247	0.811908
C66	C	0.853205	-0.434556	0.788961
C67	C	0.900216	-0.376806	1.016572
C68	C	0.900204	-0.376790	1.082007
C69	C	0.806144	-0.492223	1.095843
C70	C	0.806154	-0.492231	1.030408
C71	C	0.853193	-0.434524	0.990777
C72	C	0.853165	-0.434497	1.191281
C73	C	0.853174	-0.434500	1.121641
H74	H	0.508622	-0.330055	0.414348
Br75	Br	0.742354	-0.570588	0.745999
H76	H	0.826453	-0.582031	0.931460
H77	H	0.767864	-0.539230	1.009407
Br78	Br	0.245251	-0.298716	0.432401
Br79	Br	0.986150	-1.115599	0.221450
H80	H	0.602019	-0.539097	0.293787
Br81	Br	0.212371	-0.570258	0.275765
H82	H	0.879948	-0.287040	0.896029
Br83	Br	0.797842	-1.226868	0.408984
Br84	Br	0.887967	-0.242924	0.754251
H85	H	0.826295	-0.582026	0.812755
H86	H	0.311974	-0.287043	0.345518
H87	H	0.767891	-0.539271	0.605772
Br88	Br	0.091022	-0.298663	0.432396
H89	H	0.079685	-0.538962	0.293817
Br90	Br	0.407469	-0.626148	0.365204
Br91	Br	0.964038	-0.298476	1.117017
H92	H	0.276337	-0.581984	0.362658
Br93	Br	0.693779	-0.974639	0.513340
H94	H	0.739113	-0.778068	0.467963
Br95	Br	0.461765	-0.570332	0.275761
H96	H	0.627323	-0.330095	0.414351
H97	H	0.938538	-0.329847	0.699377
H98	H	0.741750	-1.090314	0.465473
H99	H	0.884615	-0.777894	0.322674
Br100	Br	1.012800	-0.893485	0.194740
H101	H	0.938555	-0.329870	0.580673
Br102	Br	0.964051	-0.298488	0.962783
Br103	Br	0.931787	-0.782538	0.275949
H104	H	0.767847	-0.539203	1.128114
H105	H	0.430682	-0.287074	0.345516
