data_functionalizedCrystal
_audit_creation_method	'MofGen! by Chris Wilmer'
_symmetry_space_group_name_H-M	'P1'
_symmetry_Int_Tables_number	1
_symmetry_cell_setting	triclinic
loop_
_symmetry_equiv_pos_as_xyz
  x,y,z
_cell_length_a	14.044220
_cell_length_b	13.596369
_cell_length_c	14.519709
_cell_angle_alpha	90.006934
_cell_angle_beta	88.434511
_cell_angle_gamma	90.000253
loop_
_atom_site_label
_atom_site_type_symbol
_atom_site_fract_x
_atom_site_fract_y
_atom_site_fract_z
O1	O	1.258085	0.081691	0.222370
O2	O	1.591418	0.415024	0.555703
O3	O	1.924751	0.748358	0.889037
O4	O	0.982102	0.081716	0.214346
O5	O	1.315435	0.415049	0.547679
O6	O	1.648768	0.748382	0.881012
O7	O	1.127410	0.081694	0.084710
O8	O	1.460744	0.415027	0.418043
O9	O	1.794077	0.748360	0.751376
O10	O	1.112776	0.081713	0.352006
O11	O	1.446109	0.415046	0.685339
O12	O	1.779443	0.748380	1.018673
O13	O	1.127396	-0.081889	0.084701
O14	O	1.460729	0.251444	0.418034
O15	O	1.794063	0.584778	0.751368
O16	O	0.982087	-0.081867	0.214337
O17	O	1.315421	0.251466	0.547670
O18	O	1.648754	0.584799	0.881004
O19	O	1.258070	-0.081892	0.222361
O20	O	1.591403	0.251441	0.555695
O21	O	1.924737	0.584775	0.889028
Zn22	Zn	1.120076	-0.107852	0.218348
Zn23	Zn	1.453410	0.225481	0.551681
Zn24	Zn	1.786743	0.558815	0.885014
Zn25	Zn	1.120095	0.107676	0.218359
Zn26	Zn	1.453429	0.441009	0.551693
Zn27	Zn	1.786762	0.774342	0.885026
O28	O	1.112761	-0.081870	0.351997
O29	O	1.446095	0.251463	0.685331
O30	O	1.779428	0.584797	1.018664
C31	C	0.946774	-0.000073	0.210829
C32	C	1.280107	0.333261	0.544162
C33	C	1.613441	0.666594	0.877496
C34	C	0.841531	-0.000064	0.200352
C35	C	1.174864	0.333270	0.533685
C36	C	1.508197	0.666603	0.867018
N37	N	1.120070	-0.254944	0.218340
N38	N	1.453404	0.078390	0.551673
N39	N	1.786737	0.411723	0.885007
C40	C	0.648837	-0.000084	0.181197
C41	C	0.982170	0.333249	0.514531
C42	C	1.315503	0.666582	0.847864
C43	C	0.591329	-0.000083	0.255505
C44	C	0.924663	0.333250	0.588839
C45	C	1.257996	0.666583	0.922172
C46	C	0.484108	-0.000095	0.244848
C47	C	0.817441	0.333238	0.578181
C48	C	1.150775	0.666572	0.911514
C49	C	0.756068	-0.000073	0.191854
C50	C	1.089402	0.333261	0.525187
C51	C	1.422735	0.666594	0.858520
C52	C	1.120094	-0.656235	0.218360
C53	C	1.453428	-0.322901	0.551693
C54	C	1.786761	0.010432	0.885027
C55	C	1.120085	-0.544583	0.218357
C56	C	1.453418	-0.211250	0.551691
C57	C	1.786751	0.122083	0.885024
C58	C	1.120083	-0.455593	0.218351
C59	C	1.453416	-0.122259	0.551684
C60	C	1.786749	0.211074	0.885017
C61	C	1.120072	-0.343934	0.218347
C62	C	1.453406	-0.010601	0.551680
C63	C	1.786739	0.322732	0.885013
C64	C	1.293398	-0.000101	0.225878
C65	C	1.626731	0.333232	0.559211
C66	C	1.960064	0.666565	0.892545
C67	C	1.398641	-0.000104	0.236355
C68	C	1.731975	0.333229	0.569689
C69	C	2.065308	0.666563	0.903022
N70	N	1.120109	0.254767	0.218360
N71	N	1.453442	0.588101	0.551694
N72	N	1.786776	0.921434	0.885027
C73	C	1.126721	-0.000098	0.050290
C74	C	1.460054	0.333236	0.383624
C75	C	1.793388	0.666569	0.716957
C76	C	1.124677	-0.000098	-0.052256
C77	C	1.458011	0.333235	0.281078
C78	C	1.791344	0.666569	0.614411
C79	C	1.117153	-0.000072	-0.427758
C80	C	1.450487	0.333261	-0.094425
C81	C	1.783820	0.666595	0.238908
C82	C	1.119243	-0.000079	-0.323282
C83	C	1.452576	0.333254	0.010051
C84	C	1.785909	0.666587	0.343385
C85	C	1.120915	-0.000086	-0.240010
C86	C	1.454248	0.333247	0.093323
C87	C	1.787582	0.666581	0.426656
C88	C	1.123005	-0.000092	-0.135527
C89	C	1.456338	0.333242	0.197806
C90	C	1.789672	0.666575	0.531139
C91	C	1.113451	-0.000076	0.386416
C92	C	1.446784	0.333257	0.719750
C93	C	1.780117	0.666590	1.053083
C94	C	1.115494	-0.000070	0.488963
C95	C	1.448828	0.333264	0.822296
C96	C	1.782161	0.666597	1.155629
H97	H	0.617546	-0.000095	0.109582
H98	H	0.950879	0.333239	0.442915
H99	H	1.284213	0.666572	0.776248
H100	H	0.622622	-0.000073	0.327127
H101	H	0.955955	0.333260	0.660460
H102	H	1.289289	0.666593	0.993794
