data_functionalizedCrystal
_audit_creation_method	'MofGen! by Chris Wilmer'
_symmetry_space_group_name_H-M	'P1'
_symmetry_Int_Tables_number	1
_symmetry_cell_setting	triclinic
loop_
_symmetry_equiv_pos_as_xyz
  x,y,z
_cell_length_a	14.044190
_cell_length_b	11.792241
_cell_length_c	10.868271
_cell_angle_alpha	90.000107
_cell_angle_beta	89.990065
_cell_angle_gamma	91.307403
loop_
_atom_site_label
_atom_site_type_symbol
_atom_site_fract_x
_atom_site_fract_y
_atom_site_fract_z
O1	O	0.129987	-1.519115	-0.102217
O2	O	0.143384	-1.190032	-0.102247
O3	O	-0.001325	-1.349630	-0.102208
O4	O	0.274696	-1.359517	-0.102256
O5	O	-0.001331	-1.349615	0.102436
O6	O	0.143378	-1.190017	0.102398
O7	O	0.129981	-1.519100	0.102428
Zn8	Zn	0.136679	-1.354556	0.134904
Zn9	Zn	0.136686	-1.354576	-0.134724
O10	O	0.274690	-1.359502	0.102389
C11	C	0.142539	-1.147655	0.000072
C12	C	0.140021	-1.021404	0.000061
C13	C	-0.036664	-1.345297	0.000117
C14	C	-0.141957	-1.332395	0.000127
C15	C	0.130826	-1.561478	0.000106
C16	C	0.133344	-1.687728	0.000109
C17	C	-0.391894	-1.400312	0.000085
C18	C	-0.334735	-1.308825	0.000085
C19	C	-0.227463	-1.321943	0.000108
C20	C	-0.499176	-1.387197	0.000062
C21	C	0.310029	-1.363835	0.000061
C22	C	0.415322	-1.376737	0.000043
N23	N	0.136673	-1.354551	0.318919
C24	C	0.135389	-0.790257	0.000097
C25	C	0.137962	-0.918884	0.000078
N26	N	0.136684	-1.354589	-0.318738
C27	C	0.136684	-1.354570	0.569925
C28	C	0.136681	-1.354556	0.430247
H29	H	-0.366364	-1.220649	0.000070
C30	C	-0.349174	-1.519427	0.000120
C31	C	-0.240331	-1.532545	0.000152
C32	C	-0.197597	-1.651658	0.000192
C33	C	-0.263706	-1.757654	0.000200
C34	C	-0.372556	-1.744540	0.000168
C35	C	-0.415290	-1.625426	0.000128
H36	H	-0.191386	-1.454078	0.000146
H37	H	-0.117019	-1.661366	0.000216
H38	H	-0.232072	-1.845829	0.000230
H39	H	-0.421501	-1.823007	0.000174
H40	H	-0.495868	-1.615719	0.000104
