data_functionalizedCrystal
_audit_creation_method	'MofGen! by Chris Wilmer'
_symmetry_space_group_name_H-M	'P1'
_symmetry_Int_Tables_number	1
_symmetry_cell_setting	triclinic
loop_
_symmetry_equiv_pos_as_xyz
  x,y,z
_cell_length_a	13.635800
_cell_length_b	9.514088
_cell_length_c	19.453103
_cell_angle_alpha	92.253410
_cell_angle_beta	78.290822
_cell_angle_gamma	61.156455
loop_
_atom_site_label
_atom_site_type_symbol
_atom_site_fract_x
_atom_site_fract_y
_atom_site_fract_z
V1	V	2.104450	-0.501499	-0.098428
O2	O	2.100831	-0.491184	0.003449
O3	O	2.075394	-0.498808	-0.193934
O4	O	2.121880	-0.719883	-0.097477
O5	O	2.054023	-0.268579	-0.093677
V6	V	2.341499	-0.473550	-0.086176
O7	O	2.245416	-0.562807	-0.125304
O8	O	2.425631	-0.412242	-0.059300
O9	O	2.258951	-0.476241	0.009330
O10	O	2.403816	-0.483865	-0.188053
O11	O	2.450624	-0.706470	-0.090927
O12	O	2.212465	-0.255166	-0.087128
V13	V	2.604450	-0.501499	-0.098428
O14	O	2.600831	-0.491184	0.003449
O15	O	2.575394	-0.498808	-0.193934
O16	O	2.621880	-0.719883	-0.097477
O17	O	2.554023	-0.268579	-0.093677
V18	V	2.841499	-0.473550	-0.086176
O19	O	2.745416	-0.562807	-0.125304
O20	O	2.925631	-0.412242	-0.059300
O21	O	2.758951	-0.476241	0.009330
O22	O	2.903816	-0.483865	-0.188053
O23	O	2.950624	-0.706470	-0.090927
O24	O	2.712465	-0.255166	-0.087128
C25	C	1.995366	-0.491087	-0.217199
C26	C	2.012530	-0.490343	-0.295280
C27	C	2.113011	-0.498024	-0.335555
C28	C	2.129144	-0.497341	-0.408922
C29	C	2.044779	-0.488943	-0.442009
C30	C	1.944286	-0.481270	-0.401725
C31	C	1.928162	-0.481970	-0.328361
N32	N	1.971528	-0.389969	-0.548027
N33	N	1.986851	-0.389302	-0.617720
C34	C	2.093358	-0.486838	-0.663050
N35	N	2.183972	-0.585048	-0.636055
N36	N	2.168648	-0.585709	-0.566355
C37	C	2.062254	-0.488185	-0.521559
C38	C	2.211340	-0.493781	-0.782878
C39	C	2.227473	-0.493108	-0.856247
C40	C	2.042606	-0.477020	-0.849048
C41	C	2.026482	-0.477711	-0.775682
C42	C	2.110850	-0.486083	-0.742601
C43	C	2.054663	-0.773088	-0.094157
C44	C	2.109524	-0.951623	-0.094010
C45	C	2.170649	-0.483958	0.032591
C46	C	2.143106	-0.484713	0.110671
C47	C	2.111351	-0.201952	-0.090450
C48	C	2.046110	-0.023416	-0.090593
C49	C	2.495366	-0.491087	-0.217199
C50	C	2.512530	-0.490343	-0.295280
C51	C	2.554663	-0.773088	-0.094157
C52	C	2.609524	-0.951623	-0.094010
C53	C	2.670649	-0.483958	0.032591
C54	C	2.643106	-0.484713	0.110671
C55	C	2.611351	-0.201952	-0.090450
C56	C	2.546110	-0.023416	-0.090593
C57	C	2.613028	-0.498045	-0.335550
C58	C	2.629177	-0.497370	-0.408917
C59	C	2.544824	-0.488981	-0.442014
C60	C	2.444319	-0.481283	-0.401739
C61	C	2.428175	-0.481970	-0.328374
C62	C	2.715103	-0.477015	0.150940
C63	C	2.689227	-0.477698	0.224307
C64	C	2.591358	-0.486090	0.257404
C65	C	2.519355	-0.493784	0.217130
C66	C	2.545227	-0.493089	0.143765
H67	H	2.181716	-0.504853	-0.308626
F68	F	2.236096	-0.505518	-0.451793
H69	H	2.346335	-0.475689	-0.295591
F70	F	2.334428	-0.501295	-0.899111
H71	H	2.705793	-1.026752	-0.096826
H72	H	1.875598	-0.474437	-0.428670
H73	H	2.205793	-1.026752	-0.096826
H74	H	2.794799	-0.470183	0.124003
F75	F	1.920289	-0.925235	-0.086923
F76	F	1.821211	-0.473793	-0.285496
H77	H	2.747869	-0.471435	0.257088
H78	H	2.439668	-0.500615	0.244088
F79	F	1.952822	-0.468099	-0.884257
F80	F	2.301139	-0.502721	-0.747670
F81	F	2.702822	-0.506984	-0.300340
H82	H	1.944656	-0.471445	-0.742889
H83	H	2.557984	-0.488423	-0.501753
H84	H	2.449850	-0.948298	-0.087785
H85	H	2.711018	-0.503634	-0.441699
H86	H	2.375644	-0.474453	-0.428698
H87	H	2.570304	-0.486653	0.317143
H88	H	2.486598	-0.499372	0.110982
