data_functionalizedCrystal
_audit_creation_method	'MofGen! by Chris Wilmer'
_symmetry_space_group_name_H-M	'P1'
_symmetry_Int_Tables_number	1
_symmetry_cell_setting	triclinic
loop_
_symmetry_equiv_pos_as_xyz
  x,y,z
_cell_length_a	17.052832
_cell_length_b	21.606444
_cell_length_c	21.606444
_cell_angle_alpha	59.991153
_cell_angle_beta	102.317002
_cell_angle_gamma	67.556012
loop_
_atom_site_label
_atom_site_type_symbol
_atom_site_fract_x
_atom_site_fract_y
_atom_site_fract_z
Zr1	Zr	0.773250	0.677503	0.048838
O2	O	0.645080	0.806639	-0.071588
O3	O	0.812541	0.548371	0.085770
O4	O	0.812533	0.677507	-0.043376
O5	O	0.645094	0.677499	0.159413
O6	O	0.944624	0.677505	-0.021139
O7	O	0.645087	0.677504	0.057558
O8	O	0.944638	0.446505	0.209879
O9	O	0.645081	0.908500	-0.071605
O10	O	0.927877	0.601482	0.118098
O11	O	0.829304	0.601480	0.177516
O12	O	0.829295	0.753521	0.025464
O13	O	0.730722	0.753519	0.084882
Zr14	Zr	0.983931	0.677494	0.246751
Zr15	Zr	0.983920	0.677500	0.084303
Zr16	Zr	0.773261	0.677496	0.211285
Zr17	Zr	0.773252	0.839958	0.048811
Zr18	Zr	0.983930	0.515038	0.246778
O19	O	0.944640	0.806626	0.209819
O20	O	0.944625	0.806635	-0.021160
O21	O	0.645095	0.806629	0.159392
O22	O	1.112101	0.548357	0.367176
O23	O	1.112086	0.548367	0.136197
O24	O	0.812556	0.548361	0.316749
O25	O	1.112087	0.677498	0.136176
O26	O	0.944648	0.677490	0.338964
O27	O	0.812557	0.677491	0.316727
O28	O	1.112094	0.677493	0.238031
O29	O	0.812535	0.908497	-0.043414
O30	O	0.944646	0.446499	0.339003
O31	O	1.112101	0.446497	0.367193
O32	O	1.112092	0.446503	0.238069
O33	O	0.645089	0.908494	0.057519
O34	O	0.812544	0.908492	0.085710
O35	O	0.927887	0.601476	0.270125
O36	O	1.026460	0.601478	0.210706
O37	O	0.927878	0.753516	0.118073
O38	O	0.829305	0.753514	0.177491
C39	C	0.878589	0.474292	0.147828
C40	C	0.878589	0.405325	0.147839
C41	C	0.805812	0.429063	0.079460
C42	C	0.805815	0.364274	0.079444
C43	C	0.878591	0.275747	0.147812
C44	C	0.951374	0.252009	0.216196
C45	C	0.951375	0.316798	0.216208
C46	C	0.951374	-0.009277	0.216148
C47	C	0.951366	-0.074066	0.216132
C48	C	0.805814	0.038199	0.079385
C49	C	0.805814	0.102988	0.079397
C50	C	0.878601	0.079244	0.147778
C51	C	0.878598	0.149497	0.147794
C52	C	0.878590	0.205495	0.147800
C53	C	0.615075	0.677502	0.103432
C54	C	0.525640	0.677503	0.088376
C55	C	0.273562	0.677488	0.270403
C56	C	0.357594	0.677482	0.284554
C57	C	0.399609	0.677487	0.235510
C58	C	0.357585	0.677499	0.172314
C59	C	0.273549	0.677499	0.158167
C60	C	0.399597	0.677498	0.123274
C61	C	0.357572	0.677509	0.060078
C62	C	0.273544	0.677510	0.045933
C63	C	0.231529	0.677504	0.094976
C64	C	0.483632	0.677498	0.137422
C65	C	0.483620	0.677508	0.025185
C66	C	0.399588	0.677515	0.011035
C67	C	1.142106	0.677495	0.192156
C68	C	1.231541	0.677494	0.207212
C69	C	0.878577	0.677507	-0.055403
C70	C	0.878573	0.677510	-0.124366
C71	C	0.878592	0.880705	0.147761
C72	C	0.878593	0.949672	0.147749
C73	C	0.827114	0.756872	-0.205118
C74	C	0.827122	0.756870	-0.269912
C75	C	0.878585	0.677504	-0.253952
C76	C	0.930050	0.598136	-0.173190
C77	C	0.930047	0.598139	-0.108398
C78	C	0.930066	0.598121	-0.434491
C79	C	0.930063	0.598124	-0.499292
C80	C	0.827141	0.756851	-0.596005
C81	C	0.827138	0.756854	-0.531212
C82	C	0.878607	0.677487	-0.450456
C83	C	0.878599	0.677490	-0.380200
C84	C	0.878588	0.677500	-0.324207
C85	C	0.878604	0.677490	0.350991
C86	C	0.878609	0.677487	0.419954
C87	C	1.142105	0.474288	0.192190
C88	C	1.231539	0.405321	0.207257
C89	C	0.878603	0.474283	0.351025
C90	C	0.878607	0.405313	0.419999
C91	C	1.142118	0.474280	0.395387
C92	C	1.231557	0.405309	0.479417
C93	C	0.615063	0.880717	-0.099798
C94	C	0.525624	0.949688	-0.183829
C95	C	0.615076	0.880708	0.103399
C96	C	0.525642	0.949676	0.088331
C97	C	0.878579	0.880714	-0.055436
C98	C	0.878575	0.949683	-0.124411
C99	C	1.222079	0.372935	0.165986
C100	C	1.306104	0.308142	0.180127
C101	C	1.399588	0.275730	0.235544
C102	C	1.409046	0.308122	0.276817
C103	C	1.325022	0.372919	0.262671
C104	C	0.930068	0.372922	0.500738
C105	C	0.930068	0.308127	0.565553
C106	C	0.878612	0.275720	0.549628
C107	C	0.827144	0.308118	0.468880
C108	C	0.827139	0.372916	0.404067
C109	C	1.325022	0.372921	0.487865
C110	C	1.409067	0.308124	0.566816
C111	C	1.399646	0.275713	0.637318
C112	C	1.306172	0.308108	0.628867
C113	C	1.222128	0.372907	0.549918
C114	C	0.432160	0.982084	-0.192276
C115	C	0.348114	1.046900	-0.271227
C116	C	0.357535	1.079315	-0.341730
C117	C	0.451010	1.046916	-0.333279
C118	C	0.535053	0.982105	-0.254329
C119	C	0.535102	0.982068	0.129596
C120	C	0.451077	1.046880	0.115437
C121	C	0.357593	1.079293	0.060017
C122	C	0.348135	1.046898	0.018748
C123	C	0.432159	0.982092	0.032903
C124	C	0.930041	0.982070	-0.108460
C125	C	0.930056	1.046865	-0.173259
C126	C	0.878599	1.079278	-0.254010
C127	C	0.827132	1.046885	-0.269960
C128	C	0.827123	0.982086	-0.205160
H129	H	0.746550	0.175069	0.023727
Br130	Br	0.221256	1.090895	-0.056460
H131	H	0.424443	0.955720	-0.000700
H132	H	1.467998	0.222968	0.247056
Br133	Br	0.540656	0.677481	0.223186
H134	H	0.163100	0.677513	0.083453
Br135	Br	0.463936	1.090829	0.171456
H136	H	0.468032	0.677482	0.247035
Br137	Br	0.757264	0.864589	-0.226789
H138	H	1.332711	0.399300	0.430467
Br139	Br	1.095219	0.416909	0.090769
H140	H	0.785209	0.955724	-0.218160
H141	H	0.971970	0.399301	0.513720
H142	H	0.746551	0.057526	0.023703
Br143	Br	0.757282	0.864580	-0.379506
Br144	Br	0.999883	0.938097	0.001124
Br145	Br	0.221270	1.090855	-0.282676
Br146	Br	0.540640	0.677507	-0.041371
H147	H	0.785237	1.073285	-0.335716
Br148	Br	0.757296	0.416864	0.294494
Br149	Br	0.243465	1.167274	-0.448871
Br150	Br	0.878629	0.187779	0.637600
H151	H	0.785227	0.821482	-0.544216
H152	H	0.785235	0.821476	-0.661766
H153	H	0.971973	0.533491	-0.486287
Br154	Br	0.999923	0.264172	0.675130
H155	H	0.785250	0.281722	0.455926
H156	H	0.971976	0.533495	-0.368744
H157	H	0.971966	1.073233	-0.160257
H158	H	0.878614	1.132041	-0.306767
H159	H	1.485170	0.281755	0.573682
Br160	Br	1.513716	0.187770	0.744460
Br161	Br	0.463779	1.090915	-0.428970
H162	H	1.010633	-0.146152	0.271808
Br163	Br	0.999898	0.490424	-0.151528
Br164	Br	1.293403	0.264112	0.724558
Br165	Br	0.661895	0.938143	-0.242879
H166	H	0.746540	0.501144	0.023793
H167	H	0.424470	0.955696	-0.134879
Br168	Br	0.707041	0.396496	-0.013360
Br169	Br	0.243569	1.167245	0.040817
Br170	Br	1.050149	-0.041508	0.308956
Br171	Br	0.216521	0.677506	-0.039821
H172	H	1.298384	0.281776	0.146515
H173	H	1.010634	0.179925	0.271860
Br174	Br	0.414628	0.677463	0.370316
Br175	Br	1.050153	0.284580	0.309009
H176	H	1.332739	0.399279	0.296286
Br177	Br	0.216551	0.677466	0.336965
H178	H	0.365361	0.677524	-0.040420
Br179	Br	0.999903	0.490430	0.001201
Br180	Br	1.535926	0.264124	0.352026
Br181	Br	1.095287	0.416851	0.538468
Br182	Br	0.661963	0.938096	0.204811
