data_functionalizedCrystal
_audit_creation_method	'MofGen! by Chris Wilmer'
_symmetry_space_group_name_H-M	'P1'
_symmetry_Int_Tables_number	1
_symmetry_cell_setting	triclinic
loop_
_symmetry_equiv_pos_as_xyz
  x,y,z
_cell_length_a	6.817900
_cell_length_b	19.551823
_cell_length_c	16.306216
_cell_angle_alpha	95.875295
_cell_angle_beta	103.467292
_cell_angle_gamma	101.663376
loop_
_atom_site_label
_atom_site_type_symbol
_atom_site_fract_x
_atom_site_fract_y
_atom_site_fract_z
V1	V	-4.017387	-0.097222	-0.263423
O2	O	-4.014320	0.004109	-0.258002
O3	O	-3.960081	-0.192235	-0.262011
O4	O	-3.968953	-0.095974	-0.378132
O5	O	-4.005386	-0.092818	-0.141077
V6	V	-4.502174	-0.085073	-0.248742
O7	O	-4.275874	-0.123873	-0.295626
O8	O	-4.693884	-0.058422	-0.216538
O9	O	-4.336274	0.009940	-0.250153
O10	O	-4.622638	-0.186404	-0.254162
O11	O	-4.631572	-0.089477	-0.371087
O12	O	-4.327401	-0.086321	-0.134032
C13	C	-3.802916	-0.215389	-0.257956
C14	C	-3.837347	-0.293064	-0.257567
C15	C	-3.814233	-0.092597	-0.406079
C16	C	-3.855857	-0.092205	-0.499857
C17	C	-4.035287	-0.333118	-0.261603
C18	C	-4.067644	-0.406104	-0.261246
C19	C	-3.902041	-0.439030	-0.256836
C20	C	-3.704075	-0.398967	-0.252804
C21	C	-3.671728	-0.325984	-0.253170
C22	C	-3.788828	-0.545406	-0.203341
C23	C	-3.821179	-0.618387	-0.202971
C24	C	-4.001803	-0.664133	-0.255711
C25	C	-4.150101	-0.636889	-0.308812
C26	C	-4.117754	-0.563906	-0.309178
C27	C	-3.937095	-0.518167	-0.256439
C28	C	-4.234842	-0.783327	-0.259361
C29	C	-4.267194	-0.856314	-0.259009
C30	C	-3.903615	-0.849175	-0.250559
C31	C	-3.871272	-0.776190	-0.250919
C32	C	-4.036891	-0.743270	-0.255317
C33	C	-4.006945	-0.090797	-0.840604
C34	C	-4.210933	-0.095433	-0.810174
C35	C	-4.167650	-0.095572	-0.712583
C36	C	-3.931990	-0.091496	-0.671555
C37	C	-3.802732	-0.022193	-0.691479
C38	C	-3.847400	-0.021762	-0.789076
C39	C	-3.914363	-0.155219	-0.814749
C40	C	-3.875670	-0.156587	-0.717438
C41	C	-3.889616	-0.091889	-0.576016
C42	C	-4.049311	-0.090400	-0.936142
C43	C	-4.156781	0.033090	-0.254205
C44	C	-4.101587	0.110765	-0.254600
C45	C	-4.145464	-0.089700	-0.106081
C46	C	-4.083078	-0.090088	-0.012302
H47	H	-4.170154	-0.306320	-0.265189
H48	H	-3.510539	-0.293372	-0.249884
H49	H	-4.428387	-0.888926	-0.262301
C50	C	-4.348796	-0.687196	-0.366832
H51	H	-4.432482	-0.660518	-0.398502
H52	H	-4.312722	-0.719552	-0.405036
H53	H	-4.423788	-0.712550	-0.332740
C54	C	-4.306980	-0.032921	-0.833619
H55	H	-4.223301	-0.004007	-0.861868
H56	H	-4.442575	-0.050394	-0.870329
H57	H	-4.314277	-0.005784	-0.783114
H58	H	-4.228836	-0.438722	-0.264532
H59	H	-3.908221	0.026969	-0.804037
H60	H	-4.238502	-0.541727	-0.352416
C61	C	-3.590149	-0.495091	-0.145312
H62	H	-3.506486	-0.521767	-0.113624
H63	H	-3.515138	-0.469730	-0.179387
H64	H	-3.626270	-0.462741	-0.107111
H65	H	-4.022775	-0.207297	-0.850805
C66	C	-4.235201	-0.032885	-0.671298
H67	H	-4.289215	-0.007230	-0.714173
H68	H	-4.339060	-0.050098	-0.643601
H69	H	-4.118973	-0.002641	-0.630657
C70	C	-4.417006	-0.747110	-0.264207
H71	H	-4.369387	-0.697905	-0.263835
H72	H	-4.522079	-0.767020	-0.315333
H73	H	-4.471914	-0.754052	-0.216429
H74	H	-3.768779	-0.875983	-0.246973
C75	C	-3.641654	-0.013403	-0.815034
H76	H	-3.531162	-0.010272	-0.765938
H77	H	-3.649270	-0.053177	-0.855330
H78	H	-3.617592	0.028388	-0.839837
H79	H	-3.629516	-0.016689	-0.663968
C80	C	-4.005082	-0.225803	-0.701606
H81	H	-4.093066	-0.215086	-0.667176
H82	H	-4.087030	-0.252849	-0.754679
H83	H	-3.914971	-0.252171	-0.673175
C84	C	-3.854373	0.043123	-0.647938
H85	H	-3.954618	0.028301	-0.617601
H86	H	-3.732018	0.071928	-0.609321
H87	H	-3.908387	0.069427	-0.690038
C88	C	-4.303581	-0.162886	-0.695471
H89	H	-4.385832	-0.190388	-0.748238
H90	H	-4.217339	-0.189711	-0.665546
H91	H	-4.391451	-0.150089	-0.662085
H92	H	-3.569242	-0.425780	-0.249216
C93	C	-3.647378	-0.158029	-0.680430
H94	H	-3.583133	-0.118775	-0.636320
H95	H	-3.641112	-0.200654	-0.657815
H96	H	-3.577025	-0.155528	-0.724330
C97	C	-3.709908	-0.151507	-0.840863
H98	H	-3.654700	-0.190566	-0.825069
H99	H	-3.735600	-0.152950	-0.900901
H100	H	-3.613276	-0.108710	-0.812715
C101	C	-3.658085	-0.648353	-0.144552
H102	H	-3.703233	-0.698369	-0.151875
H103	H	-3.529669	-0.636098	-0.159006
H104	H	-3.640767	-0.629083	-0.086723
C105	C	-4.376261	-0.162501	-0.857135
H106	H	-4.498138	-0.164307	-0.837860
H107	H	-4.408136	-0.161474	-0.916830
H108	H	-4.324513	-0.203104	-0.845677
H109	H	-3.710086	-0.743577	-0.247628
