data_functionalizedCrystal
_audit_creation_method	'MofGen! by Chris Wilmer'
_symmetry_space_group_name_H-M	'P1'
_symmetry_Int_Tables_number	1
_symmetry_cell_setting	triclinic
loop_
_symmetry_equiv_pos_as_xyz
  x,y,z
_cell_length_a	15.995288
_cell_length_b	15.072220
_cell_length_c	15.995350
_cell_angle_alpha	90.007147
_cell_angle_beta	96.520422
_cell_angle_gamma	89.993785
loop_
_atom_site_label
_atom_site_type_symbol
_atom_site_fract_x
_atom_site_fract_y
_atom_site_fract_z
O1	O	-1.111017	0.073824	0.107683
O2	O	-0.777684	0.407158	0.441016
O3	O	-0.444350	0.740491	0.774349
O4	O	-0.867234	0.073815	0.121065
O5	O	-0.533901	0.407149	0.454398
O6	O	-0.200568	0.740482	0.787732
O7	O	-0.995790	0.073819	-0.007515
O8	O	-0.662456	0.407153	0.325818
O9	O	-0.329123	0.740486	0.659151
O10	O	-0.982462	0.073821	0.236263
O11	O	-0.649128	0.407154	0.569596
O12	O	-0.315795	0.740487	0.902930
O13	O	-0.995781	-0.073746	-0.007531
O14	O	-0.662448	0.259588	0.325802
O15	O	-0.329115	0.592921	0.659136
O16	O	-0.867226	-0.073750	0.121049
O17	O	-0.533893	0.259584	0.454383
O18	O	-0.200559	0.592917	0.787716
O19	O	-1.111008	-0.073741	0.107667
O20	O	-0.777675	0.259593	0.441000
O21	O	-0.444342	0.592926	0.774334
Zn22	Zn	-0.989116	-0.097174	0.114356
Zn23	Zn	-0.655783	0.236159	0.447689
Zn24	Zn	-0.322449	0.569492	0.781022
Zn25	Zn	-0.989127	0.097249	0.114376
Zn26	Zn	-0.655794	0.430582	0.447710
Zn27	Zn	-0.322460	0.763916	0.781043
O28	O	-0.982453	-0.073745	0.236247
O29	O	-0.649120	0.259589	0.569581
O30	O	-0.315787	0.592922	0.902914
C31	C	-0.836035	0.000032	0.120513
C32	C	-0.502701	0.333365	0.453847
C33	C	-0.169368	0.666698	0.787180
C34	C	-0.743081	0.000029	0.118882
C35	C	-0.409748	0.333362	0.452216
C36	C	-0.076415	0.666695	0.785549
N37	N	-0.989114	-0.229863	0.114341
N38	N	-0.655781	0.103470	0.447675
N39	N	-0.322448	0.436804	0.781008
C40	C	-0.572897	0.000033	0.115870
C41	C	-0.239564	0.333367	0.449204
C42	C	0.093769	0.666700	0.782537
C43	C	-0.525431	0.000031	0.207420
C44	C	-0.192098	0.333364	0.540754
C45	C	0.141235	0.666698	0.874087
C46	C	-0.428743	0.000367	0.205754
C47	C	-0.095410	0.333700	0.539088
C48	C	0.237924	0.667034	0.872421
C49	C	-0.405340	0.000037	0.112906
C50	C	-0.072006	0.333370	0.446239
C51	C	0.261327	0.666704	0.779573
C52	C	-0.446478	0.084138	0.067493
C53	C	-0.113144	0.417471	0.400826
C54	C	0.220189	0.750805	0.734159
C55	C	-0.543112	0.084207	0.069805
C56	C	-0.209778	0.417541	0.403138
C57	C	0.123555	0.750874	0.736472
C58	C	-0.543381	-0.083608	0.068432
C59	C	-0.210048	0.249726	0.401765
C60	C	0.123286	0.583059	0.735099
C61	C	-0.446436	-0.084712	0.068445
C62	C	-0.113103	0.248621	0.401778
C63	C	0.220231	0.581955	0.735111
C64	C	-0.310644	0.000042	0.111226
C65	C	0.022689	0.333375	0.444559
C66	C	0.356023	0.666709	0.777892
C67	C	-0.667594	0.000034	0.117548
C68	C	-0.334260	0.333368	0.450881
C69	C	-0.000927	0.666701	0.784214
C70	C	-0.989128	-0.589065	0.114370
C71	C	-0.655794	-0.255731	0.447703
C72	C	-0.322461	0.077602	0.781036
C73	C	-1.058138	-0.551428	0.045799
C74	C	-0.724805	-0.218095	0.379132
C75	C	-0.391471	0.115239	0.712465
C76	C	-1.057958	-0.448602	0.045546
C77	C	-0.724625	-0.115269	0.378879
C78	C	-0.391291	0.218064	0.712212
C79	C	-0.989122	-0.410861	0.114356
C80	C	-0.655789	-0.077527	0.447689
C81	C	-0.322455	0.255806	0.781022
C82	C	-0.901762	-0.448207	0.095295
C83	C	-0.568429	-0.114873	0.428628
C84	C	-0.235096	0.218460	0.761961
C85	C	-0.902171	-0.551065	0.094810
C86	C	-0.568838	-0.217731	0.428143
C87	C	-0.235504	0.115602	0.761477
C88	C	-1.006690	-0.551140	0.202204
C89	C	-0.673356	-0.217807	0.535538
C90	C	-0.340023	0.115526	0.868871
C91	C	-1.008673	-0.448276	0.201615
C92	C	-0.675339	-0.114942	0.534948
C93	C	-0.342006	0.218391	0.868282
C94	C	-0.989113	-0.310147	0.114349
C95	C	-0.655780	0.023186	0.447683
C96	C	-0.322446	0.356519	0.781016
C97	C	-0.989131	-0.689778	0.114374
C98	C	-0.655797	-0.356445	0.447708
C99	C	-0.322464	-0.023111	0.781041
C100	C	-0.142207	0.000042	0.108230
C101	C	0.191126	0.333375	0.441563
C102	C	0.524460	0.666708	0.774897
C103	C	-0.235156	0.000042	0.109894
C104	C	0.098178	0.333375	0.443227
C105	C	0.431511	0.666708	0.776561
C106	C	-0.995234	0.000038	-0.038718
C107	C	-0.661901	0.333372	0.294616
C108	C	-0.328568	0.666705	0.627949
C109	C	-0.993583	0.000043	-0.131668
C110	C	-0.660249	0.333377	0.201666
C111	C	-0.326916	0.666710	0.534999
N112	N	-0.989135	0.229938	0.114384
N113	N	-0.655802	0.563271	0.447717
N114	N	-0.322469	0.896605	0.781051
C115	C	-0.987650	0.000040	-0.469414
C116	C	-0.654317	0.333374	-0.136081
C117	C	-0.320984	0.666707	0.197253
C118	C	-0.896096	0.000368	-0.421959
C119	C	-0.562762	0.333701	-0.088626
C120	C	-0.229429	0.667035	0.244707
C121	C	-0.897748	0.000035	-0.325269
C122	C	-0.564414	0.333369	0.008064
C123	C	-0.231081	0.666702	0.341397
C124	C	-0.990593	0.000042	-0.301854
C125	C	-0.657259	0.333376	0.031479
C126	C	-0.323926	0.666709	0.364813
C127	C	-1.035746	-0.084221	-0.342951
C128	C	-0.702413	0.249112	-0.009617
C129	C	-0.369079	0.582445	0.323716
C130	C	-1.033446	-0.084292	-0.439586
C131	C	-0.700113	0.249041	-0.106252
C132	C	-0.366779	0.582375	0.227081
C133	C	-1.035347	0.083517	-0.439927
C134	C	-0.702014	0.416851	-0.106593
C135	C	-0.368680	0.750184	0.226740
C136	C	-1.035325	0.084631	-0.342981
C137	C	-0.701992	0.417964	-0.009648
C138	C	-0.368659	0.751298	0.323685
C139	C	-0.992261	0.000041	-0.207157
C140	C	-0.658927	0.333374	0.126176
C141	C	-0.325594	0.666707	0.459510
C142	C	-0.985985	0.000036	-0.564111
C143	C	-0.652652	0.333369	-0.230778
C144	C	-0.319318	0.666703	0.102555
C145	C	-0.983009	0.000038	0.267450
C146	C	-0.649675	0.333372	0.600783
C147	C	-0.316342	0.666705	0.934116
C148	C	-0.984660	0.000039	0.360400
C149	C	-0.651327	0.333372	0.693733
C150	C	-0.317994	0.666706	1.027066
H151	H	-0.400276	-0.059906	0.241439
H152	H	-0.066943	0.273427	0.574772
H153	H	0.266391	0.606761	0.908105
F154	F	-1.143305	-0.583741	0.060392
F155	F	-0.809972	-0.250407	0.393726
F156	F	-0.476639	0.082926	0.727059
F157	F	-0.426383	-0.091682	-0.020035
F158	F	-0.093050	0.241652	0.313298
F159	F	0.240284	0.574985	0.646631
F160	F	-0.947232	-0.414695	0.271436
F161	F	-0.613898	-0.081361	0.604769
F162	F	-0.280565	0.251972	0.938102
H163	H	-0.956366	-0.575484	0.253233
H164	H	-0.623033	-0.242151	0.586567
H165	H	-0.289699	0.091182	0.919900
F166	F	-0.833020	-0.416256	0.158835
F167	F	-0.499686	-0.082923	0.492169
F168	F	-0.166353	0.250411	0.825502
F169	F	-0.851355	0.078987	-0.288099
F170	F	-0.518022	0.412320	0.045235
F171	F	-0.184688	0.745653	0.378568
F172	F	-0.584933	-0.084676	-0.019788
F173	F	-0.251600	0.248658	0.313545
F174	F	0.081733	0.581991	0.646879
H175	H	-0.545043	0.060250	0.243668
H176	H	-0.211710	0.393584	0.577002
H177	H	0.121623	0.726917	0.910335
H178	H	-0.561434	0.147312	0.102545
H179	H	-0.228101	0.480646	0.435879
H180	H	0.105232	0.813979	0.769212
F181	F	-1.123577	0.084266	-0.481461
F182	F	-0.790244	0.417600	-0.148127
F183	F	-0.456910	0.750933	0.185206
H184	H	-0.543919	-0.060268	0.244204
H185	H	-0.210586	0.273065	0.577537
H186	H	0.122748	0.606399	0.910870
H187	H	-1.002312	0.146967	-0.315719
H188	H	-0.668979	0.480300	0.017615
H189	H	-0.335646	0.813634	0.350948
F190	F	-1.142834	-0.415594	0.060388
F191	F	-0.809501	-0.082261	0.393721
F192	F	-0.476167	0.251072	0.727055
H193	H	-0.400898	0.061005	0.241298
H194	H	-0.067565	0.394339	0.574631
H195	H	0.265768	0.727672	0.907964
H196	H	-0.418096	0.146961	0.098640
H197	H	-0.084762	0.480294	0.431973
H198	H	0.248571	0.813628	0.765306
F199	F	-0.585298	0.088899	-0.018062
F200	F	-0.251964	0.422232	0.315272
F201	F	0.081369	0.755566	0.648605
F202	F	-0.848350	-0.077962	-0.447849
F203	F	-0.515016	0.255371	-0.114515
F204	F	-0.181683	0.588704	0.218818
H205	H	-1.046737	-0.424006	-0.019638
H206	H	-0.713404	-0.090672	0.313695
H207	H	-0.380070	0.242661	0.647029
H208	H	-0.432378	0.087029	-0.000730
H209	H	-0.099045	0.420362	0.332603
H210	H	0.234289	0.753695	0.665937
F211	F	-1.123822	0.091294	-0.322918
F212	F	-0.790489	0.424627	0.010416
F213	F	-0.457156	0.757960	0.343749
F214	F	-0.570171	-0.166952	0.107816
F215	F	-0.236838	0.166381	0.441150
F216	F	0.096495	0.499715	0.774483
F217	F	-0.410696	-0.166039	0.111789
F218	F	-0.077363	0.167295	0.445122
F219	F	0.255970	0.500628	0.778455
F220	F	-0.881940	-0.582438	0.011084
F221	F	-0.548607	-0.249105	0.344418
F222	F	-0.215273	0.084228	0.677751
H223	H	-0.862009	-0.060474	-0.297403
H224	H	-0.528675	0.272860	0.035930
H225	H	-0.195342	0.606193	0.369264
F226	F	-0.881032	-0.414552	0.012521
F227	F	-0.547698	-0.081218	0.345855
F228	F	-0.214365	0.252115	0.679188
H229	H	-1.047081	-0.577287	-0.019015
H230	H	-0.713748	-0.243954	0.314318
H231	H	-0.380415	0.089379	0.647652
F232	F	-0.848267	0.079351	-0.446160
F233	F	-0.514933	0.412684	-0.112827
F234	F	-0.181600	0.746018	0.220507
H235	H	-1.004378	-0.146932	-0.314569
H236	H	-0.671044	0.186401	0.018765
H237	H	-0.337711	0.519734	0.352098
H238	H	-0.849276	-0.575963	0.142856
H239	H	-0.515942	-0.242630	0.476189
H240	H	-0.182609	0.090704	0.809523
F241	F	-1.088178	-0.585026	0.226153
F242	F	-0.754845	-0.251693	0.559486
F243	F	-0.421511	0.081640	0.892820
F244	F	-1.092668	-0.416365	0.220528
F245	F	-0.759335	-0.083031	0.553861
F246	F	-0.426001	0.250302	0.887194
F247	F	-0.990397	-0.166626	-0.463508
F248	F	-0.657064	0.166707	-0.130175
F249	F	-0.323730	0.500040	0.203158
H250	H	-1.100664	-0.088110	-0.471849
H251	H	-0.767330	0.245223	-0.138516
H252	H	-0.433997	0.578556	0.194817
F253	F	-1.124903	-0.088314	-0.324509
F254	F	-0.791569	0.245019	0.008824
F255	F	-0.458236	0.578353	0.342157
H256	H	-1.005417	0.147384	-0.460453
H257	H	-0.672084	0.480718	-0.127120
H258	H	-0.338750	0.814051	0.206214
