data_functionalizedCrystal
_audit_creation_method	'MofGen! by Chris Wilmer'
_symmetry_space_group_name_H-M	'P1'
_symmetry_Int_Tables_number	1
_symmetry_cell_setting	triclinic
loop_
_symmetry_equiv_pos_as_xyz
  x,y,z
_cell_length_a	10.723024
_cell_length_b	10.654550
_cell_length_c	9.798715
_cell_angle_alpha	89.998020
_cell_angle_beta	89.996609
_cell_angle_gamma	84.476386
loop_
_atom_site_label
_atom_site_type_symbol
_atom_site_fract_x
_atom_site_fract_y
_atom_site_fract_z
O1	O	1.657213	0.176147	-0.113478
O2	O	1.294064	0.193008	-0.113483
O3	O	1.483988	0.001837	-0.113475
O4	O	1.467289	0.367318	-0.113486
O5	O	1.483974	0.001836	0.113507
O6	O	1.294049	0.193007	0.113499
O7	O	1.657199	0.176146	0.113504
Zn8	Zn	1.475622	0.184577	0.149540
Zn9	Zn	1.475641	0.184577	-0.149519
O10	O	1.467275	0.367317	0.113496
C11	C	1.247557	0.191780	0.000008
C12	C	1.109002	0.188109	0.000006
C13	C	1.034035	0.295078	0.000002
C14	C	0.890831	0.291287	0.000001
C15	C	1.482755	-0.044961	0.000014
C16	C	1.479086	-0.184404	0.000009
C17	C	1.590911	-0.263907	0.000015
C18	C	1.587456	-0.394927	0.000005
C19	C	1.360343	-0.366929	-0.000010
C20	C	1.363799	-0.235912	-0.000010
C21	C	1.706198	-0.212399	0.000034
C22	C	1.818032	-0.291903	0.000041
C23	C	1.814578	-0.422923	0.000031
C24	C	1.699289	-0.474440	0.000015
C25	C	1.703706	0.177373	0.000010
C26	C	1.842261	0.181045	0.000003
C27	C	1.468508	0.414115	0.000004
C28	C	1.472176	0.553558	-0.000000
N29	N	1.475618	0.184575	0.353640
N30	N	1.475654	0.184569	-0.353619
C31	C	1.555362	0.103954	0.421420
C32	C	1.555382	0.103950	0.578582
H33	H	0.906672	0.089466	-0.000002
H34	H	1.067166	0.093722	-0.000026
H35	H	1.709024	-0.105717	0.000046
C36	C	1.647620	0.010698	0.657314
C37	C	1.597682	-0.085513	0.755642
C38	C	1.689923	-0.178768	0.834377
C39	C	1.832101	-0.175812	0.814785
C40	C	1.882045	-0.079597	0.716453
C41	C	1.789805	0.013659	0.637718
H42	H	1.492428	-0.087705	0.770149
H43	H	1.652950	-0.249993	0.907169
H44	H	1.900383	-0.244845	0.873069
H45	H	1.987300	-0.077405	0.701946
H46	H	1.826778	0.084883	0.564926
H47	H	1.696486	-0.581126	-0.000008
H48	H	1.407383	0.253600	0.588102
C49	C	1.383401	0.277823	0.432415
C50	C	1.387103	0.420831	0.412899
C51	C	1.294882	0.514081	0.491670
C52	C	1.198961	0.464323	0.589958
C53	C	1.195255	0.321308	0.609479
C54	C	1.287476	0.228058	0.530708
H55	H	1.458113	0.457671	0.340136
H56	H	1.297625	0.619951	0.477219
H57	H	1.130693	0.533353	0.648270
H58	H	1.124245	0.284468	0.682242
H59	H	1.284733	0.122188	0.545159
H60	H	1.075871	0.389466	0.000007
H61	H	0.826412	0.382860	-0.000008
H62	H	1.911895	-0.249949	0.000020
H63	H	1.266481	-0.408885	-0.000021
H64	H	1.272742	-0.171178	-0.000012
H65	H	1.623616	0.034929	0.363100
H66	H	1.905638	-0.487652	0.000023
