data_functionalizedCrystal
_audit_creation_method	'MofGen! by Chris Wilmer'
_symmetry_space_group_name_H-M	'P1'
_symmetry_Int_Tables_number	1
_symmetry_cell_setting	triclinic
loop_
_symmetry_equiv_pos_as_xyz
  x,y,z
_cell_length_a	10.654543
_cell_length_b	18.266242
_cell_length_c	19.188940
_cell_angle_alpha	90.006796
_cell_angle_beta	96.184556
_cell_angle_gamma	89.995641
loop_
_atom_site_label
_atom_site_type_symbol
_atom_site_fract_x
_atom_site_fract_y
_atom_site_fract_z
O1	O	-1.665786	0.060803	0.098040
O2	O	-1.165786	0.560803	0.598040
O3	O	-1.300109	0.060822	0.107388
O4	O	-0.800109	0.560822	0.607388
O5	O	-1.493494	0.060806	0.001128
O6	O	-0.993494	0.560806	0.501128
O7	O	-1.472401	0.060819	0.204301
O8	O	-0.972401	0.560819	0.704301
O9	O	-1.493461	-0.060956	0.001122
O10	O	-0.993461	0.439044	0.501122
O11	O	-1.300076	-0.060940	0.107382
O12	O	-0.800076	0.439060	0.607382
O13	O	-1.665753	-0.060959	0.098035
O14	O	-1.165753	0.439041	0.598035
Zn15	Zn	-1.482909	-0.080282	0.102708
Zn16	Zn	-0.982909	0.419718	0.602708
Zn17	Zn	-1.482952	0.080145	0.102715
Zn18	Zn	-0.982952	0.580145	0.602715
O19	O	-1.472368	-0.060943	0.204295
O20	O	-0.972368	0.439057	0.704295
C21	C	-1.253309	-0.000057	0.106700
C22	C	-0.753309	0.499943	0.606700
C23	C	-1.113909	-0.000050	0.104649
C24	C	-0.613909	0.499950	0.604649
C25	C	-1.033103	-0.000047	0.167213
C26	C	-0.533103	0.499953	0.667213
C27	C	-0.902122	-0.000058	0.165282
C28	C	-0.402122	0.499942	0.665282
C29	C	-0.932766	-0.000071	0.038218
C30	C	-0.432766	0.499929	0.538218
C31	C	-1.063744	-0.000066	0.040150
C32	C	-0.563744	0.499934	0.540150
N33	N	-1.482889	-0.189769	0.102702
N34	N	-0.982889	0.310231	0.602702
C35	C	-1.568548	-0.228084	0.055674
C36	C	-1.068548	0.271916	0.555674
C37	C	-1.568556	-0.304729	0.055670
C38	C	-1.068556	0.195271	0.555670
C39	C	-1.482917	-0.343056	0.102708
C40	C	-0.982917	0.156944	0.602708
C41	C	-1.397242	-0.304731	0.149740
C42	C	-0.897242	0.195269	0.649740
C43	C	-1.397228	-0.228087	0.149737
C44	C	-0.897228	0.271913	0.649737
N45	N	-1.466597	-0.463384	0.164408
N46	N	-0.966597	0.036616	0.664408
N47	N	-1.466618	-0.536192	0.164409
N48	N	-0.966618	-0.036192	0.664409
C49	C	-1.482952	-0.573978	0.102718
C50	C	-0.982952	-0.073978	0.602718
N51	N	-1.499289	-0.536206	0.041025
N52	N	-0.999289	-0.036206	0.541025
N53	N	-1.499275	-0.463391	0.041025
N54	N	-0.999275	0.036609	0.541025
C55	C	-1.482922	-0.426163	0.102716
C56	C	-0.982922	0.073837	0.602716
C57	C	-1.568624	-0.695401	0.055682
C58	C	-1.068624	-0.195401	0.555682
C59	C	-1.568624	-0.772047	0.055678
C60	C	-1.068624	-0.272047	0.555678
C61	C	-1.397316	-0.772047	0.149754
C62	C	-0.897316	-0.272047	0.649754
C63	C	-1.397311	-0.695402	0.149752
C64	C	-0.897311	-0.195402	0.649752
C65	C	-1.482972	-0.657084	0.102717
C66	C	-0.982972	-0.157084	0.602717
C67	C	-0.712552	-0.000075	0.098726
C68	C	-0.212552	0.499925	0.598726
C69	C	-0.851950	-0.000066	0.100787
C70	C	-0.351950	0.499934	0.600787
C71	C	-1.492792	-0.000074	-0.024890
C72	C	-0.992792	0.499926	0.475110
C73	C	-1.490736	-0.000074	-0.102408
C74	C	-0.990736	0.499926	0.397592
N75	N	-1.482983	0.189632	0.102715
N76	N	-0.982983	0.689632	0.602715
C77	C	-1.476087	-0.066428	-0.655766
C78	C	-0.976087	0.433572	-0.155766
C79	C	-1.478006	-0.066433	-0.582929
C80	C	-0.978006	0.433567	-0.082929
C81	C	-1.478989	-0.000061	-0.546500
C82	C	-0.978989	0.499939	-0.046500
C83	C	-1.478021	0.066320	-0.582912
C84	C	-0.978021	0.566320	-0.082912
C85	C	-1.476089	0.066322	-0.655746
C86	C	-0.976089	0.566322	-0.155746
N87	N	-1.553493	0.049337	-0.436987
N88	N	-1.053493	0.549337	0.063013
N89	N	-1.555331	0.049330	-0.367798
N90	N	-1.055331	0.549330	0.132202
C91	C	-1.484805	-0.000064	-0.327053
C92	C	-0.984805	0.499936	0.172947
N93	N	-1.412388	-0.049462	-0.358112
N94	N	-0.912388	0.450538	0.141888
N95	N	-1.410556	-0.049458	-0.427309
N96	N	-0.910556	0.450542	0.072691
C97	C	-1.481082	-0.000056	-0.467523
C98	C	-0.981082	0.499944	0.032477
C99	C	-1.487844	-0.066445	-0.211671
C100	C	-0.987844	0.433555	0.288329
C101	C	-1.489755	-0.066446	-0.138832
C102	C	-0.989755	0.433554	0.361168
C103	C	-1.489783	0.066308	-0.138817
C104	C	-0.989783	0.566308	0.361183
C105	C	-1.487859	0.066307	-0.211654
C106	C	-0.987859	0.566307	0.288346
C107	C	-1.486896	-0.000071	-0.248077
C108	C	-0.986896	0.499929	0.251923
C109	C	-1.473070	-0.000061	0.230313
C110	C	-0.973070	0.499939	0.730313
C111	C	-1.475126	-0.000057	0.307831
C112	C	-0.975126	0.499943	0.807831
H113	H	-1.073942	-0.000040	0.219733
H114	H	-0.573942	0.499960	0.719733
C115	C	-1.303169	-0.653253	0.201538
C116	C	-0.803169	-0.153253	0.701538
N117	N	-1.232284	-0.621507	0.240562
N118	N	-0.732284	-0.121507	0.740562
C119	C	-1.490806	-0.139465	-0.098788
C120	C	-0.990806	0.360535	0.401212
N121	N	-1.491598	-0.194464	-0.068626
N122	N	-0.991598	0.305536	0.431374
C123	C	-1.475079	0.139339	-0.695795
C124	C	-0.975079	0.639339	-0.195795
N125	N	-1.474335	0.194337	-0.725961
N126	N	-0.974335	0.694337	-0.225961
H127	H	-1.490568	0.120349	-0.109156
H128	H	-0.990568	0.620349	0.390844
C129	C	-1.479110	0.139329	-0.542839
C130	C	-0.979110	0.639329	-0.042839
N131	N	-1.479929	0.194321	-0.512656
N132	N	-0.979929	0.694321	-0.012656
C133	C	-1.486880	0.139323	-0.251704
C134	C	-0.986880	0.639323	0.248296
N135	N	-1.486162	0.194321	-0.281872
N136	N	-0.986162	0.694321	0.218128
H137	H	-1.475301	-0.120479	-0.685417
H138	H	-0.975301	0.379521	-0.185417
H139	H	-1.638371	-0.664201	0.017381
H140	H	-1.138371	-0.164201	0.517381
H141	H	-1.478764	-0.120482	-0.553282
H142	H	-0.978764	0.379518	-0.053282
H143	H	-1.638312	-0.335932	0.017373
H144	H	-1.138312	0.164068	0.517373
H145	H	-1.487049	-0.120494	-0.241327
H146	H	-0.987049	0.379506	0.258673
H147	H	-1.129540	-0.000070	-0.010800
H148	H	-0.629540	0.499930	0.489200
C149	C	-1.303034	-0.346891	0.201478
C150	C	-0.803034	0.153109	0.701478
N151	N	-1.232069	-0.378646	0.240447
N152	N	-0.732069	0.121354	0.740447
C153	C	-0.813241	-0.000058	0.234108
C154	C	-0.313241	0.499942	0.734108
N155	N	-0.746295	-0.000061	0.285950
N156	N	-0.246295	0.499939	0.785950
C157	C	-1.662766	-0.185939	0.003927
C158	C	-1.162766	0.314061	0.503927
N159	N	-1.733727	-0.154193	-0.035052
N160	N	-1.233727	0.345807	0.464948
C161	C	-1.303047	-0.185939	0.201505
C162	C	-0.803047	0.314061	0.701505
N163	N	-1.232129	-0.154191	0.240509
N164	N	-0.732129	0.345809	0.740509
H165	H	-1.327583	-0.803252	0.188050
H166	H	-0.827583	-0.303252	0.688050
C167	C	-0.877572	-0.000082	-0.032728
C168	C	-0.377572	0.499918	0.467272
N169	N	-0.836002	-0.000087	-0.086165
N170	N	-0.336002	0.499913	0.413835
C171	C	-1.662839	-0.814194	0.003928
C172	C	-1.162839	-0.314194	0.503928
N173	N	-1.733798	-0.845940	-0.035054
N174	N	-1.233798	-0.345940	0.464946
