data_functionalizedCrystal
_audit_creation_method	'MofGen! by Chris Wilmer'
_symmetry_space_group_name_H-M	'P1'
_symmetry_Int_Tables_number	1
_symmetry_cell_setting	triclinic
loop_
_symmetry_equiv_pos_as_xyz
  x,y,z
_cell_length_a	33.510554
_cell_length_b	33.509711
_cell_length_c	33.506470
_cell_angle_alpha	60.004186
_cell_angle_beta	60.008358
_cell_angle_gamma	59.994760
loop_
_atom_site_label
_atom_site_type_symbol
_atom_site_fract_x
_atom_site_fract_y
_atom_site_fract_z
O1	O	0.055430	-0.583081	0.487524
O2	O	0.020931	-0.453975	0.392819
O3	O	0.102693	-0.535652	0.392731
O4	O	-0.026332	-0.501404	0.487613
O5	O	0.129823	-0.508526	0.419767
O6	O	0.048062	-0.426850	0.419856
O7	O	0.082561	-0.555956	0.514561
Cu8	Cu	0.067789	-0.488926	0.469677
Cu9	Cu	0.035703	-0.521005	0.437703
O10	O	0.000799	-0.474279	0.514649
N11	N	0.090357	-0.466366	0.492168
N12	N	0.013139	-0.543569	0.415212
C13	C	0.143028	-0.279707	0.544737
C14	C	0.143165	-0.413746	0.678712
C15	C	0.143043	-0.413725	0.544739
C16	C	0.277090	-0.413694	0.544637
C17	C	0.157791	-0.323929	0.559462
C18	C	0.157869	-0.398994	0.634489
C19	C	0.232865	-0.398963	0.559407
C20	C	0.157801	-0.398982	0.559463
C21	C	0.124237	-0.223419	0.525994
C22	C	0.124262	-0.432490	0.525997
C23	C	0.176583	-0.380217	0.578205
C24	C	0.358938	-0.399566	0.501510
C25	C	0.410104	-0.416609	0.484423
C26	C	0.410135	-0.499402	0.515995
C27	C	0.358969	-0.482358	0.533084
C28	C	0.136554	-0.197822	0.475693
C29	C	0.119469	-0.146653	0.458657
C30	C	0.077755	-0.146680	0.542223
C31	C	0.094840	-0.197850	0.559260
C32	C	0.073954	-0.420144	0.538396
C33	C	0.056884	-0.437203	0.521352
C34	C	0.140427	-0.478952	0.479524
C35	C	0.157498	-0.461894	0.496561
C36	C	0.074158	-0.420182	0.760618
C37	C	0.057149	-0.437256	0.811786
C38	C	0.140732	-0.479014	0.811717
C39	C	0.157740	-0.461942	0.760547
C40	C	0.124452	-0.432525	0.734999
C41	C	0.333372	-0.432439	0.525839
C42	C	-0.020612	-0.577650	0.170305
C43	C	-0.020943	-0.788098	0.380897
C44	C	-0.020912	-0.577638	0.380991
C45	C	-0.231336	-0.577418	0.380585
C46	C	-0.129735	-0.611383	0.346870
C47	C	-0.054722	-0.611464	0.347017
C48	C	-0.073450	-0.630202	0.328195
C49	C	-0.087616	-0.712029	0.371239
C50	C	-0.070599	-0.763199	0.388315
C51	C	0.012191	-0.763282	0.356872
C52	C	-0.004828	-0.712113	0.339795
C53	C	-0.155381	-0.623711	0.397158
C54	C	-0.206547	-0.606601	0.414133
C55	C	-0.206417	-0.564839	0.330529
C56	C	-0.155251	-0.581949	0.313554
C57	C	-0.067051	-0.561160	0.334643
C58	C	-0.050026	-0.544131	0.351759
C59	C	-0.008343	-0.627704	0.393612
C60	C	-0.025368	-0.644736	0.376502
C61	C	-0.066922	-0.561168	0.246303
C62	C	-0.049794	-0.544141	0.195134
C63	C	-0.008048	-0.627719	0.195183
C64	C	-0.025175	-0.644745	0.246352
C65	C	-0.054614	-0.611468	0.271911
C66	C	-0.054732	-0.686488	0.346980
C67	C	-0.002117	-0.558258	0.114025
C68	C	-0.002879	-0.844379	0.399940
C69	C	-0.002504	-0.558243	0.399473
C70	C	-0.287615	-0.558285	0.398601
N71	N	0.434975	-0.466279	0.491900
O72	O	0.591199	-0.470749	0.375150
O73	O	0.591395	-0.565767	0.504116
O74	O	0.591311	-0.565550	0.422329
O75	O	0.591283	-0.470966	0.456937
O76	O	0.510024	-0.538522	0.449509
O77	O	0.510108	-0.538739	0.531297
O78	O	0.509913	-0.443721	0.402330
Cu79	Cu	0.502588	-0.488762	0.469295
Cu80	Cu	0.598719	-0.520726	0.437151
O81	O	0.509997	-0.443938	0.484117
N82	N	0.666332	-0.543209	0.414541
N83	N	0.090323	-0.121809	0.492157
O84	O	-0.026342	0.034503	0.487582
O85	O	0.102626	0.034543	0.392540
O86	O	0.020797	0.034507	0.392812
O87	O	0.055487	0.034539	0.487310
O88	O	0.047933	-0.046785	0.419900
O89	O	0.129763	-0.046749	0.419628
O90	O	0.000794	-0.046789	0.514670
Cu91	Cu	0.067756	-0.054192	0.469623
Cu92	Cu	0.035664	0.041946	0.437588
O93	O	0.082623	-0.046753	0.514399
N94	N	0.013091	0.109564	0.415054
N95	N	0.090671	-0.466416	0.836606
O96	O	0.086120	-0.583065	0.992910
O97	O	-0.008880	-0.454051	0.992954
O98	O	-0.008658	-0.535864	0.992931
O99	O	0.085897	-0.501252	0.992933
O100	O	0.018407	-0.508749	0.911642
O101	O	0.018185	-0.426936	0.911665
O102	O	0.113185	-0.555949	0.911621
Cu103	Cu	0.068156	-0.488967	0.904221
Cu104	Cu	0.036148	-0.521034	1.000355
O105	O	0.112963	-0.474136	0.911644
N106	N	0.013633	-0.543590	1.067970
C107	C	0.031262	-0.424144	0.393290
C108	C	0.132513	-0.525291	0.393180
C109	C	0.072229	-0.585787	0.514090
C110	C	-0.029022	-0.484640	0.514200
C111	C	0.550775	-0.565338	0.533954
C112	C	0.550672	-0.565070	0.432670
C113	C	0.550530	-0.444149	0.372492
C114	C	0.550635	-0.444418	0.473776
C115	C	0.132408	-0.005998	0.392963
C116	C	0.031106	-0.006142	0.393333
C117	C	-0.029021	-0.006147	0.514213
C118	C	0.072314	-0.006104	0.513878
C119	C	-0.008430	-0.424240	0.952316
C120	C	-0.008150	-0.525550	0.952271
C121	C	0.112735	-0.585760	0.952260
C122	C	0.112461	-0.484444	0.952286
H123	H	0.016194	-0.427197	0.832639
H124	H	0.079602	-0.622875	0.543835
H125	H	0.338156	-0.509129	0.552896
O126	O	-0.073188	-0.475976	0.549807
C127	C	-0.116851	-0.471563	0.631263
C128	C	-0.066801	-0.481399	0.590984
H129	H	-0.111705	-0.475934	0.664561
H130	H	-0.134438	-0.498687	0.641999
H131	H	-0.141470	-0.432750	0.617030
H132	H	-0.042145	-0.520198	0.605182
H133	H	-0.049254	-0.454245	0.580254
O134	O	0.550861	-0.600880	0.578162
C135	C	0.550920	-0.623596	0.658667
C136	C	0.550835	-0.583306	0.608622
H137	H	0.550889	-0.609399	0.683312
H138	H	0.584967	-0.656915	0.653530
H139	H	0.516930	-0.634294	0.676221
H140	H	0.584802	-0.572566	0.591040
H141	H	0.516766	-0.550013	0.613791
H142	H	-0.037843	-0.532946	0.952238
O143	O	0.550523	-0.408542	0.328305
C144	C	0.592541	-0.355059	0.256542
C145	C	0.592605	-0.395375	0.306579
H146	H	0.626566	-0.344409	0.238957
H147	H	0.558525	-0.321720	0.261691
H148	H	0.592500	-0.369230	0.231919
H149	H	0.592663	-0.381251	0.331228
H150	H	0.626618	-0.428706	0.301392
H151	H	0.142166	-0.477036	0.952281
O152	O	0.176684	-0.533999	0.357588
C153	C	0.220339	-0.538355	0.276111
C154	C	0.170287	-0.528492	0.316380
H155	H	0.215183	-0.533896	0.242781
H156	H	0.244968	-0.577183	0.290290
H157	H	0.237919	-0.511252	0.265440
H158	H	0.152664	-0.555564	0.327068
H159	H	0.145692	-0.489651	0.302179
O160	O	0.550599	-0.600475	0.423845
C161	C	0.508487	-0.623825	0.402348
C162	C	0.508505	-0.583691	0.412341
H163	H	0.474463	-0.610267	0.393034
H164	H	0.508512	-0.657978	0.436235
H165	H	0.542498	-0.632932	0.370340
H166	H	0.474499	-0.574542	0.444332
H167	H	0.508505	-0.549564	0.378429
H168	H	0.023675	-0.006147	0.363643
H169	H	-0.038255	-0.387188	0.952329
H170	H	0.550629	-0.414708	0.481180
H171	H	0.169370	-0.005761	0.363053
H172	H	0.047048	-0.396226	0.739820
H173	H	-0.066059	-0.006159	0.544050
O174	O	0.049191	-0.121915	0.574603
C175	C	0.009655	-0.127343	0.659289
C176	C	0.042000	-0.155448	0.622672
H177	H	0.003840	-0.154442	0.698161
H178	H	-0.027188	-0.103411	0.653465
H179	H	0.028400	-0.103364	0.653345
H180	H	0.023298	-0.179453	0.628594
H181	H	0.078842	-0.179349	0.628506
O182	O	0.148259	-0.629996	0.952263
C183	C	0.170998	-0.710503	0.952202
C184	C	0.130721	-0.660433	0.952211
H185	H	0.156837	-0.735122	0.952149
H186	H	0.181669	-0.728096	0.986225
H187	H	0.204324	-0.705343	0.918186
H188	H	0.097369	-0.665551	0.986204
H189	H	0.120092	-0.642857	0.918166
H190	H	0.079744	-0.006095	0.543566
O191	O	0.022419	-0.379922	0.357788
C192	C	-0.027156	-0.321053	0.306355
C193	C	-0.017186	-0.371148	0.346554
H194	H	-0.059183	-0.313939	0.297268
H195	H	0.006734	-0.320868	0.272210
H196	H	-0.036419	-0.291249	0.319854
H197	H	-0.007935	-0.400980	0.333101
H198	H	-0.051084	-0.371292	0.380691
H199	H	0.198696	-0.471996	0.739692
O200	O	0.173134	-0.507600	0.836459
C201	C	0.257832	-0.547199	0.830990
C202	C	0.221191	-0.514824	0.802909
H203	H	0.296695	-0.553041	0.803878
H204	H	0.251996	-0.584031	0.854927
H205	H	0.251927	-0.528460	0.854961
H206	H	0.227074	-0.533520	0.778912
H207	H	0.227037	-0.477993	0.779004
H208	H	0.046887	-0.396202	0.562361
H209	H	0.167497	-0.502899	0.455559
O210	O	0.008019	-0.425155	0.533311
C211	C	-0.059774	-0.385814	0.503976
C212	C	-0.004431	-0.399417	0.490365
H213	H	-0.069856	-0.365012	0.469261
H214	H	-0.080621	-0.361844	0.527922
H215	H	-0.069811	-0.420550	0.524827
H216	H	0.005651	-0.364708	0.469496
H217	H	0.016385	-0.423405	0.466442
O218	O	0.206384	-0.473941	0.484484
C219	C	0.287447	-0.517109	0.441153
C220	C	0.232099	-0.503515	0.454807
H221	H	0.308254	-0.541013	0.417148
H222	H	0.297594	-0.537976	0.475834
H223	H	0.297469	-0.482366	0.420339
H224	H	0.222038	-0.538233	0.475608
H225	H	0.221982	-0.482629	0.420107
H226	H	0.430973	-0.540048	0.521891
H227	H	0.338097	-0.358917	0.495611
O228	O	0.434866	-0.384607	0.460778
C229	C	0.429442	-0.300692	0.431282
C230	C	0.401337	-0.336878	0.458061
H231	H	0.402346	-0.262097	0.429086
H232	H	0.453354	-0.302214	0.392792
H233	H	0.453438	-0.310985	0.452176
H234	H	0.377315	-0.326610	0.437208
H235	H	0.377456	-0.335351	0.496554
H236	H	0.160490	-0.218637	0.448603
H237	H	0.129496	-0.125810	0.417697
H238	H	-0.059824	-0.503179	0.174290
O239	O	0.082934	-0.222789	0.608106
C240	C	0.090854	-0.301629	0.671391
C241	C	0.104348	-0.273446	0.616059
H242	H	0.108169	-0.342590	0.677839
H243	H	0.049433	-0.291639	0.688722
H244	H	0.104997	-0.291517	0.688578
H245	H	0.090237	-0.283542	0.598830
H246	H	0.145770	-0.283438	0.598764
O247	O	-0.095488	-0.528774	0.271054
C248	C	-0.135095	-0.444079	0.265606
C249	C	-0.102739	-0.480707	0.237514
H250	H	-0.140976	-0.405209	0.238500
H251	H	-0.116388	-0.449959	0.289594
H252	H	-0.171908	-0.449956	0.289525
H253	H	-0.065921	-0.474852	0.213567
H254	H	-0.121484	-0.474818	0.213556
H255	H	-0.015148	-0.685706	0.267200
O256	O	0.020483	-0.660092	0.170413
C257	C	0.027011	-0.726261	0.154718
C258	C	-0.005349	-0.689630	0.182807
H259	H	0.006135	-0.750144	0.164720
H260	H	0.061692	-0.750283	0.164856
H261	H	0.037152	-0.705445	0.113750
H262	H	-0.015528	-0.710406	0.223781
H263	H	-0.040008	-0.665608	0.172629
O264	O	-0.062016	-0.495250	0.339666
C265	C	-0.105149	-0.414150	0.296341
C266	C	-0.091605	-0.469493	0.309996
H267	H	-0.129082	-0.393309	0.272359
H268	H	-0.070418	-0.404109	0.275536
H269	H	-0.126000	-0.404061	0.331052
H270	H	-0.070766	-0.479621	0.275310
H271	H	-0.126353	-0.479504	0.330820
H272	H	-0.090949	-0.534065	0.310634
H273	H	-0.015331	-0.685697	0.386578
O274	O	0.020223	-0.660073	0.422192
C275	C	0.095493	-0.726313	0.428842
C276	C	0.063185	-0.689688	0.396425
H277	H	0.130240	-0.750260	0.408018
H278	H	0.074650	-0.750274	0.463534
H279	H	0.105519	-0.705493	0.438963
H280	H	0.053150	-0.710469	0.386266
H281	H	0.084046	-0.665728	0.361756
O282	O	0.027173	-0.687355	0.316181
C283	C	0.098145	-0.671755	0.247287
C284	C	0.061946	-0.699832	0.273988
H285	H	0.126262	-0.681824	0.213163
H286	H	0.117550	-0.681839	0.272574
H287	H	0.077397	-0.630783	0.236339
H288	H	0.082658	-0.740810	0.284938
H289	H	0.042541	-0.689707	0.248685
O290	O	0.060666	-0.788232	0.349869
C291	C	0.133369	-0.846040	0.314099
C292	C	0.078472	-0.817824	0.322004
H293	H	0.147784	-0.869964	0.291561
H294	H	0.139034	-0.870026	0.351007
H295	H	0.153938	-0.818987	0.293847
H296	H	0.057868	-0.844841	0.342238
H297	H	0.072844	-0.793830	0.285080
H298	H	-0.097376	-0.783993	0.408060
H299	H	-0.128252	-0.691169	0.377093
H300	H	-0.227429	-0.616637	0.455084
O301	O	-0.130669	-0.652279	0.429585
C302	C	-0.136199	-0.691915	0.514302
C303	C	-0.164245	-0.659548	0.477631
H304	H	-0.163333	-0.697810	0.553155
H305	H	-0.112254	-0.673206	0.508491
H306	H	-0.112241	-0.728723	0.508404
H307	H	-0.188230	-0.622734	0.483506
H308	H	-0.188159	-0.678295	0.483450
H309	H	-0.134369	-0.571905	0.272603
O310	O	-0.231131	-0.536240	0.298102
C311	C	-0.225605	-0.496663	0.213385
C312	C	-0.197557	-0.529046	0.250055
H313	H	-0.198472	-0.490844	0.174532
H314	H	-0.249535	-0.459820	0.219213
H315	H	-0.249578	-0.515381	0.219269
H316	H	-0.173558	-0.510371	0.244194
H317	H	-0.173658	-0.565887	0.244219
