data_functionalizedCrystal
_audit_creation_method	'MofGen! by Chris Wilmer'
_symmetry_space_group_name_H-M	'P1'
_symmetry_Int_Tables_number	1
_symmetry_cell_setting	triclinic
loop_
_symmetry_equiv_pos_as_xyz
  x,y,z
_cell_length_a	10.967916
_cell_length_b	15.538191
_cell_length_c	10.065875
_cell_angle_alpha	95.296196
_cell_angle_beta	86.879757
_cell_angle_gamma	113.558956
loop_
_atom_site_label
_atom_site_type_symbol
_atom_site_fract_x
_atom_site_fract_y
_atom_site_fract_z
O1	O	-1.542284	0.161787	0.249252
O2	O	-1.191083	0.164436	0.166652
O3	O	-1.435049	0.028384	0.224025
O4	O	-1.298318	0.297839	0.191879
O5	O	-1.388481	0.054437	0.440062
O6	O	-1.144515	0.190489	0.382689
O7	O	-1.495715	0.187839	0.465290
Zn8	Zn	-1.312721	0.193300	0.458290
Zn9	Zn	-1.374077	0.158975	0.173651
O10	O	-1.251750	0.323891	0.407916
C11	C	-1.123949	0.175301	0.264357
C12	C	-0.993294	0.168850	0.233626
C13	C	-0.910919	0.179470	0.331840
C14	C	-0.775880	0.172803	0.300081
C15	C	-1.426071	0.006817	0.335404
C16	C	-1.468685	-0.096260	0.345413
C17	C	-1.045350	-0.398927	0.245875
C18	C	-1.085418	-0.495784	0.255302
C19	C	-1.310800	-0.510305	0.308310
C20	C	-1.270751	-0.413448	0.298881
C21	C	-1.138024	-0.357766	0.267665
C22	C	-1.363426	-0.372287	0.320671
C23	C	-1.323378	-0.275438	0.311250
C24	C	-1.190656	-0.219749	0.280038
C25	C	-1.097977	-0.260917	0.258243
C26	C	-1.496150	-0.427970	0.351897
C27	C	-1.588824	-0.386809	0.373686
C28	C	-1.548780	-0.289959	0.364256
C29	C	-1.416058	-0.234271	0.333045
C30	C	-1.641459	-0.248792	0.386051
C31	C	-1.601412	-0.151942	0.376629
C32	C	-1.376010	-0.137421	0.323623
C33	C	-0.562850	0.176974	0.367583
C34	C	-0.693506	0.183425	0.398308
C35	C	-1.260728	0.345458	0.296535
C36	C	-1.218116	0.448534	0.286517
N37	N	-1.270856	0.216726	0.652550
N38	N	-1.415955	0.135542	-0.020606
C39	C	-1.359506	0.167120	0.741177
C40	C	-1.327292	0.185156	0.890768
H41	H	-0.963845	0.154820	0.126031
H42	H	-0.722950	0.197450	0.505912
H43	H	-1.267933	-0.092082	0.298194
O44	O	-1.151513	-0.125648	0.270888
C45	C	-0.970377	0.021288	0.228195
C46	C	-1.014521	-0.085264	0.238548
H47	H	-0.859623	0.053967	0.202020
H48	H	-0.989859	0.055333	0.327792
H49	H	-1.029007	0.033434	0.147010
H50	H	-0.955921	-0.097495	0.319676
H51	H	-0.995068	-0.119255	0.138895
H52	H	-0.989900	-0.215578	0.232814
O53	O	-1.717791	-0.440759	0.404071
C54	C	-1.937153	-0.444952	0.455548
C55	C	-1.791132	-0.383742	0.421185
H56	H	-1.996497	-0.398882	0.469367
H57	H	-1.942129	-0.479730	0.551736
H58	H	-1.980953	-0.501581	0.370877
H59	H	-1.747240	-0.327065	0.505771
H60	H	-1.786244	-0.349033	0.324956
O61	O	-1.208198	0.251763	0.932115
C62	C	-0.997172	0.369911	0.867761
C63	C	-1.131977	0.294496	0.820750
H64	H	-0.935519	0.404495	0.777750
H65	H	-0.941556	0.335561	0.921552
H66	H	-1.014685	0.425557	0.938812
H67	H	-1.114582	0.238827	0.749652
H68	H	-1.187549	0.328914	0.767035
O69	O	-0.916356	-0.344961	0.215582
C70	C	-0.697033	-0.340779	0.163885
C71	C	-0.843058	-0.402001	0.198214
H72	H	-0.637736	-0.386874	0.149806
H73	H	-0.653073	-0.284183	0.248559
H74	H	-0.692211	-0.305959	0.067774
H75	H	-0.847998	-0.436884	0.294288
H76	H	-0.886955	-0.458543	0.113462
H77	H	-1.459250	0.111293	0.706309
H78	H	-1.515705	0.079712	0.944531
H79	H	-0.940373	0.193493	0.439436
H80	H	-1.009937	-0.529290	0.237575
O81	O	-1.439760	-0.564466	0.338396
C82	C	-1.639881	-0.695779	0.267902
C83	C	-1.493856	-0.634504	0.233655
H84	H	-1.683654	-0.752431	0.183252
H85	H	-1.699326	-0.649778	0.281786
H86	H	-1.644738	-0.730530	0.364085
H87	H	-1.488874	-0.599742	0.137459
H88	H	-1.434476	-0.680551	0.219858
H89	H	-1.528754	-0.506832	0.359555
O90	O	-1.151745	0.283218	0.694050
C91	C	-0.913128	0.335746	0.681904
C92	C	-1.047934	0.260365	0.634829
H93	H	-0.829160	0.317307	0.634023
H94	H	-0.908242	0.338424	0.795131
H95	H	-0.902187	0.407357	0.651336
H96	H	-1.058964	0.188715	0.665303
H97	H	-1.052759	0.257770	0.521608
H98	H	-1.676877	-0.118429	0.394374
O99	O	-0.740995	0.156024	0.171640
C100	C	-0.804002	0.128540	-0.059023
C101	C	-0.843691	0.147514	0.086373
H102	H	-0.886997	0.121674	-0.128005
H103	H	-0.786988	0.060470	-0.069227
H104	H	-0.708579	0.189502	-0.087483
H105	H	-0.939132	0.086610	0.114929
H106	H	-0.860617	0.215616	0.096499
O107	O	-1.770422	-0.302742	0.416446
C108	C	-1.989782	-0.306938	0.467947
C109	C	-1.843767	-0.245727	0.433565
H110	H	-2.049129	-0.260870	0.481770
H111	H	-1.994745	-0.341709	0.564137
H112	H	-2.033591	-0.363572	0.383284
H113	H	-1.799867	-0.189045	0.518142
H114	H	-1.838894	-0.211025	0.337333
