data_functionalizedCrystal
_audit_creation_method	'MofGen! by Chris Wilmer'
_symmetry_space_group_name_H-M	'P1'
_symmetry_Int_Tables_number	1
_symmetry_cell_setting	triclinic
loop_
_symmetry_equiv_pos_as_xyz
  x,y,z
_cell_length_a	19.288840
_cell_length_b	17.019294
_cell_length_c	17.766277
_cell_angle_alpha	86.114664
_cell_angle_beta	89.983415
_cell_angle_gamma	83.259949
loop_
_atom_site_label
_atom_site_type_symbol
_atom_site_fract_x
_atom_site_fract_y
_atom_site_fract_z
O1	O	0.921538	0.098312	-0.069091
O2	O	1.421538	0.598312	0.430909
O3	O	0.719299	0.111608	-0.069927
O4	O	1.219299	0.611608	0.430073
O5	O	0.826060	-0.009894	-0.062062
O6	O	1.326060	0.490106	0.437938
O7	O	0.814777	0.219814	-0.076956
O8	O	1.314777	0.719814	0.423044
O9	O	0.826041	-0.009900	0.063127
O10	O	1.326041	0.490100	0.563127
O11	O	0.719280	0.111602	0.055262
O12	O	1.219280	0.611602	0.555262
O13	O	0.921519	0.098306	0.056098
O14	O	1.421519	0.598306	0.556098
Cu15	Cu	0.820398	0.104953	0.067111
Cu16	Cu	1.320398	0.604953	0.567111
Cu17	Cu	0.820420	0.104961	-0.080940
Cu18	Cu	1.320420	0.604961	0.419060
O19	O	0.814758	0.219807	0.048233
O20	O	1.314758	0.719807	0.548233
C21	C	0.693412	0.111180	-0.007301
C22	C	1.193412	0.611180	0.492699
C23	C	0.616305	0.109906	-0.007209
C24	C	1.116305	0.609906	0.492791
C25	C	0.580111	0.109297	-0.075411
C26	C	1.080111	0.609297	0.424589
C27	C	0.507661	0.108091	-0.075342
C28	C	1.007661	0.608091	0.424658
C29	C	0.471411	0.107478	-0.007066
C30	C	0.971411	0.607478	0.492934
C31	C	0.507614	0.108091	0.061146
C32	C	1.007614	0.608091	0.561146
C33	C	0.580061	0.109305	0.061074
C34	C	1.080061	0.609305	0.561074
C35	C	0.361991	0.059347	0.048324
C36	C	0.861991	0.559347	0.548324
C37	C	0.289546	0.058128	0.048393
C38	C	0.789546	0.558128	0.548393
C39	C	0.247961	0.103737	-0.006843
C40	C	0.747961	0.603737	0.493157
C41	C	0.278831	0.150554	-0.062159
C42	C	0.778831	0.650554	0.437841
C43	C	0.351278	0.151768	-0.062231
C44	C	0.851278	0.651768	0.437769
C45	C	0.392855	0.106162	-0.006981
C46	C	0.892855	0.606162	0.493019
C47	C	0.133209	0.101821	-0.074975
C48	C	0.633209	0.601821	0.425025
C49	C	0.060758	0.100620	-0.074904
C50	C	0.560758	0.600620	0.425096
C51	C	0.060713	0.100612	0.061587
C52	C	0.560713	0.600612	0.561587
C53	C	0.133162	0.101821	0.061513
C54	C	0.633162	0.601821	0.561513
C55	C	0.169406	0.102422	-0.006770
C56	C	0.669406	0.602422	0.493230
C57	C	0.825622	-0.039284	0.002437
C58	C	1.325622	0.460716	0.502437
C59	C	0.824338	-0.126850	0.008111
C60	C	1.324338	0.373150	0.508111
C61	C	0.823747	-0.167981	-0.057463
C62	C	1.323747	0.332019	0.442537
C63	C	0.822536	-0.250258	-0.052130
C64	C	1.322536	0.249742	0.447870
C65	C	0.821921	-0.291403	0.018779
C66	C	1.321921	0.208597	0.518779
C67	C	0.822511	-0.250266	0.084358
C68	C	1.322511	0.249734	0.584358
C69	C	0.823717	-0.167990	0.079024
C70	C	1.323717	0.332010	0.579024
C71	C	0.818275	-0.539823	0.038299
C72	C	1.318275	-0.039823	0.538299
C73	C	0.817071	-0.622105	0.043628
C74	C	1.317071	-0.122105	0.543628
C75	C	0.817095	-0.622091	-0.092861
C76	C	1.317095	-0.122091	0.407139
C77	C	0.818305	-0.539814	-0.098188
C78	C	1.318305	-0.039814	0.401812
C79	C	0.818891	-0.498684	-0.032609
C80	C	1.318891	0.001316	0.467391
C81	C	0.820686	-0.375503	0.024232
C82	C	1.320686	0.124497	0.524232
C83	C	0.820121	-0.414584	-0.038063
C84	C	1.320121	0.085416	0.461937
C85	C	0.947406	0.098734	-0.006529
C86	C	1.447406	0.598734	0.493471
C87	C	1.024513	0.100008	-0.006627
C88	C	1.524513	0.600008	0.493373
C89	C	0.815196	0.249198	-0.016267
C90	C	1.315196	0.749198	0.483733
C91	C	0.816480	0.336764	-0.021946
C92	C	1.316480	0.836764	0.478054
N93	N	0.820387	0.104948	0.171242
N94	N	1.320387	0.604948	0.671242
N95	N	0.820436	0.104960	-0.185070
N96	N	1.320436	0.604960	0.314930
C97	C	0.867676	0.051173	0.214109
C98	C	1.367676	0.551173	0.714109
C99	C	0.867680	0.051170	0.292911
C100	C	1.367680	0.551170	0.792911
C101	C	0.820402	0.104954	0.328842
C102	C	1.320402	0.604954	0.828842
C103	C	0.773104	0.158733	0.285964
C104	C	1.273104	0.658733	0.785964
C105	C	0.773097	0.158729	0.207164
C106	C	1.273097	0.658729	0.707164
C107	C	0.811230	0.176830	0.449020
C108	C	1.311230	0.676830	0.949020
C109	C	0.811242	0.176834	0.527818
C110	C	1.311242	0.676834	1.027818
C111	C	0.820421	0.104963	0.571887
C112	C	1.320421	0.604963	1.071887
C113	C	0.829601	0.033085	0.537148
C114	C	1.329601	0.533085	1.037148
C115	C	0.829594	0.033082	0.458348
C116	C	1.329594	0.533082	0.958348
C117	C	0.820404	0.104963	0.414287
C118	C	1.320404	0.604963	0.914287
C119	C	0.867717	0.051181	0.700202
C120	C	1.367717	0.551181	1.200202
C121	C	0.867716	0.051176	0.779005
C122	C	1.367716	0.551176	1.279005
C123	C	0.773143	0.158746	0.772056
C124	C	1.273143	0.658746	1.272056
C125	C	0.773140	0.158744	0.693254
C126	C	1.273140	0.658744	1.193254
C127	C	0.820431	0.104962	0.657332
C128	C	1.320431	0.604962	1.157332
H129	H	0.264418	0.020003	0.093431
H130	H	0.764418	0.520003	0.593431
C131	C	0.801145	0.255893	0.566028
C132	C	1.301145	0.755893	1.066028
H133	H	0.802473	0.245603	0.619270
H134	H	1.302473	0.745603	1.119270
H135	H	0.757308	0.284150	0.551299
H136	H	1.257308	0.784150	1.051299
H137	H	0.837438	0.286698	0.551096
H138	H	1.337438	0.786698	1.051096
C139	C	0.467735	0.107476	0.136244
C140	C	0.967735	0.607476	0.636244
H141	H	0.419403	0.106677	0.126518
H142	H	0.919403	0.606677	0.626518
H143	H	0.474265	0.153684	0.161252
H144	H	0.974265	0.653684	0.661252
H145	H	0.484929	0.061695	0.167289
H146	H	0.984929	0.561695	0.667289
C147	C	0.721137	0.217908	0.811570
C148	C	1.221137	0.717908	1.311570
H149	H	0.727916	0.210211	0.864640
H150	H	1.227916	0.710211	1.364640
H151	H	0.674790	0.209480	0.799222
H152	H	1.174790	0.709480	1.299222
H153	H	0.728630	0.270535	0.795235
H154	H	1.228630	0.770535	1.295235
H155	H	0.376409	0.189890	-0.107269
H156	H	0.876409	0.689890	0.392731
C157	C	0.919686	-0.007992	0.174599
C158	C	1.419686	0.492008	0.674599
H159	H	0.947847	-0.040024	0.211421
H160	H	1.447847	0.459976	0.711421
H161	H	0.948567	0.020293	0.142006
H162	H	1.448567	0.520293	0.642006
H163	H	0.894727	-0.040761	0.146003
H164	H	1.394727	0.459239	0.646003
C165	C	0.619878	0.109962	0.136101
C166	C	1.119878	0.609962	0.636101
H167	H	0.587916	0.109419	0.176777
H168	H	1.087916	0.609419	0.676777
H169	H	0.642795	0.156422	0.135933
H170	H	1.142795	0.656422	0.635933
H171	H	0.653483	0.064433	0.141887
H172	H	1.153483	0.564433	0.641887
C173	C	0.919701	-0.007983	0.340075
C174	C	1.419701	0.492017	0.840075
H175	H	0.947866	-0.040011	0.307395
H176	H	1.447866	0.459989	0.807395
H177	H	0.894756	-0.040746	0.372956
H178	H	1.394756	0.459254	0.872956
H179	H	0.948586	0.020320	0.368962
H180	H	1.448586	0.520320	0.868962
C181	C	0.919738	-0.007978	0.826160
C182	C	1.419738	0.492022	1.326160
H183	H	0.947904	-0.040001	0.793477
H184	H	1.447904	0.459999	1.293477
H185	H	0.894794	-0.040745	0.859039
H186	H	1.394794	0.459255	1.359039
H187	H	0.948622	0.020324	0.855049
H188	H	1.448622	0.520324	1.355049
H189	H	0.395844	0.022205	0.093307
H190	H	0.895844	0.522205	0.593307
H191	H	0.031198	0.100118	0.117178
H192	H	0.531198	0.600118	0.617178
H193	H	0.837067	-0.025444	0.430067
H194	H	1.337067	0.474556	0.930067
C195	C	0.824422	-0.122728	-0.135464
C196	C	1.324422	0.377272	0.364536
H197	H	0.823890	-0.159010	-0.173753
H198	H	1.323890	0.340990	0.326247
H199	H	0.865378	-0.096794	-0.139990
H200	H	1.365378	0.403206	0.360010
H201	H	0.784402	-0.084470	-0.140775
H202	H	1.284402	0.415530	0.359225
H203	H	0.837075	-0.025439	0.573028
H204	H	1.337075	0.474561	1.073028
H205	H	0.906221	0.007386	0.670953
H206	H	1.406221	0.507386	1.170953
C207	C	0.721129	0.217905	0.646097
C208	C	1.221129	0.717905	1.146097
H209	H	0.692976	0.249942	0.678779
H210	H	1.192976	0.749942	1.178779
H211	H	0.692243	0.189616	0.617205
H212	H	1.192243	0.689616	1.117205
H213	H	0.746084	0.250669	0.613221
H214	H	1.246084	0.750669	1.113221
C215	C	0.801139	0.255894	0.400551
C216	C	1.301139	0.755894	0.900551
H217	H	0.795684	0.298700	0.432524
H218	H	1.295684	0.798700	0.932524
H219	H	0.760693	0.257616	0.369713
H220	H	1.260693	0.757616	0.869713
H221	H	0.840826	0.260145	0.369521
H222	H	1.340826	0.760145	0.869521
H223	H	0.734608	0.202523	0.315222
H224	H	1.234608	0.702523	0.815222
H225	H	0.822057	-0.283743	-0.105528
H226	H	1.322057	0.216257	0.394472
H227	H	0.162632	0.102312	0.117051
H228	H	0.662632	0.602312	0.617051
H229	H	0.818807	-0.506319	-0.155930
H230	H	1.318807	-0.006319	0.344070
H231	H	0.734587	0.202520	0.172260
H232	H	1.234587	0.702520	0.672260
H233	H	0.162720	0.102319	-0.130576
H234	H	0.662720	0.602319	0.369424
C235	C	0.233098	0.200729	-0.122919
C236	C	0.733098	0.700729	0.377081
H237	H	0.185529	0.193311	-0.114951
H238	H	0.685529	0.693311	0.385049
H239	H	0.246874	0.184687	-0.171420
H240	H	0.746874	0.684687	0.328580
H241	H	0.238665	0.255150	-0.119860
H242	H	0.738665	0.755150	0.380140
C243	C	0.020940	0.099954	-0.149929
C244	C	0.520940	0.599954	0.350071
H245	H	-0.027399	0.099155	-0.140110
H246	H	0.472601	0.599155	0.359890
H247	H	0.038170	0.054160	-0.174997
H248	H	0.538170	0.554160	0.325003
H249	H	0.027476	0.146149	-0.180964
H250	H	0.527476	0.646149	0.319036
C251	C	0.619974	0.109969	-0.150520
C252	C	1.119974	0.609969	0.349480
H253	H	0.588036	0.109441	-0.191130
H254	H	1.088036	0.609441	0.308870
H255	H	0.653589	0.064454	-0.150406
H256	H	1.153589	0.564454	0.349594
H257	H	0.642882	0.156442	-0.156367
H258	H	1.142882	0.656442	0.343633
H259	H	0.816617	-0.655588	-0.146251
H260	H	1.316617	-0.155588	0.353749
C261	C	0.467838	0.107428	-0.150368
C262	C	0.967838	0.607428	0.349632
H263	H	0.499800	0.107959	-0.191044
H264	H	0.999800	0.607959	0.308956
H265	H	0.434229	0.152948	-0.156156
H266	H	0.934229	0.652948	0.343844
H267	H	0.444927	0.060959	-0.150194
H268	H	0.944927	0.560959	0.349806
C269	C	0.820799	-0.369331	-0.116060
C270	C	1.320799	0.130669	0.383940
H271	H	0.820271	-0.405607	-0.154354
H272	H	1.320271	0.094393	0.345646
H273	H	0.861754	-0.343396	-0.120577
H274	H	1.361754	0.156604	0.379423
H275	H	0.780778	-0.331073	-0.121371
H276	H	1.280778	0.168927	0.378629
H277	H	0.818766	-0.506347	0.091698
H278	H	1.318766	-0.006347	0.591698
C279	C	0.816388	-0.667363	0.121631
C280	C	1.316388	-0.167363	0.621631
H281	H	0.816902	-0.631083	0.159924
H282	H	1.316902	-0.131083	0.659924
H283	H	0.856402	-0.705622	0.126947
H284	H	1.356402	-0.205622	0.626947
H285	H	0.775426	-0.693294	0.126145
H286	H	1.275426	-0.193294	0.626145
H287	H	0.822006	-0.283772	0.142093
H288	H	1.322006	0.216228	0.642093
H289	H	0.824188	-0.134501	0.132421
H290	H	1.324188	0.365499	0.632421
C291	C	0.820013	-0.420763	0.102229
C292	C	1.320013	0.079237	0.602229
H293	H	0.820535	-0.384486	0.140524
H294	H	1.320535	0.115514	0.640524
H295	H	0.860025	-0.459025	0.107538
H296	H	1.360025	0.040975	0.607538
H297	H	0.779049	-0.446691	0.106748
H298	H	1.279049	0.053309	0.606748
