data_functionalizedCrystal
_audit_creation_method	'MofGen! by Chris Wilmer'
_symmetry_space_group_name_H-M	'P1'
_symmetry_Int_Tables_number	1
_symmetry_cell_setting	triclinic
loop_
_symmetry_equiv_pos_as_xyz
  x,y,z
_cell_length_a	19.805405
_cell_length_b	19.805407
_cell_length_c	19.805398
_cell_angle_alpha	90.012745
_cell_angle_beta	89.969674
_cell_angle_gamma	89.977440
loop_
_atom_site_label
_atom_site_type_symbol
_atom_site_fract_x
_atom_site_fract_y
_atom_site_fract_z
Zn1	Zn	-0.269542	-1.034693	-0.382705
Zn2	Zn	0.063792	-0.701359	-0.049371
Zn3	Zn	0.397125	-0.368026	0.283962
Zn4	Zn	-0.382732	-1.034620	-0.269513
Zn5	Zn	-0.049399	-0.701287	0.063820
Zn6	Zn	0.283935	-0.367953	0.397154
Zn7	Zn	-0.269555	-0.921520	-0.269530
Zn8	Zn	0.063779	-0.588187	0.063803
Zn9	Zn	0.397112	-0.254853	0.397137
Zn10	Zn	-0.382686	-0.921471	-0.382661
Zn11	Zn	-0.049353	-0.588137	-0.049327
Zn12	Zn	0.283980	-0.254804	0.284006
O13	O	-0.326129	-0.978076	-0.326102
O14	O	0.007205	-0.644742	0.007231
O15	O	0.340538	-0.311409	0.340565
O16	O	-0.284570	-1.129399	-0.367701
O17	O	0.048763	-0.796066	-0.034368
O18	O	0.382097	-0.462733	0.298966
O19	O	-0.367743	-1.019607	-0.174799
O20	O	-0.034410	-0.686274	0.158535
O21	O	0.298923	-0.352941	0.491868
O22	O	-0.174836	-0.936583	-0.284569
O23	O	0.158497	-0.603250	0.048765
O24	O	0.491830	-0.269917	0.382098
O25	O	-0.367731	-1.129346	-0.284540
O26	O	-0.034397	-0.796013	0.048794
O27	O	0.298936	-0.462680	0.382127
O28	O	-0.174827	-1.019731	-0.367717
O29	O	0.158507	-0.686398	-0.034384
O30	O	0.491840	-0.353064	0.298949
O31	O	-0.284592	-0.936513	-0.174811
O32	O	0.048741	-0.603180	0.158522
O33	O	0.382074	-0.269847	0.491855
O34	O	-0.284548	-0.826797	-0.284526
O35	O	0.048785	-0.493464	0.048808
O36	O	0.382118	-0.160130	0.382141
O37	O	-0.367653	-0.936500	-0.477383
O38	O	-0.034320	-0.603166	-0.144050
O39	O	0.299014	-0.269833	0.189284
O40	O	-0.367666	-0.826761	-0.367642
O41	O	-0.034332	-0.493427	-0.034309
O42	O	0.299001	-0.160094	0.299024
O43	O	-0.284526	-1.019683	-0.477415
O44	O	0.048807	-0.686350	-0.144082
O45	O	0.382141	-0.353016	0.189251
O46	O	-0.477442	-1.019560	-0.284497
O47	O	-0.144109	-0.686226	0.048837
O48	O	0.189224	-0.352893	0.382170
O49	O	-0.477409	-0.936429	-0.367626
O50	O	-0.144076	-0.603096	-0.034292
O51	O	0.189258	-0.269763	0.299041
C52	C	-0.326104	-0.802220	-0.326081
C53	C	0.007229	-0.468886	0.007252
C54	C	0.340563	-0.135553	0.340585
C55	C	-0.326110	-0.726988	-0.326089
C56	C	0.007224	-0.393655	0.007245
C57	C	0.340557	-0.060321	0.340578
C58	C	-0.501985	-0.978000	-0.326069
C59	C	-0.168651	-0.644666	0.007264
C60	C	0.164682	-0.311333	0.340597
C61	C	-0.577217	-0.978029	-0.326078
C62	C	-0.243883	-0.644696	0.007255
C63	C	0.089450	-0.311362	0.340589
C64	C	-0.282884	-0.691672	-0.369456
C65	C	0.050450	-0.358339	-0.036122
C66	C	0.383783	-0.025005	0.297211
C67	C	-0.282886	-0.620984	-0.369457
C68	C	0.050447	-0.287650	-0.036123
C69	C	0.383781	0.045683	0.297210
C70	C	-0.326118	-0.585612	-0.326093
C71	C	0.007216	-0.252279	0.007240
C72	C	0.340549	0.081054	0.340573
C73	C	-0.369345	-0.620933	-0.282721
C74	C	-0.036012	-0.287600	0.050612
C75	C	0.297321	0.045734	0.383945
C76	C	-0.369339	-0.691620	-0.282718
C77	C	-0.036006	-0.358287	0.050616
C78	C	0.297327	-0.024954	0.383949
C79	C	-0.369370	-0.335860	-0.282735
C80	C	-0.036037	-0.002526	0.050598
C81	C	0.297297	0.330807	0.383931
C82	C	-0.369374	-0.265168	-0.282744
C83	C	-0.036041	0.068166	0.050590
C84	C	0.297292	0.401499	0.383923
C85	C	-0.282917	-0.265223	-0.369474
C86	C	0.050417	0.068110	-0.036141
C87	C	0.383750	0.401444	0.297192
C88	C	-0.282911	-0.335910	-0.369470
C89	C	0.050423	-0.002577	-0.036137
C90	C	0.383756	0.330756	0.297196
C91	C	-0.326135	-0.371225	-0.326096
C92	C	0.007198	-0.037892	0.007237
C93	C	0.340531	0.295442	0.340570
C94	C	-0.326132	-0.447873	-0.326095
C95	C	0.007202	-0.114540	0.007238
C96	C	0.340535	0.218793	0.340572
C97	C	-0.326125	-0.508965	-0.326098
C98	C	0.007208	-0.175632	0.007236
C99	C	0.340541	0.157702	0.340569
C100	C	-0.612556	-1.021357	-0.282838
C101	C	-0.279222	-0.688024	0.050495
C102	C	0.054111	-0.354690	0.383829
C103	C	-0.683244	-1.021386	-0.282853
C104	C	-0.349911	-0.688052	0.050480
C105	C	-0.016578	-0.354719	0.383814
C106	C	-0.718592	-0.978083	-0.326105
C107	C	-0.385259	-0.644749	0.007228
C108	C	-0.051926	-0.311416	0.340562
C109	C	-0.683248	-0.934753	-0.369350
C110	C	-0.349915	-0.601419	-0.036016
C111	C	-0.016581	-0.268086	0.297317
C112	C	-0.612561	-0.934728	-0.369338
C113	C	-0.279228	-0.601394	-0.036004
C114	C	0.054106	-0.268061	0.297329
C115	C	-0.968321	-0.934852	-0.369400
C116	C	-0.634988	-0.601519	-0.036067
C117	C	-0.301655	-0.268186	0.297267
C118	C	-1.039013	-0.934879	-0.369407
C119	C	-0.705680	-0.601546	-0.036074
C120	C	-0.372347	-0.268213	0.297260
C121	C	-1.039005	-1.021510	-0.282915
C122	C	-0.705671	-0.688177	0.050418
C123	C	-0.372338	-0.354844	0.383751
C124	C	-0.968317	-1.021486	-0.282903
C125	C	-0.634984	-0.688152	0.050430
C126	C	-0.301651	-0.354819	0.383763
C127	C	-0.932980	-0.978159	-0.326150
C128	C	-0.599646	-0.644825	0.007183
C129	C	-0.266313	-0.311492	0.340517
C130	C	-0.856331	-0.978129	-0.326134
C131	C	-0.522998	-0.644795	0.007199
C132	C	-0.189664	-0.311462	0.340532
C133	C	-0.795239	-0.978108	-0.326118
C134	C	-0.461906	-0.644775	0.007215
C135	C	-0.128573	-0.311442	0.340549
C136	C	-0.149586	-0.978171	-0.326150
C137	C	0.183747	-0.644837	0.007184
C138	C	0.517081	-0.311504	0.340517
C139	C	-0.074354	-0.978211	-0.326170
C140	C	0.258979	-0.644878	0.007163
C141	C	0.592313	-0.311544	0.340497
C142	C	-0.326083	-0.978094	-0.502645
C143	C	0.007250	-0.644761	-0.169312
C144	C	0.340584	-0.311427	0.164022
C145	C	-0.326063	-0.978102	-0.577877
C146	C	0.007270	-0.644768	-0.244544
C147	C	0.340603	-0.311435	0.088790
C148	C	-0.326149	-0.154619	-0.326117
C149	C	0.007184	0.178715	0.007216
C150	C	0.340518	0.512048	0.340549
C151	C	-0.326144	-0.229851	-0.326108
C152	C	0.007189	0.103483	0.007225
C153	C	0.340522	0.436816	0.340559
C154	C	-0.369252	-1.021476	-1.039659
C155	C	-0.035919	-0.688142	-0.706326
C156	C	0.297414	-0.354809	-0.372993
C157	C	-0.369271	-1.021457	-0.968971
C158	C	-0.035937	-0.688123	-0.635637
C159	C	0.297396	-0.354790	-0.302304
C160	C	-0.325987	-0.978186	-0.933639
C161	C	0.007346	-0.644852	-0.600306
C162	C	0.340680	-0.311519	-0.266972
C163	C	-0.282687	-0.934926	-0.968999
C164	C	0.050646	-0.601592	-0.635666
C165	C	0.383980	-0.268259	-0.302332
C166	C	-0.282673	-0.934941	-1.039686
C167	C	0.050661	-0.601608	-0.706353
C168	C	0.383994	-0.268275	-0.373020
C169	C	-0.282745	-0.934860	-0.683926
C170	C	0.050588	-0.601527	-0.350592
C171	C	0.383922	-0.268194	-0.017259
C172	C	-0.282761	-0.934849	-0.613234
C173	C	0.050572	-0.601516	-0.279900
C174	C	0.383905	-0.268183	0.053433
C175	C	-0.369343	-1.021376	-0.613210
C176	C	-0.036010	-0.688042	-0.279877
C177	C	0.297323	-0.354709	0.053457
C178	C	-0.369329	-1.021391	-0.683897
C179	C	-0.035995	-0.688058	-0.350564
C180	C	0.297338	-0.354725	-0.017231
C181	C	-0.326031	-0.978129	-0.719251
C182	C	0.007302	-0.644796	-0.385918
C183	C	0.340635	-0.311463	-0.052585
C184	C	-0.326013	-0.978149	-0.795900
C185	C	0.007320	-0.644816	-0.462567
C186	C	0.340654	-0.311482	-0.129233
C187	C	-0.326002	-0.978169	-0.856992
C188	C	0.007332	-0.644835	-0.523658
C189	C	0.340665	-0.311502	-0.190325
C190	C	-0.326125	-0.978097	-0.150246
C191	C	0.007208	-0.644763	0.183087
C192	C	0.340541	-0.311430	0.516421
C193	C	-0.325954	-0.978220	-0.075015
C194	C	0.007379	-0.644887	0.258319
C195	C	0.340712	-0.311554	0.591652
H196	H	-0.247681	-0.720466	-0.404769
H197	H	0.085652	-0.387133	-0.071436
H198	H	0.418986	-0.053800	0.261898
F199	F	-0.236910	-0.227633	-0.415636
F200	F	0.096423	0.105700	-0.082302
F201	F	0.429756	0.439033	0.251031
F202	F	-0.236880	-0.583401	-0.415615
F203	F	0.096453	-0.250068	-0.082282
F204	F	0.429786	0.083266	0.251051
F205	F	-0.236614	-0.888880	-0.931394
F206	F	0.096719	-0.555546	-0.598061
F207	F	0.430052	-0.222213	-0.264728
H208	H	-0.404567	-0.364604	-0.247418
H209	H	-0.071234	-0.031271	0.085915
H210	H	0.262100	0.302062	0.419249
H211	H	-0.404537	-1.056671	-0.940188
H212	H	-0.071203	-0.723338	-0.606854
H213	H	0.262130	-0.390005	-0.273521
F214	F	-0.930701	-1.067574	-0.236868
F215	F	-0.597368	-0.734241	0.096465
F216	F	-0.264035	-0.400907	0.429799
F217	F	-0.236688	-0.888793	-0.721543
F218	F	0.096645	-0.555459	-0.388210
F219	F	0.429979	-0.222126	-0.054876
F220	F	-0.415353	-0.583286	-0.236567
F221	F	-0.082019	-0.249953	0.096766
F222	F	0.251314	0.083380	0.430100
H223	H	-0.404496	-1.056715	-1.068421
H224	H	-0.071163	-0.723382	-0.735088
H225	H	0.262171	-0.390048	-0.401755
H226	H	-0.404538	-0.720373	-0.247403
H227	H	-0.071205	-0.387040	0.085930
H228	H	0.262129	-0.053707	0.419264
H229	H	-0.247709	-0.364706	-0.404784
H230	H	0.085624	-0.031373	-0.071450
H231	H	0.418958	0.301961	0.261883
F232	F	-0.415396	-1.067448	-0.721496
F233	F	-0.082062	-0.734114	-0.388163
F234	F	0.251271	-0.400781	-0.054830
H235	H	-0.247512	-0.899610	-0.584468
H236	H	0.085821	-0.566277	-0.251135
H237	H	0.419154	-0.232944	0.082198
H238	H	-0.404580	-0.236370	-0.247430
H239	H	-0.071247	0.096963	0.085904
H240	H	0.262086	0.430296	0.419237
F241	F	-1.076619	-1.067627	-0.236891
F242	F	-0.743286	-0.734293	0.096443
F243	F	-0.409953	-0.400960	0.429776
H244	H	-0.939555	-0.899573	-0.404612
H245	H	-0.606221	-0.566239	-0.071278
H246	H	-0.272888	-0.232906	0.262055
H247	H	-0.583780	-1.056616	-0.247614
H248	H	-0.250447	-0.723283	0.085719
H249	H	0.082887	-0.389950	0.419052
H250	H	-0.247414	-0.899719	-1.068472
H251	H	0.085919	-0.566386	-0.735138
H252	H	0.419253	-0.233053	-0.401805
H253	H	-0.712014	-1.056667	-0.247642
H254	H	-0.378681	-0.723334	0.085691
H255	H	-0.045348	-0.390001	0.419024
H256	H	-0.404600	-1.056600	-0.584416
H257	H	-0.071267	-0.723266	-0.251083
H258	H	0.262067	-0.389933	0.082250
F259	F	-0.720870	-0.888670	-0.415386
F260	F	-0.387537	-0.555336	-0.082052
F261	F	-0.054203	-0.222003	0.251281
F262	F	-1.076632	-0.888789	-0.415445
F263	F	-0.743299	-0.555455	-0.082112
F264	F	-0.409965	-0.222122	0.251222
H265	H	-0.583789	-0.899447	-0.404549
H266	H	-0.250455	-0.566113	-0.071216
H267	H	0.082878	-0.232780	0.262118
