data_functionalizedCrystal
_audit_creation_method	'MofGen! by Chris Wilmer'
_symmetry_space_group_name_H-M	'P1'
_symmetry_Int_Tables_number	1
_symmetry_cell_setting	triclinic
loop_
_symmetry_equiv_pos_as_xyz
  x,y,z
_cell_length_a	16.992701
_cell_length_b	14.421503
_cell_length_c	16.974959
_cell_angle_alpha	86.345259
_cell_angle_beta	87.028136
_cell_angle_gamma	90.008267
loop_
_atom_site_label
_atom_site_type_symbol
_atom_site_fract_x
_atom_site_fract_y
_atom_site_fract_z
O1	O	1.040226	0.064556	0.167626
O2	O	0.811943	0.064694	0.165789
O3	O	0.932441	0.073215	0.052008
O4	O	0.919728	0.056035	0.281407
O5	O	0.932421	-0.081010	0.052025
O6	O	0.811923	-0.089530	0.165806
O7	O	1.040206	-0.089669	0.167643
Cu8	Cu	0.926063	-0.103681	0.166726
Cu9	Cu	0.926086	0.078707	0.166706
O10	O	0.919708	-0.098189	0.281424
C11	C	0.782723	-0.012241	0.163432
C12	C	0.695686	-0.011712	0.156373
C13	C	0.206774	-0.008156	0.108945
C14	C	0.288554	-0.008659	0.115583
C15	C	0.320021	-0.014253	0.190337
C16	C	0.269704	-0.019354	0.258456
C17	C	0.187926	-0.018858	0.251817
C18	C	0.563590	-0.016317	0.217853
C19	C	0.645375	-0.016810	0.224487
C20	C	0.664219	-0.006116	0.081614
C21	C	0.582438	-0.005615	0.074981
C22	C	0.532129	-0.010721	0.143100
N23	N	0.403613	-0.014764	0.197124
N24	N	0.448538	-0.010216	0.136312
N25	N	0.926052	-0.231964	0.166740
C26	C	0.870324	-0.485555	0.219326
C27	C	0.941154	-0.548843	0.239148
C28	C	0.926071	-0.421124	0.166722
C29	C	0.855258	-0.541932	0.146920
C30	C	0.926083	-0.603844	0.166707
C31	C	0.996938	-0.483053	0.186582
C32	C	0.910995	-0.476134	0.094320
C33	C	0.981877	-0.539392	0.114114
C34	C	0.926063	-0.315864	0.166733
C35	C	0.926099	-0.709102	0.166696
C36	C	1.069426	-0.012731	0.170000
C37	C	1.156463	-0.013254	0.177059
C38	C	0.931945	-0.001687	0.022528
C39	C	0.930487	0.004899	-0.065339
N40	N	0.926103	0.206990	0.166686
C41	C	0.922354	0.051098	-0.559942
C42	C	0.923716	0.044891	-0.477381
C43	C	0.924380	-0.042281	-0.436108
C44	C	0.923690	-0.123250	-0.477400
C45	C	0.922333	-0.117042	-0.559960
C46	C	0.928441	-0.069862	-0.189191
C47	C	0.929795	-0.076064	-0.106625
C48	C	0.929823	0.092078	-0.106612
C49	C	0.928461	0.098278	-0.189174
C50	C	0.927775	0.017309	-0.230459
N51	N	0.925770	-0.048628	-0.351717
N52	N	0.926391	0.023656	-0.314849
C53	C	0.920204	-0.023285	0.310904
C54	C	0.921662	-0.029865	0.398771
H55	H	0.670992	-0.021379	0.285363
H56	H	0.924236	-0.194228	-0.443789
C57	C	1.045632	-0.571272	0.054006
H58	H	1.021598	-0.604615	0.015100
H59	H	1.082150	-0.610349	0.080548
H60	H	1.072473	-0.518513	0.029276
H61	H	0.953918	-0.580600	0.300370
H62	H	0.329514	-0.004512	0.060117
H63	H	0.556824	-0.001060	0.014109
C64	C	0.930526	-0.171958	-0.061226
H65	H	0.929929	-0.219292	-0.097638
H66	H	0.885354	-0.178105	-0.025887
H67	H	0.976758	-0.177637	-0.032152
C68	C	0.927735	0.194165	-0.234573
H69	H	0.926821	0.186266	-0.289655
H70	H	0.973662	0.227924	-0.224175
H71	H	0.882258	0.227456	-0.217904
C72	C	0.304312	-0.025505	0.340685
H73	H	0.262634	-0.028477	0.380300
H74	H	0.335828	0.027862	0.346235
H75	H	0.335816	-0.079708	0.346254
C76	C	0.132584	-0.024458	0.326742
H77	H	0.163036	-0.027851	0.372214
H78	H	0.100282	-0.078267	0.327133
H79	H	0.100300	0.029304	0.327111
H80	H	0.924282	0.110820	-0.443770
H81	H	0.930382	0.157999	-0.072989
C82	C	1.077859	-0.448216	0.209305
H83	H	1.077351	-0.382335	0.209201
H84	H	1.117481	-0.467058	0.172171
H85	H	1.088657	-0.473753	0.260577
C86	C	0.927677	-0.158926	-0.234594
H87	H	0.928257	-0.211728	-0.198186
H88	H	0.972846	-0.159774	-0.269936
H89	H	0.881442	-0.160230	-0.263665
H90	H	0.705190	-0.001961	0.026155
C91	C	0.806707	-0.453439	0.279474
H92	H	0.817557	-0.478472	0.330888
H93	H	0.756498	-0.474507	0.265919
H94	H	0.806833	-0.387515	0.278730
H95	H	0.522637	-0.020470	0.273321
C96	C	0.921566	-0.206102	-0.605375
H97	H	0.922148	-0.258908	-0.568970
H98	H	0.966735	-0.206945	-0.640717
H99	H	0.875331	-0.207405	-0.634445
H100	H	0.181160	-0.003595	0.048073
H101	H	0.898210	-0.444357	0.033115
H102	H	0.795368	-0.567848	0.130180
H103	H	0.921806	0.122083	-0.593541
