data_functionalizedCrystal
_audit_creation_method	'MofGen! by Chris Wilmer'
_symmetry_space_group_name_H-M	'P1'
_symmetry_Int_Tables_number	1
_symmetry_cell_setting	triclinic
loop_
_symmetry_equiv_pos_as_xyz
  x,y,z
_cell_length_a	29.839134
_cell_length_b	29.839131
_cell_length_c	29.839125
_cell_angle_alpha	90.017709
_cell_angle_beta	90.021980
_cell_angle_gamma	90.036281
loop_
_atom_site_label
_atom_site_type_symbol
_atom_site_fract_x
_atom_site_fract_y
_atom_site_fract_z
Zn1	Zn	0.686720	-0.178978	0.254125
Zn2	Zn	1.186720	0.321022	0.754125
Zn3	Zn	0.686652	-0.254090	0.178995
Zn4	Zn	1.186652	0.245910	0.678995
Zn5	Zn	0.611602	-0.178968	0.178995
Zn6	Zn	1.111602	0.321032	0.678995
Zn7	Zn	0.611550	-0.254075	0.254083
Zn8	Zn	1.111550	0.245925	0.754083
O9	O	0.649131	-0.216528	0.216549
O10	O	1.149131	0.283472	0.716549
O11	O	0.749578	-0.188952	0.244176
O12	O	1.249578	0.311048	0.744176
O13	O	0.676690	-0.244127	0.116128
O14	O	1.176690	0.255873	0.616128
O15	O	0.621617	-0.116102	0.188978
O16	O	1.121617	0.383898	0.688978
O17	O	0.749528	-0.244137	0.188979
O18	O	1.249528	0.255863	0.688979
O19	O	0.676805	-0.116109	0.244176
O20	O	1.176805	0.383891	0.744176
O21	O	0.621551	-0.188935	0.116127
O22	O	1.121551	0.311065	0.616127
O23	O	0.548728	-0.188921	0.188938
O24	O	1.048728	0.311079	0.688938
O25	O	0.621528	-0.244111	0.316956
O26	O	1.121528	0.255889	0.816956
O27	O	0.548690	-0.244101	0.244105
O28	O	1.048690	0.255899	0.744105
O29	O	0.676755	-0.188937	0.316987
O30	O	1.176755	0.311063	0.816987
O31	O	0.676639	-0.316955	0.188938
O32	O	1.176639	0.183045	0.688938
O33	O	0.621462	-0.316944	0.244105
O34	O	1.121462	0.183056	0.744105
C35	C	0.532408	-0.216509	0.216517
C36	C	1.032408	0.283491	0.716517
C37	C	0.482474	-0.216511	0.216514
C38	C	0.982474	0.283489	0.716514
C39	C	0.172820	-0.245303	0.245240
C40	C	0.672820	0.254697	0.745240
C41	C	-0.014853	-0.245315	0.245260
C42	C	0.485147	0.254685	0.745260
O43	O	-0.039127	-0.269774	0.269665
O44	O	0.460873	0.230226	0.769665
N45	N	-0.038311	-0.216544	0.216583
N46	N	0.461689	0.283456	0.716583
C47	C	-0.014848	-0.187766	0.187902
C48	C	0.485152	0.312234	0.687902
O49	O	-0.039107	-0.163291	0.163514
O50	O	0.460893	0.336709	0.663514
C51	C	0.172824	-0.187751	0.187884
C52	C	0.672824	0.312249	0.687884
C53	C	0.196280	-0.216527	0.216560
C54	C	0.696280	0.283473	0.716560
C55	C	0.196276	-0.274076	0.273913
C56	C	0.696276	0.225924	0.773913
C57	C	0.243191	-0.274075	0.273906
C58	C	0.743191	0.225925	0.773906
C59	C	0.266651	-0.245299	0.245226
C60	C	0.766651	0.254701	0.745226
C61	C	0.243195	-0.216526	0.216553
C62	C	0.743195	0.283474	0.716553
C63	C	0.196286	-0.158971	0.159205
C64	C	0.696286	0.341029	0.659205
C65	C	0.243207	-0.158969	0.159204
C66	C	0.743207	0.341031	0.659204
C67	C	0.266663	-0.187745	0.187880
C68	C	0.766663	0.312255	0.687880
C69	C	0.313570	-0.187749	0.187865
C70	C	0.813570	0.312251	0.687865
N71	N	0.337029	-0.216520	0.216542
N72	N	0.837029	0.283480	0.716542
C73	C	0.313569	-0.245295	0.245222
C74	C	0.813569	0.254705	0.745222
C75	C	-0.113379	-0.187776	0.187912
C76	C	0.386621	0.312224	0.687912
C77	C	-0.160297	-0.187780	0.187916
C78	C	0.339703	0.312220	0.687916
C79	C	-0.160298	-0.245329	0.245275
C80	C	0.339702	0.254671	0.745275
C81	C	-0.113380	-0.245327	0.245269
C82	C	0.386620	0.254673	0.745269
C83	C	-0.089921	-0.216547	0.216589
C84	C	0.410079	0.283453	0.716589
C85	C	0.412095	-0.245290	0.245205
C86	C	0.912095	0.254710	0.745205
C87	C	0.459014	-0.245287	0.245194
C88	C	0.959014	0.254713	0.745194
C89	C	0.459012	-0.187736	0.187837
C90	C	0.959012	0.312264	0.687837
C91	C	0.412096	-0.187740	0.187846
C92	C	0.912096	0.312260	0.687846
C93	C	0.388639	-0.216519	0.216534
C94	C	0.888639	0.283481	0.716534
O95	O	0.337873	-0.163299	0.163477
O96	O	0.837873	0.336701	0.663477
O97	O	0.337836	-0.269759	0.269613
O98	O	0.837836	0.230241	0.769613
C99	C	0.125905	-0.245304	0.245247
C100	C	0.625905	0.254696	0.745247
C101	C	0.102449	-0.216531	0.216574
C102	C	0.602449	0.283469	0.716574
C103	C	0.125909	-0.187755	0.187893
C104	C	0.625909	0.312245	0.687893
C105	C	0.055531	-0.216535	0.216577
C106	C	0.555531	0.283465	0.716577
C107	C	0.032071	-0.245310	0.245258
C108	C	0.532071	0.254690	0.745258
C109	C	0.055529	-0.274082	0.273934
C110	C	0.555529	0.225918	0.773934
C111	C	0.102445	-0.274080	0.273927
C112	C	0.602445	0.225920	0.773927
C113	C	0.102451	-0.158984	0.159217
C114	C	0.602451	0.341016	0.659217
C115	C	0.055535	-0.158989	0.159226
C116	C	0.555535	0.341011	0.659226
C117	C	0.032075	-0.187764	0.187906
C118	C	0.532075	0.312236	0.687906
C119	C	0.649050	-0.333250	0.216527
C120	C	1.149050	0.166750	0.716527
C121	C	0.649056	-0.383185	0.216533
C122	C	1.149056	0.116815	0.716533
C123	C	0.677914	-0.692821	0.187866
C124	C	1.177914	-0.192821	0.687866
C125	C	0.677969	-0.880494	0.187883
C126	C	1.177969	-0.380494	0.687883
O127	O	0.702441	-0.904753	0.163493
O128	O	1.202441	-0.404753	0.663493
N129	N	0.649224	-0.903970	0.216583
N130	N	1.149224	-0.403970	0.716583
C131	C	0.620465	-0.880524	0.245283
C132	C	1.120465	-0.380524	0.745283
O133	O	0.596020	-0.904798	0.269698
O134	O	1.096020	-0.404798	0.769698
C135	C	0.620412	-0.692852	0.245268
C136	C	1.120412	-0.192852	0.745268
C137	C	0.649156	-0.669379	0.216563
C138	C	1.149156	-0.169379	0.716563
C139	C	0.706656	-0.669348	0.159164
C140	C	1.206656	-0.169348	0.659164
C141	C	0.706640	-0.622433	0.159158
C142	C	1.206640	-0.122433	0.659158
C143	C	0.677882	-0.598990	0.187854
C144	C	1.177882	-0.098990	0.687854
C145	C	0.649140	-0.622463	0.216557
C146	C	1.149140	-0.122463	0.716557
C147	C	0.591656	-0.669407	0.273969
C148	C	1.091656	-0.169407	0.773969
C149	C	0.591646	-0.622486	0.273964
C150	C	1.091646	-0.122486	0.773964
C151	C	0.620390	-0.599013	0.245259
C152	C	1.120390	-0.099013	0.745259
C153	C	0.620367	-0.552106	0.245248
C154	C	1.120367	-0.052106	0.745248
N155	N	0.649112	-0.528630	0.216548
N156	N	1.149112	-0.028630	0.716548
C157	C	0.677869	-0.552072	0.187851
C158	C	1.177869	-0.052072	0.687851
C159	C	0.620494	-0.979055	0.245289
C160	C	1.120494	-0.479055	0.745289
C161	C	0.620507	-1.025973	0.245292
C162	C	1.120507	-0.525973	0.745292
C163	C	0.678012	-1.025939	0.187893
C164	C	1.178012	-0.525939	0.687893
C165	C	0.677996	-0.979021	0.187887
C166	C	1.177996	-0.479021	0.687887
C167	C	0.649239	-0.955579	0.216589
C168	C	1.149239	-0.455579	0.716589
C169	C	0.677834	-0.453547	0.187841
C170	C	1.177834	0.046453	0.687841
C171	C	0.677814	-0.406627	0.187836
C172	C	1.177814	0.093373	0.687836
C173	C	0.620311	-0.406664	0.245237
C174	C	1.120311	0.093336	0.745237
C175	C	0.620329	-0.453580	0.245240
C176	C	1.120329	0.046420	0.745240
C177	C	0.649094	-0.477020	0.216540
C178	C	1.149094	0.022980	0.716540
O179	O	0.595912	-0.527818	0.269629
O180	O	1.095912	-0.027818	0.769629
O181	O	0.702318	-0.527791	0.163447
O182	O	1.202318	-0.027791	0.663447
C183	C	0.677930	-0.739737	0.187872
C184	C	1.177930	-0.239737	0.687872
C185	C	0.649188	-0.763210	0.216574
C186	C	1.149188	-0.263210	0.716574
C187	C	0.620430	-0.739767	0.245271
C188	C	1.120430	-0.239767	0.745271
C189	C	0.649200	-0.810128	0.216578
C190	C	1.149200	-0.310128	0.716578
C191	C	0.677958	-0.833570	0.187881
C192	C	1.177958	-0.333570	0.687881
C193	C	0.706703	-0.810094	0.159181
C194	C	1.206703	-0.310094	0.659181
C195	C	0.706687	-0.763179	0.159175
C196	C	1.206687	-0.263179	0.659175
C197	C	0.591685	-0.763243	0.273971
C198	C	1.091685	-0.263243	0.773971
C199	C	0.591703	-0.810158	0.273974
C200	C	1.091703	-0.310158	0.773974
C201	C	0.620461	-0.833601	0.245277
C202	C	1.120461	-0.333601	0.745277
C203	C	0.766309	-0.216547	0.216582
C204	C	1.266309	0.283453	0.716582
C205	C	0.816244	-0.216555	0.216596
C206	C	1.316244	0.283445	0.716596
C207	C	0.649143	-0.216524	0.333728
C208	C	1.149143	0.283476	0.833728
C209	C	0.649148	-0.216522	0.383662
C210	C	1.149148	0.283478	0.883662
C211	C	0.649225	-0.099349	0.216582
C212	C	1.149225	0.400651	0.716582
C213	C	0.649265	-0.049415	0.216595
C214	C	1.149265	0.450585	0.716595
C215	C	0.649145	-0.216499	0.099827
C216	C	1.149145	0.283501	0.599827
C217	C	0.649227	-0.216374	0.049893
C218	C	1.149227	0.283626	0.549893
C219	C	0.677935	-0.187718	0.693325
C220	C	1.177935	0.312282	1.193325
C221	C	0.677957	-0.187680	0.880998
C222	C	1.177957	0.312320	1.380998
O223	O	0.702399	-0.163232	0.905279
O224	O	1.202399	0.336768	1.405279
N225	N	0.649208	-0.216402	0.904448
N226	N	1.149208	0.283598	1.404448
C227	C	0.620449	-0.245133	0.880976
C228	C	1.120449	0.254867	1.380976
O229	O	0.595993	-0.269559	0.905228
O230	O	1.095993	0.230441	1.405228
C231	C	0.620424	-0.245169	0.693304
C232	C	1.120424	0.254831	1.193304
C233	C	0.649179	-0.216448	0.669857
C234	C	1.149179	0.283552	1.169857
C235	C	0.706687	-0.158999	0.669877
C236	C	1.206687	0.341001	1.169877
C237	C	0.706683	-0.159011	0.622962
C238	C	1.206683	0.340989	1.122962
C239	C	0.677927	-0.187741	0.599494
C240	C	1.177927	0.312259	1.099494
C241	C	0.649175	-0.216460	0.622941
C242	C	1.149175	0.283540	1.122941
C243	C	0.591663	-0.273898	0.669833
C244	C	1.091663	0.226102	1.169833
C245	C	0.591659	-0.273903	0.622912
C246	C	1.091659	0.226097	1.122912
C247	C	0.620414	-0.245183	0.599465
C248	C	1.120414	0.254817	1.099465
C249	C	0.620415	-0.245202	0.552558
C250	C	1.120415	0.254798	1.052558
N251	N	0.649164	-0.216480	0.529108
N252	N	1.149164	0.283520	1.029108
C253	C	0.677920	-0.187749	0.552576
C254	C	1.177920	0.312251	1.052576
C255	C	0.620464	-0.245113	0.979507
C256	C	1.120464	0.254887	1.479507
C257	C	0.620471	-0.245105	1.026425
C258	C	1.120471	0.254895	1.526425
C259	C	0.677979	-0.187650	1.026443
C260	C	1.177979	0.312350	1.526443
C261	C	0.677974	-0.187661	0.979524
C262	C	1.177974	0.312339	1.479524
C263	C	0.649214	-0.216391	0.956057
C264	C	1.149214	0.283609	1.456057
C265	C	0.677910	-0.187776	0.454050
C266	C	1.177910	0.312224	0.954050
C267	C	0.677904	-0.187792	0.407130
C268	C	1.177904	0.312208	0.907130
C269	C	0.620395	-0.245244	0.407116
C270	C	1.120395	0.254756	0.907116
C271	C	0.620401	-0.245230	0.454032
C272	C	1.120401	0.254770	0.954032
C273	C	0.649161	-0.216493	0.477497
C274	C	1.149161	0.283507	0.977497
O275	O	0.595982	-0.269633	0.528248
O276	O	1.095982	0.230367	1.028248
O277	O	0.702366	-0.163320	0.528316
O278	O	1.202366	0.336680	1.028316
C279	C	0.677939	-0.187706	0.740240
C280	C	1.177939	0.312294	1.240240
C281	C	0.649187	-0.216425	0.763688
C282	C	1.149187	0.283575	1.263688
C283	C	0.620431	-0.245155	0.740219
C284	C	1.120431	0.254845	1.240219
C285	C	0.649194	-0.216417	0.810605
C286	C	1.149194	0.283583	1.310605
C287	C	0.677950	-0.187686	0.834074
C288	C	1.177950	0.312314	1.334074
C289	C	0.706699	-0.158964	0.810624
C290	C	1.206699	0.341036	1.310624
C291	C	0.706695	-0.158976	0.763708
C292	C	1.206695	0.341024	1.263708
C293	C	0.591682	-0.273877	0.763669
C294	C	1.091682	0.226123	1.263669
C295	C	0.591689	-0.273864	0.810585
C296	C	1.091689	0.226136	1.310585
C297	C	0.620445	-0.245133	0.834053
C298	C	1.120445	0.254867	1.334053
H299	H	0.177197	-0.135539	0.135854
H300	H	0.677197	0.364461	0.635854
C301	C	0.699979	-1.040441	0.111851
C302	C	1.199979	-0.540441	0.611851
C303	C	0.709626	-1.051730	0.156365
C304	C	1.209626	-0.551730	0.656365
H305	H	0.719495	-1.056372	0.092395
H306	H	1.219495	-0.556372	0.592395
H307	H	0.704100	-1.009147	0.107727
H308	H	1.204100	-0.509147	0.607727
H309	H	0.669800	-1.048156	0.105242
H310	H	1.169800	-0.548156	0.605242
H311	H	0.739804	-1.044012	0.162975
H312	H	1.239804	-0.544012	0.662975
H313	H	0.705508	-1.083031	0.160492
H314	H	1.205508	-0.583031	0.660492
H315	H	-0.179390	-0.164352	0.164561
H316	H	0.320610	0.335648	0.664561
H317	H	0.392998	-0.164309	0.164496
H318	H	0.892998	0.335691	0.664496
H319	H	0.568229	-0.603402	0.297337
H320	H	1.068229	-0.103402	0.797337
H321	H	0.121538	-0.297512	0.297278
H322	H	0.621538	0.202488	0.797278
C323	C	0.566108	-0.299432	0.550983
C324	C	1.066108	0.200568	1.050983
C325	C	0.560044	-0.305485	0.597117
C326	C	1.060044	0.194515	1.097117
H327	H	0.546589	-0.318928	0.535060
H328	H	1.046589	0.181072	1.035060
H329	H	0.596282	-0.306017	0.543304
H330	H	1.096282	0.193983	1.043304
H331	H	0.559557	-0.269246	0.543298
H332	H	1.059557	0.230754	1.043298
H333	H	0.566598	-0.335670	0.604803
H334	H	1.066598	0.164330	1.104803
H335	H	0.529863	-0.298903	0.604800
H336	H	1.029863	0.201097	1.104800
H337	H	0.701388	-0.164274	0.960437
H338	H	1.201388	0.335726	1.460437
H339	H	0.730110	-0.135588	0.744622
H340	H	1.230110	0.364412	1.244622
C341	C	0.041039	-0.350189	0.295687
C342	C	0.541039	0.149811	0.795687
C343	C	0.029737	-0.305711	0.305463
C344	C	0.529737	0.194289	0.805463
H345	H	0.025112	-0.369712	0.315151
H346	H	0.525112	0.130288	0.815151
H347	H	0.072334	-0.354306	0.299792
H348	H	0.572334	0.145694	0.799792
H349	H	0.033329	-0.356715	0.265491
H350	H	0.533329	0.143285	0.765491
H351	H	0.037450	-0.299184	0.335658
H352	H	0.537450	0.200816	0.835658
H353	H	-0.001565	-0.301591	0.301362
H354	H	0.498435	0.198409	0.801362
H355	H	0.568248	-0.297285	0.688916
H356	H	1.068248	0.202715	1.188916
C357	C	0.614062	-0.506325	0.305668
C358	C	1.114062	-0.006325	0.805668
C359	C	0.588732	-0.479387	0.276788
C360	C	1.088732	0.020613	0.776788
H361	H	0.594556	-0.522257	0.325144
H362	H	1.094556	-0.022257	0.825144
H363	H	0.633611	-0.487993	0.322870
H364	H	1.133611	0.012007	0.822870
H365	H	0.631191	-0.526999	0.288574
H366	H	1.131191	-0.026999	0.788574
H367	H	0.571605	-0.458710	0.293882
H368	H	1.071605	0.041290	0.793882
H369	H	0.569175	-0.497721	0.259585
H370	H	1.069175	0.002279	0.759585
C371	C	0.703509	-0.162122	1.098377
C372	C	1.203509	0.337878	1.598377
C373	C	0.709582	-0.156063	1.052245
C374	C	1.209582	0.343937	1.552245
H375	H	0.723015	-0.142618	1.114307
H376	H	1.223015	0.357382	1.614307
H377	H	0.710069	-0.192302	1.106062
H378	H	1.210069	0.307698	1.606062
H379	H	0.673326	-0.155549	1.106049
H380	H	1.173326	0.344451	1.606049
H381	H	0.739765	-0.162640	1.044572
H382	H	1.239765	0.337360	1.544572
H383	H	0.703026	-0.125877	1.044558
H384	H	1.203026	0.374123	1.544558
H385	H	0.597097	-1.045080	0.268662
H386	H	1.097097	-0.545080	0.768662
H387	H	0.036441	-0.135556	0.135871
H388	H	0.536441	0.364444	0.635871
H389	H	0.568292	-0.829266	0.297349
H390	H	1.068292	-0.329266	0.797349
C391	C	0.734659	-0.411314	0.131100
C392	C	1.234659	0.088686	0.631100
C393	C	0.709413	-0.380826	0.156283
C394	C	1.209413	0.119174	0.656283
H395	H	0.754169	-0.395386	0.111624
H396	H	1.254169	0.104614	0.611624
H397	H	0.715103	-0.429639	0.113897
H398	H	1.215103	0.070361	0.613897
H399	H	0.751833	-0.429590	0.150701
H400	H	1.251833	0.070410	0.650701
H401	H	0.692237	-0.362553	0.136682
H402	H	1.192237	0.137447	0.636682
H403	H	0.728972	-0.362494	0.173487
H404	H	1.228972	0.137506	0.673487
H405	H	0.597076	-0.959972	0.268661
H406	H	1.097076	-0.459972	0.768661
H407	H	0.478121	-0.164309	0.164485
H408	H	0.978121	0.335691	0.664485
C409	C	0.155179	-0.152649	0.098787
C410	C	0.655179	0.347351	0.598787
C411	C	0.128234	-0.127354	0.127687
C412	C	0.628234	0.372646	0.627687
H413	H	0.171097	-0.133121	0.079321
H414	H	0.671097	0.366879	0.579321
H415	H	0.136854	-0.172196	0.081575
H416	H	0.636854	0.327804	0.581575
H417	H	0.175866	-0.169779	0.115867
H418	H	0.675866	0.330221	0.615867
H419	H	0.107544	-0.110226	0.110606
H420	H	0.607544	0.389774	0.610606
H421	H	0.146560	-0.107799	0.144900
H422	H	0.646560	0.392201	0.644900
C423	C	-0.118100	-0.130894	0.131214
C424	C	0.381900	0.369106	0.631214
C425	C	-0.087597	-0.156141	0.156381
C426	C	0.412403	0.343859	0.656381
H427	H	-0.102184	-0.111367	0.111745
H428	H	0.397816	0.388633	0.611745
H429	H	-0.136379	-0.113743	0.150822
H430	H	0.363621	0.386257	0.650822
H431	H	-0.136419	-0.150451	0.114000
H432	H	0.363581	0.349549	0.614000
H433	H	-0.069279	-0.136584	0.173598
H434	H	0.430721	0.363416	0.673598
H435	H	-0.069309	-0.173294	0.136771
H436	H	0.430691	0.326706	0.636771
C437	C	0.738304	-0.506234	0.181671
C438	C	1.238304	-0.006234	0.681671
C439	C	0.709459	-0.479302	0.156297
C440	C	1.209459	0.020698	0.656297
H441	H	0.757831	-0.522130	0.162196
H442	H	1.257831	-0.022130	0.662196
H443	H	0.721192	-0.526936	0.198754
H444	H	1.221192	-0.026936	0.698754
H445	H	0.755458	-0.487899	0.201265
H446	H	1.255458	0.012101	0.701265
H447	H	0.692303	-0.497638	0.136705
H448	H	1.192303	0.002362	0.636705
H449	H	0.726573	-0.458598	0.139205
H450	H	1.226573	0.041402	0.639205
H451	H	0.596984	-0.268637	0.388000
H452	H	1.096984	0.231363	0.888000
C453	C	0.763487	-0.627127	0.102430
C454	C	1.263487	-0.127127	0.602430
C455	C	0.738243	-0.596635	0.127611
C456	C	1.238243	-0.096635	0.627611
H457	H	0.783002	-0.611202	0.082957
H458	H	1.283002	-0.111202	0.582957
H459	H	0.743930	-0.645448	0.085225
H460	H	1.243930	-0.145448	0.585225
H461	H	0.780655	-0.645406	0.122033
H462	H	1.280655	-0.145406	0.622033
H463	H	0.721072	-0.578358	0.108008
H464	H	1.221072	-0.078358	0.608008
H465	H	0.757802	-0.578306	0.144817
H466	H	1.257802	-0.078306	0.644817
C467	C	0.767144	-0.722013	0.153021
C468	C	1.267144	-0.222013	0.653021
C469	C	0.738301	-0.695092	0.127633
C470	C	1.238301	-0.195092	0.627633
H471	H	0.786691	-0.737896	0.133557
H472	H	1.286691	-0.237896	0.633557
H473	H	0.750032	-0.742726	0.170091
H474	H	1.250032	-0.242726	0.670091
H475	H	0.784277	-0.703671	0.172629
H476	H	1.284277	-0.203671	0.672629
H477	H	0.721166	-0.713434	0.108027
H478	H	1.221166	-0.213434	0.608027
H479	H	0.755415	-0.674377	0.110555
H480	H	1.255415	-0.174377	0.610555
H481	H	0.262285	-0.297506	0.297258
H482	H	0.762285	0.202494	0.797258
H483	H	0.478110	-0.268721	0.268545
H484	H	0.978110	0.231279	0.768545
H485	H	0.701321	-0.164403	0.388042
H486	H	1.201321	0.335597	0.888042
C487	C	0.531233	-0.722217	0.280169
C488	C	1.031233	-0.222217	0.780169
C489	C	0.560063	-0.695201	0.305527
C490	C	1.060063	-0.195201	0.805527
H491	H	0.511727	-0.738138	0.299654
H492	H	1.011727	-0.238138	0.799654
H493	H	0.548357	-0.742896	0.263084
H494	H	1.048357	-0.242896	0.763084
H495	H	0.514056	-0.703935	0.260577
H496	H	1.014056	-0.203935	0.760577
H497	H	0.577243	-0.713484	0.325117
H498	H	1.077243	-0.213484	0.825117
H499	H	0.542937	-0.674520	0.322620
H500	H	1.042937	-0.174520	0.822620
H501	H	0.730115	-0.135573	0.829740
H502	H	1.230115	0.364427	1.329740
C503	C	0.734759	-0.130991	0.449343
C504	C	1.234759	0.369009	0.949343
C505	C	0.709525	-0.156191	0.479839
C506	C	1.209525	0.343809	0.979839
H507	H	0.754279	-0.111495	0.465265
H508	H	1.254279	0.388505	0.965265
H509	H	0.715196	-0.113808	0.431041
H510	H	1.215196	0.386192	0.931041
H511	H	0.751920	-0.150580	0.431045
H512	H	1.251920	0.349420	0.931045
H513	H	0.692361	-0.136602	0.498135
H514	H	1.192361	0.363398	0.998135
H515	H	0.729090	-0.173375	0.498148
H516	H	1.229090	0.326625	0.998148
C517	C	0.563624	-0.301893	1.021682
C518	C	1.063624	0.198107	1.521682
C519	C	0.588865	-0.276678	1.052195
C520	C	1.088865	0.223322	1.552195
H521	H	0.544109	-0.321382	1.037591
H522	H	1.044109	0.178618	1.537591
H523	H	0.583183	-0.319083	1.003387
H524	H	1.083183	0.180917	1.503387
H525	H	0.546457	-0.282313	1.003379
H526	H	1.046457	0.217687	1.503379
H527	H	0.606036	-0.296258	1.070496
H528	H	1.106036	0.203742	1.570496
H529	H	0.569305	-0.259487	1.070497
H530	H	1.069305	0.240513	1.570497
C531	C	0.684270	-0.926279	0.127456
C532	C	1.184270	-0.426279	0.627456
C533	C	0.709594	-0.953221	0.156336
C534	C	1.209594	-0.453221	0.656336
H535	H	0.703779	-0.910356	0.107975
H536	H	1.203779	-0.410356	0.607975
H537	H	0.667149	-0.905601	0.144545
H538	H	1.167149	-0.405601	0.644545
H539	H	0.664713	-0.944610	0.110254
H540	H	1.164713	-0.444610	0.610254
H541	H	0.729149	-0.934890	0.173540
H542	H	1.229149	-0.434890	0.673540
H543	H	0.726723	-0.973902	0.139244
H544	H	1.226723	-0.473902	0.639244
H545	H	0.730104	-0.135601	0.688980
H546	H	1.230104	0.364399	1.188980
H547	H	0.596895	-0.387570	0.268600
H548	H	1.096895	0.112430	0.768600
C549	C	0.767164	-0.862789	0.153034
C550	C	1.267164	-0.362789	0.653034
C551	C	0.738329	-0.835861	0.127645
C552	C	1.238329	-0.335861	0.627645
H553	H	0.786694	-0.878693	0.133569
H554	H	1.286694	-0.378693	0.633569
H555	H	0.750045	-0.883484	0.170119
H556	H	1.250045	-0.383484	0.670119
H557	H	0.784315	-0.844451	0.172628
H558	H	1.284315	-0.344451	0.672628
H559	H	0.721175	-0.854199	0.108053
H560	H	1.221175	-0.354199	0.608053
H561	H	0.755450	-0.815163	0.110552
H562	H	1.255450	-0.315163	0.610552
H563	H	0.730093	-0.744071	0.135801
H564	H	1.230093	-0.244071	0.635801
C565	C	0.614160	-0.305558	0.926741
C566	C	1.114160	0.194442	1.426741
C567	C	0.588850	-0.276698	0.953716
C568	C	1.088850	0.223302	1.453716
H569	H	0.594642	-0.325056	0.910819
H570	H	1.094642	0.174944	1.410819
H571	H	0.633721	-0.322737	0.945047
H572	H	1.133721	0.177263	1.445047
H573	H	0.631275	-0.288451	0.906058
H574	H	1.131275	0.211549	1.406058
H575	H	0.571737	-0.293805	0.974401
H576	H	1.071737	0.206195	1.474401
H577	H	0.569280	-0.259517	0.935408
H578	H	1.069280	0.240483	1.435408
H579	H	0.596991	-0.268621	0.473123
H580	H	1.096991	0.231379	0.973123
C581	C	0.763521	-0.102216	0.627708
C582	C	1.263521	0.397784	1.127708
C583	C	0.738286	-0.127434	0.597193
C584	C	1.238286	0.372566	1.097193
H585	H	0.783029	-0.082718	0.611800
H586	H	1.283029	0.417282	1.111800
H587	H	0.780692	-0.121789	0.646007
H588	H	1.280692	0.378211	1.146007
H589	H	0.743955	-0.085030	0.646006
H590	H	1.243955	0.414970	1.146006
H591	H	0.757852	-0.144622	0.578896
H592	H	1.257852	0.355378	1.078896
H593	H	0.721114	-0.107858	0.578886
H594	H	1.221114	0.392142	1.078886
H595	H	-0.179407	-0.268759	0.268628
H596	H	0.320593	0.231241	0.768628
H597	H	0.568268	-0.744160	0.297340
H598	H	1.068268	-0.244160	0.797340
H599	H	0.568274	-0.297256	0.829671
H600	H	1.068274	0.202744	1.329671
H601	H	0.568265	-0.297274	0.744566
H602	H	1.068265	0.202726	1.244566
C603	C	0.359368	-0.251634	0.305641
C604	C	0.859368	0.248366	0.805641
C605	C	0.386314	-0.276924	0.276737
C606	C	0.886314	0.223076	0.776737
H607	H	0.343455	-0.271165	0.325107
H608	H	0.843455	0.228835	0.825107
H609	H	0.338682	-0.234504	0.288567
H610	H	0.838682	0.265496	0.788567
H611	H	0.377696	-0.232086	0.322856
H612	H	0.877696	0.267914	0.822856
H613	H	0.367986	-0.296469	0.259519
H614	H	0.867986	0.203531	0.759519
H615	H	0.407003	-0.294061	0.293813
H616	H	0.907003	0.205939	0.793813
C617	C	0.200999	-0.330964	0.330601
C618	C	0.700999	0.169036	0.830601
C619	C	0.170494	-0.305713	0.305440
C620	C	0.670494	0.194287	0.805440
H621	H	0.185084	-0.350500	0.350061
H622	H	0.685084	0.149500	0.850061
H623	H	0.219314	-0.311413	0.347820
H624	H	0.719314	0.188587	0.847820
H625	H	0.219283	-0.348110	0.310986
H626	H	0.719283	0.151890	0.810986
H627	H	0.152213	-0.288564	0.325055
H628	H	0.652213	0.211436	0.825055
H629	H	0.152171	-0.325266	0.288220
H630	H	0.652171	0.174734	0.788220
H631	H	-0.094285	-0.268759	0.268619
H632	H	0.405715	0.231241	0.768619
H633	H	0.262305	-0.135529	0.135852
H634	H	0.762305	0.364471	0.635852
