data_functionalizedCrystal
_audit_creation_method	'MofGen! by Chris Wilmer'
_symmetry_space_group_name_H-M	'P1'
_symmetry_Int_Tables_number	1
_symmetry_cell_setting	triclinic
loop_
_symmetry_equiv_pos_as_xyz
  x,y,z
_cell_length_a	18.760487
_cell_length_b	18.760492
_cell_length_c	14.560438
_cell_angle_alpha	59.999903
_cell_angle_beta	60.020077
_cell_angle_gamma	90.035544
loop_
_atom_site_label
_atom_site_type_symbol
_atom_site_fract_x
_atom_site_fract_y
_atom_site_fract_z
Zr1	Zr	0.686682	-0.093107	1.005278
O2	O	0.572863	-0.206992	1.196884
O3	O	0.721574	-0.058197	0.813676
O4	O	0.721570	-0.206904	1.005283
O5	O	0.572869	0.059020	1.005271
O6	O	0.838873	-0.206831	1.005283
O7	O	0.572867	-0.058285	1.005277
O8	O	0.838879	0.059178	0.662532
O9	O	0.572864	-0.206990	1.348022
O10	O	0.823997	-0.043252	0.892483
O11	O	0.736457	0.044238	0.892479
O12	O	0.736453	-0.130846	1.118072
O13	O	0.648913	-0.043356	1.118068
Zr14	Zr	0.873771	0.094096	1.005269
Zr15	Zr	0.873767	-0.092992	1.005278
Zr16	Zr	0.686687	0.093981	1.005269
Zr17	Zr	0.686683	-0.093103	1.246326
Zr18	Zr	0.873771	0.094093	0.764221
O19	O	0.838880	0.059186	1.196871
O20	O	0.838874	-0.206829	1.196884
O21	O	0.572870	0.059022	1.196872
O22	O	0.987590	0.207982	0.813663
O23	O	0.987584	-0.058033	0.813675
O24	O	0.721580	0.207818	0.813663
O25	O	0.987584	-0.058030	1.005276
O26	O	0.838883	0.207893	1.005264
O27	O	0.721580	0.207821	1.005264
O28	O	0.987587	0.059275	1.005270
O29	O	0.721571	-0.206899	1.348022
O30	O	0.838883	0.207888	0.662525
O31	O	0.987590	0.207980	0.662525
O32	O	0.987586	0.059270	0.662532
O33	O	0.572867	-0.058280	1.348015
O34	O	0.721574	-0.058189	1.348015
O35	O	0.824001	0.131835	0.892475
O36	O	0.911540	0.044346	0.892479
O37	O	0.823997	-0.043248	1.118068
O38	O	0.736457	0.044241	1.118064
C39	C	0.546212	0.000351	1.005274
C40	C	0.466790	0.000302	1.005274
C41	C	0.780226	0.000490	0.703760
C42	C	0.780226	0.000489	0.601429
C43	C	0.780221	-0.233524	1.005284
C44	C	0.780219	-0.312947	1.005288
C45	C	0.085276	-0.045076	1.123033
C46	C	0.176678	0.046373	0.887514
C47	C	0.251300	0.046298	0.887512
C48	C	0.242913	0.000534	1.005273
C49	C	0.159904	-0.045155	1.123035
C50	C	0.334314	0.091979	0.769752
C51	C	0.408942	0.091905	0.769745
C52	C	0.400556	0.046145	0.887507
C53	C	0.317541	0.000455	1.005274
C54	C	0.309154	-0.045309	1.123035
C55	C	0.226139	-0.090994	1.240803
C56	C	0.151518	-0.090915	1.240797
C57	C	0.475177	0.046066	0.887513
C58	C	0.383781	-0.045387	1.123036
C59	C	1.014241	0.000639	1.005273
C60	C	1.093663	0.000688	1.005273
C61	C	0.715592	-0.350302	1.005292
C62	C	0.844850	-0.350218	1.005277
C63	C	0.844853	-0.424838	1.005273
C64	C	0.780225	-0.462193	1.005277
C65	C	0.715594	-0.424927	1.005285
C66	C	0.909488	-0.462104	1.005252
C67	C	0.909495	-0.536728	1.005247
C68	C	0.844862	-0.574088	1.005261
C69	C	0.780228	-0.536818	1.005270
C70	C	0.715600	-0.574172	1.005274
C71	C	0.650962	-0.536908	1.005292
C72	C	0.650962	-0.462286	1.005298
C73	C	0.844862	-0.648709	1.005255
C74	C	0.715603	-0.648798	1.005266
C75	C	0.780232	0.234513	1.005263
C76	C	0.780234	0.313937	1.005259
C77	C	0.825919	-0.045180	0.553355
C78	C	0.825923	-0.045172	0.457195
C79	C	0.734533	0.046175	0.457196
C80	C	0.734535	0.046171	0.553347
C81	C	0.780227	0.000499	1.306787
C82	C	0.780227	0.000501	1.409118
C83	C	1.014241	0.000634	0.703759
C84	C	1.093663	0.000682	0.601428
C85	C	0.780232	0.234509	0.703749
C86	C	0.780234	0.313931	0.601414
C87	C	1.014246	0.234653	0.703748
C88	C	1.093670	0.314124	0.601414
C89	C	0.546207	-0.233663	1.306798
C90	C	0.466783	-0.313134	1.409133
C91	C	0.546213	0.000355	1.306788
C92	C	0.466791	0.000308	1.409119
C93	C	0.780222	-0.233519	1.306798
C94	C	0.780220	-0.312941	1.409133
C95	C	1.085263	-0.045029	0.553374
C96	C	1.159882	-0.045002	0.457237
C97	C	1.242899	0.000741	0.409148
C98	C	1.251297	0.046453	0.457211
C99	C	1.176679	0.046420	0.553354
C100	C	0.825931	0.396961	0.553355
C101	C	0.825930	0.471594	0.457214
C102	C	0.780235	0.463194	0.409128
C103	C	0.734531	0.380155	0.457197
C104	C	0.734528	0.305525	0.553342
C105	C	1.176671	0.305775	0.553358
C106	C	1.251306	0.380440	0.457217
C107	C	1.242937	0.463451	0.409127
C108	C	1.159927	0.471798	0.457192
C109	C	1.085295	0.397134	0.553337
C110	C	0.383782	-0.304786	1.457200
C111	C	0.309148	-0.379450	1.553371
C112	C	0.317516	-0.462462	1.601467
C113	C	0.400526	-0.470808	1.553396
C114	C	0.475159	-0.396145	1.457233
C115	C	0.475190	0.046010	1.457182
C116	C	0.400572	0.045963	1.553347
C117	C	0.317555	0.000217	1.601439
C118	C	0.309157	-0.045491	1.553371
C119	C	0.383775	-0.045448	1.457215
C120	C	0.825924	-0.304514	1.457188
C121	C	0.825939	-0.379132	1.553330
C122	C	0.780245	-0.462177	1.601421
C123	C	0.734540	-0.470603	1.553356
C124	C	0.734530	-0.395985	1.457209
H125	H	0.376941	-0.082645	1.218933
C126	C	0.780256	0.545300	0.303352
N127	N	0.780279	0.607144	0.223675
H128	H	0.697328	0.373329	0.418031
C129	C	1.325045	0.545576	0.303353
N130	N	1.386891	0.607429	0.223680
H131	H	1.017673	-0.082289	0.592527
H132	H	0.863133	-0.236901	1.418048
C133	C	0.684316	-0.561961	1.606224
N134	N	0.646497	-0.630774	1.646034
C135	C	1.185933	0.096719	0.606189
N136	N	1.192910	0.134607	0.645979
H137	H	0.697319	0.237920	0.592460
C138	C	0.217830	-0.095794	1.606269
N139	N	0.149040	-0.133674	1.646104
H140	H	0.017684	-0.082270	1.218918
C141	C	0.217845	-0.370250	1.606230
N142	N	0.149079	-0.363317	1.646040
H143	H	1.017714	0.403944	0.592452
C144	C	0.374520	-0.095716	1.404341
N145	N	0.367543	-0.133579	1.364519
H146	H	0.863150	0.539200	0.418087
C147	C	1.150624	-0.095281	0.404374
N148	N	1.143649	-0.133149	0.364557
H149	H	0.697309	-0.402859	1.418093
C150	C	0.780263	-0.544251	1.707187
N151	N	0.780278	-0.606066	1.786853
H152	H	0.863125	-0.082376	0.592498
H153	H	1.303650	0.000762	0.330861
H154	H	0.376952	-0.237200	1.418046
H155	H	1.183502	0.238190	0.592499
C156	C	0.876198	0.406222	0.606238
N157	N	0.914056	0.413204	0.646071
H158	H	1.153127	0.539396	0.418022
C159	C	1.342608	0.371239	0.404351
N160	N	1.411375	0.364307	0.364533
H161	H	0.183500	0.083629	0.791639
H162	H	0.863156	-0.372255	1.592454
H163	H	0.256738	-0.523251	1.679768
H164	H	0.863131	-0.082358	0.418054
H165	H	0.219320	-0.128260	1.336684
C166	C	0.684280	0.096427	0.606214
N167	N	0.646436	0.134284	0.646026
C168	C	0.060201	-0.141175	1.370331
N169	N	-0.008582	-0.179037	1.467894
H170	H	0.407330	-0.538405	1.592568
C171	C	0.409829	0.096255	1.606193
N172	N	0.416804	0.134138	1.645991
C173	C	0.684267	0.096415	0.404308
N174	N	0.646403	0.134253	0.364478
C175	C	0.566458	-0.405343	1.404354
N176	N	0.635225	-0.412277	1.364529
H177	H	0.476529	0.129104	0.673851
C178	C	0.343532	0.142312	0.640224
N179	N	0.350473	0.180226	0.542660
H180	H	1.318899	0.083695	0.418043
H181	H	0.542764	0.083270	0.791628
C182	C	0.644506	-0.689881	1.005270
N183	N	0.590957	-0.720824	1.005270
C184	C	0.235481	0.000183	1.707208
N185	N	0.173666	0.000164	1.786869
H186	H	0.598344	-0.567327	1.005287
H187	H	0.542780	0.083268	1.418033
H188	H	0.598336	-0.431940	1.005311
C189	C	0.915953	-0.309109	1.005228
N190	N	0.969516	-0.278138	1.005180
C191	C	0.644494	-0.309309	1.005309
N192	N	0.590943	-0.278432	1.005320
H193	H	0.962110	-0.431684	1.005240
H194	H	0.962126	-0.567065	1.005234
H195	H	0.897493	-0.679043	1.005231
