data_functionalizedCrystal
_audit_creation_method	'MofGen! by Chris Wilmer'
_symmetry_space_group_name_H-M	'P1'
_symmetry_Int_Tables_number	1
_symmetry_cell_setting	triclinic
loop_
_symmetry_equiv_pos_as_xyz
  x,y,z
_cell_length_a	18.215407
_cell_length_b	16.625546
_cell_length_c	18.215398
_cell_angle_alpha	89.973350
_cell_angle_beta	89.980536
_cell_angle_gamma	90.022916
loop_
_atom_site_label
_atom_site_type_symbol
_atom_site_fract_x
_atom_site_fract_y
_atom_site_fract_z
Zn1	Zn	1.125082	-0.321020	-0.416110
Zn2	Zn	1.458415	0.012313	-0.082776
Zn3	Zn	1.791748	0.345646	0.250557
Zn4	Zn	1.124996	-0.455855	-0.293041
Zn5	Zn	1.458329	-0.122521	0.040293
Zn6	Zn	1.791663	0.210812	0.373626
Zn7	Zn	1.002015	-0.321041	-0.293057
Zn8	Zn	1.335348	0.012293	0.040276
Zn9	Zn	1.668682	0.345626	0.373610
Zn10	Zn	1.001985	-0.455816	-0.416066
Zn11	Zn	1.335319	-0.122482	-0.082732
Zn12	Zn	1.668652	0.210851	0.250601
O13	O	1.063519	-0.388433	-0.354568
O14	O	1.396853	-0.055100	-0.021235
O15	O	1.730186	0.278234	0.312098
O16	O	1.228055	-0.338914	-0.399796
O17	O	1.561388	-0.005581	-0.066463
O18	O	1.894721	0.327753	0.266871
O19	O	1.108659	-0.437996	-0.190059
O20	O	1.441992	-0.104663	0.143275
O21	O	1.775326	0.228671	0.476608
O22	O	1.018388	-0.208206	-0.309405
O23	O	1.351722	0.125128	0.023928
O24	O	1.685055	0.458461	0.357261
O25	O	1.227992	-0.437976	-0.309378
O26	O	1.561325	-0.104643	0.023956
O27	O	1.894658	0.228690	0.357289
O28	O	1.108805	-0.208191	-0.399812
O29	O	1.442138	0.125143	-0.066478
O30	O	1.775472	0.458476	0.266855
O31	O	1.018305	-0.338949	-0.190070
O32	O	1.351639	-0.005616	0.143263
O33	O	1.684972	0.327718	0.476596
O34	O	0.899027	-0.338911	-0.309363
O35	O	1.232360	-0.005578	0.023971
O36	O	1.565693	0.327755	0.357304
O37	O	1.018338	-0.437910	-0.519056
O38	O	1.351671	-0.104577	-0.185722
O39	O	1.685004	0.228757	0.147611
O40	O	0.899005	-0.437930	-0.399737
O41	O	1.232338	-0.104596	-0.066403
O42	O	1.565672	0.228737	0.266930
O43	O	1.108776	-0.338876	-0.519088
O44	O	1.442109	-0.005543	-0.185755
O45	O	1.775443	0.327790	0.147579
O46	O	1.108630	-0.568682	-0.309335
O47	O	1.441963	-0.235349	0.023998
O48	O	1.775297	0.097985	0.357332
O49	O	1.018255	-0.568653	-0.399721
O50	O	1.351588	-0.235320	-0.066387
O51	O	1.684921	0.098013	0.266946
C52	C	0.872313	-0.388419	-0.354547
C53	C	1.205647	-0.055086	-0.021214
C54	C	1.538980	0.278248	0.312120
C55	C	0.790514	-0.388433	-0.354556
C56	C	1.123848	-0.055099	-0.021222
C57	C	1.457181	0.278234	0.312111
C58	C	0.602328	-0.440073	-0.401554
C59	C	0.935662	-0.106739	-0.068221
C60	C	1.268995	0.226594	0.265113
C61	C	0.525470	-0.440075	-0.401563
C62	C	0.858803	-0.106742	-0.068230
C63	C	1.192136	0.226592	0.265103
C64	C	0.525463	-0.336808	-0.307598
C65	C	0.858796	-0.003474	0.025735
C66	C	1.192129	0.329859	0.359068
C67	C	0.602320	-0.336802	-0.307593
C68	C	0.935653	-0.003468	0.025740
C69	C	1.268987	0.329865	0.359073
C70	C	0.640751	-0.388439	-0.354570
C71	C	0.974084	-0.055105	-0.021237
C72	C	1.307417	0.278228	0.312096
C73	C	0.487035	-0.388447	-0.354584
C74	C	0.820368	-0.055114	-0.021251
C75	C	1.153701	0.278219	0.312082
C76	C	0.403701	-0.388450	-0.354594
C77	C	0.737034	-0.055116	-0.021261
C78	C	1.070368	0.278217	0.312073
C79	C	0.724090	-0.388436	-0.354562
C80	C	1.057423	-0.055102	-0.021228
C81	C	1.390756	0.278231	0.312105
C82	C	1.063450	-0.597924	-0.354537
C83	C	1.396783	-0.264590	-0.021204
C84	C	1.730116	0.068743	0.312129
C85	C	1.063487	-0.687545	-0.354549
C86	C	1.396821	-0.354212	-0.021215
C87	C	1.730154	-0.020878	0.312118
C88	C	1.063616	-1.015720	-0.354625
C89	C	1.396949	-0.682387	-0.021292
C90	C	1.730282	-0.349054	0.312041
C91	C	1.063578	-0.924412	-0.354606
C92	C	1.396911	-0.591079	-0.021273
C93	C	1.730244	-0.257745	0.312060
C94	C	1.063551	-0.851636	-0.354587
C95	C	1.396884	-0.518302	-0.021253
C96	C	1.730218	-0.184969	0.312080
C97	C	1.063514	-0.760321	-0.354568
C98	C	1.396847	-0.426988	-0.021235
C99	C	1.730181	-0.093655	0.312098
C100	C	1.255472	-0.388447	-0.354590
C101	C	1.588806	-0.055114	-0.021256
C102	C	1.922139	0.278219	0.312077
C103	C	1.337271	-0.388453	-0.354599
C104	C	1.670605	-0.055120	-0.021266
C105	C	2.003938	0.278213	0.312068
C106	C	1.063563	-0.388387	-0.546521
C107	C	1.396896	-0.055053	-0.213188
C108	C	1.730230	0.278280	0.120145
C109	C	1.063582	-0.388367	-0.628320
C110	C	1.396915	-0.055033	-0.294987
C111	C	1.730248	0.278300	0.038347
C112	C	1.063609	-0.178124	-0.354615
C113	C	1.396943	0.155209	-0.021282
C114	C	1.730276	0.488543	0.312051
C115	C	1.063648	-0.088503	-0.354635
C116	C	1.396981	0.244831	-0.021302
C117	C	1.730314	0.578164	0.312031
C118	C	1.110662	-0.439841	-0.893376
C119	C	1.443996	-0.106508	-0.560043
C120	C	1.777329	0.226826	-0.226709
C121	C	1.110651	-0.439869	-0.816517
C122	C	1.443984	-0.106536	-0.483184
C123	C	1.777318	0.226798	-0.149851
C124	C	1.016556	-0.336737	-0.816513
C125	C	1.349890	-0.003404	-0.483180
C126	C	1.683223	0.329930	-0.149846
C127	C	1.016565	-0.336714	-0.893370
C128	C	1.349898	-0.003380	-0.560037
C129	C	1.683231	0.329953	-0.226704
C130	C	1.063622	-0.388264	-0.931800
C131	C	1.396955	-0.054931	-0.598467
C132	C	1.730288	0.278402	-0.265133
C133	C	1.063602	-0.388316	-0.778084
C134	C	1.396936	-0.054982	-0.444750
C135	C	1.730269	0.278351	-0.111417
C136	C	1.063590	-0.388346	-0.694750
C137	C	1.396923	-0.055012	-0.361417
C138	C	1.730257	0.278321	-0.028083
C139	C	1.063633	-0.388236	-1.015139
C140	C	1.396967	-0.054902	-0.681806
C141	C	1.730300	0.278431	-0.348472
C142	C	1.063518	-0.388421	-0.163362
C143	C	1.396852	-0.055088	0.169971
C144	C	1.730185	0.278246	0.503305
C145	C	1.063642	-0.388213	-0.081563
C146	C	1.396976	-0.054880	0.251770
C147	C	1.730309	0.278453	0.585103
H148	H	0.633616	-0.482117	-0.439808
H149	H	0.966950	-0.148783	-0.106474
H150	H	1.300283	0.184550	0.226859
H151	H	0.494189	-0.482119	-0.439823
H152	H	0.827523	-0.148786	-0.106490
H153	H	1.160856	0.184547	0.226843
N154	N	0.641572	-0.284068	-0.259586
N155	N	0.974906	0.049265	0.073747
N156	N	1.308239	0.382599	0.407081
N157	N	0.684432	-0.312369	-0.212643
N158	N	1.017765	0.020964	0.120690
N159	N	1.351099	0.354297	0.454024
H160	H	0.712155	-0.275127	-0.178740
H161	H	1.045488	0.058206	0.154593
H162	H	1.378821	0.391540	0.487926
N163	N	1.158738	-0.492496	-0.932620
N164	N	1.492072	-0.159162	-0.599287
N165	N	1.825405	0.174171	-0.265953
N166	N	1.200738	-0.538539	-0.898300
N167	N	1.534072	-0.205205	-0.564967
N168	N	1.867405	0.128128	-0.231633
H169	H	1.234695	-0.575727	-0.926014
H170	H	1.568028	-0.242394	-0.592680
H171	H	1.901362	0.090940	-0.259347
N172	N	0.486194	-0.284069	-0.259620
N173	N	0.819527	0.049264	0.073713
N174	N	1.152860	0.382597	0.407047
N175	N	0.417572	-0.284081	-0.259630
N176	N	0.750905	0.049252	0.073704
N177	N	1.084238	0.382585	0.407037
H178	H	0.389838	-0.246835	-0.225743
H179	H	0.723171	0.086499	0.107590
H180	H	1.056505	0.419832	0.440924
N181	N	1.158703	-0.492563	-0.777280
N182	N	1.492036	-0.159230	-0.443947
N183	N	1.825370	0.174104	-0.110613
N184	N	1.200709	-0.538587	-0.811604
N185	N	1.534042	-0.205253	-0.478271
N186	N	1.867375	0.128080	-0.144937
H187	H	1.234647	-0.575806	-0.783894
H188	H	1.567980	-0.242473	-0.450560
H189	H	1.901313	0.090861	-0.117227
N190	N	0.968495	-0.284088	-0.777245
N191	N	1.301828	0.049246	-0.443912
N192	N	1.635162	0.382579	-0.110579
N193	N	0.968493	-0.284114	-0.708623
N194	N	1.301827	0.049219	-0.375290
N195	N	1.635160	0.382552	-0.041957
H196	H	0.934550	-0.246929	-0.680890
H197	H	1.267883	0.086404	-0.347557
H198	H	1.601217	0.419738	-0.014224
N199	N	0.968501	-0.284027	-0.932613
N200	N	1.301834	0.049307	-0.599280
N201	N	1.635168	0.382640	-0.265947
N202	N	0.926493	-0.238001	-0.898295
N203	N	1.259826	0.095333	-0.564961
N204	N	1.593159	0.428666	-0.231628
H205	H	0.892546	-0.200794	-0.926009
H206	H	1.225880	0.132539	-0.592676
H207	H	1.559213	0.465872	-0.259343
