data_functionalizedCrystal
_audit_creation_method	'MofGen! by Chris Wilmer'
_symmetry_space_group_name_H-M	'P1'
_symmetry_Int_Tables_number	1
_symmetry_cell_setting	triclinic
loop_
_symmetry_equiv_pos_as_xyz
  x,y,z
_cell_length_a	13.635800
_cell_length_b	11.102183
_cell_length_c	11.102315
_cell_angle_alpha	88.052119
_cell_angle_beta	108.606275
_cell_angle_gamma	71.396124
loop_
_atom_site_label
_atom_site_type_symbol
_atom_site_fract_x
_atom_site_fract_y
_atom_site_fract_z
V1	V	2.055764	-0.175845	0.396256
O2	O	2.035286	0.008443	0.388715
O3	O	2.044147	-0.348665	0.393543
O4	O	2.044157	-0.173143	0.569077
O5	O	2.035277	-0.168293	0.211966
V6	V	2.294316	-0.153802	0.374213
O7	O	2.193434	-0.224199	0.444607
O8	O	2.381745	-0.105448	0.325862
O9	O	2.194330	0.019018	0.376926
O10	O	2.373493	-0.338090	0.381754
O11	O	2.373502	-0.161354	0.558503
O12	O	2.194320	-0.156504	0.201392
V13	V	2.555764	-0.175845	0.396256
O14	O	2.535286	0.008443	0.388715
O15	O	2.544147	-0.348665	0.393543
O16	O	2.544157	-0.173143	0.569077
O17	O	2.535277	-0.168293	0.211966
V18	V	2.794316	-0.153802	0.374213
O19	O	2.693434	-0.224199	0.444607
O20	O	2.881745	-0.105448	0.325862
O21	O	2.694330	0.019018	0.376926
O22	O	2.873493	-0.338090	0.381754
O23	O	2.873502	-0.161354	0.558503
O24	O	2.694320	-0.156504	0.201392
C25	C	1.969301	-0.390794	0.387292
C26	C	2.000531	-0.532077	0.386226
C27	C	1.940350	-0.495796	0.153446
C28	C	1.924930	-0.544029	0.036560
C29	C	1.954276	-0.676777	0.035566
C30	C	1.999050	-0.761297	0.151470
C31	C	2.014471	-0.713063	0.268356
C32	C	1.985117	-0.580310	0.269338
C33	C	2.074658	-0.749345	0.501134
C34	C	2.045305	-0.616597	0.502130
C35	C	2.119432	-0.833865	0.617038
C36	C	2.134845	-0.785631	0.733926
C37	C	2.105495	-0.652874	0.734916
C38	C	2.060725	-0.568363	0.619016
C39	C	1.969313	-0.166898	0.611201
C40	C	2.000547	-0.165832	0.752484
C41	C	2.100847	0.061141	0.383174
C42	C	2.059237	0.202422	0.384248
C43	C	2.100835	-0.162753	0.159261
C44	C	2.059219	-0.163813	0.017977
C45	C	2.469301	-0.390794	0.387292
C46	C	2.500531	-0.532077	0.386226
C47	C	2.469313	-0.166898	0.611201
C48	C	2.500547	-0.165832	0.752484
C49	C	2.184574	-0.178533	0.765454
C50	C	2.291258	-0.184387	0.838312
C51	C	2.320599	-0.183384	0.971059
C52	C	2.243246	-0.176523	1.030948
C53	C	2.136562	-0.170669	0.958089
C54	C	2.107231	-0.171677	0.825341
C55	C	1.952535	-0.157959	0.945119
C56	C	1.923194	-0.158971	0.812373
C57	C	1.875182	-0.151098	1.005008
C58	C	1.768498	-0.145253	0.932151
C59	C	1.739159	-0.146258	0.799397
C60	C	1.816510	-0.153117	0.739515
C61	C	2.600847	0.061141	0.383174
C62	C	2.559237	0.202422	0.384248
C63	C	2.600835	-0.162753	0.159261
C64	C	2.559219	-0.163813	0.017977
C65	C	2.684549	-0.545042	0.398895
C66	C	2.791225	-0.617897	0.404726
C67	C	2.820562	-0.750644	0.403726
C68	C	2.743215	-0.810538	0.396899
C69	C	2.636539	-0.737683	0.391069
C70	C	2.607211	-0.604934	0.392066
C71	C	2.452525	-0.724719	0.378409
C72	C	2.423184	-0.591971	0.379399
C73	C	2.375178	-0.784614	0.371582
C74	C	2.268498	-0.711757	0.365743
C75	C	2.239163	-0.579002	0.366741
C76	C	2.316508	-0.519116	0.373569
C77	C	2.560706	-0.398609	0.788808
C78	C	2.605455	-0.514492	0.873343
C79	C	2.634802	-0.513484	1.006089
C80	C	2.619401	-0.396580	1.054301
C81	C	2.574652	-0.280697	0.969767
C82	C	2.545304	-0.281718	0.837020
C83	C	2.514502	-0.047923	0.933444
C84	C	2.485146	-0.048928	0.800697
C85	C	2.499100	0.068980	0.981656
C86	C	2.454344	0.184866	0.897121
C87	C	2.424995	0.183853	0.764367
C88	C	2.440398	0.066954	0.716162
H89	H	1.888475	-0.475199	-0.057806
H90	H	1.792633	-0.153943	0.631428
H91	H	2.399074	-0.892705	0.370776
H92	H	2.160697	-0.179367	0.657368
H93	H	2.660667	-0.436951	0.399692
H94	H	1.705524	-0.139659	0.980922
O95	O	1.903484	-0.150053	1.133935
C96	C	1.812345	-0.142776	1.171172
H97	H	1.732890	-0.099330	1.084696
H98	H	1.810365	-0.079733	1.249922
H99	H	1.820083	-0.243378	1.209011
O100	O	2.288097	-0.390149	0.374374
C101	C	2.300144	-0.332108	0.267579
H102	H	2.361237	-0.406643	0.233829
H103	H	2.332185	-0.250363	0.296227
H104	H	2.216753	-0.292382	0.186324
O105	O	2.439365	0.298524	0.943743
C106	C	2.393543	0.400594	0.840669
H107	H	2.413382	0.363549	0.753604
H108	H	2.430001	0.478898	0.869765
H109	H	2.300198	0.441872	0.815288
O110	O	1.635564	-0.140548	0.728431
C111	C	1.626261	-0.142957	0.598429
H112	H	1.690871	-0.108113	0.579550
H113	H	1.540320	-0.077319	0.534165
H114	H	1.640066	-0.245383	0.576450
H115	H	2.118067	-0.613614	0.830100
H116	H	2.854197	-0.569117	0.410288
O117	O	2.381704	0.296379	0.682216
C118	C	2.450332	0.296706	0.610467
H119	H	2.537342	0.226737	0.665068
H120	H	2.452749	0.397606	0.594969
H121	H	2.416400	0.266044	0.513347
O122	O	2.532395	-0.399661	0.659882
C123	C	2.626501	-0.469909	0.631647
H124	H	2.703984	-0.471504	0.712129
H125	H	2.623259	-0.422460	0.537084
H126	H	2.628357	-0.572565	0.622895
O127	O	2.193353	-0.769961	0.358887
C128	C	2.176254	-0.829156	0.247373
H129	H	2.199641	-0.780779	0.173975
H130	H	2.085615	-0.819153	0.204642
H131	H	2.229676	-0.935400	0.273329
H132	H	2.671241	-0.607846	1.074918
O133	O	2.178514	-0.867692	0.846548
C134	C	2.277045	-0.852405	0.923628
H135	H	2.312460	-0.809577	0.860006
H136	H	2.339344	-0.949998	0.977784
H137	H	2.259007	-0.785282	0.995421
H138	H	2.767114	-0.918631	0.396101
H139	H	2.617994	-0.609673	0.834073
H140	H	2.523007	0.069793	1.089747
H141	H	1.941722	-0.716047	-0.059613
O142	O	1.912004	-0.366848	0.154362
C143	C	1.973080	-0.318680	0.096831
H144	H	2.051618	-0.399794	0.102508
H145	H	1.995757	-0.239752	0.149663
H146	H	1.921254	-0.277544	-0.008197
H147	H	2.643313	-0.395770	1.162393
O148	O	2.135526	-0.508073	0.360911
C149	C	2.084443	-0.413681	0.250508
H150	H	2.150398	-0.393667	0.219284
H151	H	2.031301	-0.321469	0.273398
H152	H	2.030325	-0.449576	0.169569
O153	O	2.411698	0.066043	0.587192
C154	C	2.297984	0.135611	0.526714
H155	H	2.254316	0.138374	0.599227
H156	H	2.261973	0.086804	0.443670
H157	H	2.285712	0.237907	0.488339
H158	H	2.022956	-0.869386	0.150651
O159	O	2.924152	-0.821620	0.409436
C160	C	2.933441	-0.951621	0.407052
H161	H	2.868824	-0.970478	0.441899
H162	H	3.019377	-1.015885	0.472701
H163	H	2.919634	-0.973622	0.304633
O164	O	2.366415	-0.191280	0.780110
C165	C	2.383502	-0.302804	0.720933
H166	H	2.360098	-0.376183	0.769313
H167	H	2.474142	-0.345555	0.730950
H168	H	2.330087	-0.276858	0.614685
O169	O	2.148035	-0.962854	0.616308
C170	C	2.190825	-1.027103	0.743665
H171	H	2.222920	-0.963127	0.812340
H172	H	2.261279	-1.120470	0.753445
H173	H	2.122880	-1.049665	0.768192
H174	H	2.407469	-0.188148	1.030380
O175	O	2.032231	-0.439445	0.620203
C176	C	2.055470	-0.414991	0.748221
H177	H	2.057471	-0.499515	0.811367
H178	H	1.988665	-0.323835	0.752580
H179	H	2.139064	-0.401850	0.784234
O180	O	2.271940	-0.175607	1.159917
C181	C	2.382677	-0.182201	1.211374
H182	H	2.428323	-0.226803	1.144855
H183	H	2.423912	-0.243896	1.310248
H184	H	2.385339	-0.081239	1.220630
