data_functionalizedCrystal
_audit_creation_method	'MofGen! by Chris Wilmer'
_symmetry_space_group_name_H-M	'P1'
_symmetry_Int_Tables_number	1
_symmetry_cell_setting	triclinic
loop_
_symmetry_equiv_pos_as_xyz
  x,y,z
_cell_length_a	13.897449
_cell_length_b	13.897448
_cell_length_c	13.897449
_cell_angle_alpha	90.009266
_cell_angle_beta	90.006536
_cell_angle_gamma	90.018519
loop_
_atom_site_label
_atom_site_type_symbol
_atom_site_fract_x
_atom_site_fract_y
_atom_site_fract_z
Zn1	Zn	1.474542	-0.384166	0.545449
Zn2	Zn	1.807875	-0.050833	0.878783
Zn3	Zn	2.141209	0.282501	1.212116
Zn4	Zn	1.474484	-0.545428	0.384151
Zn5	Zn	1.807817	-0.212094	0.717484
Zn6	Zn	2.141150	0.121239	1.050817
Zn7	Zn	1.313279	-0.384151	0.384160
Zn8	Zn	1.646612	-0.050817	0.717494
Zn9	Zn	1.979945	0.282516	1.050827
Zn10	Zn	1.313213	-0.545423	0.545396
Zn11	Zn	1.646546	-0.212090	0.878729
Zn12	Zn	1.979880	0.121244	1.212062
O13	O	1.393879	-0.464792	0.464789
O14	O	1.727213	-0.131458	0.798122
O15	O	2.060546	0.201875	1.131456
O16	O	1.609516	-0.405566	0.524071
O17	O	1.942849	-0.072233	0.857404
O18	O	2.276183	0.261101	1.190738
O19	O	1.453102	-0.524029	0.249170
O20	O	1.786436	-0.190696	0.582504
O21	O	2.119769	0.142637	0.915837
O22	O	1.334723	-0.249171	0.405582
O23	O	1.668056	0.084162	0.738915
O24	O	2.001389	0.417496	1.072249
O25	O	1.609473	-0.524044	0.405566
O26	O	1.942806	-0.190711	0.738899
O27	O	2.276140	0.142622	1.072232
O28	O	1.453202	-0.249182	0.524080
O29	O	1.786535	0.084151	0.857414
O30	O	2.119869	0.417484	1.190747
O31	O	1.334666	-0.405540	0.249177
O32	O	1.667999	-0.072206	0.582511
O33	O	2.001333	0.261127	0.915844
O34	O	1.178288	-0.405535	0.405530
O35	O	1.511622	-0.072202	0.738863
O36	O	1.844955	0.261131	1.072197
O37	O	1.334611	-0.524036	0.680384
O38	O	1.667944	-0.190703	1.013718
O39	O	2.001277	0.142630	1.347051
O40	O	1.178240	-0.524021	0.523989
O41	O	1.511573	-0.190688	0.857322
O42	O	1.844907	0.142645	1.190656
O43	O	1.453138	-0.405562	0.680424
O44	O	1.786472	-0.072228	1.013757
O45	O	2.119805	0.261105	1.347090
O46	O	1.453039	-0.680409	0.405514
O47	O	1.786372	-0.347075	0.738847
O48	O	2.119705	-0.013742	1.072181
O49	O	1.334554	-0.680405	0.523980
O50	O	1.667887	-0.347072	0.857313
O51	O	2.001221	-0.013739	1.190647
C52	C	1.143265	-0.464777	0.464755
C53	C	1.476598	-0.131444	0.798089
C54	C	1.809932	0.201890	1.131422
C55	C	1.036051	-0.464794	0.464764
C56	C	1.369384	-0.131460	0.798097
C57	C	1.702718	0.201873	1.131431
C58	C	1.393809	-0.715406	0.464761
C59	C	1.727142	-0.382073	0.798094
C60	C	2.060476	-0.048739	1.131428
C61	C	1.393867	-0.822620	0.464781
C62	C	1.727200	-0.489287	0.798115
C63	C	2.060534	-0.155953	1.131448
C64	C	0.948981	-0.464797	0.464780
C65	C	1.282315	-0.131464	0.798113
C66	C	1.615648	0.201870	1.131447
C67	C	0.839749	-0.464804	0.464809
C68	C	1.173082	-0.131470	0.798143
C69	C	1.506415	0.201863	1.131476
C70	C	1.393968	-1.018915	0.464842
C71	C	1.727302	-0.685582	0.798175
C72	C	2.060635	-0.352248	1.131509
C73	C	1.393909	-0.909683	0.464811
C74	C	1.727243	-0.576349	0.798144
C75	C	2.060576	-0.243016	1.131478
C76	C	1.645472	-0.464807	0.464823
C77	C	1.978806	-0.131474	0.798157
C78	C	2.312139	0.201859	1.131490
C79	C	1.752686	-0.464814	0.464838
C80	C	2.086020	-0.131481	0.798171
C81	C	2.419353	0.201853	1.131505
C82	C	1.393874	-0.464800	0.716382
C83	C	1.727207	-0.131467	1.049715
C84	C	2.060540	0.201866	1.383049
C85	C	1.393871	-0.464804	0.823596
C86	C	1.727205	-0.131470	1.156929
C87	C	2.060538	0.201863	1.490263
C88	C	1.393976	-0.213199	0.464838
C89	C	1.727310	0.120135	0.798171
C90	C	2.060643	0.453468	1.131505
C91	C	1.394018	-0.105985	0.464859
C92	C	1.727351	0.227348	0.798192
C93	C	2.060684	0.560682	1.131526
C94	C	1.393869	-0.464807	0.910666
C95	C	1.727202	-0.131474	1.243999
C96	C	2.060535	0.201859	1.577332
C97	C	1.393868	-0.464803	1.019898
C98	C	1.727202	-0.131470	1.353231
C99	C	2.060535	0.201864	1.686565
C100	C	1.393876	-0.464803	1.214175
C101	C	1.727209	-0.131470	1.547508
C102	C	2.060543	0.201864	1.880841
C103	C	1.393873	-0.464794	1.106961
C104	C	1.727206	-0.131461	1.440294
C105	C	2.060539	0.201873	1.773627
