data_functionalizedCrystal
_audit_creation_method	'MofGen! by Chris Wilmer'
_symmetry_space_group_name_H-M	'P1'
_symmetry_Int_Tables_number	1
_symmetry_cell_setting	triclinic
loop_
_symmetry_equiv_pos_as_xyz
  x,y,z
_cell_length_a	16.120530
_cell_length_b	16.120297
_cell_length_c	11.169416
_cell_angle_alpha	92.878536
_cell_angle_beta	87.106171
_cell_angle_gamma	90.128140
loop_
_atom_site_label
_atom_site_type_symbol
_atom_site_fract_x
_atom_site_fract_y
_atom_site_fract_z
Zn1	Zn	1.247535	-0.534608	-0.608055
Zn2	Zn	1.580868	-0.201275	-0.274722
Zn3	Zn	1.914202	0.132058	0.058612
Zn4	Zn	1.254516	-0.395564	-0.799118
Zn5	Zn	1.587849	-0.062231	-0.465785
Zn6	Zn	1.921182	0.271102	-0.132452
Zn7	Zn	1.115522	-0.388525	-0.587774
Zn8	Zn	1.448856	-0.055192	-0.254441
Zn9	Zn	1.782189	0.278142	0.078893
Zn10	Zn	1.108472	-0.527534	-0.798013
Zn11	Zn	1.441805	-0.194200	-0.464680
Zn12	Zn	1.775139	0.139133	-0.131346
O13	O	1.181511	-0.461558	-0.698240
O14	O	1.514845	-0.128225	-0.364907
O15	O	1.848178	0.205109	-0.031573
O16	O	1.364829	-0.522071	-0.642350
O17	O	1.698162	-0.188737	-0.309017
O18	O	2.031495	0.144596	0.024316
O19	O	1.241950	-0.278265	-0.763058
O20	O	1.575283	0.055069	-0.429725
O21	O	1.908617	0.388402	-0.096391
O22	O	1.133063	-0.407918	-0.422518
O23	O	1.466397	-0.074585	-0.089184
O24	O	1.799730	0.258749	0.244149
O25	O	1.369957	-0.419916	-0.782724
O26	O	1.703291	-0.086582	-0.449390
O27	O	2.036624	0.246751	-0.116057
O28	O	1.230053	-0.515245	-0.437418
O29	O	1.563386	-0.181911	-0.104085
O30	O	1.896719	0.151422	0.229248
O31	O	1.139832	-0.273093	-0.607784
O32	O	1.473165	0.060241	-0.274451
O33	O	1.806499	0.393574	0.058883
O34	O	0.998219	-0.401058	-0.606712
O35	O	1.331553	-0.067725	-0.273379
O36	O	1.664886	0.265609	0.059954
O37	O	1.121047	-0.644838	-0.780840
O38	O	1.454380	-0.311505	-0.447507
O39	O	1.787714	0.021828	-0.114173
O40	O	0.993039	-0.503187	-0.761174
O41	O	1.326373	-0.169854	-0.427841
O42	O	1.659706	0.163480	-0.094507
O43	O	1.223216	-0.650036	-0.641279
O44	O	1.556549	-0.316703	-0.307945
O45	O	1.889883	0.016631	0.025388
O46	O	1.235113	-0.413056	-0.966918
O47	O	1.568447	-0.079722	-0.633585
O48	O	1.901780	0.253611	-0.300252
O49	O	1.127816	-0.510013	-0.966106
O50	O	1.461149	-0.176680	-0.632773
O51	O	1.794482	0.156654	-0.299440
C52	C	0.965457	-0.450591	-0.681623
C53	C	1.298790	-0.117258	-0.348290
C54	C	1.632123	0.216075	-0.014957
C55	C	0.873026	-0.445920	-0.674545
C56	C	1.206360	-0.112586	-0.341212
C57	C	1.539693	0.220747	-0.007878
C58	C	0.703795	-0.437397	-0.661594
C59	C	1.037128	-0.104064	-0.328261
C60	C	1.370461	0.229269	0.005073
C61	C	0.660065	-0.485779	-0.734979
C62	C	0.993398	-0.152446	-0.401645
C63	C	1.326732	0.180887	-0.068312
C64	C	0.565899	-0.481037	-0.727773
C65	C	0.899232	-0.147704	-0.394440
C66	C	1.232565	0.185629	-0.061106
C67	C	0.797970	-0.442138	-0.668798
C68	C	1.131303	-0.108805	-0.335465
C69	C	1.464636	0.224529	-0.002132
C70	C	1.170566	-0.678453	-0.713198
C71	C	1.503900	-0.345120	-0.379865
C72	C	1.837233	-0.011786	-0.046532
C73	C	1.165902	-0.770881	-0.719573
C74	C	1.499236	-0.437548	-0.386239
C75	C	1.832569	-0.104214	-0.052906
C76	C	1.157356	-0.940106	-0.731181
C77	C	1.490690	-0.606773	-0.397848
C78	C	1.824023	-0.273440	-0.064515
C79	C	1.205830	-0.983869	-0.664952
C80	C	1.539163	-0.650536	-0.331619
C81	C	1.872496	-0.317203	0.001715
C82	C	1.201075	-1.078032	-0.671411
C83	C	1.534408	-0.744699	-0.338078
C84	C	1.867741	-0.411366	-0.004744
C85	C	1.162110	-0.845935	-0.724724
C86	C	1.495444	-0.512602	-0.391390
C87	C	1.828777	-0.179268	-0.058057
C88	C	1.398410	-0.472568	-0.714923
C89	C	1.731743	-0.139234	-0.381589
C90	C	2.065076	0.194099	-0.048256
C91	C	1.490839	-0.477259	-0.722032
C92	C	1.824172	-0.143926	-0.388698
C93	C	2.157505	0.189407	-0.055365
C94	C	1.181479	-0.461550	-1.010062
C95	C	1.514812	-0.128217	-0.676728
C96	C	1.848145	0.205117	-0.343395
C97	C	1.181539	-0.461578	-1.143468
C98	C	1.514873	-0.128245	-0.810135
C99	C	1.848206	0.205089	-0.476802
C100	C	1.192461	-0.245509	-0.683257
C101	C	1.525795	0.087824	-0.349924
C102	C	1.859128	0.421158	-0.016591
C103	C	1.197286	-0.153090	-0.676557
C104	C	1.530620	0.180244	-0.343224
C105	C	1.863953	0.513577	-0.009891
C106	C	1.181566	-0.461585	-0.385204
C107	C	1.514899	-0.128252	-0.051870
C108	C	1.848232	0.205081	0.281463
C109	C	1.181589	-0.461597	-0.251806
C110	C	1.514922	-0.128264	0.081527
C111	C	1.848256	0.205070	0.414860
H112	H	0.670514	-0.392418	-0.593362
H113	H	1.003847	-0.059085	-0.260028
H114	H	1.337181	0.274249	0.073305
C115	C	1.115491	-0.964981	-0.933109
C116	C	1.448824	-0.631647	-0.599775
C117	C	1.782157	-0.298314	-0.266442
C118	C	1.096521	-0.984987	-0.814281
C119	C	1.429854	-0.651654	-0.480947
C120	C	1.763187	-0.318320	-0.147614
H121	H	1.077932	-0.992692	-0.984409
H122	H	1.411265	-0.659359	-0.651076
H123	H	1.744598	-0.326026	-0.317742
H124	H	1.170653	-0.982009	-0.955905
H125	H	1.503987	-0.648676	-0.622571
H126	H	1.837320	-0.315343	-0.289238
H127	H	1.110738	-0.906671	-0.939601
H128	H	1.444072	-0.573338	-0.606268
H129	H	1.777405	-0.240004	-0.272935
H130	H	1.101279	-1.043296	-0.807786
H131	H	1.434613	-0.709963	-0.474453
H132	H	1.767946	-0.376630	-0.141119
H133	H	1.041344	-0.967963	-0.791478
H134	H	1.374678	-0.634630	-0.458145
H135	H	1.708011	-0.301297	-0.124811
C136	C	1.222250	-0.886668	-0.497807
C137	C	1.555583	-0.553335	-0.164474
C138	C	1.888917	-0.220001	0.168860
C139	C	1.266671	-0.938995	-0.581843
C140	C	1.600005	-0.605661	-0.248509
C141	C	1.933338	-0.272328	0.084824
H142	H	1.259810	-0.858961	-0.446503
H143	H	1.593144	-0.525628	-0.113170
H144	H	1.926477	-0.192295	0.220163
H145	H	1.184354	-0.918713	-0.451408
H146	H	1.517687	-0.585380	-0.118075
H147	H	1.851020	-0.252046	0.215259
H148	H	1.192471	-0.846832	-0.538522
H149	H	1.525804	-0.513499	-0.205189
H150	H	1.859137	-0.180165	0.128145
H151	H	1.296446	-0.978835	-0.541128
H152	H	1.629780	-0.645501	-0.207795
H153	H	1.963113	-0.312168	0.125539
H154	H	1.304583	-0.906947	-0.628247
H155	H	1.637916	-0.573614	-0.294914
H156	H	1.971249	-0.240281	0.038419
C157	C	0.679940	-0.627854	-0.805510
C158	C	1.013274	-0.294521	-0.472177
C159	C	1.346607	0.038812	-0.138843
C160	C	0.704988	-0.546502	-0.827108
C161	C	1.038322	-0.213168	-0.493775
C162	C	1.371655	0.120165	-0.160441
H163	H	0.707681	-0.665337	-0.862383
H164	H	1.041014	-0.332004	-0.529050
H165	H	1.374348	0.001329	-0.195716
H166	H	0.621642	-0.632588	-0.812694
H167	H	0.954975	-0.299255	-0.479360
H168	H	1.288309	0.034078	-0.146027
H169	H	0.693524	-0.640813	-0.726809
H170	H	1.026858	-0.307480	-0.393476
H171	H	1.360191	0.025853	-0.060142
H172	H	0.691399	-0.533540	-0.905806
H173	H	1.024732	-0.200207	-0.572473
H174	H	1.358066	0.133126	-0.239140
H175	H	0.763300	-0.541765	-0.819935
H176	H	1.096633	-0.208431	-0.486602
H177	H	1.429966	0.124902	-0.153268
