data_functionalizedCrystal
_audit_creation_method	'MofGen! by Chris Wilmer'
_symmetry_space_group_name_H-M	'P1'
_symmetry_Int_Tables_number	1
_symmetry_cell_setting	triclinic
loop_
_symmetry_equiv_pos_as_xyz
  x,y,z
_cell_length_a	15.944551
_cell_length_b	15.500215
_cell_length_c	15.944551
_cell_angle_alpha	86.816342
_cell_angle_beta	96.501262
_cell_angle_gamma	93.178401
loop_
_atom_site_label
_atom_site_type_symbol
_atom_site_fract_x
_atom_site_fract_y
_atom_site_fract_z
O1	O	1.118003	0.071856	-0.111811
O2	O	1.618003	0.571856	0.388189
O3	O	0.873455	0.071878	-0.125168
O4	O	1.373455	0.571878	0.374832
O5	O	1.002407	0.071859	0.003786
O6	O	1.502407	0.571859	0.503786
O7	O	0.989051	0.071875	-0.240764
O8	O	1.489051	0.571875	0.259236
O9	O	0.995429	-0.072030	0.010756
O10	O	1.495429	0.427970	0.510756
O11	O	0.866477	-0.072011	-0.118198
O12	O	1.366477	0.427989	0.381802
O13	O	1.111025	-0.072033	-0.104841
O14	O	1.611025	0.427967	0.395159
Cu15	Cu	0.988114	-0.085160	-0.110883
Cu16	Cu	1.488114	0.414840	0.389117
Cu17	Cu	0.996366	0.085005	-0.119126
Cu18	Cu	1.496366	0.585005	0.380874
O19	O	0.982073	-0.072014	-0.233795
O20	O	1.482073	0.427986	0.266205
C21	C	0.838672	-0.000064	-0.121129
C22	C	1.338672	0.499936	0.378871
C23	C	0.745426	-0.000056	-0.119467
C24	C	1.245426	0.499944	0.380533
C25	C	0.530568	-0.000078	-0.035561
C26	C	1.030568	0.499922	0.464439
C27	C	0.472989	0.070869	-0.077960
C28	C	0.972989	0.570869	0.422040
C29	C	0.574700	-0.000066	-0.116459
C30	C	1.074700	0.499934	0.383541
C31	C	0.466131	-0.070994	-0.071108
C32	C	0.966131	0.429006	0.428892
C33	C	0.409786	-0.000080	-0.113548
C34	C	0.909786	0.499920	0.386452
C35	C	0.518351	0.070940	-0.158883
C36	C	1.018351	0.570940	0.341117
C37	C	0.511497	-0.070987	-0.152016
C38	C	1.011497	0.429013	0.347984
C39	C	0.453936	-0.000022	-0.194475
C40	C	0.953936	0.499978	0.305525
C41	C	0.669703	-0.000058	-0.118134
C42	C	1.169703	0.499942	0.381866
C43	C	0.314785	-0.000083	-0.111879
C44	C	0.814785	0.499917	0.388121
N45	N	0.982316	-0.204846	-0.105085
N46	N	1.482316	0.295154	0.394915
C47	C	1.031067	-0.250120	-0.153872
C48	C	1.531067	0.249880	0.346128
C49	C	1.026693	-0.340693	-0.149481
C50	C	1.526693	0.159307	0.350519
C51	C	0.973563	-0.385990	-0.096309
C52	C	1.473563	0.114010	0.403691
C53	C	0.924810	-0.340710	-0.047517
C54	C	1.424810	0.159290	0.452483
C55	C	0.929189	-0.250138	-0.051903
C56	C	1.429189	0.249862	0.448097
C57	C	0.957797	-0.659458	-0.080511
C58	C	1.457797	-0.159458	0.419489
C59	C	0.953420	-0.750035	-0.076131
C60	C	1.453420	-0.250035	0.423869
C61	C	1.055304	-0.750012	-0.178094
C62	C	1.555304	-0.250012	0.321906
C63	C	1.059675	-0.659439	-0.182479
C64	C	1.559675	-0.159439	0.317521
C65	C	1.010925	-0.614167	-0.133684
C66	C	1.510925	-0.114167	0.366316
C67	C	0.969089	-0.478570	-0.091822
C68	C	1.469089	0.021430	0.408178
C69	C	1.015404	-0.521588	-0.138167
C70	C	1.515404	-0.021588	0.361833
C71	C	1.145808	-0.000089	-0.108880
C72	C	1.645808	0.499911	0.391120
C73	C	1.239054	-0.000092	-0.110542
C74	C	1.739054	0.499908	0.389458
C75	C	0.998363	-0.000086	0.038565
C76	C	1.498363	0.499914	0.538565
C77	C	0.996701	-0.000086	0.131811
C78	C	1.496701	0.499914	0.631811
N79	N	1.002171	0.204690	-0.124917
N80	N	1.502171	0.704690	0.375083
C81	C	0.986117	-0.000067	-0.268574
C82	C	1.486117	0.499933	0.231426
C83	C	0.987779	-0.000061	-0.361820
C84	C	1.487779	0.499939	0.138180
C85	C	0.912798	-0.000067	0.346667
C86	C	1.412798	0.499933	0.846667
C87	C	0.948319	-0.071016	0.411121
C88	C	1.448319	0.428984	0.911121
C89	C	0.993694	-0.000079	0.302536
C90	C	1.493694	0.499921	0.802536
C91	C	0.955218	0.070847	0.404232
C92	C	1.455218	0.570847	0.904232
C93	C	0.990784	-0.000069	0.467449
C94	C	1.490784	0.499931	0.967449
C95	C	1.029235	-0.071087	0.365765
C96	C	1.529235	0.428913	0.865765
C97	C	1.036126	0.070840	0.358867
C98	C	1.536126	0.570840	0.858867
C99	C	1.071705	-0.000127	0.423304
C100	C	1.571705	0.499873	0.923304
C101	C	0.995368	-0.000086	0.207534
C102	C	1.495368	0.499914	0.707534
C103	C	0.989116	-0.000068	0.562450
C104	C	1.489116	0.499932	1.062450
H105	H	0.455787	0.130846	-0.046649
H106	H	0.955787	0.630846	0.453351
H107	H	1.094994	-0.786883	-0.217820
H108	H	1.594994	-0.286883	0.282180
H109	H	0.563905	0.000005	0.031573
H110	H	1.063905	0.500005	0.531573
H111	H	0.911194	-0.130993	0.434134
H112	H	1.411194	0.369007	0.934134
N113	N	1.156003	-0.000192	0.464926
N114	N	1.656003	0.499808	0.964926
N115	N	1.168438	0.000371	0.543722
N116	N	1.668438	0.500371	1.043722
H117	H	1.227972	0.000321	0.573121
H118	H	1.727972	0.500321	1.073121
N119	N	0.907998	-0.613219	-0.030677
N120	N	1.407998	-0.113219	0.469323
N121	N	0.943222	-0.562684	0.022401
N122	N	1.443222	-0.062684	0.522401
H123	H	0.908044	-0.530027	0.057598
H124	H	1.408044	-0.030027	0.557598
N125	N	0.547082	0.146253	-0.205440
N126	N	1.047082	0.646253	0.294560
N127	N	0.623820	0.158423	-0.214211
N128	N	1.123820	0.658423	0.285789
H129	H	0.644113	0.211609	-0.247096
H130	H	1.144113	0.711609	0.252904
N131	N	0.412347	0.000038	-0.278790
N132	N	0.912347	0.500038	0.221210
N133	N	0.427014	0.061010	-0.330585
N134	N	0.927014	0.561010	0.169415
H135	H	0.397642	0.061056	-0.390133
H136	H	0.897642	0.561056	0.109867
N137	N	0.533098	-0.146236	-0.191255
N138	N	1.033098	0.353764	0.308745
N139	N	0.515255	-0.219850	-0.160117
N140	N	1.015255	0.280150	0.339883
H141	H	0.530511	-0.273002	-0.187824
H142	H	1.030511	0.226998	0.312176
N143	N	0.437286	-0.146231	-0.024513
N144	N	0.937286	0.353769	0.475487
N145	N	0.464448	-0.158856	0.051594
N146	N	0.964448	0.341144	0.551594
H147	H	0.444079	-0.211989	0.084508
H148	H	0.944079	0.288011	0.584508
N149	N	0.899135	-0.796294	-0.021815
N150	N	1.399135	-0.296294	0.478185
N151	N	0.855610	-0.755863	0.021744
N152	N	1.355610	-0.255863	0.521744
H153	H	0.817270	-0.788533	0.060100
H154	H	1.317270	-0.288533	0.560100
H155	H	1.074325	-0.213245	-0.197175
H156	H	1.574325	0.286755	0.302825
N157	N	1.068457	-0.146421	0.344329
N158	N	1.568457	0.353579	0.844329
N159	N	1.028079	-0.199249	0.296664
N160	N	1.528079	0.300751	0.796664
H161	H	1.055775	-0.252455	0.281522
H162	H	1.555775	0.247545	0.781522
N163	N	1.076501	-0.386925	-0.199317
N164	N	1.576501	0.113075	0.300683
N165	N	1.123933	-0.346471	-0.246791
N166	N	1.623933	0.153529	0.253209
H167	H	1.159114	-0.379122	-0.281988
H168	H	1.659114	0.120878	0.218012
N169	N	0.870552	-0.386990	0.006802
N170	N	1.370552	0.113010	0.506802
N171	N	0.866648	-0.467856	0.010712
N172	N	1.366648	0.032144	0.510712
H173	H	0.828327	-0.500542	0.049075
H174	H	1.328327	-0.000542	0.549075
H175	H	1.073221	0.130819	0.335832
H176	H	1.573221	0.630819	0.835832
N177	N	1.113920	-0.613185	-0.236828
N178	N	1.613920	-0.113185	0.263172
N179	N	1.157426	-0.653620	-0.280403
N180	N	1.657426	-0.153620	0.219597
H181	H	1.195726	-0.620954	-0.318801
H182	H	1.695726	-0.120954	0.181199
H183	H	0.845646	-0.000132	0.313362
H184	H	1.345646	0.499868	0.813362
N185	N	0.879404	-0.203902	-0.002046
N186	N	1.379404	0.296098	0.497954
N187	N	0.831979	-0.244354	0.045437
N188	N	1.331979	0.255646	0.545437
H189	H	0.796824	-0.211701	0.080659
H190	H	1.296824	0.288299	0.580659
N191	N	1.069687	-0.475318	-0.192463
N192	N	1.569687	0.024682	0.307537
N193	N	1.127659	-0.424779	-0.162137
N194	N	1.627659	0.075221	0.337863
H195	H	1.165996	-0.392091	-0.200484
H196	H	1.665996	0.107909	0.299516
H197	H	0.925830	-0.515461	-0.048529
H198	H	1.425830	-0.015461	0.451471
N199	N	0.915916	0.146083	0.425788
N200	N	1.415916	0.646083	0.925788
N201	N	0.841033	0.158710	0.397404
N202	N	1.341033	0.658710	0.897404
H203	H	0.813269	0.211842	0.412626
H204	H	1.313269	0.711842	0.912626
