data_functionalizedCrystal
_audit_creation_method	'MofGen! by Chris Wilmer'
_symmetry_space_group_name_H-M	'P1'
_symmetry_Int_Tables_number	1
_symmetry_cell_setting	triclinic
loop_
_symmetry_equiv_pos_as_xyz
  x,y,z
_cell_length_a	8.497366
_cell_length_b	11.169417
_cell_length_c	11.169416
_cell_angle_alpha	89.988781
_cell_angle_beta	90.046879
_cell_angle_gamma	89.968914
loop_
_atom_site_label
_atom_site_type_symbol
_atom_site_fract_x
_atom_site_fract_y
_atom_site_fract_z
Zn1	Zn	-0.891931	1.835096	0.477492
Zn2	Zn	-0.558597	2.168429	0.810826
Zn3	Zn	-0.225264	2.501762	1.144159
Zn4	Zn	-0.628148	1.834946	0.678289
Zn5	Zn	-0.294815	2.168279	1.011622
Zn6	Zn	0.038518	2.501612	1.344955
Zn7	Zn	-0.628164	1.634342	0.477621
Zn8	Zn	-0.294831	1.967675	0.810955
Zn9	Zn	0.038502	2.301009	1.144288
Zn10	Zn	-0.891887	1.634389	0.678135
Zn11	Zn	-0.558554	1.967722	1.011468
Zn12	Zn	-0.225220	2.301056	1.344802
O13	O	-0.760033	1.734693	0.577884
O14	O	-0.426699	2.068026	0.911218
O15	O	-0.093366	2.401360	1.244551
O16	O	-0.856951	2.003025	0.504139
O17	O	-0.523617	2.336359	0.837472
O18	O	-0.190284	2.669692	1.170805
O19	O	-0.407388	1.808253	0.651788
O20	O	-0.074054	2.141586	0.985122
O21	O	0.259279	2.474919	1.318455
O22	O	-0.663179	1.661016	0.309655
O23	O	-0.329845	1.994349	0.642988
O24	O	0.003488	2.327682	0.976321
O25	O	-0.663151	2.002915	0.651663
O26	O	-0.329818	2.336249	0.984996
O27	O	0.003516	2.669582	1.318330
O28	O	-0.856966	1.808508	0.309560
O29	O	-0.523633	2.141842	0.642893
O30	O	-0.190300	2.475175	0.976226
O31	O	-0.407400	1.660870	0.504359
O32	O	-0.074066	1.994204	0.837692
O33	O	0.259267	2.327537	1.171026
O34	O	-0.663136	1.466399	0.504210
O35	O	-0.329803	1.799732	0.837543
O36	O	0.003530	2.133065	1.170876
O37	O	-1.112655	1.661096	0.651401
O38	O	-0.779322	1.994429	0.984734
O39	O	-0.445989	2.327762	1.318068
O40	O	-0.856892	1.466433	0.651526
O41	O	-0.523559	1.799767	0.984860
O42	O	-0.190226	2.133100	1.318193
O43	O	-1.112687	1.808554	0.503990
O44	O	-0.779354	2.141887	0.837323
O45	O	-0.446021	2.475221	1.170656
O46	O	-0.663109	1.808298	0.846218
O47	O	-0.329775	2.141632	1.179551
O48	O	0.003558	2.474965	1.512885
O49	O	-0.856877	1.660950	0.846105
O50	O	-0.523543	1.994284	1.179439
O51	O	-0.190210	2.327617	1.512772
C52	C	-0.760012	1.422868	0.577866
C53	C	-0.426679	1.756202	0.911200
C54	C	-0.093346	2.089535	1.244533
C55	C	-0.760041	1.289468	0.577887
C56	C	-0.426708	1.622802	0.911221
C57	C	-0.093374	1.956135	1.244554
C58	C	-0.760021	1.734646	0.889709
C59	C	-0.426687	2.067979	1.223042
C60	C	-0.093354	2.401312	1.556376
C61	C	-0.760068	1.734735	1.023109
C62	C	-0.426735	2.068068	1.356442
C63	C	-0.093401	2.401402	1.689776
C64	C	-0.171513	1.734763	0.577775
C65	C	0.161820	2.068097	0.911108
C66	C	0.495154	2.401430	1.244442
C67	C	-0.350157	1.734604	0.578026
C68	C	-0.016823	2.067937	0.911359
C69	C	0.316510	2.401271	1.244693
C70	C	-0.760054	2.047735	0.577904
C71	C	-0.426721	2.381069	0.911237
C72	C	-0.093387	2.714402	1.244570
C73	C	-0.760063	2.181135	0.577912
C74	C	-0.426730	2.514469	0.911245
C75	C	-0.093396	2.847802	1.244578
C76	C	-0.760079	1.734774	0.264842
C77	C	-0.426746	2.068107	0.598175
C78	C	-0.093412	2.401440	0.931509
C79	C	-0.760099	1.734808	0.131442
C80	C	-0.426766	2.068141	0.464775
C81	C	-0.093432	2.401475	0.798109
