data_functionalizedCrystal
_audit_creation_method	'MofGen! by Chris Wilmer'
_symmetry_space_group_name_H-M	'P1'
_symmetry_Int_Tables_number	1
_symmetry_cell_setting	triclinic
loop_
_symmetry_equiv_pos_as_xyz
  x,y,z
_cell_length_a	14.044220
_cell_length_b	14.044220
_cell_length_c	13.101039
_cell_angle_alpha	86.332523
_cell_angle_beta	86.335636
_cell_angle_gamma	86.811123
loop_
_atom_site_label
_atom_site_type_symbol
_atom_site_fract_x
_atom_site_fract_y
_atom_site_fract_z
O1	O	1.281975	-0.225342	-0.085218
O2	O	1.005303	-0.217036	-0.085220
O3	O	1.139486	-0.082854	-0.085209
O4	O	1.147792	-0.359524	-0.085229
O5	O	1.129860	-0.092499	0.085220
O6	O	0.995677	-0.226681	0.085209
O7	O	1.272349	-0.234987	0.085211
Zn8	Zn	1.132485	-0.232365	0.112270
Zn9	Zn	1.145167	-0.219658	-0.112278
O10	O	1.138166	-0.369169	0.085200
C11	C	0.964868	-0.218223	-0.000006
C12	C	0.858726	-0.207378	-0.000006
C13	C	1.131037	-0.052055	0.000006
C14	C	1.120192	0.054088	0.000007
C15	C	1.312784	-0.233800	-0.000005
C16	C	1.418927	-0.244644	-0.000011
C17	C	1.613264	-0.264471	-0.000012
C18	C	1.664394	-0.187556	-0.000006
C19	C	1.772530	-0.198588	-0.000006
C20	C	1.505118	-0.253440	-0.000012
C21	C	1.146615	-0.399968	-0.000017
C22	C	1.157460	-0.506111	-0.000025
N23	N	1.123836	-0.241038	0.265517
C24	C	1.100367	0.248427	-0.000008
C25	C	1.177281	0.299557	-0.000010
C26	C	1.166250	0.407693	-0.000018
C27	C	1.111396	0.140280	0.000001
N28	N	1.153823	-0.210978	-0.265526
C29	C	1.112070	-0.252846	0.474559
C30	C	1.165586	-0.199173	0.525439
C31	C	1.159039	-0.205743	0.641757
C32	C	1.118616	-0.246277	0.358230
H33	H	1.626959	-0.113419	-0.000075
H34	H	1.026239	0.285864	-0.000011
H35	H	1.650702	-0.338598	-0.000018
C36	C	1.277428	0.248985	0.000014
H37	H	1.271803	0.181884	0.000031
H38	H	1.314500	0.270280	-0.059412
H39	H	1.307757	0.263577	0.059460
C40	C	1.234154	-0.130464	0.466279
H41	H	1.229635	-0.135022	0.394728
H42	H	1.217355	-0.066848	0.483790
H43	H	1.297791	-0.147158	0.483810
C44	C	1.043547	-0.321591	0.533718
H45	H	1.048091	-0.317050	0.605268
H46	H	0.979899	-0.304947	0.516212
H47	H	1.060394	-0.385199	0.516191
