data_functionalizedCrystal
_audit_creation_method	'MofGen! by Chris Wilmer'
_symmetry_space_group_name_H-M	'P1'
_symmetry_Int_Tables_number	1
_symmetry_cell_setting	triclinic
loop_
_symmetry_equiv_pos_as_xyz
  x,y,z
_cell_length_a	17.038272
_cell_length_b	11.792241
_cell_length_c	10.268362
_cell_angle_alpha	90.000374
_cell_angle_beta	89.994496
_cell_angle_gamma	92.347514
loop_
_atom_site_label
_atom_site_type_symbol
_atom_site_fract_x
_atom_site_fract_y
_atom_site_fract_z
O1	O	0.107207	-1.516303	-0.108175
O2	O	0.607207	-1.016303	0.391825
O3	O	0.118256	-1.186930	-0.108205
O4	O	0.618256	-0.686930	0.391795
O5	O	-0.001093	-1.349659	-0.108180
O6	O	0.498907	-0.849659	0.391820
O7	O	0.226556	-1.353574	-0.108200
O8	O	0.726556	-0.853574	0.391800
O9	O	-0.001098	-1.349643	0.108421
O10	O	0.498902	-0.849643	0.608421
O11	O	0.118251	-1.186914	0.108396
O12	O	0.618251	-0.686914	0.608396
O13	O	0.107202	-1.516287	0.108426
O14	O	0.607202	-1.016287	0.608426
Cu15	Cu	0.112726	-1.351600	0.128188
Cu16	Cu	0.612726	-0.851600	0.628188
Cu17	Cu	0.112732	-1.351618	-0.127967
Cu18	Cu	0.612732	-0.851618	0.372033
O19	O	0.226551	-1.353558	0.108401
O20	O	0.726551	-0.853558	0.608401
C21	C	0.117559	-1.144571	0.000092
C22	C	0.617559	-0.644571	0.500092
C23	C	0.115482	-1.018375	0.000080
C24	C	0.615482	-0.518375	0.500080
N25	N	0.112721	-1.351595	0.308354
N26	N	0.612721	-0.851595	0.808354
C27	C	-0.030239	-1.346090	0.000120
C28	C	0.469761	-0.846090	0.500120
C29	C	-0.117079	-1.335466	0.000119
C30	C	0.382921	-0.835466	0.500119
C31	C	-0.166762	-1.433006	0.000129
C32	C	0.333238	-0.933006	0.500129
C33	C	-0.248357	-1.423017	0.000116
C34	C	0.251643	-0.923017	0.500116
C35	C	-0.280267	-1.315487	0.000102
C36	C	0.219733	-0.815487	0.500102
C37	C	-0.230577	-1.217940	0.000087
C38	C	0.269423	-0.717940	0.500087
C39	C	-0.148984	-1.227930	0.000091
C40	C	0.351016	-0.727930	0.500091
C41	C	-0.526181	-1.280194	0.000081
C42	C	-0.026181	-0.780194	0.500081
C43	C	-0.607780	-1.270211	0.000080
C44	C	-0.107780	-0.770211	0.500080
C45	C	-0.625554	-1.475289	0.000107
C46	C	-0.125554	-0.975289	0.500107
C47	C	-0.543958	-1.485270	0.000118
C48	C	-0.043958	-0.985270	0.500118
C49	C	-0.494276	-1.387723	0.000097
C50	C	0.005724	-0.887723	0.500097
C51	C	-0.363669	-1.305274	0.000092
C52	C	0.136331	-0.805274	0.500092
C53	C	-0.410875	-1.397937	0.000097
C54	C	0.089125	-0.897937	0.500097
C55	C	0.255697	-1.357127	0.000098
C56	C	0.755697	-0.857127	0.500098
C57	C	0.342537	-1.367751	0.000091
C58	C	0.842537	-0.867751	0.500091
C59	C	0.107899	-1.558647	0.000127
C60	C	0.607899	-1.058647	0.500127
C61	C	0.109976	-1.684843	0.000130
C62	C	0.609976	-1.184843	0.500130
C63	C	0.111662	-0.787328	0.000118
C64	C	0.611662	-0.287328	0.500118
C65	C	0.113785	-0.915899	0.000097
C66	C	0.613785	-0.415899	0.500097
N67	N	0.112730	-1.351631	-0.308133
N68	N	0.612730	-0.851631	0.191867
C69	C	0.112730	-1.351612	0.574025
C70	C	0.612730	-0.851612	1.074025
C71	C	0.112728	-1.351599	0.426187
C72	C	0.612728	-0.851599	0.926187
H73	H	-0.140788	-1.520568	0.000149
H74	H	0.359212	-1.020568	0.500149
H75	H	-0.256565	-1.130387	0.000067
H76	H	0.243435	-0.630387	0.500067
H77	H	-0.288806	-1.502445	0.000127
H78	H	0.211194	-1.002445	0.500127
H79	H	-0.633757	-1.182643	0.000090
H80	H	-0.133757	-0.682643	0.500090
H81	H	-0.517984	-1.572832	0.000130
H82	H	-0.017984	-1.072832	0.500130
H83	H	-0.485738	-1.200764	0.000064
H84	H	0.014262	-0.700764	0.500064
H85	H	-0.389660	-1.217723	0.000083
H86	H	0.110340	-0.717723	0.500083
H87	H	-0.108532	-1.148503	0.000083
H88	H	0.391468	-0.648503	0.500083
H89	H	-0.666014	-1.554706	0.000121
H90	H	-0.166014	-1.054706	0.500121
H91	H	-0.384890	-1.485487	0.000080
H92	H	0.115110	-0.985487	0.500080
