data_functionalizedCrystal
_audit_creation_method	'MofGen! by Chris Wilmer'
_symmetry_space_group_name_H-M	'P1'
_symmetry_Int_Tables_number	1
_symmetry_cell_setting	triclinic
loop_
_symmetry_equiv_pos_as_xyz
  x,y,z
_cell_length_a	14.628931
_cell_length_b	14.628931
_cell_length_c	14.628931
_cell_angle_alpha	90.000000
_cell_angle_beta	60.000028
_cell_angle_gamma	59.999836
loop_
_atom_site_label
_atom_site_type_symbol
_atom_site_fract_x
_atom_site_fract_y
_atom_site_fract_z
Zr1	Zr	1.000578	0.880617	-0.119961
O2	O	1.191284	0.734656	-0.265923
O3	O	0.809872	0.925362	-0.075216
O4	O	1.000577	0.925362	-0.265922
O5	O	1.000579	0.734656	0.075215
O6	O	1.000577	1.075794	-0.265922
O7	O	1.000578	0.734656	-0.075217
O8	O	0.659439	1.075795	0.075216
O9	O	1.341716	0.734656	-0.265923
O10	O	0.888311	1.056711	-0.056133
O11	O	0.888312	0.944445	0.056132
O12	O	1.112843	0.944445	-0.168399
O13	O	1.112844	0.832179	-0.056134
Zr14	Zr	1.000578	1.120539	0.119960
Zr15	Zr	1.000577	1.120539	-0.119961
Zr16	Zr	1.000578	0.880617	0.119960
Zr17	Zr	1.240500	0.880617	-0.119962
Zr18	Zr	0.760656	1.120539	0.119961
O19	O	1.191284	1.075793	0.075215
O20	O	1.191283	1.075794	-0.265922
O21	O	1.191285	0.734655	0.075214
O22	O	0.809872	1.266500	0.265921
O23	O	0.809871	1.266500	-0.075216
O24	O	0.809873	0.925362	0.265921
O25	O	1.000577	1.266500	-0.075216
O26	O	1.000578	1.075794	0.265921
O27	O	1.000579	0.925361	0.265920
O28	O	1.000577	1.266500	0.075216
O29	O	1.341715	0.925362	-0.265923
O30	O	0.659440	1.075794	0.265921
O31	O	0.659439	1.266500	0.265922
O32	O	0.659439	1.266500	0.075216
O33	O	1.341716	0.734655	-0.075218
O34	O	1.341716	0.925361	-0.075217
O35	O	0.888312	1.056711	0.168398
O36	O	0.888311	1.168977	0.056133
O37	O	1.112843	1.056711	-0.056133
O38	O	1.112844	0.944445	0.056132
C39	C	0.700472	1.000578	0.000000
C40	C	0.598619	1.000579	0.000000
C41	C	0.631969	0.921819	-0.078759
C42	C	0.526700	0.921818	-0.078761
C43	C	1.000578	0.700472	-0.000001
C44	C	1.000579	0.598619	-0.000001
C45	C	0.889196	0.608901	0.055690
C46	C	0.889194	0.503632	0.055691
C47	C	1.300683	1.000577	-0.000001
C48	C	1.402537	1.000577	-0.000001
C49	C	1.000577	1.000578	-0.300105
C50	C	1.000576	1.000578	-0.401958
C51	C	1.000577	1.300684	-0.000000
C52	C	1.000576	1.402537	-0.000000
C53	C	1.111959	0.944887	-0.503059
C54	C	1.111962	0.944886	-0.608330
C55	C	1.000578	1.000577	0.300104
C56	C	1.000579	1.000577	0.401957
C57	C	0.700471	1.300684	0.000000
C58	C	0.598617	1.402537	0.000001
C59	C	0.700473	1.000578	0.300105
C60	C	0.598620	1.000578	0.401958
C61	C	0.700472	1.300684	0.300105
C62	C	0.598619	1.402537	0.401958
C63	C	1.300683	0.700472	-0.300106
C64	C	1.402537	0.598619	-0.401960
C65	C	1.300684	0.700472	-0.000002
C66	C	1.402538	0.598618	-0.000002
C67	C	1.300683	1.000578	-0.300106
C68	C	1.402535	1.000578	-0.401959
C69	C	0.553208	1.392256	-0.055690
C70	C	0.447937	1.497525	-0.055691
C71	C	0.553211	1.056270	0.503058
C72	C	0.447940	1.056271	0.608330
C73	C	0.553209	1.503638	0.391677
C74	C	0.447938	1.608910	0.496946
H75	H	0.555078	0.854386	-0.146188
C76	C	1.129412	0.390866	-0.064419
N77	N	1.226452	0.382082	-0.112938
C78	C	0.605961	1.275080	-0.120096
N79	N	0.645689	1.186822	-0.168604
C80	C	0.364183	1.091680	0.091098
N81	N	0.335302	1.160300	0.159712
H82	H	0.559563	1.489274	0.047675
C83	C	0.455266	0.936180	0.480878
N84	N	0.494983	0.887678	0.392622
C85	C	0.760363	0.515294	0.120107
N86	N	0.663324	0.524078	0.168628
H87	H	0.408883	1.695640	0.488316
H88	H	0.592270	1.512261	0.304941
C89	C	0.455283	1.481457	0.609711
N90	N	0.495022	1.393201	0.618495
H91	H	0.441569	1.607257	0.047690
H92	H	0.408882	1.488897	-0.103367
C93	C	0.760368	0.726077	0.120098
N94	N	0.663330	0.814335	0.168609
H95	H	0.559565	1.393917	0.488695
C96	C	0.395186	1.120688	0.725499
N97	N	0.355449	1.169207	0.813755
H98	H	0.738455	0.854395	-0.146190
H99	H	0.492133	1.068008	0.067426
H100	H	1.207316	0.897214	-0.511679
C101	C	1.240792	0.880470	-0.725499
N102	N	1.337832	0.831952	-0.813755
H103	H	0.905219	1.048260	-0.393338
H104	H	0.559566	0.952895	0.393338
H105	H	1.095936	0.511882	-0.047678
C106	C	0.871743	1.065056	-0.480878
N107	N	0.774704	1.113646	-0.392622
C108	C	0.605970	1.120686	0.514711
N109	N	0.645704	1.169208	0.523491
