data_functionalizedCrystal
_audit_creation_method	'MofGen! by Chris Wilmer'
_symmetry_space_group_name_H-M	'P1'
_symmetry_Int_Tables_number	1
_symmetry_cell_setting	triclinic
loop_
_symmetry_equiv_pos_as_xyz
  x,y,z
_cell_length_a	17.699083
_cell_length_b	19.188930
_cell_length_c	16.776229
_cell_angle_alpha	89.988225
_cell_angle_beta	89.998886
_cell_angle_gamma	83.213899
loop_
_atom_site_label
_atom_site_type_symbol
_atom_site_fract_x
_atom_site_fract_y
_atom_site_fract_z
O1	O	1.003962	0.088294	-0.066185
O2	O	0.783569	0.099782	-0.066213
O3	O	0.900126	-0.007611	-0.066183
O4	O	0.887405	0.195686	-0.066215
O5	O	0.900110	-0.007617	0.066394
O6	O	0.783553	0.099775	0.066364
O7	O	1.003947	0.088288	0.066391
Zn8	Zn	0.893748	0.094030	0.087427
Zn9	Zn	0.893768	0.094039	-0.087249
O10	O	0.887390	0.195680	0.066361
C11	C	0.755365	0.099367	0.000072
C12	C	0.671348	0.098132	0.000062
C13	C	0.622644	0.161169	0.000053
C14	C	0.543702	0.160004	0.000063
C15	C	0.513466	0.095802	0.000078
C16	C	0.562176	0.032761	0.000090
C17	C	0.641117	0.033926	0.000085
C18	C	0.243819	0.028060	0.000111
C19	C	0.164873	0.026900	0.000113
C20	C	0.146405	0.154139	0.000088
C21	C	0.225345	0.155304	0.000084
C22	C	0.274049	0.092263	0.000100
C23	C	0.359646	0.093526	0.000090
C24	C	0.427870	0.094538	0.000082
C25	C	0.899706	-0.033625	0.000108
C26	C	0.898469	-0.111131	0.000114
C27	C	0.966861	-0.155978	0.000127
C28	C	0.965699	-0.228804	0.000114
C29	C	0.896142	-0.256778	0.000105
C30	C	0.827741	-0.211921	0.000088
C31	C	0.828905	-0.139098	0.000093
N32	N	0.842969	-0.364845	0.045216
N33	N	0.841868	-0.434025	0.045213
C34	C	0.892632	-0.476191	0.000088
N35	N	0.944550	-0.446565	-0.045024
N36	N	0.945653	-0.377379	-0.045018
C37	C	0.894873	-0.335742	0.000099
C38	C	0.959769	-0.600004	0.000085
C39	C	0.958604	-0.672830	0.000067
C40	C	0.820644	-0.655946	0.000049
C41	C	0.821811	-0.583121	0.000059
C42	C	0.891375	-0.555155	0.000081
C43	C	1.032151	0.088703	0.000104
C44	C	1.116167	0.089938	0.000109
C45	C	0.887810	0.221695	0.000069
C46	C	0.889046	0.299201	0.000057
N47	N	0.893739	0.094024	0.206638
N48	N	0.893782	0.094040	-0.206460
C49	C	0.945366	0.046490	0.248368
C50	C	0.945370	0.046490	0.331821
C51	C	0.893751	0.094027	0.373541
C52	C	0.842118	0.141563	0.331805
C53	C	0.842111	0.141559	0.248354
C54	C	0.842146	0.141576	0.668352
C55	C	0.842158	0.141578	0.751808
C56	C	0.945405	0.046507	0.751818
C57	C	0.945398	0.046503	0.668368
C58	C	0.893763	0.094037	0.626639
C59	C	0.893758	0.094036	0.536150
C60	C	0.893759	0.094031	0.464028
H61	H	0.647256	0.213450	0.000040
H62	H	0.800120	0.180289	0.785776
C63	C	0.156312	-0.081924	-0.068004
C64	C	0.131638	-0.043677	0.000135
H65	H	0.135796	-0.125494	-0.067987
H66	H	0.139578	-0.055976	-0.114235
H67	H	0.210297	-0.090250	-0.067994
H68	H	0.077653	-0.035347	0.000122
H69	H	0.148368	-0.069631	0.046378
C70	C	0.106351	0.262238	-0.068088
C71	C	0.092867	0.223437	0.000077
H72	H	0.073296	0.305016	-0.068098
H73	H	0.157686	0.272117	-0.068089
H74	H	0.097202	0.235898	-0.114307
H75	H	0.102021	0.249775	0.046296
H76	H	0.041520	0.213560	0.000085
H77	H	1.023506	-0.133213	0.000142
C78	C	1.102184	-0.238186	0.000153
C79	C	1.040881	-0.278112	0.000133
H80	H	1.148596	-0.268626	0.000170
H81	H	1.099782	-0.209425	-0.046077
H82	H	1.099754	-0.209436	0.046388
H83	H	1.043308	-0.306857	-0.046106
H84	H	1.043284	-0.306884	0.046367
C85	C	0.533376	0.285894	0.000026
C86	C	0.490167	0.229297	0.000048
H87	H	0.500324	0.328674	0.000014
H88	H	0.564552	0.283702	0.046253
H89	H	0.564549	0.283696	-0.046212
H90	H	0.458998	0.231493	0.046290
H91	H	0.458978	0.231490	-0.046183
C92	C	0.449369	-0.025525	0.000101
C93	C	0.528942	-0.037813	0.000105
H94	H	0.428855	-0.069096	0.000103
H95	H	0.432642	0.000417	0.046327
H96	H	0.432644	0.000428	-0.046138
H97	H	0.545667	-0.063761	0.046348
H98	H	0.545676	-0.063766	-0.046126
H99	H	0.771107	-0.234702	0.000079
H100	H	0.773210	-0.102582	0.000083
H101	H	0.987409	0.007784	0.365797
C102	C	1.077715	-0.591945	-0.068063
C103	C	1.036229	-0.569253	0.000092
H104	H	1.124915	-0.572957	-0.068061
H105	H	1.086812	-0.641729	-0.068060
H106	H	1.049555	-0.576528	-0.114289
H107	H	1.064386	-0.584675	0.046318
H108	H	1.027134	-0.519459	0.000097
C109	C	0.303390	0.230436	-0.068104
C110	C	0.258574	0.225880	0.000057
H111	H	0.323896	0.274010	-0.068121
H112	H	0.343694	0.193067	-0.068091
H113	H	0.272966	0.227331	-0.114325
H114	H	0.288999	0.228979	0.046279
H115	H	0.218264	0.263259	0.000052
C116	C	0.740096	0.235557	0.676736
C117	C	0.785395	0.193830	0.622491
H118	H	0.705063	0.267820	0.648419
H119	H	0.712976	0.206526	0.709295
H120	H	0.771529	0.260633	0.709274
H121	H	0.753963	0.168750	0.589956
H122	H	0.812517	0.222865	0.589917
H123	H	0.680771	-0.017406	0.000093
H124	H	1.014299	-0.709345	0.000073
H125	H	0.283465	-0.023272	0.000125
H126	H	0.764009	-0.678722	0.000038
H127	H	0.766119	-0.546605	0.000054
H128	H	0.987404	0.007783	0.214405
C129	C	1.047451	-0.047479	0.676762
C130	C	1.002137	-0.005753	0.622510
H131	H	1.082475	-0.079745	0.648450
H132	H	1.074582	-0.018448	0.709295
H133	H	1.016027	-0.072553	0.709325
H134	H	1.033561	0.019325	0.589950
H135	H	0.975005	-0.034789	0.589963
C136	C	0.962161	-0.048543	0.845684
C137	C	1.002156	-0.005752	0.797690
H138	H	0.997198	-0.080805	0.873997
H139	H	0.931426	-0.020233	0.882470
H140	H	0.930743	-0.073620	0.813129
H141	H	1.033570	0.019329	0.830246
H142	H	1.032904	-0.034066	0.760900
C143	C	0.796289	0.183789	0.459722
C144	C	0.785378	0.193819	0.377662
H145	H	0.761262	0.216055	0.488030
H146	H	0.788225	0.137206	0.473411
H147	H	0.846778	0.191314	0.473380
H148	H	0.734890	0.186288	0.364004
H149	H	0.793436	0.240412	0.363968
H150	H	0.800070	0.180265	0.214378
