data_functionalizedCrystal
_audit_creation_method	'MofGen! by Chris Wilmer'
_symmetry_space_group_name_H-M	'P1'
_symmetry_Int_Tables_number	1
_symmetry_cell_setting	triclinic
loop_
_symmetry_equiv_pos_as_xyz
  x,y,z
_cell_length_a	19.188930
_cell_length_b	18.266242
_cell_length_c	19.188930
_cell_angle_alpha	90.011475
_cell_angle_beta	96.855221
_cell_angle_gamma	89.977082
loop_
_atom_site_label
_atom_site_type_symbol
_atom_site_fract_x
_atom_site_fract_y
_atom_site_fract_z
O1	O	0.926149	-0.061124	-0.087169
O2	O	1.259483	0.272209	0.246165
O3	O	1.592816	0.605542	0.579498
O4	O	0.722838	-0.061075	-0.098903
O5	O	1.056171	0.272258	0.234430
O6	O	1.389505	0.605591	0.567764
O7	O	0.830361	-0.061087	0.008620
O8	O	1.163694	0.272246	0.341953
O9	O	1.497027	0.605580	0.675286
O10	O	0.818627	-0.061113	-0.194691
O11	O	1.151960	0.272221	0.138642
O12	O	1.485293	0.605554	0.471975
O13	O	0.830343	0.060675	0.008625
O14	O	1.163676	0.394008	0.341959
O15	O	1.497009	0.727342	0.675292
O16	O	0.722820	0.060687	-0.098897
O17	O	1.056153	0.394020	0.234436
O18	O	1.389486	0.727353	0.567769
O19	O	0.926131	0.060638	-0.087163
O20	O	1.259464	0.393971	0.246170
O21	O	1.592798	0.727304	0.579503
Zn22	Zn	0.824473	0.079994	-0.093029
Zn23	Zn	1.157806	0.413328	0.240304
Zn24	Zn	1.491139	0.746661	0.573637
Zn25	Zn	0.824497	-0.080432	-0.093037
Zn26	Zn	1.157830	0.252901	0.240297
Zn27	Zn	1.491163	0.586234	0.573630
O28	O	0.818608	0.060649	-0.194686
O29	O	1.151942	0.393983	0.138647
O30	O	1.485275	0.727316	0.471981
C31	C	0.696818	-0.000188	-0.098520
C32	C	1.030151	0.333145	0.234813
C33	C	1.363485	0.666479	0.568146
C34	C	0.619313	-0.000169	-0.097380
C35	C	0.952647	0.333165	0.235954
C36	C	1.285980	0.666498	0.569287
N37	N	0.824461	0.189481	-0.093024
N38	N	1.157795	0.522815	0.240309
N39	N	1.491128	0.856148	0.573643
N40	N	0.824513	-0.189919	-0.093037
N41	N	1.157847	0.143414	0.240297
N42	N	1.491180	0.476747	0.573630
C43	C	0.574389	-0.000188	-0.160470
C44	C	0.907723	0.333145	0.172863
C45	C	1.241056	0.666479	0.506196
C46	C	0.501566	-0.000196	-0.159399
C47	C	0.834899	0.333137	0.173935
C48	C	1.168232	0.666471	0.507268
C49	C	0.473669	-0.000199	-0.095233
C50	C	0.807002	0.333134	0.238101
C51	C	1.140336	0.666468	0.571434
C52	C	0.518603	-0.000175	-0.032133
C53	C	0.851936	0.333158	0.301200
C54	C	1.185270	0.666491	0.634533
C55	C	0.591425	-0.000160	-0.033207
C56	C	0.924758	0.333173	0.300126
C57	C	1.258092	0.666506	0.633460
N58	N	0.365695	-0.041663	-0.046188
N59	N	0.699028	0.291670	0.287146
N60	N	1.032362	0.625003	0.620479
N61	N	0.296516	-0.041679	-0.045172
N62	N	0.629850	0.291654	0.288161
N63	N	0.963183	0.624987	0.621495
C64	C	0.254260	-0.000243	-0.091994
C65	C	0.587594	0.333090	0.241339
C66	C	0.920927	0.666423	0.574672
N67	N	0.283795	0.041200	-0.139881
N68	N	0.617128	0.374533	0.193452
N69	N	0.950462	0.707867	0.526785
N70	N	0.352980	0.041213	-0.140899
N71	N	0.686313	0.374546	0.192434
N72	N	1.019646	0.707879	0.525768
C73	C	0.394707	-0.000215	-0.094062
C74	C	0.728040	0.333118	0.239272
C75	C	1.061373	0.666452	0.572605
C76	C	0.130372	-0.000270	-0.153928
C77	C	0.463705	0.333063	0.179406
C78	C	0.797039	0.666396	0.512739
C79	C	0.057547	-0.000274	-0.152853
C80	C	0.390881	0.333060	0.180480
C81	C	0.724214	0.666393	0.513813
C82	C	0.074586	-0.000261	-0.025586
C83	C	0.407919	0.333073	0.307747
C84	C	0.741253	0.666406	0.641080
C85	C	0.147409	-0.000250	-0.026662
C86	C	0.480743	0.333083	0.306671
C87	C	0.814076	0.666417	0.640004
C88	C	0.175298	-0.000258	-0.090835
C89	C	0.508631	0.333075	0.242498
C90	C	0.841964	0.666408	0.575832
C91	C	0.952151	-0.000252	-0.087546
C92	C	1.285485	0.333082	0.245787
C93	C	1.618818	0.666415	0.579121
C94	C	1.029656	-0.000276	-0.088687
C95	C	1.362989	0.333058	0.244647
C96	C	1.696322	0.666391	0.577980
C97	C	0.829972	-0.000204	0.034634
C98	C	1.163305	0.333130	0.367967
C99	C	1.496638	0.666463	0.701300
C100	C	0.828831	-0.000197	0.112138
C101	C	1.162164	0.333136	0.445471
C102	C	1.495498	0.666469	0.778805
C103	C	0.872088	0.227785	-0.045436
C104	C	1.205421	0.561118	0.287897
C105	C	1.538755	0.894452	0.621230
C106	C	0.872092	0.304430	-0.045433
C107	C	1.205426	0.637763	0.287900
C108	C	1.538759	0.971097	0.621234
C109	C	0.824477	0.342768	-0.093030
C110	C	1.157810	0.676102	0.240304
C111	C	1.491144	1.009435	0.573637
C112	C	0.776841	0.304455	-0.140621
C113	C	1.110175	0.637789	0.192712
C114	C	1.443508	0.971122	0.526046
C115	C	0.776834	0.227812	-0.140618
C116	C	1.110167	0.561145	0.192715
C117	C	1.443500	0.894479	0.526048
N118	N	0.815401	0.463094	-0.154837
N119	N	1.148735	0.796427	0.178496
N120	N	1.482068	1.129761	0.511830
N121	N	0.815413	0.535902	-0.154838
N122	N	1.148746	0.869236	0.178496
N123	N	1.482080	1.202569	0.511829
C124	C	0.824496	0.573691	-0.093040
C125	C	1.157830	0.907024	0.240294
C126	C	1.491163	1.240357	0.573627
N127	N	0.833582	0.535920	-0.031239
N128	N	1.166915	0.869254	0.302094
N129	N	1.500248	1.202587	0.635427
N130	N	0.833574	0.463106	-0.031240
N131	N	1.166907	0.796439	0.302094
N132	N	1.500240	1.129772	0.635427
C133	C	0.824480	0.425875	-0.093038
C134	C	1.157813	0.759209	0.240296
C135	C	1.491146	1.092542	0.573629
C136	C	0.872131	0.695101	-0.045444
C137	C	1.205464	1.028435	0.287889
C138	C	1.538797	1.361768	0.621222
C139	C	0.872130	0.771748	-0.045440
C140	C	1.205463	1.105081	0.287893
C141	C	1.538797	1.438414	0.621226
C142	C	0.776882	0.771772	-0.140634
C143	C	1.110216	1.105105	0.192699
C144	C	1.443549	1.438438	0.526032
C145	C	0.776879	0.695127	-0.140632
C146	C	1.110213	1.028460	0.192701
C147	C	1.443546	1.361794	0.526034
C148	C	0.824507	0.656796	-0.093038
C149	C	1.157841	0.990130	0.240295
C150	C	1.491174	1.323463	0.573628
C151	C	0.818997	-0.000236	-0.220700
C152	C	1.152331	0.333098	0.112634
C153	C	1.485664	0.666431	0.445967
C154	C	0.820138	-0.000247	-0.298204
C155	C	1.153471	0.333086	0.035129
C156	C	1.486805	0.666420	0.368462
C157	C	0.891922	-0.000209	0.157062
C158	C	1.225255	0.333124	0.490395
C159	C	1.558589	0.666458	0.823729
C160	C	0.890850	-0.000220	0.229886
C161	C	1.224184	0.333113	0.563219
C162	C	1.557517	0.666446	0.896552
C163	C	0.826684	-0.000206	0.257782
C164	C	1.160017	0.333128	0.591116
C165	C	1.493351	0.666461	0.924449
C166	C	0.763585	-0.000198	0.212849
C167	C	1.096918	0.333135	0.546182
C168	C	1.430252	0.666469	0.879515
C169	C	0.764658	-0.000194	0.140026
C170	C	1.097992	0.333140	0.473360
C171	C	1.431325	0.666473	0.806693
N172	N	0.777631	0.041244	0.365789
N173	N	1.110964	0.374578	0.699123
N174	N	1.444297	0.707911	1.032456
N175	N	0.776615	0.041242	0.434968
N176	N	1.109948	0.374575	0.768301
N177	N	1.443282	0.707909	1.101635
C178	C	0.823446	-0.000220	0.477191
C179	C	1.156779	0.333114	0.810524
C180	C	1.490113	0.666447	1.143858
N181	N	0.871341	-0.041669	0.447624
N182	N	1.204675	0.291664	0.780957
N183	N	1.538008	0.624997	1.114290
N184	N	0.872359	-0.041664	0.378439
N185	N	1.205692	0.291670	0.711772
N186	N	1.539025	0.625003	1.045106
C187	C	0.825513	-0.000210	0.336745
C188	C	1.158846	0.333123	0.670078
C189	C	1.492180	0.666456	1.003412
C190	C	0.885379	-0.000245	0.601079
C191	C	1.218712	0.333089	0.934413
C192	C	1.552046	0.666422	1.267746
C193	C	0.884305	-0.000261	0.673904
C194	C	1.217638	0.333073	1.007238
C195	C	1.550971	0.666406	1.340571
C196	C	0.757038	-0.000231	0.656865
C197	C	1.090371	0.333103	0.990199
C198	C	1.423704	0.666436	1.323532
C199	C	0.758114	-0.000222	0.584042
C200	C	1.091447	0.333111	0.917376
C201	C	1.424781	0.666444	1.250709
C202	C	0.822287	-0.000226	0.556154
C203	C	1.155620	0.333108	0.889487
C204	C	1.488953	0.666441	1.222821
H205	H	0.597091	-0.000196	-0.212725
H206	H	0.930424	0.333137	0.120609
H207	H	1.263758	0.666470	0.453942
Cl208	Cl	0.039523	-0.000256	0.055081
Cl209	Cl	0.372856	0.333077	0.388414
Cl210	Cl	0.706190	0.666411	0.721747
Cl211	Cl	0.445079	-0.000219	-0.238719
Cl212	Cl	0.778413	0.333115	0.094614
Cl213	Cl	1.111746	0.666448	0.427948
Cl214	Cl	0.682919	-0.000185	0.247918
Cl215	Cl	1.016252	0.333148	0.581251
Cl216	Cl	1.349586	0.666482	0.914584
Cl217	Cl	0.716956	0.179655	-0.200449
Cl218	Cl	1.050289	0.512989	0.132885
Cl219	Cl	1.383623	0.846322	0.466218
Cl220	Cl	0.203888	-0.000230	0.052657
Cl221	Cl	0.537222	0.333103	0.385990
Cl222	Cl	0.870555	0.666437	0.719323
H223	H	0.706738	-0.000208	0.547464
H224	H	1.040072	0.333125	0.880797
H225	H	1.373405	0.666458	1.214131
Cl226	Cl	0.685337	-0.000179	0.083547
Cl227	Cl	1.018671	0.333155	0.416881
Cl228	Cl	1.352004	0.666488	0.750214
H229	H	0.937632	-0.000251	0.578372
H230	H	1.270966	0.333082	0.911705
H231	H	1.604299	0.666416	1.245038
H232	H	0.910868	0.196579	-0.006681
H233	H	1.244201	0.529912	0.326653
H234	H	1.577534	0.863245	0.659986
Cl235	Cl	0.963627	-0.000280	0.730382
Cl236	Cl	1.296960	0.333053	1.063715
Cl237	Cl	1.630293	0.666386	1.397049
Cl238	Cl	0.931972	0.352591	0.014397
Cl239	Cl	1.265305	0.685925	0.347730
Cl240	Cl	1.598639	1.019258	0.681063
Cl241	Cl	0.717007	0.646969	-0.200464
Cl242	Cl	1.050340	0.980302	0.132870
Cl243	Cl	1.383673	1.313636	0.466203
Cl244	Cl	0.932001	0.646913	0.014392
Cl245	Cl	1.265335	0.980247	0.347725
Cl246	Cl	1.598668	1.313580	0.681058
Cl247	Cl	0.716979	0.352650	-0.200454
Cl248	Cl	1.050312	0.685983	0.132879
Cl249	Cl	1.383645	1.019317	0.466212
H250	H	0.944176	-0.000214	0.134360
H251	H	1.277509	0.333119	0.467694
H252	H	1.610843	0.666452	0.801027
H253	H	0.153080	-0.000267	-0.206181
H254	H	0.486413	0.333067	0.127153
H255	H	0.819746	0.666400	0.460486
Cl256	Cl	0.483534	-0.000175	0.048533
Cl257	Cl	0.816867	0.333158	0.381866
Cl258	Cl	1.150201	0.666492	0.715199
Cl259	Cl	0.932004	0.819904	0.014394
Cl260	Cl	1.265338	1.153237	0.347727
Cl261	Cl	1.598671	1.486571	0.681060
H262	H	0.704792	-0.000222	0.679578
H263	H	1.038126	0.333111	1.012911
H264	H	1.371459	0.666444	1.346245
Cl265	Cl	0.717018	0.819963	-0.200465
Cl266	Cl	1.050351	1.153296	0.132868
Cl267	Cl	1.383684	1.486630	0.466202
H268	H	0.942228	-0.000233	0.266470
H269	H	1.275561	0.333100	0.599803
H270	H	1.608895	0.666434	0.933137
H271	H	0.628003	-0.000145	0.018171
H272	H	0.961336	0.333189	0.351504
H273	H	1.294670	0.666522	0.684838
H274	H	0.020970	-0.000285	-0.204232
H275	H	0.354303	0.333048	0.129102
H276	H	0.687637	0.666381	0.462435
