data_functionalizedCrystal
_audit_creation_method	'MofGen! by Chris Wilmer'
_symmetry_space_group_name_H-M	'P1'
_symmetry_Int_Tables_number	1
_symmetry_cell_setting	triclinic
loop_
_symmetry_equiv_pos_as_xyz
  x,y,z
_cell_length_a	10.540539
_cell_length_b	10.489741
_cell_length_c	9.016244
_cell_angle_alpha	89.998079
_cell_angle_beta	89.994699
_cell_angle_gamma	84.532333
loop_
_atom_site_label
_atom_site_type_symbol
_atom_site_fract_x
_atom_site_fract_y
_atom_site_fract_z
O1	O	1.685915	0.179759	-0.123270
O2	O	1.316504	0.196697	-0.123288
O3	O	1.509615	0.002629	-0.123269
O4	O	1.492803	0.373827	-0.123288
O5	O	1.509586	0.002634	0.123411
O6	O	1.316475	0.196701	0.123393
O7	O	1.685886	0.179764	0.123411
Cu8	Cu	1.501178	0.188233	0.145926
Cu9	Cu	1.501212	0.188228	-0.145803
O10	O	1.492775	0.373831	0.123393
C11	C	1.269186	0.195429	0.000050
C12	C	1.128238	0.191629	0.000044
C13	C	1.508331	-0.044900	0.000070
C14	C	1.504532	-0.186529	0.000067
C15	C	0.944793	0.046011	0.000627
C16	C	1.091412	0.049864	0.000055
C17	C	1.066589	0.259849	-0.140821
C18	C	0.920044	0.255011	-0.140924
C19	C	0.919524	0.257900	0.139598
C20	C	1.066506	0.259206	0.141445
C21	C	1.381661	-0.254654	0.000050
C22	C	1.439690	-0.346782	0.121680
C23	C	1.439747	-0.346761	-0.121528
C24	C	1.562612	-0.276791	0.121797
C25	C	1.562652	-0.276760	-0.121520
C26	C	1.620770	-0.368860	0.000139
C27	C	1.733203	0.181032	0.000070
C28	C	1.874152	0.184832	0.000067
C29	C	1.494059	0.421361	0.000050
C30	C	1.497858	0.562990	0.000043
N31	N	1.501164	0.188236	0.351112
N32	N	1.501236	0.188215	-0.350989
C33	C	1.397545	0.291701	0.586135
C34	C	1.397774	0.292088	0.414244
C35	C	1.633890	0.218515	0.413455
C36	C	1.633325	0.219248	0.585400
C37	C	1.473374	0.054153	0.585661
C38	C	1.470329	0.055022	0.413706
H39	H	1.134008	-0.003815	0.101034
C40	C	1.245187	-0.187550	0.000211
N41	N	1.142399	-0.137003	0.000342
H42	H	1.712937	0.145199	0.372558
C43	C	1.632843	-0.234825	-0.260439
N44	N	1.685702	-0.203237	-0.365086
C45	C	0.855255	0.392744	-0.149599
N46	N	0.806461	0.496482	-0.156150
H47	H	1.415223	0.390600	0.629324
H48	H	1.614544	-0.245963	0.224740
C49	C	1.099270	0.398830	0.152947
N50	N	1.123956	0.503997	0.161607
C51	C	1.096810	0.400494	-0.147919
N52	N	1.119577	0.506427	-0.153264
C53	C	1.124122	0.195816	-0.282445
N54	N	1.167453	0.147578	-0.389113
H55	H	0.916190	-0.009992	0.101649
H56	H	0.887960	0.212023	0.246373
H57	H	0.891840	0.204586	-0.246216
H58	H	1.107450	0.209368	0.245656
C59	C	1.667536	0.349165	0.355276
N60	N	1.692868	0.447577	0.311462
C61	C	0.855734	0.396230	0.140882
N62	N	0.807681	0.500415	0.141839
H63	H	1.387754	-0.377720	-0.224366
H64	H	1.387689	-0.377785	0.224503
H65	H	1.721885	-0.418297	0.000211
H66	H	1.378633	0.025335	0.629105
C67	C	1.338415	0.024017	0.358672
N68	N	1.239056	0.000669	0.317213
C69	C	1.421979	0.426456	0.358645
N70	N	1.440218	0.527667	0.316769
H71	H	1.299155	0.273869	0.372096
C72	C	1.666217	0.351390	0.639558
N73	N	1.690982	0.450926	0.680341
C74	C	1.740805	0.121412	0.641590
N75	N	1.821773	0.047740	0.683906
C76	C	1.565615	-0.054012	0.355690
N77	N	1.637403	-0.136133	0.312004
H78	H	0.914591	-0.009759	-0.099827
H79	H	1.548976	-0.022872	0.626320
H80	H	1.133163	-0.004197	-0.101092
H81	H	1.298617	0.273762	0.627525
