data_functionalizedCrystal
_audit_creation_method	'MofGen! by Chris Wilmer'
_symmetry_space_group_name_H-M	'P1'
_symmetry_Int_Tables_number	1
_symmetry_cell_setting	triclinic
loop_
_symmetry_equiv_pos_as_xyz
  x,y,z
_cell_length_a	12.759401
_cell_length_b	12.759400
_cell_length_c	18.215399
_cell_angle_alpha	89.976139
_cell_angle_beta	89.983460
_cell_angle_gamma	90.014922
loop_
_atom_site_label
_atom_site_type_symbol
_atom_site_fract_x
_atom_site_fract_y
_atom_site_fract_z
Zn1	Zn	1.606235	-0.418269	-0.416072
Zn2	Zn	1.606136	-0.593967	-0.293015
Zn3	Zn	1.430543	-0.418303	-0.293027
Zn4	Zn	1.430526	-0.593908	-0.416047
O5	O	1.518360	-0.506112	-0.354540
O6	O	1.753243	-0.441586	-0.399754
O7	O	1.582809	-0.570703	-0.190032
O8	O	1.453898	-0.271278	-0.309365
O9	O	1.753170	-0.570671	-0.309344
O10	O	1.582978	-0.271253	-0.399766
O11	O	1.453802	-0.441644	-0.190041
O12	O	1.283520	-0.441587	-0.309340
O13	O	1.453868	-0.570570	-0.519034
O14	O	1.283507	-0.570603	-0.399722
O15	O	1.582961	-0.441529	-0.519053
O16	O	1.582792	-0.740980	-0.309319
O17	O	1.453772	-0.740937	-0.399710
C18	C	1.245393	-0.506093	-0.354530
C19	C	1.128616	-0.506110	-0.354543
C20	C	0.964044	-0.573407	-0.401536
C21	C	1.073768	-0.573395	-0.401528
C22	C	1.073734	-0.438840	-0.307557
C23	C	0.964012	-0.438858	-0.307561
C24	C	1.223719	-0.697325	-0.427668
C25	C	1.278596	-0.764583	-0.474660
C26	C	1.243020	-0.780852	-0.546451
C27	C	1.152567	-0.729849	-0.571263
C28	C	1.097695	-0.662583	-0.524275
C29	C	1.133270	-0.646333	-0.452474
C30	C	0.814059	-0.314927	-0.281430
C31	C	0.759185	-0.247655	-0.234444
C32	C	0.794760	-0.231375	-0.162653
C33	C	0.885216	-0.282360	-0.137843
C34	C	0.940090	-0.349632	-0.184828
C35	C	0.904508	-0.365914	-0.256619
C36	C	1.518298	-0.779079	-0.354527
C37	C	1.518367	-0.895856	-0.354546
C38	C	1.585550	-0.950615	-0.401658
C39	C	1.585609	-1.060339	-0.401678
C40	C	1.451300	-1.060535	-0.307468
C41	C	1.451236	-0.950813	-0.307452
C42	C	1.623164	-1.210181	-0.488514
C43	C	1.690363	-1.264943	-0.535620
C44	C	1.792848	-1.229237	-0.546975
C45	C	1.828154	-1.138769	-0.511213
C46	C	1.760960	-1.084011	-0.464103
C47	C	1.658461	-1.119717	-0.452762
C48	C	1.413692	-0.800969	-0.220615
C49	C	1.346503	-0.746210	-0.173499
C50	C	1.244017	-0.781915	-0.162137
C51	C	1.208714	-0.872386	-0.197885
C52	C	1.275903	-0.927145	-0.245000
C53	C	1.378388	-0.891433	-0.256364
C54	C	1.792393	-0.506131	-0.354551
C55	C	1.909170	-0.506140	-0.354555
C56	C	1.518424	-0.506039	-0.546493
C57	C	1.518451	-0.506008	-0.628292
C58	C	1.518451	-0.232078	-0.354569
C59	C	1.518490	-0.115302	-0.354582
C60	C	1.585694	-0.438754	-0.816497
C61	C	1.585707	-0.438723	-0.893356
C62	C	1.451283	-0.573100	-0.893325
C63	C	1.451266	-0.573125	-0.816468
C64	C	1.518477	-0.505953	-0.778055
C65	C	1.518507	-0.505898	-0.931772
C66	C	1.518520	-0.505865	-1.015105
C67	C	1.518463	-0.505984	-0.694716
C68	C	1.518357	-0.506108	-0.163334
C69	C	1.518533	-0.505843	-0.081535
H70	H	1.287709	-0.835616	-0.584712
C71	C	1.113441	-0.747746	-0.650241
N72	N	1.083967	-0.761232	-0.709727
C73	C	1.377315	-0.647050	-0.774179
N74	N	1.321615	-0.702725	-0.742328
C75	C	0.924351	-0.264453	-0.058867
N76	N	0.953826	-0.250962	0.000618
H77	H	0.919394	-0.628193	-0.439801
C78	C	1.262869	-0.679426	-0.348696
N79	N	1.292367	-0.665936	-0.289216
C80	C	1.659619	-0.364854	-0.774246
N81	N	1.715298	-0.309187	-0.742425
H82	H	1.640439	-0.384001	-0.924651
C83	C	1.377352	-0.646983	-0.935585
N84	N	1.321665	-0.702633	-0.967415
H85	H	1.352244	-0.806110	-0.454451
C86	C	0.998199	-0.606486	-0.551563
N87	N	0.923252	-0.564240	-0.572118
H88	H	1.118400	-0.384060	-0.269297
H89	H	1.847562	-1.273832	-0.585329
H90	H	1.013747	-0.391144	-0.164622
H91	H	1.539710	-1.239255	-0.479280
H92	H	0.750078	-0.176585	-0.124401
C93	C	1.526434	-0.761685	-0.233111
N94	N	1.611353	-0.732096	-0.242520
H95	H	1.661607	-1.338603	-0.564736
C96	C	0.659677	-0.191573	-0.261738
N97	N	0.584725	-0.149338	-0.282294
H98	H	0.785085	-0.328178	-0.339889
H99	H	1.640211	-0.905871	-0.440006
H100	H	1.375257	-0.672547	-0.144388
H101	H	1.789707	-1.010356	-0.434985
C102	C	1.940928	-1.099553	-0.523654
N103	N	2.025881	-1.070030	-0.533009
H104	H	1.396646	-1.105294	-0.269124
C105	C	1.237063	-1.026663	-0.284329
N106	N	1.207809	-1.101618	-0.313952
H107	H	1.125262	-0.901460	-0.188632
H108	H	1.189313	-0.737320	-0.123769
