data_functionalizedCrystal
_audit_creation_method	'MofGen! by Chris Wilmer'
_symmetry_space_group_name_H-M	'P1'
_symmetry_Int_Tables_number	1
_symmetry_cell_setting	triclinic
loop_
_symmetry_equiv_pos_as_xyz
  x,y,z
_cell_length_a	10.654550
_cell_length_b	14.519709
_cell_length_c	9.130313
_cell_angle_alpha	89.997798
_cell_angle_beta	89.996220
_cell_angle_gamma	84.082524
loop_
_atom_site_label
_atom_site_type_symbol
_atom_site_fract_x
_atom_site_fract_y
_atom_site_fract_z
O1	O	1.666589	0.129528	-0.121923
O2	O	1.300991	0.141869	-0.121900
O3	O	1.493483	0.001510	-0.121899
O4	O	1.474097	0.269887	-0.121924
O5	O	1.493481	0.001514	0.121700
O6	O	1.300989	0.141873	0.121699
O7	O	1.666586	0.129532	0.121676
Cu8	Cu	1.483787	0.135703	0.143930
Cu9	Cu	1.483790	0.135698	-0.144154
O10	O	1.474094	0.269891	0.121675
C11	C	1.254201	0.140965	-0.000098
C12	C	1.114784	0.138254	-0.000088
C13	C	1.034504	0.220895	-0.000117
C14	C	0.903507	0.218342	-0.000143
C15	C	0.933085	0.050500	-0.000116
C16	C	1.064078	0.053054	-0.000080
C17	C	1.017426	0.317797	-0.000139
C18	C	0.886430	0.315244	-0.000164
C19	C	1.492579	-0.032852	-0.000099
C20	C	1.489871	-0.135247	-0.000098
C21	C	1.479904	-0.510195	-0.000136
C22	C	1.482672	-0.405873	-0.000125
C23	C	1.484887	-0.322725	-0.000116
C24	C	1.487656	-0.218396	-0.000108
C25	C	1.713377	0.130436	-0.000130
C26	C	1.852794	0.133147	-0.000149
C27	C	1.474999	0.304253	-0.000128
C28	C	1.477707	0.406648	-0.000139
N29	N	1.483795	0.135705	0.346552
N30	N	1.483793	0.135688	-0.346777
C31	C	1.569052	0.073576	0.423205
C32	C	1.569048	0.073565	0.576542
C33	C	1.398527	0.197821	0.576560
C34	C	1.398525	0.197827	0.423226
C35	C	1.667505	0.001840	0.423195
C36	C	1.667502	0.001829	0.576532
H37	H	0.891784	-0.018867	-0.000131
H38	H	1.052786	0.348651	-0.105314
H39	H	1.758473	0.024302	0.375629
C40	C	0.824336	0.354803	0.141902
C41	C	0.906089	0.391331	0.263664
C42	C	0.843993	0.430885	0.405729
C43	C	0.700144	0.433910	0.426031
C44	C	0.618382	0.397380	0.304265
C45	C	0.680478	0.357827	0.162200
H46	H	1.012583	0.389093	0.248638
H47	H	0.904519	0.457926	0.495868
H48	H	0.654177	0.463189	0.531196
H49	H	0.511889	0.399619	0.319291
H50	H	0.619952	0.330786	0.072061
H51	H	1.637633	-0.065157	0.624088
C52	C	1.056571	0.368994	0.137581
C53	C	1.148515	0.318818	0.248632
C54	C	1.187660	0.370012	0.386349
C55	C	1.134862	0.471382	0.413015
C56	C	1.042912	0.521563	0.301961
C57	C	1.003767	0.470369	0.164244
H58	H	1.187604	0.243773	0.228895
H59	H	1.255728	0.332864	0.468558
H60	H	1.163839	0.509279	0.514961
H61	H	1.003823	0.596608	0.321698
H62	H	0.935700	0.507517	0.082035
C63	C	1.639449	-0.093915	0.366964
C64	C	1.616824	-0.171115	0.476555
C65	C	1.588766	-0.266866	0.420324
C66	C	1.583333	-0.285416	0.254501
C67	C	1.605958	-0.208214	0.144900
C68	C	1.634016	-0.112463	0.201131
H69	H	1.620846	-0.157385	0.599316
H70	H	1.572018	-0.324017	0.501459
H71	H	1.562563	-0.356297	0.212875
H72	H	1.601937	-0.221944	0.022139
H73	H	1.650765	-0.055312	0.119996
C74	C	1.797663	0.023181	0.632772
C75	C	1.916685	-0.041007	0.592030
C76	C	2.046837	-0.019652	0.648277
C77	C	2.057967	0.065890	0.745265
C78	C	1.938941	0.130083	0.786013
C79	C	1.808789	0.108729	0.729766
H80	H	1.908450	-0.104335	0.520229
H81	H	2.134948	-0.067173	0.618112
H82	H	2.154313	0.081698	0.786902
H83	H	1.947176	0.193412	0.857814
H84	H	1.720678	0.156249	0.759930
H85	H	1.129439	-0.014241	-0.000035
H86	H	1.329091	0.248409	0.360817
H87	H	0.844347	0.351754	-0.102121
H88	H	1.329102	0.248398	0.639004
