data_functionalizedCrystal
_audit_creation_method	'MofGen! by Chris Wilmer'
_symmetry_space_group_name_H-M	'P1'
_symmetry_Int_Tables_number	1
_symmetry_cell_setting	triclinic
loop_
_symmetry_equiv_pos_as_xyz
  x,y,z
_cell_length_a	14.853567
_cell_length_b	10.489741
_cell_length_c	13.930277
_cell_angle_alpha	89.995758
_cell_angle_beta	89.995755
_cell_angle_gamma	84.087052
loop_
_atom_site_label
_atom_site_type_symbol
_atom_site_fract_x
_atom_site_fract_y
_atom_site_fract_z
O1	O	1.197302	0.166528	-0.079764
O2	O	0.934954	0.186365	-0.079780
O3	O	1.072098	-0.009218	-0.079766
O4	O	1.060158	0.362111	-0.079778
O5	O	1.072078	-0.009222	0.079896
O6	O	0.934935	0.186361	0.079881
O7	O	1.197283	0.166524	0.079898
Zn8	Zn	1.066106	0.176442	0.105239
Zn9	Zn	1.066131	0.176447	-0.105122
O10	O	1.060139	0.362107	0.079883
C11	C	0.901351	0.185464	0.000048
C12	C	0.801252	0.182771	0.000042
C13	C	0.388003	0.055204	0.000068
C14	C	0.368025	0.287562	0.000059
C15	C	0.462072	0.290094	0.000056
C16	C	0.519090	0.175180	0.000057
C17	C	0.482060	0.057733	0.000062
C18	C	0.499110	0.407539	0.000042
C19	C	0.593163	0.410077	0.000038
C20	C	0.650183	0.295161	0.000046
C21	C	0.613147	0.177709	0.000051
C22	C	0.670164	0.062795	0.000053
C23	C	0.633130	-0.054658	0.000065
C24	C	0.539079	-0.057183	0.000070
C25	C	0.744234	0.297685	0.000041
C26	C	0.764221	0.065324	0.000047
C27	C	1.071186	-0.056742	0.000064
C28	C	1.068488	-0.198341	0.000062
C29	C	0.981228	-0.265502	0.000050
C30	C	1.022439	-0.358089	0.078774
C31	C	1.022479	-0.358060	-0.078640
C32	C	1.109736	-0.289063	0.078851
C33	C	1.109763	-0.289024	-0.078633
C34	C	1.151038	-0.381585	0.000110
C35	C	1.230886	0.167425	0.000067
C36	C	1.330985	0.170118	0.000067
C37	C	1.061051	0.409631	0.000051
C38	C	1.063748	0.551230	0.000047
N39	N	1.066095	0.176437	0.248805
N40	N	1.066149	0.176442	-0.248688
C41	C	1.005401	0.263018	0.701068
C42	C	1.126886	0.089867	0.701050
C43	C	1.126875	0.089863	0.600555
C44	C	1.066127	0.176439	0.550311
C45	C	1.005390	0.263019	0.600563
C46	C	1.187617	0.003293	0.550295
C47	C	1.187609	0.003287	0.449793
C48	C	1.126857	0.089858	0.399548
C49	C	1.066117	0.176440	0.449806
C50	C	1.005369	0.263016	0.399563
C51	C	0.944624	0.349593	0.449819
C52	C	0.944638	0.349590	0.550318
C53	C	1.126843	0.089861	0.299049
C54	C	1.005358	0.263017	0.299058
H55	H	0.623308	0.505714	0.000028
H56	H	0.895182	0.420079	0.591243
H57	H	0.679566	-0.148221	0.000060
O58	O	0.946381	0.346999	0.250106
C59	C	0.959413	0.328468	0.150625
H60	H	0.992451	0.227148	0.136895
H61	H	0.891231	0.342486	0.112440
H62	H	1.005093	0.400785	0.122099
O63	O	0.978421	-0.394735	-0.157970
C64	C	0.977218	-0.528957	-0.157338
H65	H	0.985913	-0.565975	-0.080608
H66	H	0.909875	-0.554416	-0.187161
H67	H	1.034892	-0.575017	-0.203733
H68	H	1.222848	-0.431815	0.000158
O69	O	1.246697	-0.080866	0.598950
C70	C	1.300286	-0.157309	0.533046
H71	H	1.301658	-0.105002	0.461409
H72	H	1.372151	-0.176613	0.562086
H73	H	1.270384	-0.252124	0.522353
O74	O	0.885740	0.433746	0.400902
C75	C	0.934529	0.512584	0.342780
H76	H	1.004746	0.461967	0.327726
H77	H	0.897034	0.532660	0.272108
H78	H	0.941259	0.606872	0.381505
O79	O	0.312736	0.399269	0.000182
C80	C	0.329618	0.470549	0.082882
H81	H	0.400744	0.439350	0.110452
H82	H	0.323698	0.576918	0.064280
H83	H	0.278065	0.453019	0.140785
H84	H	0.452680	0.501096	0.000031
O85	O	0.946359	0.346940	0.749989
C86	C	0.890291	0.278480	0.808114
H87	H	0.925554	0.178763	0.823168
H88	H	0.876376	0.331679	0.878785
H89	H	0.823605	0.269641	0.769391
H90	H	0.774383	0.393314	0.000033
H91	H	0.985509	-0.388688	0.145325
H92	H	1.146618	-0.258647	0.145481
O93	O	0.503208	-0.171344	-0.000056
C94	C	0.532253	-0.241384	-0.082759
H95	H	0.597705	-0.206519	-0.110325
H96	H	0.544602	-0.347583	-0.064164
H97	H	0.477939	-0.226688	-0.140663
H98	H	0.909483	-0.215045	0.000125
H99	H	1.146662	-0.258392	-0.145188
O100	O	1.246532	-0.080762	0.400836
C101	C	1.302585	-0.012536	0.342519
H102	H	1.305035	0.088011	0.372792
H103	H	1.373817	-0.064664	0.341178
H104	H	1.274230	-0.005787	0.266433
H105	H	0.357845	-0.040424	0.000082
O106	O	1.185807	0.005822	0.750002
C107	C	1.172811	0.024413	0.849481
H108	H	1.101448	0.071903	0.863218
H109	H	1.182221	-0.072154	0.887685
H110	H	1.224255	0.088521	0.877983
O111	O	1.185729	0.005746	0.250113
C112	C	1.136957	-0.073103	0.191999
H113	H	1.066727	-0.022518	0.176967
H114	H	1.174447	-0.093138	0.121316
H115	H	1.130258	-0.167411	0.230721
O116	O	0.819568	-0.046341	-0.000123
C117	C	0.802643	-0.117652	-0.082795
H118	H	0.770940	-0.050370	-0.140591
H119	H	0.869026	-0.168688	-0.110557
H120	H	0.754280	-0.191560	-0.064088
