data_functionalizedCrystal
_audit_creation_method	'MofGen! by Chris Wilmer'
_symmetry_space_group_name_H-M	'P1'
_symmetry_Int_Tables_number	1
_symmetry_cell_setting	triclinic
loop_
_symmetry_equiv_pos_as_xyz
  x,y,z
_cell_length_a	10.654550
_cell_length_b	12.996460
_cell_length_c	10.654550
_cell_angle_alpha	90.004964
_cell_angle_beta	84.484903
_cell_angle_gamma	90.009092
loop_
_atom_site_label
_atom_site_type_symbol
_atom_site_fract_x
_atom_site_fract_y
_atom_site_fract_z
O1	O	1.667843	0.085649	0.176401
O2	O	2.167843	0.585649	0.676401
O3	O	1.302364	0.085632	0.193207
O4	O	1.802364	0.585632	0.693207
O5	O	1.493507	0.085637	0.002065
O6	O	1.993507	0.585637	0.502065
O7	O	1.476701	0.085644	0.367543
O8	O	1.976701	0.585644	0.867543
O9	O	1.493487	-0.085497	0.002054
O10	O	1.993487	0.414503	0.502054
O11	O	1.302344	-0.085502	0.193196
O12	O	1.802344	0.414498	0.693196
O13	O	1.667823	-0.085485	0.176390
O14	O	2.167823	0.414515	0.676390
Cu15	Cu	1.485082	-0.101119	0.184792
Cu16	Cu	1.985082	0.398881	0.684792
Cu17	Cu	1.485106	0.101266	0.184805
Cu18	Cu	1.985106	0.601266	0.684805
O19	O	1.476680	-0.085490	0.367533
O20	O	1.976680	0.414510	0.867533
C21	C	1.255556	0.000063	0.191968
C22	C	1.755556	0.500063	0.691968
C23	C	1.116113	0.000056	0.188276
C24	C	1.616113	0.500056	0.688276
C25	C	1.036627	0.000074	0.300817
C26	C	1.536627	0.500074	0.800817
C27	C	0.905607	0.000091	0.297341
C28	C	1.405607	0.500091	0.797341
C29	C	0.933570	0.000079	0.068771
C30	C	1.433570	0.500079	0.568771
C31	C	1.064588	0.000054	0.072249
C32	C	1.564588	0.500054	0.572249
C33	C	1.020482	0.000085	0.432780
C34	C	1.520482	0.500085	0.932780
C35	C	0.889461	0.000103	0.429304
C36	C	1.389461	0.500103	0.929304
N37	N	1.485074	-0.243466	0.184783
N38	N	1.985074	0.256534	0.684783
C39	C	1.485104	-0.663281	0.184806
C40	C	1.985104	-0.163281	0.684806
C41	C	1.485092	-0.546476	0.184804
C42	C	1.985092	-0.046476	0.684804
C43	C	1.485090	-0.453377	0.184795
C44	C	1.985090	0.046623	0.684795
C45	C	1.485076	-0.336565	0.184791
C46	C	1.985076	0.163435	0.684791
C47	C	1.714631	0.000086	0.177630
C48	C	2.214631	0.500086	0.677630
C49	C	1.854074	0.000099	0.181321
C50	C	2.354074	0.500099	0.681321
C51	C	1.492263	0.000071	-0.044739
C52	C	1.992263	0.500071	0.455261
C53	C	1.488571	0.000075	-0.184182
C54	C	1.988571	0.500075	0.315818
N55	N	1.485123	0.243613	0.184805
N56	N	1.985123	0.743613	0.684805
C57	C	1.601112	0.000077	-0.263668
C58	C	2.101112	0.500077	0.236332
C59	C	1.597636	0.000084	-0.394688
C60	C	2.097636	0.500084	0.105312
C61	C	1.369066	0.000082	-0.366725
C62	C	1.869066	0.500082	0.133275
C63	C	1.372544	0.000083	-0.235707
C64	C	1.872544	0.500083	0.264293
C65	C	1.733075	0.000073	-0.279813
C66	C	2.233075	0.500073	0.220187
C67	C	1.729599	0.000080	-0.410834
C68	C	2.229599	0.500080	0.089166
C69	C	1.477925	0.000078	0.414336
C70	C	1.977925	0.500078	0.914336
C71	C	1.481616	0.000081	0.553779
C72	C	1.981616	0.500081	1.053779
H73	H	0.847737	0.071728	0.479030
H74	H	1.347737	0.571728	0.979030
C75	C	1.248749	0.000087	-0.148276
C76	C	1.748749	0.500087	0.351724
H77	H	1.179154	0.000082	-0.197731
H78	H	1.679154	0.500082	0.302269
H79	H	1.245368	0.059764	-0.096577
H80	H	1.745368	0.559764	0.403423
H81	H	1.245341	-0.059600	-0.096593
H82	H	1.745341	0.440400	0.403407
H83	H	1.274601	0.000090	-0.408693
H84	H	1.774601	0.500090	0.091307
H85	H	1.775088	-0.073817	-0.244191
H86	H	2.275088	0.426183	0.255809
H87	H	0.843781	-0.073780	0.469180
H88	H	1.343781	0.426220	0.969180
H89	H	1.784699	0.071690	-0.250451
H90	H	2.284699	0.571690	0.249549
H91	H	0.891602	0.000093	-0.025694
H92	H	1.391602	0.500093	0.474306
C93	C	1.152024	0.000026	-0.051542
C94	C	1.652024	0.500026	0.448458
H95	H	1.237434	0.000002	-0.032857
H96	H	1.737434	0.500002	0.467143
H97	H	1.136326	0.059702	-0.099076
H98	H	1.636326	0.559702	0.400924
H99	H	1.136266	-0.059662	-0.099060
H100	H	1.636266	0.440338	0.400940
H101	H	1.769488	0.073973	-0.456472
H102	H	2.269488	0.573973	0.043528
H103	H	1.049805	-0.071537	0.484386
H104	H	1.549805	0.428463	0.984386
H105	H	1.779312	-0.071535	-0.452599
H106	H	2.279312	0.428465	0.047401
H107	H	1.056146	0.073971	0.474804
H108	H	1.556146	0.573971	0.974804
