data_functionalizedCrystal
_audit_creation_method	'MofGen! by Chris Wilmer'
_symmetry_space_group_name_H-M	'P1'
_symmetry_Int_Tables_number	1
_symmetry_cell_setting	triclinic
loop_
_symmetry_equiv_pos_as_xyz
  x,y,z
_cell_length_a	18.101398
_cell_length_b	18.050588
_cell_length_c	18.101389
_cell_angle_alpha	90.016963
_cell_angle_beta	90.009745
_cell_angle_gamma	90.025118
loop_
_atom_site_label
_atom_site_type_symbol
_atom_site_fract_x
_atom_site_fract_y
_atom_site_fract_z
Zn1	Zn	1.132129	-0.295825	0.418558
Zn2	Zn	1.632129	0.204175	0.918558
Zn3	Zn	1.132028	-0.420000	0.294720
Zn4	Zn	1.632028	0.080000	0.794720
Zn5	Zn	1.008288	-0.295818	0.294751
Zn6	Zn	1.508288	0.204182	0.794751
Zn7	Zn	1.008242	-0.419968	0.418540
Zn8	Zn	1.508242	0.080032	0.918540
O9	O	1.070172	-0.357903	0.356642
O10	O	1.570172	0.142097	0.856642
O11	O	1.235748	-0.312313	0.402125
O12	O	1.735748	0.187687	0.902125
O13	O	1.115591	-0.403537	0.191091
O14	O	1.615591	0.096463	0.691091
O15	O	1.024777	-0.191895	0.311195
O16	O	1.524777	0.308105	0.811195
O17	O	1.235674	-0.403544	0.311142
O18	O	1.735674	0.096456	0.811142
O19	O	1.115762	-0.191900	0.402155
O20	O	1.615762	0.308100	0.902155
O21	O	1.024679	-0.312301	0.191114
O22	O	1.524679	0.187699	0.691114
O23	O	0.904649	-0.312271	0.311177
O24	O	1.404649	0.187729	0.811177
O25	O	1.024699	-0.403491	0.522175
O26	O	1.524699	0.096509	1.022175
O27	O	0.904615	-0.403484	0.402124
O28	O	1.404615	0.096516	0.902124
O29	O	1.115718	-0.312283	0.522189
O30	O	1.615718	0.187717	1.022189
O31	O	1.115546	-0.523920	0.311124
O32	O	1.615546	-0.023920	0.811124
O33	O	1.024601	-0.523897	0.402094
O34	O	1.524601	-0.023897	0.902094
C35	C	0.877761	-0.357874	0.356652
C36	C	1.377761	0.142126	0.856652
C37	C	0.795447	-0.357879	0.356674
C38	C	1.295447	0.142121	0.856674
C39	C	0.496356	-0.357923	0.356643
C40	C	0.996356	0.142077	0.856643
C41	C	0.527685	-0.415589	0.413583
C42	C	1.027685	0.084411	0.913583
C43	C	0.613303	-0.415408	0.413817
C44	C	1.113303	0.084592	0.913817
C45	C	0.644739	-0.357902	0.356659
C46	C	1.144739	0.142098	0.856659
C47	C	0.613682	-0.279684	0.377985
C48	C	1.113682	0.220316	0.877985
C49	C	0.528037	-0.280030	0.378389
C50	C	1.028037	0.219970	0.878389
C51	C	0.527904	-0.377786	0.278241
C52	C	1.027904	0.122214	0.778241
C53	C	0.613554	-0.379502	0.278660
C54	C	1.113554	0.120498	0.778660
C55	C	0.728598	-0.357885	0.356666
C56	C	1.228598	0.142115	0.856666
C57	C	0.412497	-0.357934	0.356638
C58	C	0.912497	0.142066	0.856638
C59	C	1.070078	-0.550855	0.356620
C60	C	1.570078	-0.050855	0.856620
C61	C	1.070105	-0.633401	0.356635
C62	C	1.570105	-0.133401	0.856635
C63	C	1.020727	-0.882241	0.406105
C64	C	1.520727	-0.382241	0.906105
C65	C	1.088255	-0.832779	0.424267
C66	C	1.588255	-0.332779	0.924267
C67	C	1.070259	-0.930521	0.356676
C68	C	1.570259	-0.430521	0.856676
C69	C	1.002659	-0.832902	0.338529
C70	C	1.502659	-0.332902	0.838529
C71	C	1.070180	-0.784536	0.356658
C72	C	1.570180	-0.284536	0.856658
C73	C	1.137823	-0.882146	0.374874
C74	C	1.637823	-0.382146	0.874874
C75	C	1.052182	-0.882273	0.289104
C76	C	1.552182	-0.382273	0.789104
C77	C	1.119756	-0.832834	0.307240
C78	C	1.619756	-0.332834	0.807240
C79	C	1.070304	-1.014620	0.356689
C80	C	1.570304	-0.514620	0.856689
C81	C	1.070143	-0.700440	0.356645
C82	C	1.570143	-0.200440	0.856645
C83	C	1.263333	-0.357933	0.356632
C84	C	1.763333	0.142067	0.856632
C85	C	1.345648	-0.357946	0.356628
C86	C	1.845648	0.142054	0.856628
C87	C	1.070214	-0.357884	0.549804
C88	C	1.570214	0.142116	1.049804
C89	C	1.070233	-0.357876	0.632118
C90	C	1.570233	0.142124	1.132118
C91	C	1.070286	-0.164197	0.356681
C92	C	1.570286	0.335803	0.856681
C93	C	1.070335	-0.081652	0.356697
C94	C	1.570335	0.418348	0.856697
C95	C	1.070172	-0.357868	0.164232
C96	C	1.570172	0.142132	0.664232
C97	C	1.070297	-0.357667	0.081918
C98	C	1.570297	0.142333	0.581918
C99	C	1.070276	-0.357737	0.931209
C100	C	1.570276	0.142263	1.431209
C101	C	1.012812	-0.414940	0.899876
C102	C	1.512812	0.085060	1.399876
C103	C	1.012967	-0.415205	0.814257
C104	C	1.512967	0.084795	1.314257
C105	C	1.070254	-0.357806	0.782827
C106	C	1.570254	0.142194	1.282827
C107	C	1.148280	-0.379056	0.813913
C108	C	1.648280	0.120944	1.313913
C109	C	1.147960	-0.379431	0.899558
C110	C	1.647960	0.120569	1.399558
C111	C	1.050392	-0.279157	0.899637
C112	C	1.550392	0.220843	1.399637
C113	C	1.048656	-0.279611	0.813986
C114	C	1.548656	0.220389	1.313986
C115	C	1.070246	-0.357844	0.698967
C116	C	1.570246	0.142156	1.198967
C117	C	1.070289	-0.357701	1.015069
C118	C	1.570289	0.142299	1.515069
H119	H	0.978925	-0.903932	0.447945
H120	H	1.478925	-0.403932	0.947945
N121	N	0.639637	-0.488176	0.397051
N122	N	1.139637	0.011824	0.897051
N123	N	0.594762	-0.539450	0.385097
N124	N	1.094762	-0.039450	0.885097
H125	H	0.613356	-0.590847	0.373260
H126	H	1.113356	-0.090847	0.873260
H127	H	1.036901	-0.904029	0.231984
H128	H	1.536901	-0.404029	0.731984
H129	H	1.161658	-0.811278	0.265432
H130	H	1.661658	-0.311278	0.765432
N131	N	1.209524	-0.909163	0.394192
N132	N	1.709524	-0.409163	0.894192
N133	N	1.244459	-0.949184	0.349981
N134	N	1.744459	-0.449184	0.849981
H135	H	1.295098	-0.968266	0.363625
H136	H	1.795098	-0.468266	0.863625
H137	H	0.945524	-0.811266	0.323188
H138	H	1.445524	-0.311266	0.823188
H139	H	0.955108	-0.401907	0.793239
H140	H	1.455108	0.098093	1.293239
H141	H	1.192226	-0.339576	0.920286
H142	H	1.692226	0.160424	1.420286
H143	H	0.954778	-0.401778	0.920476
H144	H	1.454778	0.098222	1.420476
N145	N	1.097332	-0.223311	0.787141
N146	N	1.597332	0.276689	1.287141
N147	N	1.148967	-0.239976	0.744420
N148	N	1.648967	0.260024	1.244420
H149	H	1.183350	-0.200216	0.725460
H150	H	1.683350	0.299784	1.225460
H151	H	1.103516	-0.811040	0.481404
H152	H	1.603516	-0.311040	0.981404
H153	H	0.633805	-0.402267	0.471908
H154	H	1.133805	0.097733	0.971908
H155	H	1.025809	-0.472830	0.921399
H156	H	1.525809	0.027170	1.421399
H157	H	1.026094	-0.473451	0.793773
H158	H	1.526094	0.026549	1.293773
H159	H	0.507071	-0.473782	0.400366
H160	H	1.007071	0.026218	0.900366
N161	N	1.169112	-0.451493	0.924617
N162	N	1.669112	0.048507	1.424617
N163	N	1.184005	-0.501158	0.878854
N164	N	1.684005	-0.001158	1.378854
H165	H	1.198945	-0.552053	0.896548
H166	H	1.698945	-0.052053	1.396548
N167	N	1.169787	-0.450350	0.787004
N168	N	1.669787	0.049650	1.287004
N169	N	1.127786	-0.485632	0.744942
N170	N	1.627786	0.014368	1.244942
H171	H	1.142972	-0.535985	0.725937
H172	H	1.642972	-0.035985	1.225937
H173	H	1.192245	-0.338701	0.793555
H174	H	1.692245	0.161299	1.293555
H175	H	0.506174	-0.402615	0.471338
H176	H	1.006174	0.097385	0.971338
H177	H	0.994485	-0.259798	0.921236
H178	H	1.494485	0.240202	1.421236
H179	H	1.092247	-0.236538	0.919901
H180	H	1.592247	0.263462	1.419901
N181	N	0.976622	-0.259515	0.788497
N182	N	1.476622	0.240485	1.288497
N183	N	0.941280	-0.302581	0.747533
N184	N	1.441280	0.197419	1.247533
H185	H	0.890405	-0.288391	0.729527
H186	H	1.390405	0.211609	1.229527
H187	H	0.507314	-0.235526	0.338819
H188	H	1.007314	0.264474	0.838819
N189	N	0.503001	-0.258891	0.450292
N190	N	1.003001	0.241109	0.950292
N191	N	0.548781	-0.243987	0.499826
N192	N	1.048781	0.256013	0.999826
H193	H	0.531104	-0.229057	0.550610
H194	H	1.031104	0.270943	1.050610
H195	H	0.635146	-0.262531	0.434677
H196	H	1.135146	0.237469	0.934677
H197	H	0.506292	-0.433846	0.258861
H198	H	1.006292	0.066154	0.758861
H199	H	0.633860	-0.437059	0.262576
H200	H	1.133860	0.062941	0.762576
N201	N	0.639218	-0.224386	0.327510
N202	N	1.139218	0.275614	0.827510
N203	N	0.624125	-0.229526	0.260316
N204	N	1.124125	0.270474	0.760316
H205	H	0.642161	-0.190498	0.224639
H206	H	1.142161	0.309502	0.724639
N207	N	0.640406	-0.330636	0.222585
N208	N	1.140406	0.169364	0.722585
N209	N	0.683150	-0.278860	0.239270
N210	N	1.183150	0.221140	0.739270
H211	H	0.702116	-0.244343	0.199669
H212	H	1.202116	0.255657	0.699669
H213	H	0.507644	-0.335782	0.235816
H214	H	1.007644	0.164218	0.735816
