data_functionalizedCrystal
_audit_creation_method	'MofGen! by Chris Wilmer'
_symmetry_space_group_name_H-M	'P1'
_symmetry_Int_Tables_number	1
_symmetry_cell_setting	triclinic
loop_
_symmetry_equiv_pos_as_xyz
  x,y,z
_cell_length_a	13.897449
_cell_length_b	21.295416
_cell_length_c	13.897441
_cell_angle_alpha	89.966051
_cell_angle_beta	90.020733
_cell_angle_gamma	89.968389
loop_
_atom_site_label
_atom_site_type_symbol
_atom_site_fract_x
_atom_site_fract_y
_atom_site_fract_z
Zn1	Zn	1.474618	0.250568	0.545359
Zn2	Zn	1.807951	0.583901	0.878692
Zn3	Zn	2.141285	0.917234	1.212025
Zn4	Zn	1.474476	0.355847	0.384051
Zn5	Zn	1.807810	0.689180	0.717384
Zn6	Zn	2.141143	1.022513	1.050717
Zn7	Zn	1.313307	0.250598	0.384077
Zn8	Zn	1.646640	0.583931	0.717410
Zn9	Zn	1.979974	0.917264	1.050744
Zn10	Zn	1.313253	0.355805	0.545303
Zn11	Zn	1.646587	0.689139	0.878637
Zn12	Zn	1.979920	1.022472	1.211970
O13	O	1.393914	0.303204	0.464697
O14	O	1.727247	0.636538	0.798031
O15	O	2.060580	0.969871	1.131364
O16	O	1.609581	0.264538	0.523973
O17	O	1.942914	0.597871	0.857306
O18	O	2.276247	0.931205	1.190640
O19	O	1.453060	0.341915	0.249072
O20	O	1.786393	0.675248	0.582406
O21	O	2.119727	1.008582	0.915739
O22	O	1.334787	0.162504	0.405506
O23	O	1.668120	0.495838	0.738839
O24	O	2.001454	0.829171	1.072172
O25	O	1.609477	0.341886	0.405461
O26	O	1.942810	0.675219	0.738794
O27	O	2.276143	1.008553	1.072127
O28	O	1.453301	0.162482	0.523999
O29	O	1.786635	0.495816	0.857332
O30	O	2.119968	0.829149	1.190665
O31	O	1.334650	0.264589	0.249092
O32	O	1.667983	0.597922	0.582425
O33	O	2.001316	0.931256	0.915759
O34	O	1.178318	0.264549	0.405452
O35	O	1.511652	0.597882	0.738785
O36	O	1.844985	0.931216	1.072119
O37	O	1.334695	0.341815	0.680292
O38	O	1.668029	0.675149	1.013626
O39	O	2.001362	1.008482	1.346959
O40	O	1.178279	0.341844	0.523904
O41	O	1.511612	0.675178	0.857237
O42	O	1.844945	1.008511	1.190571
O43	O	1.453249	0.264498	0.680333
O44	O	1.786583	0.597831	1.013666
O45	O	2.119916	0.931164	1.347000
O46	O	1.453008	0.443931	0.405407
O47	O	1.786341	0.777264	0.738740
O48	O	2.119675	1.110597	1.072074
O49	O	1.334558	0.443900	0.523878
O50	O	1.667891	0.777234	0.857212
O51	O	2.001225	1.110567	1.190545
C52	C	1.143299	0.303196	0.464675
C53	C	1.476633	0.636529	0.798009
C54	C	1.809966	0.969863	1.131342
C55	C	1.036085	0.303207	0.464689
C56	C	1.369419	0.636541	0.798022
C57	C	1.702752	0.969874	1.131356
C58	C	0.839790	0.303210	0.464714
C59	C	1.173124	0.636543	0.798048
C60	C	1.506457	0.969876	1.131381
C61	C	0.949023	0.303207	0.464697
C62	C	1.282356	0.636540	0.798031
C63	C	1.615689	0.969873	1.131364
C64	C	1.393788	0.466756	0.464655
C65	C	1.727121	0.800089	0.797988
C66	C	2.060455	1.133423	1.131321
C67	C	1.393822	0.536724	0.464669
C68	C	1.727156	0.870057	0.798002
C69	C	2.060489	1.203391	1.131336
C70	C	1.455554	0.569586	0.403046
C71	C	1.788888	0.902919	0.736379
C72	C	2.122221	1.236252	1.069713
C73	C	1.455600	0.635328	0.403072
C74	C	1.788933	0.968661	0.736405
C75	C	2.122266	1.301995	1.069739
C76	C	1.393896	0.668207	0.464711
C77	C	1.727230	1.001540	0.798044
C78	C	2.060563	1.334873	1.131377
C79	C	1.332160	0.635337	0.526346
C80	C	1.665493	0.968670	0.859679
C81	C	1.998827	1.302004	1.193012
C82	C	1.332123	0.569596	0.526325
C83	C	1.665456	0.902929	0.859658
C84	C	1.998790	1.236262	1.192991
N85	N	1.309516	0.771473	0.472064
N86	N	1.642849	1.104806	0.805397
N87	N	1.976182	1.438140	1.138730
N88	N	1.309554	0.833925	0.472078
N89	N	1.642887	1.167258	0.805411
N90	N	1.976220	1.500591	1.138745
C91	C	1.394005	0.866281	0.464779
C92	C	1.727339	1.199615	0.798113
C93	C	2.060672	1.532948	1.131446
N94	N	1.478419	0.833827	0.457447
N95	N	1.811753	1.167160	0.790780
N96	N	2.145086	1.500494	1.124113
N97	N	1.478381	0.771370	0.457427
N98	N	1.811714	1.104703	0.790761
N99	N	2.145047	1.438037	1.124094
C100	C	1.393930	0.739492	0.464741
C101	C	1.727263	1.072825	0.798074
C102	C	2.060596	1.406159	1.131408
C103	C	1.455792	0.970428	0.403181
C104	C	1.789125	1.303762	0.736515
C105	C	2.122458	1.637095	1.069848
C106	C	1.455839	1.036172	0.403214
C107	C	1.789172	1.369505	0.736548
C108	C	2.122505	1.702839	1.069881
C109	C	1.332390	1.036180	0.526483
C110	C	1.665724	1.369513	0.859816
C111	C	1.999057	1.702846	1.193149
C112	C	1.332352	0.970437	0.526455
C113	C	1.665685	1.303771	0.859788
C114	C	1.999019	1.637104	1.193122
C115	C	1.394051	0.937565	0.464799
C116	C	1.727384	1.270899	0.798132
C117	C	2.060718	1.604232	1.131466
C118	C	1.645507	0.303213	0.464720
C119	C	1.978840	0.636547	0.798053
C120	C	2.312173	0.969880	1.131387
C121	C	1.752720	0.303217	0.464730
C122	C	2.086054	0.636550	0.798063
C123	C	2.419387	0.969884	1.131396
C124	C	1.393982	0.303149	0.716291
C125	C	1.727315	0.636482	1.049624
C126	C	2.060649	0.969815	1.382957
C127	C	1.394011	0.303125	0.823505
C128	C	1.727345	0.636458	1.156838
C129	C	2.060678	0.969792	1.490171
C130	C	1.394067	1.139014	0.464778
C131	C	1.727401	1.472347	0.798111
C132	C	2.060734	1.805681	1.131445
C133	C	1.394136	1.069046	0.464855
C134	C	1.727469	1.402379	0.798188
C135	C	2.060802	1.735713	1.131521
C136	C	1.393901	0.303214	0.214083
C137	C	1.727234	0.636548	0.547416
C138	C	2.060568	0.969881	0.880750
C139	C	1.394059	0.303061	0.106870
C140	C	1.727392	0.636394	0.440203
C141	C	2.060725	0.969727	0.773536
C142	C	1.394037	0.303082	1.019800
C143	C	1.727371	0.636416	1.353133
C144	C	2.060704	0.969749	1.686466
C145	C	1.394020	0.303108	0.910567
C146	C	1.727353	0.636441	1.243901
C147	C	2.060687	0.969774	1.577234
H148	H	1.505873	0.662089	0.352892
H149	H	1.839206	0.995423	0.686225
H150	H	2.172539	1.328756	1.019558
H151	H	1.282154	1.062949	0.576674
H152	H	1.615488	1.396282	0.910008
H153	H	1.948821	1.729615	1.243341
O154	O	1.265533	0.534151	0.592792
O155	O	1.598866	0.867484	0.926125
O156	O	1.932199	1.200818	1.259459
H157	H	1.275876	0.482914	0.582424
H158	H	1.609210	0.816247	0.915757
H159	H	1.942543	1.149581	1.249090
H160	H	1.281922	0.662111	0.576534
H161	H	1.615256	0.995444	0.909867
H162	H	1.948589	1.328778	1.243201
O163	O	1.522111	0.534129	0.336563
O164	O	1.855444	0.867463	0.669896
O165	O	2.188778	1.200796	1.003229
H166	H	1.565053	0.568029	0.293724
H167	H	1.898386	0.901363	0.627058
H168	H	2.231720	1.234696	0.960391
O169	O	1.522346	0.934966	0.336699
O170	O	1.855680	1.268299	0.670032
O171	O	2.189013	1.601633	1.003366
H172	H	1.565295	0.968865	0.293864
H173	H	1.898628	1.302198	0.627197
H174	H	2.231961	1.635531	0.960531
O175	O	1.522426	1.071623	0.336752
O176	O	1.855760	1.404957	0.670085
O177	O	2.189093	1.738290	1.003419
H178	H	1.505905	1.059064	0.261027
H179	H	1.839238	1.392397	0.594361
H180	H	2.172572	1.725731	0.927694
H181	H	1.282080	0.943680	0.576630
H182	H	1.615413	1.277013	0.909963
H183	H	1.948747	1.610346	1.243297
