data_functionalizedCrystal
_audit_creation_method	'MofGen! by Chris Wilmer'
_symmetry_space_group_name_H-M	'P1'
_symmetry_Int_Tables_number	1
_symmetry_cell_setting	triclinic
loop_
_symmetry_equiv_pos_as_xyz
  x,y,z
_cell_length_a	18.050589
_cell_length_b	18.050591
_cell_length_c	15.296720
_cell_angle_alpha	99.657105
_cell_angle_beta	99.646980
_cell_angle_gamma	90.024669
loop_
_atom_site_label
_atom_site_type_symbol
_atom_site_fract_x
_atom_site_fract_y
_atom_site_fract_z
Zn1	Zn	-0.368396	1.062586	-0.510205
Zn2	Zn	0.131604	1.562586	-0.010205
Zn3	Zn	-0.471110	1.083992	-0.359365
Zn4	Zn	0.028890	1.583992	0.140635
Zn5	Zn	-0.346930	0.959902	-0.359358
Zn6	Zn	0.153070	1.459902	0.140642
Zn7	Zn	-0.492534	0.938361	-0.510154
Zn8	Zn	0.007466	1.438361	-0.010154
O9	O	-0.419743	1.011210	-0.434770
O10	O	0.080257	1.511210	0.065230
O11	O	-0.382040	1.169347	-0.490221
O12	O	0.117960	1.669347	0.009779
O13	O	-0.436687	1.085505	-0.233128
O14	O	0.063313	1.585505	0.266872
O15	O	-0.245855	0.973580	-0.379387
O16	O	0.254145	1.473580	0.120613
O17	O	-0.457503	1.185074	-0.379399
O18	O	0.042497	1.685074	0.120601
O19	O	-0.261627	1.049022	-0.490214
O20	O	0.238373	1.549022	0.009786
O21	O	-0.345453	0.994336	-0.233123
O22	O	0.154547	1.494336	0.266877
O23	O	-0.366227	0.853123	-0.379337
O24	O	0.133773	1.353123	0.120663
O25	O	-0.494017	0.936866	-0.636396
O26	O	0.005983	1.436866	-0.136396
O27	O	-0.473201	0.837297	-0.490126
O28	O	0.026799	1.337297	0.009874
O29	O	-0.402814	1.028134	-0.636434
O30	O	0.097186	1.528134	-0.136434
O31	O	-0.577874	1.064618	-0.379349
O32	O	-0.077874	1.564618	0.120651
O33	O	-0.593614	0.957623	-0.490132
O34	O	-0.093614	1.457623	0.009868
C35	C	-0.419710	0.818265	-0.434725
C36	C	0.080290	1.318265	0.065275
C37	C	-0.419717	0.735719	-0.434727
C38	C	0.080283	1.235719	0.065273
C39	C	-0.612693	1.011123	-0.434755
C40	C	-0.112693	1.511123	0.065245
C41	C	-0.695242	1.011149	-0.434779
C42	C	-0.195242	1.511149	0.065221
C43	C	-0.361513	0.495457	-0.374623
C44	C	0.138487	0.995457	0.125377
C45	C	-0.355150	0.533158	-0.456948
C46	C	0.144850	1.033158	0.043052
C47	C	-0.419765	0.438588	-0.434801
C48	C	0.080235	0.938588	0.065199
C49	C	-0.426071	0.547974	-0.352445
C50	C	0.073929	1.047974	0.147555
C51	C	-0.419739	0.584579	-0.434761
C52	C	0.080261	1.084579	0.065239
C53	C	-0.413373	0.475195	-0.517170
C54	C	0.086627	0.975195	-0.017170
C55	C	-0.484318	0.490014	-0.412611
C56	C	0.015682	0.990014	0.087389
C57	C	-0.477988	0.527684	-0.494993
C58	C	0.022012	1.027684	0.005007
C59	C	-0.419779	0.354486	-0.434823
C60	C	0.080221	0.854486	0.065177
C61	C	-0.419728	0.668677	-0.434748
C62	C	0.080272	1.168677	0.065252
C63	C	-0.903276	0.953017	-0.495002
C64	C	-0.403276	1.453017	0.004998
C65	C	-0.940992	0.946650	-0.412685
C66	C	-0.440992	1.446650	0.087315
C67	C	-0.846374	1.011220	-0.434791
C68	C	-0.346374	1.511220	0.065209
C69	C	-0.955741	1.017623	-0.517118
C70	C	-0.455741	1.517623	-0.017118
C71	C	-0.992362	1.011287	-0.434810
C72	C	-0.492362	1.511287	0.065190
C73	C	-0.882997	1.004824	-0.352430
C74	C	-0.382997	1.504824	0.147570
C75	C	-0.897749	1.075820	-0.456919
C76	C	-0.397749	1.575820	0.043081
C77	C	-0.935434	1.069487	-0.374544
C78	C	-0.435434	1.569487	0.125456
C79	C	-0.762274	1.011180	-0.434781
C80	C	-0.262274	1.511180	0.065219
C81	C	-1.076458	1.011329	-0.434810
C82	C	-0.576458	1.511329	0.065190
C83	C	-0.226042	1.011316	-0.434805
C84	C	0.273958	1.511316	0.065195
C85	C	-0.143498	1.011361	-0.434820
C86	C	0.356502	1.511361	0.065180
C87	C	-0.453200	0.977710	-0.670062
C88	C	0.046800	1.477710	-0.170062
C89	C	-0.467457	0.963434	-0.770329
C90	C	0.032543	1.463434	-0.270329
C91	C	-0.419776	1.204909	-0.434816
C92	C	0.080224	1.704909	0.065184
C93	C	-0.419790	1.287452	-0.434836
C94	C	0.080210	1.787452	0.065164
C95	C	-0.317713	1.113271	-1.053045
C96	C	0.182287	1.613271	-0.553045
C97	C	-0.304319	1.126689	-0.958839
C98	C	0.195681	1.626689	-0.458839
C99	C	-0.345102	1.085876	-0.911707
C100	C	0.154898	1.585876	-0.411707
C101	C	-0.399282	1.031644	-0.958790
C102	C	0.100718	1.531644	-0.458790
C103	C	-0.412682	1.018229	-1.053005
C104	C	0.087318	1.518229	-0.553005
C105	C	-0.440071	0.990833	-0.911667
C106	C	0.059929	1.490833	-0.411667
C107	C	-0.494251	0.936601	-0.958750
C108	C	0.005749	1.436601	-0.458750
C109	C	-0.507648	0.923188	-1.052956
C110	C	-0.007648	1.423188	-0.552956
C111	C	-0.466865	0.964001	-1.100088
C112	C	0.033135	1.464001	-0.600088
C113	C	-0.426671	1.004248	-0.817452
C114	C	0.073329	1.504248	-0.317452
C115	C	-0.521640	0.909206	-0.817412
C116	C	-0.021640	1.409206	-0.317412
C117	C	-0.535034	0.895788	-0.911618
C118	C	-0.035034	1.395788	-0.411618
C119	C	-0.386362	1.044624	-0.200394
C120	C	0.113638	1.544624	0.299606
C121	C	-0.371896	1.059043	-0.100128
C122	C	0.128104	1.559043	0.399872
H123	H	-0.312239	0.481018	-0.323812
H124	H	0.187761	0.981018	0.176188
Br125	Br	-0.485044	0.945796	-1.227945
Br126	Br	0.014956	1.445796	-0.727945
H127	H	-0.551771	0.879034	-1.091289
H128	H	-0.051771	1.379034	-0.591289
Br129	Br	-0.434980	0.600616	-0.236391
Br130	Br	0.065020	1.100616	0.263609
H131	H	-0.579148	0.851631	-0.949966
H132	H	-0.079148	1.351631	-0.449966
H133	H	-0.960107	0.892050	-0.393986
H134	H	-0.460107	1.392050	0.106014
H135	H	-0.407964	0.443701	-0.586821
H136	H	0.092036	0.943701	-0.086821
Br137	Br	-0.560094	0.551497	-0.579877
Br138	Br	-0.060094	1.051497	-0.079877
Br139	Br	-0.576999	0.853820	-0.753455
Br140	Br	-0.076999	1.353820	-0.253455
H141	H	-0.284517	1.146499	-1.091428
H142	H	0.215483	1.646499	-0.591428
H143	H	-0.949692	1.118744	-0.323575
H144	H	-0.449692	1.618744	0.176425
H145	H	-0.300548	0.552196	-0.475716
H146	H	0.199452	1.052196	0.024284
Br147	Br	-0.865898	1.166794	-0.488149
Br148	Br	-0.365898	1.666794	0.011851
Br149	Br	-0.830536	0.995738	-0.236364
Br150	Br	-0.330536	1.495738	0.263636
H151	H	-0.538899	0.470949	-0.393830
H152	H	-0.038899	0.970949	0.106170
Br153	Br	-0.230793	1.200289	-0.894946
Br154	Br	0.269207	1.700289	-0.394946
H155	H	-0.987306	1.023013	-0.586734
H156	H	-0.487306	1.523013	-0.086734
Br157	Br	-0.353144	1.077848	-0.753565
Br158	Br	0.146856	1.577848	-0.253565
Br159	Br	-0.879253	0.870898	-0.579753
Br160	Br	-0.379253	1.370898	-0.079753
H161	H	-0.334193	1.096804	-0.835000
H162	H	0.165807	1.596804	-0.335000
