data_functionalizedCrystal
_audit_creation_method	'MofGen! by Chris Wilmer'
_symmetry_space_group_name_H-M	'P1'
_symmetry_Int_Tables_number	1
_symmetry_cell_setting	triclinic
loop_
_symmetry_equiv_pos_as_xyz
  x,y,z
_cell_length_a	8.497374
_cell_length_b	11.169417
_cell_length_c	11.169409
_cell_angle_alpha	90.019824
_cell_angle_beta	90.026041
_cell_angle_gamma	89.996290
loop_
_atom_site_label
_atom_site_type_symbol
_atom_site_fract_x
_atom_site_fract_y
_atom_site_fract_z
Zn1	Zn	-0.627891	1.835087	0.678595
Zn2	Zn	-0.891756	1.835028	0.477934
Zn3	Zn	-0.627987	1.634373	0.477930
Zn4	Zn	-0.891627	1.634432	0.678579
O5	O	-0.759815	1.734730	0.578260
O6	O	-0.662907	2.003029	0.651986
O7	O	-0.856860	1.808362	0.309984
O8	O	-0.407212	1.660997	0.504553
O9	O	-0.856767	2.002986	0.504561
O10	O	-0.407142	1.808461	0.651981
O11	O	-0.663071	1.660941	0.309980
O12	O	-0.662946	1.466431	0.504538
O13	O	-0.856548	1.661099	0.846531
O14	O	-0.856641	1.466475	0.651954
O15	O	-0.662782	1.808519	0.846543
O16	O	-1.112501	1.808420	0.504545
O17	O	-1.112407	1.661043	0.651958
C18	C	-0.759791	1.422905	0.578244
C19	C	-0.759819	1.289505	0.578266
C20	C	-0.759640	1.734822	0.891302
C21	C	-0.759566	1.734861	1.024702
C22	C	-0.348335	1.734720	0.578265
C23	C	-0.169691	1.734720	0.578269
C24	C	-0.759840	2.047772	0.578276
C25	C	-0.759851	2.181172	0.578283
C26	C	-0.759876	1.734707	0.266435
C27	C	-0.759506	1.734901	0.133035
