data_functionalizedCrystal
_audit_creation_method	'MofGen! by Chris Wilmer'
_symmetry_space_group_name_H-M	'P1'
_symmetry_Int_Tables_number	1
_symmetry_cell_setting	triclinic
loop_
_symmetry_equiv_pos_as_xyz
  x,y,z
_cell_length_a	16.625548
_cell_length_b	16.625546
_cell_length_c	12.759401
_cell_angle_alpha	90.013667
_cell_angle_beta	90.004840
_cell_angle_gamma	90.023536
loop_
_atom_site_label
_atom_site_type_symbol
_atom_site_fract_x
_atom_site_fract_y
_atom_site_fract_z
Zn1	Zn	1.232555	-0.321110	0.594036
Zn2	Zn	1.232495	-0.455914	0.418342
Zn3	Zn	1.097754	-0.321102	0.418366
Zn4	Zn	1.097687	-0.455907	0.593974
O5	O	1.165123	-0.388508	0.506179
O6	O	1.345380	-0.338999	0.570746
O7	O	1.214625	-0.438030	0.271324
O8	O	1.115689	-0.208270	0.441705
O9	O	1.345336	-0.438039	0.441664
O10	O	1.214726	-0.208277	0.570769
O11	O	1.115631	-0.338984	0.271342
O12	O	0.984913	-0.338977	0.441644
O13	O	1.115575	-0.438027	0.741003
O14	O	0.984864	-0.438018	0.570663
O15	O	1.214662	-0.338992	0.741049
O16	O	1.214560	-0.568746	0.441604
O17	O	1.115517	-0.568741	0.570640
C18	C	0.955632	-0.388497	0.506150
C19	C	0.866011	-0.388511	0.506162
C20	C	0.537835	-0.388517	0.506207
C21	C	0.629144	-0.388513	0.506191
C22	C	0.701920	-0.388514	0.506184
C23	C	0.793235	-0.388510	0.506170
C24	C	1.165047	-0.597999	0.506135
C25	C	1.165088	-0.687620	0.506152
C26	C	1.165229	-1.015796	0.506261
C27	C	1.165187	-0.924487	0.506234
C28	C	1.165158	-0.851711	0.506206
C29	C	1.165117	-0.760397	0.506179
C30	C	1.375432	-0.388521	0.506209
C31	C	1.465053	-0.388526	0.506222
C32	C	1.165118	-0.388510	0.780213
C33	C	1.165115	-0.388510	0.896989
C34	C	1.165222	-0.178199	0.506246
C35	C	1.165264	-0.088578	0.506275
C36	C	1.113575	-0.336948	1.061590
C37	C	1.113577	-0.336942	0.951866
C38	C	1.216662	-0.440081	0.951842
C39	C	1.216664	-0.440082	1.061564
C40	C	1.084811	-0.241847	0.801944
C41	C	1.033258	-0.190286	0.747096
C42	C	0.954589	-0.177901	0.782704
C43	C	0.927458	-0.217089	0.873159
C44	C	0.979007	-0.268657	0.928002
C45	C	1.057687	-0.281026	0.892396
C46	C	1.245421	-0.535178	1.211488
C47	C	1.296966	-0.586750	1.266333
C48	C	1.375636	-0.599143	1.230727
C49	C	1.402765	-0.559969	1.140268
C50	C	1.351220	-0.508397	1.085423
C51	C	1.272550	-0.496002	1.121037
C52	C	1.165120	-0.388523	1.233212
C53	C	1.165116	-0.388516	1.116435
H54	H	1.071604	-0.294957	1.106264
Br55	Br	1.445588	-0.669146	1.305151
Br56	Br	0.820683	-0.200287	0.921473
Br57	Br	1.070078	-0.137104	0.624339
H58	H	1.258629	-0.482065	0.907152
Br59	Br	1.509532	-0.576794	1.091931
H60	H	1.148872	-0.251918	0.772950
H61	H	1.373315	-0.476499	1.011766
Br62	Br	1.260151	-0.639911	1.389106
Br63	Br	0.884626	-0.107926	0.708264
H64	H	1.181363	-0.525084	1.240494
H65	H	0.956917	-0.300563	1.001649
