data_functionalizedCrystal
_audit_creation_method	'MofGen! by Chris Wilmer'
_symmetry_space_group_name_H-M	'P1'
_symmetry_Int_Tables_number	1
_symmetry_cell_setting	triclinic
loop_
_symmetry_equiv_pos_as_xyz
  x,y,z
_cell_length_a	13.033293
_cell_length_b	16.959454
_cell_length_c	13.032268
_cell_angle_alpha	97.150351
_cell_angle_beta	89.079182
_cell_angle_gamma	97.190068
loop_
_atom_site_label
_atom_site_type_symbol
_atom_site_fract_x
_atom_site_fract_y
_atom_site_fract_z
Zn1	Zn	1.498447	-0.245918	-0.781493
Zn2	Zn	1.520183	-0.359509	-0.609525
Zn3	Zn	1.348307	-0.241744	-0.587669
Zn4	Zn	1.326431	-0.392460	-0.759567
O5	O	1.423342	-0.309908	-0.684563
O6	O	1.645250	-0.248943	-0.777005
O7	O	1.515635	-0.328350	-0.462717
O8	O	1.368282	-0.131684	-0.613409
O9	O	1.661219	-0.332398	-0.650660
O10	O	1.478589	-0.134751	-0.755811
O11	O	1.389359	-0.241829	-0.446659
O12	O	1.201486	-0.273780	-0.592148
O13	O	1.330998	-0.388558	-0.906384
O14	O	1.185414	-0.384511	-0.718441
O15	O	1.457377	-0.280894	-0.922494
O16	O	1.494422	-0.474494	-0.629399
O17	O	1.352074	-0.498703	-0.739634
C18	C	1.156133	-0.332269	-0.650544
C19	C	1.041817	-0.341856	-0.636015
C20	C	0.982937	-0.304924	-0.692146
C21	C	0.864785	-0.314832	-0.677131
C22	C	1.423258	-0.515279	-0.684535
C23	C	1.423312	-0.603134	-0.684569
C24	C	1.349318	-0.987233	-0.741968
C25	C	1.497640	-0.961967	-0.627300
C26	C	1.497605	-0.879423	-0.627286
C27	C	1.423425	-0.850780	-0.684613
C28	C	1.349279	-0.904682	-0.741953
C29	C	1.571743	-0.825515	-0.569939
C30	C	1.571710	-0.742966	-0.569921
C31	C	1.497534	-0.714322	-0.627254
C32	C	1.423386	-0.768229	-0.684598
C33	C	1.349205	-0.739587	-0.741924
C34	C	1.275061	-0.793493	-0.799275
C35	C	1.275102	-0.876038	-0.799286
C36	C	1.497492	-0.631777	-0.627243
C37	C	1.349166	-0.657036	-0.741910
C38	C	1.691594	-0.287460	-0.718716
C39	C	1.805907	-0.277895	-0.733270
C40	C	1.389323	-0.338867	-0.952796
C41	C	1.374826	-0.351208	-1.067101
C42	C	1.423451	-0.103734	-0.684618
C43	C	1.423498	-0.015876	-0.684641
C44	C	1.430892	-0.303440	-1.126033
C45	C	1.415910	-0.316194	-1.244173
C46	C	1.457288	-0.280999	-0.417382
C47	C	1.471985	-0.268419	-0.303103
H48	H	1.020000	-0.265966	-0.751315
H49	H	1.632130	-0.848843	-0.523258
H50	H	1.214737	-0.919935	-0.845976
H51	H	1.558029	-0.985293	-0.580621
C52	C	1.653264	-0.683677	-0.506828
N53	N	1.714691	-0.639019	-0.459305
C54	C	1.336069	-0.384201	-1.294161
N55	N	1.275934	-0.435423	-1.331813
C56	C	1.551824	-0.200409	-1.253117
N57	N	1.611959	-0.149187	-1.215467
C58	C	1.294988	-0.419212	-1.117094
N59	N	1.234853	-0.470434	-1.154746
C60	C	1.267759	-1.046529	-0.805045
N61	N	1.206326	-1.091191	-0.852553
H62	H	1.557855	-0.587890	-0.580544
H63	H	1.489981	-0.253100	-1.089023
H64	H	0.827728	-0.353788	-0.617952
H65	H	0.842965	-0.238933	-0.792442
H66	H	1.004755	-0.380809	-0.576840
H67	H	1.288763	-0.633722	-0.788596
H68	H	1.214658	-0.770162	-0.845945
