data_functionalizedCrystal
_audit_creation_method	'MofGen! by Chris Wilmer'
_symmetry_space_group_name_H-M	'P1'
_symmetry_Int_Tables_number	1
_symmetry_cell_setting	triclinic
loop_
_symmetry_equiv_pos_as_xyz
  x,y,z
_cell_length_a	16.625547
_cell_length_b	18.101397
_cell_length_c	16.625539
_cell_angle_alpha	89.968146
_cell_angle_beta	89.975178
_cell_angle_gamma	90.020402
loop_
_atom_site_label
_atom_site_type_symbol
_atom_site_fract_x
_atom_site_fract_y
_atom_site_fract_z
Zn1	Zn	1.232692	-0.294829	-0.455981
Zn2	Zn	1.732692	0.205171	0.044019
Zn3	Zn	1.232600	-0.418678	-0.321140
Zn4	Zn	1.732600	0.081322	0.178860
Zn5	Zn	1.097854	-0.294855	-0.321151
Zn6	Zn	1.597854	0.205145	0.178849
Zn7	Zn	1.097829	-0.418634	-0.455920
Zn8	Zn	1.597829	0.081366	0.044080
O9	O	1.165243	-0.356749	-0.388548
O10	O	1.665243	0.143251	0.111452
O11	O	1.345512	-0.311266	-0.438115
O12	O	1.845512	0.188734	0.061885
O13	O	1.214697	-0.402283	-0.208309
O14	O	1.714697	0.097717	0.291691
O15	O	1.115789	-0.191219	-0.339067
O16	O	1.615789	0.308781	0.160933
O17	O	1.345444	-0.402258	-0.339048
O18	O	1.845444	0.097742	0.160952
O19	O	1.214854	-0.191200	-0.438126
O20	O	1.714854	0.308800	0.061874
O21	O	1.115700	-0.311310	-0.208317
O22	O	1.615700	0.188690	0.291683
O23	O	0.985018	-0.311267	-0.339008
O24	O	1.485018	0.188733	0.160992
O25	O	1.115747	-0.402181	-0.568760
O26	O	1.615747	0.097819	-0.068760
O27	O	0.985000	-0.402206	-0.438022
O28	O	1.485000	0.097794	0.061978
O29	O	1.214830	-0.311223	-0.568805
O30	O	1.714830	0.188777	-0.068805
O31	O	1.214673	-0.522305	-0.338988
O32	O	1.714673	-0.022305	0.161012
O33	O	1.115657	-0.522272	-0.438010
O34	O	1.615657	-0.022272	0.061990
C35	C	0.955753	-0.356735	-0.388510
C36	C	1.455753	0.143265	0.111490
C37	C	0.866131	-0.356746	-0.388513
C38	C	1.366131	0.143254	0.111487
C39	C	0.793349	-0.356748	-0.388523
C40	C	1.293349	0.143252	0.111477
C41	C	0.702041	-0.356752	-0.388543
C42	C	1.202041	0.143248	0.111457
C43	C	0.629264	-0.356759	-0.388563
C44	C	1.129264	0.143241	0.111437
C45	C	0.537950	-0.356764	-0.388583
C46	C	1.037950	0.143236	0.111417
C47	C	1.165174	-0.549160	-0.388509
C48	C	1.665174	-0.049160	0.111491
C49	C	1.165219	-0.631474	-0.388519
C50	C	1.665219	-0.131474	0.111481
C51	C	1.165322	-0.930565	-0.388593
C52	C	1.665322	-0.430565	0.111407
C53	C	1.227446	-0.899230	-0.326124
C54	C	1.727446	-0.399230	0.173876
C55	C	1.227661	-0.813611	-0.326286
C56	C	1.727661	-0.313611	0.173714
C57	C	1.165271	-0.782182	-0.388556
C58	C	1.665271	-0.282182	0.111444
C59	C	1.188307	-0.813188	-0.473547
C60	C	1.688307	-0.313188	0.026453
C61	C	1.188788	-0.898833	-0.473207
C62	C	1.688788	-0.398833	0.026793
C63	C	1.079995	-0.899074	-0.366805
C64	C	1.579995	-0.399074	0.133195
C65	C	1.080417	-0.813425	-0.364908
C66	C	1.580417	-0.313425	0.135092
C67	C	1.165240	-0.698323	-0.388540
C68	C	1.665240	-0.198323	0.111460
C69	C	1.165354	-1.014424	-0.388614
C70	C	1.665354	-0.514424	0.111386
C71	C	1.375552	-0.356764	-0.388587
C72	C	1.875552	0.143236	0.111413
C73	C	1.465173	-0.356771	-0.388603
C74	C	1.965173	0.143229	0.111397
C75	C	1.165296	-0.356694	-0.598857
C76	C	1.665296	0.143306	-0.098857
C77	C	1.165318	-0.356670	-0.688478
C78	C	1.665318	0.143330	-0.188478
C79	C	1.165335	-0.163587	-0.388605
C80	C	1.665335	0.336413	0.111395
C81	C	1.165373	-0.081273	-0.388629
C82	C	1.665373	0.418727	0.111371
C83	C	1.165355	-0.356588	-1.016654
C84	C	1.665355	0.143412	-0.516654
C85	C	1.165343	-0.356613	-0.925346
C86	C	1.665343	0.143387	-0.425346
C87	C	1.165337	-0.356630	-0.852569
C88	C	1.665337	0.143370	-0.352569
C89	C	1.165324	-0.356654	-0.761255
C90	C	1.665324	0.143346	-0.261255
C91	C	1.165238	-0.356751	-0.179057
C92	C	1.665238	0.143249	0.320943
C93	C	1.165371	-0.356566	-0.089437
C94	C	1.665371	0.143434	0.410563
H95	H	1.213249	-0.792651	-0.263266
H96	H	1.713249	-0.292651	0.236734
H97	H	1.031640	-0.792038	-0.407075
H98	H	1.531640	-0.292038	0.092925
O99	O	1.210374	-0.923949	-0.250770
O100	O	1.710374	-0.423949	0.249230
C101	C	1.141957	-0.969929	-0.253394
C102	C	1.641957	-0.469929	0.246606
H103	H	1.134623	-0.993180	-0.316678
H104	H	1.634623	-0.493180	0.183322
H105	H	1.086306	-0.936470	-0.236758
H106	H	1.586306	-0.436470	0.263242
C107	C	1.161309	-1.005389	-0.115517
C108	C	1.661309	-0.505389	0.384483
C109	C	1.152306	-1.033951	-0.193243
C110	C	1.652306	-0.533951	0.306757
H111	H	1.167690	-1.044879	-0.078412
H112	H	1.667690	-0.544879	0.421588
H113	H	1.207402	-0.974409	-0.113748
H114	H	1.707402	-0.474409	0.386252
H115	H	1.114932	-0.977507	-0.101666
H116	H	1.614932	-0.477507	0.398334
H117	H	1.198687	-1.061825	-0.207098
H118	H	1.698687	-0.561825	0.292902
H119	H	1.106221	-1.064937	-0.195013
H120	H	1.606221	-0.564937	0.304987
H121	H	1.145521	-0.919558	-0.521356
H122	H	1.645521	-0.419558	-0.021356
H123	H	1.251157	-0.918751	-0.491662
H124	H	1.751157	-0.418751	0.008338
O125	O	1.136021	-0.789010	-0.530664
O126	O	1.636021	-0.289010	-0.030664
C127	C	1.158457	-0.817855	-0.606167
C128	C	1.658457	-0.317855	-0.106167
H129	H	1.195719	-0.870052	-0.597099
H130	H	1.695719	-0.370052	-0.097099
H131	H	1.195631	-0.775108	-0.640199
H132	H	1.695631	-0.275108	-0.140199
C133	C	1.036646	-0.772489	-0.666059
C134	C	1.536646	-0.272489	-0.166059
C135	C	1.082406	-0.836601	-0.654921
C136	C	1.582406	-0.336601	-0.154921
H137	H	0.989736	-0.784050	-0.696135
H138	H	1.489736	-0.284050	-0.196135
H139	H	1.021531	-0.753053	-0.615192
H140	H	1.521531	-0.253053	-0.115192
H141	H	1.067634	-0.736873	-0.694416
H142	H	1.567634	-0.236873	-0.194416
H143	H	1.051422	-0.872212	-0.626556
H144	H	1.551422	-0.372212	-0.126556
H145	H	1.097514	-0.856044	-0.705784
H146	H	1.597514	-0.356044	-0.205784
H147	H	1.290305	-0.920697	-0.340374
H148	H	1.790305	-0.420697	0.159626
H149	H	1.059039	-0.920736	-0.305904
H150	H	1.559039	-0.420736	0.194096
H151	H	1.290866	-0.793067	-0.340701
H152	H	1.790866	-0.293067	0.159299
O153	O	1.261947	-0.787624	-0.495841
O154	O	1.761947	-0.287624	0.004159
C155	C	1.319904	-0.810592	-0.439226
C156	C	1.819904	-0.310592	0.060774
H157	H	1.297057	-0.861631	-0.406133
H158	H	1.797057	-0.361631	0.093867
H159	H	1.331082	-0.764265	-0.394166
H160	H	1.831082	-0.264265	0.105834
C161	C	1.427039	-0.766628	-0.523599
C162	C	1.927039	-0.266628	-0.023599
C163	C	1.398979	-0.829320	-0.482959
C164	C	1.898979	-0.329320	0.017041
H165	H	1.475817	-0.778177	-0.550574
H166	H	1.975817	-0.278177	-0.050574
H167	H	1.387992	-0.751151	-0.561741
H168	H	1.887992	-0.251151	-0.061741
H169	H	1.436347	-0.728028	-0.486042
H170	H	1.936347	-0.228028	0.013958
H171	H	1.389662	-0.867915	-0.520517
H172	H	1.889662	-0.367915	-0.020517
H173	H	1.438026	-0.844803	-0.444824
H174	H	1.938026	-0.344803	0.055176
O175	O	1.024673	-0.923160	-0.421027
O176	O	1.524673	-0.423160	0.078973
C177	C	0.948389	-0.894606	-0.400900
C178	C	1.448389	-0.394606	0.099100
H179	H	0.956072	-0.842546	-0.363118
H180	H	1.456072	-0.342546	0.136882
H181	H	0.913325	-0.937598	-0.365044
H182	H	1.413325	-0.437598	0.134956
C183	C	0.892610	-0.939604	-0.524793
C184	C	1.392610	-0.439604	-0.024793
C185	C	0.902047	-0.875660	-0.478394
C186	C	1.402047	-0.375660	0.021606
H187	H	0.864022	-0.927920	-0.572594
H188	H	1.364022	-0.427920	-0.072594
H189	H	0.944003	-0.958844	-0.538353
H190	H	1.444003	-0.458844	-0.038353
H191	H	0.863392	-0.975425	-0.494904
H192	H	1.363392	-0.475425	0.005096
H193	H	0.931272	-0.839844	-0.508280
H194	H	1.431272	-0.339844	-0.008280
H195	H	0.850657	-0.856413	-0.464841
H196	H	1.350657	-0.356413	0.035159
O197	O	1.059794	-0.789164	-0.290299
O198	O	1.559794	-0.289164	0.209701
C199	C	1.121811	-0.744170	-0.259561
C200	C	1.621811	-0.244170	0.240439
H201	H	1.158787	-0.720858	-0.311464
H202	H	1.658787	-0.220858	0.188536
H203	H	1.162314	-0.778473	-0.218745
H204	H	1.662314	-0.278473	0.281255
C205	C	1.039480	-0.708805	-0.147258
C206	C	1.539480	-0.208805	0.352742
C207	C	1.084891	-0.680168	-0.211007
C208	C	1.584891	-0.180168	0.288993
H209	H	1.016708	-0.669328	-0.117305
H210	H	1.516708	-0.169328	0.382695
H211	H	0.997699	-0.739121	-0.167965
H212	H	1.497699	-0.239121	0.332035
H213	H	1.073240	-0.737391	-0.113254
H214	H	1.573240	-0.237391	0.386746
H215	H	1.051130	-0.651591	-0.245015
H216	H	1.551130	-0.151591	0.254985
H217	H	1.126666	-0.649846	-0.190305
H218	H	1.626666	-0.149846	0.309695
