data_functionalizedCrystal
_audit_creation_method	'MofGen! by Chris Wilmer'
_symmetry_space_group_name_H-M	'P1'
_symmetry_Int_Tables_number	1
_symmetry_cell_setting	triclinic
loop_
_symmetry_equiv_pos_as_xyz
  x,y,z
_cell_length_a	16.120530
_cell_length_b	16.120484
_cell_length_c	12.827885
_cell_angle_alpha	87.136072
_cell_angle_beta	92.918515
_cell_angle_gamma	90.167327
loop_
_atom_site_label
_atom_site_type_symbol
_atom_site_fract_x
_atom_site_fract_y
_atom_site_fract_z
Zn1	Zn	1.254490	-0.395557	0.695632
Zn2	Zn	1.247329	-0.534629	0.529257
Zn3	Zn	1.115425	-0.388537	0.511626
Zn4	Zn	1.108342	-0.527510	0.694676
O5	O	1.181397	-0.461558	0.607798
O6	O	1.369906	-0.419922	0.681341
O7	O	1.229800	-0.515291	0.380683
O8	O	1.139834	-0.273106	0.529056
O9	O	1.364645	-0.522098	0.559106
O10	O	1.242004	-0.278263	0.664245
O11	O	1.132890	-0.407958	0.367729
O12	O	0.998120	-0.401055	0.528129
O13	O	1.127762	-0.509965	0.841038
O14	O	0.992916	-0.503158	0.662615
O15	O	1.235136	-0.413020	0.841741
O16	O	1.222931	-0.650047	0.558179
O17	O	1.120818	-0.644817	0.679712
C18	C	1.170352	-0.677605	0.620779
C19	C	1.165703	-0.770034	0.626373
C20	C	0.965346	-0.450573	0.593356
C21	C	0.872917	-0.445894	0.587203
C22	C	0.703690	-0.437331	0.575978
C23	C	0.659941	-0.485847	0.639698
C24	C	0.565777	-0.481083	0.633452
C25	C	0.797862	-0.442094	0.582222
C26	C	1.157220	-0.939265	0.636607
C27	C	1.205723	-0.983019	0.579016
C28	C	1.201003	-1.077185	0.584710
C29	C	1.161939	-0.845090	0.630914
C30	C	1.398291	-0.472587	0.622297
C31	C	1.490719	-0.477287	0.628476
C32	C	1.181458	-0.461481	0.880367
C33	C	1.181483	-0.461449	0.996520
C34	C	1.192508	-0.244669	0.594790
C35	C	1.197243	-0.152244	0.589247
C36	C	1.181387	-0.461577	0.336289
C37	C	1.181535	-0.461384	0.220133
C38	C	1.234622	-0.413467	1.048652
C39	C	1.234649	-0.413432	1.168702
H40	H	0.693206	-0.530960	0.698941
H41	H	0.670427	-0.392221	0.516740
C42	C	1.296053	-0.358002	0.988885
N43	N	1.342326	-0.316224	0.943869
H44	H	1.250793	-0.949758	0.525434
C45	C	1.096327	-0.984196	0.708977
N46	N	1.050460	-1.018048	0.763480
H47	H	1.136042	-0.502468	1.175309
C48	C	1.296110	-0.357932	1.229263
N49	N	1.342402	-0.316126	1.274881
C50	C	1.120046	-0.516908	1.056286
N51	N	1.073770	-0.558681	1.101301
