data_functionalizedCrystal
_audit_creation_method	'MofGen! by Chris Wilmer'
_symmetry_space_group_name_H-M	'P1'
_symmetry_Int_Tables_number	1
_symmetry_cell_setting	triclinic
loop_
_symmetry_equiv_pos_as_xyz
  x,y,z
_cell_length_a	16.625548
_cell_length_b	12.759399
_cell_length_c	12.759393
_cell_angle_alpha	89.969094
_cell_angle_beta	90.022725
_cell_angle_gamma	89.983816
loop_
_atom_site_label
_atom_site_type_symbol
_atom_site_fract_x
_atom_site_fract_y
_atom_site_fract_z
Zn1	Zn	1.232739	0.418185	0.594067
Zn2	Zn	1.732739	0.918185	1.094067
Zn3	Zn	1.232654	0.593901	0.418386
Zn4	Zn	1.732654	1.093901	0.918386
Zn5	Zn	1.097896	0.418240	0.418397
Zn6	Zn	1.597896	0.918240	0.918397
Zn7	Zn	1.097888	0.593826	0.594018
Zn8	Zn	1.597888	1.093826	1.094018
O9	O	1.165294	0.506038	0.506217
O10	O	1.665294	1.006038	1.006217
O11	O	1.345560	0.441503	0.570779
O12	O	1.845560	0.941503	1.070779
O13	O	1.214746	0.570653	0.271366
O14	O	1.714746	1.070653	0.771366
O15	O	1.115821	0.271212	0.441725
O16	O	1.615821	0.771212	0.941725
O17	O	1.345498	0.570601	0.441707
O18	O	1.845498	1.070601	0.941707
O19	O	1.214890	0.271172	0.570789
O20	O	1.714890	0.771172	1.070789
O21	O	1.115739	0.441596	0.271374
O22	O	1.615739	0.941596	0.771374
O23	O	0.985062	0.441523	0.441677
O24	O	1.485062	0.941523	0.941677
O25	O	1.115809	0.570473	0.741046
O26	O	1.615809	1.070473	1.241046
O27	O	0.985057	0.570526	0.570705
O28	O	1.485057	1.070526	1.070705
O29	O	1.214883	0.441431	0.741082
O30	O	1.714883	0.941431	1.241082
O31	O	1.214739	0.740912	0.441659
O32	O	1.714739	1.240912	0.941659
O33	O	1.115727	0.740857	0.570695
O34	O	1.615727	1.240857	1.070695
C35	C	0.955803	0.506023	0.506188
C36	C	1.455803	1.006023	1.006188
C37	C	0.866182	0.506042	0.506200
C38	C	1.366182	1.006042	1.006200
C39	C	1.165355	0.505937	0.780250
C40	C	1.665355	1.005937	1.280250
C41	C	1.165380	0.505894	0.897027
C42	C	1.665380	1.005894	1.397027
C43	C	1.165245	0.779006	0.506193
C44	C	1.665245	1.279006	1.006193
C45	C	1.165297	0.895782	0.506218
C46	C	1.665297	1.395782	1.006218
C47	C	0.538007	0.506049	0.506245
C48	C	1.038007	1.006049	1.006245
C49	C	0.629315	0.506044	0.506229
C50	C	1.129315	1.006044	1.006229
C51	C	0.702092	0.506046	0.506222
C52	C	1.202092	1.006046	1.006222
C53	C	0.793406	0.506040	0.506207
C54	C	1.293406	1.006040	1.006207
C55	C	1.375603	0.506054	0.506247
C56	C	1.875603	1.006054	1.006247
C57	C	1.465224	0.506061	0.506260
C58	C	1.965224	1.006061	1.006260
C59	C	1.165366	0.232005	0.506264
C60	C	1.665366	0.732005	1.006264
C61	C	1.165396	0.115228	0.506284
C62	C	1.665396	0.615228	1.006284
C63	C	1.216912	0.950638	0.439105
C64	C	1.716912	1.450638	0.939105
C65	C	1.216964	1.060362	0.439141
C66	C	1.716964	1.560362	0.939141
C67	C	1.113780	1.060365	0.573404
C68	C	1.613780	1.560365	1.073404
C69	C	1.113733	0.950643	0.573373
C70	C	1.613733	1.450643	1.073373
C71	C	1.165281	0.506063	0.233250
C72	C	1.665281	1.006063	0.733250
C73	C	1.165411	0.505810	0.116474
C74	C	1.665411	1.005810	0.616474
C75	C	1.216972	0.438691	0.951910
C76	C	1.716972	0.938691	1.451910
C77	C	1.216986	0.438646	1.061634
C78	C	1.716986	0.938646	1.561634
C79	C	1.113814	0.573016	1.061583
C80	C	1.613814	1.073016	1.561583
C81	C	1.113797	0.573055	0.951861
C82	C	1.613797	1.073055	1.451861
H83	H	1.258900	0.905973	0.384425
H84	H	1.758900	1.405973	0.884425
H85	H	1.071818	0.627698	1.106242
H86	H	1.571818	1.127698	1.606242
H87	H	1.258973	0.384002	0.907267
H88	H	1.758973	0.884002	1.407267
H89	H	1.258994	1.105020	0.384492
H90	H	1.758994	1.605020	0.884492
H91	H	1.071796	1.105046	0.628078
H92	H	1.571796	1.605046	1.128078
H93	H	1.071702	0.905976	0.628029
H94	H	1.571702	1.405976	1.128029
H95	H	1.258995	0.383921	1.106314
H96	H	1.758995	0.883921	1.606314
H97	H	1.071779	0.627779	0.907175
H98	H	1.571779	1.127779	1.407175
