data_functionalizedCrystal
_audit_creation_method	'MofGen! by Chris Wilmer'
_symmetry_space_group_name_H-M	'P1'
_symmetry_Int_Tables_number	1
_symmetry_cell_setting	triclinic
loop_
_symmetry_equiv_pos_as_xyz
  x,y,z
_cell_length_a	18.101398
_cell_length_b	18.101397
_cell_length_c	18.101390
_cell_angle_alpha	90.035542
_cell_angle_beta	90.010099
_cell_angle_gamma	90.016023
loop_
_atom_site_label
_atom_site_type_symbol
_atom_site_fract_x
_atom_site_fract_y
_atom_site_fract_z
Zn1	Zn	1.132178	-0.294889	0.418537
Zn2	Zn	1.382178	-0.044889	0.668537
Zn3	Zn	1.632178	0.205111	0.918537
Zn4	Zn	1.882178	0.455111	1.168537
Zn5	Zn	1.132096	-0.418746	0.294690
Zn6	Zn	1.382096	-0.168746	0.544690
Zn7	Zn	1.632096	0.081254	0.794690
Zn8	Zn	1.882096	0.331254	1.044690
Zn9	Zn	1.008336	-0.294913	0.294730
Zn10	Zn	1.258336	-0.044913	0.544730
Zn11	Zn	1.508336	0.205087	0.794730
Zn12	Zn	1.758336	0.455087	1.044730
Zn13	Zn	1.008311	-0.418684	0.418510
Zn14	Zn	1.258311	-0.168684	0.668510
Zn15	Zn	1.508311	0.081316	0.918510
Zn16	Zn	1.758311	0.331316	1.168510
O17	O	1.070231	-0.356808	0.356617
O18	O	1.320231	-0.106808	0.606617
O19	O	1.570231	0.143192	0.856617
O20	O	1.820231	0.393192	1.106617
O21	O	1.235800	-0.311335	0.402103
O22	O	1.485800	-0.061335	0.652103
O23	O	1.735800	0.188665	0.902103
O24	O	1.985800	0.438665	1.152103
O25	O	1.115656	-0.402356	0.191062
O26	O	1.365656	-0.152356	0.441062
O27	O	1.615656	0.097644	0.691062
O28	O	1.865656	0.347644	0.941062
O29	O	1.024809	-0.191277	0.311181
O30	O	1.274809	0.058723	0.561181
O31	O	1.524809	0.308723	0.811181
O32	O	1.774809	0.558723	1.061181
O33	O	1.235740	-0.402332	0.311113
O34	O	1.485740	-0.152332	0.561113
O35	O	1.735740	0.097668	0.811113
O36	O	1.985740	0.347668	1.061113
O37	O	1.115795	-0.191260	0.402142
O38	O	1.365795	0.058740	0.652142
O39	O	1.615795	0.308740	0.902142
O40	O	1.865795	0.558740	1.152142
O41	O	1.024730	-0.311376	0.191092
O42	O	1.274730	-0.061376	0.441092
O43	O	1.524730	0.188624	0.691092
O44	O	1.774730	0.438624	0.941092
O45	O	0.904700	-0.311316	0.311155
O46	O	1.154700	-0.061316	0.561155
O47	O	1.404700	0.188684	0.811155
O48	O	1.654700	0.438684	1.061155
O49	O	1.024766	-0.402226	0.522147
O50	O	1.274766	-0.152226	0.772147
O51	O	1.524766	0.097774	1.022147
O52	O	1.774766	0.347774	1.272147
O53	O	0.904681	-0.402249	0.402096
O54	O	1.154681	-0.152249	0.652096
O55	O	1.404681	0.097751	0.902096
O56	O	1.654681	0.347751	1.152096
O57	O	1.115771	-0.311275	0.522166
O58	O	1.365771	-0.061275	0.772166
O59	O	1.615771	0.188725	1.022166
O60	O	1.865771	0.438725	1.272166
O61	O	1.115631	-0.522371	0.311087
O62	O	1.365631	-0.272371	0.561087
O63	O	1.615631	-0.022371	0.811087
O64	O	1.865631	0.227629	1.061087
O65	O	1.024686	-0.522325	0.402057
O66	O	1.274686	-0.272325	0.652057
O67	O	1.524686	-0.022325	0.902057
O68	O	1.774686	0.227675	1.152057
C69	C	0.877820	-0.356779	0.356627
C70	C	1.127820	-0.106779	0.606627
C71	C	1.377820	0.143221	0.856627
C72	C	1.627820	0.393221	1.106627
C73	C	0.795506	-0.356784	0.356649
C74	C	1.045506	-0.106784	0.606649
C75	C	1.295506	0.143216	0.856649
C76	C	1.545506	0.393216	1.106649
C77	C	0.496415	-0.356828	0.356618
C78	C	0.746415	-0.106828	0.606618
C79	C	0.996415	0.143172	0.856618
C80	C	1.246415	0.393172	1.106618
C81	C	0.527753	-0.414318	0.413553
C82	C	0.777753	-0.164318	0.663553
C83	C	1.027753	0.085682	0.913553
C84	C	1.277753	0.335682	1.163553
C85	C	0.613371	-0.414138	0.413787
C86	C	0.863371	-0.164138	0.663787
C87	C	1.113371	0.085862	0.913787
C88	C	1.363371	0.335862	1.163787
C89	C	0.644797	-0.356807	0.356633
C90	C	0.894797	-0.106807	0.606633
C91	C	1.144797	0.143193	0.856633
C92	C	1.394797	0.393193	1.106633
C93	C	0.613729	-0.278803	0.377965
C94	C	0.863729	-0.028803	0.627965
C95	C	1.113729	0.221197	0.877965
C96	C	1.363729	0.471197	1.127965
C97	C	0.528084	-0.279148	0.378370
C98	C	0.778084	-0.029148	0.628370
C99	C	1.028084	0.220852	0.878370
C100	C	1.278084	0.470852	1.128370
C101	C	0.527966	-0.376655	0.278214
C102	C	0.777966	-0.126655	0.528214
C103	C	1.027966	0.123345	0.778214
C104	C	1.277966	0.373345	1.028214
C105	C	0.613616	-0.378366	0.278633
C106	C	0.863616	-0.128366	0.528633
C107	C	1.113616	0.121634	0.778633
C108	C	1.363616	0.371634	1.028633
C109	C	0.728657	-0.356790	0.356641
C110	C	0.978657	-0.106790	0.606641
C111	C	1.228657	0.143210	0.856641
C112	C	1.478657	0.393210	1.106641
C113	C	0.412555	-0.356839	0.356612
C114	C	0.662555	-0.106839	0.606612
C115	C	0.912555	0.143161	0.856612
C116	C	1.162555	0.393161	1.106612
C117	C	1.070167	-0.549219	0.356581
C118	C	1.320167	-0.299219	0.606581
C119	C	1.570167	-0.049219	0.856581
C120	C	1.820167	0.200781	1.106581
C121	C	1.070208	-0.631533	0.356590
C122	C	1.320208	-0.381533	0.606590
C123	C	1.570208	-0.131533	0.856590
C124	C	1.820208	0.118467	1.106590
C125	C	1.070302	-0.930624	0.356658
C126	C	1.320302	-0.680624	0.606658
C127	C	1.570302	-0.430624	0.856658
C128	C	1.820302	-0.180624	1.106658
C129	C	1.127363	-0.899297	0.299269
C130	C	1.377363	-0.649297	0.549269
C131	C	1.627363	-0.399297	0.799269
C132	C	1.877363	-0.149297	1.049269
C133	C	1.127560	-0.813678	0.299417
C134	C	1.377560	-0.563678	0.549417
C135	C	1.627560	-0.313678	0.799417
C136	C	1.877560	-0.063678	1.049417
C137	C	1.070255	-0.782241	0.356624
C138	C	1.320255	-0.532241	0.606624
C139	C	1.570255	-0.282241	0.856624
C140	C	1.820255	-0.032241	1.106624
C141	C	1.091412	-0.813243	0.434681
C142	C	1.341412	-0.563243	0.684681
C143	C	1.591412	-0.313243	0.934681
C144	C	1.841412	-0.063243	1.184681
C145	C	1.091853	-0.898888	0.434368
C146	C	1.341853	-0.648888	0.684368
C147	C	1.591853	-0.398888	0.934368
C148	C	1.841853	-0.148888	1.184368
C149	C	0.991933	-0.899128	0.336665
C150	C	1.241933	-0.649128	0.586665
C151	C	1.491933	-0.399128	0.836665
C152	C	1.741933	-0.149128	1.086665
C153	C	0.992320	-0.813479	0.334923
C154	C	1.242320	-0.563479	0.584923
C155	C	1.492320	-0.313479	0.834923
C156	C	1.742320	-0.063479	1.084923
C157	C	1.070228	-0.698382	0.356609
C158	C	1.320228	-0.448382	0.606609
C159	C	1.570228	-0.198382	0.856609
C160	C	1.820228	0.051618	1.106609
C161	C	1.070332	-1.014483	0.356677
C162	C	1.320332	-0.764483	0.606677
C163	C	1.570332	-0.514483	0.856677
C164	C	1.820332	-0.264483	1.106677
C165	C	1.263392	-0.356838	0.356607
C166	C	1.513392	-0.106838	0.606607
C167	C	1.763392	0.143162	0.856607
C168	C	2.013392	0.393162	1.106607
C169	C	1.345706	-0.356851	0.356602
C170	C	1.595706	-0.106851	0.606602
C171	C	1.845706	0.143149	0.856602
C172	C	2.095706	0.393149	1.106602
C173	C	1.070275	-0.356741	0.549779
C174	C	1.320275	-0.106741	0.799779
C175	C	1.570275	0.143259	1.049779
C176	C	1.820275	0.393259	1.299779
C177	C	1.070293	-0.356712	0.632093
C178	C	1.320293	-0.106712	0.882093
C179	C	1.570293	0.143288	1.132093
C180	C	1.820293	0.393288	1.382093
C181	C	1.070314	-0.163646	0.356669
C182	C	1.320314	0.086354	0.606669
C183	C	1.570314	0.336354	0.856669
C184	C	1.820314	0.586354	1.106669
C185	C	1.070350	-0.081332	0.356691
C186	C	1.320350	0.168668	0.606691
C187	C	1.570350	0.418668	0.856691
C188	C	1.820350	0.668668	1.106691
C189	C	1.070229	-0.356822	0.164206
C190	C	1.320229	-0.106822	0.414206
C191	C	1.570229	0.143178	0.664206
C192	C	1.820229	0.393178	0.914206
C193	C	1.070354	-0.356642	0.081892
C194	C	1.320354	-0.106642	0.331892
C195	C	1.570354	0.143358	0.581892
C196	C	1.820354	0.393358	0.831892
C197	C	1.070333	-0.356666	0.931184
C198	C	1.320333	-0.106666	1.181184
C199	C	1.570333	0.143334	1.431184
C200	C	1.820333	0.393334	1.681184
C201	C	1.127779	-0.299643	0.899871
C202	C	1.377779	-0.049643	1.149871
C203	C	1.627779	0.200357	1.399871
C204	C	1.877779	0.450357	1.649871
C205	C	1.127600	-0.299431	0.814253
C206	C	1.377600	-0.049431	1.064253
C207	C	1.627600	0.200569	1.314253
C208	C	1.877600	0.450569	1.564253
C209	C	1.070314	-0.356688	0.782801
C210	C	1.320314	-0.106688	1.032801
C211	C	1.570314	0.143312	1.282801
C212	C	1.820314	0.393312	1.532801
C213	C	0.992293	-0.335479	0.813889
C214	C	1.242293	-0.085479	1.063889
C215	C	1.492293	0.164521	1.313889
C216	C	1.742293	0.414521	1.563889
C217	C	0.992637	-0.335052	0.899534
C218	C	1.242637	-0.085052	1.149534
C219	C	1.492637	0.164948	1.399534
C220	C	1.742637	0.414948	1.649534
C221	C	1.090220	-0.435044	0.899589
C222	C	1.340220	-0.185044	1.149589
C223	C	1.590220	0.064956	1.399589
C224	C	1.840220	0.314956	1.649589
C225	C	1.091933	-0.434645	0.813939
C226	C	1.341933	-0.184645	1.063939
C227	C	1.591933	0.065355	1.313939
C228	C	1.841933	0.315355	1.563939
C229	C	1.070298	-0.356703	0.698942
C230	C	1.320298	-0.106703	0.948942
C231	C	1.570298	0.143297	1.198942
C232	C	1.820298	0.393297	1.448942
C233	C	1.070344	-0.356650	1.015043
C234	C	1.320344	-0.106650	1.265043
C235	C	1.570344	0.143350	1.515043
C236	C	1.820344	0.393350	1.765043
H237	H	0.507353	-0.234779	0.338802
H238	H	0.757353	0.015221	0.588802
H239	H	1.007353	0.265221	0.838802
H240	H	1.257353	0.515221	1.088802
H241	H	1.051123	-0.792877	0.478590
H242	H	1.301123	-0.542877	0.728590
H243	H	1.551123	-0.292877	0.978590
H244	H	1.801123	-0.042877	1.228590
H245	H	1.114435	-0.241367	0.793785
H246	H	1.364435	0.008633	1.043785
H247	H	1.614435	0.258633	1.293785
H248	H	1.864435	0.508633	1.543785
H249	H	0.948379	-0.374777	0.920247
H250	H	1.198379	-0.124777	1.170247
H251	H	1.448379	0.125223	1.420247
H252	H	1.698379	0.375223	1.670247
H253	H	1.052114	-0.919608	0.478601
H254	H	1.302114	-0.669608	0.728601
H255	H	1.552114	-0.419608	0.978601
H256	H	1.802114	-0.169608	1.228601
H257	H	0.975129	-0.278821	0.792456
H258	H	1.225129	-0.028821	1.042456
H259	H	1.475129	0.221179	1.292456
H260	H	1.725129	0.471179	1.542456
H261	H	1.149349	-0.450638	0.793619
H262	H	1.399349	-0.200638	1.043619
H263	H	1.649349	0.049362	1.293619
H264	H	1.899349	0.299362	1.543619
Cl265	Cl	0.923148	-0.780454	0.394734
Cl266	Cl	1.173148	-0.530454	0.644734
Cl267	Cl	1.423148	-0.280454	0.894734
Cl268	Cl	1.673148	-0.030454	1.144734
H269	H	1.146116	-0.454356	0.921223
H270	H	1.396116	-0.204356	1.171223
H271	H	1.646116	0.045644	1.421223
H272	H	1.896116	0.295644	1.671223
Cl273	Cl	1.216925	-0.319926	0.781799
Cl274	Cl	1.466925	-0.069926	1.031799
Cl275	Cl	1.716925	0.180074	1.281799
Cl276	Cl	1.966925	0.430074	1.531799
H277	H	1.185822	-0.312761	0.920463
H278	H	1.435822	-0.062761	1.170463
H279	H	1.685822	0.187239	1.420463
H280	H	1.935822	0.437239	1.670463
H281	H	0.507148	-0.472351	0.400333
H282	H	0.757148	-0.222351	0.650333
H283	H	1.007148	0.027649	0.900333
H284	H	1.257148	0.277649	1.150333
Cl285	Cl	0.645158	-0.210873	0.315943
Cl286	Cl	0.895158	0.039127	0.565943
Cl287	Cl	1.145158	0.289127	0.815943
Cl288	Cl	1.395158	0.539127	1.065943
H289	H	1.053135	-0.479414	0.792526
H290	H	1.303135	-0.229414	1.042526
H291	H	1.553135	0.020586	1.292526
H292	H	1.803135	0.270586	1.542526
H293	H	0.976368	-0.793224	0.277479
H294	H	1.226368	-0.543224	0.527479
H295	H	1.476368	-0.293224	0.777479
H296	H	1.726368	-0.043224	1.027479
H297	H	0.635008	-0.339534	0.233934
H298	H	0.885008	-0.089534	0.483934
H299	H	1.135008	0.160466	0.733934
H300	H	1.385008	0.410466	0.983934
H301	H	0.975780	-0.277757	0.919530
H302	H	1.225780	-0.027757	1.169530
H303	H	1.475780	0.222243	1.419530
H304	H	1.725780	0.472243	1.669530
Cl305	Cl	0.924414	-0.397631	0.782443
Cl306	Cl	1.174414	-0.147631	1.032443
Cl307	Cl	1.424414	0.102369	1.282443
Cl308	Cl	1.674414	0.352369	1.532443
Cl309	Cl	1.107077	-0.781318	0.210068
Cl310	Cl	1.357077	-0.531318	0.460068
Cl311	Cl	1.607077	-0.281318	0.710068
Cl312	Cl	1.857077	-0.031318	0.960068
Cl313	Cl	0.646860	-0.252370	0.465496
Cl314	Cl	0.896860	-0.002370	0.715496
Cl315	Cl	1.146860	0.247630	0.965496
Cl316	Cl	1.396860	0.497630	1.215496
Cl317	Cl	0.496674	-0.312006	0.212717
Cl318	Cl	0.746674	-0.062006	0.462717
Cl319	Cl	0.996674	0.187994	0.712717
Cl320	Cl	1.246674	0.437994	0.962717
Cl321	Cl	1.216502	-0.932442	0.319454
Cl322	Cl	1.466502	-0.682442	0.569454
Cl323	Cl	1.716502	-0.432442	0.819454
Cl324	Cl	1.966502	-0.182442	1.069454
H325	H	0.508120	-0.262333	0.435686
H326	H	0.758120	-0.012333	0.685686
H327	H	1.008120	0.237667	0.935686
H328	H	1.258120	0.487667	1.185686
H329	H	1.148055	-0.791739	0.451904
H330	H	1.398055	-0.541739	0.701904
H331	H	1.648055	-0.291739	0.951904
H332	H	1.898055	-0.041739	1.201904
H333	H	1.185612	-0.793138	0.312644
H334	H	1.435612	-0.543138	0.562644
H335	H	1.685612	-0.293138	0.812644
H336	H	1.935612	-0.043138	1.062644
Cl337	Cl	1.107181	-0.931178	0.209638
Cl338	Cl	1.357181	-0.681178	0.459638
Cl339	Cl	1.607181	-0.431178	0.709638
Cl340	Cl	1.857181	-0.181178	0.959638
H341	H	1.149138	-0.918810	0.451305
H342	H	1.399138	-0.668810	0.701305
H343	H	1.649138	-0.418810	0.951305
H344	H	1.899138	-0.168810	1.201305
Cl345	Cl	0.645806	-0.503452	0.393177
Cl346	Cl	0.895806	-0.253452	0.643177
Cl347	Cl	1.145806	-0.003452	0.893177
Cl348	Cl	1.395806	0.246548	1.143177
Cl349	Cl	0.962217	-0.932575	0.250311
Cl350	Cl	1.212217	-0.682575	0.500311
Cl351	Cl	1.462217	-0.432575	0.750311
Cl352	Cl	1.712217	-0.182575	1.000311
Cl353	Cl	0.494524	-0.394337	0.502722
Cl354	Cl	0.744524	-0.144337	0.752722
Cl355	Cl	0.994524	0.105663	1.002722
Cl356	Cl	1.244524	0.355663	1.252722
Cl357	Cl	1.025620	-0.500641	0.930849
Cl358	Cl	1.275620	-0.250641	1.180849
Cl359	Cl	1.525620	-0.000641	1.430849
Cl360	Cl	1.775620	0.249359	1.680849
Cl361	Cl	0.926294	-0.930408	0.401197
Cl362	Cl	1.176294	-0.680408	0.651197
Cl363	Cl	1.426294	-0.430408	0.901197
Cl364	Cl	1.676294	-0.180408	1.151197
H365	H	0.633872	-0.401018	0.471879
H366	H	0.883872	-0.151018	0.721879
H367	H	1.133872	0.098982	0.971879
H368	H	1.383872	0.348982	1.221879
Cl369	Cl	0.494601	-0.462966	0.248279
Cl370	Cl	0.744601	-0.212966	0.498279
Cl371	Cl	0.994601	0.037034	0.748279
Cl372	Cl	1.244601	0.287034	0.998279
H373	H	0.633930	-0.435766	0.262545
H374	H	0.883930	-0.185766	0.512545
H375	H	1.133930	0.064234	0.762545
H376	H	1.383930	0.314234	1.012545
H377	H	1.114781	-0.241902	0.921414
H378	H	1.364781	0.008098	1.171414
H379	H	1.614781	0.258098	1.421414
H380	H	1.864781	0.508098	1.671414
