data_functionalizedCrystal
_audit_creation_method	'MofGen! by Chris Wilmer'
_symmetry_space_group_name_H-M	'P1'
_symmetry_Int_Tables_number	1
_symmetry_cell_setting	triclinic
loop_
_symmetry_equiv_pos_as_xyz
  x,y,z
_cell_length_a	14.971486
_cell_length_b	9.130307
_cell_length_c	14.971486
_cell_angle_alpha	90.003505
_cell_angle_beta	83.614129
_cell_angle_gamma	89.996563
loop_
_atom_site_label
_atom_site_type_symbol
_atom_site_fract_x
_atom_site_fract_y
_atom_site_fract_z
O1	O	1.186941	0.121632	0.116561
O2	O	0.926541	0.121672	0.130520
O3	O	1.063720	0.121640	-0.006659
O4	O	1.049762	0.121663	0.253741
O5	O	1.063716	-0.121959	-0.006661
O6	O	0.926536	-0.121927	0.130519
O7	O	1.186937	-0.121967	0.116560
Cu8	Cu	1.056736	-0.144190	0.123539
Cu9	Cu	1.056741	0.143894	0.123541
O10	O	1.049757	-0.121936	0.253739
C11	C	0.893214	-0.000123	0.129895
C12	C	0.793917	-0.000108	0.128024
N13	N	1.056739	-0.346813	0.123538
C14	C	0.736692	-0.000103	0.208614
C15	C	0.643392	-0.000125	0.206850
C16	C	0.607320	-0.000141	0.124497
C17	C	0.664552	-0.000151	0.043902
C18	C	0.757850	-0.000139	0.045666
C19	C	0.470090	-0.000171	0.040231
C20	C	0.376786	-0.000180	0.038466
C21	C	0.355632	-0.000157	0.201415
C22	C	0.448930	-0.000145	0.203179
C23	C	0.506156	-0.000152	0.122584
C24	C	1.178261	-0.346831	0.002100
C25	C	1.239027	-0.423506	-0.058616
C26	C	1.239036	-0.576840	-0.058617
C27	C	1.178270	-0.653501	0.002104
C28	C	1.117503	-0.576825	0.062820
C29	C	1.117503	-0.423488	0.062816
C30	C	0.995979	-0.576807	0.184251
C31	C	0.995973	-0.423474	0.184258
C32	C	0.935213	-0.653469	0.244972
C33	C	0.874449	-0.576793	0.305694
C34	C	0.874443	-0.423450	0.305692
C35	C	0.935206	-0.346798	0.244974
C36	C	1.220263	-0.000170	0.117185
C37	C	1.319561	-0.000175	0.119056
C38	C	1.063094	-0.000159	-0.039985
C39	C	1.061223	-0.000157	-0.139282
N40	N	1.056746	0.346517	0.123535
C41	C	1.141812	-0.000171	-0.196507
C42	C	1.140049	-0.000156	-0.289807
C43	C	1.057696	-0.000138	-0.325879
C44	C	0.977101	-0.000120	-0.268646
C45	C	0.978865	-0.000124	-0.175349
C46	C	0.973430	-0.000114	-0.463109
C47	C	0.971665	-0.000112	-0.556413
C48	C	1.134614	-0.000145	-0.577567
C49	C	1.136378	-0.000150	-0.484269
C50	C	1.055782	-0.000135	-0.427043
C51	C	1.050384	-0.000134	0.287065
C52	C	1.052254	-0.000126	0.386362
H53	H	0.766054	-0.000088	0.275675
H54	H	0.824973	-0.639220	0.355124
Br55	Br	0.565731	-0.000113	0.316227
Br56	Br	0.835515	-0.000159	-0.063710
Br57	Br	1.321488	-0.319466	-0.141025
Br58	Br	1.321499	-0.680904	-0.141025
H59	H	0.635175	-0.000185	-0.023152
Br60	Br	0.547754	-0.000188	-0.069150
H61	H	0.935210	-0.221946	0.244971
Br62	Br	0.791961	-0.319404	0.388091
H63	H	1.208874	-0.000194	-0.167145
H64	H	0.478296	-0.000118	0.270239
Br65	Br	0.864048	-0.000088	-0.385445
H66	H	1.205673	-0.000170	-0.336396
Br67	Br	1.178267	-0.861598	0.002089
H68	H	1.178267	-0.221978	0.002102
H69	H	0.935219	-0.778321	0.244965
H70	H	1.200238	-0.000153	-0.624165
Br71	Br	1.248144	-0.000170	-0.435314
H72	H	0.904606	-0.000121	-0.585780
H73	H	0.309033	-0.000158	0.267039
Br74	Br	0.327831	-0.000252	-0.073300
Br75	Br	0.865334	-0.000071	-0.317600
H76	H	0.913240	-0.000113	-0.128756
