data_functionalizedCrystal
_audit_creation_method	'MofGen! by Chris Wilmer'
_symmetry_space_group_name_H-M	'P1'
_symmetry_Int_Tables_number	1
_symmetry_cell_setting	triclinic
loop_
_symmetry_equiv_pos_as_xyz
  x,y,z
_cell_length_a	16.959455
_cell_length_b	18.101397
_cell_length_c	16.959447
_cell_angle_alpha	89.966326
_cell_angle_beta	89.985299
_cell_angle_gamma	90.019893
loop_
_atom_site_label
_atom_site_type_symbol
_atom_site_fract_x
_atom_site_fract_y
_atom_site_fract_z
Zn1	Zn	1.208382	-0.294826	-0.446898
Zn2	Zn	1.208303	-0.418679	-0.314712
Zn3	Zn	1.076210	-0.294855	-0.314735
Zn4	Zn	1.076174	-0.418629	-0.446850
O5	O	1.142267	-0.356747	-0.380799
O6	O	1.318982	-0.311265	-0.429374
O7	O	1.190763	-0.402287	-0.204104
O8	O	1.093791	-0.191218	-0.332297
O9	O	1.318924	-0.402259	-0.332258
O10	O	1.190897	-0.191197	-0.429396
O11	O	1.093715	-0.311313	-0.204121
O12	O	0.965594	-0.311265	-0.332249
O13	O	1.093729	-0.402174	-0.557467
O14	O	0.965568	-0.402201	-0.429314
O15	O	1.190862	-0.311216	-0.557503
O16	O	1.190728	-0.522306	-0.332210
O17	O	1.093653	-0.522269	-0.429291
C18	C	0.936901	-0.356731	-0.380779
C19	C	0.849044	-0.356742	-0.380790
C20	C	0.807738	-0.404051	-0.330154
C21	C	0.807797	-0.309439	-0.431432
C22	C	0.725251	-0.309445	-0.431441
C23	C	0.683945	-0.356754	-0.380805
C24	C	0.725185	-0.404057	-0.330160
C25	C	0.684005	-0.262137	-0.482080
C26	C	0.601454	-0.262141	-0.482091
C27	C	0.560146	-0.309454	-0.431459
C28	C	0.601391	-0.356760	-0.380812
C29	C	0.560086	-0.404069	-0.330175
C30	C	0.601329	-0.451379	-0.279532
C31	C	0.683878	-0.451370	-0.279527
C32	C	0.477598	-0.309462	-0.431463
C33	C	0.477532	-0.404074	-0.330182
C34	C	1.142200	-0.549158	-0.380760
C35	C	1.142243	-0.631472	-0.380770
C36	C	1.142344	-0.930563	-0.380843
C37	C	1.203250	-0.899230	-0.319598
C38	C	1.203461	-0.813611	-0.319757
C39	C	1.142294	-0.782180	-0.380806
C40	C	1.164869	-0.813184	-0.464123
C41	C	1.165340	-0.898829	-0.463789
C42	C	1.058699	-0.899072	-0.359492
C43	C	1.059113	-0.813423	-0.357632
C44	C	1.142264	-0.698321	-0.380791
C45	C	1.142375	-1.014422	-0.380864
C46	C	1.348435	-0.356764	-0.380819
C47	C	1.436292	-0.356771	-0.380827
C48	C	1.142300	-0.356686	-0.586967
C49	C	1.142314	-0.356660	-0.674824
C50	C	1.142357	-0.163585	-0.380854
C51	C	1.142395	-0.081271	-0.380878
C52	C	1.091836	-0.403939	-1.046283
C53	C	1.192981	-0.309225	-1.046316
C54	C	1.192960	-0.309240	-0.963770
C55	C	1.142377	-0.356607	-0.922477
C56	C	1.091815	-0.403958	-0.963730
C57	C	1.243527	-0.261895	-0.922511
C58	C	1.243508	-0.261910	-0.839959
C59	C	1.192921	-0.309273	-0.798665
C60	C	1.142356	-0.356626	-0.839923
C61	C	1.091773	-0.403992	-0.798630
C62	C	1.041204	-0.451342	-0.839887
C63	C	1.041228	-0.451322	-0.922435
C64	C	1.192897	-0.309293	-0.716117
C65	C	1.091752	-0.404011	-0.716077
C66	C	1.142280	-0.356755	-0.175432
C67	C	1.142419	-0.356573	-0.087576
H68	H	0.717466	-0.489886	-0.238294
Cl69	Cl	0.735935	-0.202667	-0.545733
Cl70	Cl	0.859585	-0.463526	-0.266493
H71	H	1.050662	-0.442488	-1.079878
H72	H	1.000023	-0.489911	-0.806255
Cl73	Cl	1.256573	-0.249687	-1.098227
H74	H	1.265421	-0.793068	-0.333884
H75	H	0.841433	-0.270919	-0.472654
Cl76	Cl	1.181606	-0.781250	-0.224388
Cl77	Cl	1.028154	-0.463557	-0.664172
H78	H	1.284684	-0.223355	-0.806375
Cl79	Cl	1.098468	-0.781757	-0.536471
Cl80	Cl	1.026988	-0.932518	-0.267318
H81	H	1.226480	-0.918747	-0.481875
H82	H	0.444021	-0.270938	-0.472691
Cl83	Cl	0.425611	-0.463556	-0.266525
Cl84	Cl	0.549392	-0.510845	-0.215872
H85	H	1.225325	-0.791676	-0.482514
Cl86	Cl	0.988635	-0.930358	-0.428358
H87	H	1.042090	-0.793167	-0.296318
Cl88	Cl	0.549612	-0.202671	-0.545760
Cl89	Cl	0.985278	-0.780404	-0.421459
Cl90	Cl	1.099817	-0.930829	-0.536636
Cl91	Cl	1.181717	-0.931110	-0.223929
Cl92	Cl	1.298390	-0.932370	-0.341157
Cl93	Cl	0.977666	-0.510844	-0.974305
Cl94	Cl	1.307118	-0.202358	-0.974424
H95	H	1.234072	-0.270744	-0.682529
