data_functionalizedCrystal
_audit_creation_method	'MofGen! by Chris Wilmer'
_symmetry_space_group_name_H-M	'P1'
_symmetry_Int_Tables_number	1
_symmetry_cell_setting	triclinic
loop_
_symmetry_equiv_pos_as_xyz
  x,y,z
_cell_length_a	8.559649
_cell_length_b	17.038272
_cell_length_c	7.681481
_cell_angle_alpha	83.842174
_cell_angle_beta	94.913240
_cell_angle_gamma	80.445110
loop_
_atom_site_label
_atom_site_type_symbol
_atom_site_fract_x
_atom_site_fract_y
_atom_site_fract_z
O1	O	2.102567	-0.018069	-0.146400
O2	O	1.642806	0.021983	-0.146410
O3	O	1.869955	-0.111695	-0.146391
O4	O	1.875418	0.115610	-0.146419
O5	O	1.897909	-0.128182	0.146469
O6	O	1.670760	0.005496	0.146450
O7	O	2.130521	-0.034556	0.146460
Zn8	Zn	1.905079	-0.017147	0.192953
Zn9	Zn	1.868248	0.004575	-0.192903
O10	O	1.903372	0.099123	0.146441
C11	C	1.597666	0.016775	0.000018
C12	C	1.421513	0.025810	0.000015
C13	C	1.878962	-0.148769	0.000039
C14	C	1.864132	-0.234673	0.000038
C15	C	2.000285	-0.292946	0.000043
C16	C	1.986340	-0.373660	0.000026
C17	C	1.836242	-0.396101	0.000016
C18	C	1.700079	-0.337821	0.000006
C19	C	1.714024	-0.257108	0.000010
C20	C	1.786975	-0.638906	-0.000009
C21	C	1.773041	-0.719626	-0.000008
C22	C	2.059303	-0.755459	0.000008
C23	C	2.073236	-0.674743	0.000023
C24	C	1.937072	-0.616470	0.000004
C25	C	1.821985	-0.478604	0.000004
C26	C	1.951329	-0.533968	0.000003
C27	C	2.175661	-0.029347	0.000028
C28	C	2.351812	-0.038381	0.000020
C29	C	1.894365	0.136197	0.000008
C30	C	1.909193	0.222102	-0.000003
N31	N	1.930226	-0.031973	0.456289
N32	N	1.843113	0.019394	-0.456239
H33	H	2.097211	-0.421103	0.000034
H34	H	2.019169	-0.084402	0.531503
H35	H	2.195461	-0.656479	0.000031
H36	H	2.170159	-0.802912	0.000021
O37	O	1.441282	-0.112193	-0.000282
C38	C	1.493561	-0.228962	-0.151936
C39	C	1.392134	-0.145374	-0.151832
H40	H	1.453840	-0.255821	-0.274432
H41	H	1.624447	-0.223385	-0.152048
H42	H	1.477411	-0.269588	-0.029315
H43	H	1.408148	-0.104702	-0.274433
H44	H	1.261286	-0.151013	-0.151628
O45	O	1.676055	-0.500264	-0.000075
C46	C	1.393602	-0.456221	0.000028
C47	C	1.558764	-0.431576	0.000086
H48	H	1.298731	-0.400704	0.000195
H49	H	1.368120	-0.486171	-0.122570
H50	H	1.391705	-0.500052	0.122553
H51	H	1.560782	-0.387722	-0.122356
H52	H	1.584179	-0.401672	0.122765
H53	H	1.346417	0.087683	-0.000002
H54	H	1.650810	-0.737894	0.000013
O55	O	2.146088	-0.271129	0.000362
C56	C	2.342418	-0.209307	0.152030
C57	C	2.177283	-0.233985	0.151918
H58	H	2.367678	-0.179256	0.274531
H59	H	2.437410	-0.264804	0.152138
H60	H	2.344371	-0.165540	0.029413
H61	H	2.175174	-0.277732	0.274513
H62	H	2.082365	-0.178451	0.151718
O63	O	1.737195	0.082036	0.454134
C64	C	1.657581	0.225625	0.397464
C65	C	1.777667	0.154757	0.499057
H66	H	1.690239	0.284436	0.433775
H67	H	1.660853	0.223760	0.249890
H68	H	1.532666	0.221136	0.433610
H69	H	1.902638	0.159199	0.463059
H70	H	1.774255	0.156645	0.646607
H71	H	1.676100	-0.591469	-0.000025
H72	H	1.603153	-0.209662	0.000006
H73	H	2.073534	-0.515691	-0.000028
H74	H	1.577864	-0.356098	-0.000013
