data_functionalizedCrystal
_audit_creation_method	'MofGen! by Chris Wilmer'
_symmetry_space_group_name_H-M	'P1'
_symmetry_Int_Tables_number	1
_symmetry_cell_setting	triclinic
loop_
_symmetry_equiv_pos_as_xyz
  x,y,z
_cell_length_a	15.995292
_cell_length_b	15.995350
_cell_length_c	9.730223
_cell_angle_alpha	89.999101
_cell_angle_beta	90.001377
_cell_angle_gamma	83.480495
loop_
_atom_site_label
_atom_site_type_symbol
_atom_site_fract_x
_atom_site_fract_y
_atom_site_fract_z
O1	O	1.111011	0.107691	0.114320
O2	O	0.867229	0.121070	0.114314
O3	O	0.995784	-0.007509	0.114316
O4	O	0.982456	0.236269	0.114318
O5	O	0.995783	-0.007505	-0.114264
O6	O	0.867228	0.121073	-0.114266
O7	O	1.111010	0.107694	-0.114260
Zn8	Zn	0.989118	0.114384	-0.150555
Zn9	Zn	0.989120	0.114380	0.150609
O10	O	0.982455	0.236273	-0.114262
C11	C	0.836033	0.120527	0.000023
C12	C	0.743080	0.118894	0.000021
C13	C	0.995232	-0.038702	0.000029
C14	C	0.993580	-0.131652	0.000036
C15	C	0.987648	-0.469398	0.000032
C16	C	0.896094	-0.421945	0.000542
C17	C	0.897746	-0.325255	0.000027
C18	C	0.990591	-0.301838	0.000035
C19	C	1.035748	-0.342923	-0.130492
C20	C	1.033448	-0.439558	-0.130601
C21	C	1.035341	-0.439921	0.129337
C22	C	1.035319	-0.342975	0.131062
C23	C	0.992259	-0.207141	0.000032
C24	C	0.985983	-0.564095	0.000025
C25	C	0.405341	0.112893	0.000037
C26	C	0.428654	0.205697	0.000548
C27	C	0.525329	0.207461	0.000027
C28	C	0.572897	0.115871	0.000030
C29	C	0.543795	0.069475	-0.130496
C30	C	0.447004	0.068358	-0.130600
C31	C	0.447150	0.066459	0.129338
C32	C	0.543643	0.069898	0.131057
C33	C	0.667593	0.117549	0.000021
C34	C	0.310646	0.111212	0.000036
C35	C	1.142206	0.108237	0.000034
C36	C	1.235159	0.109870	0.000045
C37	C	0.983006	0.267466	0.000029
C38	C	0.984658	0.360416	0.000030
N39	N	0.989123	0.114386	-0.356091
C40	C	1.046062	0.057471	-0.428016
C41	C	1.046060	0.057461	-0.571899
C42	C	0.932178	0.171289	-0.571919
C43	C	0.932176	0.171294	-0.428039
C44	C	1.111813	-0.008244	-0.428006
C45	C	1.111811	-0.008254	-0.571889
N46	N	0.989122	0.114371	0.356145
H47	H	0.862249	-0.296827	0.093593
H48	H	0.885805	0.217632	-0.369479
H49	H	1.091996	-0.068894	-0.616506
F50	F	1.195757	0.009742	-0.622936
H51	H	1.002303	-0.315721	0.227622
F52	F	1.123571	-0.481453	0.130494
H53	H	0.862010	-0.297381	-0.093701
F54	F	0.411949	0.110363	-0.258132
H55	H	0.885812	0.217621	-0.630515
F56	F	1.093859	-0.092201	-0.376954
F57	F	1.191042	0.017713	-0.369667
H58	H	1.004383	-0.314534	-0.227631
H59	H	0.400658	0.241467	0.094155
F60	F	0.585441	-0.018623	-0.136835
F61	F	0.550201	0.254952	0.122325
F62	F	0.848261	-0.446156	0.122889
F63	F	0.427982	-0.020577	-0.138409
H64	H	1.100666	-0.471820	-0.136518
F65	F	0.848352	-0.447825	-0.120791
F66	F	0.586732	-0.017485	0.141363
F67	F	0.570010	0.111590	-0.257468
H68	H	1.005408	-0.460455	0.228268
H69	H	0.433157	-0.001851	0.130223
H70	H	1.103958	-0.328812	-0.135340
F71	F	0.567945	0.114031	0.257276
F72	F	0.990403	-0.463471	-0.258137
H73	H	1.103025	-0.327628	0.138949
H74	H	0.399634	0.241271	-0.092532
H75	H	0.543732	0.244019	-0.093698
F76	F	0.410141	0.104385	0.258651
