data_functionalizedCrystal
_audit_creation_method	'MofGen! by Chris Wilmer'
_symmetry_space_group_name_H-M	'P1'
_symmetry_Int_Tables_number	1
_symmetry_cell_setting	triclinic
loop_
_symmetry_equiv_pos_as_xyz
  x,y,z
_cell_length_a	10.723023
_cell_length_b	10.723023
_cell_length_c	9.798715
_cell_angle_alpha	90.002376
_cell_angle_beta	90.003315
_cell_angle_gamma	84.467548
loop_
_atom_site_label
_atom_site_type_symbol
_atom_site_fract_x
_atom_site_fract_y
_atom_site_fract_z
O1	O	1.657187	0.175020	0.113484
O2	O	1.294034	0.191775	0.113487
O3	O	1.483988	0.001821	0.113480
O4	O	1.467233	0.364974	0.113491
O5	O	1.483975	0.001820	-0.113502
O6	O	1.294021	0.191773	-0.113495
O7	O	1.657174	0.175019	-0.113498
Zn8	Zn	1.475595	0.183396	-0.149535
Zn9	Zn	1.475613	0.183398	0.149524
O10	O	1.467220	0.364972	-0.113491
C11	C	1.247528	0.190555	-0.000003
C12	C	1.108974	0.186908	-0.000002
C13	C	0.903999	0.181511	-0.117581
C14	C	1.047202	0.185281	-0.117585
C15	C	1.482762	-0.044679	-0.000010
C16	C	1.479115	-0.183233	-0.000005
C17	C	1.477496	-0.244998	0.117580
C18	C	1.473726	-0.388201	0.117587
C19	C	1.703680	0.176239	-0.000004
C20	C	1.842234	0.179886	0.000003
C21	C	1.468446	0.411473	0.000002
C22	C	1.472093	0.550027	0.000006
N23	N	1.475592	0.183394	-0.353635
C24	C	1.555546	0.103465	-0.578569
C25	C	1.555529	0.103466	-0.421407
N26	N	1.475625	0.183390	0.353624
H27	H	1.055866	0.185507	0.100671
O28	O	1.637209	0.021709	-0.352064
C29	C	1.711559	-0.052584	-0.445604
H30	H	1.660485	-0.054535	-0.547507
H31	H	1.729680	-0.152037	-0.404214
H32	H	1.804632	-0.011256	-0.460728
O33	O	1.393781	0.264908	-0.423120
C34	C	1.270039	0.243581	-0.388300
H35	H	1.268512	0.143701	-0.348932
H36	H	1.207629	0.257296	-0.482342
H37	H	1.233915	0.312500	-0.305471
O38	O	1.472274	-0.451521	0.237732
C39	C	1.580978	-0.432974	0.313078
H40	H	1.657340	-0.406353	0.240739
H41	H	1.614925	-0.523078	0.369103
H42	H	1.558571	-0.354496	0.390319
H43	H	1.473492	-0.396865	-0.100668
O44	O	1.477216	-0.246527	-0.120142
C45	C	1.370175	-0.201571	-0.195470
H46	H	1.295717	-0.156463	-0.123121
H47	H	1.331698	-0.282816	-0.251476
H48	H	1.396551	-0.129083	-0.272727
O49	O	1.394150	0.265084	-0.576689
C50	C	1.461724	0.342612	-0.494048
H51	H	1.558951	0.293755	-0.472766
H52	H	1.409890	0.361810	-0.393520
H53	H	1.470972	0.434961	-0.549030
H54	H	1.100319	0.186673	-0.218253
H55	H	1.623988	0.035040	-0.636866
H56	H	0.850860	0.180119	-0.218246
H57	H	0.895372	0.181293	0.100668
O58	O	1.479028	-0.181453	0.237585
C59	C	1.373115	-0.092943	0.244911
H60	H	1.337629	-0.069177	0.137460
H61	H	1.399815	-0.004301	0.297125
H62	H	1.296260	-0.133776	0.306071
