data_functionalizedCrystal
_audit_creation_method	'MofGen! by Chris Wilmer'
_symmetry_space_group_name_H-M	'P1'
_symmetry_Int_Tables_number	1
_symmetry_cell_setting	triclinic
loop_
_symmetry_equiv_pos_as_xyz
  x,y,z
_cell_length_a	29.839134
_cell_length_b	29.839131
_cell_length_c	17.077396
_cell_angle_alpha	89.968087
_cell_angle_beta	89.970675
_cell_angle_gamma	90.036281
loop_
_atom_site_label
_atom_site_type_symbol
_atom_site_fract_x
_atom_site_fract_y
_atom_site_fract_z
Zn1	Zn	0.686752	-0.178915	-0.444030
Zn2	Zn	0.936752	0.071085	-0.194030
Zn3	Zn	1.186752	0.321085	0.055970
Zn4	Zn	1.436752	0.571085	0.305970
Zn5	Zn	0.686675	-0.254046	-0.312756
Zn6	Zn	0.936675	-0.004046	-0.062756
Zn7	Zn	1.186675	0.245954	0.187244
Zn8	Zn	1.436675	0.495954	0.437244
Zn9	Zn	0.611625	-0.178924	-0.312755
Zn10	Zn	0.861625	0.071076	-0.062755
Zn11	Zn	1.111625	0.321076	0.187245
Zn12	Zn	1.361625	0.571076	0.437245
Zn13	Zn	0.611583	-0.254012	-0.443957
Zn14	Zn	0.861583	-0.004012	-0.193957
Zn15	Zn	1.111583	0.245988	0.056043
Zn16	Zn	1.361583	0.495988	0.306043
O17	O	0.649159	-0.216474	-0.378374
O18	O	0.899159	0.033526	-0.128374
O19	O	1.149159	0.283526	0.121626
O20	O	1.399159	0.533526	0.371626
O21	O	0.749609	-0.188892	-0.426647
O22	O	0.999609	0.061108	-0.176647
O23	O	1.249609	0.311108	0.073353
O24	O	1.499609	0.561108	0.323353
O25	O	0.676705	-0.244098	-0.202909
O26	O	0.926705	0.005902	0.047091
O27	O	1.176705	0.255902	0.297091
O28	O	1.426705	0.505902	0.547091
O29	O	0.621641	-0.116055	-0.330199
O30	O	0.871641	0.133945	-0.080199
O31	O	1.121641	0.383945	0.169801
O32	O	1.371641	0.633945	0.419801
O33	O	0.749552	-0.244090	-0.330200
O34	O	0.999552	0.005910	-0.080200
O35	O	1.249552	0.255910	0.169800
O36	O	1.499552	0.505910	0.419800
O37	O	0.676837	-0.116049	-0.426646
O38	O	0.926837	0.133951	-0.176646
O39	O	1.176837	0.383951	0.073354
O40	O	1.426837	0.633951	0.323354
O41	O	0.621566	-0.188906	-0.202908
O42	O	0.871566	0.061094	0.047092
O43	O	1.121566	0.311094	0.297092
O44	O	1.371566	0.561094	0.547092
O45	O	0.548753	-0.188874	-0.330129
O46	O	0.798753	0.061126	-0.080129
O47	O	1.048753	0.311126	0.169871
O48	O	1.298753	0.561126	0.419871
O49	O	0.621569	-0.244032	-0.553813
O50	O	0.871569	0.005968	-0.303813
O51	O	1.121569	0.255968	-0.053813
O52	O	1.371569	0.505968	0.196187
O53	O	0.548721	-0.244041	-0.426522
O54	O	0.798721	0.005959	-0.176522
O55	O	1.048721	0.255959	0.073478
O56	O	1.298721	0.505959	0.323478
O57	O	0.676795	-0.188859	-0.553867
O58	O	0.926795	0.061141	-0.303867
O59	O	1.176795	0.311141	-0.053867
O60	O	1.426795	0.561141	0.196133
O61	O	0.676663	-0.316908	-0.330130
O62	O	0.926663	-0.066908	-0.080130
O63	O	1.176663	0.183092	0.169870
O64	O	1.426663	0.433092	0.419870
O65	O	0.621494	-0.316883	-0.426523
O66	O	0.871494	-0.066883	-0.176523
O67	O	1.121494	0.183117	0.073477
O68	O	1.371494	0.433117	0.323477
C69	C	0.532436	-0.216455	-0.378318
C70	C	0.782436	0.033545	-0.128318
C71	C	1.032436	0.283545	0.121682
C72	C	1.282436	0.533545	0.371682
C73	C	0.482502	-0.216458	-0.378312
C74	C	0.732502	0.033542	-0.128312
C75	C	0.982502	0.283542	0.121688
C76	C	1.232502	0.533542	0.371688
C77	C	0.172852	-0.245242	-0.428505
C78	C	0.422852	0.004758	-0.178505
C79	C	0.672852	0.254758	0.071495
C80	C	0.922852	0.504758	0.321495
C81	C	-0.014822	-0.245255	-0.428540
C82	C	0.235178	0.004745	-0.178540
C83	C	0.485178	0.254745	0.071460
C84	C	0.735178	0.504745	0.321460
O85	O	-0.039092	-0.269707	-0.471182
O86	O	0.210908	-0.019707	-0.221182
O87	O	0.460908	0.230293	0.028818
O88	O	0.710908	0.480293	0.278818
N89	N	-0.038283	-0.216490	-0.378433
N90	N	0.211717	0.033510	-0.128433
N91	N	0.461717	0.283510	0.121567
N92	N	0.711717	0.533510	0.371567
C93	C	-0.014824	-0.187719	-0.328318
C94	C	0.235176	0.062281	-0.078318
C95	C	0.485176	0.312281	0.171682
C96	C	0.735176	0.562281	0.421682
O97	O	-0.039086	-0.163250	-0.285707
O98	O	0.210914	0.086750	-0.035707
O99	O	0.460914	0.336750	0.214293
O100	O	0.710914	0.586750	0.464293
C101	C	0.172848	-0.187704	-0.328288
C102	C	0.422848	0.062296	-0.078288
C103	C	0.672848	0.312296	0.171712
C104	C	0.922848	0.562296	0.421712
C105	C	0.196308	-0.216474	-0.378392
C106	C	0.446308	0.033526	-0.128392
C107	C	0.696308	0.283526	0.121608
C108	C	0.946308	0.533526	0.371608
C109	C	0.196311	-0.274008	-0.478605
C110	C	0.446311	-0.024008	-0.228605
C111	C	0.696311	0.225992	0.021395
C112	C	0.946311	0.475992	0.271395
C113	C	0.243226	-0.274007	-0.478593
C114	C	0.493226	-0.024007	-0.228593
C115	C	0.743226	0.225993	0.021407
C116	C	0.993226	0.475993	0.271407
C117	C	0.266682	-0.245238	-0.428480
C118	C	0.516682	0.004762	-0.178480
C119	C	0.766682	0.254762	0.071520
C120	C	1.016682	0.504762	0.321520
C121	C	0.243223	-0.216472	-0.378380
C122	C	0.493223	0.033528	-0.128380
C123	C	0.743223	0.283528	0.121620
C124	C	0.993223	0.533528	0.371620
C125	C	0.196307	-0.158931	-0.278178
C126	C	0.446307	0.091069	-0.028178
C127	C	0.696307	0.341069	0.221822
C128	C	0.946307	0.591069	0.471822
C129	C	0.243228	-0.158929	-0.278176
C130	C	0.493228	0.091071	-0.028176
C131	C	0.743228	0.341071	0.221824
C132	C	0.993228	0.591071	0.471824
C133	C	0.266687	-0.187698	-0.328280
C134	C	0.516687	0.062302	-0.078280
C135	C	0.766687	0.312302	0.171720
C136	C	1.016687	0.562302	0.421720
C137	C	0.313595	-0.187702	-0.328255
C138	C	0.563595	0.062298	-0.078255
C139	C	0.813595	0.312298	0.171745
C140	C	1.063595	0.562298	0.421745
N141	N	0.337056	-0.216466	-0.378361
N142	N	0.587056	0.033534	-0.128361
N143	N	0.837056	0.283534	0.121639
N144	N	1.087056	0.533534	0.371639
C145	C	0.313600	-0.245234	-0.428474
C146	C	0.563600	0.004766	-0.178474
C147	C	0.813600	0.254766	0.071526
C148	C	1.063600	0.504766	0.321526
C149	C	-0.113355	-0.187729	-0.328337
C150	C	0.136645	0.062271	-0.078337
C151	C	0.386645	0.312271	0.171663
C152	C	0.636645	0.562271	0.421663
C153	C	-0.160272	-0.187733	-0.328343
C154	C	0.089728	0.062267	-0.078343
C155	C	0.339728	0.312267	0.171657
C156	C	0.589728	0.562267	0.421657
C157	C	-0.160267	-0.245269	-0.428566
C158	C	0.089733	0.004731	-0.178566
C159	C	0.339733	0.254731	0.071434
C160	C	0.589733	0.504731	0.321434
C161	C	-0.113348	-0.245266	-0.428555
C162	C	0.136652	0.004734	-0.178555
C163	C	0.386652	0.254734	0.071445
C164	C	0.636652	0.504734	0.321445
C165	C	-0.089893	-0.216493	-0.378443
C166	C	0.160107	0.033507	-0.128443
C167	C	0.410107	0.283507	0.121557
C168	C	0.660107	0.533507	0.371557
C169	C	0.412126	-0.245229	-0.428444
C170	C	0.662126	0.004771	-0.178444
C171	C	0.912126	0.254771	0.071556
C172	C	1.162126	0.504771	0.321556
C173	C	0.459046	-0.245226	-0.428425
C174	C	0.709046	0.004774	-0.178425
C175	C	0.959046	0.254774	0.071575
C176	C	1.209046	0.504774	0.321575
C177	C	0.459036	-0.187689	-0.328206
C178	C	0.709036	0.062311	-0.078206
C179	C	0.959036	0.312311	0.171794
C180	C	1.209036	0.562311	0.421794
C181	C	0.412120	-0.187694	-0.328221
C182	C	0.662120	0.062306	-0.078221
C183	C	0.912120	0.312306	0.171779
C184	C	1.162120	0.562306	0.421779
C185	C	0.388667	-0.216465	-0.378347
C186	C	0.638667	0.033535	-0.128347
C187	C	0.888667	0.283535	0.121653
C188	C	1.138667	0.533535	0.371653
O189	O	0.337894	-0.163259	-0.285641
O190	O	0.587894	0.086741	-0.035641
O191	O	0.837894	0.336741	0.214359
O192	O	1.087894	0.586741	0.464359
O193	O	0.337870	-0.269692	-0.471092
O194	O	0.587870	-0.019692	-0.221092
O195	O	0.837870	0.230308	0.028908
O196	O	1.087870	0.480308	0.278908
C197	C	0.125936	-0.245244	-0.428517
C198	C	0.375936	0.004756	-0.178517
C199	C	0.625936	0.254756	0.071483
C200	C	0.875936	0.504756	0.321483
C201	C	0.102477	-0.216477	-0.378417
C202	C	0.352477	0.033523	-0.128417
C203	C	0.602477	0.283523	0.121583
C204	C	0.852477	0.533523	0.371583
C205	C	0.125933	-0.187709	-0.328304
C206	C	0.375933	0.062291	-0.078304
C207	C	0.625933	0.312291	0.171696
C208	C	0.875933	0.562291	0.421696
C209	C	0.055559	-0.216481	-0.378423
C210	C	0.305559	0.033519	-0.128423
C211	C	0.555559	0.283519	0.121577
C212	C	0.805559	0.533519	0.371577
C213	C	0.032103	-0.245250	-0.428536
C214	C	0.282103	0.004750	-0.178536
C215	C	0.532103	0.254750	0.071464
C216	C	0.782103	0.504750	0.321464
C217	C	0.055565	-0.274014	-0.478642
C218	C	0.305565	-0.024014	-0.228642
C219	C	0.555565	0.225986	0.021358
C220	C	0.805565	0.475986	0.271358
C221	C	0.102480	-0.274012	-0.478630
C222	C	0.352480	-0.024012	-0.228630
C223	C	0.602480	0.225988	0.021370
C224	C	0.852480	0.475988	0.271370
C225	C	0.102471	-0.158945	-0.278198
C226	C	0.352471	0.091055	-0.028198
C227	C	0.602471	0.341055	0.221802
C228	C	0.852471	0.591055	0.471802
C229	C	0.055555	-0.158949	-0.278213
C230	C	0.305555	0.091051	-0.028213
C231	C	0.555555	0.341051	0.221787
C232	C	0.805555	0.591051	0.471787
C233	C	0.032099	-0.187717	-0.328326
C234	C	0.282099	0.062283	-0.078326
C235	C	0.532099	0.312283	0.171674
C236	C	0.782099	0.562283	0.421674
C237	C	0.649078	-0.333197	-0.378335
C238	C	0.899078	-0.083197	-0.128335
C239	C	1.149078	0.166803	0.121665
C240	C	1.399078	0.416803	0.371665
C241	C	0.649084	-0.383131	-0.378345
C242	C	0.899084	-0.133131	-0.128345
C243	C	1.149084	0.116869	0.121655
C244	C	1.399084	0.366869	0.371655
C245	C	0.677938	-0.692775	-0.328256
C246	C	0.927938	-0.442775	-0.078256
C247	C	1.177938	-0.192775	0.171744
C248	C	1.427938	0.057225	0.421744
C249	C	0.677993	-0.880448	-0.328286
C250	C	0.927993	-0.630448	-0.078286
C251	C	1.177993	-0.380448	0.171714
C252	C	1.427993	-0.130448	0.421714
O253	O	0.702462	-0.904713	-0.285669
O254	O	0.952462	-0.654713	-0.035669
O255	O	1.202462	-0.404713	0.214331
O256	O	1.452462	-0.154713	0.464331
N257	N	0.649252	-0.903916	-0.378434
N258	N	0.899252	-0.653916	-0.128434
N259	N	1.149252	-0.403916	0.121566
N260	N	1.399252	-0.153916	0.371566
C261	C	0.620497	-0.880463	-0.428580
C262	C	0.870497	-0.630463	-0.178580
C263	C	1.120497	-0.380463	0.071420
C264	C	1.370497	-0.130463	0.321420
O265	O	0.596055	-0.904731	-0.471240
O266	O	0.846055	-0.654731	-0.221240
O267	O	1.096055	-0.404731	0.028760
O268	O	1.346055	-0.154731	0.278760
C269	C	0.620444	-0.692791	-0.428553
C270	C	0.870444	-0.442791	-0.178553
C271	C	1.120444	-0.192791	0.071447
C272	C	1.370444	0.057209	0.321447
C273	C	0.649184	-0.669325	-0.378397
C274	C	0.899184	-0.419325	-0.128397
C275	C	1.149184	-0.169325	0.121603
C276	C	1.399184	0.080675	0.371603
C277	C	0.706676	-0.669309	-0.278105
C278	C	0.956676	-0.419309	-0.028105
C279	C	1.206676	-0.169309	0.221895
C280	C	1.456676	0.080691	0.471895
C281	C	0.706660	-0.622393	-0.278094
C282	C	0.956660	-0.372393	-0.028094
C283	C	1.206660	-0.122393	0.221906
C284	C	1.456660	0.127607	0.471906
C285	C	0.677906	-0.598944	-0.328236
C286	C	0.927906	-0.348944	-0.078236
C287	C	1.177906	-0.098944	0.171764
C288	C	1.427906	0.151056	0.421764
C289	C	0.649168	-0.622410	-0.378387
C290	C	0.899168	-0.372410	-0.128387
C291	C	1.149168	-0.122410	0.121613
C292	C	1.399168	0.127590	0.371613
C293	C	0.591691	-0.669339	-0.478703
C294	C	0.841691	-0.419339	-0.228703
C295	C	1.091691	-0.169339	0.021297
C296	C	1.341691	0.080661	0.271297
C297	C	0.591681	-0.622418	-0.478693
C298	C	0.841681	-0.372418	-0.228693
C299	C	1.091681	-0.122418	0.021307
C300	C	1.341681	0.127582	0.271307
C301	C	0.620421	-0.598952	-0.428537
C302	C	0.870421	-0.348952	-0.178537
C303	C	1.120421	-0.098952	0.071463
C304	C	1.370421	0.151048	0.321463
C305	C	0.620398	-0.552045	-0.428518
C306	C	0.870398	-0.302045	-0.178518
C307	C	1.120398	-0.052045	0.071482
C308	C	1.370398	0.197955	0.321482
N309	N	0.649140	-0.528576	-0.378371
N310	N	0.899140	-0.278576	-0.128371
N311	N	1.149140	-0.028576	0.121629
N312	N	1.399140	0.221424	0.371629
C313	C	0.677894	-0.552026	-0.328230
C314	C	0.927894	-0.302026	-0.078230
C315	C	1.177894	-0.052026	0.171770
C316	C	1.427894	0.197974	0.421770
C317	C	0.620526	-0.978994	-0.428590
C318	C	0.870526	-0.728994	-0.178590
C319	C	1.120526	-0.478994	0.071410
C320	C	1.370526	-0.228994	0.321410
C321	C	0.620538	-1.025912	-0.428596
C322	C	0.870538	-0.775912	-0.178596
C323	C	1.120538	-0.525912	0.071404
C324	C	1.370538	-0.275912	0.321404
C325	C	0.678036	-1.025893	-0.328303
C326	C	0.928036	-0.775893	-0.078303
C327	C	1.178036	-0.525893	0.171697
C328	C	1.428036	-0.275893	0.421697
C329	C	0.678021	-0.978974	-0.328293
C330	C	0.928021	-0.728974	-0.078293
C331	C	1.178021	-0.478974	0.171707
C332	C	1.428021	-0.228974	0.421707
C333	C	0.649267	-0.955525	-0.378443
C334	C	0.899267	-0.705525	-0.128443
C335	C	1.149267	-0.455525	0.121557
C336	C	1.399267	-0.205525	0.371557
C337	C	0.677858	-0.453500	-0.328212
C338	C	0.927858	-0.203500	-0.078212
C339	C	1.177858	0.046500	0.171788
C340	C	1.427858	0.296500	0.421788
C341	C	0.677838	-0.406580	-0.328204
C342	C	0.927838	-0.156580	-0.078204
C343	C	1.177838	0.093420	0.171796
C344	C	1.427838	0.343420	0.421796
C345	C	0.620343	-0.406603	-0.428499
C346	C	0.870343	-0.156603	-0.178499
C347	C	1.120343	0.093397	0.071501
C348	C	1.370343	0.343397	0.321501
C349	C	0.620360	-0.453519	-0.428505
C350	C	0.870360	-0.203519	-0.178505
C351	C	1.120360	0.046481	0.071495
C352	C	1.370360	0.296481	0.321495
C353	C	0.649122	-0.476966	-0.378358
C354	C	0.899122	-0.226966	-0.128358
C355	C	1.149122	0.023034	0.121642
C356	C	1.399122	0.273034	0.371642
O357	O	0.595946	-0.527751	-0.471119
O358	O	0.845946	-0.277751	-0.221119
O359	O	1.095946	-0.027751	0.028881
O360	O	1.345946	0.222249	0.278881
O361	O	0.702339	-0.527750	-0.285589
O362	O	0.952339	-0.277750	-0.035589
O363	O	1.202339	-0.027750	0.214411
O364	O	1.452339	0.222250	0.464411
C365	C	0.677954	-0.739690	-0.328266
C366	C	0.927954	-0.489690	-0.078266
C367	C	1.177954	-0.239690	0.171734
C368	C	1.427954	0.010310	0.421734
C369	C	0.649216	-0.763156	-0.378417
C370	C	0.899216	-0.513156	-0.128417
C371	C	1.149216	-0.263156	0.121583
C372	C	1.399216	-0.013156	0.371583
C373	C	0.620462	-0.739707	-0.428559
C374	C	0.870462	-0.489707	-0.178559
C375	C	1.120462	-0.239707	0.071441
C376	C	1.370462	0.010293	0.321441
C377	C	0.649228	-0.810074	-0.378423
C378	C	0.899228	-0.560074	-0.128423
C379	C	1.149228	-0.310074	0.121577
C380	C	1.399228	-0.060074	0.371577
C381	C	0.677982	-0.833523	-0.328282
C382	C	0.927982	-0.583523	-0.078282
C383	C	1.177982	-0.333523	0.171718
C384	C	1.427982	-0.083523	0.421718
C385	C	0.706724	-0.810055	-0.278135
C386	C	0.956724	-0.560055	-0.028135
C387	C	1.206724	-0.310055	0.221865
C388	C	1.456724	-0.060055	0.471865
C389	C	0.706708	-0.763139	-0.278125
C390	C	0.956708	-0.513139	-0.028125
C391	C	1.206708	-0.263139	0.221875
C392	C	1.456708	-0.013139	0.471875
C393	C	0.591720	-0.763175	-0.478706
C394	C	0.841720	-0.513175	-0.228706
C395	C	1.091720	-0.263175	0.021294
C396	C	1.341720	-0.013175	0.271294
C397	C	0.591738	-0.810090	-0.478711
C398	C	0.841738	-0.560090	-0.228711
C399	C	1.091738	-0.310090	0.021289
C400	C	1.341738	-0.060090	0.271289
C401	C	0.620492	-0.833540	-0.428570
C402	C	0.870492	-0.583540	-0.178570
C403	C	1.120492	-0.333540	0.071430
C404	C	1.370492	-0.083540	0.321430
C405	C	0.766337	-0.216493	-0.378432
C406	C	1.016337	0.033507	-0.128432
C407	C	1.266337	0.283507	0.121568
C408	C	1.516337	0.533507	0.371568
C409	C	0.816272	-0.216502	-0.378456
C410	C	1.066272	0.033498	-0.128456
C411	C	1.316272	0.283498	0.121544
C412	C	1.566272	0.533498	0.371544
C413	C	0.649186	-0.216441	-0.583119
C414	C	0.899186	0.033559	-0.333119
C415	C	1.149186	0.283559	-0.083119
C416	C	1.399186	0.533559	0.166881
C417	C	0.649198	-0.216427	-0.670369
C418	C	0.899198	0.033573	-0.420369
C419	C	1.149198	0.283573	-0.170369
C420	C	1.399198	0.533573	0.079631
C421	C	0.649252	-0.099296	-0.378431
C422	C	0.899252	0.150704	-0.128431
C423	C	1.149252	0.400704	0.121569
C424	C	1.399252	0.650704	0.371569
C425	C	0.649292	-0.049361	-0.378455
C426	C	0.899292	0.200639	-0.128455
C427	C	1.149292	0.450639	0.121545
C428	C	1.399292	0.700639	0.371545
C429	C	0.677955	-0.187696	-0.711388
C430	C	0.927955	0.062304	-0.461388
C431	C	1.177955	0.312304	-0.211388
C432	C	1.427955	0.562304	0.038612
C433	C	0.677961	-0.187681	-0.793368
C434	C	0.927961	0.062319	-0.543368
C435	C	1.177961	0.312319	-0.293368
C436	C	1.427961	0.562319	-0.043368
C437	C	0.649210	-0.216399	-0.834328
C438	C	0.899210	0.033601	-0.584328
C439	C	1.149210	0.283601	-0.334328
C440	C	1.399210	0.533601	-0.084328
C441	C	0.620450	-0.245132	-0.793303
C442	C	0.870450	0.004868	-0.543303
C443	C	1.120450	0.254868	-0.293303
C444	C	1.370450	0.504868	-0.043303
C445	C	0.620442	-0.245144	-0.711324
C446	C	0.870442	0.004856	-0.461324
C447	C	1.120442	0.254856	-0.211324
C448	C	1.370442	0.504856	0.038676
C449	C	0.620468	-0.245105	-0.964173
C450	C	0.870468	0.004895	-0.714173
C451	C	1.120468	0.254895	-0.464173
C452	C	1.370468	0.504895	-0.214173
C453	C	0.620475	-0.245093	-1.046158
C454	C	0.870475	0.004907	-0.796158
C455	C	1.120475	0.254907	-0.546158
C456	C	1.370475	0.504907	-0.296158
C457	C	0.677986	-0.187641	-1.046218
C458	C	0.927986	0.062359	-0.796218
C459	C	1.177986	0.312359	-0.546218
C460	C	1.427986	0.562359	-0.296218
C461	C	0.677979	-0.187654	-0.964239
C462	C	0.927979	0.062346	-0.714239
C463	C	1.177979	0.312346	-0.464239
C464	C	1.427979	0.562346	-0.214239
C465	C	0.649218	-0.216387	-0.923219
C466	C	0.899218	0.033613	-0.673219
C467	C	1.149218	0.283613	-0.423219
C468	C	1.399218	0.533613	-0.173219
C469	C	0.649158	-0.216475	-0.174426
C470	C	0.899158	0.033525	0.075574
C471	C	1.149158	0.283525	0.325574
C472	C	1.399158	0.533525	0.575574
C473	C	0.649233	-0.216362	-0.087177
C474	C	0.899233	0.033638	0.162823
C475	C	1.149233	0.283638	0.412823
C476	C	1.399233	0.533638	0.662823
H477	H	0.036459	-0.135522	-0.237405
H478	H	0.286459	0.114478	0.012595
H479	H	0.536459	0.364478	0.262595
H480	H	0.786459	0.614478	0.512595
H481	H	0.597039	-0.268514	-0.826659
H482	H	0.847039	-0.018514	-0.576659
H483	H	1.097039	0.231486	-0.326659
H484	H	1.347039	0.481486	-0.076659
H485	H	-0.094251	-0.268692	-0.469355
H486	H	0.155749	-0.018692	-0.219355
H487	H	0.405749	0.231308	0.030645
H488	H	0.655749	0.481308	0.280645
C489	C	0.128266	-0.127297	-0.223063
C490	C	0.378266	0.122703	0.026937
C491	C	0.628266	0.372703	0.276937
C492	C	0.878266	0.622703	0.526937
N493	N	0.147693	-0.103461	-0.181528
N494	N	0.397693	0.146539	0.068472
N495	N	0.647693	0.396539	0.318472
N496	N	0.897693	0.646539	0.568472
H497	H	0.701242	-0.387476	-0.287358
H498	H	0.951242	-0.137476	-0.037358
H499	H	1.201242	0.112524	0.212642
H500	H	1.451242	0.362524	0.462642
H501	H	0.730093	-0.688396	-0.237273
H502	H	0.980093	-0.438396	0.012727
H503	H	1.230093	-0.188396	0.262727
H504	H	1.480093	0.061604	0.512727
C505	C	0.588846	-0.276683	-1.091212
C506	C	0.838846	-0.026683	-0.841212
C507	C	1.088846	0.223317	-0.591212
C508	C	1.338846	0.473317	-0.341212
N509	N	0.565022	-0.300476	-1.125147
N510	N	0.815022	-0.050476	-0.875147
N511	N	1.065022	0.199524	-0.625147
N512	N	1.315022	0.449524	-0.375147
C513	C	0.709583	-0.156102	-0.666340
C514	C	0.959583	0.093898	-0.416340
C515	C	1.209583	0.343898	-0.166340
C516	C	1.459583	0.593898	0.083660
N517	N	0.733404	-0.132302	-0.632412
N518	N	0.983404	0.117698	-0.382412
N519	N	1.233404	0.367698	-0.132412
N520	N	1.483404	0.617698	0.117588
H521	H	0.568286	-0.688437	-0.519542
H522	H	0.818286	-0.438437	-0.269542
H523	H	1.068286	-0.188437	-0.019542
H524	H	1.318286	0.061563	0.230458
H525	H	-0.179369	-0.164311	-0.287536
H526	H	0.070631	0.085689	-0.037536
H527	H	0.320631	0.335689	0.212464
H528	H	0.570631	0.585689	0.462464
H529	H	0.393036	-0.268656	-0.469263
H530	H	0.643036	-0.018656	-0.219263
H531	H	0.893036	0.231344	0.030737
H532	H	1.143036	0.481344	0.280737
H533	H	-0.094262	-0.164299	-0.287526
H534	H	0.155738	0.085701	-0.037526
H535	H	0.405738	0.335701	0.212474
H536	H	0.655738	0.585701	0.462474
H537	H	0.596959	-0.472626	-0.469348
H538	H	0.846959	-0.222626	-0.219348
H539	H	1.096959	0.027374	0.030652
H540	H	1.346959	0.277374	0.280652
H541	H	0.701392	-0.164271	-0.930891
H542	H	0.951392	0.085729	-0.680891
H543	H	1.201392	0.335729	-0.430891
H544	H	1.451392	0.585729	-0.180891
H545	H	0.701279	-0.472585	-0.287379
H546	H	0.951279	-0.222585	-0.037379
H547	H	1.201279	0.027415	0.212621
H548	H	1.451279	0.277415	0.462621
H549	H	0.730064	-0.603290	-0.237255
H550	H	0.980064	-0.353290	0.012745
H551	H	1.230064	-0.103290	0.262745
H552	H	1.480064	0.146710	0.512745
C553	C	0.709638	-0.953166	-0.273121
C554	C	0.959638	-0.703166	-0.023121
C555	C	1.209638	-0.453166	0.226879
C556	C	1.459638	-0.203166	0.476879
N557	N	0.733454	-0.933730	-0.231564
N558	N	0.983454	-0.683730	0.018436
N559	N	1.233454	-0.433730	0.268436
N560	N	1.483454	-0.183730	0.518436
C561	C	0.738323	-0.737333	-0.222946
C562	C	0.988323	-0.487333	0.027054
C563	C	1.238323	-0.237333	0.277054
C564	C	1.488323	0.012667	0.527054
N565	N	0.762137	-0.717899	-0.181381
N566	N	1.012137	-0.467899	0.068619
N567	N	1.262137	-0.217899	0.318619
N568	N	1.512137	0.032101	0.568619
H569	H	0.478144	-0.268655	-0.469226
H570	H	0.728144	-0.018655	-0.219226
H571	H	0.978144	0.231345	0.030774
H572	H	1.228144	0.481345	0.280774
H573	H	0.177214	-0.135505	-0.237375
H574	H	0.427214	0.114495	0.012625
H575	H	0.677214	0.364495	0.262625
H576	H	0.927214	0.614495	0.512625
C577	C	0.709668	-1.051696	-0.273151
C578	C	0.959668	-0.801696	-0.023151
C579	C	1.209668	-0.551696	0.226849
C580	C	1.459668	-0.301696	0.476849
N581	N	0.733495	-1.071133	-0.231618
N582	N	0.983495	-0.821133	0.018382
N583	N	1.233495	-0.571133	0.268382
N584	N	1.483495	-0.321133	0.518382
C585	C	0.588905	-0.953206	-0.483783
C586	C	0.838905	-0.703206	-0.233783
C587	C	1.088905	-0.453206	0.016217
C588	C	1.338905	-0.203206	0.266217
N589	N	0.565091	-0.933785	-0.525360
N590	N	0.815091	-0.683785	-0.275360
N591	N	1.065091	-0.433785	-0.025360
N592	N	1.315091	-0.183785	0.224640
H593	H	0.701379	-0.164286	-0.826763
H594	H	0.951379	0.085714	-0.576763
H595	H	1.201379	0.335714	-0.326763
H596	H	1.451379	0.585714	-0.076763
C597	C	0.738353	-0.835858	-0.222979
C598	C	0.988353	-0.585858	0.027021
C599	C	1.238353	-0.335858	0.277021
C600	C	1.488353	-0.085858	0.527021
N601	N	0.762176	-0.855296	-0.181440
N602	N	1.012176	-0.605296	0.068560
N603	N	1.262176	-0.355296	0.318560
N604	N	1.512176	-0.105296	0.568560
C605	C	0.709622	-0.156034	-1.091340
C606	C	0.959622	0.093966	-0.841340
C607	C	1.209622	0.343966	-0.591340
C608	C	1.459622	0.593966	-0.341340
N609	N	0.733451	-0.132230	-1.125330
N610	N	0.983451	0.117770	-0.875330
N611	N	1.233451	0.367770	-0.625330
N612	N	1.483451	0.617770	-0.375330
H613	H	0.597041	-0.268495	-0.930778
H614	H	0.847041	-0.018495	-0.680778
H615	H	1.097041	0.231505	-0.430778
H616	H	1.347041	0.481505	-0.180778
C617	C	0.029754	-0.305658	-0.533768
C618	C	0.279754	-0.055658	-0.283768
C619	C	0.529754	0.194342	-0.033768
C620	C	0.779754	0.444342	0.216232
N621	N	0.010311	-0.329489	-0.575289
N622	N	0.260311	-0.079489	-0.325289
N623	N	0.510311	0.170511	-0.075289
N624	N	0.760311	0.420511	0.174711
C625	C	0.588918	-1.051719	-0.483764
C626	C	0.838918	-0.801719	-0.233764
C627	C	1.088918	-0.551719	0.016236
C628	C	1.338918	-0.301719	0.266236
N629	N	0.565102	-1.071155	-0.525322
N630	N	0.815102	-0.821155	-0.275322
N631	N	1.065102	-0.571155	-0.025322
N632	N	1.315102	-0.321155	0.224678
C633	C	0.588807	-0.276752	-0.666203
C634	C	0.838807	-0.026752	-0.416203
C635	C	1.088807	0.223248	-0.166203
C636	C	1.338807	0.473248	0.083797
N637	N	0.564978	-0.300558	-0.632219
N638	N	0.814978	-0.050558	-0.382219
N639	N	1.064978	0.199442	-0.132219
N640	N	1.314978	0.449442	0.117781
C641	C	0.560119	-0.835898	-0.533890
C642	C	0.810119	-0.585898	-0.283890
C643	C	1.060119	-0.335898	-0.033890
C644	C	1.310119	-0.085898	0.216110
N645	N	0.536306	-0.855334	-0.575454
N646	N	0.786306	-0.605334	-0.325454
N647	N	1.036306	-0.355334	-0.075454
N648	N	1.286306	-0.105334	0.174546
C649	C	0.560050	-0.596628	-0.533864
C650	C	0.810050	-0.346628	-0.283864
C651	C	1.060050	-0.096628	-0.033864
C652	C	1.310050	0.153372	0.216136
N653	N	0.536224	-0.577203	-0.575416
N654	N	0.786224	-0.327203	-0.325416
N655	N	1.036224	-0.077203	-0.075416
N656	N	1.286224	0.172797	0.174584
C657	C	0.588716	-0.380800	-0.483655
C658	C	0.838716	-0.130800	-0.233655
C659	C	1.088716	0.119200	0.016345
C660	C	1.338716	0.369200	0.266345
N661	N	0.564898	-0.361364	-0.525204
N662	N	0.814898	-0.111364	-0.275204
N663	N	1.064898	0.138636	-0.025204
N664	N	1.314898	0.388636	0.224796
C665	C	0.386314	-0.156050	-0.273099
C666	C	0.636314	0.093950	-0.023099
C667	C	0.886314	0.343950	0.226901
C668	C	1.136314	0.593950	0.476901
N669	N	0.366880	-0.132212	-0.231584
N670	N	0.616880	0.117788	0.018416
N671	N	0.866880	0.367788	0.268416
N672	N	1.116880	0.617788	0.518416
C673	C	0.269026	-0.305653	-0.533716
C674	C	0.519026	-0.055653	-0.283716
C675	C	0.769026	0.194347	-0.033716
C676	C	1.019026	0.444347	0.216284
N677	N	0.288455	-0.329490	-0.575239
N678	N	0.538455	-0.079490	-0.325239
N679	N	0.788455	0.170510	-0.075239
N680	N	1.038455	0.420510	0.174761
H681	H	0.568306	-0.744086	-0.519538
H682	H	0.818306	-0.494086	-0.269538
H683	H	1.068306	-0.244086	-0.019538
H684	H	1.318306	0.005914	0.230462
C685	C	0.170517	-0.305664	-0.533730
C686	C	0.420517	-0.055664	-0.283730
C687	C	0.670517	0.194336	-0.033730
C688	C	0.920517	0.444336	0.216270
N689	N	0.151092	-0.329512	-0.575246
N690	N	0.401092	-0.079512	-0.325246
N691	N	0.651092	0.170488	-0.075246
N692	N	0.901092	0.420488	0.174754
H693	H	-0.179373	-0.268693	-0.469370
H694	H	0.070627	-0.018693	-0.219370
H695	H	0.320627	0.231307	0.030630
H696	H	0.570627	0.481307	0.280630
C697	C	0.484847	-0.156040	-0.273093
C698	C	0.734847	0.093960	-0.023093
C699	C	0.984847	0.343960	0.226907
C700	C	1.234847	0.593960	0.476907
N701	N	0.504289	-0.132198	-0.231590
N702	N	0.754289	0.117802	0.018410
N703	N	1.004289	0.367802	0.268410
N704	N	1.254289	0.617802	0.518410
C705	C	0.269026	-0.127277	-0.223045
C706	C	0.519026	0.122723	0.026955
C707	C	0.769026	0.372723	0.276955
C708	C	1.019026	0.622723	0.526955
N709	N	0.288456	-0.103438	-0.181519
N710	N	0.538456	0.146562	0.068481
N711	N	0.788456	0.396562	0.318481
N712	N	1.038456	0.646562	0.568481
H713	H	0.121577	-0.297439	-0.519430
H714	H	0.371577	-0.047439	-0.269430
H715	H	0.621577	0.202561	-0.019430
H716	H	0.871577	0.452561	0.230570
