data_functionalizedCrystal
_audit_creation_method	'MofGen! by Chris Wilmer'
_symmetry_space_group_name_H-M	'P1'
_symmetry_Int_Tables_number	1
_symmetry_cell_setting	triclinic
loop_
_symmetry_equiv_pos_as_xyz
  x,y,z
_cell_length_a	17.699104
_cell_length_b	17.699083
_cell_length_c	16.776229
_cell_angle_alpha	90.007545
_cell_angle_beta	89.991971
_cell_angle_gamma	96.712734
loop_
_atom_site_label
_atom_site_type_symbol
_atom_site_fract_x
_atom_site_fract_y
_atom_site_fract_z
O1	O	1.004069	-0.095788	-0.066306
O2	O	1.504069	0.404212	0.433694
O3	O	0.783692	-0.108224	-0.066304
O4	O	1.283692	0.391776	0.433696
O5	O	0.900107	0.008183	-0.066298
O6	O	1.400107	0.508183	0.433702
O7	O	0.887654	-0.212195	-0.066312
O8	O	1.387654	0.287805	0.433688
O9	O	0.900091	0.008190	0.066278
O10	O	1.400091	0.508190	0.566278
O11	O	0.783677	-0.108217	0.066272
O12	O	1.283677	0.391783	0.566272
O13	O	1.004053	-0.095781	0.066271
O14	O	1.504053	0.404219	0.566271
Zn15	Zn	0.893863	-0.101998	0.087321
Zn16	Zn	1.393863	0.398002	0.587321
Zn17	Zn	0.893883	-0.102007	-0.087354
Zn18	Zn	1.393883	0.397993	0.412646
O19	O	0.887639	-0.212188	0.066264
O20	O	1.387639	0.287812	0.566264
C21	C	0.755488	-0.107772	-0.000016
C22	C	1.255488	0.392228	0.499984
C23	C	0.671471	-0.106427	-0.000015
C24	C	1.171471	0.393573	0.499985
C25	C	0.146600	-0.167171	-0.000027
C26	C	0.646600	0.332829	0.499973
C27	C	0.225543	-0.168430	-0.000029
C28	C	0.725543	0.331570	0.499971
C29	C	0.274161	-0.100095	-0.000025
C30	C	0.774161	0.399905	0.499975
C31	C	0.243831	-0.030496	-0.000026
C32	C	0.743831	0.469504	0.499974
C33	C	0.164889	-0.029238	-0.000029
C34	C	0.664889	0.470762	0.499971
C35	C	0.562197	-0.035569	-0.000014
C36	C	1.062197	0.464431	0.499986
C37	C	0.641144	-0.036833	-0.000008
C38	C	1.141144	0.463167	0.499992
C39	C	0.622852	-0.174762	-0.000014
C40	C	1.122852	0.325238	0.499986
C41	C	0.543909	-0.173503	-0.000017
C42	C	1.043909	0.326497	0.499983
C43	C	0.513587	-0.103905	-0.000022
C44	C	1.013587	0.396095	0.499978
C45	C	0.427987	-0.102541	-0.000021
C46	C	0.927987	0.397459	0.499979
C47	C	0.359759	-0.101459	-0.000020
C48	C	0.859759	0.398541	0.499980
C49	C	1.032258	-0.096233	-0.000020
C50	C	1.532258	0.403767	0.499980
C51	C	1.116275	-0.097578	-0.000026
C52	C	1.616275	0.402422	0.499974
C53	C	0.899653	0.036383	-0.000010
C54	C	1.399653	0.536383	0.499990
C55	C	0.898314	0.120402	-0.000009
C56	C	1.398314	0.620402	0.499991
C57	C	0.888093	-0.240388	-0.000026
C58	C	1.388093	0.259612	0.499974
C59	C	0.889431	-0.324406	-0.000031
C60	C	1.389431	0.175594	0.499969
N61	N	0.893854	-0.101991	0.206532
N62	N	1.393854	0.398009	0.706532
C63	C	0.966647	0.169017	-0.000009
C64	C	1.466647	0.669017	0.499991
C65	C	0.965385	0.247961	-0.000016
C66	C	1.465385	0.747961	0.499984
C67	C	0.895789	0.278287	-0.000018
C68	C	1.395789	0.778287	0.499982
C69	C	0.827451	0.229665	-0.000021
C70	C	1.327451	0.729665	0.499979
C71	C	0.828714	0.150723	-0.000019
C72	C	1.328714	0.650723	0.499981
C73	C	0.822356	0.548028	-0.000027
C74	C	1.322356	1.048028	0.499973
C75	C	0.821098	0.626976	-0.000026
C76	C	1.321098	1.126976	0.499974
C77	C	0.959026	0.645266	-0.000024
C78	C	1.459026	1.145266	0.499976
C79	C	0.960289	0.566324	-0.000022
C80	C	1.460289	1.066324	0.499978
C81	C	0.891952	0.517709	-0.000029
C82	C	1.391952	1.017709	0.499971
C83	C	0.893321	0.432110	-0.000023
C84	C	1.393321	0.932110	0.499977
C85	C	0.894419	0.363885	-0.000018
C86	C	1.394419	0.863885	0.499982
N87	N	0.893897	-0.102008	-0.206566
N88	N	1.393897	0.397992	0.293434
C89	C	0.945418	-0.050467	0.248252
C90	C	1.445418	0.449533	0.748252
C91	C	0.945422	-0.050466	0.331704
C92	C	1.445422	0.449534	0.831704
C93	C	0.893866	-0.101994	0.373435
C94	C	1.393866	0.398006	0.873435
C95	C	0.842296	-0.153520	0.331709
C96	C	1.342296	0.346480	0.831709
C97	C	0.842289	-0.153516	0.248259
C98	C	1.342289	0.346484	0.748259
C99	C	0.842324	-0.153535	0.668257
C100	C	1.342324	0.346465	1.168257
C101	C	0.842336	-0.153536	0.751713
C102	C	1.342336	0.346464	1.251713
C103	C	0.945457	-0.050485	0.751702
C104	C	1.445457	0.449515	1.251702
C105	C	0.945450	-0.050481	0.668251
C106	C	1.445450	0.449519	1.168251
C107	C	0.893878	-0.102004	0.626533
C108	C	1.393878	0.397996	1.126533
C109	C	0.893873	-0.102004	0.536045
C110	C	1.393873	0.397996	1.036045
C111	C	0.893874	-0.101999	0.463922
C112	C	1.393874	0.398001	0.963922
H113	H	0.504328	-0.229149	-0.000017
H114	H	1.004328	0.270851	0.499983
Br115	Br	0.080626	-0.259917	-0.000024
Br116	Br	0.580626	0.240083	0.499976
Br117	Br	0.772337	-0.223458	0.611643
Br118	Br	1.272337	0.276542	1.111643
Br119	Br	1.054744	0.525172	-0.000020
Br120	Br	1.554744	1.025172	0.499980
H121	H	1.014670	0.684858	-0.000022
H122	H	1.514670	1.184858	0.499978
H123	H	0.283422	0.025143	-0.000027
H124	H	0.783422	0.525143	0.499973
H125	H	0.764421	0.651664	-0.000026
H126	H	1.264421	1.151664	0.499974
H127	H	0.987405	-0.008511	0.214280
H128	H	1.487405	0.491489	0.714280
H129	H	0.766711	0.508455	-0.000033
H130	H	1.266711	1.008455	0.499967
Br131	Br	1.015448	0.019443	0.808323
Br132	Br	1.515448	0.519443	1.308323
Br133	Br	0.123733	0.065214	-0.000031
Br134	Br	0.623733	0.565214	0.499969
H135	H	0.800314	-0.195472	0.365691
H136	H	1.300314	0.304528	0.865691
H137	H	0.647550	-0.231432	-0.000013
H138	H	1.147550	0.268568	0.499987
H139	H	0.250230	-0.225100	-0.000038
H140	H	0.750230	0.274900	0.499962
H141	H	0.680728	0.018817	-0.000006
H142	H	1.180728	0.518817	0.499994
Br143	Br	0.772363	-0.223471	0.808348
Br144	Br	1.272363	0.276529	1.308348
Br145	Br	1.015425	0.019446	0.611619
Br146	Br	1.515425	0.519446	1.111619
H147	H	0.537518	0.021102	-0.000016
H148	H	1.037518	0.521102	0.499984
H149	H	1.023320	0.144333	-0.000002
H150	H	1.523320	0.644333	0.499998
Br151	Br	0.772301	-0.223440	0.191639
Br152	Br	1.272301	0.276560	0.691639
H153	H	1.021028	0.287541	-0.000014
H154	H	1.521028	0.787541	0.499986
Br155	Br	0.732998	0.270820	-0.000037
Br156	Br	1.232998	0.770820	0.499963
H157	H	0.773070	0.111140	-0.000020
H158	H	1.273070	0.611140	0.499980
Br159	Br	1.015400	0.019462	0.388327
Br160	Br	1.515400	0.519462	0.888327
