data_functionalizedCrystal
_audit_creation_method	'MofGen! by Chris Wilmer'
_symmetry_space_group_name_H-M	'P1'
_symmetry_Int_Tables_number	1
_symmetry_cell_setting	triclinic
loop_
_symmetry_equiv_pos_as_xyz
  x,y,z
_cell_length_a	12.759401
_cell_length_b	16.959453
_cell_length_c	16.959455
_cell_angle_alpha	90.014910
_cell_angle_beta	90.000889
_cell_angle_gamma	90.021513
loop_
_atom_site_label
_atom_site_type_symbol
_atom_site_fract_x
_atom_site_fract_y
_atom_site_fract_z
Zn1	Zn	1.606020	-0.314760	0.446890
Zn2	Zn	1.605956	-0.446915	0.314710
Zn3	Zn	1.430380	-0.314758	0.314729
Zn4	Zn	1.430294	-0.446904	0.446850
O5	O	1.518163	-0.380834	0.380795
O6	O	1.753032	-0.332296	0.429365
O7	O	1.582675	-0.429388	0.204102
O8	O	1.453742	-0.204147	0.332285
O9	O	1.752986	-0.429390	0.332253
O10	O	1.582783	-0.204149	0.429383
O11	O	1.453680	-0.332293	0.204116
O12	O	1.283348	-0.332282	0.332247
O13	O	1.453595	-0.429371	0.557466
O14	O	1.283285	-0.429369	0.429315
O15	O	1.582700	-0.332285	0.557496
O16	O	1.582592	-0.557524	0.332214
O17	O	1.453534	-0.557516	0.429296
C18	C	1.245195	-0.380824	0.380779
C19	C	1.128419	-0.380839	0.380791
C20	C	1.518075	-0.586200	0.380766
C21	C	1.518134	-0.674057	0.380780
C22	C	1.073551	-0.431469	0.431255
C23	C	0.963827	-0.431472	0.431271
C24	C	0.963847	-0.330213	0.330352
C25	C	1.073569	-0.330207	0.330340
C26	C	1.585441	-1.045475	0.431449
C27	C	1.451178	-1.045590	0.330258
C28	C	1.451139	-0.963044	0.330240
C29	C	1.518251	-0.921710	0.380828
C30	C	1.585402	-0.962921	0.431434
C31	C	1.383982	-0.921827	0.279640
C32	C	1.383939	-0.839276	0.279620
C33	C	1.451057	-0.797940	0.330205
C34	C	1.518212	-0.839156	0.380813
C35	C	1.585323	-0.797822	0.431401
C36	C	1.652484	-0.839037	0.482005
C37	C	1.652519	-0.921585	0.482019
C38	C	1.451022	-0.715392	0.330192
C39	C	1.585284	-0.715268	0.431386
C40	C	1.792196	-0.380844	0.380811
C41	C	1.908972	-0.380849	0.380818
C42	C	1.518145	-0.380827	0.586963
C43	C	1.518138	-0.380824	0.674819
C44	C	1.518279	-0.174666	0.380841
C45	C	1.518329	-0.086809	0.380861
C46	C	1.450934	-0.431393	1.046282
C47	C	1.585373	-0.330297	1.046308
C48	C	1.585369	-0.330291	0.963762
C49	C	1.518148	-0.380837	0.922472
C50	C	1.450931	-0.431390	0.963729
C51	C	1.652592	-0.279744	0.922500
C52	C	1.652592	-0.279736	0.839949
C53	C	1.585366	-0.330279	0.798658
C54	C	1.518145	-0.380834	0.839919
C55	C	1.450924	-0.431380	0.798629
C56	C	1.383697	-0.481931	0.839889
C57	C	1.383704	-0.481933	0.922438
C58	C	1.585359	-0.330277	0.716109
C59	C	1.450921	-0.431377	0.716076
C60	C	1.518166	-0.380855	1.175428
C61	C	1.518155	-0.380847	1.087572
H62	H	0.919159	-0.472699	0.472365
C63	C	0.974889	-0.230120	0.230599
C64	C	0.903555	-0.274564	0.274893
H65	H	0.937666	-0.195763	0.196363
H66	H	1.017664	-0.264509	0.200300
H67	H	1.017704	-0.199937	0.265097
H68	H	0.860745	-0.304752	0.240395
H69	H	0.860762	-0.240171	0.305194
H70	H	1.118244	-0.288973	0.289247
C71	C	1.399673	-0.565238	1.071651
C72	C	1.377041	-0.486959	1.091628
H73	H	1.354049	-0.599540	1.099643
H74	H	1.470246	-0.576803	1.085184
H75	H	1.390054	-0.572459	1.016577
H76	H	1.386667	-0.479736	1.146702
H77	H	1.306450	-0.475389	1.078101
H78	H	1.639939	-0.681619	0.472579
H79	H	1.640124	-1.079036	0.472648
C80	C	1.391632	-1.172182	0.285350
C81	C	1.377416	-1.091023	0.274650
H82	H	1.346097	-1.200231	0.251012
H83	H	1.376191	-1.185690	0.338443
H84	H	1.462247	-1.185668	0.273836
H85	H	1.306802	-1.077536	0.286170
H86	H	1.392849	-1.077510	0.221544
H87	H	1.640106	-0.289149	1.079931
C88	C	1.206138	-0.947377	0.241031
C89	C	1.310217	-0.967267	0.224040
H90	H	1.160600	-0.975438	0.206707
H91	H	1.196500	-0.892324	0.233774
H92	H	1.190725	-0.960893	0.294135
H93	H	1.325631	-0.953745	0.170938
H94	H	1.319859	-1.022332	0.231291
H95	H	1.707122	-0.805373	0.523198
C96	C	1.712288	-0.234871	1.049053
C97	C	1.726487	-0.224194	0.967885
H98	H	1.757908	-0.200572	1.077073
H99	H	1.727625	-0.287977	1.062558
H100	H	1.641704	-0.223292	1.062577
H101	H	1.797070	-0.235779	0.954361
H102	H	1.711158	-0.171076	0.954375
C103	C	1.196964	-0.442605	0.537542
C104	C	1.133846	-0.487116	0.486715
H105	H	1.234189	-0.476960	0.571779
H106	H	1.154179	-0.408222	0.567840
H107	H	1.245343	-0.412456	0.507476
H108	H	1.085462	-0.517261	0.516781
H109	H	1.176635	-0.521513	0.456415
H110	H	1.707197	-0.955150	0.523219
H111	H	1.329255	-0.805724	0.238415
H112	H	1.396336	-0.681838	0.288994
H113	H	1.396171	-0.472531	0.682463
C114	C	1.324012	-0.526809	0.713330
C115	C	1.309808	-0.537490	0.794498
H116	H	1.278393	-0.561105	0.685307
H117	H	1.394589	-0.538383	0.699810
H118	H	1.308670	-0.473696	0.699827
H119	H	1.325159	-0.590602	0.808002
H120	H	1.239215	-0.525922	0.808024
C121	C	1.332451	-0.615778	0.947812
C122	C	1.309821	-0.537499	0.967792
H123	H	1.286836	-0.650081	0.975812
H124	H	1.403029	-0.627341	0.961335
H125	H	1.322819	-0.623000	0.892740
H126	H	1.319461	-0.530275	1.022864
H127	H	1.239226	-0.525932	0.954274
C128	C	1.785475	-0.179800	0.848275
C129	C	1.726476	-0.224165	0.794600
H130	H	1.831080	-0.145489	0.820276
H131	H	1.825648	-0.214242	0.880455
H132	H	1.739707	-0.149571	0.880488
H133	H	1.772244	-0.254399	0.762391
H134	H	1.686301	-0.189719	0.762406
H135	H	1.640097	-0.289122	0.682519
