data_functionalizedCrystal
_audit_creation_method	'MofGen! by Chris Wilmer'
_symmetry_space_group_name_H-M	'P1'
_symmetry_Int_Tables_number	1
_symmetry_cell_setting	triclinic
loop_
_symmetry_equiv_pos_as_xyz
  x,y,z
_cell_length_a	15.995350
_cell_length_b	17.699083
_cell_length_c	16.776229
_cell_angle_alpha	90.001114
_cell_angle_beta	89.995580
_cell_angle_gamma	96.612305
loop_
_atom_site_label
_atom_site_type_symbol
_atom_site_fract_x
_atom_site_fract_y
_atom_site_fract_z
O1	O	0.105885	-1.004255	-0.066173
O2	O	0.439219	-0.670921	0.267161
O3	O	0.772552	-0.337588	0.600494
O4	O	0.119661	-0.783899	-0.066198
O5	O	0.452994	-0.450566	0.267135
O6	O	0.786328	-0.117232	0.600469
O7	O	-0.009127	-0.900100	-0.066184
O8	O	0.324207	-0.566767	0.267149
O9	O	0.657540	-0.233434	0.600483
O10	O	0.234673	-0.888053	-0.066187
O11	O	0.568006	-0.554720	0.267147
O12	O	0.901340	-0.221387	0.600480
O13	O	-0.009135	-0.900085	0.066393
O14	O	0.324199	-0.566752	0.399726
O15	O	0.657532	-0.233418	0.733059
O16	O	0.119653	-0.783884	0.066378
O17	O	0.452986	-0.450550	0.399712
O18	O	0.786320	-0.117217	0.733045
O19	O	0.105877	-1.004239	0.066404
O20	O	0.439211	-0.670906	0.399737
O21	O	0.772544	-0.337572	0.733071
Zn22	Zn	0.112764	-0.894059	0.087441
Zn23	Zn	0.446097	-0.560726	0.420774
Zn24	Zn	0.779431	-0.227392	0.754107
Zn25	Zn	0.112774	-0.894079	-0.087235
Zn26	Zn	0.446108	-0.560746	0.246099
Zn27	Zn	0.779441	-0.227413	0.579432
O28	O	0.234665	-0.888038	0.066390
O29	O	0.567998	-0.554704	0.399723
O30	O	0.901332	-0.221371	0.733056
C31	C	0.119163	-0.755694	0.000087
C32	C	0.452497	-0.422360	0.333420
C33	C	0.785830	-0.089027	0.666753
C34	C	0.117683	-0.671673	0.000077
C35	C	0.451016	-0.338340	0.333410
C36	C	0.784349	-0.005006	0.666744
C37	C	-0.040324	-0.899595	0.000103
C38	C	0.293009	-0.566261	0.333436
C39	C	0.626342	-0.232928	0.666769
C40	C	-0.133272	-0.898101	0.000098
C41	C	0.200062	-0.564768	0.333431
C42	C	0.533395	-0.231435	0.666765
C43	C	0.106375	-1.032445	0.000117
C44	C	0.439708	-0.699111	0.333451
C45	C	0.773042	-0.365778	0.666784
C46	C	0.107856	-1.116465	0.000122
C47	C	0.441189	-0.783132	0.333455
C48	C	0.774522	-0.449799	0.666789
C49	C	-0.471008	-0.892739	0.000100
C50	C	-0.137675	-0.559406	0.333433
C51	C	0.195658	-0.226073	0.666767
C52	C	-0.423406	-0.809983	-0.000207
C53	C	-0.090073	-0.476649	0.333127
C54	C	0.243261	-0.143316	0.666460
C55	C	-0.326719	-0.811476	0.000092
C56	C	0.006615	-0.478143	0.333426
C57	C	0.339948	-0.144810	0.666759
C58	C	-0.303453	-0.895399	0.000099
C59	C	0.029880	-0.562066	0.333432
C60	C	0.363213	-0.228732	0.666765
C61	C	-0.344618	-0.936209	0.075810
C62	C	-0.011285	-0.602875	0.409143
C63	C	0.322048	-0.269542	0.742476
C64	C	-0.441250	-0.934130	0.075873
C65	C	-0.107917	-0.600796	0.409206
C66	C	0.225417	-0.267463	0.742540
C67	C	-0.441602	-0.935857	-0.074891
C68	C	-0.108269	-0.602523	0.258442
C69	C	0.225064	-0.269190	0.591775
C70	C	-0.344657	-0.935837	-0.075892
C71	C	-0.011324	-0.602504	0.257442
C72	C	0.322010	-0.269171	0.590775
C73	C	-0.208759	-0.896907	0.000101
C74	C	0.124574	-0.563573	0.333434
C75	C	0.457908	-0.230240	0.666767
C76	C	-0.565703	-0.891234	0.000104
C77	C	-0.232370	-0.557901	0.333437
C78	C	0.100964	-0.224567	0.666770
C79	C	0.265863	-0.888544	0.000101
C80	C	0.599196	-0.555210	0.333435
C81	C	0.932529	-0.221877	0.666768
C82	C	0.358810	-0.890037	0.000101
C83	C	0.692143	-0.556703	0.333434
C84	C	1.025477	-0.223370	0.666767
N85	N	0.112756	-0.894051	0.206652
N86	N	0.446090	-0.560717	0.539985
N87	N	0.779423	-0.227384	0.873318
C88	C	0.193278	-0.623178	0.000076
C89	C	0.526612	-0.289844	0.333410
C90	C	0.859945	0.043489	0.666743
C91	C	0.191882	-0.544232	0.000087
C92	C	0.525215	-0.210899	0.333420
C93	C	0.858549	0.122435	0.666753
C94	C	0.114889	-0.513783	0.000092
C95	C	0.448222	-0.180450	0.333425
C96	C	0.781556	0.152883	0.666759
C97	C	0.039287	-0.562285	0.000095
C98	C	0.372621	-0.228951	0.333428
C99	C	0.705954	0.104382	0.666762
C100	C	0.040685	-0.641229	0.000090
C101	C	0.374018	-0.307895	0.333424
C102	C	0.707351	0.025438	0.666757
C103	C	0.033651	-0.243912	0.000115
C104	C	0.366984	0.089421	0.333448
C105	C	0.700317	0.422754	0.666781
C106	C	0.032259	-0.164962	0.000117
C107	C	0.365592	0.168371	0.333450
C108	C	0.698926	0.501705	0.666784
C109	C	0.184848	-0.146916	0.000111
C110	C	0.518181	0.186418	0.333444
C111	C	0.851515	0.519751	0.666778
C112	C	0.186245	-0.225860	0.000106
C113	C	0.519579	0.107474	0.333440
C114	C	0.852912	0.440807	0.666773
C115	C	0.110644	-0.274354	0.000114
C116	C	0.443977	0.058979	0.333447
C117	C	0.777311	0.392312	0.666780
C118	C	0.112159	-0.359956	0.000104
C119	C	0.445492	-0.026623	0.333437
C120	C	0.778826	0.306711	0.666771
C121	C	0.113373	-0.428183	0.000096
C122	C	0.446706	-0.094850	0.333429
C123	C	0.780040	0.238484	0.666763
N124	N	0.112775	-0.894094	-0.206446
N125	N	0.446109	-0.560760	0.126887
N126	N	0.779442	-0.227427	0.460221
C127	C	0.055752	-0.945520	0.248375
C128	C	0.389086	-0.612187	0.581708
C129	C	0.722419	-0.278854	0.915042
C130	C	0.055752	-0.945524	0.331827
C131	C	0.389085	-0.612191	0.665161
C132	C	0.722418	-0.278858	0.998494
C133	C	0.112760	-0.894062	0.373555
C134	C	0.446093	-0.560729	0.706888
C135	C	0.779426	-0.227395	1.040221
C136	C	0.169766	-0.842587	0.331825
C137	C	0.503100	-0.509254	0.665159
C138	C	0.836433	-0.175920	0.998492
C139	C	0.169762	-0.842580	0.248375
C140	C	0.503096	-0.509246	0.581708
C141	C	0.836429	-0.175913	0.915041
C142	C	0.169783	-0.842614	0.668373
C143	C	0.503116	-0.509281	1.001706
C144	C	0.836449	-0.175948	1.335039
C145	C	0.169784	-0.842627	0.751829
C146	C	0.503117	-0.509294	1.085162
C147	C	0.836451	-0.175960	1.418496
C148	C	0.055772	-0.945559	0.751825
C149	C	0.389105	-0.612226	1.085159
C150	C	0.722439	-0.278892	1.418492
C151	C	0.055768	-0.945552	0.668375
C152	C	0.389102	-0.612218	1.001708
C153	C	0.722435	-0.278885	1.335041
C154	C	0.112771	-0.894074	0.626653
C155	C	0.446105	-0.560741	0.959986
C156	C	0.779438	-0.227408	1.293319
C157	C	0.112770	-0.894069	0.536164
C158	C	0.446104	-0.560736	0.869498
C159	C	0.779437	-0.227403	1.202831
C160	C	0.112765	-0.894070	0.464041
C161	C	0.446099	-0.560737	0.797375
C162	C	0.779432	-0.227403	1.130708
H163	H	-0.298228	-0.779397	-0.054181
H164	H	0.035105	-0.446063	0.279153
H165	H	0.368438	-0.112730	0.612486
C166	C	0.268012	-0.093564	0.000114
C167	C	0.601345	0.239769	0.333447
C168	C	0.934678	0.573102	0.666780
N169	N	0.330649	-0.053381	0.000115
N170	N	0.663982	0.279952	0.333448
N171	N	0.997315	0.613285	0.666782
C172	C	-0.045406	-0.528788	0.000102
C173	C	0.287927	-0.195455	0.333435
C174	C	0.621261	0.137878	0.666769
N175	N	-0.109199	-0.503560	0.000105
N176	N	0.224134	-0.170226	0.333438
N177	N	0.557468	0.163107	0.666771
C178	C	0.232495	-0.786007	0.797728
C179	C	0.565828	-0.452673	1.131061
C180	C	0.899161	-0.119340	1.464394
N181	N	0.279725	-0.743362	0.832298
N182	N	0.613059	-0.410029	1.165632
N183	N	0.946392	-0.076695	1.498965
C184	C	-0.306210	-0.897896	0.151920
C185	C	0.027123	-0.564563	0.485253
C186	C	0.360456	-0.231229	0.818587
N187	N	-0.277283	-0.869034	0.209245
N188	N	0.056050	-0.535701	0.542578
N189	N	0.389384	-0.202367	0.875911
C190	C	0.275044	-0.490890	0.000100
C191	C	0.608377	-0.157557	0.333433
C192	C	0.941710	0.175777	0.666767
N193	N	0.337685	-0.450713	0.000116
N194	N	0.671018	-0.117380	0.333449
N195	N	1.004351	0.215954	0.666783
H196	H	-0.020873	-0.680714	0.000090
H197	H	0.312460	-0.347380	0.333424
H198	H	0.645793	-0.014047	0.666757
C199	C	-0.448355	-0.765299	-0.073550
C200	C	-0.115021	-0.431966	0.259783
C201	C	0.218312	-0.098632	0.593116
N202	N	-0.467155	-0.731642	-0.128793
N203	N	-0.133821	-0.398308	0.204540
N204	N	0.199512	-0.064975	0.537873
C205	C	-0.324079	-1.018520	-0.082059
C206	C	0.009255	-0.685187	0.251275
C207	C	0.342588	-0.351853	0.584608
N208	N	-0.308583	-1.080801	-0.086696
N209	N	0.024751	-0.747468	0.246637
N210	N	0.358084	-0.414134	0.579971
C211	C	0.232596	-0.786086	0.622489
C212	C	0.565930	-0.452752	0.955823
C213	C	0.899263	-0.119419	1.289156
N214	N	0.279950	-0.743541	0.587927
N215	N	0.613283	-0.410208	0.921261
N216	N	0.946616	-0.076874	1.254594
C217	C	-0.006962	-1.002134	0.202483
C218	C	0.326371	-0.668800	0.535816
C219	C	0.659704	-0.335467	0.869150
N220	N	-0.054204	-1.044774	0.167919
N221	N	0.279130	-0.711441	0.501252
N222	N	0.612463	-0.378107	0.834586
C223	C	0.232468	-0.785971	0.377728
C224	C	0.565801	-0.452637	0.711062
C225	C	0.899134	-0.119304	1.044395
N226	N	0.279696	-0.743326	0.412302
N227	N	0.613029	-0.409992	0.745635
N228	N	0.946362	-0.076659	1.078969
H229	H	-0.298792	-0.779168	0.054450
H230	H	0.034542	-0.445835	0.387784
H231	H	0.367875	-0.112502	0.721117
C232	C	-0.449764	-0.765495	0.072740
C233	C	-0.116430	-0.432161	0.406073
C234	C	0.216903	-0.098828	0.739407
N235	N	-0.469610	-0.731991	0.127691
N236	N	-0.136276	-0.398658	0.461024
N237	N	0.197057	-0.065325	0.794357
H238	H	0.216180	-0.800667	0.214404
H239	H	0.549513	-0.467334	0.547738
H240	H	0.882846	-0.134000	0.881071
H241	H	-0.459494	-0.904358	0.132463
H242	H	-0.126161	-0.571025	0.465797
H243	H	0.207173	-0.237692	0.799130
C244	C	-0.006947	-1.002163	0.622479
C245	C	0.326387	-0.668829	0.955813
C246	C	0.659720	-0.335496	1.289146
N247	N	-0.054188	-1.044800	0.587912
N248	N	0.279145	-0.711467	0.921245
N249	N	0.612479	-0.378134	1.254579
C250	C	-0.006977	-1.002127	0.377719
C251	C	0.326356	-0.668794	0.711053
C252	C	0.659689	-0.335460	1.044386
N253	N	-0.054235	-1.044756	0.412285
N254	N	0.279098	-0.711422	0.745618
N255	N	0.612431	-0.378089	1.078951
C256	C	-0.049513	-0.297246	0.000117
C257	C	0.283820	0.036087	0.333451
C258	C	0.617153	0.369420	0.666784
N259	N	-0.112156	-0.337421	0.000118
N260	N	0.221177	-0.004087	0.333452
N261	N	0.554510	0.329246	0.666785
H262	H	-0.473622	-0.994888	0.079313
H263	H	-0.140288	-0.661554	0.412646
H264	H	0.193045	-0.328221	0.745979
C265	C	-0.469267	-0.899310	-0.152415
C266	C	-0.135934	-0.565977	0.180918
C267	C	0.197399	-0.232643	0.514252
N268	N	-0.490103	-0.871775	-0.210802
N269	N	-0.156769	-0.538441	0.122531
N270	N	0.176564	-0.205108	0.455865
C271	C	-0.325689	-1.019498	0.079633
C272	C	0.007645	-0.686165	0.412966
C273	C	0.340978	-0.352831	0.746300
N274	N	-0.311423	-1.082230	0.082514
N275	N	0.021910	-0.748896	0.415848
N276	N	0.355243	-0.415563	0.749181
C277	C	-0.307711	-0.895567	-0.151561
C278	C	0.025622	-0.562233	0.181773
C279	C	0.358956	-0.228900	0.515106
N280	N	-0.279885	-0.865228	-0.208553
N281	N	0.053448	-0.531894	0.124780
N282	N	0.386781	-0.198561	0.458114
H283	H	0.248941	-0.250646	0.000098
H284	H	0.582274	0.082687	0.333432
H285	H	0.915607	0.416020	0.666765
C286	C	-0.006941	-1.002179	0.797727
C287	C	0.326393	-0.668846	1.131060
C288	C	0.659726	-0.335513	1.464393
N289	N	-0.054174	-1.044825	0.832299
N290	N	0.279159	-0.711492	1.165632
N291	N	0.612493	-0.378158	1.498965
H292	H	-0.473487	-0.996873	-0.075395
H293	H	-0.140154	-0.663539	0.257938
H294	H	0.193179	-0.330206	0.591271
H295	H	-0.030442	-0.140174	0.000122
H296	H	0.302892	0.193159	0.333456
H297	H	0.636225	0.526492	0.666789
H298	H	0.255975	-0.647962	0.000071
H299	H	0.589308	-0.314629	0.333405
H300	H	0.922642	0.018704	0.666738
