data_functionalizedCrystal
_audit_creation_method	'MofGen! by Chris Wilmer'
_symmetry_space_group_name_H-M	'P1'
_symmetry_Int_Tables_number	1
_symmetry_cell_setting	triclinic
loop_
_symmetry_equiv_pos_as_xyz
  x,y,z
_cell_length_a	13.897449
_cell_length_b	18.050589
_cell_length_c	18.050582
_cell_angle_alpha	89.981795
_cell_angle_beta	89.986245
_cell_angle_gamma	90.029500
loop_
_atom_site_label
_atom_site_type_symbol
_atom_site_fract_x
_atom_site_fract_y
_atom_site_fract_z
Zn1	Zn	1.474566	-0.295681	-0.419912
Zn2	Zn	1.724566	-0.045681	-0.169912
Zn3	Zn	1.974566	0.204319	0.080088
Zn4	Zn	2.224566	0.454319	0.330088
Zn5	Zn	1.474450	-0.419865	-0.295731
Zn6	Zn	1.724450	-0.169865	-0.045731
Zn7	Zn	1.974450	0.080135	0.204269
Zn8	Zn	2.224450	0.330135	0.454269
Zn9	Zn	1.313274	-0.295696	-0.295739
Zn10	Zn	1.563274	-0.045696	-0.045739
Zn11	Zn	1.813274	0.204304	0.204261
Zn12	Zn	2.063274	0.454304	0.454261
Zn13	Zn	1.313207	-0.419837	-0.419882
Zn14	Zn	1.563207	-0.169837	-0.169882
Zn15	Zn	1.813207	0.080163	0.080118
Zn16	Zn	2.063207	0.330163	0.330118
O17	O	1.393874	-0.357770	-0.357816
O18	O	1.643874	-0.107770	-0.107816
O19	O	1.893874	0.142230	0.142184
O20	O	2.143874	0.392230	0.392184
O21	O	1.609532	-0.312160	-0.403449
O22	O	1.859532	-0.062160	-0.153449
O23	O	2.109532	0.187840	0.096551
O24	O	2.359532	0.437840	0.346551
O25	O	1.453049	-0.403411	-0.191808
O26	O	1.703049	-0.153411	0.058192
O27	O	1.953049	0.096589	0.308192
O28	O	2.203049	0.346589	0.558192
O29	O	1.334747	-0.191769	-0.312226
O30	O	1.584747	0.058231	-0.062226
O31	O	1.834747	0.308231	0.187774
O32	O	2.084747	0.558231	0.437774
O33	O	1.609447	-0.403397	-0.312214
O34	O	1.859447	-0.153397	-0.062214
O35	O	2.109447	0.096603	0.187786
O36	O	2.359447	0.346603	0.437786
O37	O	1.453247	-0.191759	-0.403455
O38	O	1.703247	0.058241	-0.153455
O39	O	1.953247	0.308241	0.096545
O40	O	2.203247	0.558241	0.346545
O41	O	1.334634	-0.312185	-0.191813
O42	O	1.584634	-0.062185	0.058187
O43	O	1.834634	0.187815	0.308187
O44	O	2.084634	0.437815	0.558187
O45	O	1.178284	-0.312158	-0.312197
O46	O	1.428284	-0.062158	-0.062197
O47	O	1.678284	0.187842	0.187803
O48	O	1.928284	0.437842	0.437803
O49	O	1.334632	-0.403350	-0.523811
O50	O	1.584632	-0.153350	-0.273811
O51	O	1.834632	0.096650	-0.023811
O52	O	2.084632	0.346650	0.226189
O53	O	1.178234	-0.403364	-0.403405
O54	O	1.428234	-0.153364	-0.153405
O55	O	1.678234	0.096636	0.096595
O56	O	1.928234	0.346636	0.346595
O57	O	1.453181	-0.312133	-0.523833
O58	O	1.703181	-0.062133	-0.273833
O59	O	1.953181	0.187867	-0.023833
O60	O	2.203181	0.437867	0.226167
O61	O	1.452984	-0.523786	-0.312185
O62	O	1.702984	-0.273786	-0.062185
O63	O	1.952984	-0.023786	0.187815
O64	O	2.202984	0.226214	0.437815
O65	O	1.334519	-0.523765	-0.403398
O66	O	1.584519	-0.273765	-0.153398
O67	O	1.834519	-0.023765	0.096602
O68	O	2.084519	0.226235	0.346602
C69	C	1.143260	-0.357760	-0.357799
C70	C	1.393260	-0.107760	-0.107799
C71	C	1.643260	0.142240	0.142201
C72	C	1.893260	0.392240	0.392201
C73	C	1.036046	-0.357773	-0.357810
C74	C	1.286046	-0.107773	-0.107810
C75	C	1.536046	0.142227	0.142190
C76	C	1.786046	0.392227	0.392190
C77	C	0.839751	-0.357776	-0.357829
C78	C	1.089751	-0.107776	-0.107829
C79	C	1.339751	0.142224	0.142171
C80	C	1.589751	0.392224	0.392171
C81	C	0.948983	-0.357772	-0.357816
C82	C	1.198983	-0.107772	-0.107816
C83	C	1.448983	0.142228	0.142184
C84	C	1.698983	0.392228	0.392184
C85	C	1.393758	-0.550722	-0.357804
C86	C	1.643758	-0.300722	-0.107804
C87	C	1.893758	-0.050722	0.142196
C88	C	2.143758	0.199278	0.392196
C89	C	1.393796	-0.633268	-0.357823
C90	C	1.643796	-0.383268	-0.107823
C91	C	1.893796	-0.133268	0.142177
C92	C	2.143796	0.116732	0.392177
C93	C	1.329438	-0.832734	-0.407408
C94	C	1.579438	-0.582734	-0.157408
C95	C	1.829438	-0.332734	0.092592
C96	C	2.079438	-0.082734	0.342592
C97	C	1.305932	-0.882168	-0.339641
C98	C	1.555932	-0.632168	-0.089641
C99	C	1.805932	-0.382168	0.160359
C100	C	2.055932	-0.132168	0.410359
C101	C	1.393891	-0.784398	-0.357833
C102	C	1.643891	-0.534398	-0.107833
C103	C	1.893891	-0.284398	0.142167
C104	C	2.143891	-0.034398	0.392167
C105	C	1.417444	-0.882045	-0.425608
C106	C	1.667444	-0.632045	-0.175608
C107	C	1.917444	-0.382045	0.074392
C108	C	2.167444	-0.132045	0.324392
C109	C	1.393981	-0.930383	-0.357848
C110	C	1.643981	-0.680383	-0.107848
C111	C	1.893981	-0.430383	0.142152
C112	C	2.143981	-0.180383	0.392152
C113	C	1.370338	-0.832745	-0.290030
C114	C	1.620338	-0.582745	-0.040030
C115	C	1.870338	-0.332745	0.209970
C116	C	2.120338	-0.082745	0.459970
C117	C	1.481891	-0.832617	-0.376043
C118	C	1.731891	-0.582617	-0.126043
C119	C	1.981891	-0.332617	0.123957
C120	C	2.231891	-0.082617	0.373957
C121	C	1.458419	-0.882029	-0.308229
C122	C	1.708419	-0.632029	-0.058229
C123	C	1.958419	-0.382029	0.191771
C124	C	2.208419	-0.132029	0.441771
C125	C	1.393837	-0.700300	-0.357825
C126	C	1.643837	-0.450300	-0.107825
C127	C	1.893837	-0.200300	0.142175
C128	C	2.143837	0.049700	0.392175
C129	C	1.394035	-1.014479	-0.357849
C130	C	1.644035	-0.764479	-0.107849
C131	C	1.894035	-0.514479	0.142151
C132	C	2.144035	-0.264479	0.392151
C133	C	1.645467	-0.357780	-0.357834
C134	C	1.895467	-0.107780	-0.107834
C135	C	2.145467	0.142220	0.142166
C136	C	2.395467	0.392220	0.392166
C137	C	1.752681	-0.357785	-0.357841
C138	C	2.002681	-0.107785	-0.107841
C139	C	2.252681	0.142215	0.142159
C140	C	2.502681	0.392215	0.392159
C141	C	1.393912	-0.357737	-0.551522
C142	C	1.643912	-0.107737	-0.301522
C143	C	1.893912	0.142263	-0.051522
C144	C	2.143912	0.392263	0.198478
C145	C	1.393928	-0.357723	-0.634068
C146	C	1.643928	-0.107723	-0.384068
C147	C	1.893928	0.142277	-0.134068
C148	C	2.143928	0.392277	0.115932
C149	C	1.394017	-0.164064	-0.357845
C150	C	1.644017	0.085936	-0.107845
C151	C	1.894017	0.335936	0.142155
C152	C	2.144017	0.585936	0.392155
C153	C	1.394078	-0.081518	-0.357857
C154	C	1.644078	0.168482	-0.107857
C155	C	1.894078	0.418482	0.142143
C156	C	2.144078	0.668482	0.392143
C157	C	1.329510	-0.407258	-0.833507
C158	C	1.579510	-0.157258	-0.583507
C159	C	1.829510	0.092742	-0.333507
C160	C	2.079510	0.342742	-0.083507
C161	C	1.417513	-0.425410	-0.882898
C162	C	1.667513	-0.175410	-0.632898
C163	C	1.917513	0.074590	-0.382898
C164	C	2.167513	0.324590	-0.132898
C165	C	1.393976	-0.357666	-0.785198
C166	C	1.643976	-0.107666	-0.535198
C167	C	1.893976	0.142334	-0.285198
C168	C	2.143976	0.392334	-0.035198
C169	C	1.306021	-0.339493	-0.882888
C170	C	1.556021	-0.089493	-0.632888
C171	C	1.806021	0.160507	-0.382888
C172	C	2.056021	0.410507	-0.132888
C173	C	1.394014	-0.357613	-0.931183
C174	C	1.644014	-0.107613	-0.681183
C175	C	1.894014	0.142387	-0.431183
C176	C	2.144014	0.392387	-0.181183
C177	C	1.482025	-0.375853	-0.833502
C178	C	1.732025	-0.125853	-0.583502
C179	C	1.982025	0.124147	-0.333502
C180	C	2.232025	0.374147	-0.083502
C181	C	1.370473	-0.289905	-0.833488
C182	C	1.620473	-0.039905	-0.583488
C183	C	1.870473	0.210095	-0.333488
C184	C	2.120473	0.460095	-0.083488
C185	C	1.458537	-0.308031	-0.882857
C186	C	1.708537	-0.058031	-0.632857
C187	C	1.958537	0.191969	-0.382857
C188	C	2.208537	0.441969	-0.132857
C189	C	1.393952	-0.357699	-0.701100
C190	C	1.643952	-0.107699	-0.451100
C191	C	1.893952	0.142301	-0.201100
C192	C	2.143952	0.392301	0.048900
C193	C	1.394047	-0.357580	-1.015280
C194	C	1.644047	-0.107580	-0.765280
C195	C	1.894047	0.142420	-0.515280
C196	C	2.144047	0.392420	-0.265280
C197	C	1.393892	-0.357749	-0.164864
C198	C	1.643892	-0.107749	0.085136
C199	C	1.893892	0.142251	0.335136
C200	C	2.143892	0.392251	0.585136
C201	C	1.394063	-0.357554	-0.082319
C202	C	1.644063	-0.107554	0.167681
C203	C	1.894063	0.142446	0.417681
C204	C	2.144063	0.392446	0.667681
H205	H	1.274853	-0.811088	-0.449272
H206	H	1.524853	-0.561088	-0.199272
H207	H	1.774853	-0.311088	0.050728
H208	H	2.024853	-0.061088	0.300728
H209	H	1.231622	-0.324145	-0.904582
H210	H	1.481622	-0.074145	-0.654582
H211	H	1.731622	0.175855	-0.404582
H212	H	1.981622	0.425855	-0.154582
H213	H	1.350366	-0.811179	-0.232704
H214	H	1.600366	-0.561179	0.017296
H215	H	1.850366	-0.311179	0.267296
H216	H	2.100366	-0.061179	0.517296
H217	H	1.231555	-0.903950	-0.324253
H218	H	1.481555	-0.653950	-0.074253
H219	H	1.731555	-0.403950	0.175747
H220	H	1.981555	-0.153950	0.425747
H221	H	1.513133	-0.266070	-0.904390
H222	H	1.763133	-0.016070	-0.654390
H223	H	2.013133	0.233930	-0.404390
H224	H	2.263133	0.483930	-0.154390
F225	F	1.529714	-0.910144	-0.253380
F226	F	1.779714	-0.660144	-0.003380
F227	F	2.029714	-0.410144	0.246620
F228	F	2.279714	-0.160144	0.496620
F229	F	1.579087	-0.804148	-0.396198
F230	F	1.829087	-0.554148	-0.146198
F231	F	2.079087	-0.304148	0.103802
F232	F	2.329087	-0.054148	0.353802
H233	H	1.437330	-0.903701	-0.482918
H234	H	1.687330	-0.653701	-0.232918
H235	H	1.937330	-0.403701	0.017082
H236	H	2.187330	-0.153701	0.267082
F237	F	1.258320	-0.462145	-0.805182
F238	F	1.508320	-0.212145	-0.555182
F239	F	1.758320	0.037855	-0.305182
F240	F	2.008320	0.287855	-0.055182
H241	H	1.437415	-0.482692	-0.904601
H242	H	1.687415	-0.232692	-0.654601
H243	H	1.937415	0.017308	-0.404601
H244	H	2.187415	0.267308	-0.154601
H245	H	1.556445	-0.391267	-0.811900
H246	H	1.806445	-0.141267	-0.561900
H247	H	2.056445	0.108733	-0.311900
H248	H	2.306445	0.358733	-0.061900
H249	H	1.350545	-0.232640	-0.811769
H250	H	1.600545	0.017360	-0.561769
H251	H	1.850545	0.267360	-0.311769
H252	H	2.100545	0.517360	-0.061769
