data_functionalizedCrystal
_audit_creation_method	'MofGen! by Chris Wilmer'
_symmetry_space_group_name_H-M	'P1'
_symmetry_Int_Tables_number	1
_symmetry_cell_setting	triclinic
loop_
_symmetry_equiv_pos_as_xyz
  x,y,z
_cell_length_a	15.944545
_cell_length_b	15.944499
_cell_length_c	7.540329
_cell_angle_alpha	89.999656
_cell_angle_beta	89.999825
_cell_angle_gamma	83.486891
loop_
_atom_site_label
_atom_site_type_symbol
_atom_site_fract_x
_atom_site_fract_y
_atom_site_fract_z
O1	O	1.114506	0.108308	-0.147355
O2	O	1.614506	0.608308	0.352645
O3	O	0.869953	0.121670	-0.147382
O4	O	1.369953	0.621670	0.352618
O5	O	0.998930	-0.007289	-0.147370
O6	O	1.498930	0.492711	0.352630
O7	O	0.985528	0.237267	-0.147366
O8	O	1.485528	0.737267	0.352634
O9	O	0.998922	-0.007290	0.147595
O10	O	1.498922	0.492710	0.647595
O11	O	0.869945	0.121669	0.147583
O12	O	1.369945	0.621669	0.647583
O13	O	1.114498	0.108307	0.147610
O14	O	1.614498	0.608307	0.647610
Cu15	Cu	0.992221	0.114988	0.174529
Cu16	Cu	1.492221	0.614988	0.674529
Cu17	Cu	0.992230	0.114990	-0.174301
Cu18	Cu	1.492230	0.614990	0.325699
O19	O	0.985521	0.237266	0.147599
O20	O	1.485521	0.737266	0.647599
C21	C	0.998377	-0.038584	0.000107
C22	C	1.498377	0.461416	0.500107
C23	C	0.996733	-0.131832	0.000094
C24	C	1.496733	0.368168	0.500094
C25	C	0.838655	0.121116	0.000097
C26	C	1.338655	0.621116	0.500097
C27	C	0.745409	0.119456	0.000086
C28	C	1.245409	0.619456	0.500086
C29	C	1.071665	-0.423370	0.000112
C30	C	1.571665	0.076630	0.500112
C31	C	1.032709	-0.362345	0.145547
C32	C	1.532709	0.137655	0.645547
C33	C	0.990756	-0.467469	0.000114
C34	C	1.490756	0.032531	0.500114
C35	C	1.032695	-0.362349	-0.145265
C36	C	1.532695	0.137651	0.354735
C37	C	0.993697	-0.302560	0.000101
C38	C	1.493697	0.197440	0.500101
C39	C	0.951778	-0.407671	0.145669
C40	C	1.451778	0.092329	0.645669
C41	C	0.951776	-0.407683	-0.145274
C42	C	1.451776	0.092317	0.354726
C43	C	0.912761	-0.346675	0.000197
C44	C	1.412761	0.153325	0.500197
C45	C	0.989065	-0.562469	0.000123
C46	C	1.489065	-0.062469	0.500123
C47	C	0.995382	-0.207561	0.000105
C48	C	1.495382	0.292439	0.500105
C49	C	0.474792	0.034560	0.000103
C50	C	0.974792	0.534560	0.500103
C51	C	0.525362	0.075489	0.145542
C52	C	1.025362	0.575489	0.645542
C53	C	0.409766	0.113535	0.000116
C54	C	0.909766	0.613535	0.500116
C55	C	0.525350	0.075512	-0.145271
C56	C	1.025350	0.575512	0.354729
C57	C	0.574679	0.116440	0.000099
C58	C	1.074679	0.616440	0.500099
C59	C	0.459108	0.154443	0.145675
C60	C	0.959108	0.654443	0.645675
C61	C	0.459093	0.154454	-0.145268
C62	C	0.959093	0.654454	0.354732
C63	C	0.509630	0.195441	0.000205
C64	C	1.009630	0.695441	0.500205
C65	C	0.314764	0.111859	0.000128
C66	C	0.814764	0.611859	0.500128
C67	C	0.669678	0.118121	0.000099
C68	C	1.169678	0.618121	0.500099
C69	C	1.145796	0.108861	0.000128
C70	C	1.645796	0.608861	0.500128
C71	C	1.239042	0.110522	0.000127
C72	C	1.739042	0.610522	0.500127
C73	C	0.986073	0.268561	0.000117
C74	C	1.486073	0.768561	0.500117
C75	C	0.987718	0.361810	0.000119
C76	C	1.487718	0.861810	0.500119
N77	N	0.992221	0.114986	0.419878
N78	N	1.492221	0.614986	0.919878
N79	N	0.992237	0.114985	-0.419649
N80	N	1.492237	0.614985	0.080351
H81	H	1.138811	-0.456701	0.000259
H82	H	1.638811	0.043299	0.500259
H83	H	0.430144	0.187779	-0.268228
H84	H	0.930144	0.687779	0.231772
H85	H	0.554277	0.042146	-0.268220
H86	H	1.054277	0.542146	0.231780
H87	H	0.845557	-0.313491	0.000274
H88	H	1.345557	0.186509	0.500274
Cl89	Cl	1.085542	-0.331318	0.335375
Cl90	Cl	1.585542	0.168682	0.835375
Cl91	Cl	0.898985	-0.438517	0.335707
Cl92	Cl	1.398985	0.061483	0.835707
Cl93	Cl	0.414620	0.205897	0.335718
Cl94	Cl	0.914620	0.705897	0.835718
Cl95	Cl	0.898988	-0.438738	-0.335123
Cl96	Cl	1.398988	0.061262	0.164877
H97	H	1.066934	-0.342269	-0.268208
H98	H	1.566934	0.157731	0.231792
H99	H	0.459151	-0.033454	0.000244
H100	H	0.959151	0.466546	0.500244
Cl101	Cl	0.570033	0.023996	0.335378
Cl102	Cl	1.070033	0.523996	0.835378
Cl103	Cl	0.533529	0.300530	0.000326
Cl104	Cl	1.033529	0.800530	0.500326
