data_functionalizedCrystal
_audit_creation_method	'MofGen! by Chris Wilmer'
_symmetry_space_group_name_H-M	'P1'
_symmetry_Int_Tables_number	1
_symmetry_cell_setting	triclinic
loop_
_symmetry_equiv_pos_as_xyz
  x,y,z
_cell_length_a	14.044220
_cell_length_b	12.837942
_cell_length_c	13.101050
_cell_angle_alpha	86.281157
_cell_angle_beta	93.660060
_cell_angle_gamma	94.008909
loop_
_atom_site_label
_atom_site_type_symbol
_atom_site_fract_x
_atom_site_fract_y
_atom_site_fract_z
O1	O	-1.285201	-0.246744	-0.085103
O2	O	-0.785201	0.253256	0.414897
O3	O	-1.008412	-0.237648	-0.085129
O4	O	-0.508412	0.262352	0.414871
O5	O	-1.140669	-0.090726	-0.085110
O6	O	-0.640669	0.409274	0.414890
O7	O	-1.152945	-0.393666	-0.085121
O8	O	-0.652945	0.106334	0.414879
O9	O	-1.131181	-0.101288	0.085319
O10	O	-0.631181	0.398712	0.585319
O11	O	-0.998924	-0.248210	0.085300
O12	O	-0.498924	0.251790	0.585300
O13	O	-1.275713	-0.257306	0.085326
O14	O	-0.775713	0.242694	0.585326
Zn15	Zn	-1.135812	-0.254435	0.112372
Zn16	Zn	-0.635812	0.245565	0.612372
Zn17	Zn	-1.148313	-0.240519	-0.112175
Zn18	Zn	-0.648313	0.259481	0.387825
O19	O	-1.143457	-0.404228	0.085307
O20	O	-0.643457	0.095772	0.585307
C21	C	-0.967994	-0.238948	0.000082
C22	C	-0.467994	0.261052	0.500082
C23	C	-0.861697	-0.227073	0.000072
C24	C	-0.361697	0.272927	0.500072
C25	C	-1.316131	-0.256006	0.000113
C26	C	-0.816131	0.243994	0.500113
C27	C	-1.422429	-0.267880	0.000116
C28	C	-0.922429	0.232120	0.500116
C29	C	-1.131778	-0.057003	0.000103
C30	C	-0.631778	0.442997	0.500103
C31	C	-1.119411	0.059218	0.000101
C32	C	-0.619411	0.559218	0.500101
C33	C	-0.667073	-0.205366	0.000094
C34	C	-0.167073	0.294634	0.500094
C35	C	-0.617047	-0.289583	0.000095
C36	C	-0.117047	0.210417	0.500095
C37	C	-0.508752	-0.277505	0.000106
C38	C	-0.008752	0.222495	0.500106
C39	C	-0.775378	-0.217443	0.000082
C40	C	-0.275378	0.282557	0.500082
C41	C	-1.152347	-0.437951	0.000092
C42	C	-0.652347	0.062049	0.500092
C43	C	-1.164715	-0.554172	0.000088
C44	C	-0.664715	-0.054172	0.500088
N45	N	-1.127288	-0.263933	0.265619
N46	N	-0.627288	0.236067	0.765619
C47	C	-1.268091	0.286428	0.000093
C48	C	-0.768091	0.786428	0.500093
C49	C	-1.256475	0.395629	0.000090
C50	C	-0.756475	0.895629	0.500090
C51	C	-1.084565	0.386821	0.000085
C52	C	-0.584565	0.886821	0.500085
C53	C	-1.096181	0.277620	0.000088
C54	C	-0.596181	0.777620	0.500088
C55	C	-1.187946	0.227428	0.000093
C56	C	-0.687946	0.727428	0.500093
C57	C	-1.199561	0.118226	0.000103
C58	C	-0.699561	0.618226	0.500103
C59	C	-1.027652	0.109420	0.000091
C60	C	-0.527652	0.609420	0.500091
C61	C	-1.016037	0.218620	0.000088
C62	C	-0.516037	0.718620	0.500088
C63	C	-1.115691	-0.276864	0.474660
C64	C	-0.615691	0.223136	0.974660
C65	C	-1.168436	-0.218096	0.525543
C66	C	-0.668436	0.281904	1.025543
C67	C	-1.161984	-0.225291	0.641861
C68	C	-0.661984	0.274709	1.141861
C69	C	-1.122142	-0.269670	0.358332
C70	C	-0.622142	0.230330	0.858332
N71	N	-1.156842	-0.231024	0.734578
N72	N	-0.656842	0.268976	1.234578
H73	H	-0.655550	-0.370755	0.000087
H74	H	-0.155550	0.129245	0.500087
H75	H	-0.941324	0.259502	0.000079
H76	H	-0.441324	0.759502	0.500079
C77	C	-0.983630	0.442051	0.000088
C78	C	-0.483630	0.942051	0.500088
N79	N	-0.907604	0.483651	0.000098
N80	N	-0.407604	0.983651	0.500098
C81	C	-1.048141	-0.352128	0.533823
C82	C	-0.548141	0.147872	1.033823
N83	N	-0.997264	-0.408817	0.578396
N84	N	-0.497264	0.091183	1.078396
H85	H	-1.342809	0.245561	0.000108
H86	H	-0.842809	0.745561	0.500108
C87	C	-0.615060	-0.095713	0.000095
C88	C	-0.115060	0.404287	0.500095
N89	N	-0.575872	-0.013122	0.000092
N90	N	-0.075872	0.486878	0.500092
C91	C	-1.344640	0.460525	0.000097
C92	C	-0.844640	0.960525	0.500097
N93	N	-1.411050	0.509405	0.000104
N94	N	-0.911050	1.009405	0.500104
H95	H	-1.218440	-0.162381	0.481748
H96	H	-0.718440	0.337619	0.981748
C97	C	-1.300504	0.063016	0.000106
C98	C	-0.800504	0.563016	0.500106
N99	N	-1.376538	0.021436	0.000104
N100	N	-0.876538	0.521436	0.500104
H101	H	-0.962393	0.061370	0.000099
H102	H	-0.462393	0.561370	0.500099
