data_functionalizedCrystal
_audit_creation_method	'MofGen! by Chris Wilmer'
_symmetry_space_group_name_H-M	'P1'
_symmetry_Int_Tables_number	1
_symmetry_cell_setting	triclinic
loop_
_symmetry_equiv_pos_as_xyz
  x,y,z
_cell_length_a	10.654556
_cell_length_b	14.421503
_cell_length_c	10.654551
_cell_angle_alpha	89.992837
_cell_angle_beta	84.486385
_cell_angle_gamma	90.008120
loop_
_atom_site_label
_atom_site_type_symbol
_atom_site_fract_x
_atom_site_fract_y
_atom_site_fract_z
O1	O	1.667845	0.077115	0.176418
O2	O	1.302368	0.077114	0.193216
O3	O	1.493509	0.077115	0.002078
O4	O	1.476704	0.077114	0.367556
O5	O	1.493477	-0.077109	0.002106
O6	O	1.302336	-0.077110	0.193244
O7	O	1.667813	-0.077109	0.176446
Cu8	Cu	1.485072	-0.091191	0.184848
Cu9	Cu	1.485109	0.091196	0.184814
O10	O	1.476672	-0.077110	0.367584
C11	C	1.255554	0.000002	0.191995
C12	C	1.116111	0.000002	0.188300
N13	N	1.485054	-0.219472	0.184871
C14	C	0.919598	0.084077	0.183085
C15	C	1.050620	0.084073	0.186550
C16	C	1.050574	-0.084070	0.186573
C17	C	0.919555	-0.084065	0.183100
C18	C	0.919625	0.181153	0.183077
C19	C	1.050647	0.181149	0.186541
C20	C	1.396655	-0.469126	0.273213
C21	C	1.510351	-0.530929	0.298580
C22	C	1.485085	-0.408634	0.184841
C23	C	1.371417	-0.530925	0.159504
C24	C	1.485104	-0.591355	0.184815
C25	C	1.598839	-0.469075	0.210265
C26	C	1.459830	-0.469066	0.071139
C27	C	1.573608	-0.530841	0.096459
C28	C	1.485072	-0.303372	0.184859
C29	C	1.485130	-0.696614	0.184796
C30	C	1.714627	0.000005	0.177667
C31	C	1.854070	0.000011	0.181362
C32	C	1.492259	0.000005	-0.044706
C33	C	1.488566	0.000011	-0.184149
N34	N	1.485136	0.219477	0.184782
C35	C	1.486851	0.084077	-0.249676
C36	C	1.483371	0.084073	-0.380697
C37	C	1.483326	-0.084070	-0.380651
C38	C	1.486797	-0.084065	-0.249632
C39	C	1.486883	0.181153	-0.249704
C40	C	1.483402	0.181149	-0.380725
C41	C	1.477922	0.000002	0.414368
C42	C	1.481615	0.000002	0.553811
H43	H	0.866210	-0.152519	0.181671
H44	H	1.438416	-0.441872	-0.024975
H45	H	1.103908	-0.152522	0.187988
C46	C	1.359667	0.221846	-0.420686
N47	N	1.266470	0.252495	-0.450786
H48	H	1.321950	-0.442029	0.348007
H49	H	1.481883	-0.152522	-0.433984
H50	H	1.570201	0.218422	-0.427021
H51	H	0.894808	0.218430	0.094396
H52	H	0.867926	0.211274	0.272515
C53	C	1.120514	0.221847	0.065701
N54	N	1.173140	0.252497	-0.025316
C55	C	1.084213	0.231494	0.306332
N56	N	1.109495	0.269412	0.396555
C57	C	1.610634	0.221846	-0.209760
N58	N	1.703845	0.252495	-0.179673
H59	H	1.531730	-0.558101	0.394725
C60	C	1.728741	-0.432530	0.239364
N61	N	1.826580	-0.405002	0.261287
C62	C	1.674758	-0.567235	-0.004511
N63	N	1.750948	-0.594653	-0.080553
C64	C	1.369642	0.231505	-0.187187
N65	N	1.281337	0.269427	-0.140099
H66	H	1.275283	-0.558095	0.138085
H67	H	1.488187	-0.152519	-0.196284
