data_functionalizedCrystal
_audit_creation_method	'MofGen! by Chris Wilmer'
_symmetry_space_group_name_H-M	'P1'
_symmetry_Int_Tables_number	1
_symmetry_cell_setting	triclinic
loop_
_symmetry_equiv_pos_as_xyz
  x,y,z
_cell_length_a	16.974897
_cell_length_b	22.610064
_cell_length_c	16.992695
_cell_angle_alpha	89.995894
_cell_angle_beta	87.027201
_cell_angle_gamma	93.659798
loop_
_atom_site_label
_atom_site_type_symbol
_atom_site_fract_x
_atom_site_fract_y
_atom_site_fract_z
O1	O	1.055462	0.099653	0.099965
O2	O	0.826060	0.088685	0.112683
O3	O	0.939841	0.094120	-0.007818
O4	O	0.941681	0.094217	0.220466
O5	O	0.939821	-0.004250	-0.007800
O6	O	0.826040	-0.009685	0.112701
O7	O	1.055441	0.001282	0.099983
Zn8	Zn	0.940737	-0.019820	0.106345
Zn9	Zn	0.940764	0.109787	0.106321
O10	O	0.941660	-0.004153	0.220483
C11	C	0.796561	0.038090	0.112207
C12	C	0.708693	0.033889	0.110751
N13	N	0.940725	-0.108273	0.106360
C14	C	0.667417	0.085532	0.110059
C15	C	0.584854	0.081576	0.108704
C16	C	0.543571	0.025976	0.108034
C17	C	0.584853	-0.025671	0.108729
C18	C	0.667413	-0.021715	0.110090
C19	C	0.296651	0.008393	0.103970
C20	C	0.214085	0.004440	0.102607
C21	C	0.214092	0.111688	0.102584
C22	C	0.296654	0.115640	0.103940
C23	C	0.337929	0.063993	0.104638
N24	N	0.459179	0.021931	0.106646
N25	N	0.422319	0.068038	0.106032
C26	C	0.991149	-0.514506	0.052972
C27	C	0.991153	-0.576425	0.052966
O28	O	1.033993	-0.606398	0.007585
N29	N	0.940763	-0.609808	0.106305
C30	C	0.890359	-0.581269	0.159648
O31	O	0.847498	-0.615349	0.205016
C32	C	0.890352	-0.519350	0.159649
C33	C	0.940752	-0.485970	0.106312
C34	C	1.041544	-0.481126	-0.000362
C35	C	1.041541	-0.419210	-0.000355
C36	C	0.991144	-0.390675	0.052986
C37	C	0.940749	-0.424055	0.106319
C38	C	0.839946	-0.490812	0.212988
C39	C	0.839943	-0.428889	0.212984
C40	C	0.890342	-0.395509	0.159647
C41	C	0.890349	-0.333604	0.159666
N42	N	0.940739	-0.300221	0.106327
C43	C	0.991137	-0.328756	0.052987
C44	C	0.890377	-0.711301	0.159640
C45	C	0.890388	-0.773219	0.159643
C46	C	0.991181	-0.768371	0.052960
C47	C	0.991173	-0.706453	0.052962
C48	C	0.940768	-0.677918	0.106301
C49	C	0.991127	-0.198729	0.053006
C50	C	0.991122	-0.136808	0.053020
C51	C	0.890327	-0.141661	0.159699
C52	C	0.890335	-0.203577	0.159689
C53	C	0.940737	-0.232109	0.106335
O54	O	0.847528	-0.303591	0.205022
O55	O	1.033983	-0.294669	0.007620
C56	C	1.084940	0.051879	0.100459
C57	C	1.172808	0.056084	0.101915
C58	C	0.937465	0.044822	-0.037019
C59	C	0.930406	0.044485	-0.124056
N60	N	0.940783	0.198240	0.106300
C61	C	0.998521	0.047741	-0.174367
C62	C	0.991883	0.047429	-0.256146
C63	C	0.917129	0.043857	-0.287614
C64	C	0.849009	0.040602	-0.237296
C65	C	0.855647	0.040918	-0.155518
C66	C	0.889614	0.042549	-0.531183
C67	C	0.882981	0.042232	-0.612967
C68	C	1.025856	0.049059	-0.631812
C69	C	1.032488	0.049372	-0.550031
C70	C	0.964368	0.046120	-0.499721
N71	N	0.910342	0.043536	-0.371205
N72	N	0.971155	0.046445	-0.416131
C73	C	0.944037	0.045147	0.249685
C74	C	0.951096	0.045488	0.336722
H75	H	0.701024	0.130808	0.110602
F76	F	0.836756	-0.808738	0.216421
F77	F	0.540928	0.136543	0.107969
H78	H	0.822104	0.039314	-0.638584
H79	H	1.082584	-0.504353	-0.043801
H80	H	0.330262	0.160915	0.104479
H81	H	0.330247	-0.033662	0.104534
H82	H	0.701020	-0.063768	0.110656
H83	H	0.180477	0.153736	0.102017
H84	H	0.551233	-0.070942	0.108188
F85	F	1.044772	-0.229086	-0.003779
F86	F	1.112051	0.053188	-0.516548
F87	F	1.044768	-0.101285	-0.003750
F88	F	0.786290	-0.398526	0.269756
H89	H	1.059393	0.050646	-0.148753
F90	F	1.064381	0.050893	-0.309688
F91	F	1.095179	-0.383690	-0.057127
F92	F	0.836694	-0.111282	0.216467
H93	H	0.180473	-0.040839	0.102084
H94	H	1.032212	-0.679278	0.009530
F95	F	1.098349	0.052520	-0.685361
H96	H	1.032216	-0.791616	0.009527
H97	H	0.849333	-0.688072	0.203082
H98	H	0.798906	-0.517982	0.256419
F99	F	0.817114	0.039091	-0.477649
H100	H	0.849303	-0.230755	0.203128
F101	F	0.769449	0.036807	-0.270788
F102	F	0.783150	0.037455	-0.101973
