data_functionalizedCrystal
_audit_creation_method	'MofGen! by Chris Wilmer'
_symmetry_space_group_name_H-M	'P1'
_symmetry_Int_Tables_number	1
_symmetry_cell_setting	triclinic
loop_
_symmetry_equiv_pos_as_xyz
  x,y,z
_cell_length_a	14.971486
_cell_length_b	15.944551
_cell_length_c	14.048226
_cell_angle_alpha	89.992615
_cell_angle_beta	89.998499
_cell_angle_gamma	83.556434
loop_
_atom_site_label
_atom_site_type_symbol
_atom_site_fract_x
_atom_site_fract_y
_atom_site_fract_z
O1	O	1.186829	0.109463	-0.079053
O2	O	0.926415	0.122572	-0.079079
O3	O	1.063733	-0.006251	-0.079057
O4	O	1.049510	0.238286	-0.079076
O5	O	1.063717	-0.006258	0.079264
O6	O	0.926398	0.122564	0.079242
O7	O	1.186812	0.109456	0.079268
Zn8	Zn	1.056603	0.116009	0.104392
Zn9	Zn	1.056624	0.116019	-0.104203
O10	O	1.049494	0.238278	0.079246
C11	C	0.893082	0.121982	0.000078
C12	C	0.793787	0.120225	0.000068
C13	C	0.736480	0.195904	0.000064
C14	C	0.643182	0.194249	0.000078
C15	C	0.607194	0.116913	0.000090
C16	C	0.664508	0.041227	0.000097
C17	C	0.757804	0.042884	0.000090
C18	C	0.470049	0.037780	0.000111
C19	C	0.376747	0.036123	0.000116
C20	C	0.355428	0.189145	0.000099
C21	C	0.448724	0.190801	0.000092
C22	C	0.506032	0.115116	0.000097
C23	C	1.063134	-0.037549	0.000104
C24	C	1.061364	-0.130797	0.000104
C25	C	0.972017	-0.345738	0.000082
C26	C	1.013499	-0.406720	0.078148
C27	C	1.058162	-0.301526	0.000096
C28	C	1.013535	-0.406696	-0.077944
C29	C	1.055062	-0.466441	0.000085
C30	C	1.099667	-0.361279	0.078227
C31	C	1.099692	-0.361248	-0.077935
C32	C	1.141236	-0.422212	0.000150
C33	C	1.059945	-0.206522	0.000104
C34	C	1.053286	-0.561444	0.000084
C35	C	1.220145	0.110046	0.000109
C36	C	1.319440	0.111802	0.000112
C37	C	1.050093	0.269576	0.000083
C38	C	1.051863	0.362824	0.000076
N39	N	1.056594	0.116001	0.246753
N40	N	1.056640	0.116019	-0.246564
C41	C	1.117418	0.058982	0.296581
C42	C	1.117424	0.058982	0.396238
C43	C	1.056610	0.116005	0.446066
C44	C	0.995780	0.173027	0.396231
C45	C	0.995770	0.173022	0.296575
C46	C	0.995806	0.173033	0.603945
C47	C	0.995816	0.173038	0.703608
C48	C	1.117459	0.058992	0.703608
C49	C	1.117450	0.058988	0.603952
C50	C	1.056621	0.116011	0.554124
H51	H	0.308763	0.250771	0.000099
N52	N	1.179565	0.000712	0.754498
N53	N	1.151167	-0.051478	0.810094
H54	H	1.195023	-0.092646	0.846033
N55	N	0.339998	-0.042880	0.000131
N56	N	0.391172	-0.110449	0.000145
H57	H	0.365219	-0.166247	0.000157
N58	N	0.816357	-0.034413	0.000081
N59	N	0.899655	-0.032925	0.000074
H60	H	0.941010	-0.087518	0.000070
H61	H	0.516708	-0.023852	0.000117
H62	H	0.765774	0.258881	0.000053
N63	N	1.179621	0.000780	0.553067
N64	N	1.233955	-0.050103	0.597565
H65	H	1.277879	-0.091200	0.561628
N66	N	0.933673	0.231293	0.553060
N67	N	0.934906	0.308934	0.564177
H68	H	0.891030	0.350084	0.528239
N69	N	1.179524	0.000702	0.447126
N70	N	1.151118	-0.051490	0.502714
H71	H	1.194969	-0.092669	0.538645
N72	N	0.933681	0.231281	0.754493
N73	N	0.879363	0.282178	0.709996
H74	H	0.835475	0.323310	0.745933
N75	N	0.967801	-0.432003	0.160941
N76	N	0.996350	-0.416568	0.241961
H77	H	0.964072	-0.434421	0.300432
N78	N	0.933654	0.231282	0.447111
N79	N	0.879349	0.282186	0.402607
H80	H	0.835471	0.323331	0.438538
N81	N	0.967840	-0.431937	-0.160749
N82	N	1.008279	-0.481688	-0.219201
H83	H	0.976003	-0.499512	-0.277679
N84	N	1.145381	-0.335957	-0.160723
N85	N	1.176059	-0.389963	-0.220220
H86	H	1.208322	-0.372101	-0.278697
H87	H	0.900512	-0.312499	0.000153
N88	N	1.145331	-0.336156	0.161108
N89	N	1.154029	-0.259999	0.174504
H90	H	1.186276	-0.242252	0.233039
N91	N	1.231011	-0.463734	0.000188
N92	N	1.283470	-0.451110	-0.066196
H93	H	1.346873	-0.480437	-0.066167
N94	N	1.179486	0.000696	0.245670
N95	N	1.178196	-0.076937	0.256822
H96	H	1.222012	-0.118116	0.220858
N97	N	0.584658	0.271562	0.000079
N98	N	0.616802	0.340606	0.000064
H99	H	0.575469	0.395213	0.000066
N100	N	0.485473	0.269804	0.000065
N101	N	0.434298	0.337373	0.000058
H102	H	0.460251	0.393171	0.000040
N103	N	0.933643	0.231280	0.245689
N104	N	0.934869	0.308922	0.256804
H105	H	0.890987	0.350068	0.220867
N106	N	0.627749	-0.037770	0.000130
N107	N	0.578072	-0.055768	0.066873
H108	H	0.552112	-0.111562	0.066895
