data_functionalizedCrystal
_audit_creation_method	'MofGen! by Chris Wilmer'
_symmetry_space_group_name_H-M	'P1'
_symmetry_Int_Tables_number	1
_symmetry_cell_setting	triclinic
loop_
_symmetry_equiv_pos_as_xyz
  x,y,z
_cell_length_a	16.956995
_cell_length_b	16.992700
_cell_length_c	16.053802
_cell_angle_alpha	92.734161
_cell_angle_beta	87.607939
_cell_angle_gamma	83.360821
loop_
_atom_site_label
_atom_site_type_symbol
_atom_site_fract_x
_atom_site_fract_y
_atom_site_fract_z
O1	O	1.063242	0.028855	-0.069491
O2	O	0.832832	0.056269	-0.069484
O3	O	0.947113	-0.071519	-0.069466
O4	O	0.948961	0.156644	-0.069509
O5	O	0.940821	-0.064513	0.069392
O6	O	0.826540	0.063276	0.069374
O7	O	1.056950	0.035862	0.069367
Zn8	Zn	0.940746	0.050682	0.091417
Zn9	Zn	0.949036	0.041450	-0.091534
O10	O	0.942669	0.163651	0.069349
C11	C	0.800067	0.061176	-0.000054
C12	C	0.711812	0.065350	-0.000050
C13	C	0.214503	0.096566	-0.000087
C14	C	0.297428	0.092639	-0.000085
C15	C	0.343818	0.018927	-0.000065
C16	C	0.307280	-0.050863	-0.000055
C17	C	0.224357	-0.046935	-0.000063
C18	C	0.592351	-0.000513	-0.000047
C19	C	0.675280	-0.004435	-0.000037
C20	C	0.665421	0.139067	-0.000069
C21	C	0.582497	0.142988	-0.000071
C22	C	0.545966	0.073199	-0.000066
N23	N	0.428581	0.014912	-0.000061
N24	N	0.461205	0.077215	-0.000076
C25	C	0.941591	-0.097074	-0.000033
C26	C	0.934501	-0.183658	-0.000022
C27	C	1.089715	0.030955	-0.000065
C28	C	1.177970	0.026782	-0.000074
C29	C	0.886867	-0.669534	-0.000097
C30	C	0.893534	-0.588180	-0.000089
C31	C	0.968617	-0.561502	-0.000080
C32	C	1.037037	-0.616185	-0.000087
C33	C	1.030369	-0.697538	-0.000101
C34	C	0.996253	-0.319695	-0.000044
C35	C	1.002916	-0.238334	-0.000027
C36	C	0.859412	-0.210335	-0.000030
C37	C	0.852751	-0.291691	-0.000039
C38	C	0.921171	-0.346366	-0.000051
N39	N	0.975434	-0.478345	-0.000069
N40	N	0.914354	-0.429522	-0.000068
C41	C	0.948191	0.189206	-0.000085
C42	C	0.955282	0.275790	-0.000102
N43	N	0.935094	0.056981	0.216277
N44	N	0.954694	0.035144	-0.216393
C45	C	0.983741	0.002624	0.259978
C46	C	0.979795	0.007037	0.347384
C47	C	0.927206	0.065812	0.391087
C48	C	0.878553	0.120172	0.347380
C49	C	0.882496	0.115755	0.259975
C50	C	0.909984	0.085086	0.652494
C51	C	0.906047	0.089501	0.739905
C52	C	1.007288	-0.023635	0.739904
C53	C	1.011229	-0.028044	0.652497
C54	C	0.962574	0.026313	0.608797
N55	N	0.923173	0.070326	0.480431
N56	N	0.966603	0.021795	0.519456
H57	H	0.713050	-0.064463	-0.000025
N58	N	0.532457	0.222497	0.000018
H59	H	0.568182	0.266113	0.000046
H60	H	0.500126	0.224728	-0.051426
H61	H	0.863220	0.137366	0.775484
N62	N	0.819745	-0.529207	-0.000085
H63	H	0.771169	-0.558452	-0.000088
H64	H	0.817052	-0.492260	0.051396
H65	H	0.842881	0.160017	0.224394
N66	N	1.032274	-0.051585	0.394517
H67	H	1.021796	-0.039873	0.456519
H68	H	1.020268	-0.107166	0.379258
H69	H	0.562618	-0.057340	-0.000040
N70	N	0.857511	0.143725	0.605379
H71	H	0.891691	0.174519	0.569095
H72	H	0.822086	0.114263	0.569185
H73	H	0.791611	-0.313405	-0.000056
N74	N	0.785619	-0.151364	-0.000006
H75	H	0.801233	-0.095778	0.000008
H76	H	0.755451	-0.162047	-0.051482
H77	H	0.825726	-0.691247	-0.000095
N78	N	0.704821	0.214337	-0.000078
H79	H	0.764392	0.200667	-0.000072
H80	H	0.690512	0.243752	-0.051565
N81	N	1.083901	-0.209558	-0.000014
H82	H	1.126234	-0.256539	-0.000025
H83	H	1.092125	-0.178991	-0.051482
N84	N	1.070045	-0.378659	-0.000046
H85	H	1.118619	-0.349411	-0.000032
H86	H	1.068064	-0.410439	0.051426
N87	N	1.067957	-0.091436	0.605368
H88	H	1.106653	-0.065678	0.569092
H89	H	1.098121	-0.125176	0.646374
H90	H	1.098171	-0.594458	-0.000078
H91	H	1.026568	-0.045234	0.224401
N92	N	0.336821	0.167912	-0.000108
H93	H	0.317898	0.202564	0.051359
H94	H	0.396384	0.154183	-0.000139
N95	N	0.357312	-0.130368	-0.000037
H96	H	0.415387	-0.122268	-0.000031
H97	H	0.342627	-0.158411	0.051446
H98	H	1.046900	-0.067891	0.775492
N99	N	0.164481	0.176078	-0.000089
H100	H	0.179096	0.204168	-0.051566
H101	H	0.106420	0.167926	-0.000053
H102	H	0.194614	-0.103761	-0.000054
H103	H	1.086080	-0.742056	-0.000109
N104	N	0.821825	0.183561	0.394512
H105	H	0.826709	0.178114	0.456514
H106	H	0.835212	0.237596	0.379213
