data_functionalizedCrystal
_audit_creation_method	'MofGen! by Chris Wilmer'
_symmetry_space_group_name_H-M	'P1'
_symmetry_Int_Tables_number	1
_symmetry_cell_setting	triclinic
loop_
_symmetry_equiv_pos_as_xyz
  x,y,z
_cell_length_a	14.853567
_cell_length_b	19.188930
_cell_length_c	13.930277
_cell_angle_alpha	89.990320
_cell_angle_beta	89.995755
_cell_angle_gamma	83.389856
loop_
_atom_site_label
_atom_site_type_symbol
_atom_site_fract_x
_atom_site_fract_y
_atom_site_fract_z
O1	O	1.195862	0.091155	-0.079776
O2	O	1.695862	0.591155	0.420224
O3	O	0.933342	0.102014	-0.079794
O4	O	1.433342	0.602014	0.420206
O5	O	1.072177	-0.005046	-0.079766
O6	O	1.572177	0.494954	0.420234
O7	O	1.057026	0.198215	-0.079804
O8	O	1.557026	0.698215	0.420196
O9	O	1.072158	-0.005048	0.079896
O10	O	1.572158	0.494952	0.579896
O11	O	0.933322	0.102012	0.079868
O12	O	1.433322	0.602012	0.579868
O13	O	1.195842	0.091153	0.079886
O14	O	1.695842	0.591153	0.579886
Zn15	Zn	1.064579	0.096582	0.105227
Zn16	Zn	1.564579	0.596582	0.605227
Zn17	Zn	1.064605	0.096585	-0.105135
Zn18	Zn	1.564605	0.596585	0.394865
O19	O	1.057007	0.198213	0.079858
O20	O	1.557007	0.698213	0.579858
C21	C	0.899746	0.101521	0.000035
C22	C	1.399746	0.601521	0.500035
C23	C	0.799671	0.100046	0.000029
C24	C	1.299671	0.600046	0.500029
C25	C	1.071677	-0.031060	0.000068
C26	C	1.571677	0.468940	0.500068
C27	C	1.070204	-0.108569	0.000076
C28	C	1.570204	0.391431	0.500076
C29	C	0.387525	0.030218	0.000064
C30	C	0.887525	0.530218	0.500064
C31	C	0.365537	0.157407	0.000039
C32	C	0.865537	0.657407	0.500039
C33	C	0.459563	0.158794	0.000036
C34	C	0.959563	0.658794	0.500036
C35	C	0.517574	0.095891	0.000045
C36	C	1.017574	0.595891	0.500045
C37	C	0.481560	0.031602	0.000058
C38	C	0.981560	0.531602	0.500058
C39	C	0.495585	0.223081	0.000013
C40	C	0.995585	0.723081	0.500013
C41	C	0.589616	0.224470	0.000009
C42	C	1.089616	0.724470	0.500009
C43	C	0.647629	0.161567	0.000025
C44	C	1.147629	0.661567	0.500025
C45	C	0.611610	0.097276	0.000039
C46	C	1.111610	0.597276	0.500039
C47	C	0.669621	0.034373	0.000048
C48	C	1.169621	0.534373	0.500048
C49	C	0.633603	-0.029919	0.000069
C50	C	1.133603	0.470081	0.500069
C51	C	0.539574	-0.031301	0.000074
C52	C	1.039574	0.468699	0.500074
C53	C	0.741659	0.162949	0.000020
C54	C	1.241659	0.662949	0.500020
C55	C	0.763656	0.035757	0.000042
C56	C	1.263656	0.535757	0.500042
C57	C	1.151668	-0.153221	0.000086
C58	C	1.651668	0.346779	0.500086
C59	C	1.150285	-0.226050	0.000071
C60	C	1.650285	0.273950	0.500071
C61	C	1.067432	-0.254223	0.000065
C62	C	1.567432	0.245777	0.500065
C63	C	0.985957	-0.209561	0.000049
C64	C	1.485957	0.290439	0.500049
C65	C	0.987343	-0.136734	0.000055
C66	C	1.487343	0.363266	0.500055
N67	N	1.004095	-0.362440	0.054396
N68	N	1.504095	0.137560	0.554396
N69	N	1.002783	-0.431623	0.054393
N70	N	1.502783	0.068377	0.554393
C71	C	1.063251	-0.473645	0.000045
C72	C	1.563251	0.026355	0.500045
N73	N	1.125093	-0.443873	-0.054287
N74	N	1.625093	0.056127	0.445713
N75	N	1.126407	-0.374684	-0.054279
N76	N	1.626407	0.125316	0.445721
C77	C	1.065920	-0.333190	0.000058
C78	C	1.565920	0.166810	0.500058
C79	C	1.143220	-0.597267	0.000037
C80	C	1.643220	-0.097267	0.500037
C81	C	1.141833	-0.670096	0.000015
C82	C	1.641833	-0.170096	0.500015
C83	C	0.977503	-0.653606	0.000003
C84	C	1.477503	-0.153606	0.500003
C85	C	0.978893	-0.580778	0.000015
C86	C	1.478893	-0.080778	0.500015
C87	C	1.061754	-0.552613	0.000036
C88	C	1.561754	-0.052613	0.500036
C89	C	1.229438	0.091646	0.000055
C90	C	1.729438	0.591646	0.500055
C91	C	1.329513	0.093120	0.000055
C92	C	1.829513	0.593120	0.500055
C93	C	1.057507	0.224226	0.000022
C94	C	1.557507	0.724226	0.500022
C95	C	1.058980	0.301736	0.000008
C96	C	1.558980	0.801736	0.500008
N97	N	1.064569	0.096579	0.248793
N98	N	1.564569	0.596579	0.748793
N99	N	1.064623	0.096582	-0.248701
N100	N	1.564623	0.596582	0.251299
C101	C	1.003126	0.143972	0.701050
C102	C	1.503126	0.643972	1.201050
C103	C	1.126108	0.049192	0.701044
C104	C	1.626108	0.549192	1.201044
C105	C	1.126098	0.049190	0.600548
C106	C	1.626098	0.549190	1.100548
C107	C	1.064601	0.096580	0.550299
C108	C	1.564601	0.596580	1.050299
C109	C	1.003115	0.143973	0.600545
C110	C	1.503115	0.643973	1.100545
C111	C	1.187588	0.001803	0.550295
C112	C	1.687588	0.501803	1.050295
C113	C	1.187581	0.001799	0.449793
C114	C	1.687581	0.501799	0.949793
C115	C	1.126079	0.049187	0.399541
C116	C	1.626079	0.549187	0.899541
C117	C	1.064590	0.096581	0.449794
C118	C	1.564590	0.596581	0.949794
C119	C	1.003094	0.143971	0.399544
C120	C	1.503094	0.643971	0.899544
C121	C	0.941600	0.191363	0.449794
C122	C	1.441600	0.691363	0.949794
C123	C	0.941614	0.191361	0.550293
C124	C	1.441614	0.691361	1.050293
C125	C	1.126065	0.049189	0.299043
C126	C	1.626065	0.549189	0.799043
C127	C	1.003083	0.143972	0.299039
C128	C	1.503083	0.643972	0.799039
H129	H	0.810884	-0.015466	0.000053
H130	H	1.310884	0.484534	0.500053
C131	C	0.935490	0.196101	0.756319
C132	C	1.435490	0.696101	1.256319
H133	H	0.944304	0.189318	0.823370
H134	H	1.444304	0.689318	1.323370
H135	H	0.875355	0.188434	0.739858
H136	H	1.375355	0.688434	1.239858
H137	H	0.945100	0.242715	0.739835
H138	H	1.445100	0.742715	1.239835
C139	C	0.873959	0.243493	0.394518
C140	C	1.373959	0.743493	0.894518
H141	H	0.837340	0.271721	0.438833
H142	H	1.337340	0.771721	0.938833
H143	H	0.836536	0.218323	0.355319
H144	H	1.336536	0.718323	0.855319
H145	H	0.906279	0.272605	0.355307
H146	H	1.406279	0.772605	0.855307
H147	H	0.910043	-0.676543	-0.000007
H148	H	1.410043	-0.176543	0.499993
C149	C	1.255233	-0.050315	0.394522
C150	C	1.755233	0.449685	0.894522
H151	H	1.246430	-0.043522	0.327471
H152	H	1.746430	0.456478	0.827471
H153	H	1.245654	-0.096933	0.410997
H154	H	1.745654	0.403067	0.910997
H155	H	1.315364	-0.042625	0.410987
H156	H	1.815364	0.457375	0.910987
H157	H	0.921003	-0.100377	0.000047
H158	H	1.421003	0.399623	0.500047
H159	H	0.912556	-0.544421	0.000012
H160	H	1.412556	-0.044421	0.500012
C161	C	0.935437	0.196104	0.243772
C162	C	1.435437	0.696104	0.743772
H163	H	0.898823	0.224329	0.288094
H164	H	1.398823	0.724329	0.788094
H165	H	0.898009	0.170937	0.204575
H166	H	1.398009	0.670937	0.704575
H167	H	0.967752	0.225220	0.204560
H168	H	1.467752	0.725220	0.704560
H169	H	0.318299	0.208620	0.000023
H170	H	0.818299	0.708620	0.500023
H171	H	0.510239	-0.083644	0.000114
H172	H	1.010239	0.416356	0.500114
C173	C	1.231446	-0.719218	0.000015
C174	C	1.731446	-0.219218	0.500015
H175	H	1.218755	-0.766625	-0.000005
H176	H	1.718755	-0.266625	0.499995
H177	H	1.265427	-0.710684	0.055697
H178	H	1.765427	-0.210684	0.555697
H179	H	1.265436	-0.710656	-0.055665
H180	H	1.765436	-0.210656	0.444335
H181	H	1.219140	-0.130295	0.000100
H182	H	1.719140	0.369705	0.500100
C183	C	0.873986	0.243491	0.605569
C184	C	1.373986	0.743491	1.105569
H185	H	0.882810	0.236708	0.672619
H186	H	1.382810	0.736708	1.172619
H187	H	0.813847	0.235827	0.589120
H188	H	1.313847	0.735827	1.089120
H189	H	0.883597	0.290104	0.589083
H190	H	1.383597	0.790104	1.089083
H191	H	0.918498	-0.232504	0.000042
H192	H	1.418498	0.267496	0.500042
H193	H	1.216625	-0.262413	0.000075
H194	H	1.716625	0.237587	0.500075
C195	C	1.193749	-0.002933	0.756316
C196	C	1.693749	0.497067	1.256316
H197	H	1.184946	0.003852	0.823366
H198	H	1.684946	0.503852	1.323366
H199	H	1.253882	0.004732	0.739830
H200	H	1.753882	0.504732	1.239830
H201	H	1.184135	-0.049547	0.739862
H202	H	1.684135	0.450453	1.239862
C203	C	0.431774	0.292267	0.000007
C204	C	0.931774	0.792267	0.500007
H205	H	0.370615	0.282233	0.000027
H206	H	0.870615	0.782233	0.500027
H207	H	0.442659	0.318628	-0.055676
H208	H	0.942659	0.818628	0.444324
H209	H	0.442669	0.318621	0.055686
H210	H	0.942669	0.818621	0.555686
C211	C	1.193699	-0.002932	0.243767
C212	C	1.693699	0.497068	0.743767
H213	H	1.184888	0.003857	0.176716
H214	H	1.684888	0.503857	0.676716
H215	H	1.184105	-0.049545	0.260252
H216	H	1.684105	0.450455	0.760252
H217	H	1.253837	0.004746	0.260221
H218	H	1.753837	0.504746	0.760221
C219	C	1.234362	-0.566282	0.000049
C220	C	1.734362	-0.066282	0.500049
H221	H	1.282682	-0.603309	0.000039
H222	H	1.782682	-0.103309	0.500039
H223	H	1.238313	-0.538226	0.055731
H224	H	1.738313	-0.038226	0.555731
H225	H	1.238323	-0.538205	-0.055631
H226	H	1.738323	-0.038205	0.444369
H227	H	0.358195	-0.022127	0.000085
H228	H	0.858195	0.477873	0.500085
C229	C	0.697421	-0.099108	0.000079
C230	C	1.197421	0.400892	0.500079
H231	H	0.758578	-0.089070	0.000076
H232	H	1.258578	0.410930	0.500076
H233	H	0.686531	-0.125468	-0.055588
H234	H	1.186531	0.374532	0.444412
H235	H	0.686536	-0.125463	0.055774
H236	H	1.186536	0.374537	0.555774
C237	C	0.629228	0.295187	-0.000001
C238	C	1.129228	0.795187	0.499999
H239	H	0.581211	0.332450	0.000002
H240	H	1.081211	0.832450	0.500002
H241	H	0.665459	0.298376	-0.055676
H242	H	1.165459	0.798376	0.444324
H243	H	0.665445	0.298367	0.055686
H244	H	1.165445	0.798367	0.555686
H245	H	0.770981	0.215294	0.000005
H246	H	1.270981	0.715294	0.500005
H247	H	1.237662	-0.036778	0.591211
H248	H	1.737662	0.463222	1.091211
