data_functionalizedCrystal
_audit_creation_method	'MofGen! by Chris Wilmer'
_symmetry_space_group_name_H-M	'P1'
_symmetry_Int_Tables_number	1
_symmetry_cell_setting	triclinic
loop_
_symmetry_equiv_pos_as_xyz
  x,y,z
_cell_length_a	8.597340
_cell_length_b	13.339070
_cell_length_c	7.681481
_cell_angle_alpha	82.700297
_cell_angle_beta	103.474906
_cell_angle_gamma	100.340786
loop_
_atom_site_label
_atom_site_type_symbol
_atom_site_fract_x
_atom_site_fract_y
_atom_site_fract_z
O1	O	2.161717	0.139898	0.181549
O2	O	1.704784	0.156016	0.112221
O3	O	1.880810	0.000695	0.138933
O4	O	1.985691	0.295219	0.154836
O5	O	1.902456	-0.018466	0.435076
O6	O	1.726431	0.136855	0.408364
O7	O	2.183363	0.120737	0.477691
Zn8	Zn	1.958334	0.125754	0.490046
Zn9	Zn	1.929814	0.150999	0.099866
O10	O	2.007338	0.276058	0.450979
C11	C	1.655930	0.145772	0.251238
C12	C	1.478106	0.143783	0.224257
C13	C	1.873916	-0.046574	0.284314
C14	C	1.821107	-0.158874	0.276295
C15	C	2.231722	-0.523681	0.338596
C16	C	2.281345	-0.418171	0.346142
C17	C	2.166290	-0.353342	0.328680
C18	C	2.001603	-0.394032	0.303672
C19	C	1.951976	-0.499553	0.296140
C20	C	1.886543	-0.329214	0.286224
C21	C	1.721857	-0.369905	0.261217
C22	C	1.672238	-0.475416	0.253684
C23	C	1.787293	-0.540245	0.271146
C24	C	1.936170	-0.223693	0.293756
C25	C	1.656424	-0.199565	0.251300
C26	C	1.606801	-0.305075	0.243755
C27	C	2.232217	0.130981	0.338671
C28	C	2.410040	0.132971	0.365639
C29	C	2.014231	0.323327	0.305594
C30	C	2.067040	0.435627	0.313602
N31	N	1.977810	0.108524	0.756336
N32	N	1.910347	0.168221	-0.166423
H33	H	1.400331	0.151517	0.082557
H34	H	2.070259	-0.190573	0.314118
C35	C	2.220871	-0.237282	0.336957
H36	H	2.335428	-0.222332	0.354332
H37	H	2.187981	-0.215630	0.434081
H38	H	2.172898	-0.202280	0.227528
H39	H	2.415433	-0.385049	0.366505
C40	C	1.491092	-0.520179	0.226188
H41	H	1.478017	-0.592305	0.224217
H42	H	1.434209	-0.491246	0.115430
H43	H	1.449300	-0.504615	0.321985
C44	C	1.515076	0.122505	0.557058
H45	H	1.448529	0.115445	0.642137
H46	H	1.594678	0.181752	0.575698
H47	H	1.566806	0.063837	0.571442
H48	H	2.325383	-0.576475	0.352825
H49	H	1.746898	-0.626161	0.264997
H50	H	1.472710	-0.338221	0.223394
C51	C	1.817306	0.250534	0.717882
H52	H	1.819409	0.248650	0.595241
H53	H	1.866823	0.316074	0.755518
H54	H	1.708266	0.237647	0.731482
H55	H	1.562736	-0.146781	0.237090
H56	H	2.046698	0.047595	0.841996
