data_functionalizedCrystal
_audit_creation_method	'MofGen! by Chris Wilmer'
_symmetry_space_group_name_H-M	'P1'
_symmetry_Int_Tables_number	1
_symmetry_cell_setting	triclinic
loop_
_symmetry_equiv_pos_as_xyz
  x,y,z
_cell_length_a	10.540539
_cell_length_b	16.109301
_cell_length_c	14.586319
_cell_angle_alpha	90.000787
_cell_angle_beta	89.998343
_cell_angle_gamma	96.006514
loop_
_atom_site_label
_atom_site_type_symbol
_atom_site_fract_x
_atom_site_fract_y
_atom_site_fract_z
O1	O	0.163159	-1.104129	-0.076178
O2	O	0.183464	-0.862191	-0.076192
O3	O	-0.011474	-0.988679	-0.076184
O4	O	0.358096	-0.977640	-0.076186
O5	O	-0.011477	-0.988670	0.076297
O6	O	0.183461	-0.862182	0.076289
O7	O	0.163156	-1.104120	0.076303
Cu8	Cu	0.173308	-0.983150	0.090219
Cu9	Cu	0.173312	-0.983160	-0.090108
O10	O	0.358094	-0.977631	0.076294
C11	C	0.182640	-0.831206	0.000047
C12	C	0.180174	-0.738896	0.000041
C13	C	-0.058767	-0.987847	0.000055
C14	C	-0.199679	-0.985370	0.000050
C15	C	0.163980	-1.135104	0.000062
C16	C	0.166446	-1.227414	0.000062
C17	C	-0.381753	-0.890460	-0.000298
C18	C	-0.235171	-0.892971	0.000046
C19	C	-0.261973	-1.029832	0.087127
C20	C	-0.408472	-1.026678	0.087200
C21	C	-0.409014	-1.028567	-0.086199
C22	C	-0.262044	-1.029419	-0.087350
C23	C	0.405386	-0.978463	0.000054
C24	C	0.546299	-0.980940	0.000053
N25	N	0.173305	-0.983149	0.217050
C26	C	0.290112	-0.517296	0.000051
C27	C	0.287785	-0.430561	0.000057
C28	C	0.056499	-0.449021	0.000055
C29	C	0.058827	-0.535754	0.000055
C30	C	0.175637	-0.569889	0.000049
C31	C	0.170982	-0.396421	0.000054
C32	C	0.168459	-0.302380	0.000060
C33	C	0.178162	-0.663936	0.000044
N34	N	0.173305	-0.983168	-0.216939
C35	C	0.087015	-1.039177	0.452060
C36	C	0.087012	-1.039179	0.548042
C37	C	0.259598	-0.927134	0.548044
C38	C	0.259594	-0.927129	0.452064
C39	C	0.173304	-0.983154	0.404075
C40	C	0.173305	-0.983163	0.596036
C41	C	0.173303	-0.983165	0.700103
C42	C	0.173305	-0.983151	0.300001
H43	H	-0.192068	-0.857986	-0.062374
H44	H	0.016751	-1.084795	0.412990
C45	C	-0.071986	-0.411464	0.000053
N46	N	-0.168764	-0.383178	0.000049
C47	C	0.418607	-0.554841	0.000055
N48	N	0.515393	-0.583117	0.000063
H49	H	0.329862	-0.881505	0.412992
H50	H	-0.034398	-0.578578	0.000056
H51	H	0.381003	-0.387743	0.000060
H52	H	0.016747	-1.084796	0.587109
H53	H	-0.409832	-0.853964	-0.062742
C54	C	-0.421823	-0.841355	0.083603
N55	N	-0.451993	-0.804375	0.146805
C56	C	0.354510	-0.865508	0.600841
N57	N	0.425999	-0.819089	0.640606
H58	H	-0.436204	-0.993812	0.152288
C59	C	-0.474558	-1.116449	0.092556
N60	N	-0.524329	-1.184064	0.096596
C61	C	-0.233056	-1.121496	0.091521
N62	N	-0.211264	-1.190536	0.094833
C63	C	-0.178078	-0.845370	0.084510
N64	N	-0.135077	-0.809515	0.148134
C65	C	-0.451056	-0.988169	-0.175361
N66	N	-0.482720	-0.957732	-0.242512
C67	C	-0.206145	-0.985511	-0.174378
N68	N	-0.164046	-0.952433	-0.239926
C69	C	-0.230630	-1.120431	-0.094446
N70	N	-0.206975	-1.188987	-0.099782
C71	C	-0.203840	-0.988093	0.174665
N72	N	-0.160058	-0.956650	0.240597
H73	H	-0.457191	-1.095307	-0.086781
