data_functionalizedCrystal
_audit_creation_method	'MofGen! by Chris Wilmer'
_symmetry_space_group_name_H-M	'P1'
_symmetry_Int_Tables_number	1
_symmetry_cell_setting	triclinic
loop_
_symmetry_equiv_pos_as_xyz
  x,y,z
_cell_length_a	11.026607
_cell_length_b	16.176319
_cell_length_c	17.699083
_cell_angle_alpha	89.992304
_cell_angle_beta	95.934516
_cell_angle_gamma	89.993777
loop_
_atom_site_label
_atom_site_type_symbol
_atom_site_fract_x
_atom_site_fract_y
_atom_site_fract_z
O1	O	1.609234	-0.068757	0.316812
O2	O	1.256034	-0.068757	0.280737
O3	O	1.442613	-0.068750	0.189956
O4	O	1.422655	-0.068765	0.407592
O5	O	1.442587	0.068743	0.189945
O6	O	1.256009	0.068736	0.280726
O7	O	1.609208	0.068736	0.316801
Cu8	Cu	1.432606	0.081290	0.298762
Cu9	Cu	1.432636	-0.081311	0.298775
O10	O	1.422630	0.068729	0.407582
C11	C	1.210830	-0.000010	0.274076
C12	C	1.076175	-0.000010	0.254237
N13	N	1.432594	0.195655	0.298754
N14	N	1.432659	-0.195677	0.298779
C15	C	1.002207	-0.000014	0.309017
C16	C	0.863034	-0.000014	0.288513
C17	C	1.654412	-0.000013	0.323461
C18	C	1.789068	-0.000018	0.343301
C19	C	1.441885	-0.000003	0.161655
C20	C	1.439740	-0.000003	0.077343
C21	C	1.515235	0.238923	0.258581
C22	C	1.515242	0.325470	0.258581
C23	C	1.432611	0.368748	0.298759
C24	C	1.349960	0.325475	0.338934
C25	C	1.349949	0.238929	0.338929
C26	C	1.350002	0.674503	0.338953
C27	C	1.350022	0.761054	0.338957
C28	C	1.515294	0.761044	0.258606
C29	C	1.515283	0.674498	0.258601
C30	C	1.432629	0.631232	0.298772
C31	C	1.432622	0.537388	0.298770
C32	C	1.432623	0.462591	0.298766
C33	C	1.549257	-0.000002	0.043769
C34	C	1.547234	-0.000009	-0.035453
C35	C	1.435692	-0.000012	-0.081099
C36	C	1.326166	-0.000015	-0.047520
C37	C	1.328190	-0.000014	0.031700
C38	C	1.318000	-0.000022	-0.367005
C39	C	1.315984	-0.000021	-0.446230
C40	C	1.537044	-0.000017	-0.434158
C41	C	1.539068	-0.000016	-0.354938
C42	C	1.429543	-0.000024	-0.321366
C43	C	1.431738	-0.000017	-0.235465
C44	C	1.433496	-0.000012	-0.166998
C45	C	1.423358	-0.000020	0.435882
C46	C	1.425503	-0.000026	0.520195
H47	H	1.041916	-0.000014	0.371095
F48	F	1.657786	-0.000014	-0.306362
H49	H	1.626225	-0.000015	-0.461501
F50	F	0.811145	-0.000003	0.207366
H51	H	1.036466	-0.000027	0.192158
F52	F	1.603190	0.192871	0.215821
H53	H	0.828769	-0.000017	0.405384
H54	H	1.582534	0.360698	0.225868
H55	H	1.640088	0.000005	0.080929
H56	H	1.228817	-0.000028	-0.339680
H57	H	1.225148	-0.000021	-0.483393
H58	H	1.235346	-0.000022	-0.084691
F59	F	1.603233	0.628442	0.215841
F60	F	1.603260	0.807097	0.215849
F61	F	1.262011	0.371535	0.381690
F62	F	1.262069	0.807113	0.381722
H63	H	1.282704	0.639282	0.371664
H64	H	1.239010	-0.000015	0.059035
F65	F	1.261987	0.192882	0.381684
H66	H	1.636415	-0.000006	-0.062784
