data_functionalizedCrystal
_audit_creation_method	'MofGen! by Chris Wilmer'
_symmetry_space_group_name_H-M	'P1'
_symmetry_Int_Tables_number	1
_symmetry_cell_setting	triclinic
loop_
_symmetry_equiv_pos_as_xyz
  x,y,z
_cell_length_a	18.215407
_cell_length_b	18.050589
_cell_length_c	18.215399
_cell_angle_alpha	90.023603
_cell_angle_beta	90.019833
_cell_angle_gamma	90.028669
loop_
_atom_site_label
_atom_site_type_symbol
_atom_site_fract_x
_atom_site_fract_y
_atom_site_fract_z
Zn1	Zn	1.125055	-0.295658	0.416138
Zn2	Zn	1.375055	-0.045658	0.666138
Zn3	Zn	1.625055	0.204342	0.916138
Zn4	Zn	1.875055	0.454342	1.166138
Zn5	Zn	1.124956	-0.419853	0.293081
Zn6	Zn	1.374956	-0.169853	0.543081
Zn7	Zn	1.624956	0.080147	0.793081
Zn8	Zn	1.874956	0.330147	1.043081
Zn9	Zn	1.001987	-0.295682	0.293085
Zn10	Zn	1.251987	-0.045682	0.543085
Zn11	Zn	1.501987	0.204318	0.793085
Zn12	Zn	1.751987	0.454318	1.043085
Zn13	Zn	1.001946	-0.419812	0.416106
Zn14	Zn	1.251946	-0.169812	0.666106
Zn15	Zn	1.501946	0.080188	0.916106
Zn16	Zn	1.751946	0.330188	1.166106
O17	O	1.063486	-0.357751	0.354603
O18	O	1.313486	-0.107751	0.604603
O19	O	1.563486	0.142249	0.854603
O20	O	1.813486	0.392249	1.104603
O21	O	1.228026	-0.312140	0.399826
O22	O	1.478026	-0.062140	0.649826
O23	O	1.728026	0.187860	0.899826
O24	O	1.978026	0.437860	1.149826
O25	O	1.108620	-0.403409	0.190097
O26	O	1.358620	-0.153409	0.440097
O27	O	1.608620	0.096591	0.690097
O28	O	1.858620	0.346591	0.940097
O29	O	1.018371	-0.191755	0.309424
O30	O	1.268371	0.058245	0.559424
O31	O	1.518371	0.308245	0.809424
O32	O	1.768371	0.558245	1.059424
O33	O	1.227953	-0.403386	0.309417
O34	O	1.477953	-0.153386	0.559417
O35	O	1.727953	0.096614	0.809417
O36	O	1.977953	0.346614	1.059417
O37	O	1.108788	-0.191737	0.399830
O38	O	1.358788	0.058263	0.649830
O39	O	1.608788	0.308263	0.899830
O40	O	1.858788	0.558263	1.149830
O41	O	1.018275	-0.312181	0.190101
O42	O	1.268275	-0.062181	0.440101
O43	O	1.518275	0.187819	0.690101
O44	O	1.768275	0.437819	0.940101
O45	O	0.898998	-0.312141	0.309393
O46	O	1.148998	-0.062141	0.559393
O47	O	1.398998	0.187859	0.809393
O48	O	1.648998	0.437859	1.059393
O49	O	1.018301	-0.403315	0.519095
O50	O	1.268301	-0.153315	0.769095
O51	O	1.518301	0.096685	1.019095
O52	O	1.768301	0.346685	1.269095
O53	O	0.898967	-0.403339	0.399775
O54	O	1.148967	-0.153339	0.649775
O55	O	1.398967	0.096661	0.899775
O56	O	1.648967	0.346661	1.149775
O57	O	1.108748	-0.312100	0.519118
O58	O	1.358748	-0.062100	0.769118
O59	O	1.608748	0.187900	1.019118
O60	O	1.858748	0.437900	1.269118
O61	O	1.108580	-0.523772	0.309385
O62	O	1.358580	-0.273772	0.559385
O63	O	1.608580	-0.023772	0.809385
O64	O	1.858580	0.226228	1.059385
O65	O	1.018205	-0.523742	0.399771
O66	O	1.268205	-0.273742	0.649771
O67	O	1.518205	-0.023742	0.899771
O68	O	1.768205	0.226258	1.149771
C69	C	0.872280	-0.357739	0.354582
C70	C	1.122280	-0.107739	0.604582
C71	C	1.372280	0.142261	0.854582
C72	C	1.622280	0.392261	1.104582
C73	C	0.790481	-0.357751	0.354590
C74	C	1.040481	-0.107751	0.604590
C75	C	1.290481	0.142249	0.854590
C76	C	1.540481	0.392249	1.104590
C77	C	0.602291	-0.405312	0.401593
C78	C	0.852291	-0.155312	0.651593
C79	C	1.102291	0.094688	0.901593
C80	C	1.352291	0.344688	1.151593
C81	C	0.525432	-0.405315	0.401602
C82	C	0.775432	-0.155315	0.651602
C83	C	1.025432	0.094685	0.901602
C84	C	1.275432	0.344685	1.151602
C85	C	0.525434	-0.310204	0.307628
C86	C	0.775434	-0.060204	0.557628
C87	C	1.025434	0.189796	0.807628
C88	C	1.275434	0.439796	1.057628
C89	C	0.602291	-0.310199	0.307623
C90	C	0.852291	-0.060199	0.557623
C91	C	1.102291	0.189801	0.807623
C92	C	1.352291	0.439801	1.057623
C93	C	0.640718	-0.357757	0.354605
C94	C	0.890718	-0.107757	0.604605
C95	C	1.140718	0.142243	0.854605
C96	C	1.390718	0.392243	1.104605
C97	C	0.487001	-0.357765	0.354619
C98	C	0.737001	-0.107765	0.604619
C99	C	0.987001	0.142235	0.854619
C100	C	1.237001	0.392235	1.104619
C101	C	0.403668	-0.357767	0.354628
C102	C	0.653668	-0.107767	0.604628
C103	C	0.903668	0.142233	0.854628
C104	C	1.153668	0.392233	1.104628
C105	C	0.724056	-0.357754	0.354596
C106	C	0.974056	-0.107754	0.604596
C107	C	1.224056	0.142246	0.854596
C108	C	1.474056	0.392246	1.104596
C109	C	1.063397	-0.550704	0.354590
C110	C	1.313397	-0.300704	0.604590
C111	C	1.563397	-0.050704	0.854590
C112	C	1.813397	0.199296	1.104590
C113	C	1.063427	-0.633249	0.354610
C114	C	1.313427	-0.383249	0.604610
C115	C	1.563427	-0.133249	0.854610
C116	C	1.813427	0.116751	1.104610
C117	C	1.014329	-0.832710	0.403744
C118	C	1.264329	-0.582710	0.653744
C119	C	1.514329	-0.332710	0.903744
C120	C	1.764329	-0.082710	1.153744
C121	C	0.996389	-0.882151	0.336590
C122	C	1.246389	-0.632151	0.586590
C123	C	1.496389	-0.382151	0.836590
C124	C	1.746389	-0.132151	1.086590
C125	C	1.063499	-0.784380	0.354619
C126	C	1.313499	-0.534380	0.604619
C127	C	1.563499	-0.284380	0.854619
C128	C	1.813499	-0.034380	1.104619
C129	C	1.081475	-0.882021	0.421781
C130	C	1.331475	-0.632021	0.671781
C131	C	1.581475	-0.382021	0.921781
C132	C	1.831475	-0.132021	1.171781
C133	C	1.063567	-0.930365	0.354635
C134	C	1.313567	-0.680365	0.604635
C135	C	1.563567	-0.430365	0.854635
C136	C	1.813567	-0.180365	1.104635
C137	C	1.045524	-0.832733	0.287430
C138	C	1.295524	-0.582733	0.537430
C139	C	1.545524	-0.332733	0.787430
C140	C	1.795524	-0.082733	1.037430
C141	C	1.130641	-0.832599	0.372666
C142	C	1.380641	-0.582599	0.622666
C143	C	1.630641	-0.332599	0.872666
C144	C	1.880641	-0.082599	1.122666
C145	C	1.112726	-0.882017	0.305466
C146	C	1.362726	-0.632017	0.555466
C147	C	1.612726	-0.382017	0.805466
C148	C	1.862726	-0.132017	1.055466
C149	C	1.063458	-0.700281	0.354612
C150	C	1.313458	-0.450281	0.604612
C151	C	1.563458	-0.200281	0.854612
C152	C	1.813458	0.049719	1.104612
C153	C	1.063609	-1.014461	0.354635
C154	C	1.313609	-0.764461	0.604635
C155	C	1.563609	-0.514461	0.854635
C156	C	1.813609	-0.264461	1.104635
C157	C	1.255439	-0.357765	0.354624
C158	C	1.505439	-0.107765	0.604624
C159	C	1.755439	0.142235	0.854624
C160	C	2.005439	0.392235	1.104624
C161	C	1.337238	-0.357770	0.354634
C162	C	1.587238	-0.107770	0.604634
C163	C	1.837238	0.142230	0.854634
C164	C	2.087238	0.392230	1.104634
C165	C	1.063531	-0.357700	0.546556
C166	C	1.313531	-0.107700	0.796556
C167	C	1.563531	0.142300	1.046556
C168	C	1.813531	0.392300	1.296556
C169	C	1.063550	-0.357678	0.628355
C170	C	1.313550	-0.107678	0.878355
C171	C	1.563550	0.142322	1.128355
C172	C	1.813550	0.392322	1.378355
C173	C	1.063595	-0.164046	0.354631
C174	C	1.313595	0.085954	0.604631
C175	C	1.563595	0.335954	0.854631
C176	C	1.813595	0.585954	1.104631
C177	C	1.063642	-0.081500	0.354643
C178	C	1.313642	0.168500	0.604643
C179	C	1.563642	0.418500	0.854643
C180	C	1.813642	0.668500	1.104643
C181	C	1.063484	-0.357749	0.163396
C182	C	1.313484	-0.107749	0.413396
C183	C	1.563484	0.142251	0.663396
C184	C	1.813484	0.392251	0.913396
C185	C	1.063607	-0.357561	0.081598
C186	C	1.313607	-0.107561	0.331598
C187	C	1.563607	0.142439	0.581598
C188	C	1.813607	0.392439	0.831598
C189	C	1.110663	-0.310138	0.816562
C190	C	1.360663	-0.060138	1.066562
C191	C	1.610663	0.189862	1.316562
C192	C	1.860663	0.439862	1.566562
C193	C	1.110672	-0.310117	0.893421
C194	C	1.360672	-0.060117	1.143421
C195	C	1.610672	0.189883	1.393421
C196	C	1.860672	0.439883	1.643421
C197	C	1.016489	-0.405104	0.893385
C198	C	1.266489	-0.155104	1.143385
C199	C	1.516489	0.094896	1.393385
C200	C	1.766489	0.344896	1.643385
C201	C	1.016477	-0.405121	0.816528
C202	C	1.266477	-0.155121	1.066528
C203	C	1.516477	0.094879	1.316528
C204	C	1.766477	0.344879	1.566528
C205	C	1.063568	-0.357639	0.778118
C206	C	1.313568	-0.107639	1.028118
C207	C	1.563568	0.142361	1.278118
C208	C	1.813568	0.392361	1.528118
C209	C	1.063589	-0.357600	0.931834
C210	C	1.313589	-0.107600	1.181834
C211	C	1.563589	0.142400	1.431834
C212	C	1.813589	0.392400	1.681834
C213	C	1.063598	-0.357577	1.015168
C214	C	1.313598	-0.107577	1.265168
C215	C	1.563598	0.142423	1.515168
C216	C	1.813598	0.392423	1.765168
C217	C	1.063558	-0.357661	0.694779
C218	C	1.313558	-0.107661	0.944779
C219	C	1.563558	0.142339	1.194779
C220	C	1.813558	0.392339	1.444779
H221	H	0.494148	-0.444038	0.439866
H222	H	0.744148	-0.194038	0.689866
H223	H	0.994148	0.055962	0.939866
H224	H	1.244148	0.305962	1.189866
H225	H	0.978122	-0.443802	0.785226
H226	H	1.228122	-0.193802	1.035226
H227	H	1.478122	0.056198	1.285226
H228	H	1.728122	0.306198	1.535226
H229	H	1.096652	-0.903671	0.478573
H230	H	1.346652	-0.653671	0.728573
H231	H	1.596652	-0.403671	0.978573
H232	H	1.846652	-0.153671	1.228573
H233	H	1.149006	-0.271474	0.785291
H234	H	1.399006	-0.021474	1.035291
H235	H	1.649006	0.228526	1.285291
H236	H	1.899006	0.478526	1.535291
H237	H	0.978151	-0.443763	0.924667
H238	H	1.228151	-0.193763	1.174667
H239	H	1.478151	0.056237	1.424667
H240	H	1.728151	0.306237	1.674667
H241	H	0.633579	-0.271469	0.269360
H242	H	0.883579	-0.021469	0.519360
H243	H	1.133579	0.228531	0.769360
H244	H	1.383579	0.478531	1.019360
H245	H	1.187375	-0.810819	0.387948
H246	H	1.437375	-0.560819	0.637948
H247	H	1.687375	-0.310819	0.887948
H248	H	1.937375	-0.060819	1.137948
H249	H	1.149020	-0.271435	0.924718
H250	H	1.399020	-0.021435	1.174718
H251	H	1.649020	0.228565	1.424718
H252	H	1.899020	0.478565	1.674718
Cl253	Cl	0.950040	-0.799280	0.467794
Cl254	Cl	1.200040	-0.549280	0.717794
Cl255	Cl	1.450040	-0.299280	0.967794
Cl256	Cl	1.700040	-0.049280	1.217794
H257	H	0.494138	-0.271485	0.269377
H258	H	0.744138	-0.021485	0.519377
H259	H	0.994138	0.228515	0.769377
H260	H	1.244138	0.478515	1.019377
Cl261	Cl	0.650595	-0.465097	0.460658
Cl262	Cl	0.900595	-0.215097	0.710658
Cl263	Cl	1.150595	0.034903	0.960658
Cl264	Cl	1.400595	0.284903	1.210658
H265	H	0.939642	-0.903933	0.321340
H266	H	1.189642	-0.653933	0.571340
H267	H	1.439642	-0.403933	0.821340
H268	H	1.689642	-0.153933	1.071340
Cl269	Cl	1.021992	-0.799450	0.199722
Cl270	Cl	1.271992	-0.549450	0.449722
Cl271	Cl	1.521992	-0.299450	0.699722
Cl272	Cl	1.771992	-0.049450	0.949722
H273	H	1.154337	-0.903530	0.263881
H274	H	1.404337	-0.653530	0.513881
H275	H	1.654337	-0.403530	0.763881
H276	H	1.904337	-0.153530	1.013881
