data_functionalizedCrystal
_audit_creation_method	'MofGen! by Chris Wilmer'
_symmetry_space_group_name_H-M	'P1'
_symmetry_Int_Tables_number	1
_symmetry_cell_setting	triclinic
loop_
_symmetry_equiv_pos_as_xyz
  x,y,z
_cell_length_a	6.817900
_cell_length_b	12.840983
_cell_length_c	11.102291
_cell_angle_alpha	97.397617
_cell_angle_beta	109.383309
_cell_angle_gamma	88.343850
loop_
_atom_site_label
_atom_site_type_symbol
_atom_site_fract_x
_atom_site_fract_y
_atom_site_fract_z
V1	V	4.031981	-0.051646	0.397584
O2	O	4.077730	0.097519	0.388647
O3	O	3.927358	-0.193809	0.396180
O4	O	4.011453	-0.009151	0.570383
O5	O	3.993052	-0.088417	0.213238
V6	V	4.519283	-0.038731	0.375375
O7	O	4.284951	-0.079975	0.446301
O8	O	4.716510	-0.010402	0.326657
O9	O	4.400699	0.103432	0.376778
O10	O	4.590930	-0.187897	0.384311
O11	O	4.675608	-0.001960	0.559720
O12	O	4.316604	-0.081227	0.202575
C13	C	3.757796	-0.229768	0.390254
C14	C	3.753651	-0.347899	0.390261
V15	V	4.014954	-0.537806	0.397602
O16	O	3.977171	-0.542099	0.213256
O17	O	3.992890	-0.538921	0.570402
O18	O	3.920461	-0.390950	0.396186
O19	O	4.050102	-0.691094	0.388678
V20	V	4.500314	-0.580429	0.375403
O21	O	4.269859	-0.510921	0.446321
O22	O	4.694815	-0.630000	0.326692
O23	O	4.299564	-0.568066	0.202600
O24	O	4.655287	-0.582051	0.559751
O25	O	4.582356	-0.433056	0.384330
O26	O	4.371993	-0.716037	0.376815
C27	C	4.233632	0.139385	0.382708
C28	C	4.216637	0.257519	0.382731
C29	C	3.865050	0.005783	0.612459
C30	C	3.929178	0.039587	0.753732
C31	C	4.126346	-0.096165	0.160492
C32	C	4.041459	-0.129964	0.019218
C33	C	3.846044	-0.536649	0.612482
C34	C	3.908840	-0.540696	0.753757
C35	C	4.110346	-0.553377	0.160520
C36	C	4.026822	-0.548278	0.019245
C37	C	4.140390	0.051782	0.826602
C38	C	4.200673	0.083558	0.959341
C39	C	4.049740	0.103130	1.019210
C40	C	3.838509	0.090936	0.946330
C41	C	3.778230	0.059168	0.813592
C42	C	4.119409	-0.546523	0.826653
C43	C	4.178403	-0.550310	0.959399
C44	C	3.816235	-0.542448	0.946340
C45	C	3.757246	-0.538653	0.813598
C46	C	4.328504	-0.551066	0.834193
C47	C	4.387498	-0.554853	0.966939
C48	C	3.827941	-0.149517	-0.040619
C49	C	3.748149	-0.181263	-0.173363
C50	C	3.881882	-0.193462	-0.246266
C51	C	4.095418	-0.173903	-0.186422
C52	C	4.175204	-0.142151	-0.053682
H53	H	4.263316	0.035847	0.777875
Cl54	Cl	3.659775	-0.134186	0.051004
Cl55	Cl	4.443645	-0.117590	0.021528
H56	H	3.715635	0.106876	0.995096
H57	H	3.606239	0.049240	0.754272
Cl58	Cl	4.530638	-0.442564	1.057374
Cl59	Cl	3.625676	-0.539882	1.021578
Cl60	Cl	4.466225	0.098872	1.050936
H61	H	3.585785	-0.533904	0.754252
Cl62	Cl	4.125556	0.143062	1.186086
Cl63	Cl	4.441999	-0.439472	0.805569
Cl64	Cl	4.385696	-0.667696	0.750978
H65	H	4.474537	-0.630622	0.991265
H66	H	3.574274	-0.197183	-0.222068
Cl67	Cl	3.781546	-0.233385	-0.413140
H68	H	4.204285	-0.183838	-0.245801
