data_functionalizedCrystal
_audit_creation_method	'MofGen! by Chris Wilmer'
_symmetry_space_group_name_H-M	'P1'
_symmetry_Int_Tables_number	1
_symmetry_cell_setting	triclinic
loop_
_symmetry_equiv_pos_as_xyz
  x,y,z
_cell_length_a	10.654550
_cell_length_b	10.654550
_cell_length_c	9.730223
_cell_angle_alpha	90.000043
_cell_angle_beta	90.004253
_cell_angle_gamma	84.484931
loop_
_atom_site_label
_atom_site_type_symbol
_atom_site_fract_x
_atom_site_fract_y
_atom_site_fract_z
O1	O	-0.176399	-1.667839	-0.114187
O2	O	-0.193205	-1.302361	-0.114212
O3	O	-0.002062	-1.493503	-0.114190
O4	O	-0.367541	-1.476697	-0.114209
O5	O	-0.002057	-1.493490	0.114390
O6	O	-0.193199	-1.302348	0.114368
O7	O	-0.176393	-1.667827	0.114393
Zn8	Zn	-0.184796	-1.485085	0.150672
Zn9	Zn	-0.184802	-1.485102	-0.150492
O10	O	-0.367536	-1.476684	0.114371
C11	C	-0.191968	-1.255556	0.000075
C12	C	-0.188276	-1.116113	0.000065
C13	C	0.044738	-1.492263	0.000099
C14	C	0.184181	-1.488571	0.000096
C15	C	-0.414336	-1.477925	0.000079
C16	C	-0.553779	-1.481617	0.000072
C17	C	-0.177630	-1.714631	0.000103
C18	C	-0.181322	-1.854074	0.000104
C19	C	0.263667	-1.601112	0.000104
C20	C	0.394688	-1.597636	0.000087
C21	C	0.366725	-1.369066	0.000061
C22	C	0.235706	-1.372544	0.000068
N23	N	-0.184790	-1.485083	0.356209
C24	C	-0.300818	-1.036628	0.000064
C25	C	-0.297341	-0.905607	0.000088
C26	C	-0.068772	-0.933570	0.000109
C27	C	-0.072250	-1.064588	0.000095
N28	N	-0.184798	-1.485114	-0.356028
C29	C	-0.100188	-1.569750	0.428144
C30	C	-0.100189	-1.569763	0.572027
C31	C	-0.269404	-1.400438	0.572026
C32	C	-0.269396	-1.400420	0.428146
H33	H	0.221720	-1.695588	0.000124
H34	H	-0.031295	-1.638687	0.369576
H35	H	-0.338290	-1.331508	0.630612
H36	H	0.408693	-1.274601	0.000041
H37	H	-0.031297	-1.638705	0.630593
F38	F	0.151106	-1.252755	0.000050
F39	F	-0.359440	-1.310297	0.351581
H40	H	-0.395294	-1.078574	0.000049
F41	F	0.479278	-1.717418	0.000092
H42	H	-0.388984	-0.840894	0.000089
F43	F	0.054705	-0.878722	0.000135
F44	F	0.047539	-1.149188	0.000106
