data_functionalizedCrystal
_audit_creation_method	'MofGen! by Chris Wilmer'
_symmetry_space_group_name_H-M	'P1'
_symmetry_Int_Tables_number	1
_symmetry_cell_setting	triclinic
loop_
_symmetry_equiv_pos_as_xyz
  x,y,z
_cell_length_a	21.395364
_cell_length_b	19.120786
_cell_length_c	21.395355
_cell_angle_alpha	87.540705
_cell_angle_beta	89.975448
_cell_angle_gamma	92.480057
loop_
_atom_site_label
_atom_site_type_symbol
_atom_site_fract_x
_atom_site_fract_y
_atom_site_fract_z
Zn1	Zn	0.947247	-0.279432	-0.343622
Zn2	Zn	1.447247	0.220568	0.156378
Zn3	Zn	0.942690	-0.396873	-0.234373
Zn4	Zn	1.442690	0.103127	0.265627
Zn5	Zn	0.842461	-0.279463	-0.238857
Zn6	Zn	1.342461	0.220537	0.261143
Zn7	Zn	0.837971	-0.396885	-0.339112
Zn8	Zn	1.337971	0.103115	0.160888
O9	O	0.892592	-0.338163	-0.288991
O10	O	1.392592	0.161837	0.211009
O11	O	1.034321	-0.294993	-0.329140
O12	O	1.534321	0.205007	0.170860
O13	O	0.929366	-0.381306	-0.147289
O14	O	1.429366	0.118694	0.352711
O15	O	0.860148	-0.181168	-0.256519
O16	O	1.360148	0.318832	0.243481
O17	O	1.030973	-0.381276	-0.248875
O18	O	1.530973	0.118724	0.251125
O19	O	0.937134	-0.181146	-0.333489
O20	O	1.437134	0.318854	0.166511
O21	O	0.855728	-0.295045	-0.150584
O22	O	1.355728	0.204955	0.349416
O23	O	0.754187	-0.295057	-0.252146
O24	O	1.254187	0.204943	0.247854
O25	O	0.852495	-0.381297	-0.427389
O26	O	1.352495	0.118703	0.072611
O27	O	0.750888	-0.381327	-0.325803
O28	O	1.250888	0.118673	0.174197
O29	O	0.932780	-0.295005	-0.430702
O30	O	1.432780	0.204995	0.069298
O31	O	0.925012	-0.495165	-0.244503
O32	O	1.425012	0.004835	0.255497
O33	O	0.848076	-0.495174	-0.321454
O34	O	1.348076	0.004826	0.178546
C35	C	0.729803	-0.338197	-0.288972
C36	C	1.229803	0.161803	0.211028
C37	C	0.660161	-0.338229	-0.288978
C38	C	1.160161	0.161771	0.211022
C39	C	0.629211	-0.293375	-0.330831
C40	C	1.129211	0.206625	0.169169
C41	C	0.563776	-0.293356	-0.330835
C42	C	1.063776	0.206644	0.169165
C43	C	0.529294	-0.338204	-0.288991
C44	C	1.029294	0.161796	0.211009
C45	C	0.560251	-0.383061	-0.247130
C46	C	1.060251	0.116939	0.252870
C47	C	0.625685	-0.383074	-0.247124
C48	C	1.125685	0.116926	0.252876
C49	C	0.423167	-0.401459	-0.281545
C50	C	0.923167	0.098541	0.218455
C51	C	0.357734	-0.401447	-0.281555
C52	C	0.857734	0.098553	0.218445
C53	C	0.327474	-0.338165	-0.289006
C54	C	0.827474	0.161835	0.210994
C55	C	0.362655	-0.274893	-0.296460
C56	C	0.862655	0.225107	0.203540
C57	C	0.428088	-0.274905	-0.296454
C58	C	0.928088	0.225095	0.203546
C59	C	0.458341	-0.338195	-0.288992
C60	C	0.958341	0.161805	0.211008
C61	C	0.225573	-0.293287	-0.330865
C62	C	0.725573	0.206713	0.169135
C63	C	0.160137	-0.293268	-0.330864
C64	C	0.660137	0.206732	0.169136
C65	C	0.156613	-0.382979	-0.247162
C66	C	0.656613	0.117021	0.252838
C67	C	0.222048	-0.382992	-0.247160
C68	C	0.722048	0.117008	0.252840
C69	C	0.256524	-0.338148	-0.289015
C70	C	0.756524	0.161852	0.210985
C71	C	0.885579	-0.520655	-0.282016
C72	C	1.385579	-0.020655	0.217984
C73	C	0.882636	-0.598726	-0.279053
C74	C	1.382636	-0.098726	0.220947
C75	C	0.921306	-0.635331	-0.317768
C76	C	1.421306	-0.135331	0.182232
C77	C	0.918538	-0.708687	-0.314985
C78	C	1.418538	-0.208687	0.185015
C79	C	0.877103	-0.745436	-0.273484
C80	C	1.377103	-0.245436	0.226516
C81	C	0.838429	-0.708825	-0.234768
C82	C	1.338429	-0.208825	0.265232
C83	C	0.841194	-0.635471	-0.237554
C84	C	1.341194	-0.135471	0.262446
C85	C	0.866748	-0.966923	-0.263067
C86	C	1.366748	-0.466923	0.236933
C87	C	0.863987	-1.040282	-0.260282
C88	C	1.363987	-0.540282	0.239718
C89	C	0.944096	-1.040139	-0.340501
C90	C	1.444096	-0.540139	0.159499
C91	C	0.946860	-0.966783	-0.343281
C92	C	1.446860	-0.466783	0.156719
C93	C	0.908184	-0.930179	-0.304567
C94	C	1.408184	-0.430179	0.195433
C95	C	0.874275	-0.820417	-0.270637
C96	C	1.374275	-0.320417	0.229363
C97	C	0.911010	-0.855199	-0.307417
C98	C	1.411010	-0.355199	0.192583
C99	C	1.056017	-0.338129	-0.289010
C100	C	1.556017	0.161871	0.210990
C101	C	1.125659	-0.338115	-0.289019
C102	C	1.625659	0.161885	0.210981
C103	C	0.892645	-0.338149	-0.452415
C104	C	1.392645	0.161851	0.047585
C105	C	0.892667	-0.338143	-0.522057
C106	C	1.392667	0.161857	-0.022057
C107	C	0.899650	-0.154959	-0.296007
C108	C	1.399650	0.345041	0.203993
C109	C	0.902657	-0.076888	-0.298997
C110	C	1.402657	0.423112	0.201003
C111	C	0.934470	-0.293209	-0.556496
C112	C	1.434470	0.206791	-0.056496
C113	C	0.934470	-0.293179	-0.621932
C114	C	1.434470	0.206821	-0.121932
C115	C	0.892674	-0.338095	-0.652927
C116	C	1.392674	0.161905	-0.152927
C117	C	0.850863	-0.383032	-0.618479
C118	C	1.350863	0.116968	-0.118479
C119	C	0.850860	-0.383056	-0.553044
C120	C	1.350860	0.116944	-0.053044
C121	C	0.885296	-0.401340	-0.754184
C122	C	1.385296	0.098660	-0.254184
C123	C	0.885304	-0.401318	-0.819618
C124	C	1.385304	0.098682	-0.319618
C125	C	0.892681	-0.338021	-0.854750
C126	C	1.392681	0.161979	-0.354750
C127	C	0.900063	-0.274745	-0.824441
C128	C	1.400063	0.225255	-0.324441
C129	C	0.900060	-0.274769	-0.759006
C130	C	1.400060	0.225231	-0.259006
C131	C	0.892673	-0.338074	-0.723880
C132	C	1.392673	0.161926	-0.223880
C133	C	0.934486	-0.293050	-0.960144
C134	C	1.434486	0.206950	-0.460144
C135	C	0.934482	-0.293019	-1.025582
C136	C	1.434482	0.206981	-0.525582
C137	C	0.850878	-0.382879	-1.022127
C138	C	1.350878	0.117121	-0.522127
C139	C	0.850879	-0.382904	-0.956691
C140	C	1.350879	0.117096	-0.456691
C141	C	0.892686	-0.337991	-0.925703
C142	C	1.392686	0.162009	-0.425703
C143	C	0.892578	-0.338127	-0.126205
C144	C	1.392578	0.161873	0.373795
C145	C	0.892684	-0.337935	-0.056571
C146	C	1.392684	0.162065	0.443429
H147	H	0.650884	-0.419600	-0.213041
H148	H	1.150884	0.080400	0.286959
H149	H	0.835257	-0.937125	-0.231543
H150	H	1.335257	-0.437125	0.268457
F151	F	0.877452	-0.468661	-0.851869
F152	F	1.377452	0.031339	-0.351869
F153	F	0.455365	-0.468816	-0.273607
F154	F	0.955365	0.031184	0.226393
H155	H	0.456730	-0.223387	-0.302521
H156	H	0.956730	0.276613	0.197479
H157	H	0.955050	-0.605415	-0.351560
H158	H	1.455050	-0.105415	0.148440
F159	F	0.959690	-0.747643	-0.356198
F160	F	1.459690	-0.247643	0.143802
H161	H	0.980600	-0.936864	-0.377074
H162	H	1.480600	-0.436864	0.122926
H163	H	0.657277	-0.256858	-0.364912
H164	H	1.157277	0.243142	0.135088
F165	F	0.907917	-0.207374	-0.861826
F166	F	1.407917	0.292626	-0.361826
H167	H	0.338019	-0.223363	-0.302527
H168	H	0.838019	0.276637	0.197473
H169	H	0.134939	-0.256738	-0.364945
H170	H	0.634939	0.243262	0.135055
H171	H	0.830243	-1.070201	-0.226486
H172	H	1.330243	-0.570201	0.273514
F173	F	0.985254	-1.079101	-0.381701
F174	F	1.485254	-0.579101	0.118299
H175	H	0.804689	-0.738752	-0.200979
H176	H	1.304689	-0.238752	0.299021
H177	H	0.809704	-0.605667	-0.206029
H178	H	1.309704	-0.105667	0.293971
F179	F	0.523552	-0.430789	-0.202594
F180	F	1.023552	0.069211	0.297406
H181	H	0.944744	-0.825276	-0.341210
H182	H	1.444744	-0.325276	0.158790
H183	H	0.128538	-0.419495	-0.213092
H184	H	0.628538	0.080505	0.286908
H185	H	0.816816	-0.419646	-0.525004
H186	H	1.316816	0.080354	-0.025004
F187	F	0.830175	-0.859535	-0.226472
F188	F	1.330175	-0.359535	0.273528
H189	H	0.538572	-0.256827	-0.364915
H190	H	1.038572	0.243173	0.135085
H191	H	0.879122	-0.452871	-0.725585
H192	H	1.379122	0.047129	-0.225585
H193	H	0.968512	-0.256636	-0.531270
H194	H	1.468512	0.243364	-0.031270
F195	F	0.978954	-0.245340	-0.658593
F196	F	1.478954	0.254660	-0.158593
H197	H	0.253645	-0.256768	-0.364942
H198	H	0.753645	0.243232	0.135058
F199	F	0.806390	-0.430678	-1.055109
F200	F	1.306390	0.069322	-0.555109
H201	H	0.906069	-0.223247	-0.734331
H202	H	1.406069	0.276753	-0.234331
F203	F	0.254988	-0.430730	-0.202612
F204	F	0.754988	0.069270	0.297388
F205	F	0.978978	-0.245247	-0.927162
F206	F	1.478978	0.254753	-0.427162
F207	F	0.978983	-0.245199	-1.062234
F208	F	1.478983	0.254801	-0.562234
F209	F	0.806388	-0.430732	-0.920036
F210	F	1.306388	0.069268	-0.420036
F211	F	0.320299	-0.468788	-0.273631
F212	F	0.820299	0.031212	0.226369
H213	H	0.816831	-0.419601	-0.643719
H214	H	1.316831	0.080399	-0.143719
