data_functionalizedCrystal
_audit_creation_method	'MofGen! by Chris Wilmer'
_symmetry_space_group_name_H-M	'P1'
_symmetry_Int_Tables_number	1
_symmetry_cell_setting	triclinic
loop_
_symmetry_equiv_pos_as_xyz
  x,y,z
_cell_length_a	20.875641
_cell_length_b	12.970454
_cell_length_c	12.970454
_cell_angle_alpha	59.999776
_cell_angle_beta	89.998762
_cell_angle_gamma	57.589518
loop_
_atom_site_label
_atom_site_type_symbol
_atom_site_fract_x
_atom_site_fract_y
_atom_site_fract_z
Zr1	Zr	0.641477	1.052851	-0.097488
O2	O	0.535154	1.280483	-0.268381
O3	O	0.674070	0.833915	-0.045099
O4	O	0.674071	1.049005	-0.260190
O5	O	0.535152	1.065394	0.116376
O6	O	0.783652	1.036079	-0.253730
O7	O	0.535153	1.065393	-0.053290
O8	O	0.783650	0.651323	0.131028
O9	O	0.535154	1.450150	-0.268382
O10	O	0.769750	0.911099	-0.017936
O11	O	0.687970	0.920746	0.103863
O12	O	0.687972	1.173987	-0.149379
O13	O	0.606192	1.183634	-0.027580
Zr14	Zr	0.816244	1.032236	0.183414
Zr15	Zr	0.816245	1.032235	-0.087185
Zr16	Zr	0.641475	1.052852	0.173110
Zr17	Zr	0.641477	1.323451	-0.097489
Zr18	Zr	0.816244	0.761636	0.183415
O19	O	0.783650	1.251172	0.131025
O20	O	0.783652	1.251169	-0.253731
O21	O	0.535152	1.280485	0.116375
O22	O	0.922566	0.804604	0.354306
O23	O	0.922568	0.804602	-0.030450
O24	O	0.674069	0.833918	0.339657
O25	O	0.922568	1.019693	-0.030451
O26	O	0.783649	1.036082	0.346116
O27	O	0.674069	1.049008	0.339656
O28	O	0.922567	1.019694	0.139216
O29	O	0.674071	1.433763	-0.260192
O30	O	0.783649	0.651324	0.346118
O31	O	0.922566	0.634937	0.354307
O32	O	0.922567	0.634936	0.139218
O33	O	0.535153	1.450151	-0.053292
O34	O	0.674070	1.433764	-0.045102
O35	O	0.769749	0.911100	0.235304
O36	O	0.851528	0.901453	0.113505
O37	O	0.769750	1.164341	-0.017937
O38	O	0.687971	1.173988	0.103862
C39	C	0.728860	0.704064	0.042965
C40	C	0.728860	0.589188	0.042965
C41	C	0.510252	1.068331	0.030075
C42	C	0.436058	1.077083	0.025701
C43	C	0.443887	0.943973	0.092251
C44	C	0.374171	0.952206	0.088139
C45	C	0.296628	1.093549	0.017468
C46	C	0.288801	1.226669	-0.049084
C47	C	0.358515	1.218435	-0.044964
C48	C	0.083550	1.132890	-0.002207
C49	C	0.013833	1.141114	-0.006326
C50	C	0.099209	0.866650	0.130900
C51	C	0.168921	0.858428	0.135008
C52	C	0.161088	0.991548	0.068462
N53	N	0.225366	1.101967	0.013259
N54	N	0.232349	0.983128	0.072678
C55	C	0.947468	1.016756	0.055850
C56	C	1.021662	1.008004	0.060224
C57	C	0.728862	1.042542	-0.295515
C58	C	0.728862	1.042541	-0.410391
C59	C	0.728860	1.381023	0.042961
C60	C	0.728860	1.495899	0.042960
C61	C	0.728859	1.042545	0.381440
C62	C	0.728858	1.042546	0.496316
C63	C	0.947468	0.678277	0.055852
C64	C	1.021662	0.554648	0.060227
C65	C	0.728859	0.704066	0.381442
C66	C	0.728858	0.589190	0.496319
C67	C	0.947467	0.678279	0.394330
C68	C	1.021660	0.554651	0.513580
C69	C	0.510253	1.406808	-0.308404
C70	C	0.436060	1.530436	-0.427655
C71	C	0.510252	1.406810	0.030073
C72	C	0.436058	1.530439	0.025699
C73	C	0.728862	1.381021	-0.295516
C74	C	0.728862	1.495897	-0.410393
C75	C	1.013817	0.501626	-0.006341
C76	C	1.083523	0.385479	-0.002257
C77	C	1.161073	0.322350	0.068404
C78	C	1.168917	0.375383	0.134974
C79	C	1.099212	0.491535	0.130881
C80	C	1.099197	0.491557	0.506004
C81	C	1.168916	0.375410	0.618043
C82	C	1.161096	0.322351	0.737656
C83	C	1.083551	0.385456	0.745229
C84	C	1.013834	0.501609	0.633192
C85	C	0.358523	1.593543	-0.420079
C86	C	0.288804	1.709724	-0.532117
C87	C	0.296624	1.762789	-0.651731
C88	C	0.374169	1.699676	-0.659304
C89	C	0.443887	1.583505	-0.547266
C90	C	0.443903	1.583472	0.092256
C91	C	0.374197	1.699649	0.088141
C92	C	0.296647	1.762782	0.017477
C93	C	0.288803	1.709744	-0.049088
C94	C	0.358509	1.593577	-0.044980
H95	H	0.380553	0.843814	0.142333
H96	H	1.232068	0.323966	0.192504
O97	O	0.938454	0.563093	0.640333
C98	C	0.793215	0.746393	0.524132
C99	C	0.878530	0.676928	0.515849
H100	H	0.744743	0.838419	0.423502
H101	H	0.785815	0.797895	0.577450
H102	H	0.785930	0.654198	0.577595
H103	H	0.885873	0.769035	0.462364
H104	H	0.885890	0.625388	0.462579
H105	H	0.105577	0.758272	0.185079
H106	H	0.950677	0.553025	-0.063897
O107	O	1.228908	0.209457	0.846359
C108	C	1.375795	0.037324	0.937321
C109	C	1.299064	0.165146	0.814123
H110	H	1.432536	0.001482	0.911302
H111	H	1.375876	-0.063837	0.995939
H112	H	1.375772	0.079779	0.995937
H113	H	1.299036	0.122833	0.755406
H114	H	1.299012	0.266281	0.755600
H115	H	1.105580	0.534740	0.408619
H116	H	0.225652	1.761165	-0.106622
O117	O	1.106984	0.542799	0.195682
C118	C	1.199059	0.520535	0.332186
C119	C	1.190365	0.462321	0.258879
H120	H	1.266468	0.455517	0.383278
H121	H	1.168616	0.502833	0.405537
H122	H	1.168517	0.646446	0.261927
H123	H	1.220912	0.336402	0.329040
H124	H	1.220785	0.480139	0.185509
H125	H	0.239849	1.857383	-0.742949
H126	H	0.352109	1.550401	-0.099176
O127	O	0.519255	0.806758	0.160996
C128	C	0.647487	0.638141	0.334181
C129	C	0.562167	0.793603	0.256406
H130	H	0.682199	0.627442	0.411354
H131	H	0.682316	0.627392	0.267844
H132	H	0.641083	0.544446	0.380979
H133	H	0.568495	0.887389	0.209599
H134	H	0.527368	0.804222	0.322802
H135	H	-0.049308	1.256218	-0.063880
H136	H	0.232057	0.743332	0.192531
O137	O	0.229001	1.875753	0.013459
C138	C	0.152396	2.128536	-0.043662
C139	C	0.229042	2.000714	-0.039171
H140	H	0.152395	2.229610	-0.086236
H141	H	0.152391	2.086171	0.057389
H142	H	0.095626	2.164488	-0.105551
H143	H	0.285853	1.964705	0.022659
H144	H	0.228975	2.043151	-0.140262
O145	O	0.519266	1.522100	-0.554407
C146	C	0.664506	1.338668	-0.438207
C147	C	0.579191	1.408073	-0.429924
H148	H	0.712978	1.246442	-0.337576
H149	H	0.671888	1.430746	-0.491521
H150	H	0.671807	1.287365	-0.491673
H151	H	0.571830	1.459366	-0.376435
H152	H	0.571847	1.315938	-0.376657
H153	H	1.232050	0.324040	0.611854
H154	H	0.507043	1.532078	0.149807
H155	H	0.077161	1.241285	-0.056417
H156	H	0.225658	1.341753	-0.106619
H157	H	0.225670	1.761091	-0.525926
O158	O	0.350767	1.347885	-0.109731
C159	C	0.258733	1.620983	-0.246207
C160	C	0.267394	1.474497	-0.172947
H161	H	0.191330	1.723386	-0.297314
H162	H	0.289190	1.624101	-0.319541
H163	H	0.289279	1.623898	-0.175914
H164	H	0.236843	1.471484	-0.243143
H165	H	0.236959	1.471438	-0.099595
O166	O	1.075748	0.334099	-0.066944
C167	C	0.983676	0.356433	-0.203523
C168	C	0.992367	0.414735	-0.130304
H169	H	0.916267	0.421623	-0.254790
H170	H	1.014130	0.230555	-0.133308
H171	H	1.014207	0.374027	-0.276755
H172	H	0.961831	0.397247	-0.057072
H173	H	0.961935	0.540593	-0.200596
O174	O	0.381904	1.750940	-0.775397
C175	C	0.473913	1.728305	-0.889759
C176	C	0.465273	1.670236	-0.758199
H177	H	0.541312	1.663060	-0.875899
H178	H	0.443471	1.854195	-0.945593
H179	H	0.443340	1.710580	-0.945188
H180	H	0.495850	1.687856	-0.702664
H181	H	0.495693	1.544366	-0.702461
H182	H	0.380600	1.742812	0.142352
H183	H	1.077196	0.342238	0.842634
O184	O	1.228756	0.209332	0.072524
C185	C	1.305311	-0.043386	0.129511
C186	C	1.228642	0.084472	0.124948
H187	H	1.305236	-0.144354	0.171867
H188	H	1.362121	-0.079543	0.191504
H189	H	1.305308	-0.000861	0.028441
H190	H	1.228566	0.042056	0.225966
H191	H	1.171867	0.120608	0.062886
H192	H	0.352140	1.550346	-0.322694
