data_functionalizedCrystal
_audit_creation_method	'MofGen! by Chris Wilmer'
_symmetry_space_group_name_H-M	'P1'
_symmetry_Int_Tables_number	1
_symmetry_cell_setting	triclinic
loop_
_symmetry_equiv_pos_as_xyz
  x,y,z
_cell_length_a	27.732048
_cell_length_b	27.732048
_cell_length_c	9.130313
_cell_angle_alpha	89.990549
_cell_angle_beta	90.001977
_cell_angle_gamma	82.642655
loop_
_atom_site_label
_atom_site_type_symbol
_atom_site_fract_x
_atom_site_fract_y
_atom_site_fract_z
O1	O	0.640926	0.057517	-0.121626
O2	O	1.140926	0.557517	0.378374
O3	O	0.500133	0.066262	-0.121673
O4	O	1.000133	0.566262	0.378327
O5	O	0.574902	-0.008507	-0.121620
O6	O	1.074902	0.491493	0.378380
O7	O	0.566157	0.132286	-0.121679
O8	O	1.066157	0.632286	0.378321
O9	O	0.574897	-0.008509	0.121979
O10	O	1.074897	0.491491	0.621979
O11	O	0.500128	0.066260	0.121926
O12	O	1.000128	0.566260	0.621926
O13	O	0.640921	0.057515	0.121973
O14	O	1.140921	0.557515	0.621973
Cu15	Cu	0.570524	0.061887	0.144192
Cu16	Cu	1.070524	0.561887	0.644192
Cu17	Cu	0.570530	0.061890	-0.143892
Cu18	Cu	1.070530	0.561890	0.356108
O19	O	0.566152	0.132284	0.121920
O20	O	1.066152	0.632284	0.621920
C21	C	0.482124	0.066078	0.000121
C22	C	0.982124	0.566078	0.500121
C23	C	0.428469	0.065525	0.000105
C24	C	0.928469	0.565525	0.500105
C25	C	0.089654	0.106229	0.000151
C26	C	0.589654	0.606229	0.500151
C27	C	-0.112006	0.104178	0.000165
C28	C	0.387994	0.604178	0.500165
O29	O	-0.143262	0.141398	0.000213
O30	O	0.356738	0.641398	0.500213
N31	N	-0.131130	0.059843	0.000181
N32	N	0.368870	0.559843	0.500181
C33	C	-0.099835	0.016017	0.000203
C34	C	0.400165	0.516017	0.500203
O35	O	-0.120728	-0.021740	0.000232
O36	O	0.379272	0.478260	0.500232
C37	C	0.101824	0.018068	0.000199
C38	C	0.601824	0.518068	0.500199
C39	C	0.120944	0.062407	0.000169
C40	C	0.620944	0.562407	0.500169
C41	C	0.108775	0.150563	0.000122
C42	C	0.608775	0.650563	0.500122
C43	C	0.159187	0.151075	0.000111
C44	C	0.659187	0.651075	0.500111
C45	C	0.190477	0.107253	0.000128
C46	C	0.690477	0.607253	0.500128
C47	C	0.171356	0.062919	0.000157
C48	C	0.671356	0.562919	0.500157
C49	C	0.133117	-0.025757	0.000232
C50	C	0.633117	0.474243	0.500232
C51	C	0.183535	-0.025240	0.000235
C52	C	0.683535	0.474760	0.500235
C53	C	0.202655	0.019098	0.000204
C54	C	0.702655	0.519098	0.500204
C55	C	0.253059	0.019609	0.000163
C56	C	0.753059	0.519609	0.500163
N57	N	0.272183	0.063944	0.000148
N58	N	0.772183	0.563944	0.500148
C59	C	0.240892	0.107766	0.000130
C60	C	0.740892	0.607766	0.500130
C61	C	-0.205709	0.014943	0.000202
C62	C	0.294291	0.514943	0.500202
C63	C	-0.256124	0.014430	0.000200
C64	C	0.243876	0.514430	0.500200
C65	C	-0.268291	0.102591	0.000165
C66	C	0.231709	0.602591	0.500165
C67	C	-0.217876	0.103104	0.000156
C68	C	0.282124	0.603104	0.500156
C69	C	-0.186585	0.059278	0.000186
C70	C	0.313415	0.559278	0.500186
C71	C	0.346761	0.108839	0.000105
C72	C	0.846761	0.608839	0.500105
C73	C	0.397178	0.109347	0.000087
C74	C	0.897178	0.609347	0.500087
C75	C	0.409341	0.021186	0.000130
C76	C	0.909341	0.521186	0.500130
C77	C	0.358929	0.020678	0.000140
C78	C	0.858929	0.520678	0.500140
C79	C	0.327639	0.064508	0.000132
C80	C	0.827639	0.564508	0.500132
O81	O	0.284343	-0.017592	0.000132
O82	O	0.784343	0.482408	0.500132
O83	O	0.261794	0.145518	0.000133
O84	O	0.761794	0.645518	0.500133
C85	C	0.039242	0.105716	0.000163
C86	C	0.539242	0.605716	0.500163
C87	C	0.020120	0.061382	0.000192
C88	C	0.520120	0.561382	0.500192
C89	C	0.051411	0.017560	0.000209
C90	C	0.551411	0.517560	0.500209
C91	C	-0.030294	0.060869	0.000190
C92	C	0.469706	0.560869	0.500190
C93	C	-0.061585	0.104691	0.000172
C94	C	0.438415	0.604691	0.500172
C95	C	-0.042461	0.149026	0.000156
C96	C	0.457539	0.649026	0.500156
C97	C	0.007951	0.149539	0.000145
C98	C	0.507951	0.649539	0.500145
C99	C	0.032287	-0.026775	0.000225
C100	C	0.532287	0.473225	0.500225
C101	C	-0.018125	-0.027284	0.000235
C102	C	0.481875	0.472716	0.500235
C103	C	-0.049416	0.016538	0.000217
C104	C	0.450584	0.516538	0.500217
C105	C	0.574716	-0.026515	0.000183
C106	C	1.074716	0.473485	0.500183
C107	C	0.574164	-0.080170	0.000195
C108	C	1.074164	0.419830	0.500195
C109	C	0.614867	-0.418985	0.000133
C110	C	1.114867	0.081015	0.500133
C111	C	0.612816	-0.620645	0.000112
C112	C	1.112816	-0.120645	0.500112
O113	O	0.650037	-0.651900	0.000060
O114	O	1.150037	-0.151900	0.500060
N115	N	0.568481	-0.639768	0.000099
N116	N	1.068481	-0.139768	0.500099
C117	C	0.524656	-0.608474	0.000081
C118	C	1.024656	-0.108474	0.500081
O119	O	0.486899	-0.629367	0.000055
O120	O	0.986899	-0.129367	0.500055
C121	C	0.526707	-0.406815	0.000092
C122	C	1.026707	0.093185	0.500092
C123	C	0.571045	-0.387694	0.000120
C124	C	1.071045	0.112306	0.500120
C125	C	0.659202	-0.399864	0.000160
C126	C	1.159202	0.100136	0.500160
C127	C	0.659714	-0.349452	0.000173
C128	C	1.159714	0.150548	0.500173
C129	C	0.615892	-0.318161	0.000160
C130	C	1.115892	0.181839	0.500160
C131	C	0.571557	-0.337282	0.000133
C132	C	1.071557	0.162718	0.500133
C133	C	0.482882	-0.375521	0.000064
C134	C	0.982882	0.124479	0.500064
C135	C	0.483399	-0.325104	0.000063
C136	C	0.983399	0.174896	0.500063
C137	C	0.527737	-0.305983	0.000091
C138	C	1.027737	0.194017	0.500091
C139	C	0.528247	-0.255580	0.000133
C140	C	1.028247	0.244420	0.500133
N141	N	0.572583	-0.236456	0.000147
N142	N	1.072583	0.263544	0.500147
C143	C	0.616405	-0.267747	0.000160
C144	C	1.116405	0.232253	0.500160
C145	C	0.523582	-0.714348	0.000079
C146	C	1.023582	-0.214348	0.500079
C147	C	0.523069	-0.764762	0.000079
C148	C	1.023069	-0.264762	0.500079
C149	C	0.611230	-0.776930	0.000107
C150	C	1.111230	-0.276930	0.500107
C151	C	0.611742	-0.726514	0.000117
C152	C	1.111742	-0.226514	0.500117
C153	C	0.567917	-0.695224	0.000092
C154	C	1.067917	-0.195224	0.500092
C155	C	0.617477	-0.161878	0.000189
C156	C	1.117477	0.338122	0.500189
C157	C	0.617986	-0.111461	0.000208
C158	C	1.117986	0.388539	0.500208
C159	C	0.529825	-0.099298	0.000172
C160	C	1.029825	0.400702	0.500172
C161	C	0.529316	-0.149710	0.000161
C162	C	1.029316	0.350290	0.500161
C163	C	0.573147	-0.180999	0.000164
C164	C	1.073147	0.319001	0.500164
O165	O	0.491047	-0.224296	0.000169
O166	O	0.991047	0.275704	0.500169
O167	O	0.654156	-0.246844	0.000154
O168	O	1.154156	0.253156	0.500154
C169	C	0.614355	-0.469397	0.000120
C170	C	1.114355	0.030603	0.500120
C171	C	0.570021	-0.488518	0.000094
C172	C	1.070021	0.011482	0.500094
C173	C	0.526198	-0.457228	0.000080
C174	C	1.026198	0.042772	0.500080
C175	C	0.569508	-0.538933	0.000094
C176	C	1.069508	-0.038933	0.500094
C177	C	0.613330	-0.570223	0.000107
C178	C	1.113330	-0.070223	0.500107
C179	C	0.657665	-0.551100	0.000120
C180	C	1.157665	-0.051100	0.500120
C181	C	0.658177	-0.500688	0.000133
C182	C	1.158177	-0.000688	0.500133
C183	C	0.481863	-0.476351	0.000067
C184	C	0.981863	0.023649	0.500067
C185	C	0.481355	-0.526764	0.000056
C186	C	0.981355	-0.026764	0.500056
C187	C	0.525177	-0.558054	0.000069
C188	C	1.025177	-0.058054	0.500069
C189	C	0.658931	0.057699	0.000176
C190	C	1.158931	0.557699	0.500176
C191	C	0.712586	0.058252	0.000182
C192	C	1.212586	0.558252	0.500182
C193	C	0.566338	0.150292	0.000113
C194	C	1.066338	0.650292	0.500113
C195	C	0.566891	0.203947	0.000092
C196	C	1.066891	0.703947	0.500092
N197	N	0.570524	0.061885	0.346815
N198	N	1.070524	0.561885	0.846815
N199	N	0.570535	0.061888	-0.346515
N200	N	1.070535	0.561888	0.153485
C201	C	0.603642	0.028791	0.423490
C202	C	1.103642	0.528791	0.923490
C203	C	0.603647	0.028791	0.576826
C204	C	1.103647	0.528791	1.076826
C205	C	0.537412	0.094984	0.576800
C206	C	1.037412	0.594984	1.076800
C207	C	0.537406	0.094981	0.423465
C208	C	1.037406	0.594981	0.923465
H209	H	0.209009	-0.060929	0.000260
H210	H	0.709009	0.439071	0.500260
F211	F	0.179530	0.198267	0.000085
F212	F	0.679530	0.698267	0.500085
H213	H	-0.033688	-0.063392	0.000248
H214	H	0.466312	0.436608	0.500248
F215	F	0.638888	-0.006434	0.341918
F216	F	1.138888	0.493566	0.841918
F217	F	0.502153	0.130204	0.341856
F218	F	1.002153	0.630204	0.841856
H219	H	0.630615	0.001842	0.639251
H220	H	1.130615	0.501842	1.139251
H221	H	0.412743	0.145454	0.000061
H222	H	0.912743	0.645454	0.500061
H223	H	0.694282	-0.485125	0.000156
H224	H	1.194282	0.014875	0.500156
F225	F	0.065583	-0.073420	0.000247
F226	F	0.565583	0.426580	0.500247
H227	H	0.694889	-0.425336	0.000165
H228	H	1.194889	0.074664	0.500165
H229	H	0.487892	-0.688875	0.000058
H230	H	0.987892	-0.188875	0.500058
F231	F	0.435691	-0.395860	0.000028
F232	F	0.935691	0.104140	0.500028
H233	H	0.510449	0.121931	0.639224
H234	H	1.010449	0.621931	1.139224
H235	H	0.083302	0.186251	0.000113
H236	H	0.583302	0.686251	0.500113
H237	H	0.321291	0.144530	0.000103
H238	H	0.821291	0.644530	0.500103
F239	F	-0.197531	0.150294	0.000126
F240	F	0.302469	0.650294	0.500126
H241	H	0.494146	-0.073812	0.000167
H242	H	0.994146	0.426188	0.500167
H243	H	0.653168	-0.187348	0.000186
H244	H	1.153168	0.312652	0.500186
H245	H	-0.293777	0.138273	0.000151
H246	H	0.206223	0.638273	0.500151
H247	H	-0.067947	0.184708	0.000136
H248	H	0.432053	0.684708	0.500136
F249	F	-0.276468	-0.032761	0.000200
F250	F	0.223532	0.467239	0.500200
H251	H	0.647846	-0.710950	0.000139
H252	H	1.147846	-0.210950	0.500139
H253	H	0.117558	-0.061861	0.000258
H254	H	0.617558	0.438139	0.500258
F255	F	-0.172413	-0.031705	0.000232
F256	F	0.327587	0.468295	0.500232
F257	F	0.338578	-0.026511	0.000173
F258	F	0.838578	0.473489	0.500173
H259	H	0.023514	0.185643	0.000122
H260	H	0.523514	0.685643	0.500122
F261	F	0.442651	-0.025450	0.000151
F262	F	0.942651	0.474550	0.500151
F263	F	0.665178	-0.091114	0.000238
F264	F	1.165178	0.408886	0.500238
H265	H	0.447710	-0.299629	0.000040
H266	H	0.947710	0.200371	0.500040
H267	H	0.695819	-0.333889	0.000190
H268	H	1.195819	0.166111	0.500190
H269	H	0.646911	-0.802415	0.000118
H270	H	1.146911	-0.302415	0.500118
F271	F	0.482127	-0.170060	0.000157
F272	F	0.982127	0.329940	0.500157
F273	F	0.475878	-0.785106	0.000075
F274	F	0.975878	-0.285106	0.500075
H275	H	0.445246	-0.542327	0.000045
H276	H	0.945246	-0.042327	0.500045
F277	F	0.704304	-0.584410	0.000142
F278	F	1.204304	-0.084410	0.500142
H279	H	0.446177	-0.450879	0.000053
H280	H	0.946177	0.049121	0.500053
