data_functionalizedCrystal
_audit_creation_method	'MofGen! by Chris Wilmer'
_symmetry_space_group_name_H-M	'P1'
_symmetry_Int_Tables_number	1
_symmetry_cell_setting	triclinic
loop_
_symmetry_equiv_pos_as_xyz
  x,y,z
_cell_length_a	17.640280
_cell_length_b	12.759401
_cell_length_c	12.759393
_cell_angle_alpha	90.017380
_cell_angle_beta	78.768143
_cell_angle_gamma	101.198912
loop_
_atom_site_label
_atom_site_type_symbol
_atom_site_fract_x
_atom_site_fract_y
_atom_site_fract_z
Zn1	Zn	-0.314619	-1.690805	-0.509515
Zn2	Zn	-0.446816	-1.726234	-0.298344
Zn3	Zn	-0.314661	-1.515121	-0.333844
Zn4	Zn	-0.446755	-1.550610	-0.474002
O5	O	-0.380713	-1.620692	-0.403926
O6	O	-0.332163	-1.842528	-0.481509
O7	O	-0.429329	-1.698204	-0.156021
O8	O	-0.204048	-1.508747	-0.386866
O9	O	-0.429288	-1.868557	-0.326362
O10	O	-0.204017	-1.637821	-0.515931
O11	O	-0.332235	-1.543101	-0.182102
O12	O	-0.332175	-1.372806	-0.352430
O13	O	-0.429184	-1.569232	-0.625746
O14	O	-0.429224	-1.398879	-0.455404
O15	O	-0.332104	-1.672233	-0.651837
O16	O	-0.557415	-1.732616	-0.291927
O17	O	-0.557370	-1.603586	-0.420982
C18	C	-0.380698	-1.347721	-0.403916
C19	C	-0.380711	-1.230948	-0.403931
C20	C	-0.586072	-1.675825	-0.348772
C21	C	-0.673925	-1.699507	-0.325211
C22	C	-0.380632	-1.620739	-0.677981
C23	C	-0.380598	-1.620759	-0.794767
C24	C	-0.962885	-1.441214	-0.583294
C25	C	-1.045436	-1.463469	-0.561122
C26	C	-1.045418	-1.597911	-0.426873
C27	C	-0.962864	-1.575671	-0.449037
C28	C	-0.921604	-1.497320	-0.527248
C29	C	-0.921584	-1.631777	-0.392991
C30	C	-0.839038	-1.609535	-0.415150
C31	C	-0.797772	-1.531186	-0.493355
C32	C	-0.839058	-1.475078	-0.549407
C33	C	-0.962846	-1.710122	-0.314775
C34	C	-0.921565	-1.766229	-0.258729
C35	C	-0.839018	-1.743992	-0.280893
C36	C	-0.797752	-1.665643	-0.359098
C37	C	-0.797732	-1.800100	-0.224841
C38	C	-0.715185	-1.777858	-0.247000
C39	C	-0.715206	-1.643400	-0.381257
C40	C	-0.174552	-1.565373	-0.459320
C41	C	-0.086698	-1.541800	-0.482925
C42	C	-0.380728	-1.894730	-0.403937
C43	C	-0.380734	-2.011508	-0.403942
C44	C	-0.431325	-1.189712	-0.457417
C45	C	-0.431335	-1.079990	-0.457426
C46	C	-0.330114	-1.052751	-0.350455
C47	C	-0.330101	-1.162469	-0.350453
C48	C	-0.489767	-1.205438	-0.519172
C49	C	-0.489777	-1.095716	-0.519181
C50	C	-0.330032	-1.540023	-0.863218
C51	C	-0.330008	-1.540048	-0.972949
C52	C	-0.431119	-1.701556	-0.945767
C53	C	-0.431146	-1.701525	-0.836038
C54	C	-0.271653	-1.446780	-0.878913
C55	C	-0.271630	-1.446805	-0.988644
C56	C	-0.380736	-1.620691	-0.130953
C57	C	-0.380548	-1.620815	-0.014227
H58	H	-0.681610	-1.579607	-0.444952
H59	H	-0.213515	-1.460318	-0.860505
H60	H	-0.730558	-1.513070	-0.511388
H61	H	-0.472273	-1.767313	-0.979383
Cl62	Cl	-0.787182	-1.376588	-0.647741
Cl63	Cl	-0.584255	-1.075100	-0.459920
Cl64	Cl	-0.911008	-1.342724	-0.681628
Cl65	Cl	-1.097329	-1.392913	-0.631577
H66	H	-1.079023	-1.661701	-0.363190
Cl67	Cl	-0.464564	-1.244692	-0.651620
H68	H	-0.472334	-1.767256	-0.780305
Cl69	Cl	-0.663286	-1.848382	-0.176532
H70	H	-0.288046	-1.369796	-0.844735
H71	H	-0.547885	-1.255073	-0.474285
Cl72	Cl	-1.066620	-1.738122	-0.286956
Cl73	Cl	-0.305474	-1.336573	-1.032100
H74	H	-0.210405	-1.452167	-1.034878
Cl75	Cl	-0.266494	-0.966657	-0.283229
H76	H	-0.955171	-1.830019	-0.195047
H77	H	-0.831338	-1.863885	-0.161155
Cl78	Cl	-0.266455	-1.214302	-0.283234
Cl79	Cl	-0.456042	-1.034148	-0.647658
