data_functionalizedCrystal
_audit_creation_method	'MofGen! by Chris Wilmer'
_symmetry_space_group_name_H-M	'P1'
_symmetry_Int_Tables_number	1
_symmetry_cell_setting	triclinic
loop_
_symmetry_equiv_pos_as_xyz
  x,y,z
_cell_length_a	11.792241
_cell_length_b	10.654550
_cell_length_c	9.130313
_cell_angle_alpha	90.004369
_cell_angle_beta	89.997349
_cell_angle_gamma	95.660827
loop_
_atom_site_label
_atom_site_type_symbol
_atom_site_fract_x
_atom_site_fract_y
_atom_site_fract_z
O1	O	1.507305	-0.172135	-0.121770
O2	O	2.007305	0.327865	0.378230
O3	O	1.177005	-0.189875	-0.121779
O4	O	1.677005	0.310125	0.378221
O5	O	1.349749	0.001755	-0.121765
O6	O	1.849749	0.501755	0.378235
O7	O	1.334561	-0.363766	-0.121784
O8	O	1.834561	0.136234	0.378216
O9	O	1.349737	0.001761	0.121834
O10	O	1.849737	0.501761	0.621834
O11	O	1.176993	-0.189870	0.121820
O12	O	1.676993	0.310130	0.621820
O13	O	1.507293	-0.172130	0.121829
O14	O	2.007293	0.327870	0.621829
Cu15	Cu	1.342142	-0.180999	0.144067
Cu16	Cu	1.842142	0.319001	0.644067
Cu17	Cu	1.342156	-0.181006	-0.144017
Cu18	Cu	1.842156	0.318994	0.355983
O19	O	1.334549	-0.363760	0.121815
O20	O	1.834549	0.136240	0.621815
C21	C	1.134705	-0.188758	0.000019
C22	C	1.634705	0.311242	0.500019
C23	C	1.008684	-0.185423	0.000016
C24	C	1.508684	0.314577	0.500016
C25	C	1.549592	-0.173247	0.000027
C26	C	2.049592	0.326753	0.500027
C27	C	1.675614	-0.176582	0.000021
C28	C	2.175614	0.323418	0.500021
C29	C	1.906340	-0.182715	0.000021
C30	C	2.406340	0.317285	0.500021
C31	C	1.777947	-0.179308	0.000022
C32	C	2.277947	0.320692	0.500022
C33	C	1.348628	0.048553	0.000033
C34	C	1.848628	0.548553	0.500033
C35	C	1.345291	0.187987	0.000031
C36	C	1.845291	0.687987	0.500031
C37	C	1.335670	-0.410558	0.000013
C38	C	1.835670	0.089442	0.500013
C39	C	1.339006	-0.549992	0.000006
C40	C	1.839006	-0.049992	0.500006
N41	N	1.342140	-0.180994	0.346689
N42	N	1.842140	0.319006	0.846689
C43	C	1.447000	0.267760	0.000033
C44	C	1.947000	0.767760	0.500033
C45	C	1.443859	0.398772	0.000015
C46	C	1.943859	0.898772	0.500015
C47	C	1.237290	0.370225	-0.000001
C48	C	1.737290	0.870225	0.499999
C49	C	1.240433	0.239215	0.000007
C50	C	1.740433	0.739215	0.500007
N51	N	1.342166	-0.181001	-0.346640
N52	N	1.842166	0.318999	0.153360
C53	C	1.418657	-0.096175	0.423347
C54	C	1.918657	0.403825	0.923347
C55	C	1.418668	-0.096176	0.576684
C56	C	1.918668	0.403824	1.076684
C57	C	1.265641	-0.265824	0.576692
C58	C	1.765641	0.234176	1.076692
C59	C	1.265626	-0.265816	0.423357
C60	C	1.765626	0.234184	0.923357
H61	H	1.532383	0.226055	0.000050
H62	H	2.032383	0.726055	0.500050
H63	H	1.480974	-0.027108	0.639095
H64	H	1.980974	0.472892	1.139095
H65	H	1.203346	-0.334886	0.639130
H66	H	1.703346	0.165114	1.139130
H67	H	1.203311	-0.334886	0.360938
H68	H	1.703311	0.165114	0.860938
H69	H	1.526681	0.463719	0.000014
H70	H	2.026681	0.963719	0.500014
H71	H	1.151917	0.411951	-0.000018
H72	H	1.651917	0.911951	0.499982
Br73	Br	1.102389	0.130941	-0.000016
Br74	Br	1.602389	0.630941	0.499984
Br75	Br	1.522496	0.018943	0.319303
Br76	Br	2.022496	0.518943	0.819303
