data_functionalizedCrystal
_audit_creation_method	'MofGen! by Chris Wilmer'
_symmetry_space_group_name_H-M	'P1'
_symmetry_Int_Tables_number	1
_symmetry_cell_setting	triclinic
loop_
_symmetry_equiv_pos_as_xyz
  x,y,z
_cell_length_a	17.699083
_cell_length_b	15.538191
_cell_length_c	16.176319
_cell_angle_alpha	89.995479
_cell_angle_beta	89.998611
_cell_angle_gamma	65.277554
loop_
_atom_site_label
_atom_site_type_symbol
_atom_site_fract_x
_atom_site_fract_y
_atom_site_fract_z
O1	O	0.971508	0.119201	-0.068626
O2	O	0.746892	0.134709	-0.068653
O3	O	0.902923	-0.010274	-0.068638
O4	O	0.815476	0.264185	-0.068641
O5	O	0.902910	-0.010284	0.068855
O6	O	0.746878	0.134700	0.068840
O7	O	0.971494	0.119192	0.068867
Cu8	Cu	0.859185	0.126945	0.081408
Cu9	Cu	0.859201	0.126956	-0.081194
O10	O	0.815463	0.264175	0.068852
C11	C	0.718840	0.134149	0.000090
C12	C	0.635277	0.132482	0.000080
C13	C	0.563403	0.217584	0.000079
C14	C	0.484889	0.216012	0.000090
C15	C	0.478252	0.129337	0.000095
C16	C	0.550134	0.044228	0.000098
C17	C	0.628646	0.045801	0.000094
C18	C	0.233505	0.037882	0.000119
C19	C	0.154985	0.036316	0.000121
C20	C	0.089748	0.208094	0.000115
C21	C	0.168260	0.209667	0.000111
C22	C	0.240135	0.124558	0.000118
C23	C	0.325269	0.126264	0.000108
C24	C	0.393120	0.127630	0.000100
C25	C	0.912066	-0.045395	0.000107
C26	C	0.939318	-0.150032	0.000102
C27	C	0.668571	-0.437202	0.000087
C28	C	0.694198	-0.535527	0.000092
C29	C	0.838344	-0.558300	0.000109
C30	C	0.812729	-0.459975	0.000100
C31	C	0.727842	-0.399434	0.000090
C32	C	0.872000	-0.422207	0.000103
C33	C	0.846387	-0.323891	0.000098
C34	C	0.761503	-0.263343	0.000091
C35	C	0.702229	-0.301118	0.000085
C36	C	0.956887	-0.482750	0.000118
C37	C	1.016158	-0.444981	0.000121
C38	C	0.990545	-0.346663	0.000111
C39	C	0.905661	-0.286116	0.000103
C40	C	1.049819	-0.308889	0.000116
C41	C	1.024206	-0.210573	0.000111
C42	C	0.880048	-0.187800	0.000099
C43	C	0.999546	0.119752	0.000122
C44	C	1.083109	0.121419	0.000127
C45	C	0.806321	0.299297	0.000106
C46	C	0.779068	0.403933	0.000105
N47	N	0.859180	0.126937	0.195773
N48	N	0.859215	0.126957	-0.195559
C49	C	0.928279	0.062764	0.239044
C50	C	0.928283	0.062763	0.325591
C51	C	0.859189	0.126940	0.368866
C52	C	0.790084	0.191116	0.325589
C53	C	0.790078	0.191111	0.239043
C54	C	0.790105	0.191133	0.674617
C55	C	0.790117	0.191135	0.761169
C56	C	0.928310	0.062785	0.761164
C57	C	0.928304	0.062781	0.674619
C58	C	0.859197	0.126953	0.631350
C59	C	0.859193	0.126952	0.537506
C60	C	0.859195	0.126946	0.462708
H61	H	0.173657	0.280246	0.000103
F62	F	1.001843	-0.005521	0.628566
F63	F	0.631107	-0.575718	0.000094
F64	F	0.716532	0.259410	0.192993
H65	H	0.907460	-0.607605	0.000120
F66	F	0.716575	0.259443	0.807224
H67	H	0.031216	0.277393	0.000114
F68	F	0.147927	-0.055941	0.000127
F69	F	1.001859	-0.005516	0.807221
H70	H	0.733824	0.243367	0.360828
F71	F	0.984145	-0.587387	0.000129
F72	F	1.140159	-0.373333	0.000140
H73	H	0.292019	-0.031418	0.000126
F74	F	0.578224	-0.372764	0.000069
H75	H	1.085273	-0.494287	0.000132
F76	F	1.087288	-0.170374	0.000127
F77	F	0.543069	-0.048019	0.000110
H78	H	0.984544	0.010508	0.203815
H79	H	0.687169	-0.023498	0.000094
H80	H	0.568797	0.288165	0.000074
F81	F	1.001825	-0.005537	0.371643
H82	H	0.810924	-0.138503	0.000085
H83	H	0.426369	0.285311	0.000089
F84	F	0.734243	-0.158705	0.000093
F85	F	0.716559	0.259431	0.628574
F86	F	0.611881	-0.236679	0.000067
