data_functionalizedCrystal
_audit_creation_method	'MofGen! by Chris Wilmer'
_symmetry_space_group_name_H-M	'P1'
_symmetry_Int_Tables_number	1
_symmetry_cell_setting	triclinic
loop_
_symmetry_equiv_pos_as_xyz
  x,y,z
_cell_length_a	12.759401
_cell_length_b	16.625545
_cell_length_c	12.759393
_cell_angle_alpha	89.966045
_cell_angle_beta	89.980163
_cell_angle_gamma	90.027083
loop_
_atom_site_label
_atom_site_type_symbol
_atom_site_fract_x
_atom_site_fract_y
_atom_site_fract_z
Zn1	Zn	1.606176	-0.320921	-0.594003
Zn2	Zn	2.106176	0.179079	-0.094003
Zn3	Zn	1.606037	-0.455778	-0.418316
Zn4	Zn	2.106037	0.044222	0.081684
Zn5	Zn	1.430478	-0.320966	-0.418338
Zn6	Zn	1.930478	0.179034	0.081662
Zn7	Zn	1.430433	-0.455719	-0.593953
Zn8	Zn	1.930433	0.044281	-0.093953
O9	O	1.518281	-0.388346	-0.506153
O10	O	2.018281	0.111654	-0.006153
O11	O	1.753178	-0.338816	-0.570709
O12	O	2.253178	0.161184	-0.070709
O13	O	1.582709	-0.437938	-0.271298
O14	O	2.082709	0.062062	0.228702
O15	O	1.453861	-0.208128	-0.441671
O16	O	1.953861	0.291872	0.058329
O17	O	1.753076	-0.437894	-0.441633
O18	O	2.253076	0.062106	0.058367
O19	O	1.582946	-0.208094	-0.570731
O20	O	2.082946	0.291906	-0.070731
O21	O	1.453727	-0.338893	-0.271314
O22	O	1.953727	0.161107	0.228686
O23	O	1.283451	-0.338836	-0.441622
O24	O	1.783451	0.161164	0.058378
O25	O	1.453785	-0.437794	-0.740981
O26	O	1.953785	0.062206	-0.240981
O27	O	1.283418	-0.437838	-0.570646
O28	O	1.783418	0.062162	-0.070646
O29	O	1.582902	-0.338758	-0.741018
O30	O	2.082902	0.161242	-0.241018
O31	O	1.582666	-0.568602	-0.441585
O32	O	2.082666	-0.068602	0.058415
O33	O	1.453650	-0.568559	-0.570624
O34	O	1.953650	-0.068559	-0.070624
C35	C	1.245313	-0.388336	-0.506132
C36	C	1.745313	0.111664	-0.006132
C37	C	1.128537	-0.388351	-0.506148
C38	C	1.628537	0.111649	-0.006148
C39	C	1.518167	-0.597837	-0.506120
C40	C	2.018167	-0.097837	-0.006120
C41	C	1.518214	-0.687458	-0.506141
C42	C	2.018214	-0.187458	-0.006141
C43	C	1.073685	-0.439980	-0.573225
C44	C	1.573685	0.060020	-0.073225
C45	C	0.963961	-0.439983	-0.573245
C46	C	1.463961	0.060017	-0.073245
C47	C	0.963950	-0.336726	-0.439104
C48	C	1.463950	0.163274	0.060896
C49	C	1.073672	-0.336720	-0.439089
C50	C	1.573672	0.163280	0.060911
C51	C	1.518255	-0.760240	-0.506161
C52	C	2.018255	-0.260240	-0.006161
C53	C	1.518316	-0.851549	-0.506185
C54	C	2.018316	-0.351549	-0.006185
C55	C	1.518370	-0.924325	-0.506198
C56	C	2.018370	-0.424325	-0.006198
C57	C	1.518431	-1.015639	-0.506219
C58	C	2.018431	-0.515639	-0.006219
C59	C	1.792314	-0.388356	-0.506174
C60	C	2.292314	0.111644	-0.006174
C61	C	1.909091	-0.388361	-0.506183
C62	C	2.409091	0.111639	-0.006183
C63	C	1.518354	-0.388264	-0.780186
C64	C	2.018354	0.111736	-0.280186
C65	C	1.518385	-0.388230	-0.896963
C66	C	2.018385	0.111770	-0.396963
C67	C	1.518424	-0.178037	-0.506209
C68	C	2.018424	0.321963	-0.006209
C69	C	1.518485	-0.088416	-0.506233
C70	C	2.018485	0.411584	-0.006233
C71	C	1.451248	-0.336647	-0.951833
C72	C	1.951248	0.163353	-0.451833
C73	C	1.451273	-0.336623	-1.061557
C74	C	1.951273	0.163377	-0.561557
C75	C	1.585581	-0.439765	-1.061531
C76	C	2.085581	0.060235	-0.561531
C77	C	1.585550	-0.439793	-0.951809
C78	C	2.085550	0.060207	-0.451809
C79	C	1.518268	-0.388369	-0.233185
C80	C	2.018268	0.111631	0.266815
C81	C	1.518441	-0.388177	-0.116409
C82	C	2.018441	0.111823	0.383591
H83	H	1.118353	-0.482020	-0.627831
H84	H	1.618353	0.017980	-0.127831
O85	O	1.650938	-0.489730	-1.114860
O86	O	2.150938	0.010270	-0.614860
C87	C	1.718829	-0.443812	-1.178366
C88	C	2.218829	0.056188	-0.678366
H89	H	1.725355	-0.380317	-1.145320
H90	H	2.225355	0.119683	-0.645320
H91	H	1.799662	-0.472979	-1.179608
H92	H	2.299662	0.027021	-0.679608
H93	H	1.686370	-0.441010	-1.261521
H94	H	2.186370	0.058990	-0.761521
O95	O	1.650673	-0.489877	-0.898339
O96	O	2.150673	0.010123	-0.398339
C97	C	1.636257	-0.478831	-0.789736
C98	C	2.136257	0.021169	-0.289736
H99	H	1.555191	-0.452421	-0.774759
H100	H	2.055191	0.047579	-0.274759
H101	H	1.643323	-0.539238	-0.748013
H102	H	2.143323	-0.039238	-0.248013
H103	H	1.698596	-0.435906	-0.758615
H104	H	2.198596	0.064094	-0.258615
H105	H	0.919306	-0.482023	-0.627868
H106	H	1.419306	0.017977	-0.127868
H107	H	0.919266	-0.294691	-0.384505
H108	H	1.419266	0.205309	0.115495
O109	O	1.126915	-0.286651	-0.373774
O110	O	1.626915	0.213349	0.126226
C111	C	1.100029	-0.304164	-0.269024
C112	C	1.600029	0.195836	0.230976
H113	H	1.069829	-0.368574	-0.263572
H114	H	1.569829	0.131426	0.236428
H115	H	1.172169	-0.297168	-0.217130
H116	H	1.672169	0.202832	0.282870
H117	H	1.036353	-0.260912	-0.241668
H118	H	1.536353	0.239088	0.258332
H119	H	1.396559	-0.294661	-0.907180
H120	H	1.896559	0.205339	-0.407180
O121	O	1.386025	-0.286437	-1.114695
O122	O	1.886025	0.213563	-0.614695
C123	C	1.326722	-0.240952	-1.042753
C124	C	1.826722	0.259048	-0.542753
H125	H	1.369739	-0.238183	-0.964545
H126	H	1.869739	0.261817	-0.464545
H127	H	1.315570	-0.177414	-1.074476
H128	H	1.815570	0.322586	-0.574476
H129	H	1.246904	-0.270475	-1.031064
H130	H	1.746904	0.229525	-0.531064
