data_functionalizedCrystal
_audit_creation_method	'MofGen! by Chris Wilmer'
_symmetry_space_group_name_H-M	'P1'
_symmetry_Int_Tables_number	1
_symmetry_cell_setting	triclinic
loop_
_symmetry_equiv_pos_as_xyz
  x,y,z
_cell_length_a	17.038272
_cell_length_b	10.654549
_cell_length_c	15.500392
_cell_angle_alpha	93.150592
_cell_angle_beta	87.024870
_cell_angle_gamma	92.201833
loop_
_atom_site_label
_atom_site_type_symbol
_atom_site_fract_x
_atom_site_fract_y
_atom_site_fract_z
O1	O	-1.035634	0.267316	-0.071829
O2	O	-0.807978	0.262982	-0.071854
O3	O	-0.927040	0.082896	-0.071839
O4	O	-0.916571	0.447402	-0.071844
O5	O	-0.933554	0.094003	0.072046
O6	O	-0.814491	0.274089	0.072031
O7	O	-1.042148	0.278424	0.072057
Cu8	Cu	-0.928914	0.277271	0.085182
Cu9	Cu	-0.921211	0.264135	-0.084979
O10	O	-0.923085	0.458509	0.072042
C11	C	-0.782084	0.264594	0.000085
C12	C	-0.695225	0.252836	0.000075
C13	C	-1.068041	0.276811	0.000115
C14	C	-1.154900	0.288568	0.000120
C15	C	-0.920597	0.499825	0.000099
C16	C	-0.922896	0.639482	0.000097
C17	C	-0.645714	0.360781	0.000075
C18	C	-0.564102	0.349727	0.000087
C19	C	-0.532003	0.230728	0.000093
C20	C	-0.581521	0.122776	0.000097
C21	C	-0.663131	0.133831	0.000091
C22	C	-0.286028	0.191672	0.000117
C23	C	-0.204411	0.180624	0.000120
C24	C	-0.186998	0.407577	0.000112
C25	C	-0.268611	0.418621	0.000101
C26	C	-0.318121	0.310670	0.000109
C27	C	-0.448583	0.219426	0.000103
C28	C	-0.401540	0.321973	0.000105
C29	C	-0.929528	0.041580	0.000102
C30	C	-0.927229	-0.098077	0.000098
C31	C	-0.854961	0.843688	0.000089
C32	C	-0.852794	0.712466	0.000092
C33	C	-0.995170	0.697726	0.000109
C34	C	-0.997336	0.828946	0.000112
N35	N	-0.915793	0.254887	-0.204661
C36	C	-0.961492	0.332846	-0.249962
C37	C	-0.957375	0.325830	-0.340532
C38	C	-0.907562	0.240847	-0.385801
C39	C	-0.861858	0.162884	-0.340495
C40	C	-0.865971	0.169908	-0.249926
C41	C	-0.892748	0.215570	-0.659260
C42	C	-0.888639	0.208550	-0.749836
C43	C	-0.984156	0.371498	-0.749867
C44	C	-0.988269	0.378509	-0.659296
C45	C	-0.942561	0.300551	-0.613998
C46	C	-0.903354	0.233670	-0.478379
C47	C	-0.946766	0.307735	-0.521422
N48	N	-0.934338	0.286509	0.204864
H49	H	-0.523793	0.437627	0.000085
C50	C	-1.137857	0.801204	0.000118
C51	C	-1.076779	0.892967	0.000118
H52	H	-1.186898	0.840731	0.000118
H53	H	-1.136325	0.754202	0.050289
H54	H	-1.131774	0.746458	-0.050063
H55	H	-1.082858	0.947708	0.050302
H56	H	-1.078312	0.939990	-0.050059
C57	C	-0.346889	0.556989	-0.073918
C58	C	-0.303874	0.549439	0.000067
H59	H	-0.368649	0.637757	-0.073951
H60	H	-0.388064	0.494309	-0.073904
H61	H	-0.313120	0.544041	-0.124076
H62	H	-0.337644	0.562378	0.050225
H63	H	-0.262694	0.612138	0.000060
H64	H	-0.793947	0.665058	0.000087
H65	H	-1.052248	0.638292	0.000119
H66	H	-0.797875	0.903103	0.000081
C67	C	-1.052213	0.487581	-0.331466
C68	C	-1.007615	0.411517	-0.390326
H69	H	-1.083234	0.540476	-0.362208
H70	H	-1.018044	0.537829	-0.296148
H71	H	-1.085617	0.436018	-0.296132
H72	H	-0.974206	0.463080	-0.425656
H73	H	-1.041788	0.361264	-0.425659
H74	H	-0.555380	0.025885	0.000114
C75	C	-1.082257	0.538891	-0.668428
C76	C	-1.043017	0.471937	-0.609539
H77	H	-1.116053	0.596573	-0.637708
H78	H	-1.112460	0.481874	-0.703742
H79	H	-1.044867	0.583650	-0.703763
H80	H	-1.080408	0.427170	-0.574209
H81	H	-1.012812	0.528962	-0.574211
H82	H	-0.862798	0.164473	-0.515247
H83	H	-0.427679	0.418862	0.000105
H84	H	-0.146678	0.495465	0.000107
C85	C	-0.828991	-0.053193	-0.368329
C86	C	-0.807100	0.069465	-0.390248
H87	H	-0.795182	-0.110867	-0.399039
H88	H	-0.881724	-0.071756	-0.383177
H89	H	-0.824899	-0.060146	-0.307903
H90	H	-0.811198	0.076421	-0.450673
H91	H	-0.754354	0.088034	-0.375405
H92	H	-1.002059	0.402044	-0.213110
H93	H	-0.671842	0.457683	0.000069
C94	C	-0.794621	0.048198	-0.740713
C95	C	-0.833875	0.115137	-0.799598
H96	H	-0.760812	-0.009462	-0.771436
H97	H	-0.831996	0.003426	-0.705382
H98	H	-0.764422	0.105235	-0.705395
H99	H	-0.864079	0.058100	-0.834912
H100	H	-0.796495	0.159911	-0.834943
C101	C	-0.190767	-0.021947	-0.073831
C102	C	-0.169125	0.049812	0.000130
H103	H	-0.168985	-0.102702	-0.073822
H104	H	-0.171539	0.018990	-0.124000
H105	H	-0.246458	-0.030812	-0.073820
H106	H	-0.113433	0.058685	0.000115
H107	H	-0.188350	0.008865	0.050312
H108	H	-0.326331	0.103769	0.000124
H109	H	-0.703443	0.045931	0.000091
H110	H	-0.422440	0.122538	0.000133
H111	H	-0.855532	0.152087	-0.622389
H112	H	-1.021367	0.434969	-0.786759
H113	H	-0.828756	0.106427	-0.213043
H114	H	-0.987320	0.376933	-0.484560
