data_functionalizedCrystal
_audit_creation_method	'MofGen! by Chris Wilmer'
_symmetry_space_group_name_H-M	'P1'
_symmetry_Int_Tables_number	1
_symmetry_cell_setting	triclinic
loop_
_symmetry_equiv_pos_as_xyz
  x,y,z
_cell_length_a	10.489711
_cell_length_b	10.489716
_cell_length_c	15.455313
_cell_angle_alpha	92.696181
_cell_angle_beta	87.290240
_cell_angle_gamma	84.528072
loop_
_atom_site_label
_atom_site_type_symbol
_atom_site_fract_x
_atom_site_fract_y
_atom_site_fract_z
O1	O	1.699602	0.174259	-0.072154
O2	O	1.328400	0.191192	-0.072148
O3	O	1.522464	-0.002876	-0.072154
O4	O	1.505538	0.368326	-0.072148
O5	O	1.511366	0.008176	0.072108
O6	O	1.317302	0.202243	0.072114
O7	O	1.688504	0.185310	0.072108
Cu8	Cu	1.501890	0.194786	0.085284
Cu9	Cu	1.515014	0.181716	-0.085323
O10	O	1.494440	0.379378	0.072115
C11	C	1.275318	0.195447	-0.000016
C12	C	1.133687	0.191645	-0.000014
C13	C	1.515644	-0.044882	-0.000026
C14	C	1.511839	-0.186514	-0.000034
C15	C	0.951291	0.308350	-0.000022
C16	C	1.048914	0.244605	-0.071151
C17	C	1.037945	0.255469	0.071081
C18	C	0.978979	0.121055	-0.071220
C19	C	0.967996	0.131942	0.071075
C20	C	1.065592	0.068106	-0.000071
C21	C	1.630845	-0.284200	-0.000028
C22	C	1.573431	-0.367002	-0.071153
C23	C	1.562462	-0.356070	0.071078
C24	C	1.454480	-0.267455	-0.071218
C25	C	1.443523	-0.256513	0.071077
C26	C	1.386023	-0.339268	-0.000066
C27	C	1.741586	0.181055	-0.000025
C28	C	1.883217	0.184857	-0.000033
C29	C	1.501261	0.421384	-0.000016
C30	C	1.505065	0.563015	-0.000014
N31	N	1.492668	0.203978	0.205280
N32	N	1.524246	0.172514	-0.205319
C33	C	1.575142	0.121562	0.250671
C34	C	1.568180	0.128525	0.341479
C35	C	1.478749	0.217911	0.386894
C36	C	1.396265	0.300331	0.341496
C37	C	1.403222	0.293360	0.250690
C38	C	1.448720	0.247963	0.658476
C39	C	1.441771	0.254930	0.749289
C40	C	1.613685	0.083122	0.749266
C41	C	1.620640	0.076165	0.658458
C42	C	1.538152	0.158580	0.613068
N43	N	1.471633	0.225034	0.479715
N44	N	1.545263	0.151450	0.520249
H45	H	0.901597	0.409847	-0.000091
N46	N	1.359773	0.336872	0.609530
H47	H	1.377742	0.318899	0.545113
H48	H	1.267933	0.322489	0.625421
N49	N	1.345318	0.351343	0.798285
H50	H	1.362034	0.440808	0.782473
H51	H	1.255900	0.334456	0.782493
H52	H	0.932351	0.084339	0.131211
N53	N	1.394130	-0.216210	-0.150968
H54	H	1.364161	-0.289300	-0.187059
H55	H	1.318508	-0.152047	-0.132864
N56	N	1.370914	-0.192722	0.150726
H57	H	1.278892	-0.213690	0.151303
H58	H	1.411941	-0.224986	0.204390
H59	H	1.628294	-0.415109	-0.131288
H60	H	1.282433	-0.363690	-0.000102
H61	H	1.608099	-0.394942	0.131208
N62	N	1.671609	0.025159	0.201691
H63	H	1.722797	-0.025995	0.244229
H64	H	1.625154	-0.034599	0.164026
N65	N	1.299803	0.396731	0.390482
H66	H	1.346172	0.456576	0.428143
H67	H	1.248631	0.447793	0.347893
H68	H	1.693462	0.003380	0.621483
N69	N	1.702649	-0.005765	0.798221
H70	H	1.684676	0.012210	0.862638
H71	H	1.688310	-0.097619	0.782356
H72	H	1.635337	0.061415	0.378436
N73	N	1.314260	0.382250	0.201733
H74	H	1.328554	0.474143	0.217525
H75	H	1.332274	0.364161	0.137333
N76	N	1.096068	0.307697	-0.150815
H77	H	1.054079	0.398445	-0.150766
H78	H	1.192191	0.309005	-0.150477
H79	H	1.115062	-0.033493	-0.000109
N80	N	0.944327	0.045785	-0.150966
H81	H	0.848238	0.043670	-0.150494
H82	H	0.974580	0.088015	-0.204579
H83	H	1.734365	-0.259540	-0.000101
N84	N	1.072829	0.330805	0.150734
H85	H	1.030847	0.421543	0.150668
H86	H	1.042014	0.289088	0.204413
