data_functionalizedCrystal
_audit_creation_method	'MofGen! by Chris Wilmer'
_symmetry_space_group_name_H-M	'P1'
_symmetry_Int_Tables_number	1
_symmetry_cell_setting	triclinic
loop_
_symmetry_equiv_pos_as_xyz
  x,y,z
_cell_length_a	27.732048
_cell_length_b	27.732048
_cell_length_c	26.809956
_cell_angle_alpha	90.024436
_cell_angle_beta	89.995970
_cell_angle_gamma	82.642655
loop_
_atom_site_label
_atom_site_type_symbol
_atom_site_fract_x
_atom_site_fract_y
_atom_site_fract_z
O1	O	0.640924	0.057528	0.041421
O2	O	0.500130	0.066273	0.041436
O3	O	0.574900	-0.008496	0.041419
O4	O	0.566154	0.132297	0.041439
O5	O	0.574900	-0.008520	-0.041541
O6	O	0.500131	0.066249	-0.041523
O7	O	0.640924	0.057504	-0.041539
Zn8	Zn	0.570528	0.061873	-0.054702
Zn9	Zn	0.570527	0.061904	0.054600
O10	O	0.566155	0.132273	-0.041521
C11	C	0.482124	0.066078	-0.000041
C12	C	0.428469	0.065525	-0.000036
C13	C	0.089654	0.106229	-0.000051
C14	C	-0.112006	0.104178	-0.000056
O15	O	-0.143262	0.141398	-0.000073
N16	N	-0.131130	0.059843	-0.000062
C17	C	-0.099835	0.016017	-0.000069
O18	O	-0.120728	-0.021740	-0.000079
C19	C	0.101824	0.018068	-0.000068
C20	C	0.120944	0.062407	-0.000057
C21	C	0.108775	0.150563	-0.000042
C22	C	0.159187	0.151075	-0.000038
C23	C	0.190477	0.107253	-0.000044
C24	C	0.171356	0.062919	-0.000054
C25	C	0.133117	-0.025757	-0.000079
C26	C	0.183535	-0.025240	-0.000080
C27	C	0.202655	0.019098	-0.000069
C28	C	0.253059	0.019609	-0.000056
N29	N	0.272183	0.063944	-0.000050
C30	C	0.240892	0.107766	-0.000044
C31	C	-0.205709	0.014943	-0.000069
C32	C	-0.256124	0.014430	-0.000068
C33	C	-0.268291	0.102591	-0.000056
C34	C	-0.217876	0.103103	-0.000053
C35	C	-0.186585	0.059278	-0.000063
C36	C	0.346761	0.108839	-0.000036
C37	C	0.397178	0.109347	-0.000030
C38	C	0.409341	0.021186	-0.000044
C39	C	0.358929	0.020678	-0.000048
C40	C	0.327639	0.064508	-0.000045
O41	O	0.284343	-0.017592	-0.000045
O42	O	0.261794	0.145518	-0.000045
C43	C	0.039242	0.105716	-0.000055
C44	C	0.020120	0.061382	-0.000065
C45	C	0.051411	0.017560	-0.000071
C46	C	-0.030294	0.060869	-0.000065
C47	C	-0.061585	0.104691	-0.000059
C48	C	-0.042461	0.149026	-0.000053
C49	C	0.007951	0.149539	-0.000049
C50	C	0.032287	-0.026775	-0.000077
C51	C	-0.018125	-0.027284	-0.000080
C52	C	-0.049416	0.016538	-0.000074
C53	C	0.574716	-0.026515	-0.000062
C54	C	0.574164	-0.080170	-0.000066
C55	C	0.614867	-0.418985	-0.000045
C56	C	0.612816	-0.620645	-0.000038
O57	O	0.650037	-0.651900	-0.000021
N58	N	0.568481	-0.639768	-0.000034
C59	C	0.524656	-0.608474	-0.000028
O60	O	0.486899	-0.629367	-0.000019
C61	C	0.526707	-0.406815	-0.000031
C62	C	0.571045	-0.387694	-0.000041
C63	C	0.659202	-0.399864	-0.000054
C64	C	0.659714	-0.349452	-0.000059
C65	C	0.615892	-0.318161	-0.000054
C66	C	0.571557	-0.337282	-0.000045
C67	C	0.482882	-0.375521	-0.000022
C68	C	0.483399	-0.325104	-0.000021
C69	C	0.527737	-0.305983	-0.000031
C70	C	0.528248	-0.255580	-0.000045
N71	N	0.572583	-0.236456	-0.000050
C72	C	0.616405	-0.267747	-0.000054
C73	C	0.523582	-0.714348	-0.000027
C74	C	0.523069	-0.764762	-0.000027
C75	C	0.611230	-0.776930	-0.000036
C76	C	0.611742	-0.726514	-0.000040
C77	C	0.567917	-0.695224	-0.000031
C78	C	0.617477	-0.161878	-0.000064
C79	C	0.617986	-0.111461	-0.000071
C80	C	0.529825	-0.099298	-0.000059
C81	C	0.529316	-0.149710	-0.000055
C82	C	0.573147	-0.180999	-0.000056
O83	O	0.491047	-0.224296	-0.000057
O84	O	0.654156	-0.246844	-0.000053
C85	C	0.614355	-0.469397	-0.000041
C86	C	0.570021	-0.488518	-0.000032
C87	C	0.526198	-0.457228	-0.000027
C88	C	0.569508	-0.538933	-0.000032
C89	C	0.613330	-0.570223	-0.000036
C90	C	0.657665	-0.551100	-0.000041
C91	C	0.658177	-0.500688	-0.000045
C92	C	0.481863	-0.476351	-0.000023
C93	C	0.481355	-0.526764	-0.000019
C94	C	0.525177	-0.558054	-0.000023
C95	C	0.658931	0.057699	-0.000060
C96	C	0.712586	0.058252	-0.000062
C97	C	0.566338	0.150292	-0.000039
C98	C	0.566891	0.203947	-0.000031
N99	N	0.570532	0.061851	-0.129298
N100	N	0.570527	0.061922	0.129196
C101	C	0.541500	0.032700	0.473821
C102	C	0.541501	0.032683	0.682699
O103	O	0.516826	0.007851	0.709702
N104	N	0.570533	0.061861	0.708823
C105	C	0.599569	0.091043	0.682725
O106	O	0.624266	0.115856	0.709738
C107	C	0.599570	0.091056	0.473848
C108	C	0.570533	0.061880	0.447727
C109	C	0.512465	0.003525	0.447699
C110	C	0.512463	0.003532	0.395483
C111	C	0.541496	0.032712	0.369388
C112	C	0.570531	0.061887	0.395510
C113	C	0.628608	0.120235	0.447751
C114	C	0.628607	0.120235	0.395529
C115	C	0.599570	0.091059	0.369407
C116	C	0.599561	0.091074	0.317199
N117	N	0.570530	0.061896	0.291075
C118	C	0.541497	0.032715	0.317170
C119	C	0.599565	0.091034	0.792388
C120	C	0.599564	0.091032	0.844607
C121	C	0.541497	0.032671	0.844577
C122	C	0.541496	0.032677	0.792357
C123	C	0.570533	0.061856	0.766264
C124	C	0.541495	0.032731	0.207512
C125	C	0.541494	0.032742	0.155291
C126	C	0.599563	0.091100	0.155325
C127	C	0.599562	0.091092	0.207541
C128	C	0.570527	0.061903	0.233633
O129	O	0.624227	0.115889	0.290164
O130	O	0.516812	0.007897	0.290147
C131	C	0.541502	0.032693	0.526037
C132	C	0.570537	0.061867	0.552159
C133	C	0.599569	0.091048	0.526065
C134	C	0.570536	0.061865	0.604378
C135	C	0.541503	0.032684	0.630473
C136	C	0.512471	0.003506	0.604348
C137	C	0.512469	0.003513	0.552132
C138	C	0.628601	0.120226	0.552189
C139	C	0.628600	0.120218	0.604405
C140	C	0.599567	0.091037	0.630500
H141	H	-0.067947	0.184708	-0.000046
F142	F	0.313468	0.155488	-0.000033
F143	F	0.442651	-0.025450	-0.000051
H144	H	0.652245	0.143981	0.625669
H145	H	0.653168	-0.187348	-0.000063
H146	H	0.647846	-0.710950	-0.000047
F147	F	0.417524	0.156540	-0.000017
F148	F	0.630461	0.122094	0.872402
F149	F	0.112779	-0.072948	-0.000083
F150	F	0.657869	-0.810240	-0.000040
H151	H	0.695819	-0.333889	-0.000065
H152	H	0.654093	-0.095896	-0.000080
F153	F	0.481559	-0.027523	0.367689
H154	H	-0.033688	-0.063392	-0.000085
F155	F	0.435691	-0.395860	-0.000009
F156	F	0.481559	-0.027532	0.475463
H157	H	0.174750	0.187180	-0.000029
F158	F	0.075480	0.197209	-0.000035
H159	H	0.694889	-0.425336	-0.000056
H160	H	0.447710	-0.299629	-0.000014
H161	H	-0.202311	0.139207	-0.000047
H162	H	0.486964	-0.780325	-0.000028
F163	F	0.434160	-0.547107	-0.000012
H164	H	0.517851	0.008963	0.228749
F165	F	0.216833	-0.071886	-0.000092
H166	H	0.023514	0.185643	-0.000042
H167	H	0.487892	-0.688875	-0.000020
H168	H	0.517851	0.008919	0.771093
H169	H	0.057760	-0.062462	-0.000083
F170	F	0.482127	-0.170060	-0.000054
F171	F	-0.172413	-0.031705	-0.000079
F172	F	0.659503	0.151286	0.524424
H173	H	0.446177	-0.450879	-0.000018
H174	H	0.623212	0.114797	0.771148
H175	H	0.494146	-0.073812	-0.000057
H176	H	0.694282	-0.485125	-0.000053
H177	H	0.693347	-0.576585	-0.000047
F178	F	0.510586	0.001688	0.127493
H179	H	0.343360	-0.015426	-0.000049
H180	H	0.517856	0.008913	0.865832
F181	F	0.659506	0.151298	0.475541
F182	F	0.659515	0.151291	0.367761
F183	F	0.630470	0.122140	0.235343
F184	F	0.630457	0.122157	0.127544
H185	H	0.488830	-0.020251	0.625603
F186	F	-0.301601	0.149230	-0.000050
F187	F	-0.276468	-0.032761	-0.000068
F188	F	0.481563	-0.027541	0.524338
