data_functionalizedCrystal
_audit_creation_method	'MofGen! by Chris Wilmer'
_symmetry_space_group_name_H-M	'P1'
_symmetry_Int_Tables_number	1
_symmetry_cell_setting	triclinic
loop_
_symmetry_equiv_pos_as_xyz
  x,y,z
_cell_length_a	21.883469
_cell_length_b	21.882911
_cell_length_c	21.879399
_cell_angle_alpha	60.006540
_cell_angle_beta	60.013207
_cell_angle_gamma	59.992231
loop_
_atom_site_label
_atom_site_type_symbol
_atom_site_fract_x
_atom_site_fract_y
_atom_site_fract_z
O1	O	0.084645	-0.892842	0.746620
O2	O	0.031867	-0.695139	0.601571
O3	O	0.157054	-0.820237	0.601476
O4	O	-0.040542	-0.767744	0.746716
O5	O	0.198586	-0.778715	0.642912
O6	O	0.073399	-0.653617	0.643007
O7	O	0.126177	-0.851320	0.788056
Cu8	Cu	0.103580	-0.748677	0.719315
Cu9	Cu	0.054464	-0.797782	0.670313
O10	O	0.000990	-0.726222	0.788151
N11	N	0.138128	-0.714145	0.753785
N12	N	0.019923	-0.832320	0.635843
C13	C	0.190018	-0.547369	0.805644
C14	C	0.190029	-0.662289	0.805630
C15	C	0.218780	-0.633565	0.834353
C16	C	0.344122	-0.611968	0.768360
C17	C	0.422474	-0.638085	0.742222
C18	C	0.422504	-0.764859	0.790561
C19	C	0.344154	-0.738739	0.816702
C20	C	0.208899	-0.508180	0.728617
C21	C	0.182748	-0.429822	0.702522
C22	C	0.118843	-0.429847	0.830485
C23	C	0.144993	-0.508205	0.856580
C24	C	0.112994	-0.643364	0.824587
C25	C	0.086865	-0.669476	0.798467
C26	C	0.214799	-0.733437	0.734451
C27	C	0.240932	-0.707325	0.760562
C28	C	0.113084	-0.643389	0.959747
C29	C	0.087018	-0.669524	1.038102
C30	C	0.214996	-0.733501	1.038048
C31	C	0.241061	-0.707367	0.959690
C32	C	0.190103	-0.662308	0.920542
C33	C	0.304966	-0.662293	0.805598
C34	C	-0.117460	-0.854702	0.612901
C35	C	-0.002405	-0.854864	0.498145
C36	C	-0.002621	-0.969735	0.613108
C37	C	-0.002603	-0.854858	0.613180
C38	C	-0.031272	-0.883541	0.584334
N39	N	0.460550	-0.714150	0.753681
O40	O	0.699805	-0.721060	0.574973
O41	O	0.700047	-0.866553	0.772482
O42	O	0.699952	-0.866219	0.647213
O43	O	0.699900	-0.721394	0.700242
O44	O	0.575478	-0.824800	0.688791
O45	O	0.575573	-0.825134	0.814060
O46	O	0.575331	-0.679641	0.616551
Cu47	Cu	0.564087	-0.748606	0.719102
Cu48	Cu	0.711292	-0.797588	0.669931
O49	O	0.575426	-0.679975	0.741820
N50	N	0.814828	-0.832044	0.635345
N51	N	0.138106	-0.391772	0.753815
O52	O	-0.040520	-0.152377	0.746758
O53	O	0.156993	-0.152371	0.601281
O54	O	0.031698	-0.152390	0.601639
O55	O	0.084775	-0.152358	0.746401
O56	O	0.073234	-0.276876	0.643130
O57	O	0.198529	-0.276856	0.642772
O58	O	0.001015	-0.276863	0.788249
Cu59	Cu	0.103564	-0.288226	0.719299
Cu60	Cu	0.054444	-0.141007	0.670231
O61	O	0.126310	-0.276844	0.787892
N62	N	0.019892	-0.037461	0.635717
N63	N	0.138332	-0.714192	1.076133
O64	O	0.131293	-0.892804	1.315506
O65	O	-0.014162	-0.695219	1.315533
O66	O	-0.013826	-0.820490	1.315480
O67	O	0.130957	-0.767533	1.315559
O68	O	0.027651	-0.778981	1.191001
O69	O	0.027314	-0.653710	1.191054
O70	O	0.172770	-0.851295	1.191026
Cu71	Cu	0.103829	-0.748713	1.179674
Cu72	Cu	0.054778	-0.797802	1.326885
O73	O	0.172434	-0.726024	1.191079
N74	N	0.020275	-0.832331	1.430426
C75	C	0.047687	-0.649466	0.602306
C76	C	0.202716	-0.804385	0.602188
C77	C	0.110357	-0.896993	0.787321
C78	C	-0.044672	-0.742074	0.787439
C79	C	0.637839	-0.865879	0.818154
C80	C	0.637724	-0.865466	0.663023
C81	C	0.637536	-0.680313	0.570880
C82	C	0.637655	-0.680728	0.726010
C83	C	0.202592	-0.214459	0.601942
C84	C	0.047481	-0.214636	0.602435
C85	C	-0.044635	-0.214620	0.787537
C86	C	0.110528	-0.214598	0.787096
C87	C	-0.013455	-0.649572	1.253296
C88	C	-0.013030	-0.804697	1.253206
C89	C	0.172063	-0.896942	1.253263
C90	C	0.171648	-0.741808	1.253325
H91	H	0.071582	-0.606692	0.927876
C92	C	0.637777	-0.926767	0.893824
C93	C	0.573763	-0.946701	0.926692
C94	C	0.573678	-1.002782	0.996402
H95	H	0.681157	-0.969345	0.887333
H96	H	0.637748	-0.908703	0.925315
H97	H	0.573799	-0.964767	0.895209
H98	H	0.530373	-0.904140	0.933203
H99	H	0.573649	-0.984717	1.027893
H100	H	0.617061	-1.045354	0.989903
H101	H	0.530243	-1.016309	1.018715
H102	H	0.259468	-0.815577	0.556577
C103	C	0.637551	-0.619373	0.495245
C104	C	0.701544	-0.599409	0.462386
C105	C	0.701579	-0.543267	0.392715
H106	H	0.637576	-0.637370	0.463709
H107	H	0.594142	-0.576824	0.501813
H108	H	0.744943	-0.641949	0.455814
H109	H	0.701534	-0.581398	0.493899
H110	H	0.658169	-0.500718	0.399284
H111	H	0.701601	-0.561270	0.361187
H112	H	0.744993	-0.529709	0.370415
C113	C	-0.073628	-0.819911	1.253220
C114	C	-0.090657	-0.880118	1.317216
C115	C	-0.146468	-0.894162	1.317250
H116	H	-0.117240	-0.776702	1.253245
H117	H	-0.056314	-0.831821	1.209809
H118	H	-0.107973	-0.868205	1.360616
H119	H	-0.047061	-0.923340	1.317206
H120	H	-0.129154	-0.906071	1.273839
H121	H	-0.190076	-0.850948	1.317272
H122	H	-0.158024	-0.935017	1.360667
C123	C	0.278112	-0.214159	0.540917
C124	C	0.311211	-0.278081	0.520745
C125	C	0.380788	-0.277841	0.464543
H126	H	0.271401	-0.170709	0.498455
H127	H	0.309576	-0.214099	0.558947
H128	H	0.279755	-0.278134	0.502713
H129	H	0.317942	-0.321541	0.563190
H130	H	0.412251	-0.277781	0.482572
H131	H	0.374069	-0.234388	0.422085
H132	H	0.403257	-0.321214	0.450854
C133	C	0.324599	-0.727956	0.739910
C134	C	0.363587	-0.772990	0.694857
C135	C	0.440660	-0.792008	0.675816
H136	H	0.337504	-0.683694	0.713292
H137	H	0.337532	-0.754586	0.784180
H138	H	0.350659	-0.746361	0.650594
H139	H	0.350705	-0.817262	0.721460
H140	H	0.453593	-0.818637	0.720087
H141	H	0.453557	-0.747742	0.649200
H142	H	0.467123	-0.822571	0.645251
C143	C	0.032212	-0.214711	0.541909
C144	C	-0.040847	-0.214748	0.569067
C145	C	-0.054931	-0.214839	0.513339
H146	H	0.037711	-0.171323	0.499298
H147	H	0.066714	-0.258150	0.528304
H148	H	-0.075338	-0.171314	0.582661
H149	H	-0.046363	-0.258133	0.611671
H150	H	-0.020429	-0.258278	0.499734
H151	H	-0.049428	-0.171450	0.470731
H152	H	-0.104499	-0.214871	0.531760
H153	H	0.217133	-0.730478	1.253340
C154	C	0.232931	-0.972600	1.253134
C155	C	0.250126	-0.985872	1.189083
C156	C	0.306188	-1.055563	1.188943
H157	H	0.276432	-0.972767	1.253112
H158	H	0.215786	-1.010709	1.296508
H159	H	0.267273	-0.947773	1.145721
H160	H	0.206641	-0.985720	1.189092
H161	H	0.289043	-1.093673	1.232317
H162	H	0.349684	-1.055724	1.188923
H163	H	0.317857	-1.064581	1.145489
C164	C	0.032503	-0.573708	0.541640
C165	C	-0.040556	-0.527662	0.568662
C166	C	-0.054574	-0.457873	0.512795
H167	H	0.066993	-0.551142	0.527957
H168	H	0.038050	-0.580169	0.499097
H169	H	-0.046097	-0.521200	0.611192
H170	H	-0.075062	-0.550205	0.582340
H171	H	-0.049026	-0.464334	0.470251
H172	H	-0.020079	-0.435314	0.499115
H173	H	-0.104147	-0.426625	0.531118
H174	H	0.121632	-0.953785	0.832877
C175	C	-0.120380	-0.727003	0.848176
C176	C	-0.166504	-0.653950	0.821245
C177	C	-0.236246	-0.640036	0.877178
H178	H	-0.142910	-0.761523	0.861852
H179	H	-0.113871	-0.732588	0.890708
H180	H	-0.173015	-0.648372	0.778726
H181	H	-0.143998	-0.619415	0.807574
H182	H	-0.229737	-0.645621	0.919711
H183	H	-0.258769	-0.674560	0.890851
H184	H	-0.267548	-0.590467	0.858916
H185	H	0.637745	-0.910963	0.651673
C186	C	0.637595	-0.620144	0.741292
C187	C	0.637651	-0.647283	0.814358
C188	C	0.637586	-0.591492	0.828465
H189	H	0.680957	-0.606444	0.706813
H190	H	0.594138	-0.577590	0.735789
H191	H	0.681104	-0.689824	0.819853
H192	H	0.594292	-0.660978	0.848851
H193	H	0.594128	-0.548938	0.822962
H194	H	0.680949	-0.577795	0.793982
H195	H	0.637617	-0.609895	0.878043
C196	C	0.270020	-0.782443	0.685626
C197	C	0.258813	-0.851612	0.721028
C198	C	0.309672	-0.896768	0.676065
H199	H	0.262489	-0.758584	0.638666
H200	H	0.319658	-0.790026	0.678082
H201	H	0.209187	-0.844027	0.728562
H202	H	0.266350	-0.875491	0.767984
H203	H	0.359310	-0.904351	0.668521
H204	H	0.302137	-0.872903	0.629106
H205	H	0.302080	-0.943706	0.700081
H206	H	0.024299	-0.654107	1.070013
H207	H	-0.101359	-0.214623	0.833209
C208	C	0.125766	-0.214754	0.847771
C209	C	0.185963	-0.278809	0.864792
C210	C	0.200015	-0.278987	0.920692
H211	H	0.137686	-0.171394	0.830559
H212	H	0.082542	-0.214799	0.891365
H213	H	0.229178	-0.278758	0.821207
H214	H	0.174060	-0.322179	0.882015
H215	H	0.156791	-0.279031	0.964286
H216	H	0.211931	-0.235624	0.903474
H217	H	0.240855	-0.322450	0.932252
C218	C	0.270443	-0.782429	1.080411
C219	C	0.343471	-0.793412	1.029301
C220	C	0.394570	-0.838488	1.068298
H221	H	0.263028	-0.758568	1.110981
H222	H	0.262989	-0.829427	1.110956
H223	H	0.350922	-0.746422	0.998769
H224	H	0.350909	-0.817281	0.998729
H225	H	0.387116	-0.885487	1.098843
H226	H	0.387148	-0.814623	1.098868
H227	H	0.444125	-0.845952	1.033627
C228	C	-0.074267	-0.573872	1.253343
C229	C	-0.047455	-0.527690	1.253391
C230	C	-0.103457	-0.457954	1.253444
H231	H	-0.087910	-0.551376	1.209940
H232	H	-0.116800	-0.580392	1.296763
H233	H	-0.004936	-0.521168	1.209976
H234	H	-0.033818	-0.550163	1.296791
H235	H	-0.145989	-0.464473	1.296863
H236	H	-0.117096	-0.435464	1.210040
H237	H	-0.085275	-0.426613	1.253483
H238	H	0.071542	-0.606694	0.861281
C239	C	0.003219	-0.649043	0.819196
C240	C	-0.028972	-0.675722	0.897137
C241	C	-0.106021	-0.656925	0.916260
H242	H	-0.018912	-0.596185	0.801269
H243	H	-0.005080	-0.671068	0.797230
H244	H	-0.020679	-0.653694	0.919094
H245	H	-0.006863	-0.728578	0.915082
H246	H	-0.114320	-0.678949	0.894295
H247	H	-0.128145	-0.604066	0.898330
H248	H	-0.127871	-0.675029	0.969145
C249	C	0.301679	-0.793396	0.856989
C250	C	0.320698	-0.829774	0.809305
C251	C	0.281579	-0.880122	0.846389
H252	H	0.314519	-0.829347	0.900522
H253	H	0.249396	-0.766916	0.870948
H254	H	0.372970	-0.856254	0.795356
H255	H	0.307857	-0.793843	0.765772
H256	H	0.229295	-0.853642	0.860349
H257	H	0.294421	-0.916068	0.889921
H258	H	0.294472	-0.904806	0.814039
C259	C	0.464854	-0.583324	0.701774
C260	C	0.413764	-0.510782	0.697626
C261	C	0.452779	-0.460314	0.660361
H262	H	0.495443	-0.596335	0.728412
H263	H	0.495380	-0.585279	0.652660
H264	H	0.383252	-0.508830	0.746731
H265	H	0.383173	-0.497748	0.670983
H266	H	0.483305	-0.462269	0.611248
H267	H	0.483367	-0.473332	0.687003
H268	H	0.418121	-0.411088	0.657536
H269	H	0.454413	-0.827107	0.799589
C270	C	0.257737	-0.550568	0.673200
C271	C	0.268650	-0.499473	0.600155
C272	C	0.313626	-0.538492	0.549083
H273	H	0.304757	-0.581137	0.680604
H274	H	0.233814	-0.581119	0.680693
H275	H	0.292574	-0.468935	0.592665
H276	H	0.221644	-0.468902	0.592727
H277	H	0.289703	-0.569043	0.556576
H278	H	0.360643	-0.569060	0.556494
H279	H	0.321031	-0.503831	0.499516
C280	C	0.301483	-0.529003	0.756459
C281	C	0.256521	-0.518502	0.825949
C282	C	0.217223	-0.442085	0.815015
H283	H	0.335943	-0.502692	0.730577
H284	H	0.270851	-0.510604	0.727794
H285	H	0.287150	-0.536892	0.854603
H286	H	0.222047	-0.544795	0.851843
H287	H	0.186591	-0.423685	0.786350
H288	H	0.251688	-0.415780	0.789130
H289	H	0.186706	-0.434950	0.862161
H290	H	0.198119	-0.397913	0.639797
C291	C	0.069945	-0.387456	0.885903
C292	C	0.059005	-0.438548	0.958949
C293	C	0.013955	-0.399526	1.010019
H294	H	0.093804	-0.356881	0.878461
H295	H	0.022937	-0.356909	0.878445
H296	H	0.106004	-0.469081	0.966404
H297	H	0.035137	-0.469124	0.966415
H298	H	-0.033053	-0.368980	1.002561
H299	H	0.037819	-0.368953	1.002570
H300	H	0.006520	-0.434186	1.059586
H301	H	0.129609	-0.540114	0.919306
H302	H	0.303780	-0.722782	0.927774
