data_functionalizedCrystal
_audit_creation_method	'MofGen! by Chris Wilmer'
_symmetry_space_group_name_H-M	'P1'
_symmetry_Int_Tables_number	1
_symmetry_cell_setting	triclinic
loop_
_symmetry_equiv_pos_as_xyz
  x,y,z
_cell_length_a	12.759401
_cell_length_b	12.759400
_cell_length_c	21.395355
_cell_angle_alpha	90.013451
_cell_angle_beta	90.021956
_cell_angle_gamma	90.014399
loop_
_atom_site_label
_atom_site_type_symbol
_atom_site_fract_x
_atom_site_fract_y
_atom_site_fract_z
Zn1	Zn	1.606287	-0.418388	0.354240
Zn2	Zn	1.606174	-0.594053	0.249472
Zn3	Zn	1.430580	-0.418389	0.249482
Zn4	Zn	1.430579	-0.594026	0.354217
O5	O	1.518405	-0.506214	0.301853
O6	O	1.753293	-0.441702	0.340348
O7	O	1.582834	-0.570762	0.161795
O8	O	1.453936	-0.271368	0.263392
O9	O	1.753210	-0.570762	0.263375
O10	O	1.583027	-0.271367	0.340357
O11	O	1.453826	-0.441702	0.161802
O12	O	1.283559	-0.441676	0.263369
O13	O	1.453933	-0.570716	0.441898
O14	O	1.283558	-0.570716	0.340318
O15	O	1.583026	-0.441676	0.441915
O16	O	1.582832	-0.741070	0.263353
O17	O	1.453823	-0.741051	0.340308
C18	C	1.245437	-0.506194	0.301842
C19	C	1.128661	-0.506210	0.301853
C20	C	0.964112	-0.439144	0.342000
C21	C	1.073837	-0.439129	0.341994
C22	C	1.073755	-0.573318	0.261719
C23	C	0.964033	-0.573337	0.261728
C24	C	0.909294	-0.372051	0.382139
C25	C	0.964192	-0.304944	0.422274
C26	C	1.073916	-0.304930	0.422269
C27	C	1.128742	-0.372022	0.382128
C28	C	1.518344	-0.779181	0.301841
C29	C	1.518414	-0.895958	0.301856
C30	C	1.585656	-1.060460	0.341986
C31	C	1.585600	-0.950736	0.341969
C32	C	1.451288	-0.950909	0.261755
C33	C	1.451350	-1.060631	0.261770
C34	C	1.652839	-1.115233	0.382106
C35	C	1.719967	-1.060289	0.422207
C36	C	1.719910	-0.950565	0.422189
C37	C	1.652726	-0.895785	0.382070
C38	C	1.792438	-0.506235	0.301863
C39	C	1.909215	-0.506244	0.301868
C40	C	1.518492	-0.506193	0.465276
C41	C	1.518529	-0.506184	0.534917
C42	C	1.518495	-0.232181	0.301878
C43	C	1.518533	-0.115404	0.301889
C44	C	1.518378	-0.506159	0.139065
C45	C	1.518545	-0.505872	0.069424
C46	C	1.585745	-0.438990	0.567640
C47	C	1.585743	-0.438945	0.633076
C48	C	1.518537	-0.506112	0.665786
C49	C	1.451309	-0.573311	0.633055
C50	C	1.451305	-0.573347	0.567620
C51	C	1.510220	-0.600711	0.769456
C52	C	1.510232	-0.600677	0.834889
C53	C	1.518544	-0.506001	0.867606
C54	C	1.526866	-0.411356	0.834883
C55	C	1.526862	-0.411392	0.769448
C56	C	1.518534	-0.506080	0.736738
C57	C	1.585761	-0.438752	0.971282
C58	C	1.585753	-0.438705	1.036719
C59	C	1.451324	-0.573081	1.036696
C60	C	1.451327	-0.573119	0.971261
C61	C	1.518551	-0.505956	0.938558
H62	H	0.919545	-0.250326	0.454959
O63	O	1.534787	-0.319515	0.737592
C64	C	1.454426	-0.201786	0.663720
C65	C	1.445337	-0.305875	0.699746
H66	H	1.382106	-0.190714	0.633123
H67	H	1.527459	-0.203411	0.633056
H68	H	1.460416	-0.134130	0.698351
H69	H	1.439304	-0.373587	0.665160
H70	H	1.372318	-0.304159	0.730420
O71	O	1.386096	-1.114128	0.222908
C72	C	1.244297	-1.238095	0.214423
C73	C	1.318142	-1.177593	0.258507
H74	H	1.189323	-1.289404	0.243187
H75	H	1.292538	-1.289519	0.181706
H76	H	1.196310	-1.180084	0.185734
H77	H	1.366144	-1.235528	0.287236
H78	H	1.269841	-1.126153	0.291182
O79	O	0.910585	-0.638369	0.222712
C80	C	0.786675	-0.652313	0.138093
C81	C	0.847119	-0.578542	0.182248
H82	H	0.735365	-0.603972	0.105358
H83	H	0.735256	-0.707310	0.166774
H84	H	0.844722	-0.700279	0.109429
H85	H	0.789147	-0.530508	0.210922
H86	H	0.898553	-0.523614	0.153531
O87	O	1.785150	-0.897354	0.461198
C88	C	1.918415	-0.908769	0.540737
C89	C	1.844570	-0.969157	0.496598
H90	H	1.966491	-0.966796	0.569359
H91	H	1.870173	-0.857439	0.573506
H92	H	1.973306	-0.857351	0.511984
H93	H	1.789665	-1.020632	0.525300
H94	H	1.892877	-1.020420	0.463827
O95	O	1.785074	-1.113549	0.461241
C96	C	1.799192	-1.237398	0.545833
C97	C	1.725337	-1.177130	0.501676
H98	H	1.750925	-1.288835	0.578527
H99	H	1.847144	-1.179330	0.574536
H100	H	1.854198	-1.288705	0.517092
H101	H	1.670268	-1.125822	0.530369
H102	H	1.677459	-1.235255	0.472972
O103	O	1.652772	-0.789198	0.382150
C104	C	1.726431	-0.631647	0.426109
C105	C	1.726472	-0.752351	0.426090
H106	H	1.786028	-0.601819	0.461621
H107	H	1.645075	-0.601854	0.439100
H108	H	1.748210	-0.601907	0.377579
H109	H	1.704739	-0.782180	0.474605
H110	H	1.807838	-0.782073	0.413064
H111	H	1.396593	-0.627760	1.063328
O112	O	1.502265	-0.692653	0.737633
C113	C	1.582536	-0.810580	0.663841
C114	C	1.591687	-0.706412	0.699815
H115	H	1.654833	-0.821748	0.633267
H116	H	1.509484	-0.808997	0.633159
H117	H	1.576542	-0.878154	0.698507
H118	H	1.597723	-0.638781	0.665195
H119	H	1.664724	-0.708086	0.730507
H120	H	1.118404	-0.627941	0.229038
H121	H	1.118611	-0.250295	0.454952
H122	H	1.218087	-0.371997	0.382122
H123	H	1.640483	-0.384299	0.541017
O124	O	1.386057	-0.897537	0.222849
C125	C	1.326476	-0.728578	0.187255
C126	C	1.400390	-0.788889	0.231356
H127	H	1.338054	-0.640727	0.194108
H128	H	1.241740	-0.750135	0.198218
H129	H	1.344966	-0.750235	0.136752
H130	H	1.381994	-0.767265	0.281874
H131	H	1.485104	-0.767328	0.220339
O132	O	1.651142	-0.373639	0.664775
C133	C	1.784446	-0.240335	0.657896
C134	C	1.710454	-0.314254	0.621922
H135	H	1.832403	-0.192286	0.623266
H136	H	1.839431	-0.288517	0.688526
H137	H	1.736219	-0.185422	0.688537
H138	H	1.758596	-0.369181	0.591248
H139	H	1.655466	-0.266006	0.591332
O140	O	1.386005	-0.638496	0.939567
C141	C	1.252621	-0.771720	0.946452
C142	C	1.326571	-0.697753	0.982423
H143	H	1.204533	-0.819633	0.981086
H144	H	1.300782	-0.826748	0.915847
H145	H	1.197747	-0.723476	0.915788
H146	H	1.381459	-0.745913	1.013122
H147	H	1.278344	-0.642722	1.012989
H148	H	1.533636	-0.334262	0.861519
H149	H	1.652890	-1.204576	0.382127
H150	H	1.640494	-0.384059	0.944654
H151	H	1.640486	-0.383982	1.063361
H152	H	1.503462	-0.677743	0.861528
H153	H	1.396565	-0.628063	0.540978
O154	O	1.385929	-0.638594	0.664729
C155	C	1.252639	-0.771920	0.657803
C156	C	1.326617	-0.698025	0.621855
H157	H	1.204682	-0.820005	0.623155
H158	H	1.197652	-0.723716	0.688408
H159	H	1.300877	-0.826799	0.688465
H160	H	1.278464	-0.643132	0.591158
H161	H	1.381606	-0.746295	0.591289
H162	H	0.819951	-0.372050	0.382146
