data_functionalizedCrystal
_audit_creation_method	'MofGen! by Chris Wilmer'
_symmetry_space_group_name_H-M	'P1'
_symmetry_Int_Tables_number	1
_symmetry_cell_setting	triclinic
loop_
_symmetry_equiv_pos_as_xyz
  x,y,z
_cell_length_a	10.489741
_cell_length_b	17.038272
_cell_length_c	9.565339
_cell_angle_alpha	89.999972
_cell_angle_beta	89.999100
_cell_angle_gamma	87.825365
loop_
_atom_site_label
_atom_site_type_symbol
_atom_site_fract_x
_atom_site_fract_y
_atom_site_fract_z
O1	O	1.704376	0.110370	-0.116175
O2	O	1.334150	0.120730	-0.116197
O3	O	1.517063	0.001722	-0.116175
O4	O	1.521463	0.229378	-0.116197
O5	O	1.517048	0.001729	0.116345
O6	O	1.334135	0.120738	0.116323
O7	O	1.704362	0.110377	0.116345
Zn8	Zn	1.519246	0.115558	0.153252
Zn9	Zn	1.519265	0.115549	-0.153103
O10	O	1.521449	0.229385	0.116324
C11	C	1.286537	0.119951	0.000061
C12	C	1.144689	0.117610	0.000053
C13	C	1.069466	0.041889	0.000073
C14	C	0.980692	0.077655	-0.114572
C15	C	0.980714	0.077680	0.114675
C16	C	1.057783	0.153408	-0.114687
C17	C	1.057813	0.153423	0.114662
C18	C	0.969072	0.189244	-0.000011
C19	C	1.513053	-0.027426	0.000085
C20	C	1.501111	-0.114288	0.000084
C21	C	1.610749	-0.163767	0.000092
C22	C	1.599521	-0.245383	0.000078
C23	C	1.478654	-0.277518	0.000066
C24	C	1.369007	-0.228032	0.000054
C25	C	1.380237	-0.146418	0.000058
C26	C	1.438983	-0.523505	0.000044
C27	C	1.427762	-0.605126	0.000045
C28	C	1.658277	-0.622471	0.000066
C29	C	1.669495	-0.540855	0.000078
C30	C	1.559849	-0.491376	0.000059
C31	C	1.467174	-0.360942	0.000056
C32	C	1.571330	-0.407954	0.000059
C33	C	1.751974	0.111156	0.000085
C34	C	1.893822	0.113497	0.000084
C35	C	1.525458	0.258533	0.000061
C36	C	1.537400	0.345395	0.000053
N37	N	1.519242	0.115565	0.362331
N38	N	1.519279	0.115536	-0.362183
C39	C	1.434621	0.170584	0.453524
C40	C	1.551599	0.186413	0.546708
C41	C	1.402315	0.099741	0.546703
C42	C	1.636281	0.131430	0.453464
C43	C	1.486918	0.044727	0.453450
C44	C	1.603976	0.060527	0.546592
H45	H	1.113334	-0.020359	-0.000064
F46	F	1.716214	-0.298039	0.000089
H47	H	1.303417	0.086370	0.587662
F48	F	0.936247	0.035776	-0.241256
F49	F	1.101994	0.195249	-0.241518
F50	F	0.912085	0.270691	-0.000097
H51	H	1.735209	0.144873	0.412680
H52	H	1.091847	0.185439	0.211587
H53	H	0.946731	0.045630	0.211599
F54	F	1.322286	-0.470857	0.000020
F55	F	1.587369	0.264697	0.600252
F56	F	1.739394	-0.129575	0.000118
F57	F	1.798139	-0.506661	0.000056
H58	H	1.747544	-0.662765	0.000079
F59	F	1.299113	-0.639323	0.000039
F60	F	1.697637	-0.000306	0.599676
F61	F	1.240371	-0.262234	0.000025
F62	F	1.451107	-0.033535	0.399862
H63	H	1.290957	-0.106132	0.000051
H64	H	1.669740	-0.381786	0.000038
H65	H	1.368763	-0.387115	0.000050
H66	H	1.363135	0.217155	0.412661
