data_functionalizedCrystal
_audit_creation_method	'MofGen! by Chris Wilmer'
_symmetry_space_group_name_H-M	'P1'
_symmetry_Int_Tables_number	1
_symmetry_cell_setting	triclinic
loop_
_symmetry_equiv_pos_as_xyz
  x,y,z
_cell_length_a	15.298068
_cell_length_b	15.298671
_cell_length_c	15.298259
_cell_angle_alpha	107.381581
_cell_angle_beta	91.587309
_cell_angle_gamma	91.624540
loop_
_atom_site_label
_atom_site_type_symbol
_atom_site_fract_x
_atom_site_fract_y
_atom_site_fract_z
Zn1	Zn	1.256716	0.016392	-0.725163
Zn2	Zn	1.315511	0.186541	-0.555082
Zn3	Zn	1.145474	0.066608	-0.546348
Zn4	Zn	1.145451	0.195130	-0.674926
O5	O	1.215788	0.116168	-0.625380
O6	O	1.382241	0.014353	-0.727280
O7	O	1.317570	0.188052	-0.428933
O8	O	1.135634	-0.065049	-0.587438
O9	O	1.425437	0.139360	-0.602322
O10	O	1.217363	-0.101942	-0.718812
O11	O	1.192645	0.099938	-0.422517
O12	O	1.027745	0.108267	-0.538725
O13	O	1.135596	0.154000	-0.806580
O14	O	1.027729	0.202692	-0.633190
O15	O	1.217341	0.022681	-0.843488
O16	O	1.317549	0.312676	-0.553610
O17	O	1.192607	0.318986	-0.641659
C18	C	0.997212	0.161861	-0.579559
C19	C	0.903704	0.181427	-0.559975
C20	C	0.550163	-0.023451	-0.765320
C21	C	0.638018	-0.041833	-0.783725
C22	C	0.704444	0.013980	-0.727789
C23	C	0.683006	0.088179	-0.653445
C24	C	0.595143	0.106566	-0.635043
C25	C	0.749423	0.143998	-0.597512
C26	C	0.727986	0.218196	-0.523168
C27	C	0.640131	0.236580	-0.504768
C28	C	0.573705	0.180767	-0.560704
C29	C	0.837287	0.125610	-0.615914
C30	C	0.882267	0.255628	-0.485636
C31	C	0.794412	0.274010	-0.467232
C32	C	1.261474	0.348233	-0.593155
C33	C	1.281090	0.447491	-0.579415
C34	C	1.355385	0.490788	-0.527175
C35	C	1.373822	0.584044	-0.514271
C36	C	1.317961	0.634014	-0.553599
C37	C	1.243660	0.590719	-0.605835
C38	C	1.225226	0.497452	-0.618746
C39	C	1.187801	0.640678	-0.645171
C40	C	1.113501	0.597383	-0.697406
C41	C	1.095069	0.504125	-0.710315
C42	C	1.150930	0.454155	-0.670986
C43	C	1.206236	0.733945	-0.632259
C44	C	1.076076	0.740609	-0.723830
C45	C	1.057640	0.647353	-0.736735
C46	C	1.435218	0.070297	-0.671379
C47	C	1.528726	0.050749	-0.690982
C48	C	1.169934	0.883188	-0.657764
C49	C	1.150372	0.783906	-0.671590
C50	C	1.169908	0.083697	-0.858349
C51	C	1.150356	0.069860	-0.957626
C52	C	1.355417	0.214370	-1.250828
C53	C	1.373784	0.227377	-1.157550
C54	C	1.317929	0.187999	-1.107565
C55	C	1.243704	0.135611	-1.150866
C56	C	1.225332	0.122609	-1.244151
C57	C	1.187843	0.096238	-1.100888
C58	C	1.113618	0.043850	-1.144189
C59	C	1.095250	0.030850	-1.237466
C60	C	1.151105	0.070228	-1.287451
C61	C	1.206215	0.109240	-1.007603
C62	C	1.076129	0.017479	-1.000926
C63	C	1.057763	0.004472	-1.094204
C64	C	1.261526	0.148438	-0.393336
C65	C	1.281190	0.161989	-0.294128
H66	H	0.776945	0.334423	-0.406701
C67	C	0.975915	0.599714	-0.794199
N68	N	0.914361	0.563831	-0.837483
C69	C	1.338239	0.736601	-0.539394
N70	N	1.353512	0.813875	-0.528686
C71	C	0.860857	0.043988	-0.697686
N72	N	0.878608	-0.017496	-0.759279
H73	H	1.400882	0.246434	-1.291532
H74	H	0.622681	0.297004	-0.444238
H75	H	0.936352	0.301079	-0.440092
C76	C	0.477058	0.200982	-0.540462
N77	N	0.404260	0.216206	-0.525217
H78	H	1.266733	0.769187	-0.589729
H79	H	1.266654	0.151888	-0.972358
C80	C	1.014624	0.795573	-0.767092
N81	N	0.968342	0.836977	-0.799675
C82	C	1.130903	0.055926	-1.390063
N83	N	1.115688	0.045158	-1.467350
C84	C	1.013599	-0.026777	-1.285094
N85	N	0.952102	-0.070184	-1.320968
H86	H	0.775978	-0.000993	-0.742777
H87	H	1.030647	-0.014585	-0.960228
C88	C	0.976115	-0.053148	-1.141847
N89	N	0.914616	-0.096547	-1.177732
H90	H	1.434317	0.619289	-0.471741
C91	C	1.013366	0.456490	-0.767823
N92	N	0.951835	0.420608	-0.811153
C93	C	1.416824	0.435815	-0.483922
N94	N	1.463104	0.394408	-0.451341
C95	C	1.130674	0.351558	-0.685210
N96	N	1.115426	0.274277	-0.695935
C97	C	1.338145	0.202292	-1.004961
N98	N	1.353380	0.213053	-0.927678
C99	C	1.455457	0.284955	-1.109938
N100	N	1.516990	0.328308	-1.074082
H101	H	0.655465	-0.102243	-0.844258
H102	H	0.496074	-0.068882	-0.810860
