data_functionalizedCrystal
_audit_creation_method	'MofGen! by Chris Wilmer'
_symmetry_space_group_name_H-M	'P1'
_symmetry_Int_Tables_number	1
_symmetry_cell_setting	triclinic
loop_
_symmetry_equiv_pos_as_xyz
  x,y,z
_cell_length_a	12.759401
_cell_length_b	12.759394
_cell_length_c	12.759393
_cell_angle_alpha	89.969349
_cell_angle_beta	89.981425
_cell_angle_gamma	90.014282
loop_
_atom_site_label
_atom_site_type_symbol
_atom_site_fract_x
_atom_site_fract_y
_atom_site_fract_z
Zn1	Zn	1.606261	-0.418192	-0.593992
Zn2	Zn	1.606158	-0.593911	-0.418315
Zn3	Zn	1.430563	-0.418248	-0.418331
Zn4	Zn	1.430554	-0.593831	-0.593956
O5	O	1.518384	-0.506046	-0.506148
O6	O	1.753268	-0.441512	-0.570696
O7	O	1.582826	-0.570666	-0.271296
O8	O	1.453917	-0.271219	-0.441654
O9	O	1.753193	-0.570612	-0.441627
O10	O	1.583001	-0.271178	-0.570712
O11	O	1.453817	-0.441607	-0.271308
O12	O	1.283541	-0.441529	-0.441620
O13	O	1.453902	-0.570475	-0.740982
O14	O	1.283534	-0.570529	-0.570651
O15	O	1.582993	-0.441434	-0.741008
O16	O	1.582817	-0.740922	-0.441592
O17	O	1.453802	-0.740863	-0.570635
C18	C	1.245417	-0.506027	-0.506134
C19	C	1.128640	-0.506045	-0.506152
C20	C	1.518326	-0.779013	-0.506131
C21	C	1.518397	-0.895790	-0.506159
C22	C	1.073818	-0.438944	-0.573462
C23	C	0.964094	-0.438955	-0.573469
C24	C	0.964024	-0.573176	-0.438853
C25	C	1.073746	-0.573160	-0.438842
C26	C	1.652712	-0.895589	-0.640647
C27	C	1.719903	-0.950349	-0.707899
C28	C	1.719965	-1.060071	-0.707922
C29	C	1.652827	-1.115034	-0.640687
C30	C	1.585637	-1.060274	-0.573435
C31	C	1.585584	-0.950550	-0.573418
C32	C	1.451318	-1.060475	-0.438954
C33	C	1.451259	-0.950754	-0.438924
C34	C	1.384180	-1.115439	-0.371720
C35	C	1.316993	-1.060679	-0.304461
C36	C	1.316935	-0.950950	-0.304440
C37	C	1.384069	-0.895993	-0.371672
C38	C	1.792417	-0.506064	-0.506164
C39	C	1.909194	-0.506073	-0.506171
C40	C	1.518458	-0.505939	-0.780182
C41	C	1.518489	-0.505894	-0.896959
C42	C	1.518471	-0.232012	-0.506189
C43	C	1.518509	-0.115235	-0.506206
C44	C	1.451338	-0.438681	-0.951826
C45	C	1.451363	-0.438648	-1.061550
C46	C	1.585698	-0.573046	-1.061530
C47	C	1.585667	-0.573082	-0.951807
C48	C	1.518372	-0.506076	-0.233181
C49	C	1.518544	-0.505825	-0.116405
H50	H	0.919463	-0.384313	-0.628278
H51	H	1.396681	-0.383918	-1.106219
H52	H	1.652678	-0.806248	-0.640625
H53	H	1.118383	-0.627802	-0.384024
C54	C	1.243148	-1.121138	-0.230511
C55	C	1.243207	-1.241828	-0.230542
C56	C	1.169362	-1.302291	-0.156590
C57	C	1.095456	-1.242065	-0.082608
C58	C	1.095394	-1.121368	-0.082574
C59	C	1.169240	-1.060905	-0.156526
H60	H	1.297919	-1.286417	-0.285311
H61	H	1.169408	-1.391639	-0.156616
H62	H	1.040791	-1.286824	-0.027864
H63	H	1.040683	-1.076779	-0.027805
H64	H	1.169194	-0.971557	-0.156500
H65	H	1.640392	-0.627747	-1.106201
H66	H	1.396637	-0.383972	-0.907171
C67	C	1.659548	-0.647012	-0.891444
C68	C	1.659516	-0.647048	-0.770754
C69	C	1.733393	-0.720973	-0.710391
C70	C	1.807303	-0.794862	-0.770717
C71	C	1.807337	-0.794829	-0.891414
C72	C	1.733460	-0.720904	-0.951778
H73	H	1.604801	-0.592349	-0.726091
H74	H	1.733367	-0.720998	-0.621043
H75	H	1.861991	-0.849586	-0.726033
H76	H	1.862052	-0.849528	-0.936078
H77	H	1.733486	-0.720880	-1.041126
C78	C	1.134203	-0.365112	-0.647493
C79	C	1.073895	-0.291298	-0.721528
C80	C	1.134277	-0.217460	-0.795558
C81	C	1.254967	-0.217438	-0.795554
C82	C	1.315282	-0.291255	-0.721516
C83	C	1.254900	-0.365092	-0.647486
H84	H	0.984547	-0.291312	-0.721533
H85	H	1.089627	-0.162816	-0.850365
H86	H	1.299665	-0.162779	-0.850355
H87	H	1.404630	-0.291241	-0.721510
H88	H	1.299550	-0.419736	-0.592678
H89	H	0.919315	-0.627820	-0.384053
H90	H	1.774564	-0.905588	-0.762643
H91	H	1.774666	-1.104656	-0.762695
C92	C	1.243022	-0.890717	-0.230460
C93	C	1.251654	-0.905888	-0.111034
C94	C	1.177739	-0.845659	-0.037054
C95	C	1.095194	-0.770260	-0.082499
C96	C	1.086559	-0.755085	-0.201932
C97	C	1.160473	-0.815314	-0.275912
H98	H	1.312762	-0.961706	-0.077387
H99	H	1.184132	-0.856893	0.051358
H100	H	1.040478	-0.725675	-0.027734
H101	H	1.025450	-0.699267	-0.235579
H102	H	1.154080	-0.804081	-0.364324
H103	H	1.652875	-1.204375	-0.640721
H104	H	1.384232	-1.204780	-0.371747
H105	H	1.384032	-0.806652	-0.371658
