data_functionalizedCrystal
_audit_creation_method	'MofGen! by Chris Wilmer'
_symmetry_space_group_name_H-M	'P1'
_symmetry_Int_Tables_number	1
_symmetry_cell_setting	triclinic
loop_
_symmetry_equiv_pos_as_xyz
  x,y,z
_cell_length_a	19.077367
_cell_length_b	19.077263
_cell_length_c	19.076919
_cell_angle_alpha	89.924196
_cell_angle_beta	94.478002
_cell_angle_gamma	89.904527
loop_
_atom_site_label
_atom_site_type_symbol
_atom_site_fract_x
_atom_site_fract_y
_atom_site_fract_z
Zn1	Zn	-1.072266	-0.251019	0.344962
Zn2	Zn	-0.738933	0.082314	0.678295
Zn3	Zn	-0.405599	0.415647	1.011628
Zn4	Zn	-1.081663	-0.363417	0.222397
Zn5	Zn	-0.748330	-0.030084	0.555731
Zn6	Zn	-0.414997	0.303249	0.889064
Zn7	Zn	-0.959122	-0.251036	0.231812
Zn8	Zn	-0.625788	0.082297	0.565146
Zn9	Zn	-0.292455	0.415630	0.898479
Zn10	Zn	-0.959504	-0.373192	0.344555
Zn11	Zn	-0.626171	-0.039859	0.677888
Zn12	Zn	-0.292838	0.293474	1.011222
O13	O	-1.018139	-0.309666	0.285932
O14	O	-0.684806	0.023667	0.619265
O15	O	-0.351472	0.357000	0.952598
O16	O	-1.171988	-0.261831	0.324933
O17	O	-0.838655	0.071502	0.658267
O18	O	-0.505321	0.404836	0.991600
O19	O	-1.069181	-0.344426	0.125169
O20	O	-0.735847	-0.011093	0.458503
O21	O	-0.402514	0.322241	0.791836
O22	O	-0.970038	-0.152873	0.250932
O23	O	-0.636705	0.180461	0.584265
O24	O	-0.303371	0.513794	0.917599
O25	O	-1.178892	-0.344409	0.234886
O26	O	-0.845559	-0.011076	0.568219
O27	O	-0.512225	0.322257	0.901552
O28	O	-1.053164	-0.152860	0.334062
O29	O	-0.719831	0.180473	0.667396
O30	O	-0.386498	0.513807	1.000729
O31	O	-0.979150	-0.261860	0.132086
O32	O	-0.645817	0.071473	0.465420
O33	O	-0.312483	0.404806	0.798753
O34	O	-0.860697	-0.271339	0.250538
O35	O	-0.527364	0.061994	0.583871
O36	O	-0.194031	0.395328	0.917204
O37	O	-0.970690	-0.361070	0.443086
O38	O	-0.637356	-0.027736	0.776419
O39	O	-0.304023	0.305597	1.109753
O40	O	-0.860978	-0.361086	0.333370
O41	O	-0.527645	-0.027753	0.666703
O42	O	-0.194312	0.305580	1.000036
O43	O	-1.053535	-0.271310	0.443385
O44	O	-0.720202	0.062024	0.776718
O45	O	-0.386869	0.395357	1.110051
O46	O	-1.069551	-0.462876	0.234492
O47	O	-0.736218	-0.129542	0.567825
O48	O	-0.402885	0.203791	0.901158
O49	O	-0.979802	-0.470057	0.324240
O50	O	-0.646468	-0.136724	0.657574
O51	O	-0.313135	0.196609	0.990907
C52	C	-0.835304	-0.317276	0.292932
C53	C	-0.501971	0.016058	0.626265
C54	C	-0.168638	0.349391	0.959598
C55	C	-0.757087	-0.320549	0.295942
C56	C	-0.423754	0.012785	0.629276
C57	C	-0.090420	0.346118	0.962609
C58	C	-1.025756	-0.491918	0.278315
C59	C	-0.692423	-0.158585	0.611648
C60	C	-0.359090	0.174748	0.944981
C61	C	-1.029079	-0.569885	0.275077
C62	C	-0.695745	-0.236552	0.608411
C63	C	-0.362412	0.096782	0.941744
C64	C	-1.011107	-0.317278	0.469483
C65	C	-0.677774	0.016055	0.802816
C66	C	-0.344440	0.349389	1.136150
C67	C	-1.008110	-0.320522	0.547702
C68	C	-0.674777	0.012811	0.881035
C69	C	-0.341444	0.346145	1.214369
C70	C	-0.720168	-0.275295	0.254307
C71	C	-0.386834	0.058038	0.587641
C72	C	-0.053501	0.391372	0.920974
C73	C	-0.646674	-0.278376	0.257136
C74	C	-0.313341	0.054957	0.590469
C75	C	0.019992	0.388290	0.923802
C76	C	-0.610102	-0.326708	0.301603
C77	C	-0.276768	0.006625	0.634936
C78	C	0.056565	0.339958	0.968270
C79	C	-0.647026	-0.371967	0.343240
C80	C	-0.313693	-0.038634	0.676573
C81	C	0.019641	0.294700	1.009906
C82	C	-0.720518	-0.368888	0.340407
C83	C	-0.387185	-0.035555	0.673740
C84	C	-0.053852	0.297778	1.007074
C85	C	-0.390322	-0.340936	0.314687
C86	C	-0.056989	-0.007603	0.648021
C87	C	0.276345	0.325731	0.981354
C88	C	-0.316825	-0.344010	0.317518
C89	C	0.016509	-0.010676	0.650852
C90	C	0.349842	0.322657	0.984185
C91	C	-0.316478	-0.250420	0.231413
C92	C	0.016855	0.082914	0.564747
C93	C	0.350189	0.416247	0.898080
C94	C	-0.389971	-0.247343	0.228588
C95	C	-0.056638	0.085991	0.561921
C96	C	0.276695	0.419324	0.895254
C97	C	-0.426890	-0.292603	0.270221
C98	C	-0.093556	0.040730	0.603555
C99	C	0.239777	0.374063	0.936888
N100	N	-0.534979	-0.329858	0.304497
N101	N	-0.201646	0.003476	0.637830
N102	N	0.131687	0.336809	0.971163
N103	N	-0.502011	-0.289457	0.267324
N104	N	-0.168677	0.043876	0.600657
N105	N	0.164656	0.377210	0.933990
C106	C	-0.201688	-0.302024	0.278898
C107	C	0.131646	0.031310	0.612231
C108	C	0.464979	0.364643	0.945565
C109	C	-0.279905	-0.298756	0.275884
C110	C	0.053428	0.034577	0.609217
C111	C	0.386761	0.367911	0.942550
C112	C	-1.010510	-0.126702	0.293593
C113	C	-0.677177	0.206631	0.626926
C114	C	-0.343844	0.539964	0.960259
C115	C	-1.007259	-0.048734	0.296858
C116	C	-0.673926	0.284599	0.630191
C117	C	-0.340593	0.617933	0.963524
C118	C	-0.983883	0.389740	0.320267
C119	C	-0.650550	0.723073	0.653600
C120	C	-0.317217	1.056407	0.986933
C121	C	-0.986946	0.316481	0.317193
C122	C	-0.653613	0.649815	0.650526
C123	C	-0.320280	0.983148	0.983859
C124	C	-1.035209	0.283599	0.268932
C125	C	-0.701876	0.616932	0.602266
C126	C	-0.368542	0.950265	0.935599
C127	C	-1.080406	0.323979	0.223738
C128	C	-0.747073	0.657312	0.557072
C129	C	-0.413740	0.990646	0.890405
C130	C	-1.077339	0.397236	0.226809
C131	C	-0.744006	0.730570	0.560143
C132	C	-0.410673	1.063903	0.893476
C133	C	-1.049390	0.064904	0.254734
C134	C	-0.716056	0.398237	0.588068
C135	C	-0.382723	0.731570	0.921401
C136	C	-1.052455	-0.008359	0.251668
C137	C	-0.719122	0.324974	0.585002
C138	C	-0.385788	0.658307	0.918335
C139	C	-0.958994	-0.015852	0.345122
C140	C	-0.625660	0.317482	0.678455
C141	C	-0.292327	0.650815	1.011789
C142	C	-0.955934	0.057408	0.348192
C143	C	-0.622600	0.390741	0.681525
C144	C	-0.289267	0.724074	1.014858
C145	C	-1.001128	0.097781	0.302995
C146	C	-0.667795	0.431115	0.636328
C147	C	-0.334462	0.764448	0.969662
N148	N	-1.038343	0.208716	0.265791
N149	N	-0.705009	0.542050	0.599124
N150	N	-0.371676	0.875383	0.932457
N151	N	-0.997991	0.172662	0.306134
N152	N	-0.664657	0.505996	0.639467
N153	N	-0.331324	0.839329	0.972801
C154	C	-1.025182	-0.302032	0.103095
C155	C	-0.691848	0.031301	0.436428
C156	C	-0.358515	0.364635	0.769761
C157	C	-1.028306	-0.298585	0.024879
C158	C	-0.694973	0.034748	0.358213
C159	C	-0.361640	0.368082	0.691546
C160	C	-1.049834	-0.275315	0.584606
C161	C	-0.716500	0.058019	0.917939
C162	C	-0.383167	0.391352	1.251273
C163	C	-1.047009	-0.278360	0.658101
C164	C	-0.713676	0.054973	0.991434
C165	C	-0.380343	0.388307	1.324768
C166	C	-1.002465	-0.326617	0.694691
C167	C	-0.669132	0.006717	1.028024
C168	C	-0.335798	0.340050	1.361357
C169	C	-0.960737	-0.371826	0.657782
C170	C	-0.627404	-0.038493	0.991115
C171	C	-0.294071	0.294841	1.324448
C172	C	-0.963558	-0.368777	0.584288
C173	C	-0.630225	-0.035443	0.917621
C174	C	-0.296892	0.297890	1.250955
C175	C	-0.989399	-0.340745	0.914477
C176	C	-0.656066	-0.007411	1.247810
C177	C	-0.322733	0.325922	1.581143
C178	C	-0.986583	-0.343792	0.987975
C179	C	-0.653250	-0.010459	1.321309
C180	C	-0.319916	0.322875	1.654642
C181	C	-1.072855	-0.250325	0.988290
C182	C	-0.739521	0.083008	1.321623
C183	C	-0.406188	0.416342	1.654956
C184	C	-1.075675	-0.247283	0.914794
C185	C	-0.742342	0.086051	1.248128
C186	C	-0.409008	0.419384	1.581461
C187	C	-1.033944	-0.292489	0.877892
C188	C	-0.700611	0.040844	1.211225
C189	C	-0.367278	0.374177	1.544559
N190	N	-0.999579	-0.329732	0.769815
N191	N	-0.666246	0.003601	1.103148
N192	N	-0.332912	0.336934	1.436481
N193	N	-1.036827	-0.289370	0.802770
N194	N	-0.703494	0.043963	1.136103
N195	N	-0.370161	0.377297	1.469437
H196	H	-0.749939	-0.235933	0.218103
H197	H	-0.416606	0.097401	0.551436
H198	H	-0.083273	0.430734	0.884769
H199	H	-1.106828	-0.213519	1.018344
H200	H	-0.773495	0.119814	1.351677
H201	H	-0.440162	0.453147	1.685010
H202	H	-0.287049	-0.383367	0.353734
H203	H	0.046284	-0.050034	0.687067
H204	H	0.379618	0.283300	1.020400
H205	H	-0.944586	0.416508	0.359568
H206	H	-0.611252	0.749841	0.692902
H207	H	-0.277919	1.083175	1.026235
H208	H	-0.916634	0.084179	0.387489
H209	H	-0.583301	0.417512	0.720822
H210	H	-0.249968	0.750845	1.054156
H211	H	-0.929575	-0.405582	0.554242
H212	H	-0.596242	-0.072249	0.887576
H213	H	-0.262909	0.261084	1.220909
H214	H	-1.080987	-0.241549	0.688145
H215	H	-0.747653	0.091784	1.021478
H216	H	-0.414320	0.425117	1.354812
H217	H	-0.750577	-0.405739	0.374311
H218	H	-0.417244	-0.072406	0.707644
H219	H	-0.083911	0.260928	1.040977
H220	H	-0.950137	0.283611	0.353985
H221	H	-0.616804	0.616944	0.687318
H222	H	-0.283471	0.950277	1.020651
H223	H	-0.950308	-0.383090	1.017765
H224	H	-0.616974	-0.049757	1.351098
H225	H	-0.283641	0.283576	1.684431
H226	H	-0.955430	-0.377565	0.884439
H227	H	-0.622097	-0.044232	1.217772
H228	H	-0.288763	0.289102	1.551105
H229	H	-0.616618	-0.241530	0.223228
H230	H	-0.283285	0.091803	0.556561
H231	H	0.050049	0.425137	0.889894
H232	H	-1.086109	-0.236021	0.554820
H233	H	-0.752776	0.097312	0.888153
H234	H	-0.419442	0.430646	1.221486
H235	H	-1.119700	0.297200	0.184441
H236	H	-0.786366	0.630533	0.517774
H237	H	-0.453033	0.963867	0.851107
H238	H	-1.111950	-0.207989	0.885008
H239	H	-0.778616	0.125344	1.218341
H240	H	-0.445283	0.458678	1.551675
H241	H	-0.924466	-0.411115	0.687579
H242	H	-0.591132	-0.077782	1.020912
H243	H	-0.257799	0.255552	1.354246
H244	H	-0.419744	-0.207990	0.192372
H245	H	-0.086411	0.125343	0.525706
H246	H	0.246922	0.458677	0.859039
H247	H	-0.286411	-0.213571	0.197517
H248	H	0.046922	0.119762	0.530850
H249	H	0.380256	0.453095	0.864183
H250	H	-0.420372	-0.377791	0.348589
H251	H	-0.087039	-0.044457	0.681922
H252	H	0.246294	0.288876	1.015255
H253	H	-0.922198	-0.048732	0.381918
H254	H	-0.588864	0.284601	0.715251
H255	H	-0.255531	0.617935	1.048585
H256	H	-0.617243	-0.411323	0.379443
H257	H	-0.283910	-0.077990	0.712776
H258	H	0.049424	0.255344	1.046109
H259	H	-1.091760	-0.035130	0.212369
H260	H	-0.758427	0.298204	0.545702
H261	H	-0.425094	0.631537	0.879036
H262	H	-1.086190	0.097771	0.217935
H263	H	-0.752857	0.431104	0.551268
H264	H	-0.419524	0.764437	0.884601
H265	H	-1.114141	0.430109	0.190011
H266	H	-0.780808	0.763443	0.523344
H267	H	-0.447475	1.096776	0.856677
