data_functionalizedCrystal
_audit_creation_method	'MofGen! by Chris Wilmer'
_symmetry_space_group_name_H-M	'P1'
_symmetry_Int_Tables_number	1
_symmetry_cell_setting	triclinic
loop_
_symmetry_equiv_pos_as_xyz
  x,y,z
_cell_length_a	12.759401
_cell_length_b	19.121405
_cell_length_c	12.759393
_cell_angle_alpha	87.522846
_cell_angle_beta	89.981504
_cell_angle_gamma	87.590695
loop_
_atom_site_label
_atom_site_type_symbol
_atom_site_fract_x
_atom_site_fract_y
_atom_site_fract_z
Zn1	Zn	-1.623970	0.279566	0.576109
Zn2	Zn	-1.631308	0.397034	0.392920
Zn3	Zn	-1.448275	0.279603	0.400447
Zn4	Zn	-1.455701	0.396980	0.568565
O5	O	-1.539814	0.338296	0.484510
O6	O	-1.771965	0.295156	0.551817
O7	O	-1.606991	0.381495	0.246895
O8	O	-1.465402	0.181315	0.430056
O9	O	-1.777356	0.381459	0.417228
O10	O	-1.594485	0.181288	0.559115
O11	O	-1.472517	0.295219	0.252425
O12	O	-1.302238	0.295166	0.422740
O13	O	-1.478059	0.381367	0.716589
O14	O	-1.307694	0.381403	0.546256
O15	O	-1.601686	0.295103	0.722132
O16	O	-1.614192	0.495310	0.409913
O17	O	-1.485175	0.495271	0.538958
C18	C	-1.266845	0.338283	0.484497
C19	C	-1.150069	0.338294	0.484515
C20	C	-1.551314	0.520774	0.472823
C21	C	-1.556330	0.598839	0.467858
C22	C	-1.539883	0.338225	0.758548
C23	C	-1.539912	0.338195	0.875327
C24	C	-1.813848	0.338309	0.484524
C25	C	-1.930625	0.338315	0.484530
C26	C	-1.098080	0.383270	0.548714
C27	C	-0.988357	0.383278	0.548725
C28	C	-0.982621	0.293335	0.420329
C29	C	-1.092342	0.293323	0.420324
C30	C	-1.101391	0.435200	0.622839
C31	C	-0.991668	0.435209	0.622850
C32	C	-1.491468	0.635519	0.532657
C33	C	-1.496186	0.708870	0.527988
C34	C	-1.565772	0.745539	0.458525
C35	C	-1.630636	0.708854	0.393719
C36	C	-1.625912	0.635505	0.398383
C37	C	-1.583392	0.967006	0.441077
C38	C	-1.588113	1.040360	0.436420
C39	C	-1.453661	1.040371	0.570689
C40	C	-1.448948	0.967020	0.575352
C41	C	-1.513809	0.930342	0.510542
C42	C	-1.570598	0.820515	0.453753
C43	C	-1.508976	0.855367	0.515309
C44	C	-1.528262	1.155105	0.496252
C45	C	-1.523251	1.077040	0.501219
C46	C	-1.539802	0.338316	0.211542
C47	C	-1.539964	0.338148	0.094776
C48	C	-1.604293	0.293273	0.933077
C49	C	-1.604317	0.293248	1.042803
C50	C	-1.475575	0.383072	1.037018
C51	C	-1.475547	0.383093	0.927295
C52	C	-1.678625	0.241416	0.936418
C53	C	-1.678649	0.241391	1.046143
H54	H	-1.134667	0.256695	0.368054
N55	N	-1.646991	0.173188	0.903432
N56	N	-1.707561	0.139804	0.849262
H57	H	-1.685217	0.091619	0.825967
N58	N	-1.377864	0.929577	0.646317
N59	N	-1.319956	0.962336	0.704170
H60	H	-1.269754	0.935892	0.754293
N61	N	-1.781876	0.259685	1.082334
N62	N	-1.797141	0.312662	1.135252
H63	H	-1.870043	0.325583	1.160810
H64	H	-1.627255	0.850379	0.397196
H65	H	-0.956440	0.415793	0.701443
N66	N	-1.692153	0.598034	0.332178
N67	N	-1.685761	0.606282	0.234703
H68	H	-1.732541	0.579819	0.187939
N69	N	-0.958620	0.503431	0.590973
N70	N	-1.025315	0.551487	0.568496
H71	H	-1.001976	0.599667	0.545982
N72	N	-1.701722	0.746297	0.322755
N73	N	-1.759625	0.713536	0.264900
H74	H	-1.809831	0.739978	0.214779
H75	H	-1.636206	0.937147	0.388309
H76	H	-1.434809	0.605668	0.589227
N77	N	-1.777111	0.265854	0.892130
N78	N	-1.789396	0.268919	0.794827
H79	H	-1.858953	0.286176	0.763546
N80	N	-0.923653	0.247413	0.354743
N81	N	-0.936156	0.251994	0.257492
H82	H	-0.894511	0.219562	0.211168
N83	N	-1.637964	0.176556	1.092946
N84	N	-1.546200	0.155494	1.073654
H85	H	-1.517443	0.109703	1.106684
N86	N	-1.137626	0.417006	0.726129
N87	N	-1.073175	0.404191	0.798904
H88	H	-1.098764	0.391342	0.871852
N89	N	-1.148175	0.499979	0.581949
N90	N	-1.128909	0.521008	0.490117
H91	H	-1.161950	0.566759	0.461233
N92	N	-1.429921	0.746327	0.594184
N93	N	-1.367800	0.713578	0.656205
H94	H	-1.320996	0.740031	0.702959
H95	H	-1.400854	1.070243	0.623452
H96	H	-1.452315	0.825509	0.571863
H97	H	-1.423117	0.419670	0.880279
H98	H	-1.423168	0.419625	1.079344
N99	N	-1.659191	1.077807	0.365442
N100	N	-1.717087	1.045051	0.307573
H101	H	-1.767280	1.071497	0.257443
