data_functionalizedCrystal
_audit_creation_method	'MofGen! by Chris Wilmer'
_symmetry_space_group_name_H-M	'P1'
_symmetry_Int_Tables_number	1
_symmetry_cell_setting	triclinic
loop_
_symmetry_equiv_pos_as_xyz
  x,y,z
_cell_length_a	19.188928
_cell_length_b	14.971486
_cell_length_c	13.448316
_cell_angle_alpha	90.006811
_cell_angle_beta	90.023464
_cell_angle_gamma	83.378970
loop_
_atom_site_label
_atom_site_type_symbol
_atom_site_fract_x
_atom_site_fract_y
_atom_site_fract_z
O1	O	-0.926507	-0.111661	-0.083077
O2	O	-0.426507	0.388339	0.416923
O3	O	-0.723244	-0.126695	-0.082995
O4	O	-0.223244	0.373305	0.417005
O5	O	-0.830324	0.011051	-0.083031
O6	O	-0.330324	0.511051	0.416969
O7	O	-0.819428	-0.249407	-0.083041
O8	O	-0.319428	0.250593	0.416959
O9	O	-0.830310	0.011059	0.082353
O10	O	-0.330310	0.511059	0.582353
O11	O	-0.723231	-0.126687	0.082389
O12	O	-0.223231	0.373313	0.582389
O13	O	-0.926494	-0.111652	0.082307
O14	O	-0.426494	0.388348	0.582307
Cu15	Cu	-0.824861	-0.119169	0.097449
Cu16	Cu	-0.324861	0.380831	0.597449
Cu17	Cu	-0.824877	-0.119179	-0.098137
Cu18	Cu	-0.324877	0.380821	0.401863
O19	O	-0.819414	-0.249398	0.082343
O20	O	-0.319414	0.250602	0.582343
C21	C	-0.697225	-0.126205	-0.000292
C22	C	-0.197225	0.373795	0.499708
C23	C	-0.619716	-0.124744	-0.000261
C24	C	-0.119716	0.375256	0.499739
N25	N	-0.824855	-0.119161	0.235013
N26	N	-0.324855	0.380839	0.735013
C27	C	-0.829830	0.044377	-0.000339
C28	C	-0.329830	0.544377	0.499661
C29	C	-0.828370	0.143667	-0.000340
C30	C	-0.328370	0.643667	0.499660
C31	C	-0.575052	-0.205569	-0.000276
C32	C	-0.075052	0.294431	0.499724
C33	C	-0.502223	-0.204197	-0.000282
C34	C	-0.002223	0.295803	0.499718
C35	C	-0.474062	-0.121995	-0.000292
C36	C	0.025938	0.378005	0.499708
C37	C	-0.518736	-0.041160	-0.000271
C38	C	-0.018736	0.458840	0.499729
C39	C	-0.591563	-0.042534	-0.000255
C40	C	-0.091563	0.457466	0.499745
N41	N	-0.365884	-0.059166	-0.056609
N42	N	0.134116	0.440834	0.443391
N43	N	-0.296701	-0.057866	-0.056626
N44	N	0.203299	0.442134	0.443374
C45	C	-0.254640	-0.117849	-0.000337
C46	C	0.245360	0.382151	0.499663
N47	N	-0.284374	-0.179195	0.055957
N48	N	0.215626	0.320805	0.555957
N49	N	-0.353563	-0.180498	0.055969
N50	N	0.146437	0.319502	0.555969
C51	C	-0.395095	-0.120496	-0.000309
C52	C	0.104905	0.379504	0.499691
C53	C	-0.131007	-0.197192	-0.000358
C54	C	0.368993	0.302808	0.499642
C55	C	-0.058178	-0.195816	-0.000358
C56	C	0.441822	0.304184	0.499642
C57	C	-0.074692	-0.032777	-0.000356
C58	C	0.425308	0.467223	0.499644
C59	C	-0.147519	-0.034155	-0.000347
C60	C	0.352481	0.465845	0.499653
C61	C	-0.175672	-0.116365	-0.000352
C62	C	0.324328	0.383635	0.499648
C63	C	0.047487	-0.112146	-0.000380
C64	C	0.547487	0.387854	0.499620
C65	C	-0.030021	-0.113614	-0.000366
C66	C	0.469979	0.386386	0.499634
C67	C	-0.819908	-0.282725	-0.000351
C68	C	-0.319908	0.217275	0.499649
C69	C	-0.821369	-0.382014	-0.000357
C70	C	-0.321369	0.117986	0.499643
C71	C	-0.891276	0.201225	-0.000364
C72	C	-0.391276	0.701225	0.499636
C73	C	-0.889900	0.294517	-0.000374
C74	C	-0.389900	0.794517	0.499626
C75	C	-0.825616	0.330249	-0.000351
C76	C	-0.325616	0.830249	0.499649
C77	C	-0.762705	0.272684	-0.000330
C78	C	-0.262705	0.772684	0.499670
C79	C	-0.764082	0.179393	-0.000327
C80	C	-0.264082	0.679393	0.499673
C81	C	-0.759840	0.467131	-0.000332
C82	C	-0.259840	0.967131	0.499668
C83	C	-0.758462	0.560428	-0.000333
C84	C	-0.258462	1.060428	0.499667
C85	C	-0.885657	0.582255	-0.000379
C86	C	-0.385657	1.082255	0.499621
C87	C	-0.887034	0.488964	-0.000376
C88	C	-0.387034	0.988964	0.499624
C89	C	-0.824123	0.431405	-0.000353
C90	C	-0.324123	0.931405	0.499647
N91	N	-0.824889	-0.119179	-0.235701
N92	N	-0.324889	0.380821	0.264299
C93	C	-0.872285	-0.058192	0.287037
C94	C	-0.372285	0.441808	0.787037
C95	C	-0.872289	-0.058191	0.391141
C96	C	-0.372289	0.441809	0.891141
C97	C	-0.824867	-0.119165	0.443218
C98	C	-0.324867	0.380835	0.943218
C99	C	-0.777432	-0.180137	0.391186
C100	C	-0.277432	0.319863	0.891186
C101	C	-0.777425	-0.180132	0.287085
C102	C	-0.277425	0.319868	0.787085
C103	C	-0.777451	-0.180143	0.608166
C104	C	-0.277451	0.319857	1.108166
C105	C	-0.777459	-0.180148	0.712275
C106	C	-0.277459	0.319852	1.212275
C107	C	-0.872315	-0.058201	0.712222
C108	C	-0.372315	0.441799	1.212222
C109	C	-0.872308	-0.058197	0.608121
C110	C	-0.372308	0.441803	1.108121
C111	C	-0.824874	-0.119171	0.556096
C112	C	-0.324874	0.380829	1.056096
H113	H	-0.597969	-0.272510	-0.000283
H114	H	-0.097969	0.227490	0.499717
O115	O	-0.923460	0.007558	0.447244
O116	O	-0.423460	0.507558	0.947244
H117	H	-0.914523	0.077263	0.427275
H118	H	-0.414523	0.577263	0.927275
O119	O	-0.953516	0.644326	-0.000406
O120	O	-0.453516	1.144326	0.499594
H121	H	-0.955947	0.687336	-0.067822
H122	H	-0.455947	1.187336	0.432178
H123	H	-0.738802	-0.229779	0.244727
H124	H	-0.238802	0.270221	0.744727
O125	O	-0.689131	0.598974	-0.000325
O126	O	-0.189131	1.098974	0.499675
H127	H	-0.645615	0.543278	-0.000327
H128	H	-0.145615	1.043278	0.499673
H129	H	-0.943623	0.172140	-0.000377
H130	H	-0.443623	0.672140	0.499623
H131	H	-0.910937	-0.008555	0.754586
H132	H	-0.410937	0.491445	1.254586
O133	O	-0.923453	0.007567	0.551945
O134	O	-0.423453	0.507567	1.051945
H135	H	-0.956432	0.049972	0.605608
H136	H	-0.456432	0.549972	1.105608
H137	H	-0.738842	-0.229798	0.754670
H138	H	-0.238842	0.270202	1.254670
O139	O	-0.691987	0.405044	-0.000297
O140	O	-0.191987	0.905044	0.499703
H141	H	-0.647055	0.445561	-0.000268
H142	H	-0.147055	0.945561	0.499732
H143	H	-0.465851	-0.270016	-0.000292
H144	H	0.034149	0.229984	0.499708
H145	H	-0.627929	0.023285	-0.000243
H146	H	-0.127929	0.523285	0.499757
H147	H	-0.738823	-0.229791	0.565811
H148	H	-0.238823	0.270209	1.065811
O149	O	-0.696230	0.117313	-0.000291
O150	O	-0.196230	0.617313	0.499709
H151	H	-0.693816	0.074284	-0.067700
H152	H	-0.193816	0.574284	0.432300
O153	O	-0.726286	-0.245904	0.447355
O154	O	-0.226286	0.254096	0.947355
H155	H	-0.735236	-0.315601	0.427344
H156	H	-0.235236	0.184399	0.927344
O157	O	-0.195696	0.053024	-0.000342
O158	O	0.304304	0.553024	0.499658
H159	H	-0.229239	0.056303	0.067078
H160	H	0.270761	0.556303	0.567078
O161	O	-0.161381	-0.285855	-0.000344
O162	O	0.338619	0.214145	0.499656
H163	H	-0.118085	-0.341829	-0.000337
H164	H	0.381915	0.158171	0.499663
H165	H	-0.495802	0.025769	-0.000293
H166	H	0.004198	0.525769	0.499707
O167	O	-0.693371	0.311222	-0.000294
O168	O	-0.193371	0.811222	0.499706
H169	H	-0.689706	0.353206	-0.067693
H170	H	-0.189706	0.853206	0.432307
H171	H	-0.021812	-0.261637	-0.000365
H172	H	0.478188	0.238363	0.499635
H173	H	-0.051764	0.034153	-0.000426
H174	H	0.448236	0.534153	0.499574
H175	H	-0.941124	0.341378	-0.000392
H176	H	-0.441124	0.841378	0.499608
H177	H	-0.910904	-0.008544	0.244643
H178	H	-0.410904	0.491456	0.744643
O179	O	-0.956366	0.450418	-0.000413
O180	O	-0.456366	0.950418	0.499587
H181	H	-0.999881	0.506114	-0.000444
H182	H	-0.499881	1.006114	0.499556
