data_functionalizedCrystal
_audit_creation_method	'MofGen! by Chris Wilmer'
_symmetry_space_group_name_H-M	'P1'
_symmetry_Int_Tables_number	1
_symmetry_cell_setting	triclinic
loop_
_symmetry_equiv_pos_as_xyz
  x,y,z
_cell_length_a	19.805407
_cell_length_b	19.805405
_cell_length_c	19.805407
_cell_angle_alpha	90.013352
_cell_angle_beta	90.005535
_cell_angle_gamma	90.026410
loop_
_atom_site_label
_atom_site_type_symbol
_atom_site_fract_x
_atom_site_fract_y
_atom_site_fract_z
Zn1	Zn	1.034642	-0.269585	0.382711
Zn2	Zn	1.034584	-0.382742	0.269520
Zn3	Zn	0.921484	-0.269573	0.269536
Zn4	Zn	0.921420	-0.382738	0.382666
O5	O	0.978033	-0.326160	0.326108
O6	O	1.129351	-0.284603	0.367708
O7	O	1.019584	-0.367727	0.174805
O8	O	0.936546	-0.174858	0.284575
O9	O	1.129309	-0.367739	0.284547
O10	O	1.019682	-0.174867	0.367724
O11	O	0.936490	-0.284581	0.174817
O12	O	0.826759	-0.284577	0.284531
O13	O	0.936436	-0.367731	0.477389
O14	O	0.826712	-0.367719	0.367647
O15	O	1.019620	-0.284599	0.477422
O16	O	1.019522	-0.477458	0.284503
O17	O	0.936381	-0.477455	0.367632
C18	C	0.802177	-0.326147	0.326086
C19	C	0.726945	-0.326157	0.326093
C20	C	0.691594	-0.369515	0.369302
C21	C	0.620905	-0.369516	0.369311
C22	C	0.585569	-0.326163	0.326108
C23	C	0.620925	-0.282801	0.282898
C24	C	0.691612	-0.282797	0.282892
C25	C	0.335852	-0.282816	0.282920
C26	C	0.265160	-0.282825	0.282928
C27	C	0.265145	-0.369535	0.369339
C28	C	0.335832	-0.369531	0.369334
C29	C	0.371182	-0.326167	0.326126
C30	C	0.447830	-0.326165	0.326117
C31	C	0.508922	-0.326167	0.326113
C32	C	0.977956	-0.502016	0.326076
C33	C	0.977986	-0.577248	0.326084
C34	C	1.021320	-0.612571	0.282845
C35	C	1.021348	-0.683259	0.282860
C36	C	0.978039	-0.718623	0.326111
C37	C	0.934704	-0.683295	0.369356
C38	C	0.934679	-0.612608	0.369344
C39	C	0.934804	-0.968368	0.369406
C40	C	0.934830	-1.039060	0.369413
C41	C	1.021473	-1.039020	0.282922
C42	C	1.021448	-0.968333	0.282910
C43	C	0.978115	-0.933010	0.326156
C44	C	0.978086	-0.856362	0.326141
C45	C	0.978065	-0.795270	0.326124
C46	C	1.154575	-0.326173	0.326131
C47	C	1.229807	-0.326179	0.326140
C48	C	0.978027	-0.326166	0.502651
C49	C	0.978025	-0.326169	0.577883
C50	C	0.978128	-0.149617	0.326156
C51	C	0.978168	-0.074385	0.326176
C52	C	1.021337	-0.282877	1.039692
C53	C	1.021339	-0.282880	0.969004
C54	C	0.978030	-0.326163	0.933645
C55	C	0.934721	-0.369451	0.968978
C56	C	0.934723	-0.369451	1.039665
C57	C	0.934714	-0.369454	0.683904
C58	C	0.934714	-0.369449	0.613212
C59	C	1.021330	-0.282883	0.613243
C60	C	1.021332	-0.282882	0.683931
C61	C	0.978026	-0.326173	0.719257
C62	C	0.978025	-0.326170	0.795906
C63	C	0.978027	-0.326163	0.856998
C64	C	0.978032	-0.326167	1.150252
C65	C	0.978030	-0.326160	1.075020
H66	H	0.364599	-0.404836	0.404512
H67	H	0.236354	-0.404841	0.404524
H68	H	1.056759	-1.067788	0.247711
H69	H	0.364625	-0.247511	0.247733
H70	H	0.899519	-0.939614	0.404617
H71	H	0.899564	-1.067851	0.404639
H72	H	1.056596	-0.247634	0.712716
H73	H	1.056600	-0.247626	1.068477
H74	H	0.592149	-0.247499	0.247724
H75	H	0.899450	-0.404702	0.712659
H76	H	1.056606	-0.247637	0.940243
H77	H	1.056712	-0.939542	0.247688
H78	H	0.899393	-0.583848	0.404555
H79	H	1.056594	-0.247636	0.584472
H80	H	0.899442	-0.404695	0.584425
H81	H	1.056584	-0.583782	0.247621
H82	H	0.720394	-0.247487	0.247711
H83	H	0.899461	-0.404696	0.940183
H84	H	0.899459	-0.404697	1.068428
H85	H	1.056634	-0.712017	0.247649
H86	H	0.720359	-0.404820	0.404481
H87	H	0.592126	-0.404822	0.404496
H88	H	0.236391	-0.247517	0.247746
H89	H	0.899444	-0.712094	0.404575
