data_functionalizedCrystal
_audit_creation_method	'MofGen! by Chris Wilmer'
_symmetry_space_group_name_H-M	'P1'
_symmetry_Int_Tables_number	1
_symmetry_cell_setting	triclinic
loop_
_symmetry_equiv_pos_as_xyz
  x,y,z
_cell_length_a	6.817900
_cell_length_b	19.453067
_cell_length_c	19.453030
_cell_angle_alpha	96.315599
_cell_angle_beta	101.707737
_cell_angle_gamma	101.708464
loop_
_atom_site_label
_atom_site_type_symbol
_atom_site_fract_x
_atom_site_fract_y
_atom_site_fract_z
V1	V	-3.997975	-0.097913	-0.219325
V2	V	-3.497975	0.402087	0.280675
O3	O	-3.995081	0.003953	-0.214817
O4	O	-3.495081	0.503953	0.285183
O5	O	-3.940989	-0.193422	-0.218146
O6	O	-3.440989	0.306578	0.281854
O7	O	-3.940988	-0.096737	-0.314834
O8	O	-3.440988	0.403263	0.185166
O9	O	-3.995082	-0.093401	-0.117459
O10	O	-3.495082	0.406599	0.382541
V11	V	-4.483828	-0.085690	-0.207102
V12	V	-3.983828	0.414310	0.292898
O13	O	-4.254122	-0.124726	-0.246137
O14	O	-3.754122	0.375274	0.253863
O15	O	-4.677878	-0.058877	-0.180290
O16	O	-4.177878	0.441123	0.319710
O17	O	-4.317607	0.009819	-0.208281
O18	O	-3.817607	0.509819	0.291719
O19	O	-4.604118	-0.187556	-0.211611
O20	O	-4.104118	0.312444	0.288389
O21	O	-4.604117	-0.090202	-0.308968
O22	O	-4.104117	0.409798	0.191032
O23	O	-4.317608	-0.086866	-0.111593
O24	O	-3.817608	0.413134	0.388407
C25	C	-3.784179	-0.216694	-0.214769
C26	C	-3.284179	0.283306	0.285231
C27	C	-3.818816	-0.294776	-0.214441
C28	C	-3.318816	0.205224	0.285559
C29	C	-4.034518	-0.841951	-0.147825
C30	C	-3.534518	-0.341951	0.352175
C31	C	-4.001954	-0.768584	-0.148126
C32	C	-3.501954	-0.268584	0.351874
C33	C	-4.017275	-0.742101	-0.212595
C34	C	-3.517275	-0.242101	0.287405
C35	C	-4.065113	-0.788992	-0.276767
C36	C	-3.565113	-0.288992	0.223233
C37	C	-4.097655	-0.862357	-0.276464
C38	C	-3.597655	-0.362357	0.223536
N39	N	-4.103219	-0.636813	-0.263556
N40	N	-3.603219	-0.136813	0.236444
N41	N	-4.072308	-0.567119	-0.263839
N42	N	-3.572308	-0.067119	0.236161
C43	C	-3.919226	-0.521056	-0.213511
C44	C	-3.419226	-0.021056	0.286489
N45	N	-3.798243	-0.547320	-0.162879
N46	N	-3.298243	-0.047320	0.337121
N47	N	-3.829165	-0.617021	-0.162593
N48	N	-3.329165	-0.117021	0.337407
C49	C	-3.981991	-0.662550	-0.212930
C50	C	-3.481991	-0.162550	0.287070
C51	C	-3.836071	-0.394622	-0.149669
C52	C	-3.336071	0.105378	0.350331
C53	C	-3.803496	-0.321253	-0.149972
C54	C	-3.303496	0.178747	0.350028
C55	C	-3.866677	-0.341663	-0.278615
C56	C	-3.366677	0.158337	0.221385
C57	C	-3.899230	-0.415030	-0.278310
C58	C	-3.399230	0.084970	0.221690
C59	C	-3.883934	-0.441504	-0.213835
C60	C	-3.383934	0.058496	0.286165
C61	C	-3.784177	-0.093363	-0.338103
C62	C	-3.284177	0.406637	0.161897
C63	C	-3.818810	-0.093033	-0.416184
C64	C	-3.318810	0.406967	0.083816
C65	C	-3.868531	-0.157236	-0.463104
C66	C	-3.368531	0.342764	0.036896
C67	C	-3.901096	-0.156934	-0.536471
C68	C	-3.401096	0.343066	-0.036471
C69	C	-3.883897	-0.092424	-0.562915
C70	C	-3.383897	0.407576	-0.062915
C71	C	-3.834179	-0.028213	-0.515985
C72	C	-3.334179	0.471787	-0.015985
C73	C	-3.801636	-0.028517	-0.442620
C74	C	-3.301636	0.471483	0.057380
N75	N	-3.796768	-0.041846	-0.668240
N76	N	-3.296768	0.458154	-0.168240
N77	N	-3.827681	-0.041562	-0.737934
N78	N	-3.327681	0.458438	-0.237934
C79	C	-3.981951	-0.091503	-0.783959
C80	C	-3.481951	0.408497	-0.283959
N81	N	-4.104122	-0.141751	-0.757657
N82	N	-3.604122	0.358249	-0.257657
N83	N	-4.073198	-0.142038	-0.687957
N84	N	-3.573198	0.357962	-0.187957
C85	C	-3.919183	-0.092087	-0.642465
C86	C	-3.419183	0.407913	-0.142465
C87	C	-4.066988	-0.155383	-0.910432
C88	C	-3.566988	0.344617	-0.410432
C89	C	-4.099565	-0.155079	-0.983800
C90	C	-3.599565	0.344921	-0.483800
C91	C	-4.032626	-0.026355	-0.963312
C92	C	-3.532626	0.473645	-0.463312
C93	C	-4.000071	-0.026662	-0.889946
C94	C	-3.500071	0.473338	-0.389946
C95	C	-4.017245	-0.091178	-0.863510
C96	C	-3.517245	0.408822	-0.363510
C97	C	-4.137758	0.033088	-0.211657
C98	C	-3.637758	0.533088	0.288343
C99	C	-4.082359	0.111168	-0.211989
C100	C	-3.582359	0.611168	0.288011
C101	C	-4.137761	-0.090242	-0.088320
C102	C	-3.637761	0.409758	0.411680
C103	C	-4.082366	-0.090568	-0.010239
C104	C	-3.582366	0.409432	0.489761
H105	H	-4.077581	-0.767425	-0.329258
H106	H	-3.577581	-0.267425	0.170742
H107	H	-4.140067	-0.207363	-1.022003
H108	H	-3.640067	0.292637	-0.522003
C109	C	-3.955789	-0.227565	-0.588092
C110	C	-3.455789	0.272435	-0.088092
N111	N	-3.996979	-0.280764	-0.626970
N112	N	-3.496979	0.219236	-0.126970
C113	C	-4.013710	0.044606	-0.992396
C114	C	-3.513710	0.544606	-0.492396
N115	N	-3.999468	0.098056	-1.014305
N116	N	-3.499468	0.598056	-0.514305
C117	C	-3.815250	0.042748	-0.545074
C118	C	-3.315250	0.542748	-0.045074
N119	N	-3.800993	0.096198	-0.566984
N120	N	-3.300993	0.596198	-0.066984
C121	C	-3.945338	0.043968	-0.838331
C122	C	-3.445338	0.543968	-0.338331
N123	N	-3.904111	0.097170	-0.799455
N124	N	-3.404111	0.597170	-0.299455
H125	H	-3.879142	-0.320102	-0.331107
H126	H	-3.379142	0.179898	0.168893
H127	H	-4.022055	-0.863501	-0.095324
H128	H	-3.522055	-0.363501	0.404676
H129	H	-3.938198	-0.453201	-0.330559
H130	H	-3.438198	0.046799	0.169441
C131	C	-3.887458	-0.228206	-0.434030
C132	C	-3.387458	0.271794	0.065970
N133	N	-3.901724	-0.281662	-0.412131
N134	N	-3.401724	0.218338	0.087869
H135	H	-3.962985	-0.730406	-0.095874
H136	H	-3.462985	-0.230406	0.404126
H137	H	-4.136610	-0.900528	-0.328715
H138	H	-3.636610	-0.400528	0.171285
H139	H	-3.823602	-0.416178	-0.097169
H140	H	-3.323602	0.083822	0.402831
C141	C	-3.746917	0.042114	-0.391006
C142	C	-3.246917	0.542114	0.108994
N143	N	-3.705693	0.095316	-0.352129
N144	N	-3.205693	0.595316	0.147871
C145	C	-3.750852	-0.269683	-0.079382
C146	C	-3.250852	0.230317	0.420618
N147	N	-3.711198	-0.230840	-0.026212
N148	N	-3.211198	0.269160	0.473788
H149	H	-4.080976	-0.207916	-0.888907
H150	H	-3.580976	0.292084	-0.388907
