data_functionalizedCrystal
_audit_creation_method	'MofGen! by Chris Wilmer'
_symmetry_space_group_name_H-M	'P1'
_symmetry_Int_Tables_number	1
_symmetry_cell_setting	triclinic
loop_
_symmetry_equiv_pos_as_xyz
  x,y,z
_cell_length_a	18.101395
_cell_length_b	12.759395
_cell_length_c	12.759387
_cell_angle_alpha	90.018994
_cell_angle_beta	89.964599
_cell_angle_gamma	89.967485
loop_
_atom_site_label
_atom_site_type_symbol
_atom_site_fract_x
_atom_site_fract_y
_atom_site_fract_z
Zn1	Zn	-0.294781	-1.606109	-0.594019
Zn2	Zn	-0.418641	-1.605957	-0.418325
Zn3	Zn	-0.294819	-1.430417	-0.418351
Zn4	Zn	-0.418587	-1.430346	-0.593958
O5	O	-0.356707	-1.518207	-0.506163
O6	O	-0.311218	-1.753110	-0.570727
O7	O	-0.402254	-1.582637	-0.271307
O8	O	-0.191181	-1.453816	-0.441690
O9	O	-0.402218	-1.752998	-0.441645
O10	O	-0.191153	-1.582896	-0.570753
O11	O	-0.311283	-1.453669	-0.271326
O12	O	-0.311230	-1.283387	-0.441631
O13	O	-0.402125	-1.453696	-0.740988
O14	O	-0.402162	-1.283335	-0.570649
O15	O	-0.311166	-1.582828	-0.741032
O16	O	-0.522267	-1.582568	-0.441587
O17	O	-0.522227	-1.453548	-0.570624
C18	C	-0.356695	-1.245240	-0.506137
C19	C	-0.356707	-1.128463	-0.506150
C20	C	-0.451548	-1.128448	-0.640280
C21	C	-0.498973	-1.073579	-0.707346
C22	C	-0.498981	-0.963857	-0.707355
C23	C	-0.451556	-0.909002	-0.640294
C24	C	-0.404131	-0.963870	-0.573228
C25	C	-0.404130	-1.073594	-0.573223
C26	C	-0.309288	-0.963886	-0.439105
C27	C	-0.309283	-1.073607	-0.439089
C28	C	-0.261864	-0.909030	-0.372044
C29	C	-0.214441	-0.963899	-0.304971
C30	C	-0.214436	-1.073627	-0.304963
C31	C	-0.261858	-1.128476	-0.372023
C32	C	-0.549118	-1.518063	-0.506119
C33	C	-0.631432	-1.518097	-0.506135
C34	C	-0.782140	-1.518217	-0.506177
C35	C	-0.813500	-1.437000	-0.587301
C36	C	-0.899118	-1.437307	-0.587643
C37	C	-0.930523	-1.518334	-0.506218
C38	C	-0.899337	-1.629098	-0.536003
C39	C	-0.813692	-1.628560	-0.536568
C40	C	-0.813785	-1.489665	-0.395073
C41	C	-0.899438	-1.487290	-0.395688
C42	C	-1.014382	-1.518407	-0.506239
C43	C	-0.698281	-1.518152	-0.506158
C44	C	-0.163545	-1.518381	-0.506231
C45	C	-0.081231	-1.518455	-0.506260
C46	C	-0.356635	-1.518271	-0.780197
C47	C	-0.356605	-1.518298	-0.896974
C48	C	-0.356717	-0.792241	-0.506183
C49	C	-0.356713	-0.909017	-0.506171
C50	C	-0.451282	-1.652666	-1.116379
C51	C	-0.498661	-1.719794	-1.061498
C52	C	-0.498689	-1.719759	-0.951776
C53	C	-0.451335	-1.652587	-0.896933
C54	C	-0.403956	-1.585460	-0.951814
C55	C	-0.403931	-1.585504	-1.061538
C56	C	-0.309226	-1.451171	-0.951855
C57	C	-0.309192	-1.451209	-1.061576
C58	C	-0.261871	-1.383999	-0.897012
C59	C	-0.214487	-1.316876	-0.951893
C60	C	-0.214460	-1.316914	-1.061621
C61	C	-0.261813	-1.384082	-1.116457
C62	C	-0.356725	-1.518204	-0.233196
C63	C	-0.356547	-1.518381	-0.116419
H64	H	-0.537584	-1.118254	-0.761947
C65	C	-0.451250	-1.652718	-1.237076
N66	N	-0.451228	-1.652758	-1.327986
H67	H	-0.537219	-1.774480	-1.106163
C68	C	-0.162278	-0.903551	-0.231214
N69	N	-0.122989	-0.858093	-0.175658
H70	H	-0.919550	-1.456296	-0.669970
H71	H	-0.537595	-0.919184	-0.761971
H72	H	-0.175879	-1.262248	-1.106299
C73	C	-0.451556	-0.788305	-0.640325
N74	N	-0.451553	-0.697395	-0.640350
H75	H	-0.261870	-0.819689	-0.372061
C76	C	-0.928227	-1.662357	-0.644526
N77	N	-0.949986	-1.687401	-0.726270
H78	H	-0.261793	-1.384124	-1.205799
C79	C	-0.162399	-1.243001	-0.891559
N80	N	-0.123162	-1.187362	-0.846111
H81	H	-0.261900	-1.383972	-0.807670
H82	H	-0.175811	-1.118294	-0.250357
H83	H	-0.261860	-1.217817	-0.372020
H84	H	-0.792256	-1.410240	-0.367898
H85	H	-0.451552	-1.217789	-0.640271
H86	H	-0.920208	-1.355183	-0.569026
C87	C	-0.785770	-1.325659	-0.562447
N88	N	-0.764876	-1.241795	-0.543728
C89	C	-0.786381	-1.569574	-0.313420
N90	N	-0.765734	-1.629763	-0.251927
C91	C	-0.926978	-1.377160	-0.365341
N92	N	-0.947722	-1.294207	-0.342489
H93	H	-0.791924	-1.455693	-0.669157
H94	H	-0.793656	-1.652727	-0.617776
C95	C	-0.785656	-1.713138	-0.460218
N96	N	-0.764543	-1.776852	-0.402723
C97	C	-0.926812	-1.713130	-0.458653
N98	N	-0.947508	-1.776422	-0.400393
H99	H	-0.920826	-1.542133	-0.332041
H100	H	-0.537266	-1.774425	-0.907092
H101	H	-0.451368	-1.652556	-0.807592
