data_functionalizedCrystal
_audit_creation_method	'MofGen! by Chris Wilmer'
_symmetry_space_group_name_H-M	'P1'
_symmetry_Int_Tables_number	1
_symmetry_cell_setting	triclinic
loop_
_symmetry_equiv_pos_as_xyz
  x,y,z
_cell_length_a	17.019372
_cell_length_b	16.098538
_cell_length_c	11.792254
_cell_angle_alpha	87.258456
_cell_angle_beta	83.794324
_cell_angle_gamma	88.864305
loop_
_atom_site_label
_atom_site_type_symbol
_atom_site_fract_x
_atom_site_fract_y
_atom_site_fract_z
O1	O	1.046997	-0.005767	0.144977
O2	O	0.818245	0.010627	0.162222
O3	O	0.938166	0.002027	-0.011599
O4	O	0.927075	0.002833	0.318798
O5	O	0.931161	-0.135984	-0.001485
O6	O	0.811239	-0.127384	0.172336
O7	O	1.039991	-0.143777	0.155091
Zn8	Zn	0.924503	-0.157493	0.165319
Zn9	Zn	0.933733	0.024342	0.151994
O10	O	0.920070	-0.135177	0.328912
C11	C	0.785457	-0.056280	0.166427
C12	C	0.698196	-0.050027	0.163875
C13	C	0.204861	-0.010830	0.149123
C14	C	0.286852	-0.016717	0.151522
C15	C	0.324020	-0.094891	0.158243
C16	C	0.279194	-0.167182	0.162554
C17	C	0.197205	-0.161295	0.160147
C18	C	0.571381	-0.116431	0.165779
C19	C	0.653375	-0.122313	0.168189
C20	C	0.661028	0.028153	0.157155
C21	C	0.579037	0.034034	0.154755
C22	C	0.534219	-0.038258	0.159060
C23	C	0.407827	-0.100910	0.160698
C24	C	0.450414	-0.032238	0.156596
N25	N	0.918210	-0.281591	0.174413
C26	C	0.969128	-0.328827	0.100662
C27	C	0.964733	-0.415701	0.107034
C28	C	0.909422	-0.455337	0.187163
C29	C	0.858499	-0.408094	0.260917
C30	C	0.862891	-0.321221	0.254538
C31	C	0.893501	-0.717445	0.210266
C32	C	0.889114	-0.804324	0.216641
C33	C	0.995348	-0.811925	0.062757
C34	C	0.999738	-0.725051	0.056390
C35	C	0.948812	-0.677815	0.130140
C36	C	0.904930	-0.544136	0.193681
C37	C	0.953301	-0.589018	0.123616
C38	C	1.072779	-0.076869	0.150886
C39	C	1.160041	-0.083116	0.153437
C40	C	0.933965	-0.066928	-0.048829
C41	C	0.931874	-0.066778	-0.174831
N42	N	0.940033	0.148440	0.142891
C43	C	0.930175	-0.066653	-0.277159
C44	C	0.928050	-0.066493	-0.405535
C45	C	0.924271	-0.066220	0.366142
C46	C	0.926363	-0.066366	0.492143
H47	H	0.534901	-0.175296	0.169268
N48	N	0.829446	-0.847073	0.303059
H49	H	0.834395	-0.909274	0.295908
H50	H	0.839627	-0.832552	0.382505
H51	H	0.160712	-0.220158	0.163671
N52	N	0.319278	-0.251500	0.169799
H53	H	0.378018	-0.244262	0.170675
H54	H	0.297199	-0.282880	0.242081
H55	H	0.821426	-0.282762	0.314592
N56	N	1.019680	-0.466640	0.027515
H57	H	1.011076	-0.450863	-0.054199
H58	H	1.076244	-0.455465	0.039866
N59	N	0.798843	-0.450835	0.347350
H60	H	0.743771	-0.431732	0.332921
H61	H	0.803856	-0.513027	0.340165
H62	H	1.044776	-0.692781	-0.008857
H63	H	0.438098	-0.164559	0.166173
H64	H	0.697528	0.087008	0.153649
H65	H	0.174605	0.052827	0.143658
H66	H	0.420148	0.031410	0.151120
N67	N	0.538951	0.118349	0.147495
H68	H	0.579787	0.163251	0.145120
H69	H	0.511176	0.123621	0.075960
H70	H	0.323342	0.042146	0.148002
H71	H	1.014171	-0.296562	0.035418
H72	H	1.036809	-0.850392	0.002712
H73	H	0.998332	-0.556743	0.058370
H74	H	0.852036	-0.678993	0.270318
N75	N	0.693466	-0.206632	0.175440
H76	H	0.652634	-0.251536	0.177800
H77	H	0.733393	-0.212787	0.106390
H78	H	0.859897	-0.576414	0.258925
