data_functionalizedCrystal
_audit_creation_method	'MofGen! by Chris Wilmer'
_symmetry_space_group_name_H-M	'P1'
_symmetry_Int_Tables_number	1
_symmetry_cell_setting	triclinic
loop_
_symmetry_equiv_pos_as_xyz
  x,y,z
_cell_length_a	21.295418
_cell_length_b	25.639240
_cell_length_c	21.295411
_cell_angle_alpha	90.026709
_cell_angle_beta	90.043738
_cell_angle_gamma	90.048568
loop_
_atom_site_label
_atom_site_type_symbol
_atom_site_fract_x
_atom_site_fract_y
_atom_site_fract_z
Zn1	Zn	0.962346	-0.207990	0.356211
Zn2	Zn	1.462346	0.292010	0.856211
Zn3	Zn	0.962244	-0.295410	0.250928
Zn4	Zn	1.462244	0.204590	0.750928
Zn5	Zn	0.857069	-0.208014	0.250921
Zn6	Zn	1.357069	0.291986	0.750921
Zn7	Zn	0.857034	-0.295420	0.356124
Zn8	Zn	1.357034	0.204580	0.856124
O9	O	0.909673	-0.251708	0.303546
O10	O	1.409673	0.248292	0.803546
O11	O	1.050422	-0.219572	0.342285
O12	O	1.550422	0.280428	0.842285
O13	O	0.948264	-0.283822	0.162837
O14	O	1.448264	0.216178	0.662837
O15	O	0.871091	-0.134846	0.264922
O16	O	1.371091	0.365154	0.764922
O17	O	1.050347	-0.283799	0.264933
O18	O	1.550347	0.216201	0.764933
O19	O	0.948438	-0.134828	0.342278
O20	O	1.448438	0.365172	0.842278
O21	O	0.870993	-0.219613	0.162833
O22	O	1.370993	0.280387	0.662833
O23	O	0.768975	-0.219623	0.264837
O24	O	1.268975	0.280377	0.764837
O25	O	0.871032	-0.283816	0.444225
O26	O	1.371032	0.216184	0.944225
O27	O	0.768950	-0.283840	0.342129
O28	O	1.268950	0.216160	0.842129
O29	O	0.948404	-0.219582	0.444289
O30	O	1.448404	0.280418	0.944289
O31	O	0.948231	-0.368576	0.264848
O32	O	1.448231	0.131424	0.764848
O33	O	0.870934	-0.368584	0.342136
O34	O	1.370934	0.131416	0.842136
C35	C	0.746122	-0.251736	0.303474
C36	C	1.246122	0.248264	0.803474
C37	C	0.676154	-0.251760	0.303458
C38	C	1.176154	0.248240	0.803458
C39	C	0.909584	-0.387551	0.303497
C40	C	1.409584	0.112449	0.803497
C41	C	0.909604	-0.445665	0.303497
C42	C	1.409604	0.054335	0.803497
C43	C	0.643290	-0.285242	0.343643
C44	C	1.143290	0.214758	0.843643
C45	C	0.577548	-0.285229	0.343672
C46	C	1.077548	0.214771	0.843672
C47	C	0.544671	-0.251740	0.303503
C48	C	1.044671	0.248260	0.803503
C49	C	0.577543	-0.218252	0.263314
C50	C	1.077543	0.281748	0.763314
C51	C	0.643284	-0.218262	0.263292
C52	C	1.143284	0.281738	0.763292
N53	N	0.441395	-0.247648	0.248446
N54	N	0.941395	0.252352	0.748446
N55	N	0.378944	-0.247641	0.248469
N56	N	0.878944	0.252359	0.748469
C57	C	0.346596	-0.251707	0.303570
C58	C	0.846596	0.248293	0.803570
N59	N	0.379060	-0.255789	0.358647
N60	N	0.879060	0.244211	0.858647
N61	N	0.441517	-0.255798	0.358623
N62	N	0.941517	0.244202	0.858623
C63	C	0.473386	-0.251725	0.303523
C64	C	0.973386	0.248275	0.803523
C65	C	0.242448	-0.285176	0.343789
C66	C	0.742448	0.214824	0.843789
C67	C	0.176704	-0.285160	0.343819
C68	C	0.676704	0.214840	0.843819
C69	C	0.176700	-0.218185	0.263456
C70	C	0.676700	0.281815	0.763456
C71	C	0.242442	-0.218199	0.263432
C72	C	0.742442	0.281801	0.763432
C73	C	0.275312	-0.251697	0.303598
C74	C	0.775312	0.248303	0.803598
C75	C	0.949968	-0.805980	0.343898
C76	C	1.449968	-0.305980	0.843898
C77	C	0.949986	-0.860584	0.343911
C78	C	1.449986	-0.360584	0.843911
O79	O	0.984199	-0.888781	0.378211
O80	O	1.484199	-0.388781	0.878211
N81	N	0.909761	-0.887947	0.303607
N82	N	1.409761	-0.387947	0.803607
C83	C	0.869510	-0.860703	0.263292
C84	C	1.369510	-0.360703	0.763292
O85	O	0.835296	-0.888991	0.229012
O86	O	1.335296	-0.388991	0.729012
C87	C	0.869488	-0.806100	0.263283
C88	C	1.369488	-0.306100	0.763283
C89	C	0.909721	-0.778740	0.303585
C90	C	1.409721	-0.278740	0.803585
C91	C	0.990197	-0.778620	0.384197
C92	C	1.490197	-0.278620	0.884197
C93	C	0.990179	-0.724019	0.384184
C94	C	1.490179	-0.224019	0.884184
C95	C	0.949932	-0.696779	0.343871
C96	C	1.449932	-0.196779	0.843871
C97	C	0.909703	-0.724139	0.303571
C98	C	1.409703	-0.224139	0.803571
C99	C	0.829234	-0.778857	0.222972
C100	C	1.329234	-0.278857	0.722972
C101	C	0.829216	-0.724250	0.222966
C102	C	1.329216	-0.224250	0.722966
C103	C	0.869449	-0.696890	0.263268
C104	C	1.369449	-0.196890	0.763268
C105	C	0.869438	-0.642298	0.263244
C106	C	1.369438	-0.142298	0.763244
N107	N	0.909664	-0.614935	0.303548
N108	N	1.409664	-0.114935	0.803548
C109	C	0.949911	-0.642176	0.343861
C110	C	1.449911	-0.142176	0.843861
C111	C	0.869557	-0.975374	0.263315
C112	C	1.369557	-0.475374	0.763315
C113	C	0.869581	-1.029976	0.263321
C114	C	1.369581	-0.529976	0.763321
C115	C	0.950057	-1.029854	0.343941
C116	C	1.450057	-0.529854	0.843941
C117	C	0.950035	-0.975250	0.343931
C118	C	1.450035	-0.475250	0.843931
C119	C	0.909782	-0.948011	0.303619
C120	C	1.409782	-0.448011	0.803619
C121	C	0.949870	-0.527511	0.343829
C122	C	1.449870	-0.027511	0.843829
C123	C	0.949851	-0.472905	0.343810
C124	C	1.449851	0.027095	0.843810
C125	C	0.869373	-0.473033	0.263193
C126	C	1.369373	0.026967	0.763193
C127	C	0.869394	-0.527633	0.263209
C128	C	1.369394	-0.027633	0.763209
C129	C	0.909645	-0.554871	0.303532
C130	C	1.409645	-0.054871	0.803532
O131	O	0.835241	-0.614068	0.228964
O132	O	1.335241	-0.114068	0.728964
O133	O	0.984113	-0.613881	0.378142
O134	O	1.484113	-0.113881	0.878142
C135	C	1.073864	-0.251681	0.303619
C136	C	1.573864	0.248319	0.803619
C137	C	1.143832	-0.251670	0.303650
C138	C	1.643832	0.248330	0.803650
C139	C	0.909726	-0.251697	0.467736
C140	C	1.409726	0.248303	0.967736
C141	C	0.909748	-0.251693	0.537705
C142	C	1.409748	0.248307	1.037705
C143	C	0.909780	-0.115335	0.303609
C144	C	1.409780	0.384665	0.803609
C145	C	0.909825	-0.057221	0.303636
C146	C	1.409825	0.442779	0.803636
C147	C	0.909658	-0.251682	0.139995
C148	C	1.409658	0.248318	0.639995
C149	C	0.909757	-0.251539	0.070027
C150	C	1.409757	0.248461	0.570027
C151	C	0.950034	-0.218244	0.570606
C152	C	1.450034	0.281756	1.070606
C153	C	0.950033	-0.218221	0.636348
C154	C	1.450033	0.281779	1.136348
C155	C	0.909753	-0.251657	0.669187
C156	C	1.409753	0.248343	1.169187
C157	C	0.869459	-0.285108	0.636278
C158	C	1.369459	0.214892	1.136278
C159	C	0.869457	-0.285126	0.570537
C160	C	1.369457	0.214874	1.070537
N161	N	0.904894	-0.297396	0.772396
N162	N	1.404894	0.202604	1.272396
N163	N	0.904900	-0.297377	0.834848
N164	N	1.404900	0.202623	1.334848
C165	C	0.909757	-0.251604	0.867262
C166	C	1.409757	0.248396	1.367262
N167	N	0.914620	-0.205848	0.834866
N168	N	1.414620	0.294152	1.334866
N169	N	0.914617	-0.205867	0.772408
N170	N	1.414617	0.294133	1.272408
C171	C	0.909751	-0.251641	0.740473
C172	C	1.409751	0.248359	1.240473
C173	C	0.950044	-0.218128	0.971449
C174	C	1.450044	0.281872	1.471449
C175	C	0.950039	-0.218104	1.037192
C176	C	1.450039	0.281896	1.537192
C177	C	0.869468	-0.284995	1.037121
C178	C	1.369468	0.215005	1.537121
C179	C	0.869470	-0.285014	0.971379
C180	C	1.369470	0.214986	1.471379
C181	C	0.909761	-0.251581	0.938546
C182	C	1.409761	0.248419	1.438546
H183	H	0.550785	-0.312494	0.376398
H184	H	1.050785	0.187506	0.876398
O185	O	0.545583	-0.185797	0.224223
O186	O	1.045583	0.314203	0.724223
C187	C	0.471252	-0.178651	0.139295
C188	C	0.971252	0.321349	0.639295
C189	C	0.507416	-0.215468	0.183517
C190	C	1.007416	0.284532	0.683517
H191	H	0.440375	-0.202625	0.106382
H192	H	0.940375	0.297375	0.606382
H193	H	0.506010	-0.154732	0.110522
H194	H	1.006010	0.345268	0.610522
H195	H	0.440564	-0.151332	0.168279
H196	H	0.940564	0.348668	0.668279
H197	H	0.538104	-0.242819	0.154581
H198	H	1.038104	0.257181	0.654581
H199	H	0.472624	-0.239351	0.212293
H200	H	0.972624	0.260649	0.712293
O201	O	0.830228	-0.554192	0.224125
O202	O	1.330228	-0.054192	0.724125
C203	C	0.723171	-0.570989	0.193414
C204	C	1.223171	-0.070989	0.693414
C205	C	0.767460	-0.540892	0.237720
C206	C	1.267460	-0.040892	0.737720
H207	H	0.672415	-0.560239	0.204382
H208	H	1.172415	-0.060239	0.704382
H209	H	0.730040	-0.614701	0.200354
H210	H	1.230040	-0.114701	0.700354
H211	H	0.734280	-0.560281	0.142670
H212	H	1.234280	-0.060281	0.642670
H213	H	0.756379	-0.551557	0.288482
H214	H	1.256379	-0.051557	0.788482
H215	H	0.760584	-0.497188	0.230726
H216	H	1.260584	0.002812	0.730726
H217	H	0.836606	-0.450845	0.230368
H218	H	1.336606	0.049155	0.730368
O219	O	0.675113	-0.185722	0.224191
O220	O	1.175113	0.314278	0.724191
C221	C	0.668172	-0.119270	0.144512
C222	C	1.168172	0.380730	0.644512
C223	C	0.632046	-0.156101	0.188753
C224	C	1.132046	0.343899	0.688753
H225	H	0.633368	-0.095304	0.115859
H226	H	1.133368	0.404696	0.615859
H227	H	0.698863	-0.143216	0.111487
H228	H	1.198863	0.356784	0.611487
H229	H	0.699037	-0.091995	0.173475
H230	H	1.199037	0.408005	0.673475
H231	H	0.601147	-0.183383	0.159841
H232	H	1.101147	0.316617	0.659841
H233	H	0.601394	-0.132123	0.221780
H234	H	1.101394	0.367877	0.721780
H235	H	0.836665	-0.312213	1.063858
H236	H	1.336665	0.187787	1.563858
O237	O	0.274409	-0.317767	0.382720
O238	O	0.774409	0.182233	0.882720
C239	C	0.348578	-0.388361	0.391002
C240	C	0.848578	0.111639	0.891002
C241	C	0.312413	-0.351494	0.346841
C242	C	0.812413	0.148506	0.846841
H243	H	0.379323	-0.415631	0.362013
H244	H	0.879323	0.084369	0.862013
H245	H	0.313820	-0.412324	0.419723
H246	H	0.813820	0.087676	0.919723
H247	H	0.379397	-0.364390	0.423973
H248	H	0.879397	0.135610	0.923973
H249	H	0.281593	-0.375423	0.313832
H250	H	0.781593	0.124577	0.813832
H251	H	0.347204	-0.327529	0.318165
H252	H	0.847204	0.172471	0.818165
O253	O	0.988937	-0.553909	0.383086
O254	O	1.488937	-0.053909	0.883086
C255	C	1.019420	-0.570543	0.490210
C256	C	1.519420	-0.070543	0.990210
C257	C	0.975148	-0.540604	0.445826
C258	C	1.475148	-0.040604	0.945826
H259	H	1.008279	-0.559805	0.540946
H260	H	1.508279	-0.059805	1.040946
H261	H	1.070190	-0.559754	0.479269
H262	H	1.570190	-0.059754	0.979269
H263	H	1.012537	-0.614267	0.483270
H264	H	1.512537	-0.114267	0.983270
H265	H	0.981975	-0.496873	0.452741
H266	H	1.481975	0.003127	0.952741
H267	H	0.924394	-0.551437	0.456778
H268	H	1.424394	-0.051437	0.956778
H269	H	0.982615	-0.450630	0.376629
H270	H	1.482615	0.049370	0.876629
O271	O	0.790201	-0.697734	0.183773
O272	O	1.290201	-0.197734	0.683773
C273	C	0.781744	-0.636169	0.098729
C274	C	1.281744	-0.136169	0.598729
C275	C	0.825997	-0.666155	0.143085
C276	C	1.325997	-0.166155	0.643085
H277	H	0.810669	-0.610639	0.065813
H278	H	1.310669	-0.110639	0.565813
H279	H	0.748815	-0.610586	0.127548
H280	H	1.248815	-0.110586	0.627548
H281	H	0.752982	-0.665119	0.069959
H282	H	1.252982	-0.165119	0.569959
H283	H	0.854800	-0.637243	0.171864
H284	H	1.354800	-0.137243	0.671864
H285	H	0.858885	-0.691746	0.114231
H286	H	1.358885	-0.191746	0.614231
H287	H	0.836779	-0.953198	0.230483
H288	H	1.336779	-0.453198	0.730483
H289	H	0.836669	-0.312254	0.944590
H290	H	1.336669	0.187746	1.444590
H291	H	0.982841	-0.191020	0.543878
H292	H	1.482841	0.308980	1.043878
H293	H	0.982837	-0.190981	0.663142
H294	H	1.482837	0.309019	1.163142
O295	O	0.675121	-0.317795	0.382722
O296	O	1.175121	0.182205	0.882722
C297	C	0.668184	-0.384247	0.462402
C298	C	1.168184	0.115753	0.962402
C299	C	0.632056	-0.347400	0.418187
C300	C	1.132056	0.152600	0.918187
H301	H	0.633381	-0.408201	0.491078
H302	H	1.133381	0.091799	0.991078
H303	H	0.699010	-0.360314	0.495407
H304	H	1.199010	0.139686	0.995407
H305	H	0.698915	-0.411532	0.433417
H306	H	1.198915	0.088468	0.933417
H307	H	0.601291	-0.320108	0.447122
H308	H	1.101291	0.179892	0.947122
H309	H	0.601269	-0.371366	0.385181
H310	H	1.101269	0.128634	0.885181
O311	O	0.144875	-0.317736	0.382877
O312	O	0.644875	0.182264	0.882877
C313	C	0.151820	-0.384154	0.462596
C314	C	0.651820	0.115846	0.962596
C315	C	0.187944	-0.347295	0.418386
C316	C	0.687944	0.152705	0.918386
H317	H	0.186626	-0.408054	0.491327
H318	H	0.686626	0.091946	0.991327
H319	H	0.120991	-0.411483	0.433669
H320	H	0.620991	0.088517	0.933669
H321	H	0.121092	-0.360179	0.495556
H322	H	0.621092	0.139821	0.995556
H323	H	0.218706	-0.371227	0.385418
H324	H	0.718706	0.128773	0.885418
H325	H	0.218733	-0.319964	0.447353
H326	H	0.718733	0.180036	0.947353
H327	H	0.149933	-0.190915	0.230753
H328	H	0.649933	0.309085	0.730753
O329	O	0.274341	-0.185734	0.224299
O330	O	0.774341	0.314266	0.724299
C331	C	0.294338	-0.160205	0.117276
C332	C	0.794338	0.339795	0.617276
C333	C	0.258187	-0.197016	0.161521
C334	C	0.758187	0.302984	0.661521
H335	H	0.281281	-0.169306	0.066511
H336	H	0.781281	0.330694	0.566511
H337	H	0.346980	-0.165966	0.124103
H338	H	0.846980	0.334034	0.624103
H339	H	0.281484	-0.118061	0.128465
H340	H	0.781484	0.381939	0.628465
H341	H	0.270988	-0.239174	0.150359
H342	H	0.770988	0.260826	0.650359
H343	H	0.205554	-0.191210	0.154685
H344	H	0.705554	0.308790	0.654685
H345	H	1.022938	-0.701746	0.417003
H346	H	1.522938	-0.201746	0.917003
O347	O	0.989143	-0.185536	1.069083
O348	O	1.489143	0.314464	1.569083
C349	C	1.019753	-0.096587	1.089252
C350	C	1.519753	0.403413	1.589252
C351	C	0.975437	-0.133413	1.053088
C352	C	1.475437	0.366587	1.553088
H353	H	1.008679	-0.054438	1.076344
H354	H	1.508679	0.445562	1.576344
H355	H	1.070514	-0.105725	1.076351
H356	H	1.570514	0.394275	1.576351
H357	H	1.012846	-0.102338	1.141877
H358	H	1.512846	0.397662	1.641877
H359	H	0.982288	-0.127683	1.000454
H360	H	1.482288	0.372317	1.500454
H361	H	0.924693	-0.124266	1.066041
H362	H	1.424693	0.375734	1.566041
H363	H	0.982796	-0.952977	0.376749
H364	H	1.482796	-0.452977	0.876749
O365	O	1.029357	-0.804995	0.423380
O366	O	1.529357	-0.304995	0.923380
C367	C	1.109156	-0.799093	0.503359
C368	C	1.609156	-0.299093	1.003359
C369	C	1.064842	-0.769163	0.459009
C370	C	1.564842	-0.269163	0.959009
H371	H	1.137848	-0.770135	0.532186
H372	H	1.637848	-0.270135	1.032186
H373	H	1.142141	-0.824622	0.474535
H374	H	1.642141	-0.324622	0.974535
H375	H	1.080248	-0.824684	0.536222
H376	H	1.580248	-0.324684	1.036222
H377	H	1.093699	-0.743544	0.426137
H378	H	1.593699	-0.243544	0.926137
H379	H	1.031855	-0.743667	0.487872
H380	H	1.531855	-0.243667	0.987872
H381	H	0.836648	-0.312363	0.543749
H382	H	1.336648	0.187637	1.043749
O383	O	0.989091	-1.056401	0.383086
O384	O	1.489091	-0.556401	0.883086
C385	C	1.024800	-1.140473	0.418801
C386	C	1.524800	-0.640473	0.918801
C387	C	0.980555	-1.110472	0.374452
C388	C	1.480555	-0.610472	0.874452
H389	H	1.017924	-1.184195	0.411826
H390	H	1.517924	-0.684195	0.911826
H391	H	1.013713	-1.129762	0.469558
H392	H	1.513713	-0.629762	0.969558
H393	H	1.075556	-1.129668	0.407820
H394	H	1.575556	-0.629668	0.907820
H395	H	0.929785	-1.121261	0.385376
H396	H	1.429785	-0.621261	0.885376
H397	H	0.991696	-1.121186	0.323708
H398	H	1.491696	-0.621186	0.823708
O399	O	0.830423	-0.317644	0.668202
O400	O	1.330423	0.182356	1.168202
C401	C	0.821903	-0.388197	0.742434
C402	C	1.321903	0.111803	1.242434
C403	C	0.866187	-0.351391	0.706309
C404	C	1.366187	0.148609	1.206309
H405	H	0.850799	-0.415483	0.773262
H406	H	1.350799	0.084517	1.273262
H407	H	0.793119	-0.412146	0.707650
H408	H	1.293119	0.087854	1.207650
H409	H	0.788996	-0.364179	0.773167
H410	H	1.288996	0.135821	1.273167
H411	H	0.899132	-0.375368	0.675576
H412	H	1.399132	0.124632	1.175576
H413	H	0.894926	-0.327439	0.741127
H414	H	1.394926	0.172561	1.241127
O415	O	0.830560	-1.056631	0.224189
O416	O	1.330560	-0.556631	0.724189
C417	C	0.794879	-1.140798	0.188504
C418	C	1.294879	-0.640798	0.688504
C419	C	0.839118	-1.110679	0.232838
C420	C	1.339118	-0.610679	0.732838
H421	H	0.801773	-1.184501	0.195491
H422	H	1.301773	-0.684501	0.695491
H423	H	0.805953	-1.130118	0.137743
H424	H	1.305953	-0.630118	0.637743
H425	H	0.744120	-1.130067	0.199489
H426	H	1.244120	-0.630067	0.699489
H427	H	0.889891	-1.121394	0.221909
H428	H	1.389891	-0.621394	0.721909
H429	H	0.827989	-1.121362	0.283586
H430	H	1.327989	-0.621362	0.783586
H431	H	0.796473	-0.801124	0.190153
H432	H	1.296473	-0.301124	0.690153
H433	H	0.982848	-0.190902	0.944715
H434	H	1.482848	0.309098	1.444715
