data_functionalizedCrystal
_audit_creation_method	'MofGen! by Chris Wilmer'
_symmetry_space_group_name_H-M	'P1'
_symmetry_Int_Tables_number	1
_symmetry_cell_setting	triclinic
loop_
_symmetry_equiv_pos_as_xyz
  x,y,z
_cell_length_a	19.288864
_cell_length_b	8.634740
_cell_length_c	17.766277
_cell_angle_alpha	89.996710
_cell_angle_beta	89.976791
_cell_angle_gamma	91.853277
loop_
_atom_site_label
_atom_site_type_symbol
_atom_site_fract_x
_atom_site_fract_y
_atom_site_fract_z
O1	O	0.934492	0.192275	-0.062836
O2	O	0.734004	0.218213	-0.062785
O3	O	0.824757	-0.019166	-0.062806
O4	O	0.843738	0.429654	-0.062815
O5	O	0.824738	-0.019178	0.062382
O6	O	0.733984	0.218201	0.062404
O7	O	0.934472	0.192263	0.062352
Cu8	Cu	0.834227	0.205231	0.073809
Cu9	Cu	0.834250	0.205245	-0.074241
O10	O	0.843719	0.429642	0.062374
C11	C	0.708060	0.217372	-0.000184
C12	C	0.630786	0.214867	-0.000164
C13	C	0.820448	-0.076592	-0.000212
C14	C	0.807627	-0.247687	-0.000212
C15	C	0.595607	0.354150	-0.000179
C16	C	0.522999	0.351796	-0.000187
C17	C	0.485573	0.210151	-0.000196
C18	C	0.520760	0.070850	-0.000177
C19	C	0.593366	0.073208	-0.000161
C20	C	0.369709	0.098807	-0.044078
C21	C	0.297103	0.096455	-0.044099
C22	C	0.261630	0.202874	-0.000241
C23	C	0.298770	0.311670	0.043627
C24	C	0.371377	0.314028	0.043643
C25	C	0.406843	0.207579	-0.000213
C26	C	0.147721	0.339615	-0.000264
C27	C	0.075112	0.337255	-0.000267
C28	C	0.072874	0.056305	-0.000265
C29	C	0.145482	0.058668	-0.000254
C30	C	0.182901	0.200327	-0.000257
C31	C	0.960416	0.193104	-0.000250
C32	C	1.037690	0.195609	-0.000275
C33	C	0.848028	0.487068	-0.000222
C34	C	0.860849	0.658162	-0.000227
N35	N	0.834215	0.205220	0.177939
N36	N	0.834266	0.205244	-0.178372
C37	C	0.874420	0.100160	0.217316
C38	C	0.874423	0.100153	0.296118
C39	C	0.834231	0.205232	0.335540
C40	C	0.794018	0.310300	0.296153
C41	C	0.794010	0.310294	0.217352
C42	C	0.834528	0.345669	0.460376
C43	C	0.834541	0.345677	0.539175
C44	C	0.834251	0.205251	0.578586
C45	C	0.833962	0.064810	0.539188
C46	C	0.833954	0.064804	0.460388
C47	C	0.834234	0.205250	0.420985
C48	C	0.874461	0.100174	0.703409
C49	C	0.874459	0.100165	0.782212
C50	C	0.794058	0.310326	0.782245
C51	C	0.794055	0.310322	0.703444
C52	C	0.834261	0.205247	0.664030
H53	H	0.626070	0.469500	-0.000182
H54	H	0.752250	-0.297979	-0.000203
O55	O	0.917771	-0.013184	0.174804
H56	H	0.945723	-0.086252	0.215430
H57	H	0.269889	0.398326	0.079340
H58	H	0.907164	0.014597	0.328185
H59	H	0.833724	-0.049538	0.571275
O60	O	0.917812	-0.013166	0.660890
H61	H	0.945760	-0.086245	0.701514
O62	O	0.833630	-0.086655	0.417891
H63	H	0.833423	-0.184309	0.458528
O64	O	0.934199	-0.275231	-0.000247
H65	H	0.961653	-0.315008	-0.051283
O66	O	0.183431	-0.091560	-0.000241
H67	H	0.168993	-0.159365	-0.051270
H68	H	0.494351	0.465221	-0.000197
O69	O	0.750712	0.423695	0.824741
H70	H	0.712626	0.359036	0.860673
H71	H	0.761270	0.395848	0.185291
O72	O	0.750673	0.423659	0.338661
H73	H	0.712594	0.358988	0.374596
O74	O	0.037164	0.487489	-0.000276
H75	H	0.051656	0.555294	-0.051305
H76	H	0.401614	0.402609	0.079364
O77	O	0.917833	-0.013139	0.824690
H78	H	0.945795	-0.086183	0.784042
H79	H	0.761320	0.395877	0.671380
O80	O	0.834867	0.497142	0.581668
H81	H	0.835058	0.594787	0.541026
H82	H	0.266869	0.007873	-0.079822
O83	O	0.834839	0.497128	0.417863
H84	H	0.882005	0.567378	0.432946
O85	O	0.188086	0.492397	-0.000250
H86	H	0.174711	0.559323	-0.051271
O87	O	0.032520	-0.096479	-0.000269
H88	H	-0.000582	-0.104283	-0.051303
O89	O	0.407972	-0.015977	-0.091382
H90	H	0.394204	-0.000501	-0.151508
O91	O	0.480399	-0.081929	-0.000183
H92	H	0.447299	-0.089734	-0.051218
O93	O	0.631316	-0.077024	-0.000149
H94	H	0.593096	-0.175919	-0.000159
