data_functionalizedCrystal
_audit_creation_method	'MofGen! by Chris Wilmer'
_symmetry_space_group_name_H-M	'P1'
_symmetry_Int_Tables_number	1
_symmetry_cell_setting	triclinic
loop_
_symmetry_equiv_pos_as_xyz
  x,y,z
_cell_length_a	19.805407
_cell_length_b	19.120900
_cell_length_c	19.805399
_cell_angle_alpha	87.530940
_cell_angle_beta	90.017803
_cell_angle_gamma	87.529387
loop_
_atom_site_label
_atom_site_type_symbol
_atom_site_fract_x
_atom_site_fract_y
_atom_site_fract_z
Zn1	Zn	1.023204	0.279696	0.371181
Zn2	Zn	1.018275	0.397155	0.253160
Zn3	Zn	0.910018	0.279710	0.258008
Zn4	Zn	0.905141	0.397112	0.366312
O5	O	0.964159	0.338418	0.312166
O6	O	1.117266	0.295289	0.355534
O7	O	1.003893	0.381599	0.159086
O8	O	0.929135	0.181418	0.277087
O9	O	1.113645	0.381586	0.268825
O10	O	1.012293	0.181408	0.360235
O11	O	0.924357	0.295313	0.162648
O12	O	0.814655	0.295271	0.272367
O13	O	0.920823	0.381513	0.461676
O14	O	0.811071	0.381526	0.351937
O15	O	1.007564	0.295248	0.465253
O16	O	0.999164	0.495439	0.264104
O17	O	0.916045	0.495408	0.347236
C18	C	0.788304	0.338396	0.312150
C19	C	0.713072	0.338404	0.312159
C20	C	0.679610	0.293549	0.357371
C21	C	0.608922	0.293552	0.357373
C22	C	0.571696	0.338415	0.312166
C23	C	0.605162	0.383272	0.266950
C24	C	0.675850	0.383264	0.266944
C25	C	0.320088	0.383304	0.266969
C26	C	0.249395	0.383310	0.266979
C27	C	0.253160	0.293592	0.357398
C28	C	0.323847	0.293584	0.357393
C29	C	0.357308	0.338438	0.312174
C30	C	0.433956	0.338433	0.312171
C31	C	0.495048	0.338425	0.312172
C32	C	0.956559	0.520909	0.304630
C33	C	0.953369	0.598979	0.301430
C34	C	0.933142	1.040533	0.281175
C35	C	0.936141	0.967178	0.284183
C36	C	0.980906	0.930435	0.329011
C37	C	1.022671	0.967052	0.370839
C38	C	1.019668	1.040406	0.367834
C39	C	0.992132	0.708950	0.340253
C40	C	0.995132	0.635591	0.343253
C41	C	0.908601	0.635722	0.256597
C42	C	0.905606	0.709077	0.253594
C43	C	0.947368	0.745687	0.295425
C44	C	0.983973	0.855454	0.332084
C45	C	0.944297	0.820667	0.292354
C46	C	1.140701	0.338441	0.312182
C47	C	1.215933	0.338450	0.312188
C48	C	0.964199	0.338374	0.488710
C49	C	0.964216	0.338355	0.563943
C50	C	0.971767	1.155215	0.319751
C51	C	0.974905	1.077145	0.322999
C52	C	0.964161	0.338412	0.136310
C53	C	0.964283	0.338233	0.061086
C54	C	1.009383	0.293435	0.601151
C55	C	1.009391	0.293414	0.671840
C56	C	0.964234	0.338318	0.705320
C57	C	0.919063	0.383241	0.668107
C58	C	0.919052	0.383257	0.597419
C59	C	0.919104	0.383175	0.953183
C60	C	0.919119	0.383157	1.023876
C61	C	1.009442	0.293333	1.027604
C62	C	1.009431	0.293349	0.956916
C63	C	0.964258	0.338268	0.919710
C64	C	0.964249	0.338289	0.843060
C65	C	0.964246	0.338302	0.781968
H66	H	0.574847	0.419797	0.230138
O67	O	1.032683	0.744424	0.380973
C68	C	1.064568	0.766777	0.495215
C69	C	1.018605	0.726547	0.449180
H70	H	1.053193	0.752350	0.550369
H71	H	1.119750	0.752296	0.484009
H72	H	1.054756	0.825515	0.485340
H73	H	1.028358	0.667801	0.459028
H74	H	0.963439	0.741087	0.460395
H75	H	0.703093	0.419790	0.230128
O76	O	0.576523	0.249958	0.401357
C77	C	0.587718	0.160937	0.491017
C78	C	0.624493	0.210288	0.441251
H79	H	0.626486	0.128840	0.523274
H80	H	0.553313	0.193202	0.525072
H81	H	0.556122	0.124199	0.461508
H82	H	0.656125	0.247036	0.470705
H83	H	0.658857	0.177980	0.407196
O84	O	0.889597	1.076113	0.237611
C85	C	0.804112	1.068491	0.151954
C86	C	0.853388	1.028113	0.201269
H87	H	0.774834	1.029701	0.122548
H88	H	0.767253	1.102820	0.181560
H89	H	0.833809	1.102854	0.115209
H90	H	0.823746	0.993712	0.238025
H91	H	0.890246	0.993829	0.171618
H92	H	0.907846	0.850586	0.255858
O93	O	0.359906	0.249938	0.401331
C94	C	0.356176	0.160972	0.491041
C95	C	0.315259	0.210357	0.441309
H96	H	0.320097	0.128969	0.523386
H97	H	0.390768	0.124154	0.461572
H98	H	0.387962	0.193275	0.525016
H99	H	0.283435	0.178111	0.407322
H100	H	0.280710	0.247178	0.470820
H101	H	0.902133	0.937369	0.250127
H102	H	1.020423	0.825533	0.368583
O103	O	0.220550	0.250036	0.401256
C104	C	0.113321	0.210309	0.441370
C105	C	0.150163	0.259655	0.391655
H106	H	0.056406	0.218079	0.433635
H107	H	0.129520	0.153640	0.431915
H108	H	0.126766	0.222713	0.495407
H109	H	0.136736	0.247314	0.337600
H110	H	0.133961	0.316310	0.401169
H111	H	0.882293	0.419800	0.695373
O112	O	0.213336	0.426911	0.222995
C113	C	0.217057	0.515925	0.133328
C114	C	0.257976	0.466573	0.183088
H115	H	0.253130	0.548015	0.101061
H116	H	0.185305	0.483662	0.099283
H117	H	0.182432	0.552669	0.162842
H118	H	0.292638	0.429819	0.153630
H119	H	0.289683	0.498880	0.217134
O120	O	1.053181	0.249712	0.568667
C121	C	1.091045	0.130244	0.552027
C122	C	1.041396	0.179683	0.588844
H123	H	1.081544	0.073616	0.568337
H124	H	1.083283	0.137908	0.495107
H125	H	1.145103	0.142617	0.565416
H126	H	0.987318	0.167341	0.575510
H127	H	1.049217	0.172010	0.645755
H128	H	1.046205	0.256786	0.929660
O129	O	0.352655	0.426915	0.223142
C130	C	0.428479	0.521762	0.209963
C131	C	0.391647	0.472401	0.259673
H132	H	0.460001	0.558559	0.239479
H133	H	0.462943	0.489507	0.175957
H134	H	0.389713	0.553795	0.177647
H135	H	0.430364	0.440357	0.292034
H136	H	0.357171	0.504696	0.293633
O137	O	0.862060	0.744658	0.210032
C138	C	0.776579	0.737043	0.124369
C139	C	0.825850	0.696661	0.173686
H140	H	0.747300	0.698256	0.094960
H141	H	0.739720	0.771373	0.153974
H142	H	0.806280	0.771405	0.087627
H143	H	0.796204	0.662261	0.210439
H144	H	0.862708	0.662376	0.144037
O145	O	1.053170	0.249698	0.708012
C146	C	1.066242	0.154860	0.791759
C147	C	1.016587	0.204323	0.750830
H148	H	1.036684	0.118172	0.826397
H149	H	1.098501	0.122722	0.755714
H150	H	1.100308	0.187109	0.823500
H151	H	0.982478	0.172128	0.719086
H152	H	0.984375	0.236463	0.786911
O153	O	0.868058	0.600049	0.216038
C154	C	0.834356	0.487101	0.182233
C155	C	0.880302	0.527412	0.228215
H156	H	0.844249	0.428367	0.192051
H157	H	0.779168	0.501506	0.193486
H158	H	0.845669	0.501596	0.127079
H159	H	0.869049	0.512939	0.283384
H160	H	0.935475	0.513003	0.216904
O161	O	1.053255	0.249712	1.063852
C162	C	1.093332	0.209898	1.174400
C163	C	1.043669	0.259318	1.133437
H164	H	1.085609	0.217657	1.230667
H165	H	1.083810	0.153248	1.162891
H166	H	1.147385	0.222237	1.159961
H167	H	0.989598	0.247041	1.147853
H168	H	1.053250	0.315953	1.144950
O169	O	1.038525	0.599817	0.386840
C170	C	1.050954	0.516945	0.481641
C171	C	1.001743	0.557405	0.432319
H172	H	1.021234	0.482656	0.518431
H173	H	1.087759	0.482551	0.452040
H174	H	1.080303	0.555720	0.510995
H175	H	0.972347	0.518680	0.402952
H176	H	0.964982	0.591809	0.461958
O177	O	1.066079	0.931392	0.414483
C178	C	1.099813	0.908871	0.530566
C179	C	1.050599	0.949285	0.481216
H180	H	1.087324	0.923333	0.584529
H181	H	1.094783	0.850145	0.525587
H182	H	1.153806	0.923251	0.518107
H183	H	0.996586	0.934964	0.493644
H184	H	1.055688	1.008001	0.486204
O185	O	0.875184	0.426799	1.056295
C186	C	0.785611	0.515920	1.045141
C187	C	0.835316	0.466523	1.008342
H188	H	0.753375	0.548061	1.006387
H189	H	0.751530	0.483689	1.079546
H190	H	0.815169	0.552615	1.076738
H191	H	0.805813	0.429819	0.976708
H192	H	0.869396	0.498798	0.973977
H193	H	0.882330	0.419762	0.922898
O194	O	0.875161	0.426968	0.561375
C195	C	0.785559	0.516050	0.565134
C196	C	0.835239	0.466592	0.606035
H197	H	0.753259	0.548089	0.601224
H198	H	0.815069	0.552832	0.530545
H199	H	0.751535	0.483803	0.533346
H200	H	0.869275	0.498783	0.637862
H201	H	0.805687	0.429808	0.640580
H202	H	0.709915	0.257018	0.394185
H203	H	1.053671	1.070214	0.401897
