data_functionalizedCrystal
_audit_creation_method	'MofGen! by Chris Wilmer'
_symmetry_space_group_name_H-M	'P1'
_symmetry_Int_Tables_number	1
_symmetry_cell_setting	triclinic
loop_
_symmetry_equiv_pos_as_xyz
  x,y,z
_cell_length_a	8.559649
_cell_length_b	8.559649
_cell_length_c	7.088667
_cell_angle_alpha	82.323931
_cell_angle_beta	82.349513
_cell_angle_gamma	69.778664
loop_
_atom_site_label
_atom_site_type_symbol
_atom_site_fract_x
_atom_site_fract_y
_atom_site_fract_z
O1	O	-2.139875	0.041949	0.158965
O2	O	-1.639875	0.541949	0.658965
O3	O	-1.664390	-0.041833	0.158972
O4	O	-1.164390	0.458167	0.658972
O5	O	-1.944023	0.237801	0.158966
O6	O	-1.444023	0.737801	0.658966
O7	O	-1.860242	-0.237685	0.158971
O8	O	-1.360242	0.262315	0.658971
O9	O	-1.918011	0.263983	-0.159024
O10	O	-1.418011	0.763983	0.340976
O11	O	-1.638379	-0.015650	-0.159017
O12	O	-1.138379	0.484350	0.340983
O13	O	-2.113863	0.068131	-0.159025
O14	O	-1.613863	0.568131	0.340975
Cu15	Cu	-1.873746	0.028631	-0.188056
Cu16	Cu	-1.373746	0.528631	0.311944
Cu17	Cu	-1.904508	-0.002333	0.188003
Cu18	Cu	-1.404508	0.497667	0.688003
O19	O	-1.834230	-0.211502	-0.159019
O20	O	-1.334230	0.288498	0.340981
C21	C	-1.591076	-0.035091	-0.000022
C22	C	-1.091076	0.464909	0.499978
C23	C	-1.411377	-0.053990	-0.000019
C24	C	-0.911377	0.446010	0.499981
C25	C	-1.937366	0.311200	-0.000026
C26	C	-1.437366	0.811200	0.499974
C27	C	-1.956266	0.490899	-0.000015
C28	C	-1.456266	0.990899	0.499985
C29	C	-1.840887	-0.284903	-0.000023
C30	C	-1.340887	0.215097	0.499977
C31	C	-1.821988	-0.464602	-0.000021
C32	C	-1.321988	0.035398	0.499979
C33	C	-2.187178	0.061389	-0.000027
C34	C	-1.687178	0.561389	0.499973
C35	C	-2.366878	0.080287	-0.000017
C36	C	-1.866878	0.580287	0.499983
N37	N	-1.926146	-0.024099	0.452503
N38	N	-1.426146	0.475901	0.952503
N39	N	-1.852121	0.050412	-0.452556
N40	N	-1.352121	0.550412	0.047444
H41	H	-1.311989	-0.183419	-0.000007
H42	H	-0.811989	0.316581	0.499993
H43	H	-1.775416	0.127598	0.465754
H44	H	-1.275416	0.627598	0.965754
H45	H	-1.466257	0.209706	-0.000009
H46	H	-0.966257	0.709706	0.499991
H47	H	-1.692568	0.436020	-0.000025
H48	H	-1.192568	0.936020	0.499975
H49	H	-2.085693	0.590289	-0.000033
H50	H	-1.585693	1.090289	0.499967
O51	O	-2.027759	-0.126357	0.560697
O52	O	-1.527759	0.373643	1.060697
H53	H	-2.025953	-0.124536	0.716653
H54	H	-1.525953	0.375464	1.216653
