data_functionalizedCrystal
_audit_creation_method	'MofGen! by Chris Wilmer'
_symmetry_space_group_name_H-M	'P1'
_symmetry_Int_Tables_number	1
_symmetry_cell_setting	triclinic
loop_
_symmetry_equiv_pos_as_xyz
  x,y,z
_cell_length_a	16.974800
_cell_length_b	17.038272
_cell_length_c	16.053789
_cell_angle_alpha	92.710835
_cell_angle_beta	89.238068
_cell_angle_gamma	87.242888
loop_
_atom_site_label
_atom_site_type_symbol
_atom_site_fract_x
_atom_site_fract_y
_atom_site_fract_z
O1	O	1.055759	0.099505	-0.001932
O2	O	0.827113	0.112863	0.013525
O3	O	0.940077	-0.007627	0.005882
O4	O	0.942795	0.219994	0.005711
O5	O	0.933743	-0.013485	-0.132550
O6	O	0.820779	0.107004	-0.124907
O7	O	1.049426	0.093647	-0.140364
Zn8	Zn	0.934097	0.099396	-0.154614
Zn9	Zn	0.942442	0.107114	0.027775
O10	O	0.936462	0.214136	-0.132720
C11	C	0.794546	0.109536	-0.053704
C12	C	0.706943	0.108344	-0.047782
C13	C	0.934438	-0.039675	-0.063167
C14	C	0.927063	-0.126440	-0.062668
C15	C	0.662338	0.104588	-0.120460
C16	C	0.580026	0.103455	-0.114898
C17	C	0.542320	0.106083	-0.036657
C18	C	0.586930	0.109836	0.036027
C19	C	0.669241	0.110964	0.030465
C20	C	0.296517	0.103047	-0.011928
C21	C	0.214200	0.101922	-0.006371
C22	C	0.207302	0.095539	-0.157298
C23	C	0.289615	0.096671	-0.162853
C24	C	0.334218	0.100421	-0.090169
N25	N	0.458184	0.104927	-0.030970
N26	N	0.418353	0.101571	-0.095857
C27	C	0.994774	-0.176807	-0.067246
C28	C	0.987840	-0.258331	-0.066770
C29	C	0.913194	-0.289488	-0.061721
C30	C	0.845479	-0.239114	-0.057140
C31	C	0.852413	-0.157591	-0.057610
C32	C	0.888695	-0.535154	-0.060053
C33	C	0.881765	-0.616683	-0.059585
C34	C	1.024127	-0.635895	-0.069214
C35	C	1.031055	-0.554370	-0.069689
C36	C	0.963340	-0.504003	-0.065104
C37	C	0.906105	-0.372818	-0.061236
C38	C	0.970430	-0.420674	-0.065582
C39	C	1.081992	0.096973	-0.073133
C40	C	1.169596	0.098166	-0.079050
C41	C	0.942100	0.246184	-0.063670
C42	C	0.949476	0.332950	-0.064163
N43	N	0.928407	0.094127	-0.279091
C44	C	0.977401	0.139530	-0.326090
C45	C	0.973431	0.135840	-0.413229
C46	C	0.920464	0.086750	-0.453367
C47	C	0.871468	0.041342	-0.406361
C48	C	0.875442	0.045029	-0.319224
C49	C	0.903115	0.070654	-0.713606
C50	C	0.899143	0.066973	-0.800749
C51	C	1.001108	0.161470	-0.807612
C52	C	1.005074	0.165156	-0.720472
C53	C	0.956081	0.119745	-0.673474
N54	N	0.916403	0.082979	-0.542436
N55	N	0.960146	0.123512	-0.584406
N56	N	0.948137	0.112376	0.152251
H57	H	0.693033	0.102454	-0.184173
H58	H	1.031207	-0.395302	-0.069675
H59	H	0.170978	0.092485	-0.216473
H60	H	0.183502	0.104064	0.057346
H61	H	1.079257	-0.676911	-0.072945
C62	C	0.813982	-0.011880	-0.450085
C63	C	0.820929	-0.005336	-0.536453
C64	C	0.767975	-0.054344	-0.576754
H65	H	0.825663	-0.064845	-0.436683
H66	H	0.761662	0.003416	-0.432246
H67	H	0.873237	-0.020636	-0.554285
H68	H	0.809241	0.047618	-0.549879
H69	H	0.715654	-0.039048	-0.558915
H70	H	0.779660	-0.107306	-0.563346
H71	H	0.772676	-0.049905	-0.635358
H72	H	0.332824	0.106098	0.047256
H73	H	0.320310	0.094528	-0.226566
C74	C	0.841732	0.013534	-0.844288
C75	C	0.859180	-0.064413	-0.824232
C76	C	0.806317	-0.113660	-0.864332
H77	H	0.789395	0.028737	-0.826467
H78	H	0.846385	0.017791	-0.902923
H79	H	0.854519	-0.068667	-0.765609
H80	H	0.911506	-0.079640	-0.842054
H81	H	0.810970	-0.109403	-0.922967
H82	H	0.753984	-0.098450	-0.846508
H83	H	0.818152	-0.166553	-0.850736
H84	H	0.556223	0.111971	0.099733
H85	H	0.797276	-0.116582	-0.053882
H86	H	1.040995	0.198441	-0.845887
C87	C	0.717530	0.115089	0.109471
C88	C	0.666892	0.117173	0.179183
C89	C	0.711346	0.120982	0.251979
H90	H	0.752750	0.070104	0.110355
H91	H	0.746808	0.161259	0.110685
H92	H	0.637628	0.071008	0.177969
H93	H	0.631672	0.162157	0.178327
H94	H	0.740624	0.167152	0.253194
H95	H	0.746564	0.075995	0.252855
H96	H	0.676994	0.122404	0.299288
C97	C	1.075892	-0.143134	-0.072688
C98	C	1.133706	-0.204696	-0.076570
C99	C	1.208443	-0.173709	-0.081568
H100	H	1.079464	-0.113789	-0.121339
H101	H	1.083805	-0.109708	-0.024779
H102	H	1.125796	-0.238109	-0.124474
H103	H	1.130160	-0.234047	-0.027924
H104	H	1.216356	-0.140283	-0.033659
H105	H	1.212007	-0.144364	-0.130219
H106	H	1.247679	-0.215473	-0.084195
C107	C	0.800648	-0.650357	-0.054046
C108	C	0.742830	-0.588799	-0.050105
C109	C	0.668102	-0.619790	-0.044989
H110	H	0.792659	-0.683793	-0.101914
H111	H	0.797163	-0.679692	-0.005366
H112	H	0.746313	-0.559478	-0.098779
H113	H	0.750794	-0.555358	-0.002238
H114	H	0.664617	-0.649125	0.003690
H115	H	0.660121	-0.653226	-0.092860
H116	H	0.628864	-0.578028	-0.042307
C117	C	0.822379	-0.004367	-0.268156
C118	C	0.868905	-0.055362	-0.221136
C119	C	0.820052	-0.100887	-0.174092
H120	H	0.789788	0.029138	-0.231790
H121	H	0.790277	-0.034176	-0.304513
H122	H	0.900993	-0.025555	-0.184782
H123	H	0.901495	-0.088883	-0.257481
H124	H	0.787950	-0.130697	-0.210448
H125	H	0.787463	-0.067376	-0.137730
H126	H	0.851612	-0.135498	-0.142189
H127	H	0.833556	-0.494154	-0.056319
H128	H	0.543714	0.100383	-0.174081
H129	H	1.042978	-0.299338	-0.070500
C130	C	0.764501	-0.273091	-0.051705
C131	C	0.772917	-0.355268	-0.052297
C132	C	0.698336	-0.386592	-0.047306
H133	H	0.738532	-0.253826	-0.001539
H134	H	0.734172	-0.257872	-0.098098
H135	H	0.803234	-0.370480	-0.005909
H136	H	0.798872	-0.374555	-0.102459
H137	H	0.668006	-0.371373	-0.093699
H138	H	0.672373	-0.367321	0.002860
H139	H	0.704035	-0.442352	-0.047715
H140	H	1.091839	-0.529009	-0.073801
H141	H	0.845328	-0.398195	-0.057127
C142	C	1.034989	0.192848	-0.282673
C143	C	1.077060	0.231804	-0.342490
C144	C	1.130128	0.280918	-0.302528
H145	H	1.006741	0.230436	-0.246666
H146	H	1.070710	0.162146	-0.251005
H147	H	1.041345	0.262504	-0.374143
H148	H	1.105325	0.194236	-0.378500
H149	H	1.165848	0.250215	-0.270861
H150	H	1.101873	0.318500	-0.266522
H151	H	1.158684	0.307349	-0.343108
H152	H	1.013328	0.172811	-0.451493
H153	H	1.048208	0.205128	-0.687799
H154	H	0.863222	0.033677	-0.675350
