data_functionalizedCrystal
_audit_creation_method	'MofGen! by Chris Wilmer'
_symmetry_space_group_name_H-M	'P1'
_symmetry_Int_Tables_number	1
_symmetry_cell_setting	triclinic
loop_
_symmetry_equiv_pos_as_xyz
  x,y,z
_cell_length_a	15.297475
_cell_length_b	15.297327
_cell_length_c	15.296720
_cell_angle_alpha	107.319222
_cell_angle_beta	91.617114
_cell_angle_gamma	91.625546
loop_
_atom_site_label
_atom_site_type_symbol
_atom_site_fract_x
_atom_site_fract_y
_atom_site_fract_z
Zn1	Zn	1.116342	-0.695081	-0.823122
Zn2	Zn	1.116246	-0.823682	-0.694497
Zn3	Zn	1.005113	-0.644908	-0.644396
Zn4	Zn	0.946204	-0.814903	-0.814406
O5	O	1.045976	-0.744644	-0.744105
O6	O	1.234042	-0.736812	-0.830675
O7	O	1.126118	-0.782644	-0.562870
O8	O	1.044561	-0.526600	-0.650785
O9	O	1.233972	-0.831295	-0.736174
O10	O	1.126281	-0.563461	-0.782095
O11	O	1.044469	-0.651299	-0.526062
O12	O	0.879585	-0.642787	-0.642333
O13	O	0.944159	-0.816332	-0.940543
O14	O	0.836305	-0.767682	-0.767239
O15	O	1.069159	-0.728299	-0.946946
O16	O	1.068996	-0.947482	-0.727722
O17	O	0.944066	-0.941032	-0.815819
C18	C	0.827423	-0.698838	-0.698404
C19	C	0.733917	-0.679267	-0.678877
C20	C	0.380296	-0.884531	-0.883671
C21	C	0.468149	-0.902925	-0.902016
C22	C	0.534595	-0.847012	-0.846233
C23	C	0.513180	-0.772701	-0.772102
C24	C	0.425318	-0.754309	-0.753750
C25	C	0.579617	-0.716791	-0.716312
C26	C	0.558202	-0.642480	-0.642181
C27	C	0.470348	-0.624091	-0.623833
C28	C	0.403902	-0.680004	-0.679616
C29	C	0.667479	-0.735183	-0.734664
C30	C	0.712501	-0.604961	-0.604743
C31	C	0.624648	-0.586567	-0.586398
C32	C	1.000147	-0.976666	-0.776286
C33	C	0.980613	-1.075946	-0.790099
C34	C	1.185880	-1.369169	-0.645759
C35	C	1.204235	-1.275889	-0.632777
C36	C	1.148331	-1.225899	-0.672106
C37	C	1.074069	-1.269198	-0.724420
C38	C	1.055710	-1.362485	-0.737398
C39	C	1.018160	-1.219215	-0.763745
C40	C	0.943898	-1.262513	-0.816059
C41	C	0.925542	-1.355791	-0.829035
C42	C	0.981446	-1.405781	-0.789706
C43	C	1.036520	-1.125928	-0.750767
C44	C	0.906349	-1.119243	-0.842406
C45	C	0.887995	-1.212523	-0.855389
C46	C	1.265382	-0.790629	-0.789986
C47	C	1.358880	-0.810225	-0.809537
C48	C	1.000098	-0.776933	-0.977057
C49	C	0.980548	-0.790693	-1.076327
C50	C	1.092003	-0.511723	-0.711823
C51	C	1.111617	-0.412466	-0.698067
C52	C	1.185768	-0.646151	-1.369491
C53	C	1.204141	-0.633225	-1.276224
C54	C	1.148244	-0.672591	-1.226245
C55	C	1.073971	-0.724884	-1.269543
C56	C	1.055600	-0.737817	-1.362821
C57	C	1.018076	-0.764257	-1.219575
C58	C	0.943803	-0.816551	-1.262873
C59	C	0.925434	-0.829480	-1.356142
C60	C	0.981331	-0.790115	-1.406121
C61	C	1.036448	-0.751324	-1.126296
C62	C	0.906280	-0.842991	-1.119626
C63	C	0.887906	-0.855916	-1.212894
C64	C	1.091736	-0.712426	-0.512061
C65	C	1.111499	-0.698449	-0.412791
H66	H	0.326190	-0.930052	-0.929077
C67	C	0.807451	-1.259533	-0.912345
C68	C	0.812782	-1.252891	-1.001387
C69	C	0.738608	-1.296197	-1.053884
H70	H	0.756459	-1.230695	-0.885412
H71	H	0.804523	-1.322265	-0.914502
H72	H	0.815702	-1.190171	-0.999227
H73	H	0.863759	-1.281733	-1.028347
H74	H	0.735680	-1.358929	-1.056041
H75	H	0.687621	-1.267355	-1.026943
H76	H	0.742219	-1.291704	-1.114307
C77	C	1.284687	-0.576273	-1.229234
C78	C	1.279334	-0.487226	-1.235844
C79	C	1.353515	-0.434724	-1.192561
H80	H	1.335673	-0.603188	-1.258106
H81	H	1.287643	-0.574136	-1.166505
H82	H	1.276388	-0.489367	-1.298560
H83	H	1.228365	-0.460286	-1.206966
H84	H	1.356470	-0.432586	-1.129833
H85	H	1.404495	-0.461646	-1.221438
H86	H	1.349889	-0.374298	-1.197033
H87	H	0.827432	-0.898494	-1.248160
H88	H	0.606128	-0.861993	-0.861175
H89	H	1.231385	-1.409877	-0.613736
H90	H	0.966508	-1.481738	-0.800276
C91	C	0.308526	-0.659893	-0.659772
C92	C	0.291705	-0.572012	-0.664859
C93	C	0.203849	-0.553469	-0.646602
H94	H	0.296859	-0.663023	-0.600092
H95	H	0.272004	-0.703796	-0.703634
H96	H	0.328216	-0.528121	-0.621000
H97	H	0.303352	-0.568861	-0.724533
H98	H	0.167326	-0.597371	-0.690463
H99	H	0.192190	-0.556602	-0.586922
H100	H	0.192422	-0.493844	-0.650059
C101	C	1.284749	-1.228795	-0.575838
C102	C	1.258969	-1.157412	-0.501147
C103	C	1.333120	-1.114016	-0.448667
H104	H	1.321866	-1.204689	-0.612510
H105	H	1.315414	-1.271889	-0.554217
H106	H	1.228319	-1.114325	-0.522769
H107	H	1.221864	-1.181493	-0.464454
H108	H	1.363785	-1.157111	-0.427046
H109	H	1.370231	-1.089916	-0.485346
H110	H	1.315638	-1.065584	-0.397979
H111	H	0.684906	-0.795687	-0.795023
C112	C	1.117055	-0.694607	-1.079135
C113	C	1.121196	-0.691719	-0.986758
C114	C	1.195446	-0.639481	-0.943287
H115	H	1.113666	-0.634109	-1.083437
H116	H	1.168010	-0.721643	-1.108003
H117	H	1.070254	-0.664679	-0.957898
H118	H	1.124599	-0.752203	-0.982430
H119	H	1.246401	-0.666517	-0.972155
H120	H	1.192050	-0.578986	-0.947596
H121	H	1.198270	-0.637521	-0.880607
H122	H	0.860826	-1.078541	-0.874430
H123	H	0.864962	-0.872070	-1.391395
H124	H	0.966375	-0.800636	-1.482068
H125	H	0.865066	-1.391038	-0.871621
H126	H	0.485578	-0.963431	-0.962373
C127	C	0.845667	-0.885620	-1.065205
C128	C	0.877639	-0.863081	-0.974248
C129	C	0.821826	-0.902324	-0.924081
H130	H	0.843071	-0.950330	-1.091263
H131	H	0.788714	-0.862804	-1.066805
H132	H	0.934576	-0.885901	-0.972653
H133	H	0.880232	-0.798378	-0.948163
H134	H	0.764873	-0.879507	-0.925680
H135	H	0.819234	-0.967032	-0.950147
H136	H	0.843506	-0.887029	-0.862359
C137	C	1.246323	-0.603289	-1.423759
C138	C	1.199466	-0.543479	-1.459403
C139	C	1.255228	-0.503968	-1.509391
H140	H	1.269075	-0.650092	-1.472602
H141	H	1.293178	-0.570238	-1.384636
H142	H	1.152626	-0.576528	-1.498524
H143	H	1.176715	-0.496659	-1.410580
H144	H	1.302084	-0.470917	-1.470268
H145	H	1.277978	-0.550777	-1.558230
H146	H	1.223446	-0.463376	-1.533575
H147	H	0.452917	-0.563590	-0.563462
H148	H	0.607199	-0.526062	-0.526039
C149	C	0.784760	-0.544328	-0.544306
C150	C	0.866284	-0.576323	-0.576259
C151	C	0.932873	-0.520491	-0.520618
H152	H	0.779733	-0.545926	-0.483044
H153	H	0.779664	-0.483149	-0.546165
H154	H	0.871379	-0.637486	-0.574391
H155	H	0.871340	-0.574721	-0.637513
H156	H	0.927776	-0.459311	-0.522477
H157	H	0.927837	-0.522093	-0.459359
H158	H	0.988194	-0.542186	-0.542295
H159	H	1.096984	-1.090683	-0.708172
H160	H	1.163209	-0.662064	-1.150302
C161	C	1.168120	-1.124578	-0.657887
C162	C	1.098617	-1.073848	-0.613994
C163	C	1.116827	-0.980505	-0.600868
H164	H	1.175410	-1.114341	-0.715568
H165	H	1.220326	-1.105906	-0.621059
H166	H	1.046426	-1.092514	-0.650822
H167	H	1.091316	-1.084057	-0.556306
H168	H	1.169033	-0.961832	-0.564040
H169	H	1.124118	-0.970276	-0.658552
H170	H	1.069677	-0.946071	-0.571078
