data_functionalizedCrystal
_audit_creation_method	'MofGen! by Chris Wilmer'
_symmetry_space_group_name_H-M	'P1'
_symmetry_Int_Tables_number	1
_symmetry_cell_setting	triclinic
loop_
_symmetry_equiv_pos_as_xyz
  x,y,z
_cell_length_a	10.540539
_cell_length_b	11.026607
_cell_length_c	9.482900
_cell_angle_alpha	101.400185
_cell_angle_beta	99.382321
_cell_angle_gamma	83.444246
loop_
_atom_site_label
_atom_site_type_symbol
_atom_site_fract_x
_atom_site_fract_y
_atom_site_fract_z
O1	O	1.738884	-0.152500	0.120820
O2	O	1.373010	-0.168642	0.120838
O3	O	1.525623	0.016344	0.120825
O4	O	1.586271	-0.337486	0.120833
O5	O	1.494659	-0.021383	-0.120965
O6	O	1.342045	-0.206369	-0.120952
O7	O	1.707920	-0.190227	-0.120969
Cu8	Cu	1.522155	-0.201743	-0.143038
Cu9	Cu	1.558774	-0.157126	0.142906
O10	O	1.555307	-0.375213	-0.120957
C11	C	1.309960	-0.186294	-0.000055
C12	C	1.168219	-0.182671	-0.000048
C13	C	0.954316	-0.043955	-0.000616
C14	C	1.101810	-0.047539	-0.000056
C15	C	1.138473	-0.226159	0.138022
C16	C	0.990931	-0.221532	0.138122
C17	C	0.955832	-0.267183	-0.136838
C18	C	1.102855	-0.268710	-0.138648
C19	C	1.498953	0.042789	-0.000067
C20	C	1.465601	0.177793	-0.000061
C21	C	1.770970	-0.172574	-0.000074
C22	C	1.912712	-0.176196	-0.000071
C23	C	1.581977	-0.401657	-0.000061
C24	C	1.615330	-0.536660	-0.000058
N25	N	1.496409	-0.233123	-0.344156
C26	C	1.557693	0.250800	-0.000063
C27	C	1.523225	0.390334	-0.000056
C28	C	1.551170	-0.166375	-0.416360
C29	C	1.529760	-0.192494	-0.583776
N30	N	1.584529	-0.125736	0.344025
H31	H	0.965409	-0.157364	0.241329
N32	N	1.158971	-0.393942	-0.149181
N33	N	1.090480	-0.479419	-0.149610
H34	H	1.130120	-0.567868	-0.157072
H35	H	1.613898	-0.089889	-0.354237
N36	N	1.451046	-0.288432	-0.661714
N37	N	1.433759	-0.309509	-0.797601
H38	H	1.378167	-0.377263	-0.852649
H39	H	1.418857	0.431127	-0.000041
N40	N	0.958476	-0.342224	0.145985
N41	N	1.044770	-0.429600	0.151391
H42	H	1.021856	-0.514839	0.156949
H43	H	1.719713	0.422568	0.000046
H44	H	1.361240	0.218591	-0.000046
N45	N	1.688613	0.199617	-0.000054
N46	N	1.716429	0.086342	-0.000051
H47	H	1.808895	0.050195	-0.000042
N48	N	0.887873	0.003667	-0.124809
N49	N	0.908597	0.108258	-0.143773
H50	H	0.861663	0.141895	-0.231487
H51	H	1.183220	-0.324595	0.143161
H52	H	1.184325	-0.164951	0.240775
N53	N	1.663219	-0.029778	-0.578040
N54	N	1.680497	-0.008690	-0.442152
H55	H	1.736069	0.059080	-0.387107
H56	H	0.901304	-0.239781	-0.241494
N57	N	1.417699	-0.329056	-0.422100
N58	N	1.400412	-0.350133	-0.557988
H59	H	1.344820	-0.417887	-0.613036
N60	N	0.923256	-0.389806	-0.137991
N61	N	0.868522	-0.410257	-0.038630
H62	H	0.845509	-0.496854	-0.039433
H63	H	0.925074	0.024568	0.097849
N64	N	1.125313	-0.002725	-0.124219
N65	N	1.084050	-0.056804	-0.249267
H66	H	1.100641	-0.025146	-0.336959
N67	N	1.155953	0.036519	0.124309
N68	N	1.118705	0.149513	0.140460
H69	H	1.156942	0.208885	0.228299
N70	N	1.124757	-0.229080	-0.266778
N71	N	1.188259	-0.137826	-0.256172
H72	H	1.203734	-0.109833	-0.346662
