data_functionalizedCrystal
_audit_creation_method	'MofGen! by Chris Wilmer'
_symmetry_space_group_name_H-M	'P1'
_symmetry_Int_Tables_number	1
_symmetry_cell_setting	triclinic
loop_
_symmetry_equiv_pos_as_xyz
  x,y,z
_cell_length_a	19.851628
_cell_length_b	23.196402
_cell_length_c	23.196401
_cell_angle_alpha	119.990623
_cell_angle_beta	90.016862
_cell_angle_gamma	120.001321
loop_
_atom_site_label
_atom_site_type_symbol
_atom_site_fract_x
_atom_site_fract_y
_atom_site_fract_z
Zr1	Zr	0.648977	-0.630930	-0.075553
O2	O	0.541388	-0.751207	-0.167609
O3	O	0.681956	-0.510662	-0.047337
O4	O	0.681926	-0.630928	-0.167601
O5	O	0.541444	-0.630939	0.047526
O6	O	0.792788	-0.630917	-0.167589
O7	O	0.541418	-0.630940	-0.047345
O8	O	0.792841	-0.415782	0.047541
O9	O	0.541391	-0.846074	-0.167604
O10	O	0.778759	-0.560118	-0.035289
O11	O	0.696044	-0.560126	0.035504
O12	O	0.696009	-0.701724	-0.106092
O13	O	0.613294	-0.701731	-0.035299
Zr14	Zr	0.825831	-0.630910	0.075775
Zr15	Zr	0.825788	-0.630912	-0.075534
Zr16	Zr	0.649019	-0.630928	0.075756
Zr17	Zr	0.648981	-0.782232	-0.075545
Zr18	Zr	0.825826	-0.479608	0.075766
O19	O	0.792852	-0.751178	0.047559
O20	O	0.792792	-0.751182	-0.167583
O21	O	0.541448	-0.751203	0.047533
O22	O	0.933419	-0.510633	0.167831
O23	O	0.933359	-0.510636	-0.047311
O24	O	0.682016	-0.510658	0.167805
O25	O	0.933363	-0.630901	-0.047304
O26	O	0.792881	-0.630912	0.167823
O27	O	0.682020	-0.630923	0.167811
O28	O	0.933390	-0.630900	0.047567
O29	O	0.681933	-0.846059	-0.167589
O30	O	0.792874	-0.415780	0.167811
O31	O	0.933416	-0.415766	0.167826
O32	O	0.933382	-0.415768	0.047555
O33	O	0.541425	-0.846072	-0.047333
O34	O	0.681966	-0.846058	-0.047319
O35	O	0.778798	-0.560116	0.106314
O36	O	0.861514	-0.560109	0.035521
O37	O	0.778763	-0.701714	-0.035282
O38	O	0.696048	-0.701722	0.035511
C39	C	0.737397	-0.441665	0.000101
C40	C	0.737395	-0.377433	0.000097
C41	C	0.780566	-0.347259	-0.036859
C42	C	0.780574	-0.286899	-0.036854
C43	C	0.737395	-0.256726	0.000098
C44	C	0.694222	-0.286904	0.037062
C45	C	0.694223	-0.347258	0.037062
C46	C	0.665055	-0.194704	-0.005185
C47	C	0.665052	-0.134355	-0.005190
C48	C	0.737396	-0.070572	0.000103
C49	C	0.809742	-0.067153	0.005386
C50	C	0.809742	-0.127507	0.005385
C51	C	0.737391	-0.191282	0.000103
C52	C	0.780579	0.025053	-0.036850
C53	C	0.780590	0.085418	-0.036840
C54	C	0.694230	0.085406	0.037071
C55	C	0.694228	0.025047	0.037066
C56	C	0.737400	-0.005128	0.000102
C57	C	0.516239	-0.630942	0.000088
C58	C	0.441178	-0.630950	0.000080
C59	C	0.214714	-0.708141	-0.038501
C60	C	0.192344	-0.669547	-0.066478
C61	C	0.303771	-0.630929	0.000100
C62	C	0.192401	-0.669527	0.028065
C63	C	0.171039	-0.630914	0.000120
C64	C	0.282389	-0.592334	-0.027916
C65	C	0.282444	-0.592326	0.066664
C66	C	0.260127	-0.553676	0.038703
C67	C	0.380233	-0.630939	0.000088
C68	C	0.094582	-0.630897	0.000131
C69	C	0.958568	-0.630898	0.000134
C70	C	1.033629	-0.630890	0.000142
C71	C	0.737410	0.179823	0.000118
C72	C	0.737411	0.115588	0.000113
C73	C	0.737351	-0.630923	-0.189153
C74	C	0.737333	-0.630924	-0.253388
C75	C	0.694142	-0.704838	-0.320519
C76	C	0.694163	-0.704839	-0.380874
C77	C	0.737363	-0.630922	-0.374094
C78	C	0.780564	-0.556998	-0.306951
C79	C	0.780548	-0.556999	-0.246598
C80	C	0.731227	-0.574295	-0.441415
C81	C	0.731236	-0.574297	-0.501769
C82	C	0.737416	-0.630916	-0.560242
C83	C	0.743569	-0.687546	-0.558361
C84	C	0.743553	-0.687547	-0.498008
C85	C	0.737385	-0.630912	-0.439533
C86	C	0.694246	-0.704836	-0.692820
C87	C	0.694272	-0.704834	-0.753175
C88	C	0.780667	-0.556991	-0.679249
C89	C	0.780646	-0.556995	-0.618896
C90	C	0.737431	-0.630920	-0.625687
C91	C	0.737456	-0.630917	0.189375
C92	C	0.737474	-0.630916	0.253610
C93	C	0.958562	-0.441643	0.000124
C94	C	1.033621	-0.377404	0.000128
C95	C	0.737450	-0.441662	0.189365
C96	C	0.737466	-0.377429	0.253596
C97	C	0.958615	-0.441640	0.189388
C98	C	1.033692	-0.377400	0.253627
C99	C	0.516192	-0.820200	-0.189166
C100	C	0.441115	-0.884440	-0.253405
C101	C	0.516245	-0.820197	0.000098
C102	C	0.441186	-0.884436	0.000094
C103	C	0.737357	-0.820178	-0.189143
C104	C	0.737341	-0.884410	-0.253374
C105	C	1.025673	-0.347241	-0.036838
C106	C	1.096192	-0.286890	-0.036849
C107	C	1.174659	-0.256699	0.000112
C108	C	1.182606	-0.286867	0.037080
C109	C	1.112087	-0.347221	0.037085
C110	C	0.780671	-0.347260	0.320728
C111	C	0.780682	-0.286916	0.381086
C112	C	0.737494	-0.256737	0.374310
C113	C	0.694284	-0.286912	0.307171
C114	C	0.694268	-0.347260	0.246815
C115	C	1.112133	-0.347228	0.246841
C116	C	1.182682	-0.286876	0.307195
C117	C	1.174789	-0.256693	0.374333
C118	C	1.096340	-0.286870	0.381118
C119	C	1.025792	-0.347225	0.320765
C120	C	0.362674	-0.914619	-0.246619
C121	C	0.292125	-0.974990	-0.306973
C122	C	0.300018	-1.005176	-0.374111
C123	C	0.378467	-0.974995	-0.380896
C124	C	0.449015	-0.914630	-0.320543
C125	C	0.449135	-0.914605	0.037054
C126	C	0.378615	-0.974973	0.037047
C127	C	0.300148	-1.005166	0.000084
C128	C	0.292201	-0.974995	-0.036880
C129	C	0.362720	-0.914633	-0.036877
C130	C	0.780538	-0.914570	-0.246576
C131	C	0.780539	-0.974915	-0.306922
C132	C	0.737338	-1.005104	-0.374066
C133	C	0.694140	-0.974938	-0.380863
C134	C	0.694144	-0.914590	-0.320518
H135	H	0.868654	-0.015214	0.009704
F136	F	0.284394	-0.468294	0.081338
F137	F	0.141595	-0.712200	-0.140044
F138	F	1.087717	-0.254791	-0.076194
F139	F	0.141695	-0.712199	0.058967
H140	H	0.815730	-0.262326	-0.066949
H141	H	0.961787	-0.371823	-0.066945
H142	H	1.232073	-0.207554	0.000103
F143	F	1.266123	-0.254724	0.076416
F144	F	0.648323	-0.254785	0.299971
F145	F	1.120560	-0.379311	0.076437
F146	F	1.087953	-0.254738	0.452578
F147	F	0.886735	-0.123865	0.011011
F148	F	0.332944	-0.549728	-0.058918
H149	H	0.815843	-0.496806	-0.673727
H150	H	0.242566	-1.054329	-0.423249
F151	F	0.826644	-0.379365	0.327956
F152	F	0.386854	-1.007129	-0.452356
H153	H	0.196256	-0.773427	-0.071191
F154	F	0.354248	-0.882527	-0.076214
F155	F	0.387090	-1.007070	0.076394
F156	F	0.826522	-0.882452	-0.175122
F157	F	1.266166	-0.254767	0.299959
F158	F	0.826677	-0.254810	0.452534
F159	F	0.737519	-0.192508	0.438554
F160	F	0.648134	-0.783516	-0.327750
H161	H	0.815739	-0.496814	-0.301434
H162	H	0.512883	-0.890058	-0.326077
F163	F	1.120552	-0.379344	0.175393
H164	H	0.228255	-0.999553	-0.301435
F165	F	0.826516	-0.478325	-0.175147
H166	H	0.321267	-0.559720	0.122936
F167	F	0.942312	-0.379326	0.327998
F168	F	0.648285	-0.379358	0.175369
F169	F	0.648275	0.117514	0.076398
H170	H	0.658990	-0.765031	-0.435543
H171	H	1.232241	-0.207548	0.423471
H172	H	0.356232	-0.890045	-0.191957
F173	F	0.208684	-1.007136	-0.076215
F174	F	0.750103	-0.747815	-0.496007
H175	H	0.659058	-0.765030	-0.698349
F176	F	0.532639	-0.882483	0.076396
H177	H	0.242734	-1.054317	0.000088
F178	F	0.648305	-0.783508	-0.824625
H179	H	0.815813	-0.496806	-0.564234
F180	F	0.826514	-1.007012	-0.299673
H181	H	0.658964	-0.890041	-0.326063
H182	H	0.737341	-1.054244	-0.423197
H183	H	0.658967	-0.999527	-0.435540
H184	H	0.815722	-0.371825	-0.066955
H185	H	0.815736	0.000485	-0.066946
H186	H	0.726221	-0.528188	-0.503295
F187	F	0.588051	-0.262586	-0.010819
H188	H	0.815749	0.109990	-0.066931
F189	F	0.648277	-0.007069	0.076399
H190	H	0.726189	-0.528189	-0.393808
F191	F	0.588056	-0.138002	-0.010816
H192	H	0.659067	-0.262333	0.067149
H193	H	0.659066	-0.371826	0.067156
H194	H	0.748597	-0.733653	-0.605973
