data_functionalizedCrystal
_audit_creation_method	'MofGen! by Chris Wilmer'
_symmetry_space_group_name_H-M	'P1'
_symmetry_Int_Tables_number	1
_symmetry_cell_setting	triclinic
loop_
_symmetry_equiv_pos_as_xyz
  x,y,z
_cell_length_a	14.185569
_cell_length_b	17.699083
_cell_length_c	17.699083
_cell_angle_alpha	83.283015
_cell_angle_beta	76.871494
_cell_angle_gamma	103.133031
loop_
_atom_site_label
_atom_site_type_symbol
_atom_site_fract_x
_atom_site_fract_y
_atom_site_fract_z
O1	O	0.083282	-0.986904	-0.112875
O2	O	0.583282	-0.486904	0.387125
O3	O	0.083316	-0.766518	-0.125334
O4	O	0.583316	-0.266518	0.374666
O5	O	0.083289	-0.882939	-0.008913
O6	O	0.583289	-0.382939	0.491087
O7	O	0.083309	-0.870483	-0.229296
O8	O	0.583309	-0.370483	0.270704
O9	O	-0.083553	-0.917331	0.025475
O10	O	0.416447	-0.417331	0.525475
O11	O	-0.083527	-0.800910	-0.090946
O12	O	0.416473	-0.300910	0.409054
O13	O	-0.083560	-1.021295	-0.078487
O14	O	0.416440	-0.521295	0.421513
Cu15	Cu	-0.098777	-0.914243	-0.081577
Cu16	Cu	0.401223	-0.414243	0.418423
Cu17	Cu	0.098533	-0.873571	-0.122244
Cu18	Cu	0.598533	-0.373571	0.377756
O19	O	-0.083534	-0.904874	-0.194908
O20	O	0.416466	-0.404874	0.305092
C21	C	-0.000101	-0.755516	-0.107695
C22	C	0.499899	-0.255516	0.392305
C23	C	-0.000089	-0.671496	-0.106359
C24	C	0.499911	-0.171496	0.393641
N25	N	-0.237555	-0.942855	-0.052973
N26	N	0.262445	-0.442855	0.447027
C27	C	-0.000132	-0.899689	0.036478
C28	C	0.499868	-0.399689	0.536478
C29	C	-0.000132	-0.898350	0.120496
C30	C	0.499868	-0.398350	0.620496
C31	C	-0.605164	-0.760902	-0.234848
C32	C	-0.105164	-0.260902	0.265152
C33	C	-0.710190	-0.782581	-0.213186
C34	C	-0.210190	-0.282581	0.286814
C35	C	-0.710174	-0.885692	-0.110134
C36	C	-0.210174	-0.385692	0.389866
C37	C	-0.605146	-0.864020	-0.131785
C38	C	-0.105146	-0.364020	0.368215
C39	C	-0.552649	-0.801625	-0.194143
C40	C	-0.052649	-0.301625	0.305857
C41	C	-0.552631	-0.904742	-0.091079
C42	C	-0.052631	-0.404742	0.408921
C43	C	-0.447611	-0.883074	-0.112732
C44	C	0.052389	-0.383074	0.387268
C45	C	-0.395107	-0.820683	-0.175089
C46	C	0.104893	-0.320683	0.324911
C47	C	-0.447629	-0.779956	-0.215795
C48	C	0.052371	-0.279956	0.284205
C49	C	-0.605130	-0.967141	-0.028725
C50	C	-0.105130	-0.467141	0.471275
C51	C	-0.552615	-1.007863	0.011980
C52	C	-0.052615	-0.507863	0.511980
C53	C	-0.447594	-0.986192	-0.009668
C54	C	0.052406	-0.486192	0.490332
C55	C	-0.395089	-0.923801	-0.072026
C56	C	0.104911	-0.423801	0.427974
C57	C	-0.395071	-1.026918	0.031038
C58	C	0.104929	-0.526918	0.531038
C59	C	-0.290052	-1.005250	0.009386
C60	C	0.209948	-0.505250	0.509386
C61	C	-0.290070	-0.902132	-0.093678
C62	C	0.209930	-0.402132	0.406322
N63	N	0.237311	-0.844965	-0.150842
N64	N	0.737311	-0.344965	0.349158
C65	C	-0.000141	-1.032297	-0.096127
C66	C	0.499859	-0.532297	0.403873
C67	C	-0.000146	-1.116316	-0.097464
C68	C	0.499854	-0.616316	0.402536
C69	C	-0.000083	-0.622874	-0.174693
C70	C	0.499917	-0.122874	0.325307
C71	C	-0.000096	-0.543933	-0.173428
C72	C	0.499904	-0.043933	0.326572
C73	C	-0.000108	-0.513615	-0.103829
C74	C	0.499892	-0.013615	0.396171
C75	C	-0.000117	-0.562244	-0.035489
C76	C	0.499883	-0.062244	0.464511
C77	C	-0.000111	-0.641184	-0.036753
C78	C	0.499889	-0.141184	0.463247
C79	C	-0.000142	-0.243886	-0.030389
C80	C	0.499858	0.256114	0.469611
C81	C	-0.000145	-0.164938	-0.029130
C82	C	0.499855	0.335062	0.470870
C83	C	-0.000128	-0.146635	-0.167064
C84	C	0.499872	0.353365	0.332936
C85	C	-0.000122	-0.225575	-0.168328
C86	C	0.499878	0.274425	0.331672
C87	C	-0.000136	-0.274198	-0.099987
C88	C	0.499864	0.225802	0.400013
C89	C	-0.000123	-0.359795	-0.101359
C90	C	0.499877	0.140205	0.398641
C91	C	-0.000113	-0.428018	-0.102458
C92	C	0.499887	0.071982	0.397542
C93	C	-0.000110	-0.888124	-0.240299
C94	C	0.499890	-0.388124	0.259701
C95	C	-0.000103	-0.889461	-0.324319
C96	C	0.499897	-0.389461	0.175681
C97	C	-0.000144	-0.966686	0.169119
C98	C	0.499856	-0.466686	0.669119
C99	C	-0.000135	-0.965422	0.248061
C100	C	0.499865	-0.465422	0.748061
C101	C	-0.000121	-0.895823	0.278379
C102	C	0.499879	-0.395823	0.778379
C103	C	-0.000107	-0.827481	0.229748
C104	C	0.499893	-0.327481	0.729748
C105	C	-0.000108	-0.828744	0.150807
C106	C	0.499892	-0.328744	0.650807
C107	C	-0.000098	-0.822384	0.548110
C108	C	0.499902	-0.322384	1.048110
C109	C	-0.000099	-0.821126	0.627058
C110	C	0.499901	-0.321126	1.127058
C111	C	-0.000124	-0.959061	0.645363
C112	C	0.499876	-0.459061	1.145363
C113	C	-0.000126	-0.960325	0.566422
C114	C	0.499874	-0.460325	1.066422
C115	C	-0.000106	-0.891983	0.517798
C116	C	0.499894	-0.391983	1.017798
C117	C	-0.000114	-0.893354	0.432200
C118	C	0.499886	-0.393354	0.932200
C119	C	-0.000121	-0.894452	0.363976
C120	C	0.499879	-0.394452	0.863976
H121	H	-0.247325	-0.851319	-0.144451
H122	H	0.252675	-0.351319	0.355549
H123	H	-0.000091	-0.504347	-0.229074
H124	H	0.499909	-0.004347	0.270926
H125	H	-0.000108	-0.250255	-0.225003
H126	H	0.499892	0.249745	0.274997
C127	C	-0.720649	-0.990980	-0.004906
C128	C	-0.220649	-0.490980	0.495094
H129	H	-0.744393	-1.033979	0.038054
H130	H	-0.244393	-0.533979	0.538054
H131	H	-0.744420	-0.947535	0.010296
H132	H	-0.244420	-0.447535	0.510296
H133	H	-0.744402	-1.006149	-0.048375
H134	H	-0.244402	-0.506149	0.451625
C135	C	-0.000136	-1.036883	0.533075
C136	C	0.499864	-0.536883	1.033075
H137	H	-0.000132	-1.077399	0.573338
H138	H	0.499868	-0.577399	1.073338
H139	H	-0.058317	-1.052238	0.514653
H140	H	0.441683	-0.552238	1.014653
H141	H	0.058054	-1.028243	0.490666
H142	H	0.558054	-0.528243	0.990666
C143	C	-0.000130	-1.034235	0.698849
C144	C	0.499870	-0.534235	1.198849
H145	H	-0.000114	-1.023515	0.750204
H146	H	0.499886	-0.523515	1.250204
H147	H	-0.058316	-1.074773	0.701670
H148	H	0.441684	-0.574773	1.201670
H149	H	0.058054	-1.050782	0.677672
H150	H	0.558054	-0.550782	1.177672
H151	H	-0.000156	-0.140257	0.027549
H152	H	0.499844	0.359743	0.527549
H153	H	-0.000090	-0.764447	0.651740
H154	H	0.499910	-0.264447	1.151740
C155	C	-0.000119	-0.093152	-0.242239
C156	C	0.499881	0.406848	0.257761
H157	H	-0.000098	-0.122513	-0.283872
H158	H	0.499902	0.377487	0.216128
H159	H	-0.058301	-0.073975	-0.232629
H160	H	0.441699	0.426025	0.267371
H161	H	0.058069	-0.049977	-0.256603
H162	H	0.558069	0.450023	0.243397
C163	C	-0.000095	-0.750924	0.263097
C164	C	0.499905	-0.250924	0.763097
H165	H	-0.000106	-0.759960	0.317078
H166	H	0.499894	-0.259960	0.817078
H167	H	0.058090	-0.710798	0.234405
H168	H	0.558090	-0.210798	0.734405
H169	H	-0.058280	-0.734791	0.258393
H170	H	0.441720	-0.234791	0.758393
C171	C	-0.000137	-1.040587	0.301544
C172	C	0.499863	-0.540587	0.801544
H173	H	-0.000118	-1.029866	0.352898
H174	H	0.499882	-0.529866	0.852898
H175	H	-0.058322	-1.081130	0.304370
H176	H	0.441678	-0.581130	0.804370
H177	H	0.058049	-1.057131	0.280364
H178	H	0.558049	-0.557131	0.780364
H179	H	-0.000154	-0.283466	0.025259
H180	H	0.499846	0.216534	0.525259
H181	H	-0.752930	-0.936497	-0.059362
H182	H	-0.252930	-0.436497	0.440638
H183	H	-0.000082	-0.766735	0.508529
H184	H	0.499918	-0.266735	1.008529
H185	H	-0.404884	-0.729143	-0.266568
H186	H	0.095116	-0.229143	0.233432
H187	H	-0.752943	-0.749414	-0.246340
H188	H	-0.252943	-0.249414	0.253660
H189	H	-0.000115	-0.680772	0.018892
H190	H	0.499885	-0.180772	0.518892
H191	H	-0.595370	-1.058668	0.062751
H192	H	-0.095370	-0.558668	0.562751
H193	H	-0.437828	-1.077726	0.081806
H194	H	0.062172	-0.577726	0.581806
C195	C	-0.000128	-0.528895	0.041068
C196	C	0.499872	-0.028895	0.541068
H197	H	-0.000120	-0.474915	0.032033
H198	H	0.499880	0.025085	0.532033
H199	H	-0.058311	-0.557592	0.081192
H200	H	0.441689	-0.057592	0.581192
H201	H	0.058060	-0.533593	0.057202
H202	H	0.558060	-0.033593	0.557202
H203	H	-0.000161	-1.023363	0.144442
H204	H	0.499839	-0.523363	0.644442
H205	H	-0.247294	-1.038412	0.042532
H206	H	0.252706	-0.538412	0.542532
C207	C	-0.000067	-0.656220	-0.251252
C208	C	0.499933	-0.156220	0.248748
H209	H	-0.000055	-0.710196	-0.242222
H210	H	0.499945	-0.210196	0.257778
H211	H	-0.058246	-0.651522	-0.267392
H212	H	0.441754	-0.151522	0.232608
H213	H	0.058125	-0.627518	-0.291373
H214	H	0.558125	-0.127518	0.208627
C215	C	-0.279588	-0.796844	-0.198912
C216	C	0.220412	-0.296844	0.301088
H217	H	-0.255846	-0.753856	-0.241883
H218	H	0.244154	-0.253856	0.258117
H219	H	-0.255828	-0.781675	-0.155450
H220	H	0.244172	-0.281675	0.344550
H221	H	-0.255822	-0.840295	-0.214116
H222	H	0.244178	-0.340295	0.285884
C223	C	-0.547410	-0.692267	-0.303440
C224	C	-0.047410	-0.192267	0.196560
H225	H	-0.593725	-0.671116	-0.324586
H226	H	-0.093725	-0.171116	0.175414
H227	H	-0.506444	-0.652365	-0.284698
H228	H	-0.006444	-0.152365	0.215302
H229	H	-0.506441	-0.710986	-0.343362
H230	H	-0.006441	-0.210986	0.156638
C231	C	-0.000098	-0.753576	0.097322
C232	C	0.499902	-0.253576	0.597322
H233	H	-0.000098	-0.711945	0.126685
H234	H	0.499902	-0.211945	0.626685
H235	H	0.058084	-0.739209	0.054151
H236	H	0.558084	-0.239209	0.554151
H237	H	-0.058287	-0.763196	0.078143
H238	H	0.441713	-0.263196	0.578143
