data_functionalizedCrystal
_audit_creation_method	'MofGen! by Chris Wilmer'
_symmetry_space_group_name_H-M	'P1'
_symmetry_Int_Tables_number	1
_symmetry_cell_setting	triclinic
loop_
_symmetry_equiv_pos_as_xyz
  x,y,z
_cell_length_a	8.597267
_cell_length_b	8.559649
_cell_length_c	12.996460
_cell_angle_alpha	90.005498
_cell_angle_beta	97.697429
_cell_angle_gamma	102.376255
loop_
_atom_site_label
_atom_site_type_symbol
_atom_site_fract_x
_atom_site_fract_y
_atom_site_fract_z
O1	O	0.053140	2.119302	0.090262
O2	O	0.386473	2.452635	0.423595
O3	O	0.719806	2.785968	0.756928
O4	O	-0.027760	1.655359	0.083094
O5	O	0.305573	1.988692	0.416427
O6	O	0.638906	2.322026	0.749760
O7	O	0.242256	1.896468	0.107027
O8	O	0.575590	2.229802	0.440360
O9	O	0.908923	2.563135	0.773694
O10	O	-0.216877	1.878193	0.066328
O11	O	0.116456	2.211526	0.399661
O12	O	0.449790	2.544859	0.732995
O13	O	0.242267	1.896443	-0.064106
O14	O	0.575600	2.229776	0.269228
O15	O	0.908933	2.563109	0.602561
O16	O	-0.027750	1.655333	-0.088039
O17	O	0.305583	1.988667	0.245294
O18	O	0.638917	2.322000	0.578628
O19	O	0.053150	2.119276	-0.080871
O20	O	0.386483	2.452609	0.252462
O21	O	0.719817	2.785943	0.585795
Cu22	Cu	0.012701	1.887302	-0.100081
Cu23	Cu	0.346034	2.220636	0.233252
Cu24	Cu	0.679368	2.553969	0.566586
Cu25	Cu	0.012689	1.887333	0.102303
Cu26	Cu	0.346022	2.220666	0.435637
Cu27	Cu	0.679355	2.553999	0.768970
O28	O	-0.216867	1.878167	-0.104805
O29	O	0.116467	2.211500	0.228529
O30	O	0.449800	2.544834	0.561862
C31	C	-0.033886	1.595912	-0.003016
C32	C	0.299447	1.929245	0.330318
C33	C	0.632781	2.262579	0.663651
C34	C	-0.052135	1.418816	-0.004632
C35	C	0.281198	1.752150	0.328702
C36	C	0.614531	2.085483	0.662035
C37	C	0.300497	1.894496	0.026625
C38	C	0.633830	2.227829	0.359958
C39	C	0.967163	2.561163	0.693292
C40	C	0.474016	1.888639	0.042013
C41	C	0.807349	2.221972	0.375346
C42	C	1.140683	2.555305	0.708680
C43	C	0.724894	1.880143	-0.024401
C44	C	1.058228	2.213476	0.308932
C45	C	1.391561	2.546810	0.642266
C46	C	0.551378	1.886012	-0.039783
C47	C	0.884711	2.219345	0.293550
C48	C	1.218044	2.552679	0.626883
C49	C	0.059276	2.178723	0.005240
C50	C	0.392609	2.512057	0.338574
C51	C	0.725942	2.845390	0.671907
C52	C	0.077525	2.355819	0.006863
C53	C	0.410858	2.689152	0.340196
C54	C	0.744192	3.022485	0.673530
N55	N	0.012712	1.887293	-0.242427
N56	N	0.346045	2.220626	0.090906
N57	N	0.679378	2.553959	0.424239
C58	C	0.012687	1.887331	-0.662244
C59	C	0.346020	2.220664	-0.328910
C60	C	0.679354	2.553997	0.004423
C61	C	0.012688	1.887315	-0.545438
C62	C	0.346021	2.220649	-0.212105
C63	C	0.679355	2.553982	0.121228
C64	C	0.012698	1.887312	-0.452339
C65	C	0.346032	2.220646	-0.119006
C66	C	0.679365	2.553979	0.214327
C67	C	0.012702	1.887296	-0.335526
C68	C	0.346035	2.220629	-0.002193
C69	C	0.679368	2.553962	0.331140
N70	N	0.012692	1.887355	0.244651
N71	N	0.346025	2.220688	0.577984
N72	N	0.679359	2.554022	0.911317
H73	H	0.202494	1.437367	0.017946
H74	H	0.535827	1.770701	0.351279
H75	H	0.869160	2.104034	0.684613
Cl76	Cl	0.576707	1.885199	0.168307
Cl77	Cl	0.910041	2.218533	0.501640
Cl78	Cl	1.243374	2.551866	0.834974
Cl79	Cl	0.448687	1.889477	-0.166083
Cl80	Cl	0.782020	2.222810	0.167250
Cl81	Cl	1.115353	2.556143	0.500583
Cl82	Cl	-0.245094	1.292908	-0.021726
Cl83	Cl	0.088239	1.626242	0.311607
Cl84	Cl	0.421573	1.959575	0.644941
