data_functionalizedCrystal
_audit_creation_method	'MofGen! by Chris Wilmer'
_symmetry_space_group_name_H-M	'P1'
_symmetry_Int_Tables_number	1
_symmetry_cell_setting	triclinic
loop_
_symmetry_equiv_pos_as_xyz
  x,y,z
_cell_length_a	12.837943
_cell_length_b	27.732048
_cell_length_c	11.295483
_cell_angle_alpha	94.055952
_cell_angle_beta	85.461227
_cell_angle_gamma	88.735798
loop_
_atom_site_label
_atom_site_type_symbol
_atom_site_fract_x
_atom_site_fract_y
_atom_site_fract_z
O1	O	1.380472	0.122633	-0.099030
O2	O	1.078766	0.116430	-0.099036
O3	O	1.238988	0.049600	-0.099010
O4	O	1.220251	0.189464	-0.099056
O5	O	1.224916	0.055460	0.099039
O6	O	1.064694	0.122290	0.099013
O7	O	1.366400	0.128493	0.099019
Cu8	Cu	1.214262	0.125927	0.117099
Cu9	Cu	1.230904	0.118997	-0.117116
O10	O	1.206178	0.195323	0.098993
C11	C	1.033143	0.117265	-0.000012
C12	C	0.918166	0.111016	-0.000013
C13	C	1.231558	0.034504	0.000018
C14	C	1.230373	-0.019210	0.000027
C15	C	0.676005	0.186144	-0.000020
C16	C	0.567973	0.180275	-0.000021
C17	C	0.594068	0.093407	-0.000005
C18	C	0.702100	0.099277	-0.000005
C19	C	0.743064	0.145647	-0.000014
C20	C	0.851099	0.151516	-0.000023
C21	C	0.877191	0.064649	0.000002
C22	C	0.769159	0.058780	0.000001
C23	C	1.317601	-0.353705	-0.000032
C24	C	1.313207	-0.555583	-0.000049
O25	O	1.392971	-0.582888	-0.000099
N26	N	1.218201	-0.579414	-0.000050
C27	C	1.124288	-0.552772	-0.000054
O28	O	1.043380	-0.577674	-0.000067
C29	C	1.128684	-0.350895	-0.000046
C30	C	1.223695	-0.327067	-0.000033
C31	C	1.412605	-0.329876	-0.000021
C32	C	1.413702	-0.279410	-0.000010
C33	C	1.319795	-0.252772	-0.000011
C34	C	1.224792	-0.276600	-0.000022
C35	C	1.034772	-0.324255	-0.000058
C36	C	1.035879	-0.273783	-0.000059
C37	C	1.130890	-0.249954	-0.000047
C38	C	1.131982	-0.199496	-0.000012
N39	N	1.226988	-0.175665	-0.000012
C40	C	1.320895	-0.202303	-0.000011
C41	C	1.121987	-0.658760	-0.000056
C42	C	1.120887	-0.709229	-0.000056
C43	C	1.309807	-0.712036	-0.000053
C44	C	1.310905	-0.661566	-0.000045
C45	C	1.216993	-0.634929	-0.000055
C46	C	1.323191	-0.096319	0.000012
C47	C	1.324279	-0.045848	0.000028
C48	C	1.135361	-0.043045	0.000019
C49	C	1.134271	-0.093512	0.000010
C50	C	1.228195	-0.120148	0.000002
O51	O	1.052262	-0.172160	0.000025
O52	O	1.401793	-0.177392	-0.000024
C53	C	1.316504	-0.404172	-0.000043
C54	C	1.221501	-0.428000	-0.000054
C55	C	1.127594	-0.401362	-0.000055
C56	C	1.220401	-0.478469	-0.000054
C57	C	1.314308	-0.505107	-0.000053
C58	C	1.409314	-0.481276	-0.000053
C59	C	1.410411	-0.430810	-0.000042
C60	C	1.032588	-0.425193	-0.000056
C61	C	1.031499	-0.475660	-0.000065
C62	C	1.125405	-0.502298	-0.000064
C63	C	1.412023	0.127658	-0.000008
C64	C	1.527001	0.133908	-0.000015
C65	C	1.213608	0.210420	-0.000037
C66	C	1.214794	0.264133	-0.000055
N67	N	1.202564	0.130801	0.281834
N68	N	1.242610	0.114119	-0.281851
C69	C	1.326818	0.079005	0.531143
C70	C	1.317985	0.082692	0.655805
C71	C	1.176062	0.141860	0.655823
C72	C	1.184894	0.138173	0.531160
C73	C	1.260276	0.106745	0.468825
C74	C	1.269113	0.103060	0.344160
C75	C	1.127185	0.162225	0.344180
C76	C	1.118353	0.165912	0.468842
H77	H	0.884449	0.189273	-0.000028
H78	H	1.487779	-0.411413	-0.000032
C79	C	0.948510	-0.045328	-0.000002
C80	C	1.032141	-0.013759	0.000010
H81	H	0.884788	-0.027246	-0.000009
H82	H	0.956921	-0.067110	-0.069061
H83	H	0.947095	-0.063032	0.069068
H84	H	1.033561	0.003943	-0.069065
H85	H	1.023728	0.008032	0.069076
H86	H	1.386270	-0.733734	-0.000052
H87	H	1.330495	0.077472	0.293408
C88	C	1.517329	-0.221283	0.101796
C89	C	1.518142	-0.253221	-0.000013
H90	H	1.581813	-0.205120	0.101791
H91	H	1.461574	-0.198193	0.101791
H92	H	1.508066	-0.238878	0.170853
H93	H	1.527397	-0.235626	-0.069070
H94	H	1.573914	-0.276314	-0.000019
H95	H	0.956117	-0.403509	-0.000059
C96	C	1.510914	-0.053700	0.000021
C97	C	1.428724	-0.019656	0.000032
H98	H	1.575390	-0.037531	0.000013
H99	H	1.501650	-0.071287	0.069077
H100	H	1.511450	-0.075365	-0.069051
H101	H	1.428183	0.002007	0.069108
H102	H	1.437990	-0.002062	-0.069032
H103	H	0.957404	-0.343648	-0.000076
C104	C	1.438824	-0.157699	-0.101804
C105	C	1.426433	-0.125592	0.000010
H106	H	1.502564	-0.175768	-0.101802
H107	H	1.382101	-0.179117	-0.101804
H108	H	1.440228	-0.139985	-0.170858
H109	H	1.425021	-0.143306	0.069063
H110	H	1.483171	-0.104171	0.000020
C111	C	1.596173	-0.478995	-0.000046
C112	C	1.512539	-0.510563	-0.000054
H113	H	1.659894	-0.497078	-0.000044
H114	H	1.597583	-0.461290	-0.069102
H115	H	1.587767	-0.457213	0.069027
H116	H	1.520941	-0.532343	-0.069131
H117	H	1.511130	-0.528276	0.069009
H118	H	0.931804	0.031673	-0.000001
C119	C	0.775132	0.246150	0.101769
C120	C	0.721043	0.237111	-0.000037
H121	H	0.802939	0.277615	0.101752
H122	H	0.728621	0.244101	0.170820
H123	H	0.830529	0.222868	0.101765
H124	H	0.665641	0.260392	-0.000030
H125	H	0.767557	0.239165	-0.069106
C126	C	1.466221	0.020894	0.543642
C127	C	1.409676	0.044462	0.462616
H128	H	1.517371	-0.000434	0.501334
H129	H	1.499710	0.044163	0.592246
H130	H	1.419930	0.002960	0.592284
H131	H	1.455966	0.062398	0.413980
H132	H	1.376186	0.021190	0.413991
H133	H	1.489079	-0.351560	-0.000025
C134	C	1.053462	0.247847	0.507211
C135	C	1.035492	0.200456	0.537361
H136	H	1.002302	0.269172	0.549504
H137	H	1.121050	0.256894	0.527636
H138	H	1.049205	0.249614	0.424044
H139	H	1.039758	0.198688	0.620527
H140	H	0.967887	0.191406	0.516944
H141	H	1.372168	0.060103	0.706541
H142	H	1.388271	-0.642169	-0.000035
H143	H	0.513376	0.213252	-0.000022
H144	H	1.114681	0.167444	0.706592
H145	H	0.959403	-0.252098	-0.000070
H146	H	0.735790	0.021027	0.000023
C147	C	0.590259	0.014548	-0.101794
C148	C	0.549025	0.042441	0.000010
H149	H	0.562453	-0.016917	-0.101779
H150	H	0.572094	0.029391	-0.170847
H151	H	0.664196	0.012247	-0.101785
H152	H	0.475088	0.044745	-0.000003
H153	H	0.567182	0.027595	0.069081
H154	H	1.043518	-0.728625	-0.000045
H155	H	1.045507	-0.637077	-0.000064
H156	H	1.073006	0.184814	0.293426
C157	C	1.030678	-0.151644	-0.101812
C158	C	1.029838	-0.119710	0.000007
H159	H	0.966207	-0.167818	-0.101816
H160	H	1.039933	-0.134048	-0.170855
H161	H	1.086455	-0.174730	-0.101806
H162	H	0.974066	-0.096622	-0.000004
H163	H	1.020572	-0.137307	0.069067
C164	C	0.844868	-0.467804	-0.000089
C165	C	0.927052	-0.501849	-0.000083
H166	H	0.780392	-0.483972	-0.000116
H167	H	0.844314	-0.446143	0.068979
H168	H	0.854154	-0.450212	-0.069149
H169	H	0.917770	-0.519438	0.068982
H170	H	0.927604	-0.523517	-0.069158
