data_functionalizedCrystal
_audit_creation_method	'MofGen! by Chris Wilmer'
_symmetry_space_group_name_H-M	'P1'
_symmetry_Int_Tables_number	1
_symmetry_cell_setting	triclinic
loop_
_symmetry_equiv_pos_as_xyz
  x,y,z
_cell_length_a	14.044190
_cell_length_b	23.532407
_cell_length_c	12.503572
_cell_angle_alpha	86.506620
_cell_angle_beta	93.839403
_cell_angle_gamma	88.020262
loop_
_atom_site_label
_atom_site_type_symbol
_atom_site_fract_x
_atom_site_fract_y
_atom_site_fract_z
O1	O	0.109502	0.764497	-0.089263
O2	O	0.126142	0.599536	-0.089282
O3	O	-0.020138	0.679538	-0.089252
O4	O	0.255782	0.684496	-0.089293
O5	O	-0.009119	0.673522	0.089388
O6	O	0.137161	0.593521	0.089358
O7	O	0.120521	0.758481	0.089376
Cu8	Cu	0.129847	0.675452	0.105678
Cu9	Cu	0.116816	0.682566	-0.105584
O10	O	0.266801	0.678480	0.089346
C11	C	0.131227	0.575290	0.000036
C12	C	0.129953	0.512004	0.000030
C13	C	0.038135	0.240857	0.000073
C14	C	0.039318	0.300321	0.000072
O15	O	-0.033519	0.333115	0.000121
N16	N	0.126282	0.327663	0.000052
C17	C	0.212068	0.295537	0.000043
O18	O	0.286145	0.324253	0.000026
C19	C	0.210884	0.236073	0.000051
C20	C	0.123914	0.208735	0.000060
C21	C	-0.048828	0.213518	0.000083
C22	C	-0.050011	0.154058	0.000082
C23	C	0.035768	0.121936	0.000070
C24	C	0.122731	0.149275	0.000059
C25	C	0.296669	0.203948	0.000050
C26	C	0.295478	0.144480	0.000058
C27	C	0.208508	0.117142	0.000068
C28	C	0.207327	0.057693	0.000045
N29	N	0.120364	0.030351	0.000066
C30	C	0.034584	0.062473	0.000078
C31	C	0.214548	0.420414	0.000028
C32	C	0.215732	0.479877	0.000012
C33	C	0.042983	0.484657	0.000043
C34	C	0.041799	0.425194	0.000051
C35	C	0.127584	0.393072	0.000048
C36	C	0.032106	-0.062398	0.000074
C37	C	0.030930	-0.121864	0.000068
C38	C	0.203680	-0.126639	0.000042
C39	C	0.204856	-0.067179	0.000042
C40	C	0.119061	-0.035060	0.000062
O41	O	0.280126	0.024862	0.000001
O42	O	-0.039480	0.033748	0.000108
C43	C	-0.049923	0.674362	0.000071
C44	C	-0.155087	0.667894	0.000080
C45	C	-0.405697	0.701940	0.000041
C46	C	-0.347636	0.656080	0.000044
C47	C	-0.240492	0.662655	0.000064
C48	C	-0.512850	0.695367	0.000021
C49	C	0.296585	0.683656	0.000021
C50	C	0.401749	0.690124	0.000005
C51	C	0.115435	0.782728	0.000056
C52	C	0.116709	0.846014	0.000055
N53	N	0.139012	0.670452	0.254269
N54	N	0.107643	0.687570	-0.254174
C55	C	0.152502	0.663098	0.473381
C56	C	0.094156	0.694922	0.526720
C57	C	0.101662	0.690830	0.648642
C58	C	0.144997	0.667189	0.351448
H59	H	-0.026863	0.510822	0.000053
H60	H	-0.037756	-0.036254	0.000089
O61	O	0.218942	0.626964	0.528010
C62	C	0.310947	0.641995	0.500634
H63	H	0.305629	0.666629	0.418944
H64	H	0.357860	0.601747	0.496929
H65	H	0.343749	0.669760	0.563890
O66	O	-0.053637	-0.148331	0.000127
C67	C	-0.129092	-0.107223	0.000115
H68	H	-0.100835	-0.066676	0.033932
H69	H	-0.186645	-0.124474	0.051989
H70	H	-0.160811	-0.097278	-0.085583
O71	O	0.027636	0.731024	0.472129
C72	C	-0.064294	0.715951	0.499703
H73	H	-0.062258	0.669312	0.530633
H74	H	-0.116505	0.722491	0.425788
H75	H	-0.088455	0.743859	0.564981
H76	H	-0.378396	0.611880	0.000033
H77	H	0.275673	-0.044919	0.000033
O78	O	-0.134573	0.127594	0.000153
C79	C	-0.210021	0.168707	0.000142
H80	H	-0.181754	0.209255	0.033947
H81	H	-0.267571	0.151463	0.052027
H82	H	-0.241747	0.178649	-0.085554
H83	H	-0.118683	0.239666	0.000097
H84	H	-0.029020	0.402939	0.000060
O85	O	0.300266	0.506368	-0.000156
C86	C	0.346796	0.493501	-0.092699
H87	H	0.319458	0.452048	-0.123538
H88	H	0.427054	0.488569	-0.071907
H89	H	0.331501	0.529480	-0.157482
O90	O	0.381239	0.230402	0.000096
C91	C	0.456682	0.189289	0.000069
H92	H	0.432583	0.146468	0.033887
H93	H	0.520632	0.203043	0.051935
H94	H	0.477837	0.185111	-0.085633
O95	O	0.297815	0.389158	-0.000138
C96	C	0.296603	0.357743	-0.092670
H97	H	0.219531	0.351941	-0.123495
H98	H	0.333623	0.314219	-0.071870
H99	H	0.335675	0.381663	-0.157468
O100	O	0.378742	0.113222	-0.000092
C101	C	0.377535	0.081808	-0.092626
H102	H	0.300465	0.076011	-0.123462
H103	H	0.414547	0.038282	-0.071823
H104	H	0.416618	0.105726	-0.157416
H105	H	0.273518	-0.152803	0.000026
H106	H	-0.374938	0.746137	0.000057
