data_functionalizedCrystal
_audit_creation_method	'MofGen! by Chris Wilmer'
_symmetry_space_group_name_H-M	'P1'
_symmetry_Int_Tables_number	1
_symmetry_cell_setting	triclinic
loop_
_symmetry_equiv_pos_as_xyz
  x,y,z
_cell_length_a	11.169417
_cell_length_b	16.120444
_cell_length_c	11.169409
_cell_angle_alpha	92.861568
_cell_angle_beta	89.979436
_cell_angle_gamma	92.927304
loop_
_atom_site_label
_atom_site_type_symbol
_atom_site_fract_x
_atom_site_fract_y
_atom_site_fract_z
Zn1	Zn	1.810616	-0.331820	-0.702712
Zn2	Zn	2.310616	0.168180	-0.202712
Zn3	Zn	1.800268	-0.471263	-0.512185
Zn4	Zn	2.300268	0.028737	-0.012185
Zn5	Zn	1.609896	-0.331871	-0.502050
Zn6	Zn	2.109896	0.168129	-0.002050
Zn7	Zn	1.599680	-0.471196	-0.712825
Zn8	Zn	2.099680	0.028804	-0.212825
O9	O	1.705115	-0.401538	-0.607443
O10	O	2.205115	0.098462	-0.107443
O11	O	1.977193	-0.350325	-0.677447
O12	O	2.477193	0.149675	-0.177447
O13	O	1.774960	-0.452822	-0.342894
O14	O	2.274960	0.047178	0.157106
O15	O	1.645128	-0.215199	-0.520194
O16	O	2.145128	0.284801	-0.020194
O17	O	1.969590	-0.452773	-0.537468
O18	O	2.469590	0.047227	-0.037468
O19	O	1.792596	-0.215161	-0.667619
O20	O	2.292596	0.284839	-0.167619
O21	O	1.635094	-0.350411	-0.335448
O22	O	2.135094	0.149589	0.164552
O23	O	1.440591	-0.350345	-0.530000
O24	O	1.940591	0.149655	-0.030000
O25	O	1.627716	-0.452658	-0.879430
O26	O	2.127716	0.047342	-0.379430
O27	O	1.433086	-0.452707	-0.684856
O28	O	1.933086	0.047293	-0.184856
O29	O	1.782690	-0.350259	-0.871999
O30	O	2.282690	0.149741	-0.371999
O31	O	1.765053	-0.587920	-0.547275
O32	O	2.265053	-0.087920	-0.047275
O33	O	1.617682	-0.587870	-0.694684
O34	O	2.117682	-0.087870	-0.194684
C35	C	1.393291	-0.401525	-0.607426
C36	C	1.893291	0.098475	-0.107426
C37	C	1.259890	-0.401540	-0.607449
C38	C	1.759890	0.098460	-0.107449
C39	C	1.689169	-0.618145	-0.623203
C40	C	2.189169	-0.118145	-0.123203
C41	C	1.682457	-0.710811	-0.629985
C42	C	2.182457	-0.210811	-0.129985
C43	C	1.740228	-0.921757	-0.572517
C44	C	2.240228	-0.421757	-0.072517
C45	C	1.670224	-0.880467	-0.642381
C46	C	2.170224	-0.380467	-0.142381
C47	C	1.677033	-0.786061	-0.635482
C48	C	2.177033	-0.286061	-0.135482
C49	C	1.733421	-1.016171	-0.579415
C50	C	2.233421	-0.516171	-0.079415
C51	C	2.018156	-0.401551	-0.607460
C52	C	2.518156	0.098449	-0.107460
C53	C	2.151556	-0.401556	-0.607467
C54	C	2.651556	0.098444	-0.107467
C55	C	1.705218	-0.401445	-0.920479
C56	C	2.205218	0.098555	-0.420479
C57	C	1.705262	-0.401406	-1.053876
C58	C	2.205262	0.098594	-0.553876
C59	C	1.721156	-0.184084	-0.591648
C60	C	2.221156	0.315916	-0.091648
C61	C	1.727992	-0.091418	-0.584917
C62	C	2.227992	0.408582	-0.084917
C63	C	1.705086	-0.401569	-0.295620
C64	C	2.205086	0.098431	0.204380
C65	C	1.705292	-0.401374	-0.162207
C66	C	2.205292	0.098626	0.337793
H67	H	1.605179	-0.916018	-0.707373
H68	H	2.105179	-0.416018	-0.207373
O69	O	1.826383	-0.874678	-0.486425
O70	O	2.326383	-0.374678	0.013575
H71	H	1.919396	-0.891254	-0.508284
H72	H	2.419396	-0.391254	-0.008284
