data_functionalizedCrystal
_audit_creation_method	'MofGen! by Chris Wilmer'
_symmetry_space_group_name_H-M	'P1'
_symmetry_Int_Tables_number	1
_symmetry_cell_setting	triclinic
loop_
_symmetry_equiv_pos_as_xyz
  x,y,z
_cell_length_a	14.971486
_cell_length_b	13.339070
_cell_length_c	14.048226
_cell_angle_alpha	89.996915
_cell_angle_beta	89.998499
_cell_angle_gamma	99.621712
loop_
_atom_site_label
_atom_site_type_symbol
_atom_site_fract_x
_atom_site_fract_y
_atom_site_fract_z
O1	O	1.219550	0.131873	-0.079045
O2	O	1.719550	0.631873	0.420955
O3	O	0.963054	0.147665	-0.079070
O4	O	1.463054	0.647665	0.420930
O5	O	1.061865	-0.007530	-0.079057
O6	O	1.561865	0.492470	0.420943
O7	O	1.120740	0.287068	-0.079057
O8	O	1.620740	0.787068	0.420943
O9	O	1.061846	-0.007539	0.079264
O10	O	1.561846	0.492461	0.579264
O11	O	0.963035	0.147656	0.079251
O12	O	1.463035	0.647656	0.579251
O13	O	1.219531	0.131864	0.079276
O14	O	1.719531	0.631864	0.579276
Zn15	Zn	1.091280	0.139758	0.104401
Zn16	Zn	1.591280	0.639758	0.604401
Zn17	Zn	1.091305	0.139770	-0.104194
Zn18	Zn	1.591305	0.639770	0.395806
O19	O	1.120721	0.287059	0.079264
O20	O	1.620721	0.787059	0.579264
C21	C	0.929545	0.146954	0.000087
C22	C	1.429545	0.646954	0.500087
C23	C	0.829725	0.144838	0.000077
C24	C	1.329725	0.644838	0.500077
C25	C	1.051910	-0.045236	0.000101
C26	C	1.551910	0.454764	0.500101
C27	C	1.022266	-0.157574	0.000094
C28	C	1.522266	0.342426	0.500094
C29	C	0.795041	0.236011	0.000079
C30	C	1.295041	0.736011	0.500079
C31	C	0.701248	0.234016	0.000093
C32	C	1.201248	0.734016	0.500093
C33	C	0.642141	0.140847	0.000099
C34	C	1.142141	0.640847	0.500099
C35	C	0.676832	0.049667	0.000101
C36	C	1.176832	0.549667	0.500101
C37	C	0.770623	0.051663	0.000093
C38	C	1.270623	0.551663	0.500093
C39	C	0.481342	0.045514	0.000114
C40	C	0.981342	0.545514	0.500114
C41	C	0.387545	0.043518	0.000119
C42	C	0.887545	0.543518	0.500119
C43	C	0.411968	0.227867	0.000114
C44	C	0.911968	0.727867	0.500114
C45	C	0.505759	0.229863	0.000106
C46	C	1.005759	0.729863	0.500106
C47	C	0.540442	0.138682	0.000106
C48	C	1.040442	0.638682	0.500106
C49	C	1.252762	-0.522088	0.000117
C50	C	1.752762	-0.022088	0.500117
C51	C	1.280617	-0.416541	0.000129
C52	C	1.780617	0.083459	0.500129
C53	C	1.216032	-0.351794	0.000120
C54	C	1.716032	0.148206	0.500120
C55	C	1.123587	-0.392604	0.000100
C56	C	1.623587	0.107396	0.500100
C57	C	1.095729	-0.498161	0.000096
C58	C	1.595729	0.001839	0.500096
C59	C	1.058999	-0.327867	0.000098
C60	C	1.558999	0.172133	0.500098
C61	C	0.966554	-0.368677	0.000078
C62	C	1.466554	0.131323	0.500078
C63	C	0.938701	-0.474224	0.000073
C64	C	1.438701	0.025776	0.500073
C65	C	1.003286	-0.538970	0.000082
C66	C	1.503286	-0.038970	0.500082
C67	C	1.086856	-0.222311	0.000102
C68	C	1.586856	0.277689	0.500102
C69	C	0.929823	-0.198383	0.000081
C70	C	1.429823	0.301617	0.500081
C71	C	0.901968	-0.303930	0.000069
C72	C	1.401968	0.196070	0.500069
C73	C	1.253040	0.132575	0.000117
C74	C	1.753040	0.632575	0.500117
C75	C	1.352860	0.134691	0.000121
C76	C	1.852860	0.634691	0.500121
C77	C	1.130675	0.324765	0.000103
C78	C	1.630675	0.824765	0.500103
C79	C	1.160319	0.437102	0.000104
C80	C	1.660319	0.937102	0.500104
N81	N	1.091270	0.139749	0.246761
N82	N	1.591270	0.639749	0.746761
N83	N	1.091321	0.139771	-0.246555
N84	N	1.591321	0.639771	0.253445
C85	C	1.135049	0.071057	0.296585
C86	C	1.635049	0.571057	0.796585
C87	C	1.135055	0.071057	0.396243
C88	C	1.635055	0.571057	0.896243
C89	C	1.091287	0.139754	0.446075
C90	C	1.591287	0.639754	0.946075
C91	C	1.047502	0.208449	0.396244
C92	C	1.547502	0.708449	0.896244
C93	C	1.047491	0.208444	0.296589
C94	C	1.547491	0.708444	0.796589
C95	C	1.047529	0.208457	0.603959
C96	C	1.547529	0.708457	1.103959
C97	C	1.047541	0.208463	0.703621
C98	C	1.547541	0.708463	1.203621
C99	C	1.135094	0.071069	0.703613
C100	C	1.635094	0.571069	1.203613
C101	C	1.135083	0.071064	0.603957
C102	C	1.635083	0.571064	1.103957
C103	C	1.091299	0.139761	0.554133
C104	C	1.591299	0.639761	1.054133
H105	H	0.843160	0.311879	0.000073
H106	H	1.343160	0.811879	0.500073
Cl107	Cl	1.190113	-0.015292	0.541309
Cl108	Cl	1.690113	0.484708	1.041309
Cl109	Cl	1.396828	-0.365245	0.000133
Cl110	Cl	1.896828	0.134755	0.500133
H111	H	1.170695	0.015121	0.256018
H112	H	1.670695	0.515121	0.756018
Cl113	Cl	1.333944	-0.603486	0.000146
Cl114	Cl	1.833944	-0.103486	0.500146
H115	H	1.011899	0.264403	0.744190
H116	H	1.511899	0.764403	1.244190
H117	H	1.162125	-0.189094	0.000119
H118	H	1.662125	0.310906	0.500119
H119	H	0.980611	-0.624916	0.000069
H120	H	1.480611	-0.124916	0.500069
Cl121	Cl	1.251051	-0.219106	0.000129
Cl122	Cl	1.751051	0.280894	0.500129
H123	H	0.863426	-0.507447	0.000064
H124	H	1.363426	-0.007447	0.500064
Cl125	Cl	0.785755	-0.355246	0.000042
Cl126	Cl	1.285755	0.144754	0.500042
Cl127	Cl	1.190092	-0.015301	0.458880
Cl128	Cl	1.690092	0.484699	0.958880
H129	H	0.339422	-0.032348	0.000125
H130	H	0.839422	0.467652	0.500125
Cl131	Cl	0.524943	-0.069115	0.000115
Cl132	Cl	1.024943	0.430885	0.500115
Cl133	Cl	1.190137	-0.015289	0.766251
Cl134	Cl	1.690137	0.484711	1.266251
Cl135	Cl	0.992482	0.294818	0.541327
Cl136	Cl	1.492482	0.794818	1.041327
Cl137	Cl	0.814226	-0.062959	0.000096
Cl138	Cl	1.314226	0.437041	0.500096
Cl139	Cl	0.602526	-0.067460	0.000114
Cl140	Cl	1.102526	0.432540	0.500114
Cl141	Cl	0.992472	0.294808	0.458888
Cl142	Cl	1.492472	0.794808	0.958888
H143	H	0.673013	0.308258	0.000093
H144	H	1.173013	0.808258	0.500093
Cl145	Cl	0.992447	0.294800	0.233954
Cl146	Cl	1.492447	0.794800	0.733954
Cl147	Cl	0.580063	0.346991	0.000088
Cl148	Cl	1.080063	0.846991	0.500088
H149	H	0.383724	0.302110	0.000118
H150	H	0.883724	0.802110	0.500118
H151	H	0.877232	-0.145666	0.000078
H152	H	1.377232	0.354334	0.500078
