data_functionalizedCrystal
_audit_creation_method	'MofGen! by Chris Wilmer'
_symmetry_space_group_name_H-M	'P1'
_symmetry_Int_Tables_number	1
_symmetry_cell_setting	triclinic
loop_
_symmetry_equiv_pos_as_xyz
  x,y,z
_cell_length_a	10.654550
_cell_length_b	10.654548
_cell_length_c	9.730223
_cell_angle_alpha	90.003560
_cell_angle_beta	90.003698
_cell_angle_gamma	84.484465
loop_
_atom_site_label
_atom_site_type_symbol
_atom_site_fract_x
_atom_site_fract_y
_atom_site_fract_z
O1	O	-1.667833	-0.176392	-0.114413
O2	O	-1.302354	-0.193198	-0.114392
O3	O	-1.493498	-0.002056	-0.114384
O4	O	-1.476689	-0.367535	-0.114421
O5	O	-1.493496	-0.002063	0.114196
O6	O	-1.302352	-0.193206	0.114188
O7	O	-1.667830	-0.176399	0.114167
Zn8	Zn	-1.485091	-0.184804	0.150469
Zn9	Zn	-1.485094	-0.184794	-0.150694
O10	O	-1.476687	-0.367542	0.114159
C11	C	-1.255555	-0.191968	-0.000099
C12	C	-1.116112	-0.188276	-0.000090
C13	C	-1.492263	0.044739	-0.000092
C14	C	-1.488572	0.184182	-0.000085
C15	C	-1.714629	-0.177630	-0.000129
C16	C	-1.854073	-0.181322	-0.000147
C17	C	-1.036625	-0.300818	-0.000122
C18	C	-0.905604	-0.297341	-0.000145
C19	C	-0.933570	-0.068771	-0.000111
C20	C	-1.064588	-0.072249	-0.000078
C21	C	-1.020479	-0.432781	-0.000148
C22	C	-0.889458	-0.429304	-0.000171
N23	N	-1.485098	-0.184810	0.356006
C24	C	-1.483360	0.380731	0.124500
C25	C	-1.486832	0.249710	0.124511
C26	C	-1.486828	0.249681	-0.124700
C27	C	-1.483348	0.380699	-0.124709
C28	C	-1.483368	0.380748	0.268380
C29	C	-1.486839	0.249726	0.268391
C30	C	-1.477923	0.585664	-0.000125
C31	C	-1.481620	0.446221	-0.000105
C32	C	-1.569758	-0.100202	0.427936
C33	C	-1.569755	-0.100188	0.571819
C34	C	-1.400427	-0.269402	0.571829
C35	C	-1.400425	-0.269408	0.427949
C36	C	-1.667522	-0.002511	0.427931
C37	C	-1.667519	-0.002497	0.571813
N38	N	-1.485096	-0.184790	0.643769
H39	H	-1.129302	0.019393	-0.000032
H40	H	-1.331477	-0.338292	0.369385
H41	H	-1.056135	-0.474797	-0.098839
H42	H	-0.891602	0.025694	-0.000122
H43	H	-1.049808	-0.484394	0.095513
N44	N	-1.368368	0.181229	0.327551
H45	H	-1.390614	0.130571	0.410277
H46	H	-1.326600	0.122790	0.255789
H47	H	-0.843785	-0.469188	0.098509
H48	H	-0.847726	-0.479023	-0.095844
N49	N	-1.481585	0.451351	-0.259102
H50	H	-1.483256	0.389965	-0.338032
H51	H	-1.557905	0.515173	-0.264445
N52	N	-1.639117	0.125349	0.376198
H53	H	-1.711927	0.163326	0.318523
H54	H	-1.626410	0.182315	0.456963
N55	N	-1.309101	-0.360640	0.649425
H56	H	-1.321944	-0.347796	0.751488
H57	H	-1.324373	-0.449877	0.624279
H58	H	-1.488232	0.196316	-0.226148
H59	H	-1.394692	0.405574	0.323631
N60	N	-1.788298	-0.043025	0.368789
H61	H	-1.846657	-0.062594	0.446040
H62	H	-1.830398	0.027199	0.310334
N63	N	-1.627138	0.118347	0.630932
H64	H	-1.538879	0.130181	0.598912
H65	H	-1.686954	0.191795	0.598868
H66	H	-1.575519	0.224909	0.323629
N67	N	-1.601828	0.449273	0.327514
H68	H	-1.643646	0.507768	0.255830
H69	H	-1.661536	0.385937	0.356100
N70	N	-1.795353	-0.031001	0.623539
H71	H	-1.814407	-0.116522	0.588976
H72	H	-1.795316	-0.030930	0.727335
