data_functionalizedCrystal
_audit_creation_method	'MofGen! by Chris Wilmer'
_symmetry_space_group_name_H-M	'P1'
_symmetry_Int_Tables_number	1
_symmetry_cell_setting	triclinic
loop_
_symmetry_equiv_pos_as_xyz
  x,y,z
_cell_length_a	15.944551
_cell_length_b	10.654541
_cell_length_c	9.130307
_cell_angle_alpha	89.996917
_cell_angle_beta	90.002971
_cell_angle_gamma	83.991333
loop_
_atom_site_label
_atom_site_type_symbol
_atom_site_fract_x
_atom_site_fract_y
_atom_site_fract_z
O1	O	1.115457	0.161964	-0.121646
O2	O	0.871023	0.181933	-0.121682
O3	O	0.998861	-0.010863	-0.121654
O4	O	0.987619	0.354761	-0.121674
O5	O	0.998857	-0.010865	0.121945
O6	O	0.871019	0.181931	0.121917
O7	O	1.115453	0.161963	0.121953
Cu8	Cu	0.993236	0.171947	0.144177
Cu9	Cu	0.993240	0.171949	-0.143907
O10	O	0.987615	0.354759	0.121925
C11	C	0.839722	0.181103	0.000113
C12	C	0.746462	0.178618	0.000099
C13	C	0.998034	-0.057652	0.000144
C14	C	0.995566	-0.197063	0.000141
C15	C	1.148431	-0.227012	0.000183
C16	C	1.223700	-0.307480	0.000206
C17	C	1.221376	-0.438468	0.000201
C18	C	1.143774	-0.488989	0.000168
C19	C	1.068504	-0.408521	0.000145
C20	C	1.070837	-0.277532	0.000154
C21	C	0.915641	-0.378573	0.000093
C22	C	0.917963	-0.247584	0.000109
C23	C	0.838039	-0.429094	0.000060
C24	C	0.762767	-0.348625	0.000047
C25	C	0.765095	-0.217630	0.000054
C26	C	0.842694	-0.167116	0.000085
C27	C	0.530880	0.053173	0.000134
C28	C	0.470199	0.111426	-0.119976
C29	C	0.575710	0.174122	0.000116
C30	C	0.470217	0.111453	0.120193
C31	C	0.410772	0.169770	0.000140
C32	C	0.516257	0.232408	-0.120093
C33	C	0.516282	0.232418	0.120184
C34	C	0.455618	0.290760	0.000045
C35	C	0.670727	0.176625	0.000102
C36	C	0.315756	0.167276	0.000144
C37	C	1.146754	0.162793	0.000155
C38	C	1.240014	0.165278	0.000159
C39	C	0.988442	0.401548	0.000123
C40	C	0.990910	0.540959	0.000117
N41	N	0.993238	0.171945	0.346800
N42	N	0.993244	0.171941	-0.346529
C43	C	1.106485	0.001272	0.346815
C44	C	1.163115	-0.084060	0.423489
C45	C	1.163123	-0.084061	0.576823
C46	C	1.106494	0.001277	0.653485
C47	C	1.049865	0.086610	0.576811
C48	C	1.049865	0.086604	0.423474
C49	C	0.936615	0.257274	0.576797
C50	C	0.936609	0.257283	0.423463
C51	C	0.879987	0.342612	0.653459
C52	C	0.823360	0.427953	0.576785
C53	C	0.823355	0.427951	0.423443
C54	C	0.879980	0.342616	0.346789
H55	H	1.150331	-0.120356	0.000206
O56	O	1.218167	-0.166783	0.651468
C57	C	1.270386	-0.099468	0.740127
H58	H	1.237499	-0.001231	0.763087
H59	H	1.283375	-0.151869	0.847958
H60	H	1.332510	-0.090872	0.681032
O61	O	0.879855	0.342744	0.802406
C62	C	0.817747	0.436382	0.853624
H63	H	0.767835	0.458225	0.765259
H64	H	0.786948	0.400971	0.956211
H65	H	0.848235	0.525664	0.880819
H66	H	0.844597	-0.060461	0.000099
O67	O	1.299100	-0.258460	-0.000024
C68	C	1.345047	-0.299594	-0.126155
H69	H	1.299691	-0.326839	-0.214349
H70	H	1.381248	-0.220239	-0.168490
H71	H	1.391354	-0.384963	-0.097620
O72	O	0.445786	0.050579	0.241380
C73	C	0.390391	0.133800	0.325181
H74	H	0.359875	0.212260	0.251771
H75	H	0.339367	0.079807	0.375227
H76	H	0.427137	0.176627	0.416308
H77	H	0.777253	0.497424	0.639214
O78	O	1.106637	0.001273	0.197868
C79	C	1.186502	0.026927	0.146646
H80	H	1.235842	0.001244	0.235012
H81	H	1.203363	-0.031306	0.044064
H82	H	1.184883	0.131584	0.119440
O83	O	0.692032	-0.139340	0.000224
C84	C	0.688778	-0.062707	0.126409
H85	H	0.755483	-0.056081	0.168500
H86	H	0.658065	0.035741	0.098027
H87	H	0.650154	-0.105811	0.214732
O88	O	0.569897	-0.066608	-0.000260
C89	C	0.546535	-0.129918	-0.127118
H90	H	0.524954	-0.057824	-0.215187
H91	H	0.602951	-0.194502	-0.169039
H92	H	0.492813	-0.188620	-0.099710
O93	O	0.540635	0.293211	0.241470
C94	C	0.517411	0.229131	0.367865
H95	H	0.510053	0.126746	0.339094
H96	H	0.568357	0.232197	0.455020
H97	H	0.455047	0.276630	0.411688
H98	H	0.449794	0.060271	-0.221516
H99	H	1.209220	-0.153545	0.361057
H100	H	0.879984	0.342611	0.221937
O101	O	0.540597	0.293304	-0.241329
C102	C	0.628904	0.294889	-0.239888
H103	H	0.658635	0.214273	-0.168704
H104	H	0.654284	0.283018	-0.356341
H105	H	0.645199	0.388657	-0.193458
O106	O	0.416784	0.410649	-0.000293
C107	C	0.440281	0.473939	-0.127078
H108	H	0.461768	0.401843	-0.215185
H109	H	0.383965	0.538741	-0.168999
H110	H	0.494107	0.532411	-0.099574
H111	H	1.106498	0.001261	0.778338
H112	H	0.777237	0.497435	0.361022
O113	O	0.687373	-0.397642	-0.000248
C114	C	0.641442	-0.356484	-0.126401
H115	H	0.686808	-0.329217	-0.214560
H116	H	0.605249	-0.435833	-0.168775
H117	H	0.595128	-0.271124	-0.097879
H118	H	1.282667	-0.503986	0.000209
H119	H	1.141888	-0.595648	0.000146
H120	H	0.836151	-0.535752	0.000047
