data_functionalizedCrystal
_audit_creation_method	'MofGen! by Chris Wilmer'
_symmetry_space_group_name_H-M	'P1'
_symmetry_Int_Tables_number	1
_symmetry_cell_setting	triclinic
loop_
_symmetry_equiv_pos_as_xyz
  x,y,z
_cell_length_a	6.817900
_cell_length_b	12.200863
_cell_length_c	10.992410
_cell_angle_alpha	92.441369
_cell_angle_beta	108.764651
_cell_angle_gamma	107.143441
loop_
_atom_site_label
_atom_site_type_symbol
_atom_site_fract_x
_atom_site_fract_y
_atom_site_fract_z
V1	V	-4.105850	-0.158712	-0.400724
O2	O	-4.072780	0.007627	-0.392961
O3	O	-4.075174	-0.314700	-0.398112
O4	O	-4.083571	-0.156271	-0.575434
O5	O	-4.064325	-0.151899	-0.214412
V6	V	-4.583796	-0.138816	-0.378424
O7	O	-4.379341	-0.202356	-0.449641
O8	O	-4.760503	-0.095173	-0.329506
O9	O	-4.391265	0.017171	-0.381035
O10	O	-4.734263	-0.305156	-0.386186
O11	O	-4.742718	-0.145630	-0.564736
O12	O	-4.382868	-0.141258	-0.203713
C13	C	-3.923642	-0.352727	-0.391824
C14	C	-3.980022	-0.480248	-0.390853
C15	C	-3.934351	-0.150633	-0.618014
C16	C	-3.997537	-0.149669	-0.760842
C17	C	-4.083210	-0.713725	-0.389087
C18	C	-4.025781	-0.583802	-0.390070
C19	C	-3.865124	-0.140887	-0.955958
C20	C	-3.799496	-0.142364	-0.807476
C21	C	-4.189568	-0.262775	-0.838039
C22	C	-4.253934	-0.261775	-0.986604
C23	C	-4.143289	-0.042761	-0.948392
C24	C	-4.072609	-0.042225	-0.799379
C25	C	-4.206140	0.055192	-0.387320
C26	C	-4.128999	0.182712	-0.388299
C27	C	-4.195430	-0.146899	-0.161126
C28	C	-4.111482	-0.147857	-0.018298
H29	H	-3.655344	-0.061037	-0.754068
H30	H	-4.234161	-0.341351	-1.032940
H31	H	-3.933782	0.041445	-0.746952
H32	H	-3.752254	-0.059000	-0.974720
H33	H	-4.339444	-0.272205	-0.809243
H34	H	-4.139585	-0.342547	-0.812499
C35	C	-4.499102	-0.275070	-1.044230
C36	C	-4.571506	-0.179668	-1.114921
C37	C	-4.816673	-0.192980	-1.172547
C38	C	-4.989435	-0.301694	-1.159483
C39	C	-4.917035	-0.397104	-1.088789
C40	C	-4.671869	-0.383792	-1.031163
H41	H	-4.443613	-0.099184	-1.124594
H42	H	-4.870267	-0.122351	-1.224879
H43	H	-5.170922	-0.311549	-1.202141
H44	H	-5.044928	-0.477588	-1.079115
H45	H	-4.618275	-0.454422	-0.978831
H46	H	-3.836191	-0.216399	-1.004012
C47	C	-3.716778	-0.245795	-0.774029
C48	C	-3.869092	-0.370388	-0.834693
C49	C	-3.786377	-0.473825	-0.801251
C50	C	-3.551348	-0.452670	-0.707145
C51	C	-3.399019	-0.328071	-0.646475
C52	C	-3.481735	-0.224634	-0.679917
H53	H	-4.043088	-0.386053	-0.904361
H54	H	-3.899142	-0.566061	-0.846163
H55	H	-3.490117	-0.529240	-0.682389
H56	H	-3.225024	-0.312406	-0.576807
H57	H	-3.368970	-0.132398	-0.635005
C58	C	-4.010372	0.073282	-0.975763
C59	C	-3.759531	0.106926	-0.934937
C60	C	-3.626582	0.222965	-0.962296
C61	C	-3.744474	0.305360	-1.030480
C62	C	-3.995330	0.271717	-1.071310
C63	C	-4.128279	0.155678	-1.043951
H64	H	-3.672247	0.045931	-0.884459
H65	H	-3.440881	0.247869	-0.932071
H66	H	-3.646057	0.391259	-1.050733
H67	H	-4.082613	0.332713	-1.121787
H68	H	-4.313979	0.130774	-1.074176
H69	H	-4.214792	-0.040897	-0.766866
H70	H	-4.322056	-0.046872	-0.989236
