data_functionalizedCrystal
_audit_creation_method	'MofGen! by Chris Wilmer'
_symmetry_space_group_name_H-M	'P1'
_symmetry_Int_Tables_number	1
_symmetry_cell_setting	triclinic
loop_
_symmetry_equiv_pos_as_xyz
  x,y,z
_cell_length_a	19.188925
_cell_length_b	19.188930
_cell_length_c	15.072220
_cell_angle_alpha	89.993728
_cell_angle_beta	89.986568
_cell_angle_gamma	83.143665
loop_
_atom_site_label
_atom_site_type_symbol
_atom_site_fract_x
_atom_site_fract_y
_atom_site_fract_z
O1	O	0.926156	0.087145	-0.073812
O2	O	0.722844	0.098883	-0.073810
O3	O	0.830367	-0.008642	-0.073794
O4	O	0.818633	0.194670	-0.073828
O5	O	0.830341	-0.008636	0.073771
O6	O	0.722818	0.098889	0.073755
O7	O	0.926129	0.087151	0.073754
Zn8	Zn	0.824469	0.093021	0.097183
Zn9	Zn	0.824504	0.093013	-0.097240
O10	O	0.818606	0.194676	0.073737
C11	C	0.696820	0.098507	-0.000027
C12	C	0.619315	0.097367	-0.000026
C13	C	0.057545	0.152831	-0.000038
C14	C	0.130368	0.153908	-0.000043
C15	C	0.175302	0.090816	-0.000030
C16	C	0.147408	0.026642	-0.000036
C17	C	0.074586	0.025568	-0.000040
N18	N	0.295971	0.045142	0.050210
N19	N	0.365148	0.046167	0.050215
C20	C	0.394712	0.094050	-0.000021
N21	N	0.352483	0.140880	-0.050251
N22	N	0.283299	0.139856	-0.050253
C23	C	0.254267	0.091974	-0.000027
C24	C	0.501561	0.159386	-0.000027
C25	C	0.574385	0.160460	-0.000037
C26	C	0.591425	0.033193	-0.000021
C27	C	0.518601	0.032121	-0.000020
C28	C	0.473673	0.095220	-0.000018
C29	C	0.829974	-0.034650	-0.000009
C30	C	0.828833	-0.112154	-0.000001
C31	C	0.891924	-0.157079	0.000003
C32	C	0.890852	-0.229903	-0.000011
C33	C	0.826686	-0.257799	-0.000012
C34	C	0.763587	-0.212864	-0.000020
C35	C	0.764660	-0.140041	-0.000015
N36	N	0.777630	-0.365801	0.050208
N37	N	0.776614	-0.434979	0.050205
C38	C	0.823448	-0.477207	-0.000029
N39	N	0.871346	-0.447645	-0.050249
N40	N	0.872364	-0.378460	-0.050242
C41	C	0.825515	-0.336761	-0.000018
C42	C	0.885381	-0.601097	-0.000042
C43	C	0.884307	-0.673922	-0.000062
C44	C	0.757040	-0.656880	-0.000062
C45	C	0.758116	-0.584057	-0.000051
C46	C	0.822289	-0.556170	-0.000037
C47	C	0.952154	0.087527	-0.000031
C48	C	1.029658	0.088666	-0.000038
C49	C	0.819000	0.220684	-0.000050
C50	C	0.820140	0.298188	-0.000064
N51	N	0.824450	0.093026	0.229872
N52	N	0.824528	0.093002	-0.229929
C53	C	0.824503	0.093010	0.589074
C54	C	0.766777	0.150353	0.551458
C55	C	0.766909	0.150561	0.448632
C56	C	0.824476	0.093018	0.410870
C57	C	0.897279	0.108706	0.448157
C58	C	0.896955	0.109113	0.551015
C59	C	0.810076	0.019808	0.551187
C60	C	0.808403	0.020302	0.448323
C61	C	0.824466	0.093021	0.310156
C62	C	0.824518	0.093009	0.689787
H63	H	0.944179	-0.134379	0.000011
H64	H	0.909702	0.162492	0.574987
H65	H	0.628010	-0.018178	-0.000018
H66	H	0.935686	-0.710500	-0.000064
H67	H	0.758153	0.004668	0.577180
H68	H	0.464978	0.210765	-0.000027
H69	H	0.183999	-0.024728	-0.000028
H70	H	0.153078	0.206160	-0.000034
H71	H	0.776098	0.204888	0.424009
H72	H	0.051883	-0.026685	-0.000040
H73	H	0.495896	-0.020129	-0.000015
H74	H	0.704794	-0.679592	-0.000067
H75	H	0.942230	-0.266488	-0.000012
H76	H	0.941240	0.068982	0.575896
H77	H	0.597088	0.212713	-0.000044
H78	H	0.711342	-0.235581	-0.000023
H79	H	0.706740	-0.547478	-0.000050
H80	H	0.941251	0.068042	0.423694
H81	H	0.713282	-0.103462	-0.000018
H82	H	0.937635	-0.578390	-0.000035
H83	H	0.910336	0.161475	0.422379
H84	H	0.712786	0.141247	0.423423
H85	H	0.712479	0.141196	0.576222
H86	H	0.775839	0.204374	0.577287
H87	H	0.754849	0.008391	0.423954
H88	H	0.852175	-0.022862	0.575512
H89	H	0.020968	0.204211	-0.000041
H90	H	0.847733	-0.024352	0.422622
