data_functionalizedCrystal
_audit_creation_method	'MofGen! by Chris Wilmer'
_symmetry_space_group_name_H-M	'P1'
_symmetry_Int_Tables_number	1
_symmetry_cell_setting	triclinic
loop_
_symmetry_equiv_pos_as_xyz
  x,y,z
_cell_length_a	34.408637
_cell_length_b	34.407814
_cell_length_c	34.404193
_cell_angle_alpha	60.004510
_cell_angle_beta	60.009006
_cell_angle_gamma	59.994604
loop_
_atom_site_label
_atom_site_type_symbol
_atom_site_fract_x
_atom_site_fract_y
_atom_site_fract_z
O1	O	0.053973	-0.567860	0.474801
O2	O	0.553973	-0.067860	0.974801
O3	O	0.020377	-0.442124	0.382567
O4	O	0.520377	0.057876	0.882567
O5	O	0.100004	-0.521670	0.382483
O6	O	0.600004	-0.021670	0.882483
O7	O	-0.025653	-0.488314	0.474886
O8	O	0.474347	0.011686	0.974886
O9	O	0.126426	-0.495253	0.408816
O10	O	0.626426	0.004747	0.908816
O11	O	0.046800	-0.415707	0.408900
O12	O	0.546800	0.084293	0.908900
O13	O	0.080396	-0.541443	0.501134
O14	O	0.580396	-0.041443	1.001134
Zn15	Zn	0.067793	-0.474381	0.459198
Zn16	Zn	0.567793	0.025619	0.959198
Zn17	Zn	0.032980	-0.509186	0.424503
Zn18	Zn	0.532980	-0.009186	0.924503
O19	O	0.000769	-0.461897	0.501219
O20	O	0.500769	0.038103	1.001219
N21	N	0.091552	-0.450631	0.482879
N22	N	0.591552	0.049369	0.982879
N23	N	0.009225	-0.532940	0.400823
N24	N	0.509225	-0.032940	0.900823
C25	C	0.142848	-0.268847	0.534081
C26	C	0.642848	0.231153	1.034081
C27	C	0.142979	-0.399386	0.664559
C28	C	0.642979	0.100614	1.164559
C29	C	0.142862	-0.399365	0.534081
C30	C	0.642862	0.100635	1.034081
C31	C	0.273409	-0.399338	0.533986
C32	C	0.773409	0.100662	1.033986
C33	C	0.157225	-0.311914	0.548422
C34	C	0.657225	0.188086	1.048422
C35	C	0.157300	-0.385019	0.621491
C36	C	0.657300	0.114981	1.121491
C37	C	0.230339	-0.384991	0.548370
C38	C	0.730339	0.115009	1.048370
C39	C	0.157235	-0.385007	0.548422
C40	C	0.657235	0.114993	1.048422
C41	C	0.124548	-0.214028	0.515827
C42	C	0.624548	0.285972	1.015827
C43	C	0.124571	-0.417639	0.515827
C44	C	0.624571	0.082361	1.015827
C45	C	0.175526	-0.366733	0.566676
C46	C	0.675526	0.133267	1.066676
C47	C	0.353121	-0.385580	0.491988
C48	C	0.853121	0.114420	0.991988
C49	C	0.402952	-0.402180	0.475348
C50	C	0.902952	0.097820	0.975348
C51	C	0.402981	-0.482812	0.506096
C52	C	0.902981	0.017188	1.006096
C53	C	0.353151	-0.466211	0.522737
C54	C	0.853151	0.033789	1.022737
C55	C	0.136544	-0.189099	0.466839
C56	C	0.636544	0.310901	0.966839
C57	C	0.119905	-0.139265	0.450247
C58	C	0.619905	0.360735	0.950247
C59	C	0.079280	-0.139291	0.531632
C60	C	0.579280	0.360709	1.031632
C61	C	0.095918	-0.189125	0.548224
C62	C	0.595918	0.310875	1.048224
C63	C	0.075577	-0.405615	0.527900
C64	C	0.575577	0.094385	1.027900
C65	C	0.058953	-0.422228	0.511301
C66	C	0.558953	0.077772	1.011301
C67	C	0.140315	-0.462889	0.470566
C68	C	0.640315	0.037111	0.970566
C69	C	0.156941	-0.446276	0.487159
C70	C	0.656941	0.053724	0.987159
C71	C	0.075772	-0.405653	0.744326
C72	C	0.575772	0.094347	1.244326
C73	C	0.059206	-0.422280	0.794159
C74	C	0.559206	0.077720	1.294159
C75	C	0.140607	-0.462951	0.794094
C76	C	0.640607	0.037049	1.294094
C77	C	0.157172	-0.446325	0.744260
C78	C	0.657172	0.053675	1.244260
C79	C	0.124753	-0.417674	0.719377
C80	C	0.624753	0.082326	1.219377
C81	C	0.328223	-0.417595	0.515681
C82	C	0.828223	0.082405	1.015681
C83	C	-0.172390	-0.583988	0.349141
C84	C	0.327610	-0.083988	0.849141
C85	C	-0.041751	-0.584138	0.218783
C86	C	0.458249	-0.084138	0.718783
C87	C	-0.041941	-0.584130	0.349402
C88	C	0.458059	-0.084130	0.849402
C89	C	-0.041957	-0.714607	0.349338
C90	C	0.458043	-0.214607	0.849338
C91	C	-0.129326	-0.598388	0.334853
C92	C	0.370674	-0.098388	0.834853
C93	C	-0.056165	-0.598473	0.261852
C94	C	0.443835	-0.098473	0.761852
C95	C	-0.056282	-0.671535	0.334962
C96	C	0.443718	-0.171535	0.834962
C97	C	-0.056272	-0.598469	0.334999
C98	C	0.443728	-0.098469	0.834999
C99	C	-0.227205	-0.565659	0.367327
C100	C	0.272795	-0.065659	0.867327
C101	C	-0.023703	-0.565882	0.367734
C102	C	0.476297	-0.065882	0.867734
C103	C	-0.074511	-0.616717	0.316667
C104	C	0.425489	-0.116717	0.816667
C105	C	-0.055754	-0.794298	0.391257
C106	C	0.444246	-0.294298	0.891257
C107	C	-0.039181	-0.844132	0.407888
C108	C	0.460819	-0.344132	0.907888
C109	C	0.041447	-0.844215	0.377269
C110	C	0.541447	-0.344215	0.877269
C111	C	0.024873	-0.794381	0.360637
C112	C	0.524873	-0.294381	0.860637
C113	C	-0.252183	-0.577666	0.416302
C114	C	0.247817	-0.077666	0.916302
C115	C	-0.302014	-0.561001	0.432833
C116	C	0.197986	-0.061001	0.932833
C117	C	-0.301886	-0.520329	0.351410
C118	C	0.198114	-0.020329	0.851410
C119	C	-0.252055	-0.536994	0.334880
C120	C	0.247945	-0.036994	0.834880
C121	C	-0.035709	-0.516892	0.355682
C122	C	0.464291	-0.016892	0.855682
C123	C	-0.019129	-0.500308	0.372353
C124	C	0.480871	-0.000308	0.872353
C125	C	0.021465	-0.581700	0.413115
C126	C	0.521465	-0.081700	0.913115
C127	C	0.004884	-0.598286	0.396450
C128	C	0.504884	-0.098286	0.896450
C129	C	-0.035389	-0.516907	0.139026
C130	C	0.464611	-0.016907	0.639026
C131	C	-0.018707	-0.500324	0.089193
C132	C	0.481293	-0.000324	0.589193
C133	C	0.021949	-0.581721	0.089240
C134	C	0.521949	-0.081721	0.589240
C135	C	0.005268	-0.598303	0.139074
C136	C	0.505268	-0.098303	0.639074
C137	C	-0.023402	-0.565894	0.163965
C138	C	0.476598	-0.065894	0.663965
C139	C	-0.023728	-0.769425	0.367633
C140	C	0.476272	-0.269425	0.867633
N141	N	0.427173	-0.450553	0.482630
N142	N	0.927173	0.049447	0.982630
O143	O	0.589997	-0.458460	0.365361
O144	O	1.089997	0.041540	0.865361
O145	O	0.590185	-0.550997	0.490963
O146	O	1.090185	-0.050997	0.990963
O147	O	0.590104	-0.550786	0.411309
O148	O	1.090104	-0.050786	0.911309
O149	O	0.590077	-0.458671	0.445016
O150	O	1.090077	0.041329	0.945016
O151	O	0.510940	-0.524462	0.437777
O152	O	1.010940	-0.024462	0.937777
O153	O	0.511020	-0.524674	0.517432
O154	O	1.011020	-0.024674	1.017432
O155	O	0.510832	-0.432136	0.391830
O156	O	1.010832	0.067864	0.891830
Zn157	Zn	0.498357	-0.474225	0.458833
Zn158	Zn	0.998357	0.025775	0.958833
Zn159	Zn	0.602660	-0.508908	0.423960
Zn160	Zn	1.102660	-0.008908	0.923960
O161	O	0.510913	-0.432348	0.471484
O162	O	1.010913	0.067652	0.971484
N163	N	0.673844	-0.532580	0.400158
N164	N	1.173844	-0.032580	0.900158
N165	N	0.091520	-0.115070	0.482873
N166	N	0.591520	0.384930	0.982873
O167	O	-0.025663	0.047841	0.474857
O168	O	0.474337	0.547841	0.974857
O169	O	0.099940	0.047877	0.382299
O170	O	0.599940	0.547877	0.882299
O171	O	0.020247	0.047844	0.382560
O172	O	0.520247	0.547844	0.882560
O173	O	0.054030	0.047874	0.474596
O174	O	0.554030	0.547874	0.974596
O175	O	0.046674	-0.031326	0.408942
O176	O	0.546674	0.468674	0.908942
O177	O	0.126367	-0.031293	0.408680
O178	O	0.626367	0.468707	0.908680
O179	O	0.000764	-0.031329	0.501238
O180	O	0.500764	0.468671	1.001238
Zn181	Zn	0.067761	-0.043881	0.459148
Zn182	Zn	0.567761	0.456119	0.959148
Zn183	Zn	0.032943	0.060429	0.424389
Zn184	Zn	0.532943	0.560429	0.924389
O185	O	0.080457	-0.031296	0.500977
O186	O	0.580457	0.468704	1.000977
N187	N	0.009178	0.131618	0.400665
N188	N	0.509178	0.631618	0.900665
N189	N	0.091852	-0.450680	0.818332
N190	N	0.591852	0.049320	1.318332
O191	O	0.083862	-0.567845	0.981235
O192	O	0.583862	-0.067845	1.481235
O193	O	-0.008657	-0.442198	0.981276
O194	O	0.491343	0.057802	1.481276
O195	O	-0.008441	-0.521875	0.981252
O196	O	0.491559	-0.021875	1.481252
O197	O	0.083646	-0.488168	0.981258
O198	O	0.583646	0.011832	1.481258
O199	O	0.017919	-0.495468	0.902085
O200	O	0.517919	0.004532	1.402085
O201	O	0.017703	-0.415791	0.902109
O202	O	0.517703	0.084209	1.402109
O203	O	0.110222	-0.541438	0.902067
O204	O	0.610222	-0.041438	1.402067
Zn205	Zn	0.068148	-0.474422	0.889518
Zn206	Zn	0.568148	0.025578	1.389518
Zn207	Zn	0.033417	-0.509214	0.993825
Zn208	Zn	0.533417	-0.009214	1.493825
O209	O	0.110006	-0.461761	0.902091
O210	O	0.610006	0.038239	1.402091
N211	N	0.009712	-0.532961	1.065011
N212	N	0.509712	-0.032961	1.565011
C213	C	0.030439	-0.413071	0.383027
C214	C	0.530439	0.086929	0.883027
C215	C	0.129046	-0.511580	0.382922
C216	C	0.629046	-0.011580	0.882922
C217	C	0.070334	-0.570496	0.500675
C218	C	0.570334	-0.070496	1.000675
C219	C	-0.028274	-0.471987	0.500780
C220	C	0.471726	0.028013	1.000780
C221	C	0.550625	-0.550579	0.520021
C222	C	1.050625	-0.050579	1.020021
C223	C	0.550527	-0.550317	0.421379
C224	C	1.050527	-0.050317	0.921379
C225	C	0.550389	-0.432554	0.362773
C226	C	1.050389	0.067446	0.862773
C227	C	0.550491	-0.432816	0.461414
C228	C	1.050491	0.067184	0.961414
C229	C	0.128944	0.008394	0.382712
C230	C	0.628944	0.508394	0.882712
C231	C	0.030287	0.008256	0.383068
C232	C	0.530287	0.508256	0.883068
C233	C	-0.028273	0.008252	0.500793
C234	C	0.471727	0.508252	1.000793
C235	C	0.070417	0.008292	0.500470
C236	C	0.570417	0.508292	1.000470
C237	C	-0.008218	-0.413165	0.941698
C238	C	0.491782	0.086835	1.441698
C239	C	-0.007945	-0.511830	0.941653
C240	C	0.492055	-0.011830	1.441653
C241	C	0.109783	-0.570471	0.941646
C242	C	0.609783	-0.070471	1.441646
C243	C	0.109516	-0.471800	0.941673
C244	C	0.609516	0.028200	1.441673
H245	H	0.049370	-0.382321	0.724071
H246	H	0.549370	0.117679	1.224071
O247	O	0.079095	0.008209	0.534984
O248	O	0.579095	0.508209	1.034984
C249	C	0.117667	-0.032781	0.545888
C250	C	0.617667	0.467219	1.045888
H251	H	0.121411	-0.061440	0.535433
H252	H	0.621411	0.438560	1.035433
H253	H	0.110992	-0.046550	0.585712
H254	H	0.610992	0.453450	1.085712
H255	H	0.151789	-0.023499	0.525335
H256	H	0.651789	0.476501	1.025335
O257	O	0.131577	-0.114995	0.402670
O258	O	0.631577	0.385005	0.902670
C259	C	0.156663	-0.086166	0.390608
C260	C	0.656663	0.413834	0.890608
H261	H	0.147698	-0.078707	0.423445
H262	H	0.647698	0.421293	0.923445
H263	H	0.146029	-0.051120	0.361723
H264	H	0.646029	0.448880	0.861723
H265	H	0.196546	-0.105358	0.376905
H266	H	0.696546	0.394642	0.876905
H267	H	0.550540	-0.579254	0.414165
H268	H	1.050540	-0.079254	0.914165
H269	H	0.550674	-0.579628	0.556096
H270	H	1.050674	-0.079628	1.056096
H271	H	-0.064344	0.008241	0.529850
H272	H	0.435656	0.508241	1.029850
H273	H	0.550485	-0.403881	0.468626
H274	H	1.050485	0.096119	0.968626
O275	O	0.021929	-0.369963	0.348477
O276	O	0.521929	0.130037	0.848477
C277	C	0.054594	-0.348817	0.335633
C278	C	0.554594	0.151183	0.835633
H279	H	0.068533	-0.364579	0.366138
H280	H	0.568533	0.135421	0.866138
H281	H	0.036075	-0.308776	0.327862
H282	H	0.536075	0.191224	0.827862
H283	H	0.085587	-0.355996	0.302515
H284	H	0.585587	0.144004	0.802515
H285	H	0.164941	0.008624	0.353583
H286	H	0.664941	0.508624	0.853583
H287	H	0.165136	-0.518689	0.353905
H288	H	0.665136	-0.018689	0.853905
O289	O	-0.042827	-0.370097	0.941733
O290	O	0.457173	0.129903	1.441733
C291	C	-0.025689	-0.340469	0.941728
C292	C	0.474311	0.159531	1.441728
H293	H	0.004875	-0.363358	0.956708
H294	H	0.504875	0.136642	1.456708
H295	H	-0.055600	-0.317668	0.964722
H296	H	0.444400	0.182332	1.464722
H297	H	-0.012486	-0.316425	0.903750
H298	H	0.487514	0.183575	1.403750
H299	H	-0.036863	-0.519031	0.941619
H300	H	0.463137	-0.019031	1.441619
O301	O	0.144379	-0.613552	0.941650
O302	O	0.644379	-0.113552	1.441650
C303	C	0.127251	-0.643170	0.941627
C304	C	0.627251	-0.143170	1.441627
H305	H	0.086705	-0.630282	0.956624
H306	H	0.586705	-0.130282	1.456624
H307	H	0.141858	-0.681306	0.964598
H308	H	0.641858	-0.181306	1.464598
H309	H	0.139338	-0.641874	0.903642
H310	H	0.639338	-0.141874	1.403642
O311	O	0.143987	-0.463112	0.941647
O312	O	0.643987	0.036888	1.441647
C313	C	0.126643	-0.416323	0.941672
C314	C	0.626643	0.083677	1.441672
H315	H	0.096077	-0.393800	0.926695
H316	H	0.596077	0.106200	1.426695
H317	H	0.156448	-0.400305	0.918685
H318	H	0.656448	0.099695	1.418685
H319	H	0.113380	-0.417029	0.979655
H320	H	0.613380	0.082971	1.479655
O321	O	0.078965	-0.613619	0.535177
O322	O	0.578965	-0.113619	1.035177
C323	C	0.125749	-0.643134	0.517900
C324	C	0.625749	-0.143134	1.017900
H325	H	0.138296	-0.630159	0.477355
H326	H	0.638296	-0.130159	0.977355
H327	H	0.126400	-0.681292	0.532441
H328	H	0.626400	-0.181292	1.032441
H329	H	0.150381	-0.641819	0.529934
H330	H	0.650381	-0.141819	1.029934
H331	H	0.019320	-0.412483	0.814467
H332	H	0.519320	0.087517	1.314467
H333	H	-0.064365	-0.464880	0.529794
H334	H	0.435635	0.035120	1.029794
O335	O	0.550256	-0.397907	0.319744
O336	O	1.050256	0.102093	0.819744
C337	C	0.509227	-0.386875	0.311253
C338	C	1.009227	0.113125	0.811253
H339	H	0.495602	-0.418362	0.333465
H340	H	0.995602	0.081638	0.833465
H341	H	0.518401	-0.379090	0.271894
H342	H	1.018401	0.120910	0.771894
H343	H	0.480502	-0.354254	0.321533
H344	H	0.980502	0.145746	0.821533
O345	O	0.172163	-0.490791	0.818192
O346	O	0.672163	0.009209	1.318192
C347	C	0.218948	-0.497826	0.785486
C348	C	0.718948	0.002174	1.285486
H349	H	0.218826	-0.492246	0.749971
H350	H	0.718826	0.007754	1.249971
H351	H	0.242628	-0.535621	0.799858
H352	H	0.742628	-0.035621	1.299858
H353	H	0.233223	-0.471301	0.780181
H354	H	0.733223	0.028699	1.280181
H355	H	0.197059	-0.456117	0.723950
H356	H	0.697059	0.043883	1.223950
O357	O	0.204529	-0.457870	0.475379
O358	O	0.704529	0.042130	0.975379
C359	C	0.216539	-0.415987	0.450304
C360	C	0.716539	0.084013	0.950304
H361	H	0.188419	-0.386055	0.433468
H362	H	0.688419	0.113945	0.933468
H363	H	0.252698	-0.422536	0.421244
H364	H	0.752698	0.077464	0.921244
H365	H	0.218212	-0.405504	0.475923
H366	H	0.718212	0.094496	0.975923
H367	H	0.023050	0.008252	0.354152
H368	H	0.523050	0.508252	0.854152
H369	H	0.049217	-0.382297	0.551240
H370	H	0.549217	0.117703	1.051240
H371	H	0.166679	-0.486211	0.447227
H372	H	0.666679	0.013789	0.947227
O373	O	0.011344	-0.410526	0.523092
O374	O	0.511344	0.089474	1.023092
C375	C	-0.013663	-0.381685	0.551949
C376	C	0.486337	0.118315	1.051949
H377	H	0.010128	-0.388041	0.570041
H378	H	0.510128	0.111959	1.070041
H379	H	-0.046895	-0.391046	0.580163
H380	H	0.453105	0.108954	1.080163
H381	H	-0.024442	-0.342647	0.528980
H382	H	0.475558	0.157353	1.028980
H383	H	-0.231954	-0.601008	0.442726
H384	H	0.268046	-0.101008	0.942726
H385	H	0.423275	-0.522397	0.511838
H386	H	0.923275	-0.022397	1.011838
O387	O	0.328992	-0.497323	0.545674
O388	O	0.828992	0.002677	1.045674
C389	C	0.341162	-0.520662	0.515177
C390	C	0.841162	-0.020662	1.015177
H391	H	0.354826	-0.497961	0.476600
H392	H	0.854826	0.002039	0.976600
H393	H	0.308393	-0.526277	0.521081
H394	H	0.808393	-0.026277	1.021081
H395	H	0.370108	-0.556619	0.523189
H396	H	0.870108	-0.056619	1.023189
O397	O	0.427068	-0.371013	0.452321
O398	O	0.927068	0.128987	0.952321
C399	C	0.394381	-0.324544	0.449671
C400	C	0.894381	0.175456	0.949671
H401	H	0.358851	-0.322609	0.452963
H402	H	0.858851	0.177391	0.952963
H403	H	0.408752	-0.298205	0.414051
H404	H	0.908752	0.201795	0.914051
H405	H	0.389109	-0.315243	0.479856
H406	H	0.889109	0.184757	0.979856
H407	H	0.332825	-0.345993	0.486242
H408	H	0.832825	0.154007	0.986242
H409	H	0.055974	-0.119015	0.558014
H410	H	0.555974	0.380985	1.058014
O411	O	0.164282	-0.213267	0.435349
O412	O	0.664282	0.286733	0.935349
C413	C	0.139090	-0.201083	0.406559
C414	C	0.639090	0.298917	0.906559
H415	H	0.099229	-0.187399	0.425827
H416	H	0.599229	0.312601	0.925827
H417	H	0.148004	-0.233853	0.399022
H418	H	0.648004	0.266147	0.899022
H419	H	0.149667	-0.172145	0.371548
H420	H	0.649667	0.327855	0.871548
O421	O	0.084238	-0.213265	0.595826
O422	O	0.584238	0.286735	1.095826
C423	C	0.055389	-0.180597	0.620860
C424	C	0.555389	0.319403	1.120860
H425	H	0.061726	-0.145067	0.597094
H426	H	0.561726	0.354933	1.097094
H427	H	0.064758	-0.194999	0.654103
H428	H	0.564758	0.305001	1.154103
H429	H	0.016357	-0.175310	0.631628
H430	H	0.516357	0.324690	1.131628
H431	H	-0.028474	-0.460433	0.068892
H432	H	0.471526	0.039567	0.568892
H433	H	-0.058738	-0.490513	0.159288
H434	H	0.441262	0.009487	0.659288
H435	H	0.015032	-0.638195	0.159378
H436	H	0.515032	-0.138195	0.659378
O437	O	0.049735	-0.613248	0.065112
O438	O	0.549735	-0.113248	0.565112
C439	C	0.024556	-0.642010	0.077226
C440	C	0.524556	-0.142010	0.577226
H441	H	-0.004490	-0.642466	0.113378
H442	H	0.495510	-0.142466	0.613378
H443	H	0.050105	-0.679818	0.078965
H444	H	0.550105	-0.179818	0.578965
H445	H	0.007694	-0.627007	0.049129
H446	H	0.507694	-0.127007	0.549129
O447	O	-0.063494	-0.485350	0.327814
O448	O	0.436506	0.014650	0.827814
C449	C	-0.070529	-0.438554	0.320749
C450	C	0.429471	0.061446	0.820749
H451	H	-0.065008	-0.438649	0.350828
H452	H	0.434992	0.061351	0.850828
H453	H	-0.108302	-0.414864	0.320426
H454	H	0.391698	0.085136	0.820426
H455	H	-0.043966	-0.424309	0.285280
H456	H	0.456034	0.075691	0.785280
H457	H	0.044746	-0.608091	0.436494
H458	H	0.544746	-0.108091	0.936494
O459	O	-0.030699	-0.452731	0.360630
O460	O	0.469301	0.047269	0.860630
C461	C	0.011196	-0.440751	0.335611
C462	C	0.511196	0.059249	0.835611
H463	H	0.042468	-0.473621	0.344661
H464	H	0.542468	0.026379	0.844661
H465	H	0.006735	-0.411860	0.346229
H466	H	0.506735	0.088140	0.846229
H467	H	0.018261	-0.427085	0.295714
H468	H	0.518261	0.072915	0.795714
H469	H	0.014660	-0.638178	0.406265
H470	H	0.514660	-0.138178	0.906265
H471	H	0.081021	-0.864532	0.371574
H472	H	0.581021	-0.364532	0.871574
O473	O	0.056040	-0.770275	0.337640
O474	O	0.556040	-0.270275	0.837640
C475	C	0.089902	-0.782477	0.296577
C476	C	0.589902	-0.282477	0.796577
H477	H	0.092234	-0.818649	0.301067
H478	H	0.592234	-0.318649	0.801067
H479	H	0.126160	-0.784224	0.291197
H480	H	0.626160	-0.284224	0.791197
H481	H	0.078695	-0.754428	0.264262
H482	H	0.578695	-0.254428	0.764262
O483	O	-0.070358	-0.868224	0.430846
O484	O	0.429642	-0.368224	0.930846
C485	C	-0.116809	-0.835512	0.433445
C486	C	0.383191	-0.335512	0.933445
H487	H	-0.118743	-0.799997	0.430190
H488	H	0.381257	-0.299997	0.930190
H489	H	-0.143180	-0.849880	0.469032
H490	H	0.356820	-0.349880	0.969032
H491	H	-0.126065	-0.830207	0.403214
H492	H	0.373935	-0.330207	0.903214
H493	H	-0.095331	-0.773979	0.396956
H494	H	0.404669	-0.273979	0.896956
H495	H	-0.322118	-0.496994	0.324987
H496	H	0.177882	0.003006	0.824987
O497	O	-0.326262	-0.572746	0.480413
O498	O	0.173738	-0.072746	0.980413
C499	C	-0.314124	-0.622656	0.501122
C500	C	0.185876	-0.122656	1.001122
H501	H	-0.300388	-0.638726	0.472742
H502	H	0.199612	-0.138726	0.972742
H503	H	-0.346927	-0.632156	0.530450
H504	H	0.153073	-0.132156	1.030450
H505	H	-0.285242	-0.637445	0.516921
H506	H	0.214758	-0.137445	1.016921
O507	O	-0.227867	-0.525303	0.287289
O508	O	0.272133	-0.025303	0.787289
C509	C	-0.260487	-0.496416	0.262198
C510	C	0.239513	0.003584	0.762198
H511	H	-0.296029	-0.502735	0.285910
H512	H	0.203971	-0.002735	0.785910
H513	H	-0.246049	-0.505765	0.228937
H514	H	0.253951	-0.005765	0.728937
H515	H	-0.265762	-0.457391	0.251457
H516	H	0.234238	0.042609	0.751457
