data_functionalizedCrystal
_audit_creation_method	'MofGen! by Chris Wilmer'
_symmetry_space_group_name_H-M	'P1'
_symmetry_Int_Tables_number	1
_symmetry_cell_setting	triclinic
loop_
_symmetry_equiv_pos_as_xyz
  x,y,z
_cell_length_a	19.077367
_cell_length_b	19.077356
_cell_length_c	19.077174
_cell_angle_alpha	90.076444
_cell_angle_beta	90.114431
_cell_angle_gamma	85.314001
loop_
_atom_site_label
_atom_site_type_symbol
_atom_site_fract_x
_atom_site_fract_y
_atom_site_fract_z
Zn1	Zn	-1.079825	-0.250700	-0.344674
Zn2	Zn	-1.070350	-0.363886	-0.222832
Zn3	Zn	-0.957588	-0.251097	-0.231872
Zn4	Zn	-0.957220	-0.373283	-0.344645
O5	O	-1.016246	-0.309741	-0.286006
O6	O	-1.177069	-0.261615	-0.324740
O7	O	-1.051581	-0.345158	-0.125845
O8	O	-0.977923	-0.152541	-0.250631
O9	O	-1.170108	-0.344772	-0.235224
O10	O	-1.067729	-0.152249	-0.333506
O11	O	-0.968735	-0.262292	-0.132487
O12	O	-0.859038	-0.271405	-0.250603
O13	O	-0.977295	-0.360789	-0.442835
O14	O	-0.858768	-0.361174	-0.333456
O15	O	-1.067372	-0.270727	-0.442857
O16	O	-1.051224	-0.463636	-0.235196
O17	O	-0.968108	-0.470540	-0.324691
C18	C	-0.833363	-0.317353	-0.293008
C19	C	-0.755124	-0.320627	-0.296019
C20	C	-0.718494	-0.275361	-0.254373
C21	C	-0.644980	-0.278444	-0.257202
C22	C	-0.608099	-0.326788	-0.301682
C23	C	-0.644735	-0.372058	-0.343330
C24	C	-0.718247	-0.368979	-0.340496
C25	C	-0.388228	-0.341019	-0.314770
C26	C	-0.314712	-0.344093	-0.317601
C27	C	-0.314962	-0.250480	-0.231473
C28	C	-0.388476	-0.247402	-0.228647
C29	C	-0.425105	-0.292674	-0.270292
N30	N	-0.532957	-0.329938	-0.304576
N31	N	-0.500245	-0.289527	-0.267393
C32	C	-1.008617	-0.492629	-0.278974
C33	C	-1.005419	-0.570867	-0.275986
C34	C	-1.023349	-0.316762	-0.469017
C35	C	-1.026376	-0.319753	-0.547005
C36	C	-0.199843	-0.302097	-0.278970
C37	C	-0.278081	-0.298828	-0.275955
C38	C	-1.023924	-0.126139	-0.293080
C39	C	-1.027196	-0.047899	-0.296095
C40	C	-0.981979	-0.011293	-0.254364
C41	C	-0.985052	0.062222	-0.257204
C42	C	-1.033347	0.099129	-0.301771
C43	C	-1.078566	0.062517	-0.343507
C44	C	-1.075489	-0.010996	-0.340670
C45	C	-1.047561	0.319007	-0.314885
C46	C	-1.050636	0.392526	-0.317717
C47	C	-0.957121	0.392226	-0.231415
C48	C	-0.954051	0.318711	-0.228579
C49	C	-0.999268	0.282105	-0.270317
N50	N	-1.036491	0.174273	-0.304673
N51	N	-0.996119	0.206962	-0.267418
C52	C	-0.984667	-0.278016	-0.587101
C53	C	-0.987509	-0.280833	-0.660380
C54	C	-1.032063	-0.325384	-0.693560
C55	C	-1.073774	-0.367126	-0.653458
C56	C	-1.070928	-0.364312	-0.580182
C57	C	-1.045195	-0.338429	-0.912343
C58	C	-1.048039	-0.341238	-0.985626
C59	C	-0.961773	-0.254945	-0.992542
C60	C	-0.958934	-0.252133	-0.919263
C61	C	-1.000642	-0.293877	-0.879168
N62	N	-1.034970	-0.328263	-0.768462
N63	N	-0.997731	-0.291002	-0.804267
C64	C	-1.009213	-0.302696	-0.103707
C65	C	-1.006330	-0.299500	-0.025722
H66	H	-0.284685	-0.383461	-0.353826
C67	C	-0.909922	-0.203131	-0.882767
H68	H	-0.914206	-0.207429	-0.833383
H69	H	-0.862663	-0.215861	-0.896189
H70	H	-0.922673	-0.155865	-0.896204
C71	C	-0.604168	-0.425234	-0.392257
H72	H	-0.555140	-0.420581	-0.387987
H73	H	-0.613844	-0.471613	-0.379631
H74	H	-0.618486	-0.416304	-0.439348
H75	H	-1.089967	0.422573	-0.354011
H76	H	-0.748070	-0.405838	-0.374409
C77	C	-1.097302	0.278751	-0.360790
H78	H	-1.126509	0.311262	-0.387731
H79	H	-1.070365	0.247780	-0.391288
H80	H	-1.125733	0.252380	-0.331666
C81	C	-0.429039	-0.194233	-0.179708
H82	H	-0.396693	-0.167722	-0.155303
H83	H	-0.460044	-0.163433	-0.206663
H84	H	-0.455397	-0.218750	-0.146954
H85	H	-0.285131	-0.213622	-0.197567
H86	H	-1.117886	0.092571	-0.379798
H87	H	-0.927816	-0.220960	-1.025195
H88	H	-1.084324	-0.377517	-1.012638
C89	C	-1.091083	-0.384335	-0.868248
H90	H	-1.118032	-0.411261	-0.898506
H91	H	-1.061772	-0.415032	-0.839508
H92	H	-1.121771	-0.355025	-0.839530
C93	C	-0.428512	-0.390810	-0.360585
H94	H	-0.396017	-0.420035	-0.387486
H95	H	-0.454866	-0.419209	-0.331417
H96	H	-0.459501	-0.363898	-0.391132
H97	H	-0.942654	-0.041337	-0.218070
H98	H	-1.104898	-0.398294	-0.547536
H99	H	-1.112304	-0.040801	-0.374658
H100	H	-0.615158	-0.241588	-0.223285
H101	H	-1.110047	-0.403404	-0.680480
C102	C	-0.900924	0.278118	-0.179558
H103	H	-0.874430	0.310449	-0.155115
H104	H	-0.925463	0.251733	-0.146850
H105	H	-0.870094	0.247135	-0.206471
H106	H	-0.948232	0.092027	-0.223224
C107	C	-0.759060	-0.222182	-0.205448
H108	H	-0.808088	-0.226825	-0.209728
H109	H	-0.744745	-0.231105	-0.158359
H110	H	-0.749380	-0.175803	-0.218082
C111	C	-0.935651	-0.229016	-0.550609
H112	H	-0.911211	-0.204569	-0.584987
H113	H	-0.962742	-0.196125	-0.522172
H114	H	-0.902744	-0.256132	-0.522164
C115	C	-0.941633	-0.234918	-0.704483
H116	H	-0.914698	-0.207975	-0.674227
H117	H	-0.910944	-0.264214	-0.733205
H118	H	-0.970959	-0.204224	-0.733218
H119	H	-0.920307	0.422037	-0.197434
