data_functionalizedCrystal
_audit_creation_method	'MofGen! by Chris Wilmer'
_symmetry_space_group_name_H-M	'P1'
_symmetry_Int_Tables_number	1
_symmetry_cell_setting	triclinic
loop_
_symmetry_equiv_pos_as_xyz
  x,y,z
_cell_length_a	15.538191
_cell_length_b	19.188930
_cell_length_c	14.750779
_cell_angle_alpha	77.396187
_cell_angle_beta	97.572172
_cell_angle_gamma	65.208438
loop_
_atom_site_label
_atom_site_type_symbol
_atom_site_fract_x
_atom_site_fract_y
_atom_site_fract_z
O1	O	1.230319	-0.206654	-0.079811
O2	O	0.955725	-0.125950	-0.079820
O3	O	1.100951	-0.269953	-0.079797
O4	O	1.085093	-0.062651	-0.079835
O5	O	1.142004	-0.310658	0.079860
O6	O	0.996778	-0.166654	0.079837
O7	O	1.271372	-0.247359	0.079846
Zn8	Zn	1.140594	-0.213470	0.105190
Zn9	Zn	1.086504	-0.159839	-0.105165
O10	O	1.126146	-0.103356	0.079822
C11	C	0.941121	-0.137858	0.000007
C12	C	0.836443	-0.112707	0.000004
C13	C	1.120965	-0.316188	0.000035
C14	C	1.119427	-0.393308	0.000043
C15	C	0.549690	-0.362580	0.000035
C16	C	0.451325	-0.338928	0.000030
C17	C	0.428328	-0.205893	0.000006
C18	C	0.526694	-0.229535	0.000016
C19	C	0.587367	-0.307879	0.000029
C20	C	0.564371	-0.174835	0.000010
C21	C	0.662727	-0.198474	0.000014
C22	C	0.723406	-0.276813	0.000025
C23	C	0.685723	-0.331518	0.000034
C24	C	0.503694	-0.096490	-0.000011
C25	C	0.541372	-0.041789	-0.000017
C26	C	0.639731	-0.065429	-0.000005
C27	C	0.700410	-0.143769	0.000006
C28	C	0.677414	-0.010724	-0.000014
C29	C	0.775770	-0.034363	-0.000009
C30	C	0.798766	-0.167408	0.000010
C31	C	1.204639	-0.459635	0.000050
C32	C	1.203187	-0.532092	0.000035
C33	C	1.116524	-0.538221	0.000031
C34	C	1.031299	-0.471879	0.000018
C35	C	1.032751	-0.399422	0.000024
N36	N	1.064252	-0.643440	0.054363
N37	N	1.062879	-0.712273	0.054360
C38	C	1.112146	-0.756526	0.000012
N39	N	1.162854	-0.729353	-0.054321
N40	N	1.164230	-0.660516	-0.054313
C41	C	1.114941	-0.616784	0.000024
C42	C	1.195790	-0.901421	0.000001
C43	C	1.194333	-0.973876	-0.000020
C44	C	1.022445	-0.913663	-0.000027
C45	C	1.023901	-0.841208	-0.000016
C46	C	1.110577	-0.835093	0.000003
C47	C	1.285976	-0.235450	0.000016
C48	C	1.390652	-0.260600	0.000013
C49	C	1.106132	-0.057120	-0.000011
C50	C	1.107668	0.020001	-0.000026
N51	N	1.177515	-0.250073	0.248752
N52	N	1.049589	-0.123244	-0.248726
C53	C	0.946472	-0.021047	0.600532
C54	C	0.972351	-0.046693	0.701036
C55	C	1.100975	-0.174180	0.701020
C56	C	1.075104	-0.148545	0.600514
C57	C	0.997852	-0.071978	0.550279
C58	C	1.126484	-0.199476	0.550260
C59	C	1.100617	-0.173842	0.449764
C60	C	1.023370	-0.097277	0.399521
C61	C	0.971985	-0.046344	0.449782
C62	C	1.203739	-0.276041	0.600498
C63	C	1.255119	-0.326973	0.550244
C64	C	1.229248	-0.301341	0.449745
C65	C	1.152002	-0.224776	0.399503
C66	C	1.280633	-0.352274	0.399484
C67	C	1.254767	-0.326640	0.298988
C68	C	1.126135	-0.199142	0.299006
H69	H	0.803490	-0.296055	0.000016
O70	O	0.857859	-0.243494	0.000072
C71	C	0.952741	-0.252616	0.000049
H72	H	0.964056	-0.206376	0.030260
H73	H	1.009388	-0.315899	0.046414
H74	H	0.961504	-0.242952	-0.076545
O75	O	0.938233	-0.919544	0.000095
C76	C	0.907578	-0.904639	0.082794
H77	H	0.940156	-0.867624	0.110371
H78	H	0.824225	-0.869876	0.064192
H79	H	0.933562	-0.964363	0.140690
O80	O	0.408168	-0.073465	0.000114
C81	C	0.390266	-0.050174	0.082803
H82	H	0.447318	-0.031979	0.110362
H83	H	0.314029	0.003083	0.064195
H84	H	0.394973	-0.102791	0.140714
H85	H	0.420654	-0.383477	0.000033
O86	O	1.051193	-0.124703	0.250239
C87	C	1.072529	-0.065647	0.274798
H88	H	1.155126	-0.091443	0.302415
H89	H	1.044527	-0.010970	0.208701
H90	H	1.035186	-0.046771	0.333134
H91	H	0.960737	-0.476873	0.000013
O92	O	1.279957	-0.895464	-0.000166
C93	C	1.310628	-0.910404	-0.082847
H94	H	1.245080	-0.897965	-0.140641
H95	H	1.343422	-0.869324	-0.110599
H96	H	1.368182	-0.975999	-0.064160
H97	H	1.224800	-0.296908	0.682329
O98	O	0.608557	-0.438649	-0.000120
C99	C	0.570249	-0.452272	-0.082788
H100	H	0.521615	-0.392118	-0.140590
H101	H	0.633014	-0.490910	-0.110537
H102	H	0.525144	-0.484804	-0.064085
H103	H	1.163877	-0.236521	0.741933
O104	O	1.288812	-0.453692	-0.000110
C105	C	1.319493	-0.468644	-0.082782
H106	H	1.253948	-0.456203	-0.140581
H107	H	1.352300	-0.427574	-0.110531
H108	H	1.377040	-0.534244	-0.064085
O109	O	0.618463	0.065429	-0.000204
C110	C	0.614268	0.121200	-0.082884
H111	H	0.633184	0.090511	-0.140666
H112	H	0.537233	0.173995	-0.110656
H113	H	0.668993	0.144193	-0.064190
H114	H	1.272579	-0.586105	0.000037
H115	H	0.954514	-0.787202	-0.000016
H116	H	0.909073	0.016002	0.408878
H117	H	0.883560	0.041299	0.559629
H118	H	1.296607	-0.368114	0.258071
O119	O	0.998065	-0.072324	0.301898
C120	C	0.899989	-0.055345	0.268348
H121	H	0.859286	-0.041743	0.326275
H122	H	0.863244	-0.000887	0.201117
H123	H	0.898127	-0.109673	0.250520
H124	H	0.930506	-0.005211	0.741948
O125	O	0.812382	0.018781	-0.000177
C126	C	0.847352	0.030154	-0.082848
H127	H	0.809370	0.014273	-0.140643
H128	H	0.831173	0.095794	-0.110606
H129	H	0.929788	-0.010407	-0.064147
H130	H	0.963358	-0.345414	0.000018
O131	O	0.369265	-0.129836	0.000038
C132	C	0.274366	-0.120692	0.000008
H133	H	0.278583	-0.182340	0.030237
H134	H	0.241561	-0.081046	0.046356
H135	H	0.226216	-0.091298	-0.076589
O136	O	0.482425	0.034363	-0.000199
C137	C	0.478225	0.090140	-0.082876
H138	H	0.497132	0.059457	-0.140665
H139	H	0.401191	0.142937	-0.110639
H140	H	0.532953	0.113129	-0.064180
O141	O	0.744590	-0.407588	-0.000121
C142	C	0.706282	-0.421210	-0.082789
H143	H	0.657648	-0.361057	-0.140591
H144	H	0.769047	-0.459848	-0.110538
H145	H	0.661177	-0.453742	-0.064087
O146	O	1.330270	-0.401304	0.598999
C147	C	1.417239	-0.407309	0.574401
H148	H	1.410370	-0.344422	0.546776
H149	H	1.481604	-0.444188	0.640480
H150	H	1.430068	-0.438172	0.516060
O151	O	1.355555	-0.426694	0.448336
C152	C	1.320208	-0.471859	0.506509
H153	H	1.238059	-0.446507	0.476240
H154	H	1.359207	-0.537440	0.507657
H155	H	1.334776	-0.468152	0.582668
H156	H	1.263725	-1.027882	-0.000019
