data_functionalizedCrystal
_audit_creation_method	'MofGen! by Chris Wilmer'
_symmetry_space_group_name_H-M	'P1'
_symmetry_Int_Tables_number	1
_symmetry_cell_setting	triclinic
loop_
_symmetry_equiv_pos_as_xyz
  x,y,z
_cell_length_a	8.559649
_cell_length_b	9.198806
_cell_length_c	8.559649
_cell_angle_alpha	89.998519
_cell_angle_beta	110.221336
_cell_angle_gamma	90.003535
loop_
_atom_site_label
_atom_site_type_symbol
_atom_site_fract_x
_atom_site_fract_y
_atom_site_fract_z
O1	O	2.126881	0.120870	0.055038
O2	O	1.651396	0.120875	-0.028743
O3	O	1.931029	0.120870	0.250890
O4	O	1.847248	0.120874	-0.224595
O5	O	1.931010	-0.120915	0.250888
O6	O	1.651377	-0.120910	-0.028745
O7	O	2.126861	-0.120915	0.055037
Cu8	Cu	1.889117	-0.142990	0.013146
Cu9	Cu	1.889140	0.142949	0.013148
O10	O	1.847228	-0.120911	-0.224596
C11	C	1.591077	-0.000017	-0.035093
C12	C	1.411378	-0.000014	-0.053992
N13	N	1.889113	-0.344103	0.013147
C14	C	2.006583	-0.416302	0.131014
C15	C	2.006609	-0.583715	0.131023
C16	C	2.187180	-0.000020	0.061387
C17	C	2.366879	-0.000013	0.080286
C18	C	1.937369	-0.000019	0.311198
C19	C	1.956268	-0.000012	0.490898
N20	N	1.889159	0.344063	0.013162
C21	C	1.840889	-0.000018	-0.284904
C22	C	1.821990	-0.000016	-0.464604
H23	H	1.466258	-0.000007	0.209705
H24	H	1.311990	-0.000005	-0.183420
H25	H	2.107130	-0.354178	0.231925
H26	H	1.692570	-0.000019	0.436018
H27	H	2.085696	-0.000025	0.590286
C28	C	2.142482	-0.667580	0.267357
C29	C	2.142360	-0.834986	0.267126
C30	C	2.278238	-0.918854	0.403465
C31	C	2.414239	-0.835317	0.540033
C32	C	2.414366	-0.667902	0.540269
C33	C	2.278488	-0.584034	0.403931
H34	H	2.041679	-0.896833	0.166026
H35	H	2.278143	-1.042786	0.403290
H36	H	2.514824	-0.897401	0.640959
H37	H	2.515047	-0.606055	0.641370
H38	H	2.278583	-0.460102	0.404106
C39	C	1.753280	-0.572081	-0.123177
C40	C	1.637721	-0.466550	-0.075121
C41	C	1.501843	-0.382682	-0.211459
C42	C	1.481524	-0.404344	-0.395854
C43	C	1.597086	-0.509879	-0.443919
C44	C	1.732965	-0.593748	-0.307580
H45	H	1.652760	-0.450510	0.061386
H46	H	1.416296	-0.304557	-0.175878
H47	H	1.380938	-0.342259	-0.496780
H48	H	1.582048	-0.525919	-0.580426
H49	H	1.818512	-0.671872	-0.343162
H50	H	1.788556	-0.406230	-0.087753
