data_functionalizedCrystal
_audit_creation_method	'MofGen! by Chris Wilmer'
_symmetry_space_group_name_H-M	'P1'
_symmetry_Int_Tables_number	1
_symmetry_cell_setting	triclinic
loop_
_symmetry_equiv_pos_as_xyz
  x,y,z
_cell_length_a	11.792241
_cell_length_b	16.098524
_cell_length_c	11.792240
_cell_angle_alpha	86.942891
_cell_angle_beta	95.806583
_cell_angle_gamma	93.043639
loop_
_atom_site_label
_atom_site_type_symbol
_atom_site_fract_x
_atom_site_fract_y
_atom_site_fract_z
O1	O	1.511463	0.069195	-0.160122
O2	O	1.181124	0.069216	-0.176156
O3	O	1.354308	0.069180	-0.002967
O4	O	1.338279	0.069231	-0.333311
O5	O	1.345176	-0.069335	0.006155
O6	O	1.171991	-0.069298	-0.167035
O7	O	1.502331	-0.069319	-0.151000
Zn8	Zn	1.335711	-0.091301	-0.157569
Zn9	Zn	1.347743	0.091198	-0.169587
O10	O	1.329146	-0.069283	-0.324190
C11	C	1.134267	-0.000039	-0.170588
C12	C	1.008253	-0.000032	-0.167574
C13	C	0.777540	-0.000056	-0.162030
C14	C	0.905926	-0.000043	-0.165111
N15	N	1.327508	-0.215851	-0.149367
C16	C	1.393897	-0.259426	-0.215803
C17	C	1.388174	-0.346616	-0.210058
C18	C	1.316054	-0.390229	-0.137881
C19	C	1.249663	-0.346648	-0.071437
C20	C	1.255393	-0.259460	-0.077177
C21	C	1.295294	-0.653482	-0.117077
C22	C	1.289566	-0.740677	-0.111344
C23	C	1.428080	-0.740639	-0.249964
C24	C	1.433798	-0.653449	-0.255703
C25	C	1.367411	-0.609875	-0.189254
C26	C	1.310200	-0.479351	-0.132009
C27	C	1.373272	-0.520755	-0.195121
C28	C	1.549188	-0.000063	-0.156568
C29	C	1.675202	-0.000064	-0.159582
C30	C	1.348735	-0.000082	0.043885
C31	C	1.345719	-0.000096	0.169900
N32	N	1.355956	0.215748	-0.177781
C33	C	1.340176	-0.000109	0.400613
C34	C	1.343256	-0.000101	0.272227
C35	C	1.334718	-0.000049	0.628960
C36	C	1.337728	-0.000118	0.502951
H37	H	1.452618	-0.223923	-0.274584
H38	H	1.230832	-0.776184	-0.052569
O39	O	1.230686	-0.611291	-0.052499
C40	C	1.165823	-0.668485	0.012450
H41	H	1.155406	-0.730626	-0.030407
H42	H	1.211424	-0.677774	0.101840
C43	C	1.060236	-0.558148	0.073178
C44	C	1.047434	-0.634468	0.020534
H45	H	0.987210	-0.537164	0.078170
H46	H	1.103938	-0.519615	0.029424
H47	H	1.098241	-0.565899	0.147664
H48	H	1.009442	-0.626714	-0.053955
H49	H	1.003722	-0.673000	0.064276
H50	H	1.190947	-0.382165	-0.012663
H51	H	1.482129	-0.776126	-0.304062
O52	O	1.452698	-0.388816	-0.274715
C53	C	1.517594	-0.331626	-0.339637
H54	H	1.474732	-0.269477	-0.350029
H55	H	1.607009	-0.322354	-0.294098
C56	C	1.578239	-0.441962	-0.445266
C57	C	1.525590	-0.365633	-0.458038
H58	H	1.583177	-0.462940	-0.518300
H59	H	1.534521	-0.480493	-0.401524
H60	H	1.652746	-0.434226	-0.407313
H61	H	1.451079	-0.373372	-0.495977
H62	H	1.569296	-0.327104	-0.501789
O63	O	1.190786	-0.217257	-0.012603
C64	C	1.125922	-0.274445	0.052354
H65	H	1.115497	-0.336587	0.009501
H66	H	1.171527	-0.283732	0.141742
C67	C	1.020349	-0.164099	0.113078
C68	C	1.007537	-0.240422	0.060441
H69	H	0.947325	-0.143112	0.118073
H70	H	1.064051	-0.125570	0.069319
H71	H	1.058357	-0.171849	0.187564
H72	H	0.969542	-0.232670	-0.014047
H73	H	0.963825	-0.278950	0.104188
H74	H	1.251479	-0.514871	-0.073243
O75	O	1.503959	-0.611215	-0.325833
C76	C	1.561310	-0.668373	-0.383262
H77	H	1.563562	-0.730533	-0.332229
H78	H	1.514491	-0.677631	-0.471431
C79	C	1.681396	-0.557990	-0.458505
C80	C	1.684171	-0.634333	-0.395821
H81	H	1.757181	-0.536992	-0.466258
H82	H	1.642755	-0.519480	-0.419818
H83	H	1.642375	-0.565715	-0.531974
H84	H	1.723179	-0.626605	-0.322350
H85	H	1.722821	-0.672841	-0.434497
H86	H	1.431996	-0.485241	-0.253883
