data_functionalizedCrystal
_audit_creation_method	'MofGen! by Chris Wilmer'
_symmetry_space_group_name_H-M	'P1'
_symmetry_Int_Tables_number	1
_symmetry_cell_setting	triclinic
loop_
_symmetry_equiv_pos_as_xyz
  x,y,z
_cell_length_a	25.639242
_cell_length_b	19.077068
_cell_length_c	19.076919
_cell_angle_alpha	94.470751
_cell_angle_beta	92.272383
_cell_angle_gamma	92.322930
loop_
_atom_site_label
_atom_site_type_symbol
_atom_site_fract_x
_atom_site_fract_y
_atom_site_fract_z
Zn1	Zn	0.778189	-0.296771	-0.410014
Zn2	Zn	1.111522	0.036562	-0.076681
Zn3	Zn	1.444856	0.369895	0.256652
Zn4	Zn	0.778124	-0.409925	-0.296859
Zn5	Zn	1.111458	-0.076591	0.036474
Zn6	Zn	1.444791	0.256742	0.369808
Zn7	Zn	0.694419	-0.292046	-0.292126
Zn8	Zn	1.027753	0.041287	0.041207
Zn9	Zn	1.361086	0.374621	0.374540
Zn10	Zn	0.687071	-0.414611	-0.414683
Zn11	Zn	1.020404	-0.081278	-0.081350
Zn12	Zn	1.353738	0.252056	0.251983
O13	O	0.734451	-0.353338	-0.353421
O14	O	1.067784	-0.020005	-0.020087
O15	O	1.401118	0.313329	0.313246
O16	O	0.851344	-0.311797	-0.395031
O17	O	1.184678	0.021536	-0.061697
O18	O	1.518011	0.354869	0.271636
O19	O	0.770069	-0.390349	-0.197585
O20	O	1.103402	-0.057016	0.135749
O21	O	1.436736	0.276318	0.469082
O22	O	0.708634	-0.194024	-0.303830
O23	O	1.041967	0.139310	0.029503
O24	O	1.375301	0.472643	0.362837
O25	O	0.851297	-0.394931	-0.311896
O26	O	1.184630	-0.061597	0.021438
O27	O	1.517963	0.271736	0.354771
O28	O	0.770179	-0.197495	-0.390442
O29	O	1.103512	0.135838	-0.057108
O30	O	1.436846	0.469171	0.276225
O31	O	0.708571	-0.303744	-0.194108
O32	O	1.041905	0.029589	0.139225
O33	O	1.375238	0.362923	0.472559
O34	O	0.620281	-0.308288	-0.308357
O35	O	0.953614	0.025045	0.024976
O36	O	1.286947	0.358379	0.358309
O37	O	0.696110	-0.402918	-0.512710
O38	O	1.029443	-0.069585	-0.179377
O39	O	1.362776	0.263749	0.153956
O40	O	0.614882	-0.398336	-0.398399
O41	O	0.948215	-0.065003	-0.065066
O42	O	1.281548	0.268331	0.268267
O43	O	0.763054	-0.316342	-0.509280
O44	O	1.096387	0.016992	-0.175947
O45	O	1.429720	0.350325	0.157387
O46	O	0.762943	-0.509195	-0.316423
O47	O	1.096277	-0.175862	0.016910
O48	O	1.429610	0.157472	0.350244
O49	O	0.696047	-0.512638	-0.402988
O50	O	1.029380	-0.179305	-0.069655
O51	O	1.362714	0.154029	0.263679
C52	C	0.598611	-0.353308	-0.353372
C53	C	0.931944	-0.019975	-0.020039
C54	C	1.265277	0.313358	0.313295
C55	C	0.540497	-0.353313	-0.353368
C56	C	0.873830	-0.019980	-0.020035
C57	C	1.207163	0.313353	0.313298
C58	C	0.728704	-0.536496	-0.360741
C59	C	1.062038	-0.203162	-0.027408
C60	C	1.395371	0.130171	0.305926
C61	C	0.726293	-0.614852	-0.363896
C62	C	1.059627	-0.281519	-0.030563
C63	C	1.392960	0.051814	0.302770
C64	C	0.760015	-0.649850	-0.320346
C65	C	1.093348	-0.316517	0.012987
C66	C	1.426681	0.016817	0.346320
C67	C	0.757750	-0.723475	-0.323318
C68	C	1.091083	-0.390141	0.010015
C69	C	1.424416	-0.056808	0.343348
C70	C	0.721760	-0.762100	-0.369837
C71	C	1.055094	-0.428767	-0.036504
C72	C	1.388427	-0.095434	0.296830
C73	C	0.688038	-0.727098	-0.413392
C74	C	1.021371	-0.393764	-0.080058
C75	C	1.354704	-0.060431	0.253275
C76	C	0.690305	-0.653474	-0.410423
C77	C	1.023639	-0.320141	-0.077090
C78	C	1.356972	0.013192	0.256244
C79	C	0.711243	-0.982485	-0.383548
C80	C	1.044576	-0.649151	-0.050215
C81	C	1.377909	-0.315818	0.283119
C82	C	0.708976	-1.056113	-0.386512
C83	C	1.042310	-0.722779	-0.053179
C84	C	1.375643	-0.389446	0.280155
C85	C	0.778689	-1.052485	-0.296439
C86	C	1.112023	-0.719151	0.036894
C87	C	1.445356	-0.385818	0.370228
C88	C	0.780952	-0.978860	-0.293472
C89	C	1.114285	-0.645527	0.039862
C90	C	1.447618	-0.312194	0.373195
C91	C	0.747231	-0.943864	-0.337029
C92	C	1.080564	-0.610531	-0.003696
C93	C	1.413898	-0.277198	0.329638
N94	N	0.719443	-0.837356	-0.372874
N95	N	1.052777	-0.504023	-0.039541
N96	N	1.386110	-0.170690	0.293792
N97	N	0.749551	-0.868610	-0.333995
N98	N	1.082884	-0.535276	-0.000661
N99	N	1.416218	-0.201943	0.332672
C100	C	0.177328	-0.400300	-0.400266
C101	C	0.510661	-0.066966	-0.066933
C102	C	0.843995	0.266367	0.266401
C103	C	0.122723	-0.400304	-0.400277
C104	C	0.456056	-0.066971	-0.066944
C105	C	0.789390	0.266362	0.266390
O106	O	0.092103	-0.440218	-0.440109
O107	O	0.425437	-0.106884	-0.106776
O108	O	0.758770	0.226449	0.226557
N109	N	0.098210	-0.353359	-0.353467
N110	N	0.431543	-0.020026	-0.020134
N111	N	0.764876	0.313307	0.313199
C112	C	0.128304	-0.306402	-0.306648
C113	C	0.461638	0.026932	0.026685
C114	C	0.794971	0.360265	0.360018
O115	O	0.102440	-0.266471	-0.266835
O116	O	0.435773	0.066862	0.066499
O117	O	0.769106	0.400196	0.399832
C118	C	0.182908	-0.306394	-0.306641
C119	C	0.516241	0.026939	0.026692
C120	C	0.849575	0.360273	0.360026
C121	C	0.207418	-0.353347	-0.353449
C122	C	0.540752	-0.020014	-0.020116
C123	C	0.874085	0.313320	0.313218
C124	C	0.201838	-0.447248	-0.447070
C125	C	0.535172	-0.113915	-0.113737
C126	C	0.868505	0.219418	0.219596
C127	C	0.256439	-0.447244	-0.447058
C128	C	0.589773	-0.113911	-0.113725
C129	C	0.923106	0.219422	0.219609
C130	C	0.286530	-0.400292	-0.400241
C131	C	0.619863	-0.066958	-0.066908
C132	C	0.953197	0.266375	0.266426
C133	C	0.262019	-0.353343	-0.353437
C134	C	0.595353	-0.020010	-0.020103
C135	C	0.928686	0.313324	0.313230
C136	C	0.213001	-0.259433	-0.259826
C137	C	0.546335	0.073900	0.073507
C138	C	0.879668	0.407233	0.406841
C139	C	0.267609	-0.259429	-0.259823
C140	C	0.600942	0.073904	0.073510
C141	C	0.934275	0.407237	0.406844
C142	C	0.292119	-0.306382	-0.306631
C143	C	0.625452	0.026951	0.026703
C144	C	0.958786	0.360284	0.360036
C145	C	0.346711	-0.306386	-0.306607
C146	C	0.680044	0.026947	0.026726
C147	C	1.013377	0.360280	0.360060
N148	N	0.371224	-0.353331	-0.353417
N149	N	0.704557	-0.019998	-0.020083
N150	N	1.037891	0.313335	0.313250
C151	C	0.341134	-0.400284	-0.400234
C152	C	0.674467	-0.066951	-0.066900
C153	C	1.007800	0.266383	0.266433
C154	C	0.013632	-0.306420	-0.306668
C155	C	0.346966	0.026913	0.026665
C156	C	0.680299	0.360246	0.359998
C157	C	-0.040970	-0.306431	-0.306672
C158	C	0.292363	0.026902	0.026662
C159	C	0.625696	0.360236	0.359995
C160	C	-0.046548	-0.400333	-0.400301
C161	C	0.286786	-0.067000	-0.066968
C162	C	0.620119	0.266334	0.266365
C163	C	0.008056	-0.400325	-0.400294
C164	C	0.341389	-0.066992	-0.066961
C165	C	0.674723	0.266341	0.266373
C166	C	0.038146	-0.353365	-0.353478
C167	C	0.371479	-0.020032	-0.020144
C168	C	0.704812	0.313301	0.313189
C169	C	0.455800	-0.400272	-0.400204
C170	C	0.789133	-0.066939	-0.066870
C171	C	1.122467	0.266394	0.266463
C172	C	0.510406	-0.400266	-0.400185
C173	C	0.843739	-0.066933	-0.066852
C174	C	1.177073	0.266401	0.266481
C175	C	0.515979	-0.306362	-0.306558
C176	C	0.849312	0.026972	0.026775
C177	C	1.182645	0.360305	0.360108
C178	C	0.461377	-0.306370	-0.306574
C179	C	0.794711	0.026963	0.026759
C180	C	1.128044	0.360297	0.360093
C181	C	0.431289	-0.353328	-0.353403
C182	C	0.764622	-0.019995	-0.020069
C183	C	1.097956	0.313339	0.313264
O184	O	0.377364	-0.266491	-0.266797
O185	O	0.710697	0.066842	0.066536
O186	O	1.044031	0.400175	0.399869
O187	O	0.367005	-0.440202	-0.440047
O188	O	0.700339	-0.106868	-0.106714
O189	O	1.033672	0.226465	0.226620
C190	C	0.870821	-0.353368	-0.353470
C191	C	1.204155	-0.020035	-0.020137
C192	C	1.537488	0.313298	0.313196
C193	C	0.928934	-0.353381	-0.353491
C194	C	1.262268	-0.020048	-0.020158
C195	C	1.595601	0.313285	0.313175
C196	C	0.728769	-0.360680	-0.537288
C197	C	1.062102	-0.027346	-0.203955
C198	C	1.395436	0.305987	0.129378
C199	C	0.726348	-0.363808	-0.615642
C200	C	1.059681	-0.030475	-0.282308
C201	C	1.393015	0.302858	0.051025
C202	C	0.740233	-0.169466	-0.346087
C203	C	1.073567	0.163867	-0.012754
C204	C	1.406900	0.497201	0.320579
C205	C	0.742698	-0.091110	-0.342962
C206	C	1.076031	0.242223	-0.009629
C207	C	1.409364	0.575556	0.323705
C208	C	0.760063	-0.320204	-0.650667
C209	C	1.093396	0.013129	-0.317334
C210	C	1.426729	0.346462	0.015999
C211	C	0.757782	-0.323141	-0.724289
C212	C	1.091115	0.010192	-0.390955
C213	C	1.424448	0.343525	-0.057622
C214	C	0.721788	-0.369686	-0.762883
C215	C	1.055121	-0.036353	-0.429550
C216	C	1.388454	0.296981	-0.096216
C217	C	0.688069	-0.413292	-0.727852
C218	C	1.021402	-0.079958	-0.394519
C219	C	1.354736	0.253375	-0.061185
C220	C	0.690348	-0.410351	-0.654232
C221	C	1.023682	-0.077017	-0.320899
C222	C	1.357015	0.256316	0.012435
C223	C	0.711231	-0.383312	-0.983255
C224	C	1.044565	-0.049978	-0.649921
C225	C	1.377898	0.283355	-0.316588
C226	C	0.708956	-0.386251	-1.056880
C227	C	1.042289	-0.052918	-0.723546
C228	C	1.375623	0.280416	-0.390213
C229	C	0.778668	-0.296099	-1.053311
C230	C	1.112001	0.037234	-0.719978
C231	C	1.445335	0.370567	-0.386645
C232	C	0.780946	-0.293166	-0.979690
C233	C	1.114279	0.040168	-0.646357
C234	C	1.447613	0.373501	-0.313024
C235	C	0.747226	-0.336768	-0.944666
C236	C	1.080559	-0.003435	-0.611332
C237	C	1.413892	0.329898	-0.277999
N238	N	0.719456	-0.372691	-0.838136
N239	N	1.052789	-0.039357	-0.504802
N240	N	1.386123	0.293976	-0.171469
N241	N	0.749555	-0.333760	-0.869414
N242	N	1.082889	-0.000426	-0.536081
N243	N	1.416222	0.332907	-0.202747
C244	C	0.740142	-0.345974	-0.170266
C245	C	1.073475	-0.012641	0.163067
C246	C	1.406809	0.320692	0.496400
C247	C	0.742671	-0.342647	-0.091906
C248	C	1.076004	-0.009314	0.241428
C249	C	1.409337	0.324019	0.574761
H250	H	0.789319	-0.618406	-0.282463
H251	H	1.122652	-0.285072	0.050871
H252	H	1.455985	0.048261	0.384204
H253	H	0.806120	-0.260599	-1.081836
H254	H	1.139454	0.072734	-0.748503
H255	H	1.472787	0.406067	-0.415170
H256	H	0.662847	-0.624980	-0.445887
H257	H	0.996180	-0.291647	-0.112554
H258	H	1.329513	0.041686	0.220780
H259	H	0.810258	-0.255266	-0.948272
H260	H	1.143591	0.078068	-0.614938
H261	H	1.476924	0.411401	-0.281605
H262	H	0.662889	-0.445851	-0.625715
H263	H	0.996222	-0.112517	-0.292381
H264	H	1.329556	0.220816	0.040952
N265	N	0.670158	-1.097772	-0.436691
N266	N	1.003491	-0.764439	-0.103358
N267	N	1.336824	-0.431105	0.229975
H268	H	0.689437	-1.129593	-0.470614
H269	H	1.022770	-0.796259	-0.137281
H270	H	1.356104	-0.462926	0.196052
H271	H	0.645899	-1.127163	-0.409187
H272	H	0.979232	-0.793830	-0.075854
H273	H	1.312566	-0.460497	0.257479
H274	H	0.810257	-0.947413	-0.255592
H275	H	1.143590	-0.614079	0.077741
H276	H	1.476924	-0.280746	0.411074
N277	N	0.794120	-0.761223	-0.276347
N278	N	1.127454	-0.427890	0.056987
N279	N	1.460787	-0.094556	0.390320
H280	H	0.817261	-0.725582	-0.246423
H281	H	1.150594	-0.392249	0.086910
H282	H	1.483927	-0.058915	0.420243
H283	H	0.772923	-0.790503	-0.244929
H284	H	1.106256	-0.457169	0.088404
H285	H	1.439589	-0.123836	0.421738
H286	H	0.683785	-0.953997	-0.419013
H287	H	1.017118	-0.620663	-0.085680
H288	H	1.350451	-0.287330	0.247654
H289	H	0.806144	-1.080987	-0.260978
H290	H	1.139477	-0.747653	0.072355
H291	H	1.472810	-0.414320	0.405688
N292	N	0.046085	-0.255767	-0.256171
N293	N	0.379418	0.077566	0.077163
N294	N	0.712752	0.410899	0.410496
H295	H	0.022266	-0.226032	-0.226522
H296	H	0.355599	0.107301	0.106811
H297	H	0.688933	0.440635	0.440144
H298	H	0.068847	-0.283099	-0.224639
H299	H	0.402180	0.050235	0.108695
H300	H	0.735514	0.383568	0.442028
N301	N	0.536838	-0.450914	-0.450673
N302	N	0.870172	-0.117581	-0.117340
N303	N	1.203505	0.215753	0.215994
H304	H	0.526134	-0.442055	-0.500625
H305	H	0.859467	-0.108722	-0.167292
H306	H	1.192801	0.224611	0.166042
H307	H	0.575989	-0.443769	-0.443504
H308	H	0.909323	-0.110435	-0.110170
H309	H	1.242656	0.222898	0.223163
H310	H	0.540488	-0.268136	-0.268439
H311	H	0.873821	0.065197	0.064894
H312	H	1.207155	0.398531	0.398228
N313	N	-0.067400	-0.255795	-0.256177
N314	N	0.265933	0.077538	0.077157
N315	N	0.599266	0.410872	0.410490
H316	H	-0.089913	-0.224315	-0.283573
H317	H	0.243420	0.109018	0.049760
H318	H	0.576753	0.442351	0.383093
H319	H	-0.089920	-0.283139	-0.224619
H320	H	0.243414	0.050194	0.108714
H321	H	0.576747	0.383527	0.442047
N322	N	0.034492	-0.450961	-0.450783
N323	N	0.367825	-0.117628	-0.117450
N324	N	0.701158	0.215706	0.215883
H325	H	0.057006	-0.482437	-0.423385
H326	H	0.390339	-0.149104	-0.090051
H327	H	0.723673	0.184229	0.243282
H328	H	0.007108	-0.480658	-0.480428
H329	H	0.340442	-0.147324	-0.147094
H330	H	0.673775	0.186009	0.186239
N331	N	0.423352	-0.450920	-0.450709
N332	N	0.756686	-0.117586	-0.117375
N333	N	1.090019	0.215747	0.215958
H334	H	0.447172	-0.480658	-0.480352
H335	H	0.780506	-0.147325	-0.147019
H336	H	1.113839	0.186008	0.186315
H337	H	0.400559	-0.482354	-0.423267
H338	H	0.733892	-0.149021	-0.089933
H339	H	1.067225	0.184312	0.243400
N340	N	0.798891	-0.270007	-0.609047
N341	N	1.132224	0.063326	-0.275714
N342	N	1.465558	0.396660	0.057619
H343	H	0.823165	-0.297447	-0.579662
H344	H	1.156498	0.035886	-0.246329
H345	H	1.489831	0.369220	0.087004
H346	H	0.819865	-0.242846	-0.642459
H347	H	1.153198	0.090487	-0.309126
H348	H	1.486531	0.423821	0.024208
N349	N	0.674858	-0.430348	-0.945503
N350	N	1.008191	-0.097015	-0.612170
N351	N	1.341524	0.236318	-0.278837
H352	H	0.696013	-0.461810	-0.916268
H353	H	1.029347	-0.128476	-0.582934
H354	H	1.362680	0.204857	-0.249601
H355	H	0.652475	-0.400430	-0.913849
H356	H	0.985809	-0.067097	-0.580516
H357	H	1.319142	0.266236	-0.247183
H358	H	-0.071057	-0.438562	-0.438425
H359	H	0.262276	-0.105229	-0.105091
H360	H	0.595609	0.228104	0.228242
H361	H	0.276391	-0.485477	-0.485175
H362	H	0.609724	-0.152144	-0.151842
H363	H	0.943057	0.181190	0.181491
N364	N	0.649222	-0.768754	-0.463569
N365	N	0.982555	-0.435421	-0.130236
N366	N	1.315888	-0.102087	0.203098
H367	H	0.652900	-0.820705	-0.458840
H368	H	0.986233	-0.487372	-0.125507
H369	H	1.319566	-0.154038	0.207826
H370	H	0.612624	-0.755484	-0.452025
H371	H	0.945957	-0.422151	-0.118692
H372	H	1.279290	-0.088818	0.214642
N373	N	0.169388	-0.497900	-0.497564
N374	N	0.502721	-0.164566	-0.164231
N375	N	0.836055	0.168767	0.169103
H376	H	0.177689	-0.489047	-0.547514
H377	H	0.511023	-0.155713	-0.214181
H378	H	0.844356	0.177620	0.119153
H379	H	0.177677	-0.547782	-0.488472
H380	H	0.511010	-0.214449	-0.155139
H381	H	0.844344	0.118885	0.178195
N382	N	0.186574	-0.208791	-0.209339
N383	N	0.519907	0.124542	0.123994
N384	N	0.853241	0.457876	0.457327
H385	H	0.213929	-0.179048	-0.179688
H386	H	0.547263	0.154286	0.153646
H387	H	0.880596	0.487619	0.486979
H388	H	0.164059	-0.177360	-0.236789
H389	H	0.497393	0.155973	0.096544
H390	H	0.830726	0.489306	0.429877
N391	N	0.300062	-0.208774	-0.209331
N392	N	0.633396	0.124559	0.124002
N393	N	0.966729	0.457892	0.457335
H394	H	0.276246	-0.179034	-0.179685
H395	H	0.609579	0.154300	0.153649
H396	H	0.942913	0.487633	0.486982
H397	H	0.322822	-0.236107	-0.177798
H398	H	0.656156	0.097227	0.155536
H399	H	0.989489	0.430560	0.488869
H400	H	0.658760	-0.451187	-0.759281
H401	H	0.992094	-0.117854	-0.425948
H402	H	1.325427	0.215480	-0.092614
N403	N	0.434937	-0.255738	-0.256082
N404	N	0.768270	0.077595	0.077251
N405	N	1.101604	0.410928	0.410585
H406	H	0.462287	-0.225996	-0.226420
H407	H	0.795621	0.107337	0.106913
H408	H	1.128954	0.440671	0.440247
H409	H	0.412425	-0.224306	-0.283533
H410	H	0.745758	0.109027	0.049800
H411	H	1.079091	0.442361	0.383133
N412	N	0.794135	-0.276098	-0.762067
N413	N	1.127469	0.057235	-0.428734
N414	N	1.460802	0.390569	-0.095400
H415	H	0.817282	-0.246165	-0.726447
H416	H	1.150615	0.087168	-0.393113
H417	H	1.483949	0.420502	-0.059780
H418	H	0.816485	-0.306007	-0.793776
H419	H	1.149818	0.027326	-0.460443
H420	H	1.483151	0.360660	-0.127110
H421	H	0.679644	-0.424155	-1.088301
H422	H	1.012977	-0.090822	-0.754968
H423	H	1.346310	0.242512	-0.421635
