data_functionalizedCrystal
_audit_creation_method	'MofGen! by Chris Wilmer'
_symmetry_space_group_name_H-M	'P1'
_symmetry_Int_Tables_number	1
_symmetry_cell_setting	triclinic
loop_
_symmetry_equiv_pos_as_xyz
  x,y,z
_cell_length_a	14.519731
_cell_length_b	14.519709
_cell_length_c	12.996460
_cell_angle_alpha	90.008707
_cell_angle_beta	89.993690
_cell_angle_gamma	96.315501
loop_
_atom_site_label
_atom_site_type_symbol
_atom_site_fract_x
_atom_site_fract_y
_atom_site_fract_z
O1	O	1.223858	-0.120978	-0.085589
O2	O	1.473858	0.129022	0.164411
O3	O	1.723858	0.379022	0.414411
O4	O	1.973858	0.629022	0.664411
O5	O	0.955384	-0.135195	-0.085593
O6	O	1.205384	0.114805	0.164407
O7	O	1.455384	0.364805	0.414407
O8	O	1.705384	0.614805	0.664407
O9	O	1.096739	0.006151	-0.085562
O10	O	1.346739	0.256151	0.164438
O11	O	1.596739	0.506151	0.414438
O12	O	1.846739	0.756151	0.664438
O13	O	1.082503	-0.262324	-0.085620
O14	O	1.332503	-0.012324	0.164380
O15	O	1.582503	0.237676	0.414380
O16	O	1.832503	0.487676	0.664380
O17	O	1.096721	0.006143	0.085572
O18	O	1.346721	0.256143	0.335572
O19	O	1.596721	0.506143	0.585572
O20	O	1.846721	0.756143	0.835572
O21	O	0.955366	-0.135203	0.085541
O22	O	1.205366	0.114797	0.335541
O23	O	1.455366	0.364797	0.585541
O24	O	1.705366	0.614797	0.835541
O25	O	1.223840	-0.120987	0.085545
O26	O	1.473840	0.129013	0.335545
O27	O	1.723840	0.379013	0.585545
O28	O	1.973840	0.629013	0.835545
Cu29	Cu	1.089601	-0.128095	0.101169
Cu30	Cu	1.339601	0.121905	0.351169
Cu31	Cu	1.589601	0.371905	0.601169
Cu32	Cu	1.839601	0.621905	0.851169
Cu33	Cu	1.089623	-0.128086	-0.101217
Cu34	Cu	1.339623	0.121914	0.148783
Cu35	Cu	1.589623	0.371914	0.398783
Cu36	Cu	1.839623	0.621914	0.648783
O37	O	1.082485	-0.262333	0.085514
O38	O	1.332485	-0.012333	0.335514
O39	O	1.582485	0.237667	0.585514
O40	O	1.832485	0.487667	0.835514
C41	C	0.921016	-0.134532	-0.000026
C42	C	1.171016	0.115468	0.249974
C43	C	1.421016	0.365468	0.499974
C44	C	1.671016	0.615468	0.749974
C45	C	0.818635	-0.132536	-0.000026
C46	C	1.068635	0.117464	0.249974
C47	C	1.318635	0.367464	0.499974
C48	C	1.568635	0.617464	0.749974
C49	C	1.096067	0.040507	0.000010
C50	C	1.346067	0.290507	0.250010
C51	C	1.596067	0.540507	0.500010
C52	C	1.846067	0.790507	0.750010
C53	C	1.094079	0.142889	0.000026
C54	C	1.344079	0.392889	0.250026
C55	C	1.594079	0.642889	0.500026
C56	C	1.844079	0.892889	0.750026
C57	C	0.735491	-0.130915	-0.000030
C58	C	0.985491	0.119085	0.249970
C59	C	1.235491	0.369085	0.499970
C60	C	1.485491	0.619085	0.749970
C61	C	0.631182	-0.128888	-0.000030
C62	C	0.881182	0.121112	0.249970
C63	C	1.131182	0.371112	0.499970
C64	C	1.381182	0.621112	0.749970
C65	C	0.548043	-0.127280	-0.000029
C66	C	0.798043	0.122720	0.249971
C67	C	1.048043	0.372720	0.499971
C68	C	1.298043	0.622720	0.749971
C69	C	0.443728	-0.125253	-0.000031
C70	C	0.693728	0.124747	0.249969
C71	C	0.943728	0.374747	0.499969
C72	C	1.193728	0.624747	0.749969
C73	C	1.086759	0.517785	0.000053
C74	C	1.336759	0.767785	0.250053
C75	C	1.586759	1.017785	0.500053
C76	C	1.836759	1.267785	0.750053
C77	C	1.088792	0.413477	0.000046
C78	C	1.338792	0.663477	0.250046
C79	C	1.588792	0.913477	0.500046
C80	C	1.838792	1.163477	0.750046
C81	C	1.090419	0.330340	0.000040
C82	C	1.340419	0.580340	0.250040
C83	C	1.590419	0.830340	0.500040
C84	C	1.840419	1.080340	0.750040
C85	C	1.092452	0.226025	0.000031
C86	C	1.342452	0.476025	0.250031
C87	C	1.592452	0.726025	0.500031
C88	C	1.842452	0.976025	0.750031
C89	C	1.258209	-0.121649	-0.000024
C90	C	1.508209	0.128351	0.249976
C91	C	1.758209	0.378351	0.499976
C92	C	2.008209	0.628351	0.749976
C93	C	1.360589	-0.123645	-0.000031
C94	C	1.610589	0.126355	0.249969
C95	C	1.860589	0.376355	0.499969
C96	C	2.110589	0.626355	0.749969
N97	N	1.089593	-0.128102	0.243516
N98	N	1.339593	0.121898	0.493516
N99	N	1.589593	0.371898	0.743516
N100	N	1.839593	0.621898	0.993516
C101	C	1.083157	0.703312	-0.000024
C102	C	1.333157	0.953312	0.249976
C103	C	1.583157	1.203312	0.499976
C104	C	1.833157	1.453312	0.749976
C105	C	1.085146	0.600930	0.000063
C106	C	1.335146	0.850930	0.250063
C107	C	1.585146	1.100930	0.500063
C108	C	1.835146	1.350930	0.750063
N109	N	1.089639	-0.128072	-0.243564
N110	N	1.339639	0.121928	0.006436
N111	N	1.589639	0.371928	0.256436
N112	N	1.839639	0.621928	0.506436
C113	C	1.089597	-0.128104	0.336622
C114	C	1.339597	0.121896	0.586622
C115	C	1.589597	0.371896	0.836622
C116	C	1.839597	0.621896	1.086622
C117	C	1.089606	-0.128098	0.453427
C118	C	1.339606	0.121902	0.703427
C119	C	1.589606	0.371902	0.953427
C120	C	1.839606	0.621902	1.203427
C121	C	1.089617	-0.128088	0.546525
C122	C	1.339617	0.121912	0.796525
C123	C	1.589617	0.371912	1.046525
C124	C	1.839617	0.621912	1.296525
C125	C	1.089627	-0.128082	0.663338
C126	C	1.339627	0.121918	0.913338
C127	C	1.589627	0.371918	1.163338
C128	C	1.839627	0.621918	1.413338
