data_functionalizedCrystal
_audit_creation_method	'MofGen! by Chris Wilmer'
_symmetry_space_group_name_H-M	'P1'
_symmetry_Int_Tables_number	1
_symmetry_cell_setting	triclinic
loop_
_symmetry_equiv_pos_as_xyz
  x,y,z
_cell_length_a	12.759401
_cell_length_b	18.101395
_cell_length_c	12.759393
_cell_angle_alpha	89.967630
_cell_angle_beta	89.979062
_cell_angle_gamma	90.032629
loop_
_atom_site_label
_atom_site_type_symbol
_atom_site_fract_x
_atom_site_fract_y
_atom_site_fract_z
Zn1	Zn	1.606147	-0.294764	-0.594006
Zn2	Zn	1.605987	-0.418623	-0.418321
Zn3	Zn	1.430445	-0.294803	-0.418342
Zn4	Zn	1.430387	-0.418571	-0.593958
O5	O	1.518242	-0.356690	-0.506157
O6	O	1.753147	-0.311199	-0.570713
O7	O	1.582659	-0.402236	-0.271302
O8	O	1.453844	-0.191165	-0.441673
O9	O	1.753030	-0.402198	-0.441637
O10	O	1.582931	-0.191136	-0.570733
O11	O	1.453689	-0.311266	-0.271318
O12	O	1.283417	-0.311216	-0.441626
O13	O	1.453744	-0.402110	-0.740986
O14	O	1.283374	-0.402148	-0.570651
O15	O	1.582874	-0.311149	-0.741021
O16	O	1.582603	-0.522249	-0.441590
O17	O	1.453590	-0.522211	-0.570630
C18	C	1.245274	-0.356681	-0.506136
C19	C	1.128498	-0.356695	-0.506152
C20	C	1.518101	-0.549101	-0.506126
C21	C	1.518137	-0.631415	-0.506148
C22	C	1.073641	-0.404115	-0.573229
C23	C	0.963917	-0.404118	-0.573250
C24	C	0.963916	-0.309278	-0.439107
C25	C	1.073638	-0.309272	-0.439092
C26	C	1.518368	-0.930506	-0.506204
C27	C	1.437384	-0.899187	-0.587594
C28	C	1.436999	-0.813570	-0.587340
C29	C	1.518253	-0.782123	-0.506177
C30	C	1.488271	-0.813282	-0.395451
C31	C	1.487748	-0.898927	-0.395938
C32	C	1.629511	-0.898846	-0.534565
C33	C	1.628857	-0.813194	-0.536994
C34	C	1.518190	-0.698264	-0.506155
C35	C	1.518428	-1.014365	-0.506219
C36	C	1.792275	-0.356700	-0.506178
C37	C	1.909051	-0.356704	-0.506187
C38	C	1.518320	-0.356619	-0.780190
C39	C	1.518354	-0.356589	-0.896967
C40	C	1.518411	-0.163528	-0.506211
C41	C	1.518484	-0.081214	-0.506234
C42	C	1.585597	-0.309218	-0.951849
C43	C	1.585614	-0.309186	-1.061573
C44	C	1.451143	-0.403902	-1.061523
C45	C	1.451121	-0.403930	-0.951801
C46	C	1.518224	-0.356708	-0.233189
C47	C	1.518394	-0.356529	-0.116413
H48	H	1.118304	-0.442728	-0.627836
H49	H	0.919257	-0.442732	-0.627873
C50	C	1.565433	-0.785768	-0.311286
H51	H	1.545858	-0.805264	-0.244958
H52	H	1.563774	-0.733337	-0.308674
H53	H	1.634275	-0.801742	-0.328297
H54	H	1.651467	-0.792826	-0.618482
H55	H	1.407886	-0.791900	-0.370996
C56	C	0.903567	-0.257126	-0.365336
H57	H	0.830364	-0.263926	-0.374942
H58	H	0.921588	-0.207379	-0.380828
H59	H	0.921510	-0.267912	-0.294714
C60	C	1.659587	-0.257082	-1.121939
H61	H	1.699627	-0.228897	-1.073564
H62	H	1.619440	-0.224798	-1.164744
H63	H	1.705348	-0.285408	-1.164740
C64	C	1.326768	-0.928350	-0.562550
H65	H	1.278325	-0.909168	-0.612097
H66	H	1.307064	-0.913108	-0.494098
H67	H	1.326673	-0.980774	-0.566024
C68	C	1.133985	-0.257109	-0.365302
H69	H	1.085599	-0.228874	-0.325356
H70	H	1.176830	-0.224875	-0.405568
H71	H	1.176744	-0.285402	-0.319446
H72	H	1.455759	-0.792500	-0.669442
C73	C	1.462372	-0.927028	-0.698844
H74	H	1.522423	-0.957995	-0.696658
H75	H	1.475750	-0.886073	-0.743478
H76	H	1.404330	-0.954237	-0.725017
H77	H	1.656845	-0.920388	-0.613930
H78	H	1.692386	-0.791784	-0.482034
C79	C	1.377200	-0.455980	-1.121839
H80	H	1.337143	-0.484192	-1.073436
H81	H	1.417369	-0.488239	-1.164638
H82	H	1.331454	-0.427635	-1.164643
H83	H	1.640339	-0.270668	-0.907206
C84	C	1.377157	-0.456045	-0.891427
H85	H	1.337131	-0.484244	-0.939797
H86	H	1.331398	-0.427727	-0.848621
H87	H	1.417322	-0.488326	-0.848625
H88	H	1.354618	-0.793149	-0.568554
C89	C	1.377994	-0.926012	-0.363494
H90	H	1.334144	-0.884672	-0.350145
H91	H	1.383368	-0.955268	-0.301902
H92	H	1.348748	-0.954794	-0.418436
H93	H	1.544174	-0.919647	-0.333229
C94	C	1.710997	-0.926131	-0.454416
H95	H	1.677509	-0.956678	-0.403921
H96	H	1.741964	-0.884900	-0.420336
H97	H	1.763771	-0.953642	-0.489525
