data_functionalizedCrystal
_audit_creation_method	'MofGen! by Chris Wilmer'
_symmetry_space_group_name_H-M	'P1'
_symmetry_Int_Tables_number	1
_symmetry_cell_setting	triclinic
loop_
_symmetry_equiv_pos_as_xyz
  x,y,z
_cell_length_a	11.792241
_cell_length_b	16.992701
_cell_length_c	10.868271
_cell_angle_alpha	89.995658
_cell_angle_beta	90.000150
_cell_angle_gamma	92.569707
loop_
_atom_site_label
_atom_site_type_symbol
_atom_site_fract_x
_atom_site_fract_y
_atom_site_fract_z
O1	O	-0.240740	1.041415	-0.102309
O2	O	0.259260	1.541415	0.397691
O3	O	-0.238102	0.813118	-0.102309
O4	O	0.261898	1.313118	0.397691
O5	O	-0.074704	0.932806	-0.102316
O6	O	0.425296	1.432806	0.397684
O7	O	-0.404139	0.921726	-0.102302
O8	O	0.095861	1.421726	0.397698
O9	O	-0.074696	0.932797	0.102328
O10	O	0.425304	1.432797	0.602328
O11	O	-0.238094	0.813108	0.102335
O12	O	0.261906	1.313108	0.602335
O13	O	-0.240733	1.041405	0.102336
O14	O	0.259267	1.541405	0.602336
Zn15	Zn	-0.239412	0.927255	0.134827
Zn16	Zn	0.260588	1.427255	0.634827
Zn17	Zn	-0.239422	0.927268	-0.134801
Zn18	Zn	0.260578	1.427268	0.365199
O19	O	-0.404131	0.921716	0.102343
O20	O	0.095869	1.421716	0.602343
C21	C	-0.234701	0.783886	0.000013
C22	C	0.265299	1.283886	0.500013
C23	C	-0.224564	0.696799	0.000012
C24	C	0.275436	1.196799	0.500012
C25	C	-0.156454	0.207550	0.000004
C26	C	0.343546	0.707550	0.500004
C27	C	-0.165987	0.289377	0.000012
C28	C	0.334013	0.789377	0.500012
C29	C	-0.273339	0.321376	0.000011
C30	C	0.226661	0.821376	0.500011
C31	C	-0.371163	0.271544	0.000015
C32	C	0.128837	0.771544	0.500015
C33	C	-0.361629	0.189719	0.000016
C34	C	0.138371	0.689719	0.500016
C35	C	-0.312854	0.565141	0.000016
C36	C	0.187146	1.065141	0.500016
C37	C	-0.322381	0.646973	0.000012
C38	C	0.177619	1.146973	0.500012
C39	C	-0.117204	0.664800	0.000011
C40	C	0.382796	1.164800	0.500011
C41	C	-0.107679	0.582972	0.000004
C42	C	0.392321	1.082972	0.500004
C43	C	-0.205504	0.533147	0.000015
C44	C	0.294496	1.033147	0.500015
N45	N	-0.283086	0.405016	0.000015
N46	N	0.216914	0.905016	0.500015
N47	N	-0.195755	0.449509	0.000019
N48	N	0.304245	0.949509	0.500019
C49	C	-0.446483	0.922417	0.000022
C50	C	0.053517	1.422417	0.500022
C51	C	-0.572667	0.924500	0.000028
C52	C	-0.072667	1.424500	0.500028
C53	C	-0.803692	0.928331	-0.000003
C54	C	-0.303692	1.428331	0.499997
C55	C	-0.675133	0.926203	0.000014
C56	C	-0.175133	1.426203	0.500014
C57	C	-0.032352	0.932105	0.000001
C58	C	0.467648	1.432105	0.500001
C59	C	0.093832	0.930022	-0.000012
C60	C	0.593832	1.430022	0.499988
C61	C	-0.244134	1.070637	0.000011
C62	C	0.255866	1.570637	0.500011
C63	C	-0.254271	1.157724	0.000004
C64	C	0.245729	1.657724	0.500004
N65	N	-0.239405	0.927252	0.318841
N66	N	0.260595	1.427252	0.818841
N67	N	-0.239421	0.927277	-0.318815
N68	N	0.260579	1.427277	0.181185
C69	C	-0.239420	0.927264	0.569847
C70	C	0.260580	1.427264	1.069847
C71	C	-0.239415	0.927255	0.430170
C72	C	0.260585	1.427255	0.930170
H73	H	-0.392511	0.524583	0.000019
H74	H	0.107489	1.024583	0.500019
C75	C	-0.009604	0.719605	0.000004
C76	C	0.490396	1.219605	0.500004
H77	H	0.055695	0.688827	-0.000005
H78	H	0.555695	1.188827	0.499995
H79	H	-0.009054	0.751895	0.071365
H80	H	0.490946	1.251895	0.571365
H81	H	-0.009059	0.751895	-0.071372
H82	H	0.490941	1.251895	0.428628
H83	H	-0.086333	0.329942	0.000017
H84	H	0.413667	0.829942	0.500017
H85	H	-0.409804	0.673023	0.000029
H86	H	0.090196	1.173023	0.500029
H87	H	-0.020262	0.556925	0.000005
H88	H	0.479738	1.056925	0.500005
C89	C	-0.489248	0.306742	0.000012
C90	C	0.010752	0.806742	0.500012
H91	H	-0.480918	0.362610	-0.000002
H92	H	0.019082	0.862610	0.499998
H93	H	-0.529841	0.289667	0.071374
H94	H	-0.029841	0.789667	0.571374
H95	H	-0.529830	0.289669	-0.071363
H96	H	-0.029830	0.789669	0.428637
C97	C	-0.469228	0.134910	0.000005
C98	C	0.030772	0.634910	0.500005
H99	H	-0.534529	0.165686	-0.000008
H100	H	-0.034529	0.665686	0.499992
H101	H	-0.469778	0.102615	0.071368
H102	H	0.030222	0.602615	0.571368
H103	H	-0.469768	0.102625	-0.071369
H104	H	0.030232	0.602625	0.428631
C105	C	-0.038366	0.172357	0.000005
C106	C	0.461634	0.672357	0.500005
H107	H	0.018524	0.213754	0.000018
H108	H	0.518524	0.713754	0.500018
H109	H	-0.030376	0.140811	-0.071357
H110	H	0.469624	0.640811	0.428643
H111	H	-0.030385	0.140806	0.071380
H112	H	0.469615	0.640806	0.571380
