data_functionalizedCrystal
_audit_creation_method	'MofGen! by Chris Wilmer'
_symmetry_space_group_name_H-M	'P1'
_symmetry_Int_Tables_number	1
_symmetry_cell_setting	triclinic
loop_
_symmetry_equiv_pos_as_xyz
  x,y,z
_cell_length_a	12.827893
_cell_length_b	16.625546
_cell_length_c	12.827885
_cell_angle_alpha	89.964876
_cell_angle_beta	89.980728
_cell_angle_gamma	90.022629
loop_
_atom_site_label
_atom_site_type_symbol
_atom_site_fract_x
_atom_site_fract_y
_atom_site_fract_z
Zn1	Zn	1.597620	-0.320959	-0.590805
Zn2	Zn	1.847620	-0.070959	-0.340805
Zn3	Zn	2.097620	0.179041	-0.090805
Zn4	Zn	2.347620	0.429041	0.159195
Zn5	Zn	1.597492	-0.455813	-0.416049
Zn6	Zn	1.847492	-0.205813	-0.166049
Zn7	Zn	2.097492	0.044187	0.083951
Zn8	Zn	2.347492	0.294187	0.333951
Zn9	Zn	1.422861	-0.320999	-0.416079
Zn10	Zn	1.672861	-0.070999	-0.166079
Zn11	Zn	1.922861	0.179001	0.083921
Zn12	Zn	2.172861	0.429001	0.333921
Zn13	Zn	1.422825	-0.455754	-0.590749
Zn14	Zn	1.672825	-0.205754	-0.340749
Zn15	Zn	1.922825	0.044246	-0.090749
Zn16	Zn	2.172825	0.294246	0.159251
O17	O	1.510200	-0.388381	-0.503420
O18	O	1.760200	-0.138381	-0.253420
O19	O	2.010200	0.111619	-0.003420
O20	O	2.260200	0.361619	0.246580
O21	O	1.743839	-0.338856	-0.567633
O22	O	1.993839	-0.088856	-0.317633
O23	O	2.243839	0.161144	-0.067633
O24	O	2.493839	0.411144	0.182367
O25	O	1.574288	-0.437971	-0.269816
O26	O	1.824288	-0.187971	-0.019816
O27	O	2.074288	0.062029	0.230184
O28	O	2.324288	0.312029	0.480184
O29	O	1.446112	-0.208161	-0.439292
O30	O	1.696112	0.041839	-0.189292
O31	O	1.946112	0.291839	0.060708
O32	O	2.196112	0.541839	0.310708
O33	O	1.743745	-0.437933	-0.439241
O34	O	1.993745	-0.187933	-0.189241
O35	O	2.243745	0.062067	0.060759
O36	O	2.493745	0.312067	0.310759
O37	O	1.574507	-0.208132	-0.567663
O38	O	1.824507	0.041868	-0.317663
O39	O	2.074507	0.291868	-0.067663
O40	O	2.324507	0.541868	0.182337
O41	O	1.445988	-0.338924	-0.269839
O42	O	1.695988	-0.088924	-0.019839
O43	O	1.945988	0.161076	0.230161
O44	O	2.195988	0.411076	0.480161
O45	O	1.276620	-0.338866	-0.439239
O46	O	1.526620	-0.088866	-0.189239
O47	O	1.776620	0.161134	0.060761
O48	O	2.026620	0.411134	0.310761
O49	O	1.446051	-0.437831	-0.736993
O50	O	1.696051	-0.187831	-0.486993
O51	O	1.946051	0.062169	-0.236993
O52	O	2.196051	0.312169	0.013007
O53	O	1.276594	-0.437870	-0.567568
O54	O	1.526594	-0.187870	-0.317568
O55	O	1.776594	0.062130	-0.067568
O56	O	2.026594	0.312130	0.182432
O57	O	1.574472	-0.338798	-0.737033
O58	O	1.824472	-0.088798	-0.487033
O59	O	2.074472	0.161202	-0.237033
O60	O	2.324472	0.411202	0.012967
O61	O	1.574254	-0.568638	-0.439187
O62	O	1.824254	-0.318638	-0.189187
O63	O	2.074254	-0.068638	0.060813
O64	O	2.324254	0.181362	0.310813
O65	O	1.445927	-0.568594	-0.567539
O66	O	1.695927	-0.318594	-0.317539
O67	O	1.945927	-0.068594	-0.067539
O68	O	2.195927	0.181406	0.182461
C69	C	1.238690	-0.388366	-0.503401
C70	C	1.488690	-0.138366	-0.253401
C71	C	1.738690	0.111634	-0.003401
C72	C	1.988690	0.361634	0.246599
C73	C	1.122537	-0.388380	-0.503418
C74	C	1.372537	-0.138380	-0.253418
C75	C	1.622537	0.111620	-0.003418
C76	C	1.872537	0.361620	0.246582
C77	C	1.070737	-0.339324	-0.440029
C78	C	1.320737	-0.089324	-0.190029
C79	C	1.570737	0.160676	0.059971
C80	C	1.820737	0.410676	0.309971
C81	C	0.950687	-0.339337	-0.440045
C82	C	1.200687	-0.089337	-0.190045
C83	C	1.450687	0.160663	0.059955
C84	C	1.700687	0.410663	0.309955
C85	C	1.510101	-0.597872	-0.503377
C86	C	1.760101	-0.347872	-0.253377
C87	C	2.010101	-0.097872	-0.003377
C88	C	2.260101	0.152128	0.246623
C89	C	1.510154	-0.687493	-0.503393
C90	C	1.760154	-0.437493	-0.253393
C91	C	2.010154	-0.187493	-0.003393
C92	C	2.260154	0.062507	0.246607
C93	C	1.510336	-1.015669	-0.503502
C94	C	1.760336	-0.765669	-0.253502
C95	C	2.010336	-0.515669	-0.003502
C96	C	2.260336	-0.265669	0.246498
C97	C	1.510282	-0.924360	-0.503474
C98	C	1.760282	-0.674360	-0.253474
C99	C	2.010282	-0.424360	-0.003474
C100	C	2.260282	-0.174360	0.246526
C101	C	1.510244	-0.851584	-0.503447
C102	C	1.760244	-0.601584	-0.253447
C103	C	2.010244	-0.351584	-0.003447
C104	C	2.260244	-0.101584	0.246553
C105	C	1.510192	-0.760270	-0.503420
C106	C	1.760192	-0.510270	-0.253420
C107	C	2.010192	-0.260270	-0.003420
C108	C	2.260192	-0.010270	0.246580
C109	C	1.782770	-0.388397	-0.503440
C110	C	2.032770	-0.138397	-0.253440
C111	C	2.282770	0.111603	-0.003440
C112	C	2.532770	0.361603	0.246560
C113	C	1.898923	-0.388403	-0.503448
C114	C	2.148923	-0.138403	-0.253448
C115	C	2.398923	0.111597	-0.003448
C116	C	2.648923	0.361597	0.246552
C117	C	1.510272	-0.388304	-0.775991
C118	C	1.760272	-0.138304	-0.525991
C119	C	2.010272	0.111696	-0.275991
C120	C	2.260272	0.361696	-0.025991
C121	C	1.510302	-0.388271	-0.892144
C122	C	1.760302	-0.138271	-0.642144
C123	C	2.010302	0.111729	-0.392144
C124	C	2.260302	0.361729	-0.142144
C125	C	1.510327	-0.178072	-0.503487
C126	C	1.760327	0.071928	-0.253487
C127	C	2.010327	0.321928	-0.003487
C128	C	2.260327	0.571928	0.246513
C129	C	1.510382	-0.088451	-0.503516
C130	C	1.760382	0.161549	-0.253516
C131	C	2.010382	0.411549	-0.003516
C132	C	2.260382	0.661549	0.246484
C133	C	1.446835	-0.339249	-0.943940
C134	C	1.696835	-0.089249	-0.693940
C135	C	1.946835	0.160751	-0.443940
C136	C	2.196835	0.410751	-0.193940
C137	C	1.446866	-0.339214	-1.063990
C138	C	1.696866	-0.089214	-0.813990
C139	C	1.946866	0.160786	-0.563990
C140	C	2.196866	0.410786	-0.313990
C141	C	1.510188	-0.388400	-0.231910
C142	C	1.760188	-0.138400	0.018090
C143	C	2.010188	0.111600	0.268090
C144	C	2.260188	0.361600	0.518090
C145	C	1.510360	-0.388206	-0.115758
C146	C	1.760360	-0.138206	0.134242
C147	C	2.010360	0.111794	0.384242
C148	C	2.260360	0.361794	0.634242
H149	H	0.943462	-0.430400	-0.557726
H150	H	1.193462	-0.180400	-0.307726
H151	H	1.443462	0.069600	-0.057726
H152	H	1.693462	0.319600	0.192274
C153	C	1.130878	-0.282568	-0.366701
C154	C	1.380878	-0.032568	-0.116701
C155	C	1.630878	0.217432	0.133299
C156	C	1.880878	0.467432	0.383299
H157	H	1.082812	-0.251794	-0.326931
H158	H	1.332812	-0.001794	-0.076931
H159	H	1.582812	0.248206	0.173069
H160	H	1.832812	0.498206	0.423069
H161	H	1.173487	-0.247501	-0.406795
H162	H	1.423487	0.002499	-0.156795
H163	H	1.673487	0.252499	0.093205
H164	H	1.923487	0.502499	0.343205
H165	H	1.173425	-0.313396	-0.321122
H166	H	1.423425	-0.063396	-0.071122
H167	H	1.673425	0.186604	0.178878
H168	H	1.923425	0.436604	0.428878
C169	C	1.373400	-0.282584	-0.883790
C170	C	1.623400	-0.032584	-0.633790
C171	C	1.873400	0.217416	-0.383790
C172	C	2.123400	0.467416	-0.133790
H173	H	1.383019	-0.290037	-0.810993
H174	H	1.633019	-0.040037	-0.560993
H175	H	1.883019	0.209963	-0.310993
H176	H	2.133019	0.459963	-0.060993
H177	H	1.303167	-0.294359	-0.901617
H178	H	1.553167	-0.044359	-0.651617
H179	H	1.803167	0.205641	-0.401617
H180	H	2.053167	0.455641	-0.151617
H181	H	1.388726	-0.228390	-0.901643
H182	H	1.638726	0.021610	-0.651643
H183	H	1.888726	0.271610	-0.401643
H184	H	2.138726	0.521610	-0.151643
H185	H	0.906141	-0.297335	-0.385780
H186	H	1.156141	-0.047335	-0.135780
H187	H	1.406141	0.202665	0.114220
H188	H	1.656141	0.452665	0.364220
C189	C	1.062396	-0.445111	-0.576778
C190	C	1.312396	-0.195111	-0.326778
C191	C	1.562396	0.054889	-0.076778
C192	C	1.812396	0.304889	0.173222
H193	H	1.110462	-0.475884	-0.616549
H194	H	1.360462	-0.225884	-0.366549
H195	H	1.610462	0.024116	-0.116549
H196	H	1.860462	0.274116	0.133451
H197	H	1.019860	-0.414265	-0.622339
H198	H	1.269860	-0.164265	-0.372339
H199	H	1.519860	0.085735	-0.122339
H200	H	1.769860	0.335735	0.127661
H201	H	1.019776	-0.480192	-0.536707
H202	H	1.269776	-0.230192	-0.286707
H203	H	1.519776	0.019808	-0.036707
H204	H	1.769776	0.269808	0.213293
H205	H	1.392534	-0.297242	-1.108533
H206	H	1.642534	-0.047242	-0.858533
H207	H	1.892534	0.202758	-0.608533
H208	H	2.142534	0.452758	-0.358533
C209	C	1.583771	-0.444909	-1.055604
C210	C	1.833771	-0.194909	-0.805604
C211	C	2.083771	0.055091	-0.555604
C212	C	2.333771	0.305091	-0.305604
H213	H	1.623614	-0.475638	-1.103656
H214	H	1.873614	-0.225638	-0.853656
H215	H	2.123614	0.024362	-0.603656
H216	H	2.373614	0.274362	-0.353656
H217	H	1.543726	-0.480020	-1.013009
H218	H	1.793726	-0.230020	-0.763009
H219	H	2.043726	0.019980	-0.513009
H220	H	2.293726	0.269980	-0.263009
H221	H	1.629278	-0.414046	-1.013041
H222	H	1.879278	-0.164046	-0.763041
H223	H	2.129278	0.085954	-0.513041
H224	H	2.379278	0.335954	-0.263041
H225	H	1.564660	-0.430215	-0.936676
H226	H	1.814660	-0.180215	-0.686676
H227	H	2.064660	0.069785	-0.436676
H228	H	2.314660	0.319785	-0.186676
