data_functionalizedCrystal
_audit_creation_method	'MofGen! by Chris Wilmer'
_symmetry_space_group_name_H-M	'P1'
_symmetry_Int_Tables_number	1
_symmetry_cell_setting	triclinic
loop_
_symmetry_equiv_pos_as_xyz
  x,y,z
_cell_length_a	16.109318
_cell_length_b	14.519731
_cell_length_c	15.186229
_cell_angle_alpha	89.995270
_cell_angle_beta	90.000224
_cell_angle_gamma	83.578708
loop_
_atom_site_label
_atom_site_type_symbol
_atom_site_fract_x
_atom_site_fract_y
_atom_site_fract_z
O1	O	1.103335	0.118615	-0.073157
O2	O	0.861302	0.133350	-0.073175
O3	O	0.988726	-0.008268	-0.073158
O4	O	0.975910	0.260233	-0.073175
O5	O	0.988718	-0.008270	0.073299
O6	O	0.861293	0.133348	0.073282
O7	O	1.103327	0.118613	0.073300
Zn8	Zn	0.982309	0.125980	0.096544
Zn9	Zn	0.982320	0.125983	-0.096420
O10	O	0.975902	0.260231	0.073282
C11	C	0.830322	0.132749	0.000051
C12	C	0.738024	0.130951	0.000044
C13	C	0.988122	-0.042627	0.000071
C14	C	0.986322	-0.145004	0.000071
C15	C	0.438944	0.125146	-0.079774
C16	C	0.525669	0.126829	-0.079779
C17	C	0.525678	0.126814	0.079897
C18	C	0.438956	0.125124	0.079901
C19	C	0.395591	0.124295	0.000064
C20	C	0.569037	0.127668	0.000053
C21	C	0.663068	0.129493	0.000048
C22	C	0.301555	0.122468	0.000069
C23	C	0.984860	-0.228145	0.000069
C24	C	0.983033	-0.332450	0.000062
C25	C	0.981583	-0.415586	0.000057
C26	C	0.979756	-0.519897	0.000051
C27	C	1.134307	0.119213	0.000072
C28	C	1.226604	0.121011	0.000073
C29	C	0.976507	0.294590	0.000052
C30	C	0.978306	0.396966	0.000046
N31	N	0.982307	0.125978	0.228237
N32	N	0.982328	0.125978	-0.228112
C33	C	1.038750	0.063290	0.453968
C34	C	1.038752	0.063288	0.546157
C35	C	0.925879	0.188668	0.546151
C36	C	0.925873	0.188665	0.453963
C37	C	0.982313	0.125977	0.407874
C38	C	0.982322	0.125978	0.592251
C39	C	0.982324	0.125976	0.692207
C40	C	0.982310	0.125978	0.307911
H41	H	0.560963	0.127521	-0.144790
N42	N	0.572450	0.127716	0.166004
H43	H	0.633966	0.128920	0.153888
H44	H	0.550639	0.184555	0.200864
H45	H	1.084707	0.012242	0.583684
N46	N	0.392190	0.124199	0.166016
H47	H	0.432891	0.124354	0.216590
H48	H	0.349945	0.180954	0.169757
N49	N	1.099620	-0.004320	0.404255
H50	H	1.135371	-0.044033	0.447448
H51	H	1.067727	-0.045104	0.366011
N52	N	0.865007	0.256279	0.595861
H53	H	0.873575	0.246771	0.661257
H54	H	0.874709	0.321706	0.579738
N55	N	0.864991	0.256279	0.404247
H56	H	0.874664	0.321739	0.420278
H57	H	0.873577	0.246682	0.338868
N58	N	0.392170	0.124247	-0.165880
H59	H	0.432798	0.125039	-0.216456
H60	H	0.362839	0.066411	-0.169354
