data_functionalizedCrystal
_audit_creation_method	'MofGen! by Chris Wilmer'
_symmetry_space_group_name_H-M	'P1'
_symmetry_Int_Tables_number	1
_symmetry_cell_setting	triclinic
loop_
_symmetry_equiv_pos_as_xyz
  x,y,z
_cell_length_a	11.792254
_cell_length_b	14.519709
_cell_length_c	10.868271
_cell_angle_alpha	89.993918
_cell_angle_beta	89.995741
_cell_angle_gamma	83.939371
loop_
_atom_site_label
_atom_site_type_symbol
_atom_site_fract_x
_atom_site_fract_y
_atom_site_fract_z
O1	O	1.506199	0.126460	-0.102324
O2	O	2.006199	0.626460	0.397676
O3	O	1.175787	0.139475	-0.102327
O4	O	1.675787	0.639475	0.397673
O5	O	1.349754	-0.001238	-0.102314
O6	O	1.849754	0.498762	0.397686
O7	O	1.332233	0.267174	-0.102337
O8	O	1.832233	0.767174	0.397663
O9	O	1.349739	-0.001244	0.102330
O10	O	1.849739	0.498756	0.602330
O11	O	1.175773	0.139470	0.102318
O12	O	1.675773	0.639470	0.602318
O13	O	1.506184	0.126455	0.102321
O14	O	2.006184	0.626455	0.602321
Zn15	Zn	1.340977	0.132961	0.134811
Zn16	Zn	1.840977	0.632961	0.634811
Zn17	Zn	1.340995	0.132968	-0.134817
Zn18	Zn	1.840995	0.632968	0.365183
O19	O	1.332218	0.267168	0.102308
O20	O	1.832218	0.767168	0.602308
C21	C	1.133494	0.138652	-0.000005
C22	C	1.633494	0.638652	0.499995
C23	C	1.007495	0.136199	-0.000006
C24	C	1.507495	0.636199	0.499994
C25	C	0.905169	0.134205	-0.000011
C26	C	1.405169	0.634205	0.499989
C27	C	0.776796	0.131711	-0.000011
C28	C	1.276796	0.631711	0.499989
C29	C	1.348930	-0.035604	0.000008
C30	C	1.848930	0.464396	0.500008
C31	C	1.346483	-0.137994	0.000009
C32	C	1.846483	0.362006	0.500009
C33	C	1.337475	-0.512923	-0.000023
C34	C	1.837475	-0.012923	0.499977
C35	C	1.339976	-0.408606	-0.000014
C36	C	1.839976	0.091394	0.499986
C37	C	1.341979	-0.325462	-0.000006
C38	C	1.841979	0.174538	0.499994
C39	C	1.344481	-0.221138	0.000001
C40	C	1.844481	0.278862	0.500001
C41	C	1.548478	0.127277	-0.000004
C42	C	2.048478	0.627277	0.499996
C43	C	1.674477	0.129731	-0.000011
C44	C	2.174477	0.629731	0.499989
C45	C	1.333042	0.301534	-0.000017
C46	C	1.833042	0.801534	0.499983
C47	C	1.335489	0.403924	-0.000026
C48	C	1.835489	0.903924	0.499974
N49	N	1.340972	0.132956	0.318825
N50	N	1.840972	0.632956	0.818825
N51	N	1.341009	0.132967	-0.318831
N52	N	1.841009	0.632967	0.181169
C53	C	1.340989	0.132967	0.569831
C54	C	1.840989	0.632967	1.069831
C55	C	1.340976	0.132963	0.430153
C56	C	1.840976	0.632963	0.930153
