data_functionalizedCrystal
_audit_creation_method	'MofGen! by Chris Wilmer'
_symmetry_space_group_name_H-M	'P1'
_symmetry_Int_Tables_number	1
_symmetry_cell_setting	triclinic
loop_
_symmetry_equiv_pos_as_xyz
  x,y,z
_cell_length_a	12.759395
_cell_length_b	18.101395
_cell_length_c	12.759387
_cell_angle_alpha	89.966033
_cell_angle_beta	89.980267
_cell_angle_gamma	90.031792
loop_
_atom_site_label
_atom_site_type_symbol
_atom_site_fract_x
_atom_site_fract_y
_atom_site_fract_z
Zn1	Zn	1.606131	-0.294769	-0.594016
Zn2	Zn	1.605977	-0.418631	-0.418330
Zn3	Zn	1.430435	-0.294810	-0.418350
Zn4	Zn	1.430372	-0.418574	-0.593967
O5	O	1.518229	-0.356696	-0.506166
O6	O	1.753132	-0.311206	-0.570723
O7	O	1.582653	-0.402247	-0.271312
O8	O	1.453832	-0.191171	-0.441682
O9	O	1.753018	-0.402207	-0.441648
O10	O	1.582916	-0.191141	-0.570743
O11	O	1.453683	-0.311276	-0.271326
O12	O	1.283405	-0.311221	-0.441634
O13	O	1.453725	-0.402110	-0.740994
O14	O	1.283359	-0.402150	-0.570658
O15	O	1.582855	-0.311151	-0.741031
O16	O	1.582591	-0.522257	-0.441600
O17	O	1.453575	-0.522215	-0.570639
C18	C	1.245261	-0.356684	-0.506143
C19	C	1.128485	-0.356697	-0.506159
C20	C	0.909051	-0.451552	-0.640335
C21	C	0.963918	-0.498964	-0.707398
C22	C	1.073640	-0.498955	-0.707384
C23	C	1.128497	-0.451530	-0.640298
C24	C	1.073630	-0.404118	-0.573235
C25	C	0.963906	-0.404131	-0.573258
C26	C	1.073617	-0.309285	-0.439096
C27	C	0.963896	-0.309289	-0.439113
C28	C	1.128475	-0.261860	-0.372010
C29	C	1.073608	-0.214443	-0.304950
C30	C	0.963879	-0.214454	-0.304967
C31	C	0.909029	-0.261877	-0.372050
C32	C	1.518088	-0.549106	-0.506135
C33	C	1.518124	-0.631421	-0.506157
C34	C	1.518355	-0.930511	-0.506213
C35	C	1.437369	-0.899191	-0.587603
C36	C	1.436984	-0.813573	-0.587348
C37	C	1.518240	-0.782129	-0.506186
C38	C	1.488261	-0.813290	-0.395460
C39	C	1.487739	-0.898935	-0.395947
C40	C	1.629497	-0.898852	-0.534575
C41	C	1.628843	-0.813201	-0.537003
C42	C	1.518177	-0.698269	-0.506164
C43	C	1.518415	-1.014371	-0.506228
C44	C	1.792262	-0.356708	-0.506189
C45	C	1.909039	-0.356714	-0.506199
C46	C	1.518300	-0.356619	-0.780199
C47	C	1.518330	-0.356587	-0.896976
C48	C	1.518398	-0.163534	-0.506220
C49	C	1.518471	-0.081220	-0.506243
C50	C	1.384043	-0.261852	-0.897010
C51	C	1.316918	-0.214470	-0.951888
C52	C	1.316949	-0.214443	-1.061610
C53	C	1.384111	-0.261805	-1.116456
C54	C	1.451235	-0.309187	-1.061578
C55	C	1.451199	-0.309207	-0.951854
C56	C	1.585516	-0.403925	-1.061544
C57	C	1.585492	-0.403949	-0.951823
C58	C	1.652677	-0.451287	-1.116391
C59	C	1.719809	-0.498666	-1.061513
C60	C	1.719775	-0.498690	-0.951784
C61	C	1.652616	-0.451331	-0.896945
C62	C	1.518218	-0.356719	-0.233198
C63	C	1.518391	-0.356543	-0.116422
H64	H	1.118312	-0.537563	-0.761990
H65	H	1.354603	-0.793152	-0.568562
H66	H	1.692374	-0.791792	-0.482044
H67	H	0.819688	-0.261887	-0.372075
H68	H	1.652693	-0.451265	-1.205732
N69	N	1.384011	-0.261871	-0.778668
H70	H	1.364639	-0.312675	-0.752210
H71	H	1.456107	-0.248241	-0.752338
H72	H	1.455940	-0.919731	-0.669971
N73	N	1.665731	-0.927393	-0.639688
H74	H	1.677698	-0.884449	-0.688838
H75	H	1.733284	-0.955724	-0.630550
N76	N	1.381778	-0.784974	-0.363073
H77	H	1.332755	-0.828071	-0.351716
H78	H	1.388515	-0.755900	-0.295876
H79	H	1.217838	-0.451533	-0.640284
N80	N	1.246816	-0.261853	-0.372001
H81	H	1.273284	-0.211063	-0.391435
H82	H	1.273122	-0.275436	-0.299878
N83	N	0.904705	-0.163322	-0.232623
H84	H	0.859218	-0.129040	-0.275402
H85	H	0.859205	-0.193443	-0.183887
H86	H	1.406494	-0.918980	-0.371922
N87	N	1.461822	-0.785654	-0.696100
H88	H	1.473119	-0.828983	-0.744636
H89	H	1.401481	-0.754769	-0.722592
N90	N	1.562474	-0.926391	-0.312883
H91	H	1.595608	-0.882857	-0.276109
H92	H	1.522834	-0.957380	-0.260277
N93	N	1.792235	-0.549741	-1.120677
H94	H	1.867310	-0.538252	-1.101600
H95	H	1.775772	-0.602637	-1.101537
N96	N	1.792169	-0.549802	-0.892600
H97	H	1.834712	-0.579798	-0.943999
H98	H	1.840813	-0.519676	-0.847090
H99	H	1.118281	-0.175837	-0.250329
N100	N	1.652587	-0.451353	-0.778603
H101	H	1.599858	-0.414160	-0.752190
H102	H	1.633245	-0.502183	-0.752233
N103	N	1.328905	-0.927781	-0.563040
H104	H	1.332000	-0.960934	-0.499421
H105	H	1.280672	-0.884776	-0.548448
H106	H	0.819710	-0.451556	-0.640363
H107	H	0.919241	-0.537578	-0.762015
H108	H	1.545391	-0.792924	-0.333166
N109	N	1.658802	-0.786221	-0.644941
H110	H	1.600979	-0.754004	-0.673766
H111	H	1.725815	-0.756675	-0.640428
N112	N	1.244541	-0.163346	-1.120801
H113	H	1.195841	-0.193435	-1.166303
H114	H	1.202058	-0.133363	-1.069340
H115	H	1.689834	-0.919106	-0.475296
H116	H	1.262234	-0.175910	-0.907220
N117	N	1.384131	-0.261789	-1.234798
H118	H	1.331412	-0.224591	-1.261240
H119	H	1.456257	-0.248202	-1.261163
