data_functionalizedCrystal
_audit_creation_method	'MofGen! by Chris Wilmer'
_symmetry_space_group_name_H-M	'P1'
_symmetry_Int_Tables_number	1
_symmetry_cell_setting	triclinic
loop_
_symmetry_equiv_pos_as_xyz
  x,y,z
_cell_length_a	13.032721
_cell_length_b	12.759401
_cell_length_c	12.759393
_cell_angle_alpha	90.018496
_cell_angle_beta	97.148028
_cell_angle_gamma	82.795696
loop_
_atom_site_label
_atom_site_type_symbol
_atom_site_fract_x
_atom_site_fract_y
_atom_site_fract_z
Zn1	Zn	-0.415970	-1.553098	-0.647064
Zn2	Zn	-0.590752	-1.530656	-0.493688
Zn3	Zn	-0.416025	-1.377393	-0.471410
Zn4	Zn	-0.590671	-1.355063	-0.669319
O5	O	-0.503355	-1.454052	-0.570370
O6	O	-0.439166	-1.697140	-0.626728
O7	O	-0.567631	-1.510279	-0.343719
O8	O	-0.269780	-1.419437	-0.476074
O9	O	-0.567577	-1.680653	-0.514043
O10	O	-0.269740	-1.548527	-0.605126
O11	O	-0.439259	-1.397677	-0.327352
O12	O	-0.439181	-1.227411	-0.497654
O13	O	-0.567440	-1.381379	-0.813381
O14	O	-0.567493	-1.211005	-0.643057
O15	O	-0.439088	-1.526875	-0.797030
O16	O	-0.736978	-1.488626	-0.535623
O17	O	-0.736919	-1.359619	-0.664659
C18	C	-0.503335	-1.181087	-0.570354
C19	C	-0.503352	-1.064309	-0.570375
C20	C	-0.774866	-1.419293	-0.604997
C21	C	-0.891020	-1.404519	-0.619845
C22	C	-0.503249	-1.454139	-0.844390
C23	C	-0.503204	-1.454176	-0.961161
C24	C	-0.942800	-1.461819	-0.562668
C25	C	-1.062851	-1.446551	-0.578013
C26	C	-0.230782	-1.488976	-0.535632
C27	C	-0.114628	-1.503859	-0.520829
C28	C	-0.503375	-1.728083	-0.570388
C29	C	-0.503383	-1.844859	-0.570395
C30	C	-0.570271	-1.000918	-0.645989
C31	C	-0.570285	-0.891192	-0.646002
C32	C	-0.436457	-0.908258	-0.494778
C33	C	-0.436439	-1.017982	-0.494770
C34	C	-0.647539	-0.991064	-0.733294
C35	C	-0.647552	-0.881338	-0.733307
C36	C	-0.436365	-1.529946	-1.007510
C37	C	-0.436327	-1.529976	-1.117230
C38	C	-0.569977	-1.378462	-1.134243
C39	C	-0.570009	-1.378429	-1.024525
C40	C	-0.359206	-1.617424	-0.997689
C41	C	-0.359168	-1.617454	-1.107409
C42	C	-0.503384	-1.454036	-0.297407
C43	C	-0.503135	-1.454240	-0.180599
H44	H	-0.898256	-1.522184	-0.502360
H45	H	-0.381977	-0.870525	-0.433224
H46	H	-0.380844	-1.696054	-1.139953
H47	H	-1.107394	-1.386190	-0.638333
H48	H	-0.724379	-1.015259	-0.713815
H49	H	-0.381940	-1.069592	-0.433204
C50	C	-1.054459	-1.585410	-0.439343
N51	N	-1.009138	-1.646832	-0.377968
C52	C	-0.951196	-1.322971	-0.701324
N53	N	-0.996519	-1.261545	-0.762694
C54	C	-0.618407	-1.035062	-0.839558
N55	N	-0.596474	-1.068199	-0.919598
C56	C	-0.608511	-0.840392	-0.832816
N57	N	-0.579098	-0.809552	-0.907761
H58	H	-0.728468	-0.841202	-0.721700
H59	H	-0.624432	-1.316727	-0.986792
C60	C	-0.643457	-1.295143	-1.203952
N61	N	-0.698803	-1.232385	-1.256455
H62	H	-0.278276	-1.605997	-0.957606
H63	H	-0.388219	-1.690988	-0.967356
H64	H	-0.282271	-1.598167	-1.131644
