data_functionalizedCrystal
_audit_creation_method	'MofGen! by Chris Wilmer'
_symmetry_space_group_name_H-M	'P1'
_symmetry_Int_Tables_number	1
_symmetry_cell_setting	triclinic
loop_
_symmetry_equiv_pos_as_xyz
  x,y,z
_cell_length_a	19.288864
_cell_length_b	15.072220
_cell_length_c	19.288859
_cell_angle_alpha	89.998528
_cell_angle_beta	83.134987
_cell_angle_gamma	90.026328
loop_
_atom_site_label
_atom_site_type_symbol
_atom_site_fract_x
_atom_site_fract_y
_atom_site_fract_z
O1	O	0.921355	0.074062	0.086643
O2	O	0.719094	0.074001	0.098332
O3	O	0.826071	0.074033	-0.008643
O4	O	0.814378	0.074029	0.193618
O5	O	0.826045	-0.073532	-0.008637
O6	O	0.719068	-0.073565	0.098338
O7	O	0.921329	-0.073503	0.086649
Zn8	Zn	0.820194	-0.096963	0.092495
Zn9	Zn	0.820229	0.097460	0.092487
O10	O	0.814352	-0.073536	0.193624
C11	C	0.693204	0.000210	0.097959
C12	C	0.616101	0.000187	0.096830
N13	N	0.820175	-0.229652	0.092500
C14	C	0.571403	0.000200	0.159598
C15	C	0.498956	0.000210	0.158537
C16	C	0.471210	0.000224	0.094705
C17	C	0.515918	0.000207	0.031929
C18	C	0.588363	0.000188	0.032991
C19	C	0.362958	0.051954	0.044524
C20	C	0.290514	0.051978	0.043464
C21	C	0.247765	0.000278	0.091425
C22	C	0.277467	-0.051434	0.140459
C23	C	0.349912	-0.051453	0.141521
C24	C	0.392656	0.000244	0.093546
C25	C	0.124511	0.000300	0.153048
C26	C	0.052063	0.000305	0.151984
C27	C	0.069026	0.000311	0.025374
C28	C	0.141472	0.000297	0.026439
C29	C	0.169210	0.000297	0.090278
C30	C	0.820227	-0.588853	0.092484
C31	C	0.762795	-0.551264	0.149533
C32	C	0.762926	-0.448438	0.149741
C33	C	0.820201	-0.410649	0.092492
C34	C	0.892625	-0.447919	0.108094
C35	C	0.892303	-0.550777	0.108500
C36	C	0.805882	-0.550958	0.019661
C37	C	0.804218	-0.448095	0.020153
C38	C	0.820191	-0.309936	0.092495
C39	C	0.820242	-0.689567	0.092482
C40	C	0.947218	0.000289	0.087022
C41	C	1.024322	0.000318	0.088151
C42	C	0.825682	0.000252	-0.034516
C43	C	0.824555	0.000258	-0.111620
N44	N	0.820253	0.230149	0.092476
C45	C	0.814740	0.000247	0.219498
C46	C	0.815868	0.000247	0.296602
C47	C	0.760724	0.000249	0.860642
C48	C	0.759659	0.000241	0.788196
C49	C	0.822428	0.000261	0.743489
C50	C	0.886268	0.000265	0.771234
C51	C	0.887331	0.000263	0.843679
C52	C	0.869250	0.051973	0.622215
C53	C	0.868184	0.051980	0.549771
C54	C	0.819151	0.000261	0.520043
C55	C	0.771171	-0.051453	0.562769
C56	C	0.772235	-0.051455	0.635214
C57	C	0.821282	0.000262	0.664933
C58	C	0.754160	0.000242	0.413752
C59	C	0.753098	0.000229	0.341303
C60	C	0.879708	0.000262	0.324343
C61	C	0.880769	0.000266	0.396790
C62	C	0.817993	0.000260	0.441490
H63	H	0.593982	0.000201	0.211581
Br64	Br	0.973966	0.000279	0.881326
Br65	Br	0.715421	-0.407504	0.000405
Br66	Br	0.777817	-0.594304	0.239110
H67	H	0.754230	-0.576964	0.004602
H68	H	0.708779	-0.576042	0.140426
H69	H	0.936374	-0.423436	0.067638
Br70	Br	-0.008601	0.000314	0.237177
H71	H	0.772062	-0.423821	0.203786
Br72	Br	0.971455	0.000280	0.710563
H73	H	0.707679	0.000225	0.765608
Br74	Br	0.869445	-0.405240	-0.053895
Br75	Br	0.219459	-0.121601	0.205557
Br76	Br	0.666462	0.000207	0.303659
Br77	Br	0.914272	-0.404964	0.195589
Br78	Br	0.162160	0.000293	0.239683
H79	H	0.847767	-0.575263	-0.022790
Br80	Br	0.935809	0.122158	0.662551
H81	H	0.462556	0.000218	0.209652
Br82	Br	0.031379	0.000316	-0.061258
Br83	Br	0.913431	-0.590746	0.197006
Br84	Br	0.675529	0.000242	0.921304
H85	H	0.266336	0.094089	0.003541
Br86	Br	0.202138	0.000282	-0.058751
Br87	Br	0.707125	-0.121635	0.693197
H88	H	0.907250	0.094090	0.514990
Br89	Br	0.390222	-0.121633	0.208061
Br90	Br	0.673172	-0.406440	0.134351
Br91	Br	0.704622	-0.121650	0.522434
H92	H	0.397760	0.094059	0.005466
H93	H	0.493322	0.000231	-0.020044
Br94	Br	0.965583	-0.592220	0.041782
H95	H	0.703044	0.000231	0.450149
Br96	Br	0.967402	0.000294	0.434437
H97	H	0.930816	0.000275	0.287943
H98	H	0.624757	0.000178	-0.018124
