data_functionalizedCrystal
_audit_creation_method	'MofGen! by Chris Wilmer'
_symmetry_space_group_name_H-M	'P1'
_symmetry_Int_Tables_number	1
_symmetry_cell_setting	triclinic
loop_
_symmetry_equiv_pos_as_xyz
  x,y,z
_cell_length_a	18.215407
_cell_length_b	12.759400
_cell_length_c	18.215399
_cell_angle_alpha	90.023429
_cell_angle_beta	90.017813
_cell_angle_gamma	90.007678
loop_
_atom_site_label
_atom_site_type_symbol
_atom_site_fract_x
_atom_site_fract_y
_atom_site_fract_z
Zn1	Zn	1.125132	-0.418431	0.416099
Zn2	Zn	1.625132	0.081569	0.916099
Zn3	Zn	1.125065	-0.594128	0.293043
Zn4	Zn	1.625065	-0.094128	0.793043
Zn5	Zn	1.002064	-0.418447	0.293051
Zn6	Zn	1.502064	0.081553	0.793051
Zn7	Zn	1.002055	-0.594052	0.416072
Zn8	Zn	1.502055	-0.094052	0.916072
O9	O	1.063579	-0.506264	0.354566
O10	O	1.563579	-0.006264	0.854566
O11	O	1.228107	-0.441763	0.399784
O12	O	1.728107	0.058237	0.899784
O13	O	1.108725	-0.570863	0.190060
O14	O	1.608725	-0.070863	0.690060
O15	O	1.018421	-0.271424	0.309389
O16	O	1.518421	0.228576	0.809389
O17	O	1.228059	-0.570847	0.309374
O18	O	1.728059	-0.070847	0.809374
O19	O	1.108838	-0.271412	0.399792
O20	O	1.608838	0.228588	0.899792
O21	O	1.018357	-0.441790	0.190066
O22	O	1.518357	0.058210	0.690066
O23	O	0.899079	-0.441716	0.309362
O24	O	1.399079	0.058284	0.809362
O25	O	1.018406	-0.570716	0.519060
O26	O	1.518406	-0.070716	1.019060
O27	O	0.899072	-0.570732	0.399745
O28	O	1.399072	-0.070732	0.899745
O29	O	1.108830	-0.441689	0.519080
O30	O	1.608830	0.058311	1.019080
O31	O	1.108716	-0.741139	0.309348
O32	O	1.608716	-0.241139	0.809348
O33	O	1.018341	-0.741083	0.399737
O34	O	1.518341	-0.241083	0.899737
C35	C	0.872373	-0.506218	0.354552
C36	C	1.372373	-0.006218	0.854552
C37	C	0.790574	-0.506224	0.354563
C38	C	1.290574	-0.006224	0.854563
C39	C	0.525536	-0.439180	0.401717
C40	C	1.025536	0.060820	0.901717
C41	C	0.602395	-0.439163	0.401715
C42	C	1.102395	0.060837	0.901715
C43	C	0.602363	-0.573383	0.307431
C44	C	1.102363	-0.073383	0.807431
C45	C	0.525506	-0.573405	0.307438
C46	C	1.025506	-0.073405	0.807438
C47	C	0.487095	-0.506297	0.354580
C48	C	0.987095	-0.006297	0.854580
C49	C	0.640811	-0.506258	0.354571
C50	C	1.140811	-0.006258	0.854571
C51	C	0.724144	-0.506241	0.354568
C52	C	1.224144	-0.006241	0.854568
C53	C	0.403756	-0.506316	0.354584
C54	C	0.903756	-0.006316	0.854584
C55	C	1.063541	-0.779232	0.354555
C56	C	1.563541	-0.279232	0.854555
C57	C	1.063592	-0.896008	0.354574
C58	C	1.563592	-0.396008	0.854574
C59	C	1.110648	-0.950785	0.401686
C60	C	1.610648	-0.450785	0.901686
C61	C	1.110682	-1.060509	0.401704
C62	C	1.610682	-0.560509	0.901704
C63	C	1.016601	-1.060671	0.307492
C64	C	1.516601	-0.560671	0.807492
C65	C	1.016564	-0.950949	0.307479
C66	C	1.516564	-0.450949	0.807479
C67	C	1.157676	-0.895844	0.448781
C68	C	1.657676	-0.395844	0.948781
C69	C	1.204737	-0.950621	0.495896
C70	C	1.704737	-0.450621	0.995896
C71	C	1.204771	-1.060345	0.495914
C72	C	1.704771	-0.560345	0.995914
C73	C	1.157744	-1.115292	0.448817
C74	C	1.657744	-0.615292	0.948817
C75	C	1.255532	-0.506312	0.354581
C76	C	1.755532	-0.006312	0.854581
C77	C	1.337331	-0.506332	0.354587
C78	C	1.837331	-0.006332	0.854587
C79	C	1.063624	-0.506192	0.546519
C80	C	1.563624	-0.006192	1.046519
C81	C	1.063643	-0.506161	0.628318
C82	C	1.563643	-0.006161	1.128318
C83	C	1.063638	-0.232231	0.354594
C84	C	1.563638	0.267769	0.854594
C85	C	1.063663	-0.115455	0.354606
C86	C	1.563663	0.384545	0.854606
C87	C	1.063577	-0.506261	0.163360
C88	C	1.563577	-0.006261	0.663360
C89	C	1.063700	-0.505996	0.081562
C90	C	1.563700	-0.005996	0.581562
C91	C	1.110744	-0.438914	0.816524
C92	C	1.610744	0.061086	1.316524
C93	C	1.110753	-0.438883	0.893383
C94	C	1.610753	0.061117	1.393383
C95	C	1.016595	-0.573246	0.893350
C96	C	1.516595	-0.073246	1.393350
C97	C	1.016583	-0.573271	0.816493
C98	C	1.516583	-0.073271	1.316493
C99	C	1.063661	-0.506106	0.778082
C100	C	1.563661	-0.006106	1.278082
C101	C	1.063682	-0.506051	0.931798
C102	C	1.563682	-0.006051	1.431798
C103	C	1.063691	-0.506018	1.015132
C104	C	1.563691	-0.006018	1.515132
C105	C	1.063652	-0.506137	0.694743
C106	C	1.563652	-0.006137	1.194743
H107	H	0.494206	-0.628065	0.269052
H108	H	0.994206	-0.128065	0.769052
H109	H	0.978245	-0.906350	0.269117
H110	H	1.478245	-0.406350	0.769117
H111	H	0.633648	-0.628018	0.269049
H112	H	1.133648	-0.128018	0.769049
C113	C	1.157637	-0.775152	0.448767
C114	C	1.657637	-0.275152	0.948767
H115	H	1.192379	-0.750275	0.483565
H116	H	1.692379	-0.250275	0.983565
H117	H	1.170376	-0.750360	0.401283
H118	H	1.670376	-0.250360	0.901283
H119	H	1.110129	-0.750363	0.461457
H120	H	1.610129	-0.250363	0.961457
C121	C	1.256461	-0.890183	0.547699
C122	C	1.756461	-0.390183	1.047699
H123	H	1.249707	-0.816991	0.540937
H124	H	1.749707	-0.316991	1.040937
H125	H	1.245671	-0.908128	0.597139
H126	H	1.745671	-0.408128	1.097139
H127	H	1.305921	-0.908135	0.536968
H128	H	1.805921	-0.408135	1.036968
C129	C	1.256534	-1.120596	0.547737
C130	C	1.756534	-0.620596	1.047737
H131	H	1.284538	-1.072158	0.575777
H132	H	1.784538	-0.572158	1.075777
H133	H	1.228383	-1.163396	0.579786
H134	H	1.728383	-0.663396	1.079786
H135	H	1.288630	-1.163393	0.519612
H136	H	1.788630	-0.663393	1.019612
H137	H	1.149076	-0.384221	0.785252
H138	H	1.649076	0.115779	1.285252
C139	C	1.157750	-1.235986	0.448869
C140	C	1.657750	-0.735986	0.948869
H141	H	1.192504	-1.260742	0.483681
H142	H	1.692504	-0.760742	0.983681
H143	H	1.110251	-1.260792	0.461565
H144	H	1.610251	-0.760792	0.961565
H145	H	1.170508	-1.260883	0.401400
H146	H	1.670508	-0.760883	0.901400
C147	C	0.964883	-1.121111	0.255686
C148	C	1.464883	-0.621111	0.755686
H149	H	0.971650	-1.194302	0.262436
H150	H	1.471650	-0.694302	0.762436
H151	H	0.915423	-1.103167	0.266407
H152	H	1.415423	-0.603167	0.766407
H153	H	0.975682	-1.103160	0.206244
H154	H	1.475682	-0.603160	0.706244
C155	C	0.964817	-0.647131	0.935602
C156	C	1.464817	-0.147131	1.435602
H157	H	0.936770	-0.687146	0.901697
H158	H	1.436770	-0.187146	1.401697
H159	H	0.992965	-0.692904	0.965582
H160	H	1.492965	-0.192904	1.465582
H161	H	0.932761	-0.606921	0.965584
H162	H	1.432761	-0.106921	1.465584
C163	C	1.162547	-0.364976	0.935666
C164	C	1.662547	0.135024	1.435666
H165	H	1.190585	-0.324988	0.901779
H166	H	1.690585	0.175012	1.401779
H167	H	1.134411	-0.319181	0.965649
H168	H	1.634411	0.180819	1.465649
H169	H	1.194610	-0.405171	0.965647
H170	H	1.694610	0.094829	1.465647
H171	H	0.633691	-0.384510	0.440100
H172	H	1.133691	0.115490	0.940100
C173	C	0.964791	-0.647184	0.774200
C174	C	1.464791	-0.147184	1.274200
H175	H	0.971522	-0.637569	0.722926
H176	H	1.471522	-0.137569	1.222926
H177	H	0.975546	-0.717774	0.786785
H178	H	1.475546	-0.217774	1.286785
H179	H	0.915346	-0.631785	0.786790
H180	H	1.415346	-0.131785	1.286790
C181	C	0.483286	-0.365378	0.453580
C182	C	0.983286	0.134622	0.953580
H183	H	0.517191	-0.325412	0.481658
H184	H	1.017191	0.174588	0.981658
H185	H	0.453288	-0.319557	0.425489
H186	H	0.953288	0.180443	0.925489
H187	H	0.453321	-0.405644	0.485603
H188	H	0.953321	0.094356	0.985603
