data_functionalizedCrystal
_audit_creation_method	'MofGen! by Chris Wilmer'
_symmetry_space_group_name_H-M	'P1'
_symmetry_Int_Tables_number	1
_symmetry_cell_setting	triclinic
loop_
_symmetry_equiv_pos_as_xyz
  x,y,z
_cell_length_a	19.288840
_cell_length_b	23.532407
_cell_length_c	18.366186
_cell_angle_alpha	90.012254
_cell_angle_beta	89.983729
_cell_angle_gamma	97.012658
loop_
_atom_site_label
_atom_site_type_symbol
_atom_site_fract_x
_atom_site_fract_y
_atom_site_fract_z
O1	O	0.921145	-0.070977	-0.060681
O2	O	1.421145	0.429023	0.439319
O3	O	0.718852	-0.080576	-0.060657
O4	O	1.218852	0.419424	0.439343
O5	O	0.826099	0.007143	-0.060654
O6	O	1.326099	0.507143	0.439346
O7	O	0.813898	-0.158696	-0.060684
O8	O	1.313898	0.341304	0.439316
O9	O	0.826081	0.007147	0.060446
O10	O	1.326081	0.507147	0.560446
O11	O	0.718834	-0.080572	0.060443
O12	O	1.218834	0.419428	0.560443
O13	O	0.921127	-0.070973	0.060419
O14	O	1.421127	0.429027	0.560419
Zn15	Zn	0.819978	-0.075772	0.079658
Zn16	Zn	1.319978	0.424228	0.579658
Zn17	Zn	0.820001	-0.075777	-0.079896
Zn18	Zn	1.320001	0.424223	0.420104
O19	O	0.813880	-0.158692	0.060416
O20	O	1.313880	0.341308	0.560416
C21	C	0.692967	-0.080267	-0.000104
C22	C	1.192967	0.419733	0.499896
C23	C	0.615866	-0.079347	-0.000094
C24	C	1.115866	0.420653	0.499906
C25	C	0.579673	-0.078908	-0.066107
C26	C	1.079673	0.421092	0.433893
C27	C	0.507229	-0.078037	-0.066116
C28	C	1.007229	0.421963	0.433884
C29	C	0.470982	-0.077594	-0.000108
C30	C	0.970982	0.422406	0.499892
C31	C	0.507182	-0.078037	0.065914
C32	C	1.007182	0.421963	0.565914
C33	C	0.579624	-0.078914	0.065921
C34	C	1.079624	0.421086	0.565921
C35	C	0.361754	-0.042846	0.050460
C36	C	0.861754	0.457154	0.550460
C37	C	0.289314	-0.041966	0.050450
C38	C	0.789314	0.458034	0.550450
C39	C	0.247547	-0.074894	-0.000126
C40	C	0.747547	0.425106	0.499874
C41	C	0.278229	-0.108694	-0.050705
C42	C	0.778229	0.391306	0.449295
C43	C	0.350671	-0.109570	-0.050698
C44	C	0.850671	0.390430	0.449302
C45	C	0.392431	-0.076644	-0.000108
C46	C	0.892431	0.423356	0.499892
C47	C	0.132802	-0.073510	-0.066153
C48	C	0.632802	0.426490	0.433847
C49	C	0.060356	-0.072643	-0.066159
C50	C	0.560356	0.427357	0.433841
C51	C	0.060311	-0.072638	0.065872
C52	C	0.560311	0.427362	0.565872
C53	C	0.132755	-0.073511	0.065877
C54	C	0.632755	0.426489	0.565877
C55	C	0.168997	-0.073944	-0.000138
C56	C	0.668997	0.426056	0.499862
C57	C	0.825779	0.028362	-0.000101
C58	C	1.325779	0.528362	0.499899
C59	C	0.824845	0.091581	-0.000094
C60	C	1.324845	0.591581	0.499906
C61	C	0.882453	0.490568	-0.000129
C62	C	1.382453	0.990568	0.499871
C63	C	0.881585	0.549970	-0.000132
C64	C	1.381585	1.049970	0.499868
O65	O	0.934988	0.586608	-0.000164
O66	O	1.434988	1.086608	0.499836
N67	N	0.817827	0.572724	-0.000123
N68	N	1.317827	1.072724	0.499877
C69	C	0.754932	0.536072	-0.000118
C70	C	1.254932	1.036072	0.499882
O71	O	0.700622	0.560880	-0.000112
O72	O	1.200622	1.060880	0.499888
C73	C	0.755801	0.476671	-0.000120
C74	C	1.255801	0.976671	0.499880
C75	C	0.819563	0.453921	-0.000121
C76	C	1.319563	0.953921	0.499879
C77	C	0.946209	0.467818	-0.000131
C78	C	1.446209	0.967818	0.499869
C79	C	0.947077	0.408420	-0.000126
C80	C	1.447077	0.908420	0.499874
C81	C	0.884187	0.371773	-0.000119
C82	C	1.384187	0.871773	0.499881
C83	C	0.820430	0.394523	-0.000116
C84	C	1.320430	0.894523	0.499884
C85	C	0.692907	0.440021	-0.000120
C86	C	1.192907	0.940021	0.499880
C87	C	0.693781	0.380616	-0.000122
C88	C	1.193781	0.880616	0.499878
C89	C	0.757543	0.357866	-0.000124
C90	C	1.257543	0.857866	0.499876
C91	C	0.758408	0.298478	-0.000104
C92	C	1.258408	0.798478	0.499896
N93	N	0.822166	0.275725	-0.000113
N94	N	1.322166	0.775725	0.499887
C95	C	0.885056	0.312372	-0.000120
C96	C	1.385056	0.812372	0.499880
C97	C	0.753113	0.660818	-0.000116
C98	C	1.253113	1.160818	0.499884
C99	C	0.752244	0.720218	-0.000110
C100	C	1.252244	1.220218	0.499890
C101	C	0.878897	0.734112	-0.000125
C102	C	1.378897	1.234112	0.499875
C103	C	0.879765	0.674711	-0.000126
C104	C	1.379765	1.174711	0.499874
C105	C	0.816871	0.638065	-0.000125
C106	C	1.316871	1.138065	0.499875
C107	C	0.886873	0.187631	-0.000109
C108	C	1.386873	0.687631	0.499891
C109	C	0.887735	0.128228	-0.000101
C110	C	1.387735	0.628228	0.499899
C111	C	0.761082	0.114339	-0.000090
C112	C	1.261082	0.614339	0.499910
C113	C	0.760220	0.173737	-0.000094
C114	C	1.260220	0.673737	0.499906
C115	C	0.823121	0.210383	-0.000106
C116	C	1.323121	0.710383	0.499894
O117	O	0.705034	0.261806	-0.000075
O118	O	1.205034	0.761806	0.499925
O119	O	0.939358	0.287555	-0.000136
O120	O	1.439358	0.787555	0.499864
C121	C	0.947012	-0.071282	-0.000136
C122	C	1.447012	0.428718	0.499864
C123	C	1.024113	-0.072202	-0.000151
C124	C	1.524113	0.427798	0.499849
N125	N	0.819966	-0.075767	0.188549
N126	N	1.319966	0.424233	0.688549
C127	C	0.814200	0.820089	-0.000131
C128	C	1.314200	1.320089	0.499869
C129	C	0.815134	0.756870	-0.000121
C130	C	1.315134	1.256870	0.499879
N131	N	0.820018	-0.075777	-0.188787
N132	N	1.320018	0.424223	0.311213
C133	C	0.867471	-0.036945	0.226651
C134	C	1.367471	0.463055	0.726651
C135	C	0.867475	-0.036942	0.302879
C136	C	1.367475	0.463058	0.802879
C137	C	0.819982	-0.075772	0.341002
C138	C	1.319982	0.424228	0.841002
C139	C	0.772469	-0.114598	0.302891
C140	C	1.272469	0.385402	0.802891
C141	C	0.772461	-0.114596	0.226664
C142	C	1.272461	0.385404	0.726664
C143	C	0.810523	-0.127664	0.461753
C144	C	1.310523	0.372336	0.961753
C145	C	0.810536	-0.127667	0.537978
C146	C	1.310536	0.372333	1.037978
C147	C	0.820002	-0.075779	0.576109
C148	C	1.320002	0.424221	1.076109
C149	C	0.829469	-0.023886	0.538006
C150	C	1.329469	0.476114	1.038006
C151	C	0.829462	-0.023884	0.461779
C152	C	1.329462	0.476116	0.961779
C153	C	0.819985	-0.075779	0.423656
C154	C	1.319985	0.424221	0.923656
C155	C	0.867513	-0.036950	0.696866
C156	C	1.367513	0.463050	1.196866
C157	C	0.867513	-0.036947	0.773095
C158	C	1.367513	0.463053	1.273095
C159	C	0.772510	-0.114608	0.773106
C160	C	1.272510	0.385392	1.273106
C161	C	0.772507	-0.114606	0.696878
C162	C	1.272507	0.385394	1.196878
C163	C	0.820012	-0.075778	0.658763
C164	C	1.320012	0.424222	1.158763
H165	H	0.375650	-0.137093	-0.091880
H166	H	0.875650	0.362907	0.408120
N167	N	0.696847	0.076897	-0.000104
N168	N	1.196847	0.576897	0.499896
N169	N	0.654367	0.078866	-0.051157
N170	N	1.154367	0.578866	0.448843
H171	H	0.609000	0.052420	-0.051175
H172	H	1.109000	0.552420	0.448825
H173	H	0.609092	-0.079272	0.119678
H174	H	1.109092	0.420728	0.619678
H175	H	0.708300	0.192261	-0.000072
H176	H	1.208300	0.692261	0.499928
N177	N	0.943140	0.771552	-0.000122
N178	N	1.443140	1.271552	0.499878
N179	N	0.956774	0.806257	0.050924
N180	N	1.456774	1.306257	0.550924
H181	H	1.002144	0.832699	0.050929
H182	H	1.502144	1.332699	0.550929
H183	H	0.733777	-0.146211	0.195641
H184	H	1.233777	0.353789	0.695641
H185	H	0.733827	-0.146222	0.665853
H186	H	1.233827	0.353778	1.165853
H187	H	0.162224	-0.073865	0.119632
H188	H	0.662224	0.426135	0.619632
H189	H	0.931686	0.656193	-0.000128
H190	H	1.431686	1.156193	0.499872
H191	H	0.939659	0.109708	-0.000100
H192	H	1.439659	0.609708	0.499900
N193	N	0.257988	-0.007433	0.102111
N194	N	0.757988	0.492567	0.602111
N195	N	0.295284	0.021959	0.147270
N196	N	0.795284	0.521959	0.647270
H197	H	0.273162	0.046351	0.183757
H198	H	0.773162	0.546351	0.683757
N199	N	0.839130	0.029126	0.576934
N200	N	1.339130	0.529126	1.076934
N201	N	0.847577	0.075452	0.542906
N202	N	1.347577	0.575452	1.042906
H203	H	0.854401	0.112891	0.570400
H204	H	1.354401	0.612891	1.070400
H205	H	0.395756	-0.016031	0.091649
H206	H	0.895756	0.483969	0.591649
H207	H	0.906193	-0.005332	0.665831
H208	H	1.406193	0.494668	1.165831
H209	H	0.244223	-0.135509	-0.091887
H210	H	0.744223	0.364491	0.408113
H211	H	0.733798	-0.146213	0.333934
H212	H	1.233798	0.353787	0.833934
N213	N	1.012203	0.385176	-0.000142
N214	N	1.512203	0.885176	0.499858
N215	N	1.012982	0.332141	-0.000144
N216	N	1.512982	0.832141	0.499856
H217	H	1.058980	0.315728	-0.000157
H218	H	1.558980	0.815728	0.499843
N219	N	0.169816	-0.073954	-0.133588
N220	N	0.669816	0.426046	0.366412
N221	N	0.137488	-0.073566	-0.192527
N222	N	0.637488	0.426434	0.307473
H223	H	0.163627	-0.073878	-0.240154
H224	H	0.663627	0.426122	0.259846
H225	H	0.997425	0.497651	-0.000140
H226	H	1.497425	0.997651	0.499860
N227	N	0.951123	0.225058	-0.000101
N228	N	1.451123	0.725058	0.499899
N229	N	0.964763	0.259759	0.050948
N230	N	1.464763	0.759759	0.550948
H231	H	1.010140	0.286192	0.050960
H232	H	1.510140	0.786192	0.550960
H233	H	0.906150	-0.005327	0.195619
H234	H	1.406150	0.494673	0.695619
N235	N	0.023295	-0.072202	0.133301
N236	N	0.523295	0.427798	0.633301
N237	N	-0.023816	-0.111855	0.148017
N238	N	0.476184	0.388145	0.648017
H239	H	-0.049962	-0.111552	0.195641
H240	H	0.450038	0.388448	0.695641
N241	N	0.023393	-0.072202	-0.133601
N242	N	0.523393	0.427798	0.366399
N243	N	0.055763	-0.072592	-0.192533
N244	N	0.555763	0.427408	0.307467
H245	H	0.029658	-0.072282	-0.240165
H246	H	0.529658	0.427718	0.259835
H247	H	0.700323	0.738735	-0.000096
H248	H	1.200323	1.238735	0.499904
N249	N	0.470260	-0.077588	-0.133556
N250	N	0.970260	0.422412	0.366444
N251	N	0.502627	-0.077976	-0.192490
N252	N	1.002627	0.422024	0.307510
H253	H	0.476520	-0.077657	-0.240121
H254	H	0.976520	0.422343	0.259879
N255	N	0.470149	-0.077591	0.133333
N256	N	0.970149	0.422409	0.633333
N257	N	0.405469	-0.076809	0.133319
N258	N	0.905469	0.423191	0.633319
H259	H	0.379313	-0.076497	0.180936
H260	H	0.879313	0.423503	0.680936
N261	N	0.688858	0.623395	-0.000112
N262	N	1.188858	1.123395	0.499888
N263	N	0.631940	0.643724	-0.000106
N264	N	1.131940	1.143724	0.499894
H265	H	0.586559	0.617297	-0.000105
H266	H	1.086559	1.117297	0.499895
N267	N	0.916004	0.002722	0.341798
N268	N	1.416004	0.502722	0.841798
N269	N	0.958411	0.037388	0.307758
N270	N	1.458411	0.537388	0.807758
H271	H	0.992686	0.065401	0.335242
H272	H	1.492686	0.565401	0.835242
H273	H	0.640985	0.458533	-0.000123
H274	H	1.140985	0.958533	0.499877
N275	N	0.629528	0.343192	-0.000130
N276	N	1.129528	0.843192	0.499870
N277	N	0.572608	0.363517	-0.000132
N278	N	1.072608	0.863517	0.499868
H279	H	0.527228	0.337088	-0.000138
H280	H	1.027228	0.837088	0.499862
N281	N	0.839132	0.029124	0.422869
N282	N	1.339132	0.529124	0.922869
N283	N	0.847585	0.075451	0.456915
N284	N	1.347585	0.575451	0.956915
H285	H	0.854412	0.112889	0.429435
H286	H	1.354412	0.612889	0.929435
H287	H	0.906194	-0.005330	0.804118
H288	H	1.406194	0.494670	1.304118
N289	N	0.723994	-0.154264	0.812049
N290	N	1.223994	0.345736	1.312049
N291	N	0.724002	-0.154258	0.880108
N292	N	1.224002	0.345742	1.380108
H293	H	0.689734	-0.182264	0.907616
H294	H	1.189734	0.317736	1.407616
H295	H	0.802831	-0.169922	0.568996
H296	H	1.302831	0.330078	1.068996
N297	N	0.800872	-0.180673	0.422813
N298	N	1.300872	0.319327	0.922813
N299	N	0.842968	-0.216517	0.431300
N300	N	1.342968	0.283483	0.931300
H301	H	0.836157	-0.253953	0.403798
H302	H	1.336157	0.246047	0.903798
N303	N	0.616681	-0.079351	-0.133544
N304	N	1.116681	0.420649	0.366456
N305	N	0.584352	-0.078959	-0.192481
N306	N	1.084352	0.421041	0.307519
H307	H	0.610489	-0.079273	-0.240109
H308	H	1.110489	0.420727	0.259891
