data_functionalizedCrystal
_audit_creation_method	'MofGen! by Chris Wilmer'
_symmetry_space_group_name_H-M	'P1'
_symmetry_Int_Tables_number	1
_symmetry_cell_setting	triclinic
loop_
_symmetry_equiv_pos_as_xyz
  x,y,z
_cell_length_a	18.101389
_cell_length_b	12.827893
_cell_length_c	12.827892
_cell_angle_alpha	90.015362
_cell_angle_beta	90.014251
_cell_angle_gamma	90.017019
loop_
_atom_site_label
_atom_site_type_symbol
_atom_site_fract_x
_atom_site_fract_y
_atom_site_fract_z
Zn1	Zn	-0.418716	-1.597646	0.416143
Zn2	Zn	-0.294883	-1.597547	0.590873
Zn3	Zn	-0.294893	-1.422895	0.416147
Zn4	Zn	-0.418688	-1.422873	0.590843
O5	O	-0.356795	-1.510240	0.503502
O6	O	-0.402297	-1.743869	0.439333
O7	O	-0.191252	-1.574347	0.567710
O8	O	-0.311334	-1.446126	0.269910
O9	O	-0.311318	-1.743796	0.567706
O10	O	-0.402306	-1.574516	0.269908
O11	O	-0.191259	-1.446030	0.439339
O12	O	-0.311307	-1.276656	0.439310
O13	O	-0.522324	-1.446089	0.567655
O14	O	-0.402258	-1.276640	0.567658
O15	O	-0.522345	-1.574495	0.439304
O16	O	-0.311290	-1.574326	0.737105
O17	O	-0.402249	-1.445993	0.737083
C18	C	-0.356781	-1.238730	0.503482
C19	C	-0.356792	-1.122577	0.503498
C20	C	-0.356782	-1.510175	0.775012
C21	C	-0.356801	-1.510243	0.891165
C22	C	-0.549957	-1.510301	0.503475
C23	C	-0.632271	-1.510326	0.503464
C24	C	-0.931362	-1.510387	0.503268
C25	C	-0.900024	-1.429320	0.583766
C26	C	-0.814406	-1.429539	0.584140
C27	C	-0.782980	-1.510356	0.503365
C28	C	-0.814077	-1.620466	0.533258
C29	C	-0.899722	-1.620014	0.533787
C30	C	-0.899783	-1.482302	0.392698
C31	C	-0.814132	-1.479853	0.393337
C32	C	-0.699120	-1.510345	0.503419
C33	C	-1.015222	-1.510405	0.503218
C34	C	-0.164384	-1.510240	0.503453
C35	C	-0.082071	-1.510417	0.503170
C36	C	-0.356809	-1.782810	0.503523
C37	C	-0.356816	-1.898964	0.503532
C38	C	-0.401729	-1.070812	0.567108
C39	C	-0.401742	-0.950762	0.567127
C40	C	-0.356824	-1.510334	0.230932
C41	C	-0.356837	-1.510374	0.114778
C42	C	-0.311842	-1.573821	0.942926
C43	C	-0.311861	-1.573892	1.062976
H44	H	-0.793379	-1.347889	0.565434
C45	C	-0.786583	-1.704265	0.456552
H46	H	-0.806043	-1.770221	0.476063
H47	H	-0.734150	-1.706844	0.458193
H48	H	-0.802610	-1.687432	0.388070
C49	C	-0.408842	-1.436836	1.054664
H50	H	-0.437058	-1.396991	1.102738
H51	H	-0.441099	-1.476797	1.012028
H52	H	-0.380446	-1.391334	1.012146
C53	C	-0.927833	-1.318682	0.558755
H54	H	-0.958810	-1.320935	0.499000
H55	H	-0.886849	-1.274389	0.545413
H56	H	-0.955016	-1.292471	0.616421
C57	C	-0.259822	-1.647288	0.882742
H58	H	-0.231621	-1.687191	0.930784
H59	H	-0.227551	-1.607279	0.840215
H60	H	-0.288206	-1.692738	0.840108
C61	C	-0.304839	-0.959082	0.429953
H62	H	-0.276652	-0.911010	0.390061
H63	H	-0.333246	-1.001686	0.384513
H64	H	-0.272542	-1.001633	0.469899
H65	H	-0.921552	-1.447680	0.665224
C66	C	-0.927172	-1.562051	0.311672
H67	H	-0.957704	-1.612222	0.345007
H68	H	-0.885999	-1.596019	0.280804
H69	H	-0.954731	-1.527108	0.259227
C70	C	-0.259857	-1.647424	1.123102
H71	H	-0.266694	-1.637828	1.195901
H72	H	-0.210076	-1.632176	1.105309
H73	H	-0.270729	-1.717639	1.105201
C74	C	-0.786668	-1.370395	0.362871
H75	H	-0.756339	-1.343392	0.416970
H76	H	-0.827820	-1.325610	0.352653
H77	H	-0.758882	-1.374664	0.300199
C78	C	-0.786730	-1.454639	0.694842
H79	H	-0.734248	-1.454850	0.695451
H80	H	-0.804491	-1.521243	0.715324
H81	H	-0.804369	-1.403294	0.742050
C82	C	-0.453690	-1.130997	0.640661
H83	H	-0.446862	-1.203789	0.631003
H84	H	-0.503480	-1.113193	0.625490
H85	H	-0.442775	-1.113148	0.710875
H86	H	-0.919707	-1.643819	0.614614
H87	H	-0.395309	-1.455868	0.935727
H88	H	-0.920454	-1.682464	0.477700
H89	H	-0.792637	-1.644682	0.613227
H90	H	-0.318333	-1.078018	0.449049
H91	H	-0.792740	-1.534588	0.330177
C92	C	-0.928951	-1.375722	0.355902
H93	H	-0.960662	-1.347351	0.407637
H94	H	-0.955621	-1.384281	0.292690
H95	H	-0.888560	-1.329769	0.344703
C96	C	-0.453717	-0.890632	0.640697
H97	H	-0.446911	-0.817833	0.631053
H98	H	-0.442807	-0.908453	0.710903
H99	H	-0.503505	-0.908501	0.625509
