data_functionalizedCrystal
_audit_creation_method	'MofGen! by Chris Wilmer'
_symmetry_space_group_name_H-M	'P1'
_symmetry_Int_Tables_number	1
_symmetry_cell_setting	triclinic
loop_
_symmetry_equiv_pos_as_xyz
  x,y,z
_cell_length_a	14.519709
_cell_length_b	10.540510
_cell_length_c	12.996460
_cell_angle_alpha	89.997788
_cell_angle_beta	90.000602
_cell_angle_gamma	84.096728
loop_
_atom_site_label
_atom_site_type_symbol
_atom_site_fract_x
_atom_site_fract_y
_atom_site_fract_z
O1	O	1.224754	0.166391	0.085427
O2	O	1.724754	0.666391	0.585427
O3	O	0.956381	0.185987	0.085458
O4	O	1.456381	0.685987	0.585458
O5	O	1.096705	-0.008582	0.085441
O6	O	1.596705	0.491418	0.585441
O7	O	1.084431	0.360961	0.085443
O8	O	1.584431	0.860961	0.585443
O9	O	1.096687	-0.008571	-0.085693
O10	O	1.596687	0.491429	0.414307
O11	O	0.956363	0.185998	-0.085676
O12	O	1.456363	0.685998	0.414324
O13	O	1.224736	0.166402	-0.085707
O14	O	1.724736	0.666402	0.414293
Cu15	Cu	1.090548	0.176201	-0.101317
Cu16	Cu	1.590548	0.676201	0.398683
Cu17	Cu	1.090569	0.176188	0.101068
Cu18	Cu	1.590569	0.676188	0.601068
O19	O	1.084412	0.360972	-0.085690
O20	O	1.584412	0.860972	0.414310
C21	C	0.922008	0.185079	-0.000105
C22	C	1.422008	0.685079	0.499895
C23	C	0.819612	0.182343	-0.000093
C24	C	1.319612	0.682343	0.499907
C25	C	0.444662	0.172268	-0.000140
C26	C	0.944662	0.672268	0.499860
C27	C	0.548985	0.175066	-0.000127
C28	C	1.048985	0.675066	0.499873
C29	C	0.632134	0.177305	-0.000116
C30	C	1.132134	0.677305	0.499884
C31	C	0.736463	0.180103	-0.000104
C32	C	1.236463	0.680103	0.499896
C33	C	1.095781	-0.055871	-0.000123
C34	C	1.595781	0.444129	0.499877
C35	C	1.093044	-0.196793	-0.000117
C36	C	1.593044	0.303207	0.499883
C37	C	1.190527	-0.415244	-0.000520
C38	C	1.690527	0.084756	0.499480
C39	C	1.193446	-0.268678	-0.000129
C40	C	1.693446	0.231322	0.499871
C41	C	1.041659	-0.241033	0.097613
C42	C	1.541659	0.258967	0.597613
C43	C	1.039451	-0.387772	0.097689
C44	C	1.539451	0.112228	0.597689
C45	C	1.037340	-0.387546	-0.096921
C46	C	1.537340	0.112454	0.403079
C47	C	1.042102	-0.241254	-0.098208
C48	C	1.542102	0.258746	0.401792
C49	C	1.259110	0.167310	-0.000142
C50	C	1.759110	0.667310	0.499858
C51	C	1.361505	0.170047	-0.000147
C52	C	1.861505	0.670047	0.499853
C53	C	1.085336	0.408261	-0.000123
C54	C	1.585336	0.908261	0.499877
C55	C	1.088073	0.549183	-0.000123
C56	C	1.588073	1.049183	0.499877
N57	N	1.090539	0.176210	-0.243664
N58	N	1.590539	0.676210	0.256336
C59	C	1.090544	0.176213	-0.336770
C60	C	1.590544	0.676213	0.163230
C61	C	1.090552	0.176205	-0.453575
C62	C	1.590552	0.676205	0.046425
C63	C	1.090564	0.176191	-0.546674
C64	C	1.590564	0.676191	-0.046674
C65	C	1.090573	0.176183	-0.663486
C66	C	1.590573	0.676183	-0.163486
N67	N	1.090585	0.176169	0.243415
N68	N	1.590585	0.676169	0.743415
H69	H	1.233652	-0.239740	-0.070185
H70	H	1.733652	0.260260	0.429815
O71	O	1.084119	-0.204508	0.184404
O72	O	1.584119	0.295492	0.684404
C73	C	1.020941	-0.123564	0.242974
C74	C	1.520941	0.376436	0.742974
H75	H	0.963819	-0.077909	0.190662
H76	H	1.463819	0.422091	0.690662
H77	H	0.989201	-0.181482	0.305331
H78	H	1.489201	0.318518	0.805331
C79	C	1.142127	-0.074653	0.357635
C80	C	1.642127	0.425347	0.857635
C81	C	1.071972	-0.018570	0.293383
C82	C	1.571972	0.481430	0.793383
H83	H	1.173605	-0.009891	0.388733
H84	H	1.673605	0.490109	0.888733
H85	H	1.184691	-0.129190	0.318177
H86	H	1.684691	0.370810	0.818177
H87	H	1.115666	-0.122917	0.409590
H88	H	1.615666	0.377083	0.909590
H89	H	1.098435	0.029678	0.241422
H90	H	1.598435	0.529678	0.741422
H91	H	1.029414	0.035977	0.332833
H92	H	1.529414	0.535977	0.832833
H93	H	1.229634	-0.457593	-0.070607
H94	H	1.729634	0.042407	0.429393
H95	H	1.229424	-0.459151	0.069162
H96	H	1.729424	0.040849	0.569162
O97	O	1.241573	-0.235107	0.083626
O98	O	1.741573	0.264893	0.583626
C99	C	1.183836	-0.150865	0.145647
C100	C	1.683836	0.349135	0.645647
H101	H	1.125409	-0.101879	0.096775
H102	H	1.625409	0.398121	0.596775
H103	H	1.153340	-0.206643	0.210228
H104	H	1.653340	0.293357	0.710228
C105	C	1.312647	-0.109833	0.252200
C106	C	1.812647	0.390167	0.752200
C107	C	1.240891	-0.049660	0.192173
C108	C	1.740891	0.450340	0.692173
H109	H	1.347841	-0.047409	0.280904
H110	H	1.847841	0.452591	0.780904
H111	H	1.351546	-0.166592	0.210418
H112	H	1.851546	0.333408	0.710418
H113	H	1.287223	-0.156313	0.306010
H114	H	1.787223	0.343687	0.806010
H115	H	1.266316	-0.003196	0.138358
H116	H	1.766316	0.496804	0.638358
H117	H	1.201998	0.007109	0.233947
H118	H	1.701998	0.507109	0.733947
H119	H	1.074583	-0.428351	0.170736
H120	H	1.574583	0.071649	0.670736
H121	H	0.964357	-0.410001	0.102126
H122	H	1.464357	0.089999	0.602126
H123	H	0.967746	-0.192890	0.101255
H124	H	1.467746	0.307110	0.601255
H125	H	1.069238	-0.430049	-0.171000
H126	H	1.569238	0.069951	0.329000
O127	O	1.086784	-0.207420	-0.184363
O128	O	1.586784	0.292580	0.315637
C129	C	1.163807	-0.143887	-0.156126
C130	C	1.663807	0.356113	0.343874
H131	H	1.152507	-0.101936	-0.075721
H132	H	1.652507	0.398064	0.424279
H133	H	1.228837	-0.214404	-0.156499
H134	H	1.728837	0.285596	0.343501
C135	C	1.189242	-0.087422	-0.332149
C136	C	1.689242	0.412578	0.167851
C137	C	1.175359	-0.035888	-0.233396
C138	C	1.675359	0.464112	0.266604
H139	H	1.196371	-0.020807	-0.379814
H140	H	1.696371	0.479193	0.120186
H141	H	1.137352	-0.130229	-0.351174
H142	H	1.637352	0.369771	0.148826
H143	H	1.243432	-0.146186	-0.332445
H144	H	1.743432	0.353814	0.167555
H145	H	1.121163	0.022862	-0.233099
H146	H	1.621163	0.522862	0.266901
H147	H	1.227240	0.006932	-0.214373
H148	H	1.727240	0.506932	0.285627
O149	O	0.947376	-0.412890	-0.097840
O150	O	1.447376	0.087110	0.402160
C151	C	0.902560	-0.355732	-0.184968
C152	C	1.402560	0.144268	0.315032
H153	H	0.941289	-0.273162	-0.212195
H154	H	1.441289	0.226838	0.287805
H155	H	0.901709	-0.429350	-0.249131
H156	H	1.401709	0.070650	0.250869
C157	C	0.754870	-0.406800	-0.123245
C158	C	1.254870	0.093200	0.376755
C159	C	0.802434	-0.305379	-0.156681
C160	C	1.302434	0.194621	0.343319
H161	H	0.693106	-0.375744	-0.105800
H162	H	1.193106	0.124256	0.394200
H163	H	0.785063	-0.445313	-0.064547
H164	H	1.285063	0.054687	0.435453
H165	H	0.754171	-0.468140	-0.176720
H166	H	1.254171	0.031860	0.323280
H167	H	0.803142	-0.244049	-0.103202
H168	H	1.303142	0.255951	0.396798
H169	H	0.772238	-0.266854	-0.215370
H170	H	1.272238	0.233146	0.284630
O171	O	0.954664	-0.181753	-0.105069
O172	O	1.454664	0.318247	0.394931
C173	C	0.937571	-0.098170	-0.020955
C174	C	1.437571	0.401830	0.479045
H175	H	0.986150	-0.130429	0.045046
H176	H	1.486150	0.369571	0.545046
H177	H	0.950010	0.002609	-0.045192
H178	H	1.450010	0.502609	0.454808
C179	C	0.776807	-0.059808	-0.066553
C180	C	1.276807	0.440192	0.433447
C181	C	0.836468	-0.099436	0.014514
C182	C	1.336468	0.400564	0.514514
H183	H	0.714441	-0.060583	-0.044676
H184	H	1.214441	0.439417	0.455324
H185	H	0.788323	-0.116115	-0.123225
H186	H	1.288323	0.383885	0.376775
H187	H	0.787184	0.024171	-0.086743
H188	H	1.287184	0.524171	0.413257
H189	H	0.826098	-0.183419	0.034694
H190	H	1.326098	0.316581	0.534694
H191	H	0.824948	-0.043142	0.071190
H192	H	1.324948	0.456858	0.571190
