data_functionalizedCrystal
_audit_creation_method	'MofGen! by Chris Wilmer'
_symmetry_space_group_name_H-M	'P1'
_symmetry_Int_Tables_number	1
_symmetry_cell_setting	triclinic
loop_
_symmetry_equiv_pos_as_xyz
  x,y,z
_cell_length_a	12.759401
_cell_length_b	18.050589
_cell_length_c	12.759393
_cell_angle_alpha	90.030621
_cell_angle_beta	90.019097
_cell_angle_gamma	90.028204
loop_
_atom_site_label
_atom_site_type_symbol
_atom_site_fract_x
_atom_site_fract_y
_atom_site_fract_z
Zn1	Zn	1.606157	-0.295616	0.594005
Zn2	Zn	1.606010	-0.419826	0.418328
Zn3	Zn	1.430459	-0.295654	0.418343
Zn4	Zn	1.430406	-0.419769	0.593968
O5	O	1.518258	-0.357716	0.506161
O6	O	1.753158	-0.312101	0.570711
O7	O	1.582683	-0.403395	0.271309
O8	O	1.453849	-0.191725	0.441666
O9	O	1.753050	-0.403357	0.441642
O10	O	1.582934	-0.191696	0.570725
O11	O	1.453706	-0.312166	0.271320
O12	O	1.283431	-0.312111	0.441630
O13	O	1.453759	-0.403259	0.740994
O14	O	1.283392	-0.403297	0.570661
O15	O	1.582882	-0.312045	0.741021
O16	O	1.582632	-0.523743	0.441605
O17	O	1.453616	-0.523701	0.570647
C18	C	1.245290	-0.357702	0.506144
C19	C	1.128514	-0.357714	0.506161
C20	C	0.963978	-0.310292	0.573480
C21	C	1.073702	-0.310282	0.573471
C22	C	1.073595	-0.405165	0.438864
C23	C	0.963873	-0.405178	0.438880
C24	C	0.909172	-0.262851	0.640787
C25	C	0.964083	-0.215401	0.708086
C26	C	1.073807	-0.215391	0.708076
C27	C	1.128620	-0.262830	0.640768
C28	C	1.518131	-0.550668	0.506143
C29	C	1.518173	-0.633214	0.506171
C30	C	1.448083	-0.832669	0.576319
C31	C	1.422469	-0.882117	0.480451
C32	C	1.518276	-0.784345	0.506185
C33	C	1.543942	-0.881978	0.602064
C34	C	1.518374	-0.930330	0.506206
C35	C	1.492611	-0.832706	0.410265
C36	C	1.614129	-0.832562	0.531944
C37	C	1.588551	-0.881988	0.436009
C38	C	1.518217	-0.700246	0.506174
C39	C	1.518433	-1.014426	0.506207
C40	C	1.792291	-0.357731	0.506179
C41	C	1.909068	-0.357738	0.506186
C42	C	1.518331	-0.357641	0.780194
C43	C	1.518363	-0.357609	0.896971
C44	C	1.518414	-0.164011	0.506201
C45	C	1.518480	-0.081465	0.506219
C46	C	1.518245	-0.357737	0.233193
C47	C	1.518417	-0.357560	0.116417
C48	C	1.585606	-0.310110	0.951849
C49	C	1.585631	-0.310083	1.061573
C50	C	1.451166	-0.405062	1.061532
C51	C	1.451136	-0.405085	0.951809
C52	C	1.652833	-0.262634	0.897011
C53	C	1.720083	-0.215131	0.951889
C54	C	1.720108	-0.215104	1.061613
C55	C	1.652883	-0.262581	1.116459
H56	H	1.118512	-0.176759	0.762881
H57	H	0.819830	-0.262851	0.640798
O58	O	1.785526	-0.168937	1.114761
C59	C	1.844830	-0.127028	1.042826
H60	H	1.848420	-0.157466	0.964604
H61	H	1.927623	-0.119107	1.074537
H62	H	1.806405	-0.070624	1.031169
H63	H	1.470848	-0.811152	0.329168
H64	H	1.396364	-0.443752	0.907127
H65	H	1.647952	-0.903507	0.376639
H66	H	1.217965	-0.262813	0.640758
H67	H	0.919447	-0.176781	0.762891
O68	O	1.652908	-0.262542	0.790426
C69	C	1.726680	-0.210470	0.753789
H70	H	1.741449	-0.167065	0.817031
H71	H	1.694987	-0.182304	0.680387
H72	H	1.803256	-0.239932	0.734321
O73	O	1.710722	-0.806604	0.558146
C74	C	1.737440	-0.831678	0.659317
H75	H	1.662975	-0.845581	0.704581
H76	H	1.782502	-0.786419	0.702443
H77	H	1.788449	-0.883307	0.652739
O78	O	1.127000	-0.451171	0.373513
C79	C	1.235619	-0.440996	0.387948
H80	H	1.250644	-0.383710	0.422494
H81	H	1.277280	-0.445962	0.309234
H82	H	1.266764	-0.485089	0.443785
H83	H	1.396434	-0.443715	1.106196
O84	O	1.569677	-0.907711	0.698863
C85	C	1.495396	-0.882597	0.772533
H86	H	1.455358	-0.830638	0.741361
H87	H	1.536536	-0.869223	0.849584
H88	H	1.434232	-0.927621	0.786228
H89	H	1.774808	-0.176473	0.907226
O90	O	0.910689	-0.451290	0.373412
C91	C	0.982587	-0.493168	0.314015
H92	H	1.060813	-0.462738	0.310431
H93	H	0.950836	-0.501030	0.231226
H94	H	0.994250	-0.549600	0.352357
H95	H	1.388636	-0.811013	0.635546
O96	O	1.325754	-0.908054	0.454632
C97	C	1.251928	-0.882915	0.528742
H98	H	1.293658	-0.868993	0.605278
H99	H	1.191301	-0.928143	0.543424
H100	H	1.211128	-0.831284	0.497453
H101	H	1.652896	-0.262546	1.205804
