data_functionalizedCrystal
_audit_creation_method	'MofGen! by Chris Wilmer'
_symmetry_space_group_name_H-M	'P1'
_symmetry_Int_Tables_number	1
_symmetry_cell_setting	triclinic
loop_
_symmetry_equiv_pos_as_xyz
  x,y,z
_cell_length_a	15.944551
_cell_length_b	16.109301
_cell_length_c	15.186229
_cell_angle_alpha	90.002208
_cell_angle_beta	90.006780
_cell_angle_gamma	96.519891
loop_
_atom_site_label
_atom_site_type_symbol
_atom_site_fract_x
_atom_site_fract_y
_atom_site_fract_z
O1	O	0.107969	-1.103162	0.073175
O2	O	0.121405	-0.861104	0.073189
O3	O	-0.007590	-0.988743	0.073174
O4	O	0.236964	-0.975523	0.073190
O5	O	-0.007597	-0.988742	-0.073284
O6	O	0.121398	-0.861103	-0.073268
O7	O	0.107961	-1.103161	-0.073282
Zn8	Zn	0.114678	-0.982132	-0.096529
Zn9	Zn	0.114689	-0.982133	0.096435
O10	O	0.236957	-0.975522	-0.073267
C11	C	0.120857	-0.830129	-0.000038
C12	C	0.119226	-0.737833	-0.000033
N13	N	0.114689	-0.982135	0.228128
C14	C	-0.038887	-0.988194	-0.000055
C15	C	-0.132133	-0.986548	-0.000056
C16	C	-0.346962	-0.903499	-0.000039
C17	C	-0.407996	-0.942064	-0.072253
C18	C	-0.302858	-0.983572	-0.000049
C19	C	-0.407972	-0.942084	0.072142
C20	C	-0.467769	-0.980691	-0.000038
C21	C	-0.362663	-1.022159	-0.072323
C22	C	-0.362633	-1.022167	0.072137
C23	C	-0.423649	-1.060790	-0.000095
C24	C	-0.207856	-0.985229	-0.000055
C25	C	-0.562770	-0.979039	-0.000038
C26	C	0.268254	-0.976071	-0.000036
C27	C	0.361500	-0.977717	-0.000030
C28	C	0.108510	-1.134136	-0.000054
C29	C	0.110141	-1.226432	-0.000053
C30	C	0.191975	-0.515584	-0.000038
C31	C	0.190435	-0.428863	-0.000044
C32	C	0.037387	-0.448688	-0.000050
C33	C	0.038927	-0.535407	-0.000051
C34	C	0.116224	-0.568853	-0.000040
C35	C	0.113143	-0.395412	-0.000045
C36	C	0.111473	-0.301386	-0.000052
C37	C	0.117894	-0.662885	-0.000036
N38	N	0.114671	-0.982137	-0.228221
C39	C	0.057681	-1.038762	0.453844
C40	C	0.057678	-1.038765	0.546034
C41	C	0.171686	-0.925507	0.546056
C42	C	0.171691	-0.925509	0.453868
C43	C	0.114684	-0.982136	0.407764
C44	C	0.114676	-0.982136	0.592142
C45	C	0.114674	-0.982138	0.692098
C46	C	0.114687	-0.982135	0.307802
H47	H	-0.313632	-0.837035	-0.000107
H48	H	0.254914	-0.542812	-0.000036
Cl49	Cl	0.285669	-0.361900	-0.000042
H50	H	-0.025546	-0.421446	-0.000064
Cl51	Cl	-0.013985	-1.109957	0.603958
H52	H	-0.022762	-0.578781	-0.000055
H53	H	-0.428096	-0.908196	-0.133301
Cl54	Cl	-0.013982	-1.109953	0.395889
Cl55	Cl	0.243345	-0.854319	0.604019
Cl56	Cl	-0.474882	-1.163494	-0.000160
H57	H	0.218114	-0.879397	0.416348
H58	H	-0.342510	-1.056006	0.133188
Cl59	Cl	-0.331828	-1.074406	-0.166685
Cl60	Cl	-0.438968	-0.889774	0.166394
