data_functionalizedCrystal
_audit_creation_method	'MofGen! by Chris Wilmer'
_symmetry_space_group_name_H-M	'P1'
_symmetry_Int_Tables_number	1
_symmetry_cell_setting	triclinic
loop_
_symmetry_equiv_pos_as_xyz
  x,y,z
_cell_length_a	12.827893
_cell_length_b	12.594516
_cell_length_c	12.827885
_cell_angle_alpha	89.971946
_cell_angle_beta	89.980728
_cell_angle_gamma	90.016023
loop_
_atom_site_label
_atom_site_type_symbol
_atom_site_fract_x
_atom_site_fract_y
_atom_site_fract_z
Zn1	Zn	1.597665	-0.423691	-0.590861
Zn2	Zn	1.597557	-0.601707	-0.416127
Zn3	Zn	1.422906	-0.423743	-0.416135
Zn4	Zn	1.422889	-0.601628	-0.590827
O5	O	1.510254	-0.512693	-0.503487
O6	O	1.743887	-0.447317	-0.567693
O7	O	1.574351	-0.578155	-0.269892
O8	O	1.446140	-0.274791	-0.439330
O9	O	1.743807	-0.578105	-0.439317
O10	O	1.574535	-0.274752	-0.567701
O11	O	1.446036	-0.447405	-0.269898
O12	O	1.276668	-0.447329	-0.439297
O13	O	1.446112	-0.577970	-0.737067
O14	O	1.276656	-0.578020	-0.567642
O15	O	1.574519	-0.447240	-0.737093
O16	O	1.574335	-0.750643	-0.439283
O17	O	1.446007	-0.750584	-0.567635
C18	C	1.238744	-0.512672	-0.503468
C19	C	1.122591	-0.512689	-0.503484
C20	C	1.070828	-0.577460	-0.566895
C21	C	0.950778	-0.577479	-0.566914
C22	C	1.510186	-0.789234	-0.503477
C23	C	1.510252	-0.907539	-0.503508
C24	C	1.440448	-0.976799	-0.573269
C25	C	1.414986	-1.047668	-0.477914
C26	C	1.535809	-1.047469	-0.598879
C27	C	1.484740	-0.976849	-0.408102
C28	C	1.605607	-0.976645	-0.529132
C29	C	1.580182	-1.047481	-0.433711
C30	C	1.782824	-0.512714	-0.503508
C31	C	1.898978	-0.512723	-0.503517
C32	C	1.510325	-0.512590	-0.776058
C33	C	1.510356	-0.512547	-0.892211
C34	C	1.510352	-0.235072	-0.503521
C35	C	1.510393	-0.116766	-0.503535
C36	C	1.573902	-0.447845	-0.944008
C37	C	1.573935	-0.447799	-1.064059
C38	C	1.510244	-0.512718	-0.231978
C39	C	1.510416	-0.512461	-0.115825
H40	H	1.078031	-0.457246	-0.449213
H41	H	0.943486	-0.457271	-0.449221
H42	H	1.686164	-0.945428	-0.550829
O43	O	0.897632	-0.643484	-0.631796
C44	C	0.834516	-0.582917	-0.699322
H45	H	0.867488	-0.499121	-0.705938
H46	H	0.833202	-0.621507	-0.779681
H47	H	0.751822	-0.579149	-0.666953
H48	H	1.463087	-0.945956	-0.327436
H49	H	1.456012	-0.567862	-1.071287
H50	H	1.381312	-0.945763	-0.632178
O51	O	1.445528	-0.578744	-0.945209
C52	C	1.468319	-0.684863	-0.918624
H53	H	1.508399	-0.687174	-0.839353
H54	H	1.392880	-0.732591	-0.914988
H55	H	1.522105	-0.720636	-0.980031
H56	H	1.115388	-0.632895	-0.621174
O57	O	1.561414	-1.084353	-0.695163
C58	C	1.487522	-1.048361	-0.768438
H59	H	1.447682	-0.973892	-0.737429
H60	H	1.528437	-1.029195	-0.845077
H61	H	1.426698	-1.112889	-0.782060
H62	H	1.639273	-1.078321	-0.374660
O63	O	1.318869	-1.085017	-0.452206
C64	C	1.280150	-1.148123	-0.534285
H65	H	1.347990	-1.179063	-0.582990
H66	H	1.234681	-1.218007	-0.500703
H67	H	1.226472	-1.098332	-0.585531
O68	O	1.638638	-0.381750	-0.890776
C69	C	1.579094	-0.313063	-0.827662
H70	H	1.499864	-0.350612	-0.811411
H71	H	1.621573	-0.298908	-0.750869
H72	H	1.567696	-0.234127	-0.869668
H73	H	1.628343	-0.392409	-1.108603
