data_functionalizedCrystal
_audit_creation_method	'MofGen! by Chris Wilmer'
_symmetry_space_group_name_H-M	'P1'
_symmetry_Int_Tables_number	1
_symmetry_cell_setting	triclinic
loop_
_symmetry_equiv_pos_as_xyz
  x,y,z
_cell_length_a	14.908795
_cell_length_b	14.908520
_cell_length_c	12.759393
_cell_angle_alpha	86.737527
_cell_angle_beta	93.321554
_cell_angle_gamma	96.791092
loop_
_atom_site_label
_atom_site_type_symbol
_atom_site_fract_x
_atom_site_fract_y
_atom_site_fract_z
Zn1	Zn	1.363072	-0.280560	0.704629
Zn2	Zn	1.354225	-0.431956	0.538514
Zn3	Zn	1.211692	-0.289330	0.519360
Zn4	Zn	1.202933	-0.440604	0.704545
O5	O	1.282981	-0.360613	0.616762
O6	O	1.488568	-0.293354	0.690645
O7	O	1.335281	-0.413088	0.388953
O8	O	1.239142	-0.161498	0.535955
O9	O	1.482068	-0.404584	0.568601
O10	O	1.350360	-0.155055	0.672072
O11	O	1.230563	-0.308301	0.374881
O12	O	1.083861	-0.316686	0.535874
O13	O	1.224213	-0.419323	0.851576
O14	O	1.077425	-0.427827	0.671928
O15	O	1.341866	-0.301739	0.851638
O16	O	1.326787	-0.559772	0.568520
O17	O	1.215633	-0.566126	0.690502
C18	C	1.047799	-0.374147	0.601814
C19	C	0.947186	-0.379959	0.595446
C20	C	1.269324	-0.595791	0.631604
C21	C	1.263565	-0.696397	0.637994
C22	C	0.802000	-0.445966	0.522818
C23	C	0.896534	-0.440509	0.528802
C24	C	0.903298	-0.324861	0.656108
C25	C	0.808763	-0.330318	0.650125
C26	C	0.758117	-0.390873	0.583479
C27	C	0.663581	-0.396334	0.577502
C28	C	0.670346	-0.280683	0.704802
C29	C	0.764880	-0.275226	0.710785
C30	C	1.368606	-0.878762	0.523098
C31	C	1.363197	-0.973290	0.529099
C32	C	1.247345	-0.979982	0.656002
C33	C	1.252753	-0.885454	0.650001
C34	C	1.313385	-0.834847	0.583546
C35	C	1.318788	-0.740318	0.577540
C36	C	1.202941	-0.747012	0.704448
C37	C	1.197532	-0.841540	0.710449
C38	C	1.519080	-0.347026	0.631769
C39	C	1.619692	-0.341236	0.638164
C40	C	1.283049	-0.360518	0.890794
C41	C	1.283079	-0.360477	1.007570
C42	C	1.296715	-0.124514	0.601886
C43	C	1.302568	-0.023903	0.595547
C44	C	1.282968	-0.360639	0.343796
C45	C	1.283129	-0.360414	0.227015
C46	C	1.344349	-0.299245	1.062466
C47	C	1.344373	-0.299211	1.172189
C48	C	1.221852	-0.421649	1.172111
C49	C	1.221825	-0.421678	1.062389
C50	C	1.415088	-0.228559	1.062512
C51	C	1.415112	-0.228525	1.172236
H52	H	0.622346	-0.445645	0.523238
Cl53	Cl	0.738327	-0.522107	0.439059
H54	H	1.368155	-0.699115	0.523426
H55	H	0.634607	-0.235824	0.754198
Cl56	Cl	0.951698	-0.509768	0.452537
H57	H	0.944550	-0.275555	0.710362
H58	H	1.408165	-1.009041	0.479878
H59	H	1.400388	-0.159541	1.027134
H60	H	1.157973	-0.711246	0.753665
H61	H	0.806129	-0.225921	0.765044
H62	H	1.417968	-0.837557	0.468980
Cl63	Cl	1.144852	-0.498583	1.241035
H64	H	1.197988	-1.021202	0.710113
Cl65	Cl	1.144782	-0.498645	0.993378
Cl66	Cl	1.515631	-0.261431	1.018933
H67	H	1.148170	-0.882756	0.764557
Cl68	Cl	1.382200	-0.127984	1.215847
Cl69	Cl	1.521674	-0.251263	1.226924
