data_functionalizedCrystal
_audit_creation_method	'MofGen! by Chris Wilmer'
_symmetry_space_group_name_H-M	'P1'
_symmetry_Int_Tables_number	1
_symmetry_cell_setting	triclinic
loop_
_symmetry_equiv_pos_as_xyz
  x,y,z
_cell_length_a	10.685980
_cell_length_b	25.639240
_cell_length_c	10.685880
_cell_angle_alpha	85.666161
_cell_angle_beta	80.918858
_cell_angle_gamma	85.590739
loop_
_atom_site_label
_atom_site_type_symbol
_atom_site_fract_x
_atom_site_fract_y
_atom_site_fract_z
Zn1	Zn	1.995528	0.172276	-0.866603
Zn2	Zn	1.979019	0.253506	-0.654314
Zn3	Zn	1.766968	0.172304	-0.638075
Zn4	Zn	1.783116	0.265906	-0.850212
O5	O	1.881158	0.215998	-0.752301
O6	O	2.170977	0.177850	-0.852098
O7	O	1.937222	0.237556	-0.474536
O8	O	1.797439	0.099132	-0.668454
O9	O	2.158848	0.237530	-0.696130
O10	O	1.965361	0.099112	-0.836352
O11	O	1.781430	0.177898	-0.462606
O12	O	1.591471	0.189922	-0.652560
O13	O	1.824960	0.258664	-1.030010
O14	O	1.603335	0.258691	-0.808416
O15	O	1.981018	0.189874	-1.042052
O16	O	1.952880	0.328319	-0.680236
O17	O	1.808951	0.337430	-0.824162
C18	C	1.551343	0.225655	-0.726948
C19	C	1.410249	0.229800	-0.716132
C20	C	1.880913	0.351846	-0.752213
C21	C	1.880928	0.409960	-0.752226
C22	C	1.956215	0.765561	-0.677457
C23	C	1.956255	0.820164	-0.677472
O24	O	2.020095	0.844356	-0.613848
N25	N	1.881262	0.852235	-0.752337
C26	C	1.806235	0.829700	-0.827202
O27	O	1.742452	0.861992	-0.890883
C28	C	1.806203	0.775097	-0.827193
C29	C	1.881190	0.743029	-0.752313
C30	C	2.031198	0.733493	-0.602584
C31	C	2.031156	0.678893	-0.602567
C32	C	1.956131	0.656361	-0.677423
C33	C	1.881149	0.688429	-0.752296
C34	C	1.731183	0.752563	-0.902063
C35	C	1.731158	0.697956	-0.902049
C36	C	1.806146	0.665888	-0.827169
C37	C	1.806082	0.611298	-0.827135
N38	N	1.881075	0.579227	-0.752270
C39	C	1.956099	0.601759	-0.677414
C40	C	1.806309	0.944368	-0.827217
C41	C	1.806334	0.998970	-0.827220
C42	C	1.956356	0.989431	-0.677492
C43	C	1.956324	0.934828	-0.677483
C44	C	1.881302	0.912298	-0.752352
C45	C	1.956005	0.487096	-0.677384
C46	C	1.955952	0.432492	-0.677370
C47	C	1.805936	0.442035	-0.827103
C48	C	1.805983	0.496635	-0.827112
C49	C	1.881027	0.519163	-0.752250
O50	O	1.742279	0.587069	-0.890731
O51	O	2.019884	0.569460	-0.613757
C52	C	2.212260	0.206304	-0.777753
C53	C	2.353356	0.202172	-0.788600
C54	C	1.881391	1.079621	-0.752394
C55	C	1.881364	1.021507	-0.752369
C56	C	1.906632	0.225649	-1.083375
C57	C	1.917488	0.229762	-1.224459
C58	C	1.855856	0.206345	-0.422521
C59	C	1.845246	0.202077	-0.281456
H60	H	1.412588	0.175345	-0.858914
H61	H	1.351010	0.256626	-0.645805
H62	H	1.744926	0.522746	-0.888090
C63	C	1.724717	0.417533	-0.908551
C64	C	1.802798	0.386423	-0.995482
C65	C	1.728036	0.363847	-1.070552
H66	H	1.665681	0.396427	-0.855846
H67	H	1.680086	0.444433	-0.953232
H68	H	1.847408	0.359527	-0.950805
H69	H	1.861833	0.407517	-1.048215
H70	H	1.683405	0.390746	-1.115233
H71	H	1.669003	0.342743	-1.017837
H72	H	1.781004	0.342740	-1.129551
H73	H	2.017016	0.406383	-0.616389
C74	C	1.649988	0.787431	-0.983468
C75	C	1.728087	0.819009	-1.070393
C76	C	1.653333	0.851140	-1.145402
H77	H	1.605298	0.766247	-1.028165
H78	H	1.591000	0.808999	-0.930683
H79	H	1.787053	0.797444	-1.123172
H80	H	1.772777	0.840204	-1.025731
H81	H	1.594345	0.872708	-1.092617
H82	H	1.608647	0.829952	-1.190091
H83	H	1.706311	0.872573	-1.204381
C84	C	2.037511	0.511450	-0.595963
C85	C	2.103134	0.471671	-0.530371
C86	C	2.178208	0.494087	-0.455335
H87	H	2.096647	0.532510	-0.648673
H88	H	1.984777	0.532574	-0.536825
H89	H	2.155864	0.450557	-0.589502
H90	H	2.044029	0.450609	-0.477638
H91	H	2.125473	0.515210	-0.396197
H92	H	2.237336	0.515146	-0.508055
H93	H	2.222732	0.467100	-0.410813
C94	C	2.112725	0.644170	-0.521247
C95	C	2.178458	0.675599	-0.455734
C96	C	2.253635	0.643634	-0.380826
H97	H	2.060088	0.622694	-0.462057
H98	H	2.171790	0.622647	-0.574074
H99	H	2.119400	0.697113	-0.402912
H100	H	2.231118	0.697074	-0.514893
H101	H	2.312700	0.622111	-0.433652
H102	H	2.200989	0.622160	-0.321643
H103	H	2.298253	0.664954	-0.336375
C104	C	2.112922	0.757958	-0.521578
C105	C	2.199818	0.788943	-0.599816
C106	C	2.275172	0.811468	-0.525251
H107	H	2.060393	0.779140	-0.462449
H108	H	2.157644	0.731032	-0.477066
H109	H	2.155100	0.815865	-0.644307
H110	H	2.252374	0.767773	-0.658943
H111	H	2.319894	0.784542	-0.480740
H112	H	2.222633	0.832647	-0.466126
H113	H	2.334148	0.832490	-0.578326
C114	C	2.011079	0.265615	-1.303081
C115	C	2.075523	0.290339	-1.222225
C116	C	2.161735	0.323375	-1.294604
H117	H	2.070479	0.245540	-1.359077
H118	H	1.966436	0.291336	-1.351018
H119	H	2.120165	0.264622	-1.174309
H120	H	2.016157	0.310424	-1.166228
H121	H	2.117091	0.349096	-1.342542
H122	H	2.221127	0.303296	-1.350598
H123	H	2.205462	0.340158	-1.239754
C124	C	2.037880	0.900103	-0.596152
C125	C	2.103603	0.931530	-0.530624
C126	C	2.178762	0.899562	-0.455701
H127	H	1.985231	0.878629	-0.536972
H128	H	2.096950	0.878579	-0.648971
H129	H	2.044540	0.953045	-0.477809
H130	H	2.156275	0.953004	-0.589773
H131	H	2.237832	0.878038	-0.508520
H132	H	2.126104	0.878089	-0.396528
H133	H	2.223373	0.920880	-0.411241
C134	C	1.724746	0.919839	-0.908284
C135	C	1.637903	0.888812	-0.830098
C136	C	1.562761	0.866206	-0.904734
H137	H	1.679973	0.946707	-0.952885
H138	H	1.777461	0.898672	-0.967339
H139	H	1.585195	0.909978	-0.771066
H140	H	1.682641	0.861936	-0.785497
H141	H	1.615476	0.845039	-0.963789
H142	H	1.517997	0.893077	-0.949332
H143	H	1.503838	0.845148	-0.851698
H144	H	1.775082	0.175230	-1.222321
C145	C	2.037893	1.014000	-0.596468
C146	C	2.021941	1.068682	-0.612590
C147	C	2.097089	1.091334	-0.538039
H148	H	2.012995	1.003209	-0.509668
H149	H	2.124600	1.003070	-0.621781
H150	H	1.935253	1.079608	-0.587270
H151	H	2.046847	1.079488	-0.699374
H152	H	2.183796	1.080404	-0.563351
H153	H	2.072184	1.080539	-0.451243
H154	H	2.086285	1.128438	-0.548976
H155	H	1.745258	1.025076	-0.888182
H156	H	1.670068	0.679615	-0.963020
