data_functionalizedCrystal
_audit_creation_method	'MofGen! by Chris Wilmer'
_symmetry_space_group_name_H-M	'P1'
_symmetry_Int_Tables_number	1
_symmetry_cell_setting	triclinic
loop_
_symmetry_equiv_pos_as_xyz
  x,y,z
_cell_length_a	11.792241
_cell_length_b	10.268362
_cell_length_c	12.837942
_cell_angle_alpha	89.995347
_cell_angle_beta	90.488822
_cell_angle_gamma	90.000374
loop_
_atom_site_label
_atom_site_type_symbol
_atom_site_fract_x
_atom_site_fract_y
_atom_site_fract_z
O1	O	1.521327	0.108172	-0.142169
O2	O	1.854661	0.441505	0.191164
O3	O	2.187994	0.774839	0.524498
O4	O	1.192472	0.108202	-0.156821
O5	O	1.525806	0.441535	0.176512
O6	O	1.859139	0.774869	0.509846
O7	O	1.349608	0.108180	0.001449
O8	O	1.682941	0.441513	0.334782
O9	O	2.016274	0.774846	0.668115
O10	O	1.364192	0.108194	-0.300439
O11	O	1.697525	0.441528	0.032895
O12	O	2.030858	0.774861	0.366228
O13	O	1.349592	-0.108421	0.001455
O14	O	1.682925	0.224912	0.334789
O15	O	2.016259	0.558246	0.668122
O16	O	1.192456	-0.108399	-0.156814
O17	O	1.525790	0.224935	0.176519
O18	O	1.859123	0.558268	0.509852
O19	O	1.521311	-0.108429	-0.142162
O20	O	1.854645	0.224905	0.191171
O21	O	2.187978	0.558238	0.524504
Cu22	Cu	1.356882	-0.128191	-0.149488
Cu23	Cu	1.690216	0.205142	0.183846
Cu24	Cu	2.023549	0.538476	0.517179
Cu25	Cu	1.356901	0.127964	-0.149496
Cu26	Cu	1.690235	0.461298	0.183838
Cu27	Cu	2.023568	0.794631	0.517171
O28	O	1.364176	-0.108406	-0.300432
O29	O	1.697509	0.224927	0.032901
O30	O	2.030843	0.558260	0.366235
C31	C	1.150080	-0.000094	-0.155897
C32	C	1.483413	0.333239	0.177436
C33	C	1.816747	0.666572	0.510769
C34	C	1.023787	-0.000083	-0.153142
C35	C	1.357120	0.333250	0.180191
C36	C	1.690454	0.666584	0.513524
N37	N	1.356878	-0.308357	-0.149482
N38	N	1.690211	0.024976	0.183852
N39	N	2.023544	0.358310	0.517185
C40	C	0.792561	-0.000121	-0.148077
C41	C	1.125894	0.333213	0.185256
C42	C	1.459228	0.666546	0.518590
C43	C	0.921232	-0.000100	-0.150891
C44	C	1.254565	0.333233	0.182442
C45	C	1.587898	0.666567	0.515775
C46	C	1.356895	-0.574027	-0.149493
C47	C	1.690229	-0.240694	0.183840
C48	C	2.023562	0.092639	0.517173
C49	C	1.356882	-0.426190	-0.149490
C50	C	1.690215	-0.092856	0.183843
C51	C	2.023549	0.240477	0.517177
C52	C	1.563704	-0.000129	-0.143086
C53	C	1.897037	0.333204	0.190247
C54	C	2.230370	0.666537	0.523581
C55	C	1.689997	-0.000132	-0.145841
C56	C	2.023330	0.333201	0.187493
C57	C	2.356663	0.666534	0.520826
C58	C	1.344673	-0.000119	0.040100
C59	C	1.678006	0.333214	0.373434
C60	C	2.011340	0.666547	0.706767
C61	C	1.329979	-0.000116	0.155260
C62	C	1.663313	0.333217	0.488593
C63	C	1.996646	0.666551	0.821927
N64	N	1.356914	0.308130	-0.149493
N65	N	1.690248	0.641464	0.183840
N66	N	2.023581	0.974797	0.517173
C67	C	1.369111	-0.000104	-0.339084
C68	C	1.702444	0.333229	-0.005750
C69	C	2.035777	0.666562	0.327583
C70	C	1.383804	-0.000099	-0.454243
C71	C	1.717138	0.333234	-0.120910
C72	C	2.050471	0.666567	0.212423
C73	C	1.506625	-0.000105	0.395226
C74	C	1.839958	0.333228	0.728559
C75	C	2.173292	0.666562	1.061892
C76	C	1.492824	-0.000102	0.503429
C77	C	1.826158	0.333232	0.836762
C78	C	2.159491	0.666565	1.170096
C79	C	1.288578	-0.000096	0.479872
C80	C	1.621911	0.333237	0.813206
C81	C	1.955245	0.666570	1.146539
C82	C	1.302379	-0.000100	0.371669
C83	C	1.635712	0.333234	0.705002
C84	C	1.969045	0.666567	1.038336
C85	C	1.411406	-0.000106	0.329350
C86	C	1.744739	0.333227	0.662683
C87	C	2.078072	0.666561	0.996017
C88	C	1.425206	-0.000119	0.221144
C89	C	1.758539	0.333214	0.554478
C90	C	2.091872	0.666548	0.887811
C91	C	1.220960	-0.000104	0.197590
C92	C	1.554294	0.333229	0.530923
C93	C	1.887627	0.666562	0.864256
C94	C	1.207159	-0.000101	0.305793
C95	C	1.540493	0.333232	0.639126
C96	C	1.873826	0.666566	0.972460
H97	H	1.513981	-0.000129	0.186690
H98	H	1.847314	0.333205	0.520024
H99	H	2.180648	0.666538	0.853357
H100	H	1.595399	-0.000123	0.360769
H101	H	1.928733	0.333210	0.694102
H102	H	2.262066	0.666544	1.027436
H103	H	1.143426	-0.000116	0.143941
H104	H	1.476759	0.333218	0.477275
H105	H	1.810092	0.666551	0.810608
H106	H	1.199813	-0.000077	0.514348
H107	H	1.533146	0.333256	0.847681
H108	H	1.866480	0.666589	1.181015
O109	O	1.585441	-0.000161	0.567273
O110	O	1.918774	0.333172	0.900606
O111	O	2.252108	0.666505	1.233939
C112	C	1.789482	-0.000085	0.579215
C113	C	2.122816	0.333249	0.912548
C114	C	2.456149	0.666582	1.245881
C115	C	1.684687	-0.000051	0.506793
C116	C	2.018021	0.333283	0.840126
C117	C	2.351354	0.666616	1.173459
H118	H	1.869749	0.000033	0.530346
H119	H	2.203082	0.333366	0.863679
H120	H	2.536415	0.666699	1.197012
H121	H	1.788208	-0.090751	0.630450
H122	H	2.121541	0.242582	0.963783
H123	H	2.454875	0.575915	1.297116
H124	H	1.788063	0.090543	0.630475
H125	H	2.121396	0.423876	0.963809
H126	H	2.454730	0.757210	1.297142
H127	H	1.686038	-0.090617	0.455467
H128	H	2.019371	0.242717	0.788800
H129	H	2.352705	0.576050	1.122134
H130	H	1.686001	0.090676	0.455628
H131	H	2.019334	0.424009	0.788962
H132	H	2.352667	0.757343	1.122295
H133	H	1.118392	-0.000091	0.340265
H134	H	1.451726	0.333243	0.673598
H135	H	1.785059	0.666576	1.006931
