data_functionalizedCrystal
_audit_creation_method	'MofGen! by Chris Wilmer'
_symmetry_space_group_name_H-M	'P1'
_symmetry_Int_Tables_number	1
_symmetry_cell_setting	triclinic
loop_
_symmetry_equiv_pos_as_xyz
  x,y,z
_cell_length_a	16.120484
_cell_length_b	16.120490
_cell_length_c	16.120297
_cell_angle_alpha	90.129683
_cell_angle_beta	95.614431
_cell_angle_gamma	90.164100
loop_
_atom_site_label
_atom_site_type_symbol
_atom_site_fract_x
_atom_site_fract_y
_atom_site_fract_z
Zn1	Zn	-0.422331	1.224990	-0.554787
Zn2	Zn	0.077669	1.724990	-0.054787
Zn3	Zn	-0.555015	1.224886	-0.422092
Zn4	Zn	-0.055015	1.724886	0.077908
Zn5	Zn	-0.408239	1.093729	-0.408032
Zn6	Zn	0.091761	1.593729	0.091968
Zn7	Zn	-0.554239	1.078882	-0.554027
Zn8	Zn	-0.054239	1.578882	-0.054027
O9	O	-0.484956	1.155622	-0.484735
O10	O	0.015044	1.655622	0.015265
O11	O	-0.446153	1.341012	-0.543386
O12	O	0.053847	1.841012	-0.043386
O13	O	-0.529972	1.213657	-0.303594
O14	O	-0.029972	1.713657	0.196406
O15	O	-0.293478	1.117398	-0.421933
O16	O	0.206522	1.617398	0.078067
O17	O	-0.543636	1.340936	-0.445896
O18	O	-0.043636	1.840936	0.054104
O19	O	-0.303831	1.213835	-0.529753
O20	O	0.196169	1.713835	-0.029753
O21	O	-0.422137	1.117297	-0.293264
O22	O	0.077863	1.617297	0.206736
O23	O	-0.421385	0.975724	-0.421197
O24	O	0.078615	1.475724	0.078803
O25	O	-0.542314	1.092094	-0.670761
O26	O	-0.042314	1.592094	-0.170761
O27	O	-0.528650	0.964816	-0.528459
O28	O	-0.028650	1.464816	-0.028459
O29	O	-0.445401	1.199439	-0.671319
O30	O	0.054599	1.699439	-0.171319
O31	O	-0.671542	1.199261	-0.445159
O32	O	-0.171542	1.699261	0.054841
O33	O	-0.670972	1.091993	-0.542092
O34	O	-0.170972	1.591993	-0.042092
C35	C	-0.473405	0.940183	-0.473221
C36	C	0.026595	1.440183	0.026779
C37	C	-0.468484	0.848015	-0.468316
C38	C	0.031516	1.348015	0.031684
C39	C	-0.510474	0.632820	-0.510179
C40	C	-0.010474	1.132820	-0.010179
C41	C	-0.459508	0.679267	-0.459359
C42	C	0.040492	1.179267	0.040641
C43	C	-0.464504	0.773167	-0.464344
C44	C	0.035496	1.273167	0.035656
C45	C	-0.505479	0.538912	-0.505195
C46	C	-0.005479	1.038912	-0.005195
C47	C	-0.701500	1.144026	-0.495088
C48	C	-0.201500	1.644026	0.004912
C49	C	-0.794144	1.139140	-0.499550
C50	C	-0.294144	1.639140	0.000450
C51	C	-0.963767	1.130223	-0.507712
C52	C	-0.463767	1.630223	-0.007712
C53	C	-1.005313	1.181169	-0.461779
C54	C	-0.505313	1.681169	0.038221
C55	C	-1.099697	1.176207	-0.466320
C56	C	-0.599697	1.676207	0.033680
C57	C	-0.869375	1.135183	-0.503171
C58	C	-0.369375	1.635183	-0.003171
C59	C	-0.267568	1.167284	-0.474360
C60	C	0.232432	1.667284	0.025640
C61	C	-0.174931	1.172254	-0.469939
C62	C	0.325069	1.672254	0.030061
C63	C	-0.495343	1.144122	-0.702127
C64	C	0.004657	1.644122	-0.202127
C65	C	-0.499770	1.139222	-0.794767
C66	C	0.000230	1.639222	-0.294767
C67	C	-0.496553	1.371902	-0.496294
C68	C	0.003447	1.871902	0.003706
C69	C	-0.501495	1.464068	-0.501220
C70	C	-0.001495	1.964068	-0.001220
C71	C	-0.507831	1.130245	-0.964378
C72	C	-0.007831	1.630245	-0.464378
C73	C	-0.461840	1.181175	-1.005939
C74	C	0.038160	1.681175	-0.505939
C75	C	-0.466326	1.176180	-1.100317
C76	C	0.033674	1.676180	-0.600317
C77	C	-0.503346	1.135239	-0.869992
C78	C	-0.003346	1.635239	-0.369992
C79	C	-0.474552	1.167128	-0.268187
C80	C	0.025448	1.667128	0.231813
C81	C	-0.469899	1.172201	-0.175545
C82	C	0.030101	1.672201	0.324455
H83	H	-0.412123	0.648511	-0.412108
H84	H	0.087877	1.148511	0.087892
H85	H	-0.999080	1.082883	-0.550444
H86	H	-0.499080	1.582883	-0.050444
O87	O	-0.963142	1.237533	-0.410690
O88	O	-0.463142	1.737533	0.089310
C89	C	-0.907740	1.195800	-0.351943
C90	C	-0.407740	1.695800	0.148057
H91	H	-0.930359	1.129412	-0.344506
H92	H	-0.430359	1.629412	0.155494
H93	H	-0.842866	1.194960	-0.374443
H94	H	-0.342866	1.694960	0.125557
C95	C	-0.876519	1.322565	-0.276560
C96	C	-0.376519	1.822565	0.223440
C97	C	-0.904304	1.241029	-0.267420
C98	C	-0.404304	1.741029	0.232580
H99	H	-0.874396	1.350466	-0.224423
H100	H	-0.374396	1.850466	0.275577
H101	H	-0.913842	1.350683	-0.316141
H102	H	-0.413842	1.850683	0.183859
H103	H	-0.822460	1.321854	-0.295313
H104	H	-0.322460	1.821854	0.204687
H105	H	-0.958366	1.241741	-0.248678
H106	H	-0.458366	1.741741	0.251322
H107	H	-0.866990	1.212912	-0.227834
H108	H	-0.366990	1.712912	0.272166
O109	O	-0.566982	0.669638	-0.566469
O110	O	-0.066982	1.169638	-0.066469
C111	C	-0.559442	0.756554	-0.558978
C112	C	-0.059442	1.256554	-0.058978
H113	H	-0.529576	0.773123	-0.494002
H114	H	-0.029576	1.273123	0.005998
H115	H	-0.518788	0.780898	-0.607652
H116	H	-0.018788	1.280898	-0.107652
C117	C	-0.683147	0.775880	-0.652620
C118	C	-0.183147	1.275880	-0.152620
C119	C	-0.646471	0.796231	-0.572813
C120	C	-0.146471	1.296231	-0.072813
H121	H	-0.736829	0.800356	-0.661157
H122	H	-0.236829	1.300356	-0.161157
H123	H	-0.688226	0.717323	-0.657670
H124	H	-0.188226	1.217323	-0.157670
H125	H	-0.649260	0.796168	-0.693172
H126	H	-0.149260	1.296168	-0.193172
H127	H	-0.680352	0.775935	-0.532262
H128	H	-0.180352	1.275935	-0.032262
H129	H	-0.641400	0.854786	-0.567757
H130	H	-0.141400	1.354786	-0.067757
O131	O	-0.410909	1.237635	-0.963709
O132	O	0.089091	1.737635	-0.463709
C133	C	-0.417693	1.230100	-0.877511
C134	C	0.082307	1.730100	-0.377511
H135	H	-0.480012	1.200116	-0.867345
H136	H	0.019988	1.700116	-0.367345
H137	H	-0.364743	1.189864	-0.848081
H138	H	0.135257	1.689864	-0.348081
C139	C	-0.335903	1.353555	-0.849328
C140	C	0.164097	1.853555	-0.349328
C141	C	-0.412448	1.316733	-0.836842
C142	C	0.087552	1.816733	-0.336842
H143	H	-0.332664	1.406993	-0.824240
H144	H	0.167336	1.906993	-0.324240
H145	H	-0.331329	1.358630	-0.907401
H146	H	0.168671	1.858630	-0.407401
H147	H	-0.291787	1.320016	-0.824803
H148	H	0.208213	1.820016	-0.324803
H149	H	-0.456562	1.350267	-0.861376
H150	H	0.043438	1.850267	-0.361376
H151	H	-0.417029	1.311666	-0.778772
H152	H	0.082971	1.811666	-0.278772
O153	O	-0.558808	1.073833	-1.006613
O154	O	-0.058808	1.573833	-0.506613
C155	C	-0.551981	1.081340	-1.092805
C156	C	-0.051981	1.581340	-0.592805
H157	H	-0.528658	1.146184	-1.106708
H158	H	-0.028658	1.646184	-0.606708
H159	H	-0.506115	1.033253	-1.112754
H160	H	-0.006115	1.533253	-0.612754
C161	C	-0.666635	0.987264	-1.124155
C162	C	-0.166635	1.487264	-0.624155
C163	C	-0.637996	1.066909	-1.141231
C164	C	-0.137996	1.566909	-0.641231
H165	H	-0.719691	0.978359	-1.154027
H166	H	-0.219691	1.478359	-0.654027
H167	H	-0.671233	0.982203	-1.066085
H168	H	-0.171233	1.482203	-0.566085
H169	H	-0.628406	0.947201	-1.140779
H170	H	-0.128406	1.447201	-0.640779
H171	H	-0.676219	1.106971	-1.124597
H172	H	-0.176219	1.606971	-0.624597
H173	H	-0.633407	1.071976	-1.199299
H174	H	-0.133407	1.571976	-0.699299
