data_functionalizedCrystal
_audit_creation_method	'MofGen! by Chris Wilmer'
_symmetry_space_group_name_H-M	'P1'
_symmetry_Int_Tables_number	1
_symmetry_cell_setting	triclinic
loop_
_symmetry_equiv_pos_as_xyz
  x,y,z
_cell_length_a	12.594517
_cell_length_b	18.050583
_cell_length_c	12.594516
_cell_angle_alpha	90.030412
_cell_angle_beta	89.984147
_cell_angle_gamma	89.983678
loop_
_atom_site_label
_atom_site_type_symbol
_atom_site_fract_x
_atom_site_fract_y
_atom_site_fract_z
Zn1	Zn	1.627214	-0.419949	0.423671
Zn2	Zn	1.627121	-0.295772	0.601695
Zn3	Zn	1.449234	-0.295772	0.423730
Zn4	Zn	1.449200	-0.419919	0.601608
O5	O	1.538192	-0.357853	0.512676
O6	O	1.776148	-0.403488	0.447299
O7	O	1.603498	-0.191847	0.578148
O8	O	1.472896	-0.312257	0.274776
O9	O	1.776079	-0.312256	0.578092
O10	O	1.603658	-0.403489	0.274733
O11	O	1.472806	-0.191848	0.447398
O12	O	1.300284	-0.312229	0.447314
O13	O	1.472840	-0.523848	0.577943
O14	O	1.300259	-0.403439	0.578000
O15	O	1.603626	-0.523870	0.447214
O16	O	1.603466	-0.312227	0.750629
O17	O	1.472749	-0.403438	0.750565
C18	C	1.261651	-0.357831	0.512655
C19	C	1.143346	-0.357839	0.512671
C20	C	1.074075	-0.308325	0.441494
C21	C	1.003267	-0.290060	0.538585
C22	C	1.003356	-0.376116	0.415628
C23	C	1.074095	-0.339540	0.609813
C24	C	1.074191	-0.425627	0.486791
C25	C	1.003414	-0.407389	0.583948
C26	C	1.538239	-0.551559	0.512562
C27	C	1.538259	-0.634105	0.512514
C28	C	1.609452	-0.833567	0.441389
C29	C	1.512370	-0.882960	0.415339
C30	C	1.538302	-0.785235	0.512496
C31	C	1.635423	-0.882924	0.538479
C32	C	1.538352	-0.931220	0.512476
C33	C	1.441169	-0.833540	0.486395
C34	C	1.564287	-0.833500	0.609580
C35	C	1.467138	-0.882871	0.583567
C36	C	1.538275	-0.701137	0.512504
C37	C	1.538368	-1.015317	0.512468
C38	C	1.815813	-0.357875	0.512698
C39	C	1.934119	-0.357885	0.512708
C40	C	1.538123	-0.357846	0.789217
C41	C	1.538190	-0.357867	0.907522
C42	C	1.538207	-0.164901	0.512712
C43	C	1.538393	-0.082356	0.512461
C44	C	1.538291	-0.357877	0.235055
C45	C	1.538334	-0.357887	0.116750
C46	C	1.467086	-0.407442	0.976779
C47	C	1.441161	-0.339676	1.047652
C48	C	1.564212	-0.425645	1.047449
C49	C	1.512214	-0.290065	0.976837
C50	C	1.635310	-0.376080	0.976627
C51	C	1.609422	-0.308267	1.047468
H52	H	0.972115	-0.232753	0.560498
H53	H	1.717536	-0.904619	0.560462
H54	H	1.490407	-0.904685	0.333228
F55	F	1.333890	-0.319544	1.088426
F56	F	1.592903	-0.500554	1.087996
H57	H	0.972583	-0.449281	0.644226
F58	F	1.388431	-0.911001	0.662144
H59	H	1.105039	-0.324037	0.691921
F60	F	1.114632	-0.253529	0.362895
H61	H	1.586280	-0.811761	0.691668
F62	F	1.742552	-0.396237	0.935821
H63	H	1.105368	-0.482917	0.464848
F64	F	0.962734	-0.396296	0.308342
F65	F	1.687972	-0.805268	0.362746
H66	H	1.406848	-0.449305	0.945740
H67	H	1.490168	-0.232739	0.945947
H68	H	1.359032	-0.811939	0.464315
F69	F	1.688100	-0.253420	1.087782
