data_functionalizedCrystal
_audit_creation_method	'MofGen! by Chris Wilmer'
_symmetry_space_group_name_H-M	'P1'
_symmetry_Int_Tables_number	1
_symmetry_cell_setting	triclinic
loop_
_symmetry_equiv_pos_as_xyz
  x,y,z
_cell_length_a	17.000371
_cell_length_b	23.532357
_cell_length_c	16.098678
_cell_angle_alpha	92.719562
_cell_angle_beta	87.494232
_cell_angle_gamma	79.213770
loop_
_atom_site_label
_atom_site_type_symbol
_atom_site_fract_x
_atom_site_fract_y
_atom_site_fract_z
O1	O	1.052356	0.023254	0.069262
O2	O	1.552356	0.523254	0.569262
O3	O	0.820455	0.043932	0.069266
O4	O	1.320455	0.543932	0.569266
O5	O	0.943420	-0.049664	0.069247
O6	O	1.443420	0.450336	0.569247
O7	O	0.929391	0.116850	0.069281
O8	O	1.429391	0.616850	0.569281
O9	O	0.950566	-0.055113	-0.069265
O10	O	1.450566	0.444887	0.430735
O11	O	0.827601	0.038483	-0.069245
O12	O	1.327601	0.538483	0.430755
O13	O	1.059503	0.017805	-0.069249
O14	O	1.559503	0.517805	0.430751
Zn15	Zn	0.944687	0.027279	-0.091239
Zn16	Zn	1.444687	0.527279	0.408761
Zn17	Zn	0.935271	0.034458	0.091255
Zn18	Zn	1.435271	0.534458	0.591255
O19	O	0.936537	0.111401	-0.069230
O20	O	1.436537	0.611401	0.430770
C21	C	0.794365	0.042318	0.000010
C22	C	1.294365	0.542318	0.500010
C23	C	0.705980	0.045621	0.000011
C24	C	1.205980	0.545621	0.500011
C25	C	0.946643	-0.073589	-0.000012
C26	C	1.446643	0.426411	0.499988
C27	C	0.945588	-0.136760	-0.000019
C28	C	1.445588	0.363240	0.499981
C29	C	0.674369	-0.005204	-0.000001
C30	C	1.174369	0.494796	0.499999
C31	C	0.591321	-0.002097	0.000006
C32	C	1.091321	0.497903	0.500006
C33	C	0.539884	0.051835	0.000018
C34	C	1.039884	0.551835	0.500018
C35	C	0.571499	0.102664	0.000033
C36	C	1.071499	0.602664	0.500033
C37	C	0.654546	0.099557	0.000032
C38	C	1.154546	0.599557	0.500032
C39	C	0.288640	0.063838	0.000027
C40	C	0.788640	0.563838	0.500027
C41	C	0.205588	0.066941	0.000025
C42	C	0.705588	0.566941	0.500025
C43	C	0.225415	-0.037820	-0.000001
C44	C	0.725415	0.462180	0.499999
C45	C	0.308463	-0.040923	-0.000007
C46	C	0.808463	0.459077	0.499993
C47	C	0.340071	0.009906	0.000012
C48	C	0.840071	0.509906	0.500012
C49	C	0.454995	0.055012	0.000023
C50	C	0.954995	0.555012	0.500023
C51	C	0.424958	0.006729	0.000014
C52	C	0.924958	0.506729	0.500014
C53	C	0.935068	-0.525494	0.075528
C54	C	1.435068	-0.025494	0.575528
C55	C	0.934065	-0.584847	0.075533
C56	C	1.434065	-0.084847	0.575533
O57	O	0.930206	-0.613012	0.139745
O58	O	1.430206	-0.113012	0.639745
N59	N	0.937463	-0.617506	0.000031
N60	N	1.437463	-0.117506	0.500031
C61	C	0.941856	-0.590807	-0.075480
C62	C	1.441856	-0.090807	0.424520
O63	O	0.944654	-0.624035	-0.139699
O64	O	1.444654	-0.124035	0.360301
C65	C	0.942853	-0.531454	-0.075484
C66	C	1.442853	-0.031454	0.424516
C67	C	0.939463	-0.498800	0.000023
C68	C	1.439463	0.001200	0.500023
C69	C	0.931677	-0.492840	0.151028
C70	C	1.431677	0.007160	0.651028
C71	C	0.932681	-0.433491	0.151023
C72	C	1.432681	0.066509	0.651023
C73	C	0.937077	-0.406797	0.075518
C74	C	1.437077	0.093203	0.575518
C75	C	0.940468	-0.439451	0.000018
C76	C	1.440468	0.060549	0.500018
C77	C	0.947241	-0.504755	-0.150994
C78	C	1.447241	-0.004755	0.349006
C79	C	0.948237	-0.445398	-0.150991
C80	C	1.448237	0.054602	0.349009
C81	C	0.944847	-0.412744	-0.075485
C82	C	1.444847	0.087256	0.424515
C83	C	0.945867	-0.353408	-0.075493
C84	C	1.445867	0.146592	0.424507
N85	N	0.942469	-0.320749	0.000009
N86	N	1.442469	0.179251	0.500009
C87	C	0.938074	-0.347444	0.075514
C88	C	1.438074	0.152556	0.575514
C89	C	0.939760	-0.715451	-0.075466
C90	C	1.439760	-0.215451	0.424534
C91	C	0.938769	-0.774804	-0.075463
C92	C	1.438769	-0.274804	0.424537
C93	C	0.930976	-0.768840	0.075550
C94	C	1.430976	-0.268840	0.575550
C95	C	0.931973	-0.709487	0.075546
C96	C	1.431973	-0.209487	0.575546
C97	C	0.936362	-0.682793	0.000036
C98	C	1.436362	-0.182793	0.500036
C99	C	0.940185	-0.222807	0.075498
C100	C	1.440185	0.277193	0.575498
C101	C	0.941193	-0.163454	0.075486
C102	C	1.441193	0.336546	0.575486
C103	C	0.948981	-0.169423	-0.075526
C104	C	1.448981	0.330577	0.424474
C105	C	0.947977	-0.228771	-0.075515
C106	C	1.447977	0.271229	0.424485
C107	C	0.943576	-0.255462	0.000004
C108	C	1.443576	0.244538	0.500004
O109	O	0.949722	-0.325203	-0.139672
O110	O	1.449722	0.174797	0.360328
O111	O	0.935267	-0.314207	0.139723
O112	O	1.435267	0.185793	0.639723
C113	C	1.085592	0.019419	0.000008
C114	C	1.585592	0.519419	0.500008
C115	C	1.173978	0.016116	0.000013
C116	C	1.673978	0.516116	0.500013
C117	C	0.933315	0.135326	0.000030
C118	C	1.433315	0.635326	0.500030
C119	C	0.934369	0.198497	0.000043
C120	C	1.434369	0.698497	0.500043
N121	N	0.951118	0.022379	-0.215787
N122	N	1.451118	0.522379	0.284213
C123	C	0.898917	0.062092	-0.259384
C124	C	1.398917	0.562092	0.240616
C125	C	0.903439	0.058660	-0.346572
C126	C	1.403439	0.558660	0.153428
C127	C	0.960160	0.015513	-0.390161
C128	C	1.460160	0.515513	0.109839
C129	C	1.012367	-0.024202	-0.346557
C130	C	1.512367	0.475798	0.153443
C131	C	1.007848	-0.020767	-0.259371
C132	C	1.507848	0.479233	0.240629
C133	C	0.976533	0.003073	-0.653407
C134	C	1.476533	0.503073	-0.153407
C135	C	0.981047	-0.000360	-0.740599
C136	C	1.481047	0.499640	-0.240599
C137	C	0.872120	0.082504	-0.740608
C138	C	1.372120	0.582504	-0.240608
C139	C	0.867603	0.085932	-0.653420
C140	C	1.367603	0.585932	-0.153420
C141	C	0.919812	0.046219	-0.609824
C142	C	1.419812	0.546219	-0.109824
C143	C	0.964782	0.012003	-0.479281
C144	C	1.464782	0.512003	0.020719
C145	C	0.915193	0.049732	-0.520706
C146	C	1.415193	0.549732	-0.020706
N147	N	0.928846	0.039353	0.215803
N148	N	1.428846	0.539353	0.715803
H149	H	0.716244	-0.049121	-0.000015
H150	H	1.216244	0.450879	0.499985
Br151	Br	0.385182	0.128204	0.000044
Br152	Br	0.885182	0.628204	0.500044
H153	H	0.869014	0.084864	-0.485213
H154	H	1.369014	0.584864	0.014787
H155	H	0.938434	-0.136869	0.136975
H156	H	1.438434	0.363131	0.636975
Br157	Br	0.954192	-0.409174	-0.253476
Br158	Br	1.454192	0.090826	0.246524
Br159	Br	0.832597	0.112559	-0.405743
Br160	Br	1.332597	0.612559	0.094257
H161	H	0.529613	0.146576	0.000049
H162	H	1.029613	0.646576	0.500049
H163	H	0.680281	0.140943	0.000038
H164	H	1.180281	0.640943	0.500038
H165	H	0.852726	0.097225	-0.223900
H166	H	1.352726	0.597225	0.276100
Br167	Br	0.934210	-0.259021	0.177988
Br168	Br	1.434210	0.240979	0.677988
H169	H	0.821416	0.121066	-0.617932
H170	H	1.321416	0.621066	-0.117932
H171	H	0.350338	-0.084840	-0.000021
H172	H	0.850338	0.415160	0.499979
H173	H	0.466841	-0.037182	0.000009
H174	H	0.966841	0.462818	0.500009
H175	H	1.027238	-0.035498	-0.776086
H176	H	1.527238	0.464502	-0.276086
Br177	Br	0.951839	-0.549057	-0.253474
Br178	Br	1.451839	-0.049057	0.246526
Br179	Br	1.047385	-0.050822	-0.594246
Br180	Br	1.547385	0.449178	-0.094246
H181	H	0.929211	-0.682904	0.137030
H182	H	1.429211	-0.182904	0.637030
Br183	Br	1.089352	-0.082757	-0.405710
Br184	Br	1.589352	0.417243	0.094290
Br185	Br	0.182514	-0.106798	-0.000024
Br186	Br	0.682514	0.393202	0.499976
Br187	Br	0.135781	0.140139	0.000030
Br188	Br	0.635781	0.640139	0.500030
Br189	Br	0.925006	-0.805079	0.178023
Br190	Br	1.425006	-0.305079	0.678023
H191	H	0.829614	0.114836	-0.776112
H192	H	1.329614	0.614836	-0.276112
H193	H	0.929918	-0.406908	0.212508
H194	H	1.429918	0.093092	0.712508
H195	H	0.928095	-0.514567	0.212517
H196	H	1.428095	-0.014567	0.712517
H197	H	1.050356	-0.053105	-0.223875
H198	H	1.550356	0.446895	0.276125
H199	H	0.950745	-0.255361	-0.136999
H200	H	1.450745	0.244639	0.363001
Br201	Br	0.943389	-0.819116	-0.177940
Br202	Br	1.443389	-0.319116	0.322060
Br203	Br	0.945723	-0.679231	-0.177954
Br204	Br	1.445723	-0.179231	0.322046
Br205	Br	0.954948	-0.133183	-0.177993
Br206	Br	1.454948	0.366817	0.322007
H207	H	1.010964	-0.023129	-0.514778
H208	H	1.510964	0.476871	-0.014778
H209	H	0.565588	-0.043483	-0.000003
H210	H	1.065588	0.456517	0.499997
H211	H	0.314364	0.105226	0.000047
H212	H	0.814364	0.605226	0.500047
