data_functionalizedCrystal
_audit_creation_method	'MofGen! by Chris Wilmer'
_symmetry_space_group_name_H-M	'P1'
_symmetry_Int_Tables_number	1
_symmetry_cell_setting	triclinic
loop_
_symmetry_equiv_pos_as_xyz
  x,y,z
_cell_length_a	13.339070
_cell_length_b	19.188930
_cell_length_c	11.804365
_cell_angle_alpha	101.784974
_cell_angle_beta	74.875130
_cell_angle_gamma	99.387037
loop_
_atom_site_label
_atom_site_type_symbol
_atom_site_fract_x
_atom_site_fract_y
_atom_site_fract_z
O1	O	1.361237	0.339586	-0.099122
O2	O	1.066910	0.293684	-0.099108
O3	O	1.222562	0.216645	-0.099092
O4	O	1.205585	0.416625	-0.099138
O5	O	1.181585	0.236898	0.098959
O6	O	1.025933	0.313937	0.098944
O7	O	1.320260	0.359839	0.098929
Cu8	Cu	1.169355	0.338737	0.117020
Cu9	Cu	1.217815	0.314786	-0.117199
O10	O	1.164608	0.436878	0.098914
C11	C	1.008766	0.296057	-0.000080
C12	C	0.896565	0.272945	-0.000074
C13	C	0.530990	0.452652	-0.000134
C14	C	0.636408	0.474369	-0.000143
C15	C	0.701453	0.424015	-0.000126
C16	C	0.661068	0.351940	-0.000099
C17	C	0.555641	0.330220	-0.000098
C18	C	0.726104	0.301582	-0.000090
C19	C	0.685720	0.229508	-0.000064
C20	C	0.580303	0.207791	-0.000062
C21	C	0.515258	0.258146	-0.000080
C22	C	0.831531	0.323302	-0.000091
C23	C	0.856183	0.200870	-0.000056
C24	C	0.750764	0.179154	-0.000046
C25	C	1.201523	0.200653	-0.000063
C26	C	1.199870	0.122826	-0.000053
C27	C	1.291203	0.095789	-0.000051
C28	C	1.289655	0.022659	-0.000070
C29	C	1.196765	-0.023428	-0.000067
C30	C	1.105421	0.003617	-0.000075
C31	C	1.106973	0.076744	-0.000068
N32	N	1.111815	-0.138445	0.067337
N33	N	1.110346	-0.207912	0.067333
C34	C	1.192082	-0.243757	-0.000091
N35	N	1.275355	-0.207508	-0.067495
N36	N	1.276826	-0.138034	-0.067486
C37	C	1.195071	-0.102723	-0.000075
C38	C	1.281744	-0.350090	-0.000112
C39	C	1.280194	-0.423222	-0.000138
C40	C	1.095954	-0.442262	-0.000131
C41	C	1.097509	-0.369132	-0.000116
C42	C	1.190405	-0.323050	-0.000101
C43	C	1.378404	0.357466	-0.000101
C44	C	1.490607	0.380578	-0.000115
C45	C	1.185648	0.452870	-0.000118
C46	C	1.187303	0.530696	-0.000136
N47	N	1.135278	0.355585	0.281757
N48	N	1.251900	0.297935	-0.281936
C49	C	1.333731	0.257465	0.655726
C50	C	1.359509	0.244717	0.531067
C51	C	1.303453	0.272433	0.468734
C52	C	1.221616	0.312899	0.531071
C53	C	1.195840	0.325653	0.655743
C54	C	1.165562	0.340620	0.468750
C55	C	1.083725	0.381087	0.531088
C56	C	1.057953	0.393838	0.655747
C57	C	1.114009	0.366123	0.718080
C58	C	1.191338	0.327866	0.344079
C59	C	1.053447	0.396054	0.344095
C60	C	1.027669	0.408802	0.468754
H61	H	0.909143	0.159867	-0.000046
H62	H	1.324446	0.262051	0.367230
H63	H	1.020322	-0.479786	-0.000134
N64	N	1.378709	-0.452388	-0.000142
H65	H	1.437789	-0.412096	-0.000127
H66	H	1.366878	-0.474817	0.073274
H67	H	1.029789	-0.033912	-0.000075
H68	H	1.366847	0.133305	-0.000043
N69	N	0.679969	0.552098	-0.000190
H70	H	0.622771	0.580702	-0.000203
H71	H	0.707985	0.571292	0.073223
H72	H	0.478024	0.493641	-0.000158
H73	H	1.357387	-0.312568	-0.000105
H74	H	1.023134	-0.347118	-0.000110
N75	N	1.279578	0.284205	0.276855
H76	H	1.287401	0.280325	0.188422
H77	H	1.346747	0.308402	0.298617
N78	N	1.447771	0.201076	0.463834
H79	H	1.479370	0.185452	0.522235
H80	H	1.419909	0.157435	0.412127
N81	N	0.939401	0.452446	0.535994
H82	H	0.931583	0.456316	0.624425
H83	H	0.955356	0.501971	0.514193
N84	N	1.394185	0.227584	0.722965
H85	H	1.345004	0.194494	0.774712
H86	H	1.449937	0.200047	0.664494
N87	N	1.008449	0.105904	-0.000051
H88	H	0.989798	0.143316	0.073375
H89	H	1.020239	0.128285	-0.073509
N90	N	0.401548	0.234723	-0.000041
H91	H	0.366473	0.277562	-0.000042
H92	H	0.396252	0.197933	-0.073447
N93	N	1.086203	0.379873	0.852538
H94	H	1.134130	0.356172	0.882561
H95	H	1.094474	0.433203	0.882456
N96	N	0.707212	0.101415	-0.000032
H97	H	0.715754	0.085941	0.073394
H98	H	0.630576	0.095352	-0.000079
N99	N	1.388168	-0.006515	-0.000072
H100	H	1.447253	0.033774	-0.000063
H101	H	1.376336	-0.028942	0.073348
N102	N	0.969684	0.437480	0.722984
H103	H	0.985575	0.487030	0.701273
H104	H	0.902514	0.413236	0.701275
H105	H	1.007803	0.418625	0.293344
H106	H	0.547428	0.149102	-0.000054
H107	H	0.787289	0.441701	-0.000136
N108	N	0.875075	0.401036	-0.000122
H109	H	0.836143	0.431526	0.073287
H110	H	0.951730	0.407096	-0.000168
