data_functionalizedCrystal
_audit_creation_method	'MofGen! by Chris Wilmer'
_symmetry_space_group_name_H-M	'P1'
_symmetry_Int_Tables_number	1
_symmetry_cell_setting	triclinic
loop_
_symmetry_equiv_pos_as_xyz
  x,y,z
_cell_length_a	9.065215
_cell_length_b	9.798715
_cell_length_c	10.723023
_cell_angle_alpha	89.997308
_cell_angle_beta	95.258877
_cell_angle_gamma	90.003171
loop_
_atom_site_label
_atom_site_type_symbol
_atom_site_fract_x
_atom_site_fract_y
_atom_site_fract_z
O1	O	1.959363	0.113473	-0.182966
O2	O	2.459363	0.613473	0.317034
O3	O	1.529992	0.113479	-0.197979
O4	O	2.029992	0.613479	0.302021
O5	O	1.754582	0.113469	-0.008937
O6	O	2.254582	0.613469	0.491063
O7	O	1.734773	0.113483	-0.372009
O8	O	2.234773	0.613483	0.127991
O9	O	1.754566	-0.113513	-0.008935
O10	O	2.254566	0.386487	0.491065
O11	O	1.529976	-0.113503	-0.197978
O12	O	2.029976	0.386497	0.302022
O13	O	1.959346	-0.113509	-0.182965
O14	O	2.459346	0.386491	0.317035
Zn15	Zn	1.744658	-0.149545	-0.190471
Zn16	Zn	2.244658	0.350455	0.309529
Zn17	Zn	1.744680	0.149514	-0.190473
Zn18	Zn	2.244680	0.649514	0.309527
O19	O	1.734756	-0.113499	-0.372008
O20	O	2.234756	0.386501	0.127992
C21	C	1.475005	-0.000011	-0.196537
C22	C	1.975005	0.499989	0.303463
C23	C	1.311187	-0.000009	-0.192225
C24	C	1.811187	0.499991	0.307775
N25	N	1.744654	-0.353644	-0.190469
N26	N	2.244654	0.146356	0.309531
C27	C	1.830687	-0.421420	-0.263179
C28	C	2.330687	0.078580	0.236821
C29	C	1.830710	-0.578583	-0.263178
C30	C	2.330710	-0.078583	0.236822
C31	C	2.014333	-0.000016	-0.184408
C32	C	2.514333	0.499984	0.315592
C33	C	2.178152	-0.000009	-0.188719
C34	C	2.678152	0.499991	0.311281
C35	C	1.753133	-0.000021	0.037569
C36	C	2.253133	0.499979	0.537569
C37	C	1.748820	-0.000017	0.176141
C38	C	2.248820	0.499983	0.676141
N39	N	1.744696	0.353614	-0.190465
N40	N	2.244696	0.853614	0.309535
C41	C	1.742450	0.117569	0.381128
C42	C	2.242450	0.617569	0.881128
C43	C	1.746907	0.117568	0.237907
C44	C	2.246907	0.617568	0.737907
C45	C	1.736206	-0.000010	0.581486
C46	C	2.236206	0.499990	1.081486
C47	C	1.740518	-0.000013	0.442914
C48	C	2.240518	0.499987	0.942914
H49	H	1.904331	-0.363094	-0.325425
H50	H	2.404331	0.136906	0.174575
Cl51	Cl	1.743071	-0.155444	0.360893
Cl52	Cl	2.243071	0.344556	0.860893
H53	H	1.748556	0.218234	0.184771
H54	H	2.248556	0.718234	0.684771
H55	H	1.747150	-0.100688	0.229267
H56	H	2.247150	0.399312	0.729267
H57	H	1.904358	-0.636869	-0.325434
H58	H	2.404358	-0.136869	0.174566
Cl59	Cl	1.630964	-0.443684	-0.094347
Cl60	Cl	2.130964	0.056316	0.405653
Cl61	Cl	1.739930	0.272999	0.463153
Cl62	Cl	2.239930	0.772999	0.963153
Cl63	Cl	1.630958	-0.556414	-0.094355
Cl64	Cl	2.130958	-0.056414	0.405645
