data_functionalizedCrystal
_audit_creation_method	'MofGen! by Chris Wilmer'
_symmetry_space_group_name_H-M	'P1'
_symmetry_Int_Tables_number	1
_symmetry_cell_setting	triclinic
loop_
_symmetry_equiv_pos_as_xyz
  x,y,z
_cell_length_a	19.077372
_cell_length_b	19.077391
_cell_length_c	19.076919
_cell_angle_alpha	90.062674
_cell_angle_beta	94.474666
_cell_angle_gamma	90.124953
loop_
_atom_site_label
_atom_site_type_symbol
_atom_site_fract_x
_atom_site_fract_y
_atom_site_fract_z
Zn1	Zn	-1.072145	0.250978	0.344976
Zn2	Zn	-1.081490	0.363375	0.222390
Zn3	Zn	-0.959001	0.250999	0.231820
Zn4	Zn	-0.959327	0.373154	0.344539
O5	O	-1.017991	0.309626	0.285931
O6	O	-1.171861	0.261786	0.324951
O7	O	-1.069016	0.344384	0.125165
O8	O	-0.969963	0.152835	0.250959
O9	O	-1.178727	0.344363	0.234888
O10	O	-1.053089	0.152820	0.334094
O11	O	-0.979024	0.261822	0.132093
O12	O	-0.860568	0.271305	0.250536
O13	O	-0.970518	0.361031	0.443073
O14	O	-0.860807	0.361052	0.333350
O15	O	-1.053405	0.271269	0.443394
O16	O	-1.069333	0.462833	0.234465
O17	O	-0.979580	0.470018	0.324207
C18	C	-0.835154	0.317243	0.292919
C19	C	-0.756935	0.320518	0.295924
C20	C	-0.316661	0.343961	0.317519
C21	C	-0.390156	0.340888	0.314682
C22	C	-0.426750	0.292556	0.270224
C23	C	-0.389846	0.247299	0.228596
C24	C	-0.316352	0.250376	0.231430
C25	C	-0.646537	0.278338	0.257130
C26	C	-0.720036	0.275263	0.254300
C27	C	-0.720341	0.368854	0.340387
C28	C	-0.646846	0.371924	0.343220
C29	C	-0.609948	0.326669	0.301588
N30	N	-0.501874	0.289412	0.267325
N31	N	-0.534826	0.329817	0.304485
C32	C	-1.025524	0.491877	0.278280
C33	C	-1.028810	0.569843	0.275027
C34	C	-0.201542	0.301977	0.278908
C35	C	-0.279761	0.298706	0.275895
C36	C	-0.983596	0.610238	0.320187
C37	C	-0.986687	0.683495	0.317129
C38	C	-1.034996	0.716356	0.268913
C39	C	-1.080213	0.675955	0.223748
C40	C	-1.077118	0.602700	0.226804
C41	C	-1.049263	0.935043	0.254763
C42	C	-1.052356	1.008304	0.251712
C43	C	-0.958828	1.015838	0.345093
C44	C	-0.955741	0.942581	0.348147
C45	C	-1.000955	0.902187	0.302980
N46	N	-1.038158	0.791236	0.265786
N47	N	-0.997789	0.827308	0.306103
C48	C	-1.010956	0.317238	0.469481
C49	C	-1.007958	0.320482	0.547699
C50	C	-1.010424	1.126664	0.293619
C51	C	-1.007141	1.048698	0.296872
C52	C	-1.025037	0.301992	0.103096
C53	C	-1.028164	0.298545	0.024882
C54	C	-1.049702	0.275274	0.584614
C55	C	-1.046876	0.278319	0.658108
C56	C	-1.002309	0.326577	0.694686
C57	C	-0.960561	0.371788	0.657766
C58	C	-0.963383	0.368738	0.584273
C59	C	-0.989237	0.340706	0.914469
C60	C	-0.986420	0.343753	0.987967
C61	C	-1.072734	0.250283	0.988304
C62	C	-1.075556	0.247241	0.914809
C63	C	-1.033804	0.292449	0.877896
N64	N	-0.999422	0.329693	0.769809
N65	N	-1.036689	0.289329	0.802774
H66	H	-0.286871	0.383315	0.353726
Cl67	Cl	-0.435850	0.186540	0.172703
Cl68	Cl	-0.929850	0.734274	0.373912
Cl69	Cl	-1.105735	0.214607	0.538637
H70	H	-0.286309	0.213523	0.197537
Cl71	Cl	-1.113093	1.049613	0.191093
Cl72	Cl	-0.895009	0.901275	0.408767
Cl73	Cl	-0.936750	0.397539	0.868073
H74	H	-0.922017	1.048734	0.381865
H75	H	-0.750392	0.405698	0.374280
Cl76	Cl	-0.930385	0.404421	1.033949
H77	H	-0.749828	0.235897	0.218103
Cl78	Cl	-1.106116	0.884271	0.197993
H79	H	-1.113936	0.569811	0.190029
H80	H	-0.616503	0.241492	0.223228
H81	H	-1.119545	0.702716	0.184486
Cl82	Cl	-0.922863	0.568935	0.380808
H83	H	-1.080870	0.241507	0.688161
Cl84	Cl	-1.131585	0.186572	0.868831
H85	H	-1.106725	0.213477	1.018367
Cl86	Cl	-0.904531	0.432453	0.703750
H87	H	-0.929383	0.405545	0.554218
H88	H	-0.617056	0.411282	0.379421
Cl89	Cl	-0.436542	0.397784	0.367011
