data_functionalizedCrystal
_audit_creation_method	'MofGen! by Chris Wilmer'
_symmetry_space_group_name_H-M	'P1'
_symmetry_Int_Tables_number	1
_symmetry_cell_setting	triclinic
loop_
_symmetry_equiv_pos_as_xyz
  x,y,z
_cell_length_a	10.654550
_cell_length_b	10.540539
_cell_length_c	9.730223
_cell_angle_alpha	90.000775
_cell_angle_beta	89.996251
_cell_angle_gamma	84.505197
loop_
_atom_site_label
_atom_site_type_symbol
_atom_site_fract_x
_atom_site_fract_y
_atom_site_fract_z
O1	O	1.667897	0.178295	-0.114396
O2	O	1.302424	0.195282	-0.114373
O3	O	1.493499	0.002079	-0.114383
O4	O	1.476822	0.371498	-0.114386
O5	O	1.493496	0.002084	0.114197
O6	O	1.302422	0.195287	0.114207
O7	O	1.667895	0.178300	0.114184
Zn8	Zn	1.485158	0.186794	0.150487
Zn9	Zn	1.485161	0.186788	-0.150677
O10	O	1.476820	0.371503	0.114194
C11	C	1.255625	0.194038	-0.000080
C12	C	1.116180	0.190306	-0.000072
C13	C	1.036734	0.304061	-0.000093
C14	C	0.905712	0.300547	-0.000116
C15	C	0.933595	0.069513	-0.000104
C16	C	1.064614	0.073028	-0.000071
C17	C	1.020636	0.437446	-0.000106
C18	C	0.889614	0.433932	-0.000129
C19	C	1.492247	-0.045221	-0.000096
C20	C	1.488505	-0.186168	-0.000103
C21	C	1.345134	-0.369543	-0.000607
C22	C	1.348927	-0.222926	-0.000093
C23	C	1.555675	-0.247847	0.130423
C24	C	1.550912	-0.394389	0.130533
C25	C	1.553753	-0.394914	-0.129405
C26	C	1.555039	-0.247933	-0.131131
C27	C	1.714694	0.179545	-0.000112
C28	C	1.854139	0.183276	-0.000129
C29	C	1.478072	0.418803	-0.000096
C30	C	1.481813	0.559750	-0.000098
N31	N	1.485165	0.186798	0.356024
N32	N	1.485164	0.186774	-0.356213
C33	C	1.569795	0.101277	0.427945
C34	C	1.569791	0.101261	0.571828
C35	C	1.400525	0.272299	0.571855
C36	C	1.400523	0.272308	0.427975
C37	C	1.667523	0.002533	0.427931
C38	C	1.667520	0.002518	0.571814
H39	H	0.847900	0.484188	-0.095797
C40	C	1.797897	0.031905	0.624577
H41	H	1.797891	0.031882	0.722215
H42	H	1.815808	0.113212	0.592054
H43	H	1.860422	-0.031269	0.592030
C44	C	1.270637	-0.408146	-0.127050
H45	H	1.188423	-0.364430	-0.125438
H46	H	1.264579	-0.497460	-0.125322
H47	H	1.312945	-0.386341	-0.208408
H48	H	1.129295	-0.019602	-0.000034
H49	H	1.296074	-0.180306	-0.093659
C50	C	1.638474	-0.129259	0.375157
H51	H	1.638478	-0.129246	0.277520
H52	H	1.558048	-0.147380	0.407703
H53	H	1.700987	-0.192453	0.407675
C54	C	1.270950	-0.410302	0.125146
H55	H	1.322913	-0.470220	0.177961
H56	H	1.198321	-0.448153	0.095142
H57	H	1.245870	-0.337673	0.179938
H58	H	1.049984	0.489615	0.095560
H59	H	1.636975	-0.089689	0.616432
H60	H	0.891593	-0.025971	-0.000125
H61	H	1.501268	-0.422569	0.228111
C62	C	1.068834	0.494830	-0.133411
H63	H	0.999632	0.517958	-0.192796
H64	H	1.126433	0.433644	-0.177694
H65	H	1.110155	0.568310	-0.111982
C66	C	1.277044	-0.166482	0.126535
H67	H	1.245418	-0.233174	0.177870
H68	H	1.208844	-0.108002	0.097440
H69	H	1.332540	-0.123464	0.182440
C70	C	1.307434	0.366360	0.651006
H71	H	1.319558	0.354112	0.746997
H72	H	1.223495	0.351788	0.627429
H73	H	1.321836	0.451219	0.627435
H74	H	0.843956	0.474245	0.098554
H75	H	1.331600	0.341935	0.369418
H76	H	1.658178	-0.225529	0.135270
C77	C	1.790719	0.044286	0.367626
H78	H	1.845584	0.062868	0.440334
H79	H	1.772233	0.118207	0.312679
H80	H	1.830355	-0.022476	0.312674
H81	H	1.654570	-0.442176	-0.130289
C82	C	1.686512	-0.459246	0.138551
H83	H	1.744263	-0.395999	0.141738
H84	H	1.703371	-0.511429	0.059844
H85	H	1.695560	-0.510304	0.219049
H86	H	1.509014	-0.205228	0.227563
H87	H	1.508579	-0.426453	-0.228336
C88	C	1.488760	-0.192600	-0.261586
H89	H	1.529440	-0.230335	-0.340499
H90	H	1.492944	-0.103009	-0.263984
H91	H	1.403006	-0.210333	-0.260766
C92	C	1.692515	-0.215273	-0.141790
H93	H	1.711221	-0.163317	-0.066127
H94	H	1.703554	-0.170691	-0.225101
H95	H	1.747592	-0.291675	-0.140684
