data_functionalizedCrystal
_audit_creation_method	'MofGen! by Chris Wilmer'
_symmetry_space_group_name_H-M	'P1'
_symmetry_Int_Tables_number	1
_symmetry_cell_setting	triclinic
loop_
_symmetry_equiv_pos_as_xyz
  x,y,z
_cell_length_a	12.759401
_cell_length_b	18.215405
_cell_length_c	12.759393
_cell_angle_alpha	90.036495
_cell_angle_beta	90.020938
_cell_angle_gamma	90.026410
loop_
_atom_site_label
_atom_site_type_symbol
_atom_site_fract_x
_atom_site_fract_y
_atom_site_fract_z
Zn1	Zn	1.606192	-0.292919	0.593976
Zn2	Zn	1.606052	-0.416003	0.418278
Zn3	Zn	1.430491	-0.292958	0.418311
Zn4	Zn	1.430451	-0.415951	0.593915
O5	O	1.518296	-0.354458	0.506120
O6	O	1.753194	-0.309251	0.570681
O7	O	1.582721	-0.399719	0.271261
O8	O	1.453873	-0.189968	0.441653
O9	O	1.753091	-0.399681	0.441596
O10	O	1.582960	-0.189940	0.570714
O11	O	1.453737	-0.309318	0.271286
O12	O	1.283465	-0.309268	0.441594
O13	O	1.453806	-0.399593	0.740944
O14	O	1.283436	-0.399631	0.570609
O15	O	1.582922	-0.309201	0.740989
O16	O	1.582683	-0.518980	0.441537
O17	O	1.453670	-0.518942	0.570577
C18	C	1.245329	-0.354449	0.506099
C19	C	1.128552	-0.354463	0.506115
C20	C	1.073703	-0.401586	0.573188
C21	C	0.963979	-0.401589	0.573209
C22	C	0.963964	-0.307343	0.439076
C23	C	1.073686	-0.307337	0.439061
C24	C	1.518186	-0.545664	0.506070
C25	C	1.518234	-0.627463	0.506083
C26	C	1.585569	-0.815652	0.439016
C27	C	1.585616	-0.892511	0.439041
C28	C	1.451158	-0.892511	0.573300
C29	C	1.451118	-0.815654	0.573279
C30	C	1.518321	-0.777226	0.506131
C31	C	1.518409	-0.930942	0.506178
C32	C	1.518460	-1.014276	0.506206
C33	C	1.518272	-0.693887	0.506104
C34	C	1.792330	-0.354467	0.506142
C35	C	1.909106	-0.354471	0.506151
C36	C	1.518375	-0.354387	0.780154
C37	C	1.518409	-0.354357	0.896930
C38	C	1.518437	-0.162505	0.506194
C39	C	1.518496	-0.080706	0.506225
C40	C	1.518279	-0.354475	0.233153
C41	C	1.518449	-0.354298	0.116377
C42	C	1.585644	-0.307283	0.951818
C43	C	1.585662	-0.307251	1.061542
C44	C	1.451206	-0.401374	1.061482
C45	C	1.451183	-0.401402	0.951760
H46	H	1.118372	-0.439957	0.627791
H47	H	1.396356	-0.784366	0.627938
H48	H	1.396425	-0.439735	0.907070
O49	O	0.910814	-0.447331	0.638507
C50	C	0.937673	-0.431325	0.743258
H51	H	1.017355	-0.403033	0.745497
H52	H	0.875960	-0.393523	0.778758
C53	C	0.844869	-0.537874	0.803954
C54	C	0.942741	-0.503131	0.806705
H55	H	0.847991	-0.582166	0.843093
H56	H	0.826770	-0.548656	0.733381
H57	H	0.793453	-0.506365	0.833535
H58	H	0.994153	-0.534636	0.777112
H59	H	0.960849	-0.492356	0.877274
O60	O	0.910501	-0.261638	0.373974
C61	C	0.801895	-0.271733	0.388387
H62	H	0.786894	-0.328559	0.422642
H63	H	0.770812	-0.228132	0.444459
C64	C	0.763937	-0.195102	0.240038
C65	C	0.745512	-0.264899	0.282103
H66	H	0.729155	-0.190883	0.174479
H67	H	0.837106	-0.188298	0.230330
H68	H	0.738034	-0.158776	0.286775
H69	H	0.771426	-0.301223	0.235373
H70	H	0.672345	-0.271709	0.291801
O71	O	1.126811	-0.261535	0.373802
C72	C	1.054859	-0.219934	0.314633
H73	H	0.976625	-0.250076	0.310921
H74	H	1.043240	-0.164074	0.353256
C75	C	1.193725	-0.172207	0.207400
C76	C	1.097640	-0.209232	0.202833
H77	H	1.220116	-0.165603	0.138438
H78	H	1.242202	-0.200233	0.247265
H79	H	1.184030	-0.125662	0.239590
H80	H	1.107339	-0.255780	0.170655
H81	H	1.049166	-0.181215	0.162960
H82	H	1.640292	-0.784366	0.384341
H83	H	1.640377	-0.923793	0.384391
H84	H	1.640381	-0.268974	0.907179
O85	O	1.385907	-0.929955	0.638418
C86	C	1.400377	-1.006032	0.624063
H87	H	1.434839	-1.016555	0.543019
H88	H	1.456299	-1.027776	0.686440
C89	C	1.251761	-1.032621	0.733138
C90	C	1.294080	-1.045546	0.633594
H91	H	1.186194	-1.056996	0.739021
H92	H	1.242014	-0.981367	0.742813
H93	H	1.298373	-1.050741	0.785107
H94	H	1.247475	-1.027418	0.581627
H95	H	1.303817	-1.096798	0.623910
O96	O	1.386011	-0.447051	1.114908
C97	C	1.400429	-0.436922	1.223522
H98	H	1.481530	-0.412821	1.238531
H99	H	1.338148	-0.397720	1.254666
C100	C	1.291144	-0.540971	1.261388
C101	C	1.390758	-0.511375	1.279823
H102	H	1.285174	-0.586896	1.296119
H103	H	1.281426	-0.547794	1.188213
H104	H	1.239254	-0.508295	1.287341
H105	H	1.442645	-0.544046	1.253858
H106	H	1.400484	-0.504559	1.352995
H107	H	1.640410	-0.268917	1.106226
