data_functionalizedCrystal
_audit_creation_method	'MofGen! by Chris Wilmer'
_symmetry_space_group_name_H-M	'P1'
_symmetry_Int_Tables_number	1
_symmetry_cell_setting	triclinic
loop_
_symmetry_equiv_pos_as_xyz
  x,y,z
_cell_length_a	19.077105
_cell_length_b	25.639239
_cell_length_c	19.076919
_cell_angle_alpha	92.268407
_cell_angle_beta	90.076224
_cell_angle_gamma	87.734929
loop_
_atom_site_label
_atom_site_type_symbol
_atom_site_fract_x
_atom_site_fract_y
_atom_site_fract_z
Zn1	Zn	1.058187	-0.252939	-0.440398
Zn2	Zn	1.062799	-0.337004	-0.322884
Zn3	Zn	0.945407	-0.245935	-0.318192
Zn4	Zn	0.940620	-0.336689	-0.435637
O5	O	1.001753	-0.293142	-0.379278
O6	O	1.157129	-0.267153	-0.428766
O7	O	1.051160	-0.322124	-0.223931
O8	O	0.960440	-0.173702	-0.334431
O9	O	1.160518	-0.328916	-0.342429
O10	O	1.043299	-0.178848	-0.424215
O11	O	0.964912	-0.255216	-0.220483
O12	O	0.846441	-0.254910	-0.329815
O13	O	0.952283	-0.328378	-0.534600
O14	O	0.842925	-0.321587	-0.416101
O15	O	1.038658	-0.266848	-0.538097
O16	O	1.046519	-0.410124	-0.337813
O17	O	0.956755	-0.409893	-0.420652
C18	C	0.819187	-0.287455	-0.371933
C19	C	0.741083	-0.285035	-0.368807
C20	C	0.702581	-0.318661	-0.412193
C21	C	0.629194	-0.316381	-0.409259
C22	C	0.594312	-0.280476	-0.362936
C23	C	0.632820	-0.246846	-0.319549
C24	C	0.706205	-0.249125	-0.322486
C25	C	0.375028	-0.269932	-0.349344
C26	C	0.301638	-0.267658	-0.346409
C27	C	0.298017	-0.337192	-0.436121
C28	C	0.371404	-0.339469	-0.439051
C29	C	0.409905	-0.305837	-0.395666
N30	N	0.519299	-0.278146	-0.359935
N31	N	0.484917	-0.308166	-0.398671
C32	C	1.001636	-0.428980	-0.379241
C33	C	1.001650	-0.487094	-0.379251
C34	C	1.048607	-0.847575	-0.336225
C35	C	1.048634	-0.902180	-0.336235
O36	O	1.088438	-0.930513	-0.299613
N37	N	1.001875	-0.929386	-0.379329
C38	C	0.955090	-0.901983	-0.422421
O39	O	0.915321	-0.930137	-0.459077
C40	C	0.955067	-0.847379	-0.422413
C41	C	1.001825	-0.820176	-0.379311
C42	C	1.095362	-0.820372	-0.293127
C43	C	1.095334	-0.765771	-0.293116
C44	C	1.048551	-0.738372	-0.336202
C45	C	1.001797	-0.765574	-0.379300
C46	C	0.908287	-0.819977	-0.465508
C47	C	0.908268	-0.765369	-0.465497
C48	C	0.955026	-0.738167	-0.422395
C49	C	0.954987	-0.683574	-0.422375
N50	N	1.001746	-0.656368	-0.379282
C51	C	1.048528	-0.683767	-0.336195
C52	C	0.955143	-1.016656	-0.422434
C53	C	0.955162	-1.071259	-0.422438
C54	C	1.048707	-1.071452	-0.336253
C55	C	1.048684	-1.016848	-0.336246
C56	C	1.001902	-0.989450	-0.379340
C57	C	1.048466	-0.569100	-0.336174
C58	C	1.048432	-0.514493	-0.336164
C59	C	0.954890	-0.514304	-0.422351
C60	C	0.954921	-0.568906	-0.422359
C61	C	1.001715	-0.596303	-0.379268
O62	O	0.915205	-0.655207	-0.458982
O63	O	1.088298	-0.655607	-0.299552
C64	C	1.185032	-0.298851	-0.386652
C65	C	1.263135	-0.301284	-0.389794
C66	C	0.994422	-0.298359	-0.562557
C67	C	0.991298	-0.300582	-0.640660
C68	C	1.001889	-0.156774	-0.379331
C69	C	1.001947	-0.098662	-0.379354
C70	C	1.034799	-0.269593	-0.679175
C71	C	1.031855	-0.271680	-0.752561
C72	C	0.985413	-0.304759	-0.787430
C73	C	0.941907	-0.335750	-0.748910
C74	C	0.944848	-0.333660	-0.675526
C75	C	0.971792	-0.314442	-1.006711
C76	C	0.968856	-0.316531	-1.080100
C77	C	1.058803	-0.252460	-1.083746
C78	C	1.061742	-0.250375	-1.010361
C79	C	1.018234	-0.281364	-0.971846
N80	N	0.982404	-0.306894	-0.862442
N81	N	1.021240	-0.279226	-0.896836
C82	C	1.009096	-0.287908	-0.196713
C83	C	1.012356	-0.285541	-0.118616
H84	H	0.730976	-0.347900	-0.449912
N85	N	0.924877	-0.347862	-0.965160
H86	H	0.893560	-0.324726	-0.933413
H87	H	0.895051	-0.369135	-0.998420
N88	N	1.105724	-0.219032	-1.125281
H89	H	1.137048	-0.242158	-1.157033
H90	H	1.075924	-0.194784	-1.154543
H91	H	0.917081	-1.093402	-0.457529
H92	H	1.086802	-1.093771	-0.301172
H93	H	0.399800	-0.368707	-0.476771
N94	N	0.256485	-0.373458	-0.482914
H95	H	0.267266	-0.367222	-0.533652
H96	H	0.269681	-0.410869	-0.472361
N97	N	0.747729	-0.212855	-0.275687
H98	H	0.779459	-0.234080	-0.244289
H99	H	0.777014	-0.190426	-0.305570
N100	N	1.145775	-0.736435	-0.246638
H101	H	1.175416	-0.762085	-0.219352
H102	H	1.177114	-0.715577	-0.276578
H103	H	1.099562	-0.223440	-0.981975
H104	H	0.273239	-0.238414	-0.308691
N105	N	1.145822	-0.849913	-0.246643
H106	H	1.118605	-0.870781	-0.212909
H107	H	1.177226	-0.874335	-0.276576
H108	H	0.870208	-0.842116	-0.500603
N109	N	0.891808	-0.371417	-0.786526
H110	H	0.919114	-0.397403	-0.818118
H111	H	0.864699	-0.390696	-0.750953
H112	H	0.406367	-0.242551	-0.314012
N113	N	0.904677	-0.987106	-0.468910
H114	H	0.875061	-1.012630	-0.496207
H115	H	0.873316	-0.962658	-0.438970
N116	N	1.098931	-0.598638	-0.289688
H117	H	1.071715	-0.619508	-0.255956
H118	H	1.130337	-0.623057	-0.319622
H119	H	0.909418	-0.358890	-0.644167
N120	N	0.918762	-0.352203	-1.117726
H121	H	0.930138	-0.389538	-1.105388
H122	H	0.869094	-0.342107	-1.102931
N123	N	0.587666	-0.352656	-0.456043
H124	H	0.620899	-0.375752	-0.485828
H125	H	0.558343	-0.375052	-0.426150
H126	H	0.604413	-0.217610	-0.281834
N127	N	0.857812	-0.735819	-0.511980
H128	H	0.828198	-0.761341	-0.539283
H129	H	0.826447	-0.711372	-0.482042
N130	N	0.904484	-0.598250	-0.468837
H131	H	0.874842	-0.572604	-0.496128
H132	H	0.931772	-0.622686	-0.502536
H133	H	1.086507	-0.492346	-0.301063
N134	N	0.904434	-0.484742	-0.468816
H135	H	0.931656	-0.463871	-0.502541
H136	H	0.874824	-0.510287	-0.496079
N137	N	1.099117	-0.987510	-0.289761
H138	H	1.128753	-1.013158	-0.262468
H139	H	1.130460	-0.966651	-0.319694
N140	N	1.084895	-0.233917	-0.641569
H141	H	1.112004	-0.214602	-0.677107
H142	H	1.057538	-0.207964	-0.609977
H143	H	1.067280	-0.246446	-0.783917
