data_functionalizedCrystal
_audit_creation_method	'MofGen! by Chris Wilmer'
_symmetry_space_group_name_H-M	'P1'
_symmetry_Int_Tables_number	1
_symmetry_cell_setting	triclinic
loop_
_symmetry_equiv_pos_as_xyz
  x,y,z
_cell_length_a	12.759395
_cell_length_b	12.759387
_cell_length_c	12.759394
_cell_angle_alpha	89.967183
_cell_angle_beta	90.016374
_cell_angle_gamma	89.981185
loop_
_atom_site_label
_atom_site_type_symbol
_atom_site_fract_x
_atom_site_fract_y
_atom_site_fract_z
Zn1	Zn	1.606250	-0.593999	-0.418156
Zn2	Zn	1.606146	-0.418317	-0.593877
Zn3	Zn	1.430554	-0.418336	-0.418217
Zn4	Zn	1.430540	-0.593956	-0.593798
O5	O	1.518372	-0.506152	-0.506012
O6	O	1.753257	-0.570704	-0.441473
O7	O	1.582815	-0.271298	-0.570633
O8	O	1.453909	-0.441664	-0.271188
O9	O	1.753180	-0.441631	-0.570574
O10	O	1.582993	-0.570723	-0.271143
O11	O	1.453808	-0.271312	-0.441577
O12	O	1.283531	-0.441622	-0.441501
O13	O	1.453887	-0.740983	-0.570441
O14	O	1.283521	-0.570649	-0.570500
O15	O	1.582980	-0.741014	-0.441397
O16	O	1.582802	-0.441590	-0.740887
O17	O	1.453785	-0.570631	-0.740830
C18	C	1.245405	-0.506134	-0.505999
C19	C	1.128628	-0.506151	-0.506019
C20	C	1.128657	-0.640290	-0.640563
C21	C	1.073810	-0.707362	-0.707843
C22	C	0.964088	-0.707375	-0.707856
C23	C	0.909211	-0.640310	-0.640579
C24	C	0.964057	-0.573238	-0.573299
C25	C	1.073782	-0.573230	-0.573296
C26	C	0.964029	-0.439106	-0.438751
C27	C	1.073751	-0.439086	-0.438742
C28	C	0.909151	-0.372042	-0.371474
C29	C	0.963998	-0.304962	-0.304198
C30	C	1.073726	-0.304951	-0.304189
C31	C	1.128597	-0.372014	-0.371462
C32	C	1.518444	-0.780185	-0.505903
C33	C	1.518474	-0.896962	-0.505857
C34	C	1.384148	-0.896996	-0.371462
C35	C	1.317004	-0.951873	-0.304243
C36	C	1.317036	-1.061595	-0.304205
C37	C	1.384216	-1.116441	-0.371395
C38	C	1.451360	-1.061564	-0.438614
C39	C	1.451323	-0.951840	-0.438642
C40	C	1.585679	-1.061530	-0.573013
C41	C	1.585654	-0.951809	-0.573047
C42	C	1.652859	-1.116377	-0.640203
C43	C	1.720010	-1.061500	-0.707418
C44	C	1.719976	-0.951771	-0.707453
C45	C	1.652798	-0.896931	-0.640266
C46	C	1.792406	-0.506170	-0.506026
C47	C	1.909182	-0.506178	-0.506031
C48	C	1.518309	-0.506126	-0.778979
C49	C	1.518378	-0.506151	-0.895756
C50	C	1.518362	-0.233184	-0.506044
C51	C	1.518535	-0.116408	-0.505794
C52	C	1.652824	-0.371881	-0.895763
C53	C	1.720074	-0.304758	-0.950627
C54	C	1.720136	-0.304786	-1.060348
C55	C	1.652942	-0.371947	-1.115208
C56	C	1.585692	-0.439070	-1.060344
C57	C	1.585636	-0.439032	-0.950620
C58	C	1.451253	-0.573343	-1.060338
C59	C	1.451185	-0.573311	-0.950616
C60	C	1.384060	-0.640504	-1.115198
C61	C	1.316803	-0.707623	-1.060334
C62	C	1.316743	-0.707591	-0.950606
C63	C	1.383935	-0.640434	-0.895752
C64	C	1.518464	-0.506200	-0.231979
C65	C	1.518503	-0.506221	-0.115202
H66	H	1.217938	-0.372008	-0.371464
Cl67	Cl	1.232200	-0.791985	-0.881643
H68	H	1.774698	-1.106164	-0.762123
H69	H	1.217998	-0.640278	-0.640567
Cl70	Cl	1.652754	-0.758994	-0.640300
H71	H	1.774656	-0.907096	-0.762187
H72	H	1.384226	-1.205783	-0.371368
H73	H	1.118503	-0.761966	-0.762617
H74	H	0.919433	-0.761996	-0.762636
Cl75	Cl	0.771274	-0.640344	-0.640582
H76	H	1.262360	-1.106276	-0.249471
H77	H	1.774902	-0.250135	-1.105018
H78	H	1.652875	-1.205718	-0.640173
H79	H	0.819810	-0.372061	-0.371485
Cl80	Cl	1.384171	-0.640694	-0.757816
H81	H	1.652767	-0.371837	-0.806422
Cl82	Cl	1.652578	-0.371536	-1.253144
Cl83	Cl	0.895005	-0.220670	-0.219623
Cl84	Cl	1.142667	-0.220632	-0.219597
H85	H	1.384124	-0.807654	-0.371477
H86	H	1.262305	-0.907205	-0.249541
H87	H	1.384119	-0.640527	-1.204539
H88	H	1.262104	-0.762305	-1.105009
Cl89	Cl	1.804547	-0.220337	-0.881655
