data_functionalizedCrystal
_audit_creation_method	'MofGen! by Chris Wilmer'
_symmetry_space_group_name_H-M	'P1'
_symmetry_Int_Tables_number	1
_symmetry_cell_setting	triclinic
loop_
_symmetry_equiv_pos_as_xyz
  x,y,z
_cell_length_a	19.288867
_cell_length_b	14.971486
_cell_length_c	18.366186
_cell_angle_alpha	90.001758
_cell_angle_beta	90.004879
_cell_angle_gamma	83.375599
loop_
_atom_site_label
_atom_site_type_symbol
_atom_site_fract_x
_atom_site_fract_y
_atom_site_fract_z
O1	O	0.921713	0.111584	0.060524
O2	O	1.421713	0.611584	0.560524
O3	O	0.719502	0.126634	0.060532
O4	O	1.219502	0.626634	0.560532
O5	O	0.826028	-0.011121	0.060523
O6	O	1.326028	0.488879	0.560523
O7	O	0.815188	0.249338	0.060533
O8	O	1.315188	0.749338	0.560533
O9	O	0.826014	-0.011116	-0.060577
O10	O	1.326014	0.488884	0.439423
O11	O	0.719488	0.126639	-0.060568
O12	O	1.219488	0.626639	0.439432
O13	O	0.921700	0.111588	-0.060575
O14	O	1.421700	0.611588	0.439425
Zn15	Zn	0.820592	0.119114	-0.079798
Zn16	Zn	1.320592	0.619114	0.420202
Zn17	Zn	0.820610	0.119108	0.079755
Zn18	Zn	1.320610	0.619108	0.579755
O19	O	0.815174	0.249343	-0.060566
O20	O	1.315174	0.749343	0.439434
C21	C	0.693617	0.126152	-0.000017
C22	C	1.193617	0.626152	0.499983
C23	C	0.616509	0.124697	-0.000015
C24	C	1.116509	0.624697	0.499985
C25	C	0.060917	0.114217	0.065988
C26	C	0.560917	0.614217	0.565988
C27	C	0.133369	0.115578	0.065991
C28	C	0.633369	0.615578	0.565991
C29	C	0.169592	0.116266	-0.000021
C30	C	0.669592	0.616266	0.499979
C31	C	0.133360	0.115569	-0.066039
C32	C	0.633360	0.615569	0.433961
C33	C	0.060910	0.114198	-0.066040
C34	C	0.560910	0.614198	0.433960
C35	C	0.279092	0.170826	-0.050591
C36	C	0.779092	0.670826	0.449409
C37	C	0.351539	0.172202	-0.050588
C38	C	0.851539	0.672202	0.449412
C39	C	0.393052	0.120488	-0.000021
C40	C	0.893052	0.620488	0.499979
C41	C	0.362106	0.067410	0.050555
C42	C	0.862106	0.567410	0.550555
C43	C	0.289656	0.066040	0.050554
C44	C	0.789656	0.566040	0.550554
C45	C	0.248152	0.117751	-0.000027
C46	C	0.748152	0.617751	0.499973
C47	C	0.507837	0.122655	0.065997
C48	C	1.007837	0.622655	0.565997
C49	C	0.580290	0.124011	0.065997
C50	C	1.080290	0.624011	0.565997
C51	C	0.580279	0.124011	-0.066035
C52	C	1.080279	0.624011	0.433965
C53	C	0.507828	0.122646	-0.066033
C54	C	1.007828	0.622646	0.433967
C55	C	0.471610	0.121972	-0.000015
C56	C	0.971610	0.621972	0.499985
C57	C	0.825536	-0.044440	-0.000027
C58	C	1.325536	0.455560	0.499973
C59	C	0.824083	-0.143730	-0.000026
C60	C	1.324083	0.356270	0.499974
C61	C	0.947585	0.112071	-0.000024
C62	C	1.447585	0.612071	0.499976
C63	C	1.024693	0.113525	-0.000022
C64	C	1.524693	0.613525	0.499978
C65	C	0.886664	-0.201293	-0.000029
C66	C	1.386664	0.298707	0.499971
C67	C	0.885295	-0.294585	-0.000021
C68	C	1.385295	0.205415	0.499979
C69	C	0.821344	-0.330312	-0.000017
C70	C	1.321344	0.169688	0.499983
C71	C	0.758759	-0.272741	-0.000012
C72	C	1.258759	0.227259	0.499988
C73	C	0.760128	-0.179451	-0.000014
C74	C	1.260128	0.320549	0.499986
C75	C	0.755908	-0.467189	-0.000009
C76	C	1.255908	0.032811	0.499991
C77	C	0.754538	-0.560485	-0.000008
C78	C	1.254538	-0.060485	0.499992
C79	C	0.881074	-0.582322	-0.000017
C80	C	1.381074	-0.082322	0.499983
C81	C	0.882444	-0.489032	-0.000019
C82	C	1.382444	0.010968	0.499981
C83	C	0.819858	-0.431468	-0.000015
C84	C	1.319858	0.068532	0.499985
C85	C	0.815666	0.282662	-0.000015
C86	C	1.315666	0.782662	0.499985
C87	C	0.817119	0.381952	-0.000011
C88	C	1.317119	0.881952	0.499989
N89	N	0.820584	0.119118	-0.188690
N90	N	1.320584	0.619118	0.311310
C91	C	0.862792	0.173200	-0.773238
C92	C	1.362792	0.673200	-0.273238
C93	C	0.862785	0.173209	-0.697011
C94	C	1.362785	0.673209	-0.197011
C95	C	0.820616	0.119098	-0.658901
C96	C	1.320616	0.619098	-0.158901
C97	C	0.778439	0.064991	-0.697025
C98	C	1.278439	0.564991	-0.197025
C99	C	0.778442	0.064991	-0.773252
C100	C	1.278442	0.564991	-0.273252
C101	C	0.818627	0.038454	-0.538138
C102	C	1.318627	0.538454	-0.038138
C103	C	0.818628	0.038453	-0.461913
C104	C	1.318628	0.538453	0.038087
C105	C	0.820603	0.119100	-0.423793
C106	C	1.320603	0.619100	0.076207
C107	C	0.822590	0.199751	-0.461908
C108	C	1.322590	0.699751	0.038092
C109	C	0.822593	0.199750	-0.538135
C110	C	1.322593	0.699750	-0.038135
C111	C	0.820608	0.119093	-0.576246
C112	C	1.320608	0.619093	-0.076246
C113	C	0.862766	0.173218	-0.303023
C114	C	1.362766	0.673218	0.196977
C115	C	0.862754	0.173229	-0.226794
C116	C	1.362754	0.673229	0.273206
C117	C	0.778412	0.065002	-0.226810
C118	C	1.278412	0.565002	0.273190
C119	C	0.778420	0.065000	-0.303038
C120	C	1.278420	0.565000	0.196962
C121	C	0.820601	0.119106	-0.341140
C122	C	1.320601	0.619106	0.158860
N123	N	0.820623	0.119097	0.188646
N124	N	1.320623	0.619097	0.688646
H125	H	0.478347	0.122104	0.119753
H126	H	0.978347	0.622104	0.619753
F127	F	0.384467	0.228699	-0.104409
F128	F	0.884467	0.728699	0.395591
F129	F	0.816526	-0.047388	-0.578700
F130	F	1.316526	0.452612	-0.078700
F131	F	0.406280	0.012372	0.104379
F132	F	0.906280	0.512372	0.604379
H133	H	0.744104	0.020936	-0.665992
H134	H	1.244104	0.520936	-0.165992
H135	H	0.938740	-0.172212	-0.000037
H136	H	1.438740	0.327788	0.499963
H137	H	0.162858	0.116127	-0.119786
H138	H	0.662858	0.616127	0.380214
H139	H	0.824209	0.265419	-0.569165
H140	H	1.324209	0.765419	-0.069165
F141	F	0.733558	0.007404	-0.813818
F142	F	1.233558	0.507404	-0.313818
H143	H	0.744085	0.020939	-0.334072
H144	H	1.244085	0.520939	0.165928
F145	F	0.951902	-0.355844	-0.000026
F146	F	1.451902	0.144156	0.499974
H147	H	0.031434	0.113665	0.119745
H148	H	0.531434	0.613665	0.619745
H149	H	0.706689	-0.301838	-0.000003
H150	H	1.206689	0.198162	0.499997
F151	F	0.171929	0.116316	0.136250
F152	F	0.671929	0.616316	0.636250
F153	F	0.256724	0.009550	0.104377
F154	F	0.756724	0.509550	0.604377
F155	F	0.693521	-0.118188	-0.000009
F156	F	1.193521	0.381812	0.499991
H157	H	0.031417	0.113638	-0.119795
H158	H	0.531417	0.613638	0.380205
H159	H	0.817015	-0.027218	-0.430886
H160	H	1.317015	0.472782	0.069114
H161	H	0.744074	0.020949	-0.195782
H162	H	1.244074	0.520949	0.304218
F163	F	0.947683	-0.643587	-0.000017
F164	F	1.447683	-0.143587	0.499983
F165	F	0.618844	0.124739	0.136258
F166	F	1.118844	0.624739	0.636258
F167	F	0.618827	0.124730	-0.136289
F168	F	1.118827	0.624730	0.363711
H169	H	0.704944	-0.420322	-0.000004
H170	H	1.204944	0.079678	0.499996
H171	H	0.824197	0.265422	-0.430873
H172	H	1.324197	0.765422	0.069127
F173	F	0.469272	0.121921	-0.136291
F174	F	0.969272	0.621921	0.363709
F175	F	0.234919	0.225862	-0.104422
F176	F	0.734919	0.725862	0.395578
H177	H	0.934518	-0.459946	-0.000028
H178	H	1.434518	0.040054	0.499972
F179	F	0.686474	-0.598507	-0.000004
F180	F	1.186474	-0.098507	0.499996
F181	F	0.907680	0.230791	-0.813785
F182	F	1.407680	0.730791	-0.313785
H183	H	0.897123	0.217271	-0.665971
H184	H	1.397123	0.717271	-0.165971
H185	H	0.897109	0.217279	-0.334047
H186	H	1.397109	0.717279	0.165953
F187	F	0.907625	0.230833	-0.186229
F188	F	1.407625	0.730833	0.313771
