data_functionalizedCrystal
_audit_creation_method	'MofGen! by Chris Wilmer'
_symmetry_space_group_name_H-M	'P1'
_symmetry_Int_Tables_number	1
_symmetry_cell_setting	triclinic
loop_
_symmetry_equiv_pos_as_xyz
  x,y,z
_cell_length_a	25.639243
_cell_length_b	25.639240
_cell_length_c	12.759393
_cell_angle_alpha	89.967915
_cell_angle_beta	89.975794
_cell_angle_gamma	90.034783
loop_
_atom_site_label
_atom_site_type_symbol
_atom_site_fract_x
_atom_site_fract_y
_atom_site_fract_z
Zn1	Zn	0.799292	-0.208082	-0.594139
Zn2	Zn	0.799213	-0.295528	-0.418458
Zn3	Zn	0.711855	-0.208113	-0.418461
Zn4	Zn	0.711823	-0.295492	-0.594082
O5	O	0.755546	-0.251804	-0.506285
O6	O	0.872446	-0.219684	-0.570857
O7	O	0.787605	-0.283961	-0.271437
O8	O	0.723501	-0.134944	-0.441790
O9	O	0.872388	-0.283931	-0.441785
O10	O	0.787740	-0.134921	-0.570860
O11	O	0.723424	-0.219737	-0.271439
O12	O	0.638686	-0.219702	-0.441735
O13	O	0.723446	-0.283868	-0.741110
O14	O	0.638662	-0.283899	-0.570762
O15	O	0.787708	-0.219648	-0.741153
O16	O	0.787574	-0.368689	-0.441729
O17	O	0.723369	-0.368662	-0.570759
C18	C	0.619703	-0.251800	-0.506243
C19	C	0.561589	-0.251811	-0.506250
C20	C	0.755474	-0.387646	-0.506261
C21	C	0.755491	-0.445760	-0.506285
C22	C	0.201251	-0.218403	-0.573605
C23	C	0.146646	-0.218403	-0.573611
O24	O	0.118431	-0.189988	-0.630827
N25	N	0.119307	-0.251802	-0.506314
C26	C	0.146574	-0.285201	-0.438998
O27	O	0.118306	-0.313609	-0.381756
C28	C	0.201177	-0.285198	-0.438987
C29	C	0.228514	-0.251800	-0.506296
C30	C	0.228588	-0.185007	-0.640908
C31	C	0.283188	-0.185008	-0.640903
C32	C	0.310452	-0.218406	-0.573594
C33	C	0.283115	-0.251801	-0.506291
C34	C	0.228444	-0.318594	-0.371666
C35	C	0.283051	-0.318588	-0.371660
C36	C	0.310388	-0.285190	-0.438970
C37	C	0.364979	-0.285200	-0.438977
N38	N	0.392319	-0.251800	-0.506274
C39	C	0.365055	-0.218403	-0.573583
C40	C	0.031904	-0.285203	-0.439025
C41	C	-0.022699	-0.285209	-0.439040
C42	C	-0.022623	-0.218410	-0.573653
C43	C	0.031981	-0.218407	-0.573642
C44	C	0.059243	-0.251803	-0.506322
C45	C	0.479720	-0.218408	-0.573567
C46	C	0.534326	-0.218414	-0.573559
C47	C	0.534245	-0.285211	-0.438943
C48	C	0.479644	-0.285208	-0.438955
C49	C	0.452383	-0.251802	-0.506270
O50	O	0.393230	-0.313598	-0.381788
O51	O	0.393330	-0.189994	-0.630806
C52	C	0.788992	-0.696891	-0.573560
C53	C	0.788976	-0.642286	-0.573552
O54	O	0.817401	-0.613996	-0.630717
N55	N	0.755548	-0.615034	-0.506299
C56	C	0.722136	-0.642389	-0.439041
O57	O	0.693702	-0.614195	-0.381835
C58	C	0.722155	-0.696993	-0.439044
C59	C	0.755582	-0.724242	-0.506310
C60	C	0.822417	-0.724140	-0.640820
C61	C	0.822432	-0.778740	-0.640829
C62	C	0.789022	-0.806092	-0.573578
C63	C	0.755597	-0.778842	-0.506319
C64	C	0.688747	-0.724347	-0.371782
C65	C	0.688769	-0.778954	-0.371791
C66	C	0.722196	-0.806203	-0.439056
C67	C	0.722202	-0.860794	-0.439078
N68	N	0.755631	-0.888046	-0.506332
C69	C	0.789041	-0.860695	-0.573582
C70	C	0.722100	-0.527719	-0.439038
C71	C	0.722078	-0.473116	-0.439039
C72	C	0.788919	-0.473017	-0.573549
C73	C	0.788938	-0.527620	-0.573552
C74	C	0.755529	-0.554971	-0.506291
C75	C	0.789069	-0.975360	-0.573597
C76	C	0.789079	-1.029965	-0.573603
C77	C	0.722241	-1.030060	-0.439089
C78	C	0.722228	-0.975459	-0.439086
C79	C	0.755647	-0.948111	-0.506343
O80	O	0.693794	-0.889119	-0.381940
O81	O	0.817475	-0.888895	-0.630769
C82	C	0.891919	-0.251808	-0.506327
C83	C	0.950033	-0.251809	-0.506345
C84	C	0.755582	-0.251751	-0.780318
C85	C	0.755598	-0.251728	-0.897095
C86	C	0.755633	-0.115431	-0.506332
C87	C	0.755670	-0.057317	-0.506352
C88	C	0.722191	-0.218281	-0.951958
C89	C	0.722203	-0.218265	-1.061682
C90	C	0.789034	-0.285145	-1.061671
C91	C	0.789019	-0.285163	-0.951949
C92	C	0.755540	-0.251819	-0.233318
C93	C	0.755625	-0.251694	-0.116541
H94	H	0.556581	-0.191217	-0.628374
H95	H	0.816155	-0.549803	-0.628331
H96	H	0.816124	-0.450738	-0.628306
H97	H	0.694999	-0.191029	-1.106346
H98	H	0.695038	-1.052339	-0.384338
C99	C	0.656022	-0.522324	-0.306092
C100	C	0.685366	-0.557780	-0.365112
H101	H	0.633342	-0.540881	-0.260460
H102	H	0.678806	-0.501020	-0.265948
H103	H	0.636009	-0.501030	-0.351845
H104	H	0.705381	-0.579072	-0.319359
H105	H	0.662578	-0.579093	-0.405259
C106	C	0.656127	-0.152178	-0.962994
C107	C	0.685449	-0.181536	-0.891662
H108	H	0.633440	-0.129497	-0.925769
H109	H	0.678924	-0.132172	-1.005800
H110	H	0.636123	-0.174958	-1.005777
H111	H	0.705456	-0.158757	-0.848883
H112	H	0.662648	-0.201545	-0.848837
C113	C	0.855090	-0.351256	-1.050639
C114	C	0.825772	-0.321892	-1.121969
H115	H	0.877770	-0.373944	-1.087865
H116	H	0.875097	-0.328484	-1.007860
H117	H	0.832285	-0.371261	-1.007827
H118	H	0.848577	-0.301884	-1.164776
H119	H	0.805764	-0.344667	-1.164765
H120	H	0.816224	-0.312402	-0.907278
C121	C	0.366719	-0.348250	-0.311858
C122	C	0.313018	-0.355300	-0.297660
H123	H	0.385217	-0.370913	-0.266170
H124	H	0.375678	-0.355947	-0.382411
H125	H	0.375681	-0.313110	-0.296604
H126	H	0.304055	-0.390439	-0.312922
H127	H	0.304055	-0.347607	-0.227092
H128	H	0.457531	-0.191205	-0.628379
H129	H	0.661528	-0.702168	-0.317008
C130	C	-0.017276	-0.351235	-0.305982
C131	C	-0.052744	-0.321924	-0.365058
H132	H	-0.035824	-0.373898	-0.260300
H133	H	0.004018	-0.371259	-0.351689
H134	H	0.004028	-0.328424	-0.265878
H135	H	-0.074045	-0.344735	-0.405168
H136	H	-0.074046	-0.301899	-0.319345
H137	H	0.305441	-0.157811	-0.695712
H138	H	0.206396	-0.157808	-0.695719
H139	H	0.661563	-0.801220	-0.317016
C140	C	0.026559	-0.152382	-0.706701
C141	C	0.062027	-0.181692	-0.647624
H142	H	0.045107	-0.129713	-0.752370
H143	H	0.005262	-0.175189	-0.746809
H144	H	0.005259	-0.132360	-0.660986
H145	H	0.083324	-0.201717	-0.693338
H146	H	0.083333	-0.158882	-0.607513
H147	H	-0.044831	-0.191214	-0.628457
H148	H	0.054097	-0.312403	-0.384208
C149	C	0.233877	-0.384605	-0.238584
C150	C	0.198405	-0.355301	-0.297665
H151	H	0.215331	-0.407264	-0.192890
H152	H	0.255169	-0.404632	-0.284287
H153	H	0.255181	-0.361789	-0.198493
H154	H	0.177103	-0.378117	-0.337762
H155	H	0.177103	-0.335273	-0.251956
H156	H	0.457385	-0.312409	-0.384158
C157	C	0.617919	-0.314857	-0.379163
C158	C	0.564220	-0.321917	-0.364953
H159	H	0.636424	-0.337514	-0.333475
H160	H	0.626876	-0.322555	-0.449716
H161	H	0.626875	-0.279715	-0.363918
H162	H	0.555264	-0.357059	-0.380206
H163	H	0.555260	-0.314223	-0.294384
C164	C	0.692364	-0.389463	-0.379296
C165	C	0.685329	-0.443167	-0.365110
H166	H	0.669674	-0.370976	-0.333655
H167	H	0.727489	-0.380488	-0.363980
H168	H	0.684690	-0.380502	-0.449872
H169	H	0.693007	-0.452129	-0.294535
H170	H	0.650195	-0.452146	-0.380419
H171	H	0.816299	-1.052149	-0.628385
H172	H	0.816282	-0.953099	-0.628362
H173	H	0.849655	-0.800922	-0.695596
H174	H	0.849626	-0.701875	-0.695583
C175	C	0.656154	-0.981045	-0.306143
C176	C	0.685478	-0.945504	-0.365162
H177	H	0.633470	-0.962554	-0.260499
H178	H	0.636152	-1.002343	-0.351889
H179	H	0.678954	-1.002337	-0.266002
H180	H	0.662678	-0.924215	-0.405309
H181	H	0.705482	-0.924197	-0.319410
