data_functionalizedCrystal
_audit_creation_method	'MofGen! by Chris Wilmer'
_symmetry_space_group_name_H-M	'P1'
_symmetry_Int_Tables_number	1
_symmetry_cell_setting	triclinic
loop_
_symmetry_equiv_pos_as_xyz
  x,y,z
_cell_length_a	17.699077
_cell_length_b	14.519709
_cell_length_c	16.776229
_cell_angle_alpha	89.992406
_cell_angle_beta	89.993415
_cell_angle_gamma	83.480361
loop_
_atom_site_label
_atom_site_type_symbol
_atom_site_fract_x
_atom_site_fract_y
_atom_site_fract_z
O1	O	1.004415	0.116598	-0.066279
O2	O	1.337748	0.449931	0.267054
O3	O	1.671082	0.783265	0.600387
O4	O	0.784080	0.131777	-0.066283
O5	O	1.117413	0.465110	0.267050
O6	O	1.450746	0.798444	0.600383
O7	O	0.900089	-0.010076	-0.066274
O8	O	1.233423	0.323257	0.267059
O9	O	1.566756	0.656591	0.600393
O10	O	0.888405	0.258451	-0.066289
O11	O	1.221739	0.591784	0.267045
O12	O	1.555072	0.925118	0.600378
O13	O	0.900074	-0.010085	0.066302
O14	O	1.233407	0.323249	0.399636
O15	O	1.566740	0.656582	0.732969
O16	O	0.784064	0.131768	0.066293
O17	O	1.117397	0.465102	0.399626
O18	O	1.450731	0.798435	0.732960
O19	O	1.004400	0.116589	0.066297
O20	O	1.337733	0.449923	0.399631
O21	O	1.671066	0.783256	0.732964
Zn22	Zn	0.894229	0.124177	0.087345
Zn23	Zn	1.227563	0.457511	0.420678
Zn24	Zn	1.560896	0.790844	0.754011
Zn25	Zn	0.894250	0.124189	-0.087331
Zn26	Zn	1.227583	0.457522	0.246003
Zn27	Zn	1.560916	0.790856	0.579336
O28	O	0.888390	0.258442	0.066288
O29	O	1.221723	0.591776	0.399621
O30	O	1.555057	0.925109	0.732955
C31	C	0.755873	0.131230	0.000004
C32	C	1.089207	0.464563	0.333338
C33	C	1.422540	0.797896	0.666671
C34	C	0.671850	0.129601	0.000003
C35	C	1.005184	0.462934	0.333336
C36	C	1.338517	0.796267	0.666670
C37	C	0.632372	0.128829	0.072271
C38	C	0.965706	0.462162	0.405605
C39	C	1.299039	0.795495	0.738938
C40	C	0.553425	0.127283	0.072272
C41	C	0.886759	0.460617	0.405606
C42	C	1.220092	0.793950	0.738939
C43	C	0.513957	0.126517	0.000004
C44	C	0.847290	0.459850	0.333337
C45	C	1.180624	0.793184	0.666671
C46	C	0.553441	0.127287	-0.072270
C47	C	0.886774	0.460620	0.261063
C48	C	1.220108	0.793953	0.594397
C49	C	0.632387	0.128825	-0.072270
C50	C	0.965720	0.462158	0.261063
C51	C	1.299054	0.795492	0.594397
C52	C	0.235060	0.121080	-0.072271
C53	C	0.568393	0.454414	0.261062
C54	C	0.901726	0.787747	0.594396
C55	C	0.156108	0.119544	-0.072265
C56	C	0.489441	0.452878	0.261068
C57	C	0.822774	0.786211	0.594401
C58	C	0.156098	0.119539	0.072271
C59	C	0.489431	0.452872	0.405605
C60	C	0.822765	0.786205	0.738938
C61	C	0.235044	0.121077	0.072271
C62	C	0.568378	0.454410	0.405604
C63	C	0.901711	0.787744	0.738938
C64	C	0.274522	0.121842	-0.000002
C65	C	0.607855	0.455175	0.333331
C66	C	0.941188	0.788508	0.666664
C67	C	0.360125	0.123515	-0.000002
C68	C	0.693458	0.456849	0.333331
C69	C	1.026792	0.790182	0.666664
C70	C	0.428354	0.124850	0.000003
C71	C	0.761688	0.458183	0.333337
C72	C	1.095021	0.791517	0.666670
C73	C	0.899537	-0.044438	0.000014
C74	C	1.232870	0.288896	0.333348
C75	C	1.566204	0.622229	0.666681
C76	C	0.897905	-0.146812	0.000015
C77	C	1.231239	0.186521	0.333348
C78	C	1.564572	0.519855	0.666681
C79	C	0.891898	-0.521682	-0.000006
C80	C	1.225232	-0.188349	0.333327
C81	C	1.558565	0.144985	0.666661
C82	C	0.893566	-0.417381	-0.000000
C83	C	1.226900	-0.084048	0.333333
C84	C	1.560233	0.249285	0.666667
C85	C	0.894902	-0.334250	0.000005
C86	C	1.228235	-0.000917	0.333338
C87	C	1.561568	0.332416	0.666672
C88	C	0.896570	-0.229943	0.000010
C89	C	1.229903	0.103390	0.333343
C90	C	1.563237	0.436724	0.666676
C91	C	1.032606	0.117137	0.000008
C92	C	1.365939	0.450470	0.333341
C93	C	1.699273	0.783803	0.666674
C94	C	1.116629	0.118766	0.000004
C95	C	1.449962	0.452099	0.333337
C96	C	1.783296	0.785432	0.666670
C97	C	0.888942	0.292804	-0.000002
C98	C	1.222276	0.626137	0.333331
C99	C	1.555609	0.959471	0.666664
C100	C	0.890574	0.395178	-0.000008
C101	C	1.223907	0.728512	0.333325
C102	C	1.557241	1.061845	0.666659
N103	N	0.894221	0.124169	0.206556
N104	N	1.227554	0.457502	0.539889
N105	N	1.560888	0.790836	0.873222
N106	N	0.894264	0.124190	-0.206542
N107	N	1.227597	0.457523	0.126791
N108	N	1.560931	0.790857	0.460125
C109	C	0.945606	0.061382	0.248277
C110	C	1.278939	0.394716	0.581610
C111	C	1.612273	0.728049	0.914944
C112	C	0.945610	0.061382	0.331729
C113	C	1.278943	0.394715	0.665062
C114	C	1.612277	0.728048	0.998396
C115	C	0.894233	0.124173	0.373459
C116	C	1.227566	0.457506	0.706792
C117	C	1.560899	0.790839	1.040125
C118	C	0.842842	0.186962	0.331732
C119	C	1.176176	0.520296	0.665065
C120	C	1.509509	0.853629	0.998398
C121	C	0.842835	0.186958	0.248281
C122	C	1.176168	0.520291	0.581614
C123	C	1.509502	0.853625	0.914948
C124	C	0.842870	0.186980	0.668279
C125	C	1.176203	0.520314	1.001612
C126	C	1.509536	0.853647	1.334945
C127	C	0.842882	0.186982	0.751735
C128	C	1.176216	0.520315	1.085069
C129	C	1.509549	0.853648	1.418402
C130	C	0.945645	0.061404	0.751727
C131	C	1.278978	0.394737	1.085060
C132	C	1.612311	0.728071	1.418394
C133	C	0.945638	0.061400	0.668276
C134	C	1.278971	0.394733	1.001610
C135	C	1.612304	0.728066	1.334943
C136	C	0.894245	0.124186	0.626557
C137	C	1.227578	0.457519	0.959890
C138	C	1.560912	0.790852	1.293223
C139	C	0.894240	0.124185	0.536068
C140	C	1.227573	0.457518	0.869402
C141	C	1.560907	0.790851	1.202735
C142	C	0.894240	0.124179	0.463945
C143	C	1.227574	0.457512	0.797279
C144	C	1.560907	0.790845	1.130612
H145	H	0.664501	0.129460	0.131121
H146	H	0.997834	0.462793	0.464454
H147	H	1.331167	0.796127	0.797787
Br148	Br	0.102544	0.118506	-0.170351
Br149	Br	0.435877	0.451839	0.162983
Br150	Br	0.769210	0.785172	0.496316
H151	H	0.267193	0.121700	-0.131121
H152	H	0.600526	0.455033	0.202213
H153	H	0.933860	0.788367	0.535546
Br154	Br	1.015370	-0.023814	0.611646
Br155	Br	1.348703	0.309519	0.944979
Br156	Br	1.682037	0.642853	1.278313
H157	H	0.267175	0.121706	0.131119
H158	H	0.600508	0.455039	0.464453
H159	H	0.933842	0.788372	0.797786
Br160	Br	1.015393	-0.023809	0.808350
Br161	Br	1.348726	0.309524	1.141684
Br162	Br	1.682059	0.642857	1.475017
Br163	Br	0.773090	0.272166	0.191659
Br164	Br	1.106424	0.605500	0.524992
Br165	Br	1.439757	0.938833	0.858326
H166	H	0.664529	0.129456	-0.131118
H167	H	0.997862	0.462789	0.202215
H168	H	1.331196	0.796122	0.535548
Br169	Br	0.499882	0.126206	-0.170350
Br170	Br	0.833215	0.459539	0.162983
Br171	Br	1.166549	0.792873	0.496317
H172	H	0.987447	0.010254	0.214306
H173	H	1.320780	0.343588	0.547640
H174	H	1.654113	0.676921	0.880973
Br175	Br	1.015345	-0.023833	0.388354
Br176	Br	1.348678	0.309500	0.721687
Br177	Br	1.682012	0.642833	1.055020
H178	H	0.801025	0.238105	0.634317
H179	H	1.134359	0.571438	0.967650
H180	H	1.467692	0.904771	1.300984
H181	H	0.801042	0.238116	0.785710
H182	H	1.134375	0.571449	1.119043
H183	H	1.467708	0.904782	1.452377
H184	H	0.801006	0.238085	0.365712
H185	H	1.134339	0.571418	0.699046
H186	H	1.467673	0.904752	1.032379
H187	H	0.123946	0.118912	0.131120
H188	H	0.457280	0.452245	0.464453
H189	H	0.790613	0.785578	0.797786
Br190	Br	0.499849	0.126250	0.170355
Br191	Br	0.833182	0.459584	0.503688
Br192	Br	1.166516	0.792917	0.837022
