data_functionalizedCrystal
_audit_creation_method	'MofGen! by Chris Wilmer'
_symmetry_space_group_name_H-M	'P1'
_symmetry_Int_Tables_number	1
_symmetry_cell_setting	triclinic
loop_
_symmetry_equiv_pos_as_xyz
  x,y,z
_cell_length_a	7.681481
_cell_length_b	8.559649
_cell_length_c	8.559649
_cell_angle_alpha	69.778664
_cell_angle_beta	94.930900
_cell_angle_gamma	85.087445
loop_
_atom_site_label
_atom_site_type_symbol
_atom_site_fract_x
_atom_site_fract_y
_atom_site_fract_z
O1	O	-0.146430	-2.109658	0.037794
O2	O	-0.146430	-1.634173	-0.045988
O3	O	-0.146429	-1.913806	0.233646
O4	O	-0.146432	-1.830024	-0.241840
O5	O	0.146429	-1.948233	0.268133
O6	O	0.146428	-1.668600	-0.011500
O7	O	0.146428	-2.144084	0.072281
Zn8	Zn	0.192925	-1.911808	0.035866
Zn9	Zn	-0.192928	-1.866449	-0.009573
O10	O	0.146426	-1.864451	-0.207352
C11	C	-0.000002	-1.591077	-0.035093
C12	C	-0.000002	-1.411378	-0.053992
N13	N	0.456260	-1.942776	0.066880
N14	N	-0.456262	-1.835496	-0.040571
C15	C	-0.000003	-1.937368	0.311198
C16	C	-0.000013	-1.956266	0.490896
C17	C	-0.000002	-1.187180	0.061387
C18	C	-0.000003	-1.366879	0.080286
C19	C	-0.000004	-1.840889	-0.284905
C20	C	-0.000006	-1.821989	-0.464604
H21	H	-0.000011	-1.466256	0.209704
F22	F	0.445450	-1.692355	-0.183929
H23	H	0.531466	-2.052304	0.176553
F24	F	-0.000018	-1.281475	-0.223168
F25	F	-0.000001	-1.652824	0.405504
F26	F	0.000008	-2.125443	0.620800
