data_functionalizedCrystal
_audit_creation_method	'MofGen! by Chris Wilmer'
_symmetry_space_group_name_H-M	'P1'
_symmetry_Int_Tables_number	1
_symmetry_cell_setting	triclinic
loop_
_symmetry_equiv_pos_as_xyz
  x,y,z
_cell_length_a	14.908795
_cell_length_b	29.839131
_cell_length_c	14.908308
_cell_angle_alpha	93.261283
_cell_angle_beta	89.788666
_cell_angle_gamma	93.331550
loop_
_atom_site_label
_atom_site_type_symbol
_atom_site_fract_x
_atom_site_fract_y
_atom_site_fract_z
Zn1	Zn	1.345199	-0.157139	-0.587804
Zn2	Zn	1.353728	-0.227707	-0.437431
Zn3	Zn	1.203513	-0.156653	-0.428775
Zn4	Zn	1.194748	-0.236309	-0.579051
O5	O	1.274297	-0.194452	-0.508265
O6	O	1.472160	-0.163104	-0.575142
O7	O	1.341039	-0.214477	-0.310460
O8	O	1.222406	-0.093848	-0.449911
O9	O	1.478427	-0.214949	-0.464664
O10	O	1.326502	-0.094206	-0.566748
O11	O	1.230677	-0.162274	-0.304100
O12	O	1.076520	-0.170615	-0.441423
O13	O	1.207468	-0.229610	-0.706034
O14	O	1.070080	-0.229138	-0.551831
O15	O	1.318003	-0.171445	-0.712465
O16	O	1.332540	-0.291716	-0.456177
O17	O	1.215738	-0.298036	-0.560224
C18	C	1.040674	-0.200758	-0.494738
C19	C	0.940727	-0.203467	-0.488973
C20	C	0.803127	-0.234228	-0.423238
C21	C	0.897036	-0.231684	-0.428655
C22	C	0.890504	-0.177791	-0.543877
C23	C	0.796596	-0.180334	-0.538460
C24	C	0.752911	-0.208554	-0.478140
C25	C	0.659000	-0.211100	-0.472728
C26	C	0.652471	-0.157205	-0.587945
C27	C	0.746379	-0.154661	-0.593361
C28	C	1.274137	-0.311177	-0.508211
C29	C	1.274149	-0.361112	-0.508223
C30	C	1.335215	-0.667449	-0.454178
C31	C	1.335324	-0.855120	-0.454219
O32	O	1.387118	-0.876575	-0.408226
N33	N	1.274479	-0.881891	-0.508344
C34	C	1.213607	-0.861742	-0.562466
O35	O	1.161863	-0.888819	-0.608511
C36	C	1.213503	-0.674071	-0.562429
C37	C	1.274346	-0.647302	-0.508294
C38	C	1.396054	-0.640680	-0.400048
C39	C	1.396023	-0.593765	-0.400034
C40	C	1.335153	-0.573619	-0.454151
C41	C	1.274315	-0.600387	-0.508281
C42	C	1.152635	-0.653923	-0.616556
C43	C	1.152616	-0.607002	-0.616544
C44	C	1.213459	-0.580233	-0.562408
C45	C	1.213414	-0.533326	-0.562384
N46	N	1.274259	-0.506555	-0.508259
C47	C	1.335128	-0.526701	-0.454142
C48	C	1.213664	-0.960271	-0.562481
C49	C	1.213689	-1.007188	-0.562489
C50	C	1.335408	-1.000563	-0.454242
C51	C	1.335379	-0.953645	-0.454230
C52	C	1.274509	-0.933500	-0.508356
C53	C	1.335058	-0.428177	-0.454118
C54	C	1.335019	-0.381258	-0.454106
C55	C	1.213303	-0.387887	-0.562356
C56	C	1.213339	-0.434802	-0.562364
C57	C	1.274224	-0.454945	-0.508242
O58	O	1.161654	-0.511840	-0.608360
O59	O	1.386878	-0.499617	-0.408120
C60	C	1.335247	-0.714363	-0.454191
C61	C	1.274408	-0.741132	-0.508321
C62	C	1.213538	-0.720986	-0.562437
C63	C	1.274433	-0.788050	-0.508329
C64	C	1.335302	-0.808196	-0.454213
C65	C	1.396148	-0.781424	-0.400088
C66	C	1.396116	-0.734510	-0.400074
C67	C	1.152693	-0.747757	-0.616562
C68	C	1.152728	-0.794672	-0.616570
C69	C	1.213598	-0.814818	-0.562454
C70	C	1.508832	-0.188122	-0.521845
C71	C	1.608777	-0.185424	-0.527632
C72	C	1.260806	-0.201542	-0.742786
C73	C	1.255058	-0.204563	-0.842725
C74	C	1.274481	-0.077270	-0.508340
C75	C	1.274559	-0.027335	-0.508372
C76	C	1.359353	-0.149662	-1.037219
C77	C	1.353955	-0.152499	-1.131121
C78	C	1.238857	-0.213072	-1.124432
C79	C	1.244256	-0.210235	-1.030530
C80	C	1.304507	-0.178529	-0.986927
C81	C	1.309910	-0.175695	-0.893024
C82	C	1.194809	-0.236264	-0.886337
C83	C	1.189410	-0.239101	-0.980238
C84	C	1.287787	-0.187356	-0.274659
C85	C	1.293710	-0.184203	-0.174731
H86	H	0.781961	-0.131684	-0.642470
H87	H	1.150151	-0.259771	-0.845379
H88	H	0.926090	-0.154813	-0.592981
H89	H	1.398614	-0.128992	-1.172065
H90	H	1.163798	-0.456599	-0.606448
H91	H	1.445708	-0.797836	-0.356022
H92	H	1.445627	-0.657077	-0.355979
H93	H	0.623433	-0.234080	-0.423615
H94	H	1.189804	-0.238884	-1.159950
H95	H	0.611575	-0.136300	-0.632651
H96	H	1.384565	-0.359464	-0.410020
H97	H	1.384638	-0.444572	-0.410049
H98	H	1.445569	-0.571972	-0.355956
H99	H	1.384923	-0.931852	-0.410149
H100	H	1.140354	-0.264914	-1.015753
H101	H	1.103126	-0.731359	-0.660632
H102	H	1.164137	-1.028980	-0.606562
H103	H	1.384971	-1.016974	-0.410179
H104	H	1.164095	-0.943873	-0.606557
H105	H	1.408416	-0.123849	-1.001717
H106	H	0.767558	-0.257210	-0.374130
H107	H	1.358970	-0.149879	-0.857524
H108	H	1.103050	-0.590603	-0.660622
H109	H	0.937919	-0.252590	-0.383948
H110	H	1.103086	-0.675711	-0.660634
H111	H	1.445661	-0.712717	-0.355993
H112	H	1.163741	-0.371477	-0.606414
H113	H	1.103175	-0.816464	-0.660652
