data_functionalizedCrystal
_audit_creation_method	'MofGen! by Chris Wilmer'
_symmetry_space_group_name_H-M	'P1'
_symmetry_Int_Tables_number	1
_symmetry_cell_setting	triclinic
loop_
_symmetry_equiv_pos_as_xyz
  x,y,z
_cell_length_a	9.065218
_cell_length_b	11.892113
_cell_length_c	9.065218
_cell_angle_alpha	85.686506
_cell_angle_beta	94.984115
_cell_angle_gamma	94.315427
loop_
_atom_site_label
_atom_site_type_symbol
_atom_site_fract_x
_atom_site_fract_y
_atom_site_fract_z
O1	O	1.968930	0.094002	-0.224885
O2	O	1.539645	0.094003	-0.242631
O3	O	1.763161	0.094000	-0.019115
O4	O	1.745415	0.094004	-0.448401
O5	O	1.746084	-0.094008	-0.002052
O6	O	1.522568	-0.094005	-0.225568
O7	O	1.951853	-0.094006	-0.207821
Zn8	Zn	1.734499	-0.123856	-0.213985
Zn9	Zn	1.756999	0.123852	-0.236467
O10	O	1.728338	-0.094003	-0.431337
C11	C	1.476120	-0.000001	-0.232394
C12	C	1.312277	-0.000000	-0.227294
N13	N	1.719155	-0.292910	-0.198642
C14	C	1.879115	-0.529557	-0.358643
C15	C	1.868401	-0.647899	-0.347905
C16	C	1.687021	-0.647938	-0.166422
C17	C	1.697735	-0.529596	-0.177159
C18	C	1.793784	-0.470410	-0.273275
C19	C	1.804489	-0.352066	-0.284019
C20	C	1.623118	-0.352106	-0.102529
C21	C	1.612404	-0.470448	-0.091791
C22	C	2.015378	0.000000	-0.218059
C23	C	2.179222	0.000007	-0.223159
C24	C	1.752917	-0.000002	0.044403
C25	C	1.747818	0.000003	0.208245
N26	N	1.772355	0.292907	-0.251799
C27	C	1.738582	0.000001	-0.494856
C28	C	1.743682	0.000003	-0.658699
H29	H	1.882691	-0.303878	-0.362287
H30	H	1.957308	-0.481367	-0.436918
C31	C	1.436554	-0.219085	-0.102665
C32	C	1.529283	-0.287099	-0.008700
H33	H	1.378622	-0.178952	-0.044746
H34	H	1.372854	-0.265273	-0.165537
H35	H	1.495303	-0.166892	-0.161419
H36	H	1.470533	-0.339298	0.050047
H37	H	1.592989	-0.240907	0.054199
C38	C	1.515335	-0.651873	0.005160
C39	C	1.506822	-0.535508	0.013850
H40	H	1.450141	-0.692033	0.070372
H41	H	1.614145	-0.671296	0.032892
H42	H	1.487466	-0.671210	-0.093677
H43	H	1.534702	-0.516170	0.112685
H44	H	1.407991	-0.516078	-0.013874
C45	C	2.048753	-0.635969	-0.528378
C46	C	1.962193	-0.712915	-0.441751
H47	H	2.106652	-0.676110	-0.586321
H48	H	2.112484	-0.589808	-0.465499
H49	H	1.985820	-0.589817	-0.592083
H50	H	2.025127	-0.759062	-0.378038
H51	H	1.898456	-0.759096	-0.504636
H52	H	1.608838	-0.696147	-0.088153
