data_functionalizedCrystal
_audit_creation_method	'MofGen! by Chris Wilmer'
_symmetry_space_group_name_H-M	'P1'
_symmetry_Int_Tables_number	1
_symmetry_cell_setting	triclinic
loop_
_symmetry_equiv_pos_as_xyz
  x,y,z
_cell_length_a	6.817900
_cell_length_b	12.200875
_cell_length_c	12.200722
_cell_angle_alpha	93.008822
_cell_angle_beta	107.140920
_cell_angle_gamma	107.143593
loop_
_atom_site_label
_atom_site_type_symbol
_atom_site_fract_x
_atom_site_fract_y
_atom_site_fract_z
V1	V	-4.086871	-0.357783	-0.158974
V2	V	-3.753538	-0.024450	0.174360
V3	V	-3.420205	0.308884	0.507693
O4	O	-4.054179	-0.350847	0.007371
O5	O	-3.720846	-0.017514	0.340705
O6	O	-3.387512	0.315820	0.674038
O7	O	-4.056310	-0.355457	-0.314960
O8	O	-3.722976	-0.022123	0.018373
O9	O	-3.389643	0.311210	0.351707
O10	O	-4.056323	-0.513769	-0.156646
O11	O	-3.722989	-0.180436	0.176687
O12	O	-3.389656	0.152897	0.510021
O13	O	-4.054166	-0.191438	-0.152039
O14	O	-3.720833	0.141895	0.181294
O15	O	-3.387499	0.475229	0.514628
V16	V	-4.565875	-0.337872	-0.139063
V17	V	-4.232541	-0.004539	0.194270
V18	V	-3.899208	0.328795	0.527604
O19	O	-4.358044	-0.401459	-0.202649
O20	O	-4.024711	-0.068126	0.130684
O21	O	-3.691377	0.265208	0.464017
O22	O	-4.744899	-0.294196	-0.095387
O23	O	-4.411566	0.039137	0.237946
O24	O	-4.078233	0.372471	0.571279
O25	O	-4.373230	-0.340199	0.016924
O26	O	-4.039896	-0.006865	0.350257
O27	O	-3.706563	0.326468	0.683590
O28	O	-4.715964	-0.344808	-0.305408
O29	O	-4.382631	-0.011475	0.027926
O30	O	-4.049297	0.321858	0.361259
O31	O	-4.715977	-0.504217	-0.145998
O32	O	-4.382644	-0.170884	0.187336
O33	O	-4.049310	0.162450	0.520669
O34	O	-4.373217	-0.181886	-0.141391
O35	O	-4.039883	0.151448	0.191943
O36	O	-3.706550	0.484781	0.525276
C37	C	-3.905073	-0.349844	-0.352982
C38	C	-3.571739	-0.016510	-0.019649
C39	C	-3.238406	0.316823	0.313684
C40	C	-3.961491	-0.348981	-0.480504
C41	C	-3.628157	-0.015648	-0.147171
C42	C	-3.294824	0.317685	0.186163
C43	C	-4.007301	-0.348270	-0.584064
C44	C	-3.673968	-0.014937	-0.250731
C45	C	-3.340634	0.318397	0.082602
C46	C	-4.064792	-0.347384	-0.713986
C47	C	-3.731459	-0.014050	-0.380653
C48	C	-3.398126	0.319283	-0.047319
C49	C	-3.905088	-0.551786	-0.151036
C50	C	-3.571755	-0.218453	0.182298
C51	C	-3.238421	0.114881	0.515631
C52	C	-3.961513	-0.679306	-0.150165
C53	C	-3.628179	-0.345973	0.183169
C54	C	-3.294846	-0.012640	0.516502
C55	C	-4.064778	-0.912780	-0.148571
C56	C	-3.731445	-0.579446	0.184762
C57	C	-3.398112	-0.246113	0.518095
C58	C	-4.007305	-0.782858	-0.149457
C59	C	-3.673972	-0.449525	0.183876
C60	C	-3.340639	-0.116192	0.517209
C61	C	-4.187809	-0.345808	0.054940
C62	C	-3.854476	-0.012475	0.388273
C63	C	-3.521143	0.320858	0.721607
C64	C	-4.110630	-0.346678	0.182460
C65	C	-3.777297	-0.013345	0.515794
C66	C	-3.443964	0.319988	0.849127
C67	C	-4.187793	-0.143863	-0.147005
C68	C	-3.854460	0.189470	0.186329
C69	C	-3.521127	0.522803	0.519662
C70	C	-4.110606	-0.016342	-0.147870
C71	C	-3.777273	0.316992	0.185464
C72	C	-3.443940	0.650325	0.518797
