data_functionalizedCrystal
_audit_creation_method	'MofGen! by Chris Wilmer'
_symmetry_space_group_name_H-M	'P1'
_symmetry_Int_Tables_number	1
_symmetry_cell_setting	triclinic
loop_
_symmetry_equiv_pos_as_xyz
  x,y,z
_cell_length_a	21.395362
_cell_length_b	12.645330
_cell_length_c	21.395356
_cell_angle_alpha	90.020601
_cell_angle_beta	90.042977
_cell_angle_gamma	90.042067
loop_
_atom_site_label
_atom_site_type_symbol
_atom_site_fract_x
_atom_site_fract_y
_atom_site_fract_z
Zn1	Zn	-0.957873	0.421617	-0.354616
Zn2	Zn	-0.624540	0.754950	-0.021283
Zn3	Zn	-0.291207	1.088284	0.312050
Zn4	Zn	-0.957786	0.598894	-0.249852
Zn5	Zn	-0.624452	0.932228	0.083481
Zn6	Zn	-0.291119	1.265561	0.416815
Zn7	Zn	-0.853090	0.421695	-0.249818
Zn8	Zn	-0.519757	0.755028	0.083516
Zn9	Zn	-0.186423	1.088361	0.416849
Zn10	Zn	-0.853066	0.598888	-0.354557
Zn11	Zn	-0.519732	0.932221	-0.021223
Zn12	Zn	-0.186399	1.265555	0.312110
O13	O	-0.905454	0.510273	-0.302211
O14	O	-0.572120	0.843607	0.031123
O15	O	-0.238787	1.176940	0.364456
O16	O	-1.045540	0.445103	-0.340759
O17	O	-0.712206	0.778437	-0.007425
O18	O	-0.378873	1.111770	0.325908
O19	O	-0.943871	0.575424	-0.162169
O20	O	-0.610538	0.908757	0.171164
O21	O	-0.277205	1.242090	0.504497
O22	O	-0.867036	0.273337	-0.263730
O23	O	-0.533703	0.606670	0.069603
O24	O	-0.200370	0.940004	0.402936
O25	O	-1.045475	0.575348	-0.263788
O26	O	-0.712142	0.908682	0.069545
O27	O	-0.378809	1.242015	0.402878
O28	O	-0.944020	0.273280	-0.340725
O29	O	-0.610687	0.606613	-0.007392
O30	O	-0.277354	0.939947	0.325941
O31	O	-0.866952	0.445236	-0.162144
O32	O	-0.533618	0.778569	0.171189
O33	O	-0.200285	1.111902	0.504522
O34	O	-0.765409	0.445229	-0.263672
O35	O	-0.432075	0.778563	0.069661
O36	O	-0.098742	1.111896	0.402994
O37	O	-0.866995	0.575337	-0.442242
O38	O	-0.533662	0.908671	-0.108909
O39	O	-0.200328	1.242004	0.224424
O40	O	-0.765391	0.575413	-0.340623
O41	O	-0.432058	0.908746	-0.007290
O42	O	-0.098724	1.242079	0.326043
O43	O	-0.943997	0.445097	-0.442286
O44	O	-0.610663	0.778430	-0.108953
O45	O	-0.277330	1.111764	0.224380
O46	O	-0.943848	0.747241	-0.263730
O47	O	-0.610514	1.080574	0.069603
O48	O	-0.277181	1.413908	0.402936
O49	O	-0.866910	0.747236	-0.340657
O50	O	-0.533577	1.080569	-0.007323
O51	O	-0.200244	1.413903	0.326010
C52	C	-0.742666	0.510330	-0.302138
C53	C	-0.409333	0.843663	0.031195
C54	C	-0.075999	1.176996	0.364529
C55	C	-0.673025	0.510379	-0.302122
C56	C	-0.339691	0.843712	0.031212
C57	C	-0.006358	1.177046	0.364545
C58	C	-0.905384	0.785703	-0.302204
C59	C	-0.572050	1.119037	0.031129
C60	C	-0.238717	1.452370	0.364462
C61	C	-0.905411	0.903533	-0.302223
C62	C	-0.572078	1.236867	0.031111
C63	C	-0.238745	1.570200	0.364444
C64	C	-0.905503	0.510208	-0.465634
C65	C	-0.572170	0.843541	-0.132301
C66	C	-0.238836	1.176874	0.201033
C67	C	-0.905524	0.510180	-0.535275
C68	C	-0.572191	0.843513	-0.201942
C69	C	-0.238857	1.176846	0.131391
C70	C	-1.068877	0.510218	-0.302284
C71	C	-0.735544	0.843551	0.031049
C72	C	-0.402210	1.176885	0.364383
C73	C	-1.138518	0.510194	-0.302315
C74	C	-0.805185	0.843528	0.031018
C75	C	-0.471852	1.176861	0.364351
C76	C	-0.640319	0.578255	-0.342130
C77	C	-0.306985	0.911589	-0.008797
C78	C	0.026348	1.244922	0.324536
C79	C	-0.574883	0.578229	-0.342158
C80	C	-0.241550	0.911563	-0.008825
C81	C	0.091783	1.244896	0.324508
C82	C	-0.542156	0.510338	-0.302166
C83	C	-0.208823	0.843672	0.031167
C84	C	0.124510	1.177005	0.364500
C85	C	-0.574870	0.442449	-0.262155
C86	C	-0.241537	0.775782	0.071178
C87	C	0.091796	1.109115	0.404512
C88	C	-0.640304	0.442469	-0.262133
C89	C	-0.306971	0.775803	0.071201
C90	C	0.026362	1.109136	0.404534
C91	C	-0.438432	0.501813	-0.245761
C92	C	-0.105099	0.835147	0.087573
C93	C	0.228234	1.168480	0.420906
C94	C	-0.372999	0.501800	-0.245782
C95	C	-0.039666	0.835134	0.087552
C96	C	0.293667	1.168467	0.420885
C97	C	-0.340336	0.510269	-0.302236
C98	C	-0.007002	0.843602	0.031098
C99	C	0.326331	1.176936	0.364431
C100	C	-0.373113	0.518773	-0.358670
C101	C	-0.039780	0.852106	-0.025336
C102	C	0.293553	1.185440	0.307997
C103	C	-0.438547	0.518793	-0.358647
C104	C	-0.105214	0.852127	-0.025314
C105	C	0.228119	1.185460	0.308019
C106	C	-0.471204	0.510308	-0.302186
C107	C	-0.137871	0.843641	0.031147
C108	C	0.195463	1.176975	0.364480
C109	C	-0.236677	0.578121	-0.342278
C110	C	0.096656	0.911454	-0.008944
C111	C	0.429989	1.244787	0.324389
C112	C	-0.171241	0.578087	-0.342307
C113	C	0.162093	0.911421	-0.008973
C114	C	0.495426	1.244754	0.324360
C115	C	-0.171229	0.442312	-0.262298
C116	C	0.162104	0.775646	0.071035
C117	C	0.495438	1.108979	0.404369
C118	C	-0.236664	0.442340	-0.262275
C119	C	0.096669	0.775674	0.071059
C120	C	0.430002	1.109007	0.404392
C121	C	-0.269384	0.510250	-0.302264
C122	C	0.063949	0.843583	0.031070
C123	C	0.397282	1.176917	0.364403
C124	C	-0.857195	1.071138	-0.350768
C125	C	-0.523862	1.404472	-0.017434
C126	C	-0.190528	1.737805	0.315899
C127	C	-0.856959	0.948579	-0.350611
C128	C	-0.523626	1.281912	-0.017277
C129	C	-0.190292	1.615246	0.316056
C130	C	-0.887530	0.948129	-0.236186
C131	C	-0.554197	1.281462	0.097147
C132	C	-0.220863	1.614796	0.430481
C133	C	-0.887225	1.070728	-0.236482
C134	C	-0.553892	1.404061	0.096852
C135	C	-0.220558	1.737394	0.430185
C136	C	-0.971770	1.070593	-0.319182
C137	C	-0.638437	1.403926	0.014151
C138	C	-0.305104	1.737260	0.347484
C139	C	-0.971374	0.947987	-0.320625
C140	C	-0.638041	1.281320	0.012708
C141	C	-0.304708	1.614653	0.346042
C142	C	-0.905519	1.233768	-0.302233
C143	C	-0.572186	1.567101	0.031100
C144	C	-0.238852	1.900435	0.364434
C145	C	-0.905490	1.115938	-0.302248
C146	C	-0.572157	1.449271	0.031085
C147	C	-0.238824	1.782605	0.364418
C148	C	-0.865483	0.442383	-0.567965
C149	C	-0.532149	0.775717	-0.234632
C150	C	-0.198816	1.109050	0.098701
C151	C	-0.865481	0.442364	-0.633401
C152	C	-0.532147	0.775697	-0.300068
C153	C	-0.198814	1.109030	0.033266
C154	C	-0.905531	0.510129	-0.666144
C155	C	-0.572198	0.843463	-0.332810
C156	C	-0.238864	1.176796	0.000523
C157	C	-0.945575	0.577939	-0.633446
C158	C	-0.612242	0.911272	-0.300112
C159	C	-0.278908	1.244606	0.033221
C160	C	-0.945572	0.577964	-0.568011
C161	C	-0.612238	0.911298	-0.234678
C162	C	-0.278905	1.244631	0.098655
C163	C	-0.961983	0.518437	-0.769850
C164	C	-0.628650	0.851771	-0.436516
C165	C	-0.295317	1.185104	-0.103183
C166	C	-0.961988	0.518405	-0.835283
C167	C	-0.628654	0.851738	-0.501949
C168	C	-0.295321	1.185071	-0.168616
C169	C	-0.905541	0.510058	-0.867965
C170	C	-0.572208	0.843391	-0.534631
C171	C	-0.238875	1.176724	-0.201298
C172	C	-0.849088	0.501721	-0.835205
C173	C	-0.515755	0.835054	-0.501872
C174	C	-0.182422	1.168388	-0.168539
C175	C	-0.849085	0.501746	-0.769771
C176	C	-0.515752	0.835080	-0.436438
C177	C	-0.182418	1.168413	-0.103104
C178	C	-0.905539	0.510110	-0.737096
C179	C	-0.572205	0.843443	-0.403763
C180	C	-0.238872	1.176777	-0.070429
C181	C	-0.865494	0.442236	-0.971607
C182	C	-0.532161	0.775570	-0.638274
C183	C	-0.198828	1.108903	-0.304941
C184	C	-0.865491	0.442224	-1.037044
C185	C	-0.532158	0.775557	-0.703711
C186	C	-0.198824	1.108891	-0.370377
C187	C	-0.945591	0.577794	-1.037087
C188	C	-0.612258	0.911127	-0.703754
C189	C	-0.278924	1.244461	-0.370421
C190	C	-0.945589	0.577812	-0.971652
C191	C	-0.612255	0.911145	-0.638319
C192	C	-0.278922	1.244478	-0.304985
C193	C	-0.905541	0.510027	-0.938916
C194	C	-0.572208	0.843361	-0.605583
C195	C	-0.238874	1.176694	-0.272249
C196	C	-0.905441	0.510262	-0.139423
C197	C	-0.572107	0.843596	0.193910
C198	C	-0.238774	1.176929	0.527244
C199	C	-0.905541	0.509992	-0.069782
C200	C	-0.572208	0.843325	0.263551
C201	C	-0.238874	1.176658	0.596884
H202	H	-0.666955	0.633551	-0.374693
H203	H	-0.333622	0.966885	-0.041360
H204	H	-0.000289	1.300218	0.291973
H205	H	-0.263294	0.387073	-0.229692
H206	H	0.070040	0.720407	0.103641
H207	H	0.403373	1.053740	0.436975
H208	H	-0.346317	0.494883	-0.199830
H209	H	-0.012984	0.828216	0.133504
H210	H	0.320350	1.161549	0.466837
O211	O	-0.822299	0.369132	-0.936297
O212	O	-0.488965	0.702466	-0.602963
O213	O	-0.155632	1.035799	-0.269630
H214	H	-0.829030	0.380526	-0.885303
H215	H	-0.495697	0.713859	-0.551970
H216	H	-0.162364	1.047193	-0.218637
O217	O	-0.822304	0.369093	-1.072308
O218	O	-0.488971	0.702427	-0.738975
O219	O	-0.155637	1.035760	-0.405641
H220	H	-0.794463	0.321958	-1.038549
H221	H	-0.461130	0.655291	-0.705215
H222	H	-0.127797	0.988625	-0.371882
H223	H	-0.465232	0.525714	-0.404598
H224	H	-0.131899	0.859048	-0.071265
H225	H	0.201435	1.192381	0.262068
H226	H	-0.548220	0.387169	-0.229595
H227	H	-0.214887	0.720503	0.103739
H228	H	0.118447	1.053836	0.437072
H229	H	-0.984859	0.918835	-0.369225
H230	H	-0.651525	1.252168	-0.035891
H231	H	-0.318192	1.585501	0.297442
O232	O	-0.337895	0.527899	-0.419567
O233	O	-0.004562	0.861232	-0.086234
O234	O	0.328771	1.194566	0.247100
H235	H	-0.286888	0.526441	-0.410106
H236	H	0.046445	0.859774	-0.076772
H237	H	0.379778	1.193108	0.256561
H238	H	-0.978181	0.633171	-0.541395
H239	H	-0.644847	0.966504	-0.208062
H240	H	-0.311514	1.299838	0.125271
H241	H	-0.144612	0.633358	-0.374890
H242	H	0.188721	0.966692	-0.041557
H243	H	0.522054	1.300025	0.291776
H244	H	-0.263319	0.633411	-0.374842
H245	H	0.070014	0.966745	-0.041509
H246	H	0.403347	1.300078	0.291824
O247	O	-0.932652	0.909489	-0.186985
O248	O	-0.599319	1.242822	0.146348
O249	O	-0.265986	1.576156	0.479682
H250	H	-0.906760	0.863875	-0.151016
H251	H	-0.573427	1.197208	0.182317
H252	H	-0.240093	1.530542	0.515651
O253	O	-0.988791	0.650886	-1.072392
O254	O	-0.655458	0.984220	-0.739059
O255	O	-0.322125	1.317553	-0.405725
H256	H	-0.982070	0.639476	-1.123385
H257	H	-0.648737	0.972809	-0.790052
H258	H	-0.315404	1.306143	-0.456719
O259	O	-1.019469	1.109199	-0.272479
O260	O	-0.686136	1.442532	0.060854
O261	O	-0.352802	1.775866	0.394188
H262	H	-0.996120	1.160403	-0.237361
H263	H	-0.662786	1.493737	0.095972
H264	H	-0.329453	1.827070	0.429306
O265	O	-0.675580	0.369272	-0.218965
O266	O	-0.342247	0.702605	0.114368
O267	O	-0.008913	1.035938	0.447701
H268	H	-0.663079	0.286088	-0.229789
H269	H	-0.329745	0.619421	0.103544
H270	H	0.003588	0.952754	0.436877
O271	O	-0.788200	0.492762	-0.734440
O272	O	-0.454866	0.826096	-0.401107
O273	O	-0.121533	1.159429	-0.067774
H274	H	-0.797684	0.494175	-0.683451
H275	H	-0.464351	0.827508	-0.350117
H276	H	-0.131017	1.160842	-0.016784
O277	O	-0.871776	0.908632	-0.415470
O278	O	-0.538443	1.241965	-0.082137
O279	O	-0.205109	1.575298	0.251196
H280	H	-0.871624	0.820857	-0.415423
H281	H	-0.538291	1.154190	-0.082090
H282	H	-0.204957	1.487524	0.251243
O283	O	-0.988790	0.650912	-0.936386
O284	O	-0.655457	0.984245	-0.603053
O285	O	-0.322123	1.317578	-0.269720
H286	H	-1.016646	0.698021	-0.970146
H287	H	-0.683313	1.031355	-0.636812
H288	H	-0.349980	1.364688	-0.303479
O289	O	-0.135942	0.369092	-0.219156
O290	O	0.197392	0.702426	0.114177
O291	O	0.530725	1.035759	0.447510
H292	H	-0.084946	0.380487	-0.225888
H293	H	0.248388	0.713820	0.107445
H294	H	0.581721	1.047154	0.440778
H295	H	-0.978184	0.633115	-0.660109
H296	H	-0.644851	0.966448	-0.326776
H297	H	-0.311517	1.299781	0.006558
H298	H	-0.808365	1.102061	-0.339690
H299	H	-0.475032	1.435394	-0.006357
H300	H	-0.141699	1.768727	0.326976
O301	O	-0.473661	0.492681	-0.184868
O302	O	-0.140328	0.826015	0.148466
O303	O	0.193005	1.159348	0.481799
H304	H	-0.439878	0.486783	-0.145630
H305	H	-0.106545	0.820116	0.187703
H306	H	0.226789	1.153450	0.521037
O307	O	-0.871639	1.110605	-0.415787
O308	O	-0.538306	1.443939	-0.082453
O309	O	-0.204973	1.777272	0.250880
H310	H	-0.913423	1.162508	-0.414226
H311	H	-0.580090	1.495841	-0.080893
H312	H	-0.246757	1.829174	0.252441
H313	H	-0.920875	1.100365	-0.199097
H314	H	-0.587542	1.433699	0.134236
H315	H	-0.254208	1.767032	0.467570
H316	H	-0.988075	1.101434	-0.366520
H317	H	-0.654742	1.434767	-0.033186
H318	H	-0.321408	1.768101	0.300147
O319	O	-0.539595	0.651482	-0.385287
O320	O	-0.206262	0.984815	-0.051954
O321	O	0.127072	1.318148	0.281380
H322	H	-0.573341	0.698723	-0.413079
H323	H	-0.240007	1.032057	-0.079746
H324	H	0.093326	1.365390	0.253587
H325	H	-0.807828	0.919366	-0.339389
H326	H	-0.474494	1.252699	-0.006056
H327	H	-0.141161	1.586033	0.327278
H328	H	-1.009258	0.917315	-0.287861
H329	H	-0.675925	1.250648	0.045473
H330	H	-0.342591	1.583982	0.378806
H331	H	-0.838774	1.099440	-0.222139
H332	H	-0.505441	1.432774	0.111194
H333	H	-0.172108	1.766107	0.444528
O334	O	-0.822295	0.369269	-0.532656
O335	O	-0.488962	0.702603	-0.199322
O336	O	-0.155628	1.035936	0.134011
H337	H	-0.794451	0.322123	-0.566385
H338	H	-0.461117	0.655456	-0.233052
H339	H	-0.127784	0.988790	0.100282
O340	O	-0.824026	0.907624	-0.216838
O341	O	-0.490692	1.240958	0.116495
O342	O	-0.157359	1.574291	0.449829
H343	H	-0.805097	0.855746	-0.254145
H344	H	-0.471764	1.189079	0.079189
H345	H	-0.138431	1.522413	0.412522
H346	H	-0.832875	0.387150	-0.660022
H347	H	-0.499542	0.720484	-0.326689
H348	H	-0.166208	1.053817	0.006644
O349	O	-0.788203	0.492721	-0.870450
O350	O	-0.454870	0.826055	-0.537117
O351	O	-0.121537	1.159388	-0.203783
H352	H	-0.764854	0.417304	-0.857888
H353	H	-0.431521	0.750637	-0.524555
H354	H	-0.098187	1.083971	-0.191222
H355	H	-1.007955	0.525188	-0.861950
H356	H	-0.674622	0.858521	-0.528617
H357	H	-0.341288	1.191854	-0.195284
O358	O	-1.022863	0.527473	-0.734594
O359	O	-0.689529	0.860807	-0.401261
O360	O	-0.356196	1.194140	-0.067927
H361	H	-1.029280	0.456483	-0.704780
H362	H	-0.695946	0.789816	-0.371447
H363	H	-0.362613	1.123149	-0.038113
