data_functionalizedCrystal
_audit_creation_method	'MofGen! by Chris Wilmer'
_symmetry_space_group_name_H-M	'P1'
_symmetry_Int_Tables_number	1
_symmetry_cell_setting	triclinic
loop_
_symmetry_equiv_pos_as_xyz
  x,y,z
_cell_length_a	10.654549
_cell_length_b	12.784905
_cell_length_c	9.730223
_cell_angle_alpha	89.996805
_cell_angle_beta	89.997731
_cell_angle_gamma	78.796048
loop_
_atom_site_label
_atom_site_type_symbol
_atom_site_fract_x
_atom_site_fract_y
_atom_site_fract_z
O1	O	1.650014	0.149166	-0.114254
O2	O	1.282837	0.163378	-0.114263
O3	O	1.493295	0.001742	-0.114254
O4	O	1.439557	0.310801	-0.114263
O5	O	1.493283	0.001738	0.114326
O6	O	1.282826	0.163373	0.114317
O7	O	1.650002	0.149161	0.114326
Zn8	Zn	1.466412	0.156267	0.150614
Zn9	Zn	1.466428	0.156272	-0.150550
O10	O	1.439545	0.310797	0.114317
C11	C	1.236158	0.162332	0.000026
C12	C	1.097088	0.159210	0.000022
C13	C	0.875552	0.251437	0.000025
C14	C	1.006221	0.254379	0.000017
C15	C	1.057280	0.061094	0.000022
C16	C	0.926613	0.058154	0.000021
C17	C	1.496784	-0.037834	0.000034
C18	C	1.507183	-0.155751	0.000029
C19	C	1.295316	-0.353696	0.000037
C20	C	1.305081	-0.464489	0.000032
C21	C	1.536476	-0.488132	0.000023
C22	C	1.526711	-0.377339	0.000028
C23	C	1.406127	-0.310124	0.000033
C24	C	1.396364	-0.199329	0.000029
C25	C	1.627757	-0.222974	0.000029
C26	C	1.637522	-0.333767	0.000024
C27	C	1.696682	0.150207	0.000034
C28	C	1.835752	0.153329	0.000029
C29	C	1.436056	0.350373	0.000026
C30	C	1.425657	0.468290	0.000022
N31	N	1.466411	0.156262	0.356150
N32	N	1.466440	0.156269	-0.356087
C33	C	1.559627	0.084720	0.428080
C34	C	1.559639	0.084721	0.571963
C35	C	1.373214	0.227814	0.571973
C36	C	1.373198	0.227807	0.428093
H37	H	0.894211	-0.021743	0.000019
C38	C	1.270655	0.306509	0.348957
C39	C	1.168172	0.385254	0.428082
C40	C	1.065631	0.463947	0.348945
C41	C	1.065573	0.463896	0.190682
C42	C	1.168060	0.385149	0.111548
C43	C	1.270601	0.306455	0.190685
H44	H	1.168211	0.385294	0.545246
H45	H	0.989764	0.522241	0.407526
H46	H	0.989667	0.522150	0.132100
H47	H	1.168021	0.385109	-0.005615
H48	H	1.346468	0.248161	0.132104
C49	C	1.162683	-0.279752	0.000031
C50	C	1.068587	-0.285225	-0.118672
C51	C	0.935951	-0.211281	-0.118681
C52	C	0.897412	-0.131865	0.000012
C53	C	0.991510	-0.126390	0.118724
C54	C	1.124146	-0.200333	0.118733
H55	H	1.097114	-0.344016	-0.206543
H56	H	0.866294	-0.215335	-0.206559
H57	H	0.799227	-0.077128	0.000006
H58	H	0.962983	-0.067598	0.206595
H59	H	1.193803	-0.196279	0.206611
C60	C	1.662150	0.006014	0.348942
C61	C	1.673258	-0.114942	0.368745
C62	C	1.775781	-0.193654	0.289612
C63	C	1.867196	-0.151408	0.190676
C64	C	1.856091	-0.030446	0.170869
C65	C	1.753568	0.048266	0.250001
H66	H	1.605584	-0.146220	0.441988
H67	H	1.784001	-0.283198	0.304276
H68	H	1.943090	-0.209675	0.132097
H69	H	1.923765	0.000832	0.097626
H70	H	1.745348	0.137810	0.235338
H71	H	0.801575	0.328935	0.000031
H72	H	1.038619	0.334268	0.000012
H73	H	1.298178	-0.144605	0.000029
H74	H	1.131275	-0.016394	0.000018
H75	H	1.214847	-0.499960	0.000042
H76	H	1.634649	-0.542876	0.000035
H77	H	1.735698	-0.388507	0.000026
H78	H	1.717988	-0.187487	-0.000095
H79	H	1.635543	0.026464	0.630524
H80	H	1.297324	0.286066	0.630564
