data_functionalizedCrystal
_audit_creation_method	'MofGen! by Chris Wilmer'
_symmetry_space_group_name_H-M	'P1'
_symmetry_Int_Tables_number	1
_symmetry_cell_setting	triclinic
loop_
_symmetry_equiv_pos_as_xyz
  x,y,z
_cell_length_a	21.395364
_cell_length_b	19.120786
_cell_length_c	21.395355
_cell_angle_alpha	92.459295
_cell_angle_beta	90.024516
_cell_angle_gamma	92.460890
loop_
_atom_site_label
_atom_site_type_symbol
_atom_site_fract_x
_atom_site_fract_y
_atom_site_fract_z
Zn1	Zn	0.947234	-0.279788	0.343608
Zn2	Zn	1.280567	0.053545	0.676941
Zn3	Zn	1.613900	0.386879	1.010274
Zn4	Zn	0.942676	-0.397226	0.234359
Zn5	Zn	1.276009	-0.063893	0.567692
Zn6	Zn	1.609343	0.269440	0.901025
Zn7	Zn	0.842449	-0.279779	0.238845
Zn8	Zn	1.175782	0.053554	0.572178
Zn9	Zn	1.509116	0.386887	0.905511
Zn10	Zn	0.837959	-0.397200	0.339100
Zn11	Zn	1.171292	-0.063866	0.672433
Zn12	Zn	1.504625	0.269467	1.005767
O13	O	0.892579	-0.338498	0.288978
O14	O	1.225913	-0.005165	0.622311
O15	O	1.559246	0.328168	0.955644
O16	O	1.034306	-0.295381	0.329125
O17	O	1.367640	0.037952	0.662458
O18	O	1.700973	0.371286	0.995791
O19	O	0.929353	-0.381654	0.147275
O20	O	1.262686	-0.048321	0.480609
O21	O	1.596019	0.285012	0.813942
O22	O	0.860135	-0.181491	0.256506
O23	O	1.193469	0.151842	0.589839
O24	O	1.526802	0.485175	0.923172
O25	O	1.030958	-0.381663	0.248860
O26	O	1.364291	-0.048329	0.582193
O27	O	1.697625	0.285004	0.915526
O28	O	0.937120	-0.181498	0.333475
O29	O	1.270453	0.151836	0.666808
O30	O	1.603787	0.485169	1.000141
O31	O	0.855716	-0.295367	0.150571
O32	O	1.189049	0.037967	0.483905
O33	O	1.522383	0.371300	0.817238
O34	O	0.754176	-0.295341	0.252135
O35	O	1.087509	0.037993	0.585468
O36	O	1.420843	0.371326	0.918801
O37	O	0.852483	-0.381617	0.427376
O38	O	1.185816	-0.048284	0.760709
O39	O	1.519149	0.285050	1.094043
O40	O	0.750877	-0.381609	0.325792
O41	O	1.084210	-0.048275	0.659125
O42	O	1.417544	0.285058	0.992458
O43	O	0.932766	-0.295355	0.430688
O44	O	1.266100	0.037978	0.764021
O45	O	1.599433	0.371311	1.097355
O46	O	0.924999	-0.495512	0.244489
O47	O	1.258332	-0.162179	0.577822
O48	O	1.591665	0.171155	0.911155
O49	O	0.848063	-0.495492	0.321442
O50	O	1.181397	-0.162159	0.654775
O51	O	1.514730	0.171174	0.988108
C52	C	0.729793	-0.338471	0.288961
C53	C	1.063126	-0.005138	0.622295
C54	C	1.396459	0.328195	0.955628
C55	C	0.660151	-0.338477	0.288968
C56	C	0.993485	-0.005143	0.622302
C57	C	1.326818	0.328190	0.955635
C58	C	0.160093	-0.293678	0.330842
C59	C	0.493426	0.039656	0.664175
C60	C	0.826760	0.372989	0.997508
C61	C	0.225529	-0.293672	0.330842
C62	C	0.558862	0.039661	0.664175
C63	C	0.892195	0.372994	0.997508
C64	C	0.256511	-0.338520	0.288991
C65	C	0.589845	-0.005186	0.622324
C66	C	0.923178	0.328147	0.955658
C67	C	0.222052	-0.383389	0.247148
C68	C	0.555386	-0.050055	0.580481
C69	C	0.888719	0.283278	0.913815
C70	C	0.156618	-0.383398	0.247153
C71	C	0.489951	-0.050064	0.580487
C72	C	0.823284	0.283269	0.913820
C73	C	0.359941	-0.343959	0.232317
C74	C	0.693275	-0.010625	0.565650
C75	C	1.026608	0.322708	0.898983
C76	C	0.425375	-0.343945	0.232310
C77	C	0.758708	-0.010612	0.565644
C78	C	1.092041	0.322722	0.898977
C79	C	0.458333	-0.338496	0.288975
C80	C	0.791666	-0.005163	0.622308
C81	C	1.125000	0.328170	0.955641
C82	C	0.425850	-0.333047	0.345647
C83	C	0.759184	0.000286	0.678981
C84	C	1.092517	0.333620	1.012314
C85	C	0.360416	-0.333056	0.345653
C86	C	0.693749	0.000277	0.678986
C87	C	1.027082	0.333611	1.012319
C88	C	0.327464	-0.338515	0.288981
C89	C	0.660797	-0.005182	0.622314
C90	C	0.994131	0.328151	0.955647
C91	C	0.563737	-0.293628	0.330818
C92	C	0.897070	0.039705	0.664151
C93	C	1.230403	0.373038	0.997485
C94	C	0.629173	-0.293628	0.330819
C95	C	0.962507	0.039705	0.664152
C96	C	1.295840	0.373039	0.997486
C97	C	0.625696	-0.383341	0.247120
C98	C	0.959029	-0.050007	0.580453
C99	C	1.292362	0.283326	0.913786
C100	C	0.560260	-0.383345	0.247124
C101	C	0.893594	-0.050011	0.580457
C102	C	1.226927	0.283322	0.913791
C103	C	0.529285	-0.338485	0.288973
C104	C	0.862618	-0.005151	0.622306
C105	C	1.195951	0.328182	0.955639
C106	C	0.885566	-0.520988	0.282003
C107	C	1.218900	-0.187654	0.615336
C108	C	1.552233	0.145679	0.948670
C109	C	0.882623	-0.599057	0.279040
C110	C	1.215957	-0.265724	0.612373
C111	C	1.549290	0.067609	0.945707
C112	C	0.921293	-0.635677	0.317754
C113	C	1.254626	-0.302344	0.651087
C114	C	1.587959	0.030989	0.984421
C115	C	0.918525	-0.709032	0.314971
C116	C	1.251858	-0.375699	0.648305
C117	C	1.585192	-0.042365	0.981638
C118	C	0.877091	-0.745765	0.273471
C119	C	1.210424	-0.412432	0.606804
C120	C	1.543757	-0.079099	0.940137
C121	C	0.838417	-0.709140	0.234755
C122	C	1.171750	-0.375807	0.568088
C123	C	1.505084	-0.042473	0.901422
C124	C	0.841182	-0.635787	0.237541
C125	C	1.174515	-0.302453	0.570875
C126	C	1.507849	0.030880	0.904208
C127	C	0.866736	-0.967248	0.263054
C128	C	1.200069	-0.633915	0.596387
C129	C	1.533402	-0.300581	0.929721
C130	C	0.863975	-1.040607	0.260269
C131	C	1.197308	-0.707273	0.593602
C132	C	1.530642	-0.373940	0.926936
C133	C	0.944083	-1.040494	0.340486
C134	C	1.277416	-0.707160	0.673820
C135	C	1.610749	-0.373827	1.007153
C136	C	0.946846	-0.967139	0.343267
C137	C	1.280180	-0.633805	0.676600
C138	C	1.613513	-0.300472	1.009933
C139	C	0.908171	-0.930520	0.304553
C140	C	1.241504	-0.597187	0.637887
C141	C	1.574837	-0.263853	0.971220
C142	C	0.874262	-0.820746	0.270624
C143	C	1.207595	-0.487412	0.603957
C144	C	1.540929	-0.154079	0.937290
C145	C	0.910996	-0.855541	0.307404
C146	C	1.244330	-0.522208	0.640737
C147	C	1.577663	-0.188874	0.974070
C148	C	1.056002	-0.338526	0.288995
C149	C	1.389335	-0.005193	0.622328
C150	C	1.722668	0.328141	0.955661
C151	C	1.125642	-0.338538	0.289002
C152	C	1.458976	-0.005204	0.622335
C153	C	1.792309	0.328129	0.955668
C154	C	0.892632	-0.338484	0.452402
C155	C	1.225965	-0.005151	0.785735
C156	C	1.559299	0.328183	1.119068
C157	C	0.892654	-0.338478	0.522043
C158	C	1.225988	-0.005145	0.855376
C159	C	1.559321	0.328189	1.188710
C160	C	0.899637	-0.155296	0.295993
C161	C	1.232970	0.178037	0.629327
C162	C	1.566304	0.511370	0.962660
C163	C	0.902644	-0.077227	0.298983
C164	C	1.235978	0.256107	0.632316
C165	C	1.569311	0.589440	0.965650
C166	C	0.892565	-0.338462	0.126192
C167	C	1.225898	-0.005128	0.459525
C168	C	1.559232	0.328205	0.792858
C169	C	0.892672	-0.338270	0.056558
C170	C	1.226005	-0.004937	0.389891
C171	C	1.559338	0.328397	0.723225
C172	C	0.934456	-0.293560	0.556482
C173	C	1.267790	0.039774	0.889815
C174	C	1.601123	0.373107	1.223148
C175	C	0.934457	-0.293529	0.621918
C176	C	1.267790	0.039804	0.955252
C177	C	1.601123	0.373137	1.288585
C178	C	0.892661	-0.338430	0.652913
C179	C	1.225994	-0.005097	0.986247
C180	C	1.559328	0.328236	1.319580
C181	C	0.850851	-0.383352	0.618467
C182	C	1.184184	-0.050018	0.951800
C183	C	1.517518	0.283315	1.285133
C184	C	0.850848	-0.383376	0.553032
C185	C	1.184181	-0.050042	0.886365
C186	C	1.517514	0.283291	1.219698
C187	C	0.885283	-0.401673	0.754171
C188	C	1.218617	-0.068339	1.087504
C189	C	1.551950	0.264994	1.420837
C190	C	0.885291	-0.401650	0.819605
C191	C	1.218624	-0.068317	1.152938
C192	C	1.551958	0.265017	1.486271
C193	C	0.892668	-0.338356	0.854737
C194	C	1.226001	-0.005023	1.188070
C195	C	1.559334	0.328311	1.521404
C196	C	0.900050	-0.275083	0.824427
C197	C	1.233383	0.058251	1.157761
C198	C	1.566717	0.391584	1.491094
C199	C	0.900047	-0.275107	0.758992
C200	C	1.233380	0.058227	1.092326
C201	C	1.566713	0.391560	1.425659
C202	C	0.892660	-0.338409	0.723867
C203	C	1.225993	-0.005076	1.057200
C204	C	1.559326	0.328258	1.390533
C205	C	0.934472	-0.293401	0.960130
C206	C	1.267806	0.039932	1.293463
C207	C	1.601139	0.373266	1.626796
C208	C	0.934468	-0.293370	1.025567
C209	C	1.267802	0.039964	1.358901
C210	C	1.601135	0.373297	1.692234
C211	C	0.850866	-0.383198	1.022114
C212	C	1.184199	-0.049865	1.355448
C213	C	1.517532	0.283468	1.688781
C214	C	0.850867	-0.383223	0.956678
C215	C	1.184200	-0.049890	1.290011
C216	C	1.517533	0.283443	1.623345
C217	C	0.892673	-0.338326	0.925689
C218	C	1.226007	-0.004992	1.259023
C219	C	1.559340	0.328341	1.592356
H220	H	0.650921	-0.419862	0.213049
H221	H	0.984254	-0.086529	0.546382
H222	H	1.317588	0.246805	0.879715
H223	H	0.980586	-0.937232	0.377060
H224	H	1.313919	-0.603899	0.710393
H225	H	1.647252	-0.270565	1.043726
H226	H	0.955036	-0.605774	0.351546
H227	H	1.288369	-0.272441	0.684879
H228	H	1.621702	0.060893	1.018212
H229	H	0.835245	-0.937439	0.231531
H230	H	1.168579	-0.604105	0.564864
H231	H	1.501912	-0.270772	0.898197
H232	H	0.816830	-0.419805	0.928637
H233	H	1.150164	-0.086472	1.261971
H234	H	1.483497	0.246862	1.595304
H235	H	0.944730	-0.825631	0.341196
H236	H	1.278063	-0.492297	0.674529
H237	H	1.611397	-0.158964	1.007863
H238	H	0.906058	-0.223543	0.853031
H239	H	1.239391	0.109791	1.186364
H240	H	1.572724	0.443124	1.519698
H241	H	0.451817	-0.348378	0.186164
H242	H	0.785151	-0.015044	0.519498
H243	H	1.118484	0.318289	0.852831
H244	H	0.532210	-0.419872	0.213051
H245	H	0.865543	-0.086538	0.546384
H246	H	1.198877	0.246795	0.879718
H247	H	0.840528	-0.850662	0.236832
H248	H	1.173861	-0.517329	0.570165
H249	H	1.507194	-0.183995	0.903499
H250	H	0.879284	-0.453171	0.844278
H251	H	1.212617	-0.119838	1.177611
H252	H	1.545950	0.213496	1.510944
H253	H	0.968498	-0.256999	0.531255
H254	H	1.301831	0.076334	0.864589
H255	H	1.635165	0.409667	1.197922
H256	H	0.968496	-0.256948	0.649964
H257	H	1.301829	0.076386	0.983297
H258	H	1.635162	0.409719	1.316631
H259	H	0.906056	-0.223587	0.734317
H260	H	1.239389	0.109746	1.067650
H261	H	1.572722	0.443079	1.400984
H262	H	0.975570	-1.070317	0.372005
H263	H	1.308903	-0.736983	0.705339
H264	H	1.642236	-0.403650	1.038672
H265	H	0.452684	-0.328607	0.391789
H266	H	0.786017	0.004727	0.725122
H267	H	1.119350	0.338060	1.058455
H268	H	0.134877	-0.257152	0.364921
H269	H	0.468210	0.076181	0.698254
H270	H	0.801544	0.409515	1.031587
H271	H	0.968510	-0.256839	0.934898
H272	H	1.301844	0.076495	1.268231
H273	H	1.635177	0.409828	1.601564
H274	H	0.253584	-0.257139	0.364912
H275	H	0.586917	0.076195	0.698246
H276	H	0.920251	0.409528	1.031579
H277	H	0.879109	-0.453201	0.725572
H278	H	1.212443	-0.119868	1.058905
H279	H	1.545776	0.213465	1.392239
H280	H	0.968508	-0.256787	1.053607
H281	H	1.301841	0.076546	1.386940
H282	H	1.635174	0.409879	1.720273
H283	H	0.816829	-0.419750	1.047350
H284	H	1.150162	-0.086417	1.380683
H285	H	1.483495	0.246916	1.714017
H286	H	0.816819	-0.419908	0.643707
H287	H	1.150152	-0.086575	0.977040
H288	H	1.483485	0.246759	1.310374
H289	H	0.950019	-0.738845	0.346492
H290	H	1.283352	-0.405512	0.679825
H291	H	1.616685	-0.072178	1.013158
H292	H	0.816805	-0.419953	0.524992
H293	H	1.150138	-0.086619	0.858325
H294	H	1.483471	0.246714	1.191658
H295	H	0.333971	-0.328620	0.391797
H296	H	0.667304	0.004713	0.725131
H297	H	1.000638	0.338046	1.058464
H298	H	0.830231	-1.070513	0.226474
H299	H	1.163564	-0.737180	0.559807
H300	H	1.496898	-0.403846	0.893140
H301	H	0.247282	-0.419906	0.213074
H302	H	0.580616	-0.086572	0.546408
H303	H	0.913949	0.246761	0.879741
H304	H	0.538515	-0.257101	0.364894
H305	H	0.871848	0.076233	0.698227
H306	H	1.205182	0.409566	1.031560
H307	H	0.809692	-0.605971	0.206017
H308	H	1.143026	-0.272638	0.539350
H309	H	1.476359	0.060695	0.872684
H310	H	0.333112	-0.348398	0.186171
H311	H	0.666445	-0.015065	0.519504
H312	H	0.999779	0.318268	0.852837
H313	H	0.128568	-0.419929	0.213081
H314	H	0.461901	-0.086596	0.546415
H315	H	0.795235	0.246737	0.879748
H316	H	0.804678	-0.739054	0.200967
H317	H	1.138011	-0.405721	0.534300
H318	H	1.471344	-0.072387	0.867634
H319	H	0.657222	-0.257100	0.364894
H320	H	0.990555	0.076234	0.698228
H321	H	1.323889	0.409567	1.031561
