data_functionalizedCrystal
_audit_creation_method	'MofGen! by Chris Wilmer'
_symmetry_space_group_name_H-M	'P1'
_symmetry_Int_Tables_number	1
_symmetry_cell_setting	triclinic
loop_
_symmetry_equiv_pos_as_xyz
  x,y,z
_cell_length_a	19.121275
_cell_length_b	19.121063
_cell_length_c	13.897441
_cell_angle_alpha	92.405670
_cell_angle_beta	92.419189
_cell_angle_gamma	89.926756
loop_
_atom_site_label
_atom_site_type_symbol
_atom_site_fract_x
_atom_site_fract_y
_atom_site_fract_z
Zn1	Zn	1.059828	-0.324789	-0.502259
Zn2	Zn	1.559828	0.175211	-0.002259
Zn3	Zn	1.054729	-0.442035	-0.348113
Zn4	Zn	1.554729	0.057965	0.151887
Zn5	Zn	0.942590	-0.319820	-0.347557
Zn6	Zn	1.442590	0.180180	0.152443
Zn7	Zn	0.937558	-0.436989	-0.515938
Zn8	Zn	1.437558	0.063011	-0.015938
O9	O	0.998676	-0.380908	-0.428467
O10	O	1.498676	0.119092	0.071533
O11	O	1.157253	-0.344533	-0.476319
O12	O	1.657253	0.155467	0.023681
O13	O	1.039826	-0.425855	-0.213061
O14	O	1.539826	0.074145	0.286939
O15	O	0.962381	-0.222375	-0.362121
O16	O	1.462381	0.277625	0.137879
O17	O	1.153507	-0.430673	-0.363069
O18	O	1.653507	0.069327	0.136931
O19	O	1.048516	-0.226026	-0.475779
O20	O	1.548516	0.273974	0.024221
O21	O	0.957437	-0.336064	-0.212653
O22	O	1.457437	0.163936	0.287347
O23	O	0.843821	-0.331171	-0.375385
O24	O	1.343821	0.168829	0.124615
O25	O	0.953806	-0.422073	-0.649101
O26	O	1.453806	0.077927	-0.149101
O27	O	0.840124	-0.417255	-0.499094
O28	O	1.340124	0.082745	0.000906
O29	O	1.043637	-0.339640	-0.639051
O30	O	1.543637	0.160360	-0.139051
O31	O	1.034947	-0.539469	-0.376333
O32	O	1.534947	-0.039469	0.123667
O33	O	0.948861	-0.535762	-0.499633
O34	O	1.448861	-0.035762	0.000367
C35	C	0.816536	-0.373127	-0.438664
C36	C	1.316536	0.126873	0.061336
C37	C	0.738615	-0.369815	-0.443051
C38	C	1.238615	0.130185	0.056949
C39	C	0.700057	-0.413035	-0.386052
C40	C	1.200057	0.086965	0.113948
C41	C	0.626842	-0.409923	-0.390186
C42	C	1.126842	0.090077	0.109814
C43	C	0.592186	-0.363588	-0.451314
C44	C	1.092186	0.136412	0.048686
C45	C	0.630749	-0.320366	-0.508319
C46	C	1.130749	0.179634	-0.008319
C47	C	0.703962	-0.323482	-0.504190
C48	C	1.203962	0.176518	-0.004190
C49	C	0.371225	-0.351943	-0.466743
C50	C	0.871225	0.148057	0.033257
C51	C	0.298006	-0.348829	-0.470866
C52	C	0.798006	0.151171	0.029134
C53	C	0.294104	-0.438388	-0.352734
C54	C	0.794104	0.061612	0.147266
C55	C	0.367320	-0.441496	-0.348605
C56	C	0.867320	0.058504	0.151395
C57	C	0.405876	-0.398277	-0.405614
C58	C	0.905876	0.101723	0.094386
C59	C	0.517348	-0.360404	-0.455540
C60	C	1.017348	0.139596	0.044460
C61	C	0.480712	-0.401465	-0.401393
C62	C	0.980712	0.098535	0.098607
C63	C	0.990824	-0.563053	-0.439548
C64	C	1.490824	-0.063053	0.060452
C65	C	0.987529	-0.640979	-0.444317
C66	C	1.487529	-0.140979	0.055683
C67	C	1.030835	-0.679496	-0.382411
C68	C	1.530835	-0.179496	0.117589
C69	C	1.027740	-0.752715	-0.386902
C70	C	1.527740	-0.252715	0.113098
C71	C	0.981335	-0.787415	-0.453295
C72	C	1.481335	-0.287415	0.046705
C73	C	0.938026	-0.748892	-0.515207
C74	C	1.438026	-0.248892	-0.015207
C75	C	0.941125	-0.675675	-0.510720
C76	C	1.441125	-0.175675	-0.010720
C77	C	0.969737	-1.008390	-0.470056
C78	C	1.469737	-0.508390	0.029944
C79	C	0.966639	-1.081612	-0.474536
C80	C	1.466639	-0.581612	0.025464
C81	C	1.056355	-1.085430	-0.346232
C82	C	1.556355	-0.585430	0.153768
C83	C	1.059447	-1.012211	-0.341747
C84	C	1.559447	-0.512211	0.158253
C85	C	1.016141	-0.973695	-0.403662
C86	C	1.516141	-0.473695	0.096338
C87	C	0.978168	-0.862257	-0.457885
C88	C	1.478168	-0.362257	0.042115
C89	C	1.019311	-0.898855	-0.399077
C90	C	1.519311	-0.398855	0.100923
C91	C	1.181528	-0.388720	-0.418230
C92	C	1.681528	0.111280	0.081770
C93	C	1.259448	-0.392049	-0.413868
C94	C	1.759448	0.107951	0.086132
C95	C	0.998729	-0.380848	-0.680053
C96	C	1.498729	0.119152	-0.180053
C97	C	0.998751	-0.380823	-0.787264
C98	C	1.498751	0.119177	-0.287264
C99	C	1.006579	-0.198052	-0.417362
C100	C	1.506579	0.301948	0.082638
C101	C	1.009946	-0.120130	-0.412630
C102	C	1.509946	0.379870	0.087370
C103	C	0.998772	-0.380776	-0.983556
C104	C	1.498772	0.119224	-0.483556
C105	C	0.998758	-0.380804	-0.874326
C106	C	1.498758	0.119196	-0.374326
C107	C	0.998667	-0.380919	-0.177854
C108	C	1.498667	0.119081	0.322146
C109	C	0.998789	-0.380753	-0.070623
C110	C	1.498789	0.119247	0.429377
H111	H	0.489123	-0.322677	-0.505309
H112	H	0.989123	0.177323	-0.005309
H113	H	0.728269	-0.450763	-0.336271
H114	H	1.228269	0.049237	0.163729
Cl115	Cl	0.879691	-0.792515	-0.598679
Cl116	Cl	1.379691	-0.292515	-0.098679
Cl117	Cl	0.752435	-0.269148	-0.575851
Cl118	Cl	1.252435	0.230852	-0.075851
Cl119	Cl	0.908287	-1.125234	-0.557996
Cl120	Cl	1.408287	-0.625234	-0.057996
H121	H	1.097234	-0.983960	-0.287684
H122	H	1.597234	-0.483960	0.212316
Cl123	Cl	0.915293	-0.959979	-0.547892
Cl124	Cl	1.415293	-0.459979	-0.047892
H125	H	0.905861	-0.644314	-0.561132
H126	H	1.405861	-0.144314	-0.061132
Cl127	Cl	1.077651	-0.855231	-0.315618
Cl128	Cl	1.577651	-0.355231	0.184382
H129	H	0.508932	-0.439194	-0.351628
H130	H	1.008932	0.060806	0.148372
H131	H	0.395531	-0.479227	-0.298827
H132	H	0.895531	0.020773	0.201173
Cl133	Cl	1.082188	-0.801135	-0.309076
Cl134	Cl	1.582188	-0.301135	0.190924
Cl135	Cl	1.089173	-0.635881	-0.298936
Cl136	Cl	1.589173	-0.135881	0.201064
H137	H	0.595451	-0.445117	-0.343772
H138	H	1.095451	0.054883	0.156228
Cl139	Cl	1.110798	-1.133855	-0.268406
Cl140	Cl	1.610798	-0.633855	0.231594
Cl141	Cl	0.919831	-0.905886	-0.541347
Cl142	Cl	1.419831	-0.405886	-0.041347
H143	H	0.262704	-0.473575	-0.306322
H144	H	0.762704	0.026425	0.193678
H145	H	0.402609	-0.316752	-0.513165
H146	H	0.902609	0.183248	-0.013165
Cl147	Cl	0.587181	-0.262121	-0.585175
Cl148	Cl	1.087181	0.237879	-0.085175
Cl149	Cl	0.254440	-0.290571	-0.547714
Cl150	Cl	0.754440	0.209429	-0.047714
