data_functionalizedCrystal
_audit_creation_method	'MofGen! by Chris Wilmer'
_symmetry_space_group_name_H-M	'P1'
_symmetry_Int_Tables_number	1
_symmetry_cell_setting	triclinic
loop_
_symmetry_equiv_pos_as_xyz
  x,y,z
_cell_length_a	16.625545
_cell_length_b	18.050591
_cell_length_c	16.625539
_cell_angle_alpha	89.987293
_cell_angle_beta	89.973757
_cell_angle_gamma	90.024399
loop_
_atom_site_label
_atom_site_type_symbol
_atom_site_fract_x
_atom_site_fract_y
_atom_site_fract_z
Zn1	Zn	-0.321040	1.135322	-0.455817
Zn2	Zn	-0.455879	1.135234	-0.320985
Zn3	Zn	-0.321061	1.011137	-0.321008
Zn4	Zn	-0.455832	1.011095	-0.455785
O5	O	-0.388453	1.073197	-0.388398
O6	O	-0.338938	1.239235	-0.437935
O7	O	-0.438023	1.118753	-0.208155
O8	O	-0.208226	1.027664	-0.338914
O9	O	-0.438003	1.239170	-0.338874
O10	O	-0.208210	1.118903	-0.437957
O11	O	-0.338973	1.027579	-0.208172
O12	O	-0.338928	0.907207	-0.338882
O13	O	-0.437923	1.027594	-0.568621
O14	O	-0.437943	0.907176	-0.437902
O15	O	-0.338892	1.118863	-0.568645
O16	O	-0.568705	1.118712	-0.338843
O17	O	-0.568670	1.027508	-0.437880
C18	C	-0.388433	0.880245	-0.388392
C19	C	-0.388444	0.797699	-0.388408
C20	C	-0.442400	0.548878	-0.442182
C21	C	-0.462026	0.598247	-0.368586
C22	C	-0.388469	0.500579	-0.388407
C23	C	-0.368869	0.598292	-0.461999
C24	C	-0.388459	0.646564	-0.388411
C25	C	-0.408134	0.548860	-0.314772
C26	C	-0.314942	0.548901	-0.408234
C27	C	-0.334540	0.598247	-0.334588
C28	C	-0.388478	0.416480	-0.388405
C29	C	-0.388451	0.730660	-0.388405
C30	C	-0.597944	1.073116	-0.388373
C31	C	-0.687565	1.073150	-0.388389
C32	C	-0.760347	1.073178	-0.388405
C33	C	-0.851656	1.073222	-0.388423
C34	C	-0.924432	1.073260	-0.388433
C35	C	-1.015746	1.073303	-0.388450
C36	C	-0.178144	1.073298	-0.388442
C37	C	-0.088523	1.073341	-0.388460
C38	C	-0.388400	1.073233	-0.598707
C39	C	-0.388377	1.073249	-0.688329
C40	C	-0.388473	1.266902	-0.388406
C41	C	-0.388482	1.349448	-0.388409
C42	C	-0.388359	1.073261	-0.761111
C43	C	-0.388329	1.073278	-0.852420
C44	C	-0.388301	1.073296	-0.925196
C45	C	-0.388272	1.073314	-1.016510
C46	C	-0.388448	1.073203	-0.178908
C47	C	-0.388243	1.073332	-0.089287
H48	H	-0.352295	0.620005	-0.524233
C49	C	-0.430180	0.520077	-0.231707
C50	C	-0.373940	0.545658	-0.175532
C51	C	-0.394220	0.519149	-0.099011
H52	H	-0.482217	0.537366	-0.217428
H53	H	-0.430036	0.467446	-0.232182
H54	H	-0.374093	0.598278	-0.175055
H55	H	-0.321899	0.528371	-0.189785
H56	H	-0.394076	0.466518	-0.099485
H57	H	-0.446258	0.536440	-0.084739
H58	H	-0.356061	0.536496	-0.060888
C59	C	-0.503388	0.520008	-0.502634
C60	C	-0.580256	0.544997	-0.481496
C61	C	-0.636460	0.518408	-0.537155
H62	H	-0.490088	0.537642	-0.554809
H63	H	-0.502679	0.467379	-0.502543
H64	H	-0.580963	0.597615	-0.481596
H65	H	-0.593581	0.527365	-0.429330
H66	H	-0.635751	0.465779	-0.537063
H67	H	-0.623152	0.536044	-0.589326
H68	H	-0.688622	0.535353	-0.522816
H69	H	-0.288928	0.619786	-0.289061
C70	C	-0.544868	0.627198	-0.346062
C71	C	-0.539167	0.669810	-0.275935
C72	C	-0.615467	0.696481	-0.255162
H73	H	-0.565196	0.656943	-0.388576
H74	H	-0.580163	0.586634	-0.337012
H75	H	-0.503884	0.710368	-0.284989
H76	H	-0.518853	0.640080	-0.233406
H77	H	-0.650762	0.655917	-0.246112
H78	H	-0.635788	0.726223	-0.297681
H79	H	-0.611610	0.725390	-0.207576
C80	C	-0.232091	0.520008	-0.430792
C81	C	-0.211885	0.544995	-0.507933
C82	C	-0.135573	0.518384	-0.528753
H83	H	-0.193560	0.537629	-0.393206
H84	H	-0.232569	0.467379	-0.430187
H85	H	-0.211400	0.597613	-0.508532
H86	H	-0.250395	0.527376	-0.545536
H87	H	-0.136051	0.465755	-0.528149
H88	H	-0.097049	0.536006	-0.491163
H89	H	-0.121856	0.535328	-0.581098
