data_functionalizedCrystal
_audit_creation_method	'MofGen! by Chris Wilmer'
_symmetry_space_group_name_H-M	'P1'
_symmetry_Int_Tables_number	1
_symmetry_cell_setting	triclinic
loop_
_symmetry_equiv_pos_as_xyz
  x,y,z
_cell_length_a	13.635800
_cell_length_b	17.110477
_cell_length_c	17.078481
_cell_angle_alpha	83.093745
_cell_angle_beta	99.306161
_cell_angle_gamma	80.939702
loop_
_atom_site_label
_atom_site_type_symbol
_atom_site_fract_x
_atom_site_fract_y
_atom_site_fract_z
V1	V	1.978826	-0.109298	0.247259
O2	O	1.984570	0.005442	0.242658
O3	O	1.943924	-0.216902	0.245467
O4	O	1.944526	-0.107533	0.355144
O5	O	1.983964	-0.104684	0.132222
V6	V	2.223335	-0.095584	0.233512
O7	O	2.103427	-0.139382	0.277415
O8	O	2.323832	-0.065500	0.203357
O9	O	2.146634	0.012021	0.235305
O10	O	2.276289	-0.210324	0.238114
O11	O	2.276895	-0.100198	0.348550
O12	O	2.146031	-0.097348	0.125628
C13	C	1.864147	-0.243137	0.241540
C14	C	1.876187	-0.331104	0.240794
C15	C	1.864915	-0.103625	0.381443
C16	C	1.877442	-0.102894	0.469639
V17	V	2.478826	-0.109298	0.247259
O18	O	2.484570	0.005442	0.242658
O19	O	2.443924	-0.216902	0.245467
O20	O	2.444526	-0.107533	0.355144
O21	O	2.483964	-0.104684	0.132222
V22	V	2.723335	-0.095584	0.233512
O23	O	2.603427	-0.139382	0.277415
O24	O	2.823832	-0.065500	0.203357
O25	O	2.646634	0.012021	0.235305
O26	O	2.776289	-0.210324	0.238114
O27	O	2.776895	-0.100198	0.348550
O28	O	2.646031	-0.097348	0.125628
C29	C	1.972115	-0.376459	0.244397
C30	C	1.983423	-0.459114	0.243700
C31	C	1.898800	-0.496412	0.239395
C32	C	1.802864	-0.451052	0.235795
C33	C	1.791559	-0.368399	0.236497
C34	C	1.928419	-0.745769	0.237082
C35	C	1.939731	-0.828428	0.236378
C36	C	2.120289	-0.836485	0.244285
C37	C	2.108975	-0.753829	0.244982
C38	C	2.013042	-0.708477	0.241386
C39	C	1.910355	-0.580898	0.238681
C40	C	2.001489	-0.623993	0.242106
C41	C	2.058081	0.038251	0.239229
C42	C	2.035659	0.126217	0.239981
C43	C	2.057313	-0.101260	0.099324
C44	C	2.034406	-0.101986	0.011128
C45	C	2.364147	-0.243137	0.241540
C46	C	2.376187	-0.331104	0.240794
C47	C	2.364915	-0.103625	0.381443
C48	C	2.377442	-0.102894	0.469639
C49	C	1.973601	-0.106501	0.515111
C50	C	1.985366	-0.105813	0.597980
C51	C	1.900971	-0.101525	0.635376
C52	C	1.804805	-0.097916	0.589897
C53	C	1.793041	-0.098597	0.507029
C54	C	1.926475	-0.099058	0.882781
C55	C	1.938247	-0.098380	0.965656
C56	C	2.118807	-0.106276	0.973733
C57	C	2.107035	-0.106962	0.890864
C58	C	2.010869	-0.103348	0.845391
N59	N	1.912995	-0.100825	0.720081
N60	N	1.998846	-0.104042	0.760687
C61	C	2.558081	0.038251	0.239229
C62	C	2.535659	0.126217	0.239981
C63	C	2.557313	-0.101260	0.099324
C64	C	2.534406	-0.101986	0.011128
C65	C	2.472124	-0.376446	0.244404
C66	C	2.483453	-0.459103	0.243715
C67	C	2.398842	-0.496416	0.239410
C68	C	2.302898	-0.451068	0.235803
C69	C	2.291571	-0.368413	0.236498
C70	C	2.473608	-0.106493	0.515096
C71	C	2.485391	-0.105796	0.597964
C72	C	2.401008	-0.101505	0.635374
C73	C	2.304835	-0.097904	0.589910
C74	C	2.293052	-0.098595	0.507043
C75	C	2.612216	0.171559	0.236373
C76	C	2.591159	0.254216	0.237066
C77	C	2.493546	0.291528	0.241372
C78	C	2.416984	0.246181	0.244978
C79	C	2.438040	0.163527	0.244279
C80	C	2.436557	-0.106268	-0.026261
C81	C	2.415016	-0.106941	-0.109132
C82	C	2.491328	-0.103339	-0.154611
C83	C	2.589184	-0.099055	-0.117217
C84	C	2.610721	-0.098376	-0.034348
H85	H	2.041025	-0.346096	0.247895
H86	H	2.651310	-0.096120	-0.154259
H87	H	2.214742	-0.095666	0.470037
C88	C	1.711973	-0.093201	0.631030
H89	H	1.732751	-0.093320	0.686898
H90	H	1.665442	-0.045338	0.608588
H91	H	1.680463	-0.138051	0.622990
C92	C	2.224583	-0.110252	1.023750
H93	H	2.273160	-0.112911	0.989611
H94	H	2.225428	-0.063800	1.049047
H95	H	2.240427	-0.156513	1.063444
H96	H	2.335332	-0.110430	-0.139566
C97	C	2.212056	-0.093396	0.631097
H98	H	2.153097	-0.091410	0.592170
H99	H	2.220585	-0.139389	0.670405
H100	H	2.205248	-0.046660	0.656128
C101	C	2.209835	-0.492118	0.231061
H102	H	2.230330	-0.547836	0.231154
H103	H	2.178595	-0.484121	0.276017
H104	H	2.163170	-0.469731	0.183067
H105	H	2.410616	-0.100943	0.702851
H106	H	1.869517	-0.094885	0.996100
C107	C	1.686041	-0.318505	0.232533
H108	H	1.691428	-0.263940	0.233576
H109	H	1.643073	-0.323197	0.184322
H110	H	1.658529	-0.337592	0.277273
H111	H	2.541029	-0.346077	0.247904
H112	H	2.476414	0.358831	0.241940
H113	H	2.691703	0.141191	0.232867
H114	H	1.714736	-0.095641	0.470003
C115	C	2.202058	-0.712803	0.249718
H116	H	2.181584	-0.657081	0.249613
H117	H	2.248731	-0.735197	0.297699
H118	H	2.233275	-0.720810	0.204748
H119	H	2.653512	0.291127	0.234131
H120	H	2.563707	-0.108732	0.634971
H121	H	1.733965	-0.481427	0.232294
H122	H	2.337507	0.276573	0.248483
H123	H	2.375695	0.126614	0.247224
C124	C	1.846642	-0.869455	0.231645
H125	H	1.787890	-0.830609	0.229611
H126	H	1.839575	-0.894334	0.184733
H127	H	1.855032	-0.908728	0.277685
C128	C	2.566434	-0.111209	0.473957
H129	H	2.545658	-0.111112	0.418093
H130	H	2.597943	-0.066361	0.481989
H131	H	2.612968	-0.159074	0.496406
H132	H	2.213446	-0.331501	0.233554
C133	C	2.718363	-0.093680	0.006773
H134	H	2.760721	-0.091642	-0.032185
H135	H	2.716676	-0.046901	0.031735
H136	H	2.744109	-0.139616	0.046129
H137	H	2.561582	-0.496014	0.246650
H138	H	2.061536	-0.496039	0.246636
H139	H	2.408079	-0.563719	0.238845
H140	H	2.473780	-0.103902	-0.222086
C141	C	2.225809	-0.886375	0.248253
H142	H	2.220427	-0.940943	0.247226
H143	H	2.253333	-0.867293	0.203524
H144	H	2.268765	-0.881679	0.296474
C145	C	1.822897	-0.695891	0.233119
H146	H	1.774120	-0.729943	0.230446
H147	H	1.822452	-0.670676	0.279702
H148	H	1.807009	-0.656285	0.186751
H149	H	2.070388	-0.593622	0.245615
H150	H	1.841457	-0.611275	0.235173
H151	H	2.374407	-0.109201	0.010758
C152	C	2.066437	-0.111218	0.473983
H153	H	2.125389	-0.113261	0.512935
H154	H	2.073110	-0.158001	0.449027
H155	H	2.058093	-0.065288	0.434622
C156	C	1.820706	-0.095116	0.832774
H157	H	1.825779	-0.096135	0.778064
H158	H	1.793070	-0.139745	0.851909
H159	H	1.778016	-0.047030	0.837486
C160	C	2.199868	-0.111667	0.849732
H161	H	2.258822	-0.113708	0.888682
H162	H	2.206543	-0.158448	0.824772
H163	H	2.191516	-0.065734	0.810373
H164	H	2.063666	-0.108746	0.635000
