data_functionalizedCrystal
_audit_creation_method	'MofGen! by Chris Wilmer'
_symmetry_space_group_name_H-M	'P1'
_symmetry_Int_Tables_number	1
_symmetry_cell_setting	triclinic
loop_
_symmetry_equiv_pos_as_xyz
  x,y,z
_cell_length_a	19.805407
_cell_length_b	19.120786
_cell_length_c	19.805399
_cell_angle_alpha	87.531070
_cell_angle_beta	89.982197
_cell_angle_gamma	92.462474
loop_
_atom_site_label
_atom_site_type_symbol
_atom_site_fract_x
_atom_site_fract_y
_atom_site_fract_z
Zn1	Zn	1.023242	-0.279696	-0.371182
Zn2	Zn	1.523242	0.220304	0.128818
Zn3	Zn	1.018330	-0.397155	-0.253161
Zn4	Zn	1.518330	0.102845	0.246839
Zn5	Zn	0.910056	-0.279710	-0.258009
Zn6	Zn	1.410056	0.220290	0.241991
Zn7	Zn	0.905195	-0.397112	-0.366313
Zn8	Zn	1.405195	0.102888	0.133687
O9	O	0.964206	-0.338418	-0.312166
O10	O	1.464206	0.161582	0.187834
O11	O	1.117306	-0.295289	-0.355535
O12	O	1.617306	0.204711	0.144465
O13	O	1.003946	-0.381599	-0.159087
O14	O	1.503946	0.118401	0.340913
O15	O	0.929160	-0.181418	-0.277088
O16	O	1.429160	0.318582	0.222912
O17	O	1.113698	-0.381586	-0.268826
O18	O	1.613698	0.118414	0.231174
O19	O	1.012318	-0.181408	-0.360235
O20	O	1.512318	0.318592	0.139765
O21	O	0.924397	-0.295313	-0.162649
O22	O	1.424397	0.204687	0.337351
O23	O	0.814695	-0.295271	-0.272367
O24	O	1.314695	0.204729	0.227633
O25	O	0.920876	-0.381513	-0.461677
O26	O	1.420876	0.118487	0.038323
O27	O	0.811124	-0.381526	-0.351938
O28	O	1.311124	0.118474	0.148062
O29	O	1.007604	-0.295248	-0.465253
O30	O	1.507604	0.204752	0.034747
O31	O	0.999232	-0.495439	-0.264105
O32	O	1.499232	0.004561	0.235895
O33	O	0.916113	-0.495408	-0.347237
O34	O	1.416113	0.004592	0.152763
C35	C	0.788351	-0.338396	-0.312151
C36	C	1.288351	0.161604	0.187849
C37	C	0.713118	-0.338404	-0.312160
C38	C	1.213118	0.161596	0.187840
C39	C	0.679651	-0.293549	-0.357372
C40	C	1.179651	0.206451	0.142628
C41	C	0.608962	-0.293552	-0.357374
C42	C	1.108962	0.206448	0.142626
C43	C	0.571742	-0.338415	-0.312167
C44	C	1.071742	0.161585	0.187833
C45	C	0.605215	-0.383272	-0.266951
C46	C	1.105215	0.116728	0.233049
C47	C	0.675902	-0.383264	-0.266945
C48	C	1.175902	0.116736	0.233055
C49	C	0.320140	-0.383304	-0.266970
C50	C	0.820140	0.116696	0.233030
C51	C	0.249448	-0.383309	-0.266980
C52	C	0.749448	0.116691	0.233020
C53	C	0.253200	-0.293592	-0.357399
C54	C	0.753200	0.206408	0.142601
C55	C	0.323887	-0.293584	-0.357393
C56	C	0.823887	0.206416	0.142607
C57	C	0.357354	-0.338438	-0.312175
C58	C	0.857354	0.161562	0.187825
C59	C	0.434003	-0.338432	-0.312172
C60	C	0.934003	0.161568	0.187828
C61	C	0.495095	-0.338425	-0.312173
C62	C	0.995095	0.161575	0.187827
C63	C	0.956630	-0.520909	-0.304632
C64	C	1.456630	-0.020909	0.195368
C65	C	0.953452	-0.598979	-0.301431
C66	C	1.453452	-0.098979	0.198569
C67	C	0.995221	-0.635591	-0.343253
C68	C	1.495221	-0.135591	0.156747
C69	C	0.992232	-0.708946	-0.340247
C70	C	1.492232	-0.208946	0.159753
C71	C	0.947475	-0.745688	-0.295415
C72	C	1.447475	-0.245688	0.204585
C73	C	0.905701	-0.709071	-0.253591
C74	C	1.405701	-0.209071	0.246409
C75	C	0.908688	-0.635717	-0.256601
C76	C	1.408688	-0.135717	0.243399
C77	C	0.936290	-0.967173	-0.284162
C78	C	1.436290	-0.467173	0.215838
C79	C	0.933308	-1.040533	-0.281153
C80	C	1.433308	-0.540533	0.218847
C81	C	1.019838	-1.040402	-0.367810
C82	C	1.519838	-0.540402	0.132190
C83	C	1.022824	-0.967047	-0.370813
C84	C	1.522824	-0.467047	0.129187
C85	C	0.981047	-0.930436	-0.328992
C86	C	1.481047	-0.430436	0.171008
C87	C	0.944420	-0.820669	-0.292339
C88	C	1.444420	-0.320669	0.207661
C89	C	0.984099	-0.855457	-0.332072
C90	C	1.484099	-0.355457	0.167928
C91	C	1.140748	-0.338441	-0.312182
C92	C	1.640748	0.161559	0.187818
C93	C	1.215979	-0.338450	-0.312189
C94	C	1.715979	0.161550	0.187811
C95	C	0.964246	-0.338374	-0.488711
C96	C	1.464246	0.161626	0.011289
C97	C	0.964262	-0.338355	-0.563944
C98	C	1.464262	0.161645	-0.063944
C99	C	0.971829	-0.155215	-0.319745
C100	C	1.471829	0.344785	0.180255
C101	C	0.975078	-0.077144	-0.322975
C102	C	1.475078	0.422856	0.177025
C103	C	1.009423	-0.293435	-0.601152
C104	C	1.509423	0.206565	-0.101152
C105	C	1.009431	-0.293414	-0.671841
C106	C	1.509431	0.206586	-0.171841
C107	C	0.964281	-0.338318	-0.705321
C108	C	1.464281	0.161682	-0.205321
C109	C	0.919115	-0.383241	-0.668108
C110	C	1.419115	0.116759	-0.168108
C111	C	0.919105	-0.383257	-0.597420
C112	C	1.419105	0.116743	-0.097420
C113	C	0.919156	-0.383175	-0.953184
C114	C	1.419156	0.116825	-0.453184
C115	C	0.919172	-0.383157	-1.023877
C116	C	1.419172	0.116843	-0.523877
C117	C	1.009482	-0.293332	-1.027605
C118	C	1.509482	0.206668	-0.527605
C119	C	1.009472	-0.293349	-0.956917
C120	C	1.509472	0.206651	-0.456917
C121	C	0.964304	-0.338268	-0.919711
C122	C	1.464304	0.161732	-0.419711
C123	C	0.964295	-0.338289	-0.843061
C124	C	1.464295	0.161711	-0.343061
C125	C	0.964292	-0.338302	-0.781969
C126	C	1.464292	0.161698	-0.281969
C127	C	0.964207	-0.338412	-0.136311
C128	C	1.464207	0.161588	0.363689
C129	C	0.964329	-0.338232	-0.061087
C130	C	1.464329	0.161768	0.438913
H131	H	1.031670	-0.605680	-0.379757
H132	H	1.531670	-0.105680	0.120243
H133	H	1.053850	-1.070219	-0.401859
H134	H	1.553850	-0.570219	0.098141
H135	H	0.882351	-0.419800	-0.695374
H136	H	1.382351	0.080200	-0.195374
H137	H	0.581716	-0.257028	-0.394191
H138	H	1.081716	0.242972	0.105809
O139	O	0.359966	-0.250038	-0.401399
O140	O	0.859966	0.249962	0.098601
C141	C	0.342094	-0.265491	-0.468200
C142	C	0.842094	0.234509	0.031800
H143	H	0.289653	-0.292499	-0.468452
H144	H	0.789653	0.207501	0.031548
H145	H	0.341785	-0.214839	-0.500719
H146	H	0.841785	0.285161	-0.000719
H147	H	0.380391	-0.301628	-0.489445
H148	H	0.880391	0.198372	0.010555
H149	H	0.896859	-1.070446	-0.244645
H150	H	1.396859	-0.570446	0.255355
H151	H	0.225943	-0.257067	-0.394216
H152	H	0.725943	0.242933	0.105784
H153	H	0.219145	-0.419844	-0.230165
H154	H	0.719145	0.080156	0.269835
H155	H	1.046240	-0.256786	-0.929661
H156	H	1.546240	0.243214	-0.429661
H157	H	0.347380	-0.419827	-0.230151
H158	H	0.847380	0.080173	0.269849
O159	O	0.568958	-0.426829	-0.223100
O160	O	1.068958	0.073171	0.276900
C161	C	0.499391	-0.417208	-0.232788
C162	C	0.999391	0.082792	0.267212
H163	H	0.490706	-0.394277	-0.286007
H164	H	0.990706	0.105723	0.213993
H165	H	0.470347	-0.469817	-0.225944
H166	H	0.970347	0.030183	0.274056
H167	H	0.480865	-0.379751	-0.194249
H168	H	0.980865	0.120249	0.305751
H169	H	0.703151	-0.419790	-0.230129
H170	H	1.203151	0.080210	0.269871
O171	O	0.900914	-0.856441	-0.248876
O172	O	1.400914	-0.356441	0.251124
C173	C	0.855436	-0.898873	-0.285631
C174	C	1.355436	-0.398873	0.214369
H175	H	0.878828	-0.909801	-0.336502
H176	H	1.378828	-0.409801	0.163498
H177	H	0.844290	-0.950484	-0.255940
H178	H	1.344290	-0.450484	0.244060
H179	H	0.806418	-0.870645	-0.294171
H180	H	1.306418	-0.370645	0.205829
H181	H	1.046192	-0.256871	-0.573897
H182	H	1.546192	0.243129	-0.073897
H183	H	1.026250	-0.738753	-0.374297
H184	H	1.526250	-0.238753	0.125703
O185	O	1.066320	-0.931466	-0.414420
O186	O	1.566320	-0.431466	0.085580
C187	C	1.102562	-0.979512	-0.450675
C188	C	1.602562	-0.479512	0.049325
H189	H	1.072706	-1.031822	-0.450855
H190	H	1.572706	-0.531822	0.049145
H191	H	1.110624	-0.958275	-0.504879
H192	H	1.610624	-0.458275	-0.004879
H193	H	1.153662	-0.987289	-0.425609
H194	H	1.653662	-0.487289	0.074391
O195	O	1.053260	-0.249615	-1.063782
O196	O	1.553260	0.250385	-0.563782
C197	C	1.016622	-0.204242	-1.106551
C198	C	1.516622	0.295758	-0.606551
H199	H	0.963490	-0.199901	-1.085420
H200	H	1.463490	0.300099	-0.585420
H201	H	1.043353	-0.150191	-1.109590
H202	H	1.543353	0.349809	-0.609590
H203	H	1.013395	-0.225942	-1.159227
H204	H	1.513395	0.274058	-0.659227
O205	O	1.053367	-0.249759	-0.707880
O206	O	1.553367	0.250241	-0.207880
C207	C	1.093207	-0.210121	-0.663172
C208	C	1.593207	0.289879	-0.163172
H209	H	1.094344	-0.238905	-0.611594
H210	H	1.594344	0.261095	-0.111594
H211	H	1.146851	-0.202635	-0.683915
H212	H	1.646851	0.297365	-0.183915
H213	H	1.070645	-0.156773	-0.657856
H214	H	1.570645	0.343227	-0.157856
H215	H	0.869256	-0.738993	-0.217091
H216	H	1.369256	-0.238993	0.282909
O217	O	0.875242	-0.426798	-1.056296
O218	O	1.375242	0.073202	-0.556296
C219	C	0.835384	-0.466461	-1.008299
C220	C	1.335384	0.033539	-0.508299
H221	H	0.834228	-0.437704	-0.959100
H222	H	1.334228	0.062296	-0.459100
H223	H	0.781748	-0.473935	-1.028409
H224	H	1.281748	0.026065	-0.528409
H225	H	0.857943	-0.519814	-0.998577
H226	H	1.357943	-0.019814	-0.498577
H227	H	0.709950	-0.257018	-0.394186
H228	H	1.209950	0.242982	0.105814
O229	O	0.895692	-0.931725	-0.243462
O230	O	1.395692	-0.431725	0.256538
C231	C	0.855543	-0.979887	-0.203256
C232	C	1.355543	-0.479887	0.296744
H233	H	0.881142	-1.032154	-0.198801
H234	H	1.381142	-0.532154	0.301199
H235	H	0.849223	-0.958736	-0.150786
H236	H	1.349223	-0.458736	0.349214
H237	H	0.803801	-0.987715	-0.227667
H238	H	1.303801	-0.487715	0.272333
O239	O	0.875312	-0.426748	-0.916946
O240	O	1.375312	0.073252	-0.416946
C241	C	0.884990	-0.417150	-0.847375
C242	C	1.384990	0.082850	-0.347375
H243	H	0.909408	-0.362948	-0.839963
H244	H	1.409408	0.137052	-0.339963
H245	H	0.834087	-0.421918	-0.820307
H246	H	1.334087	0.078082	-0.320307
H247	H	0.919298	-0.458820	-0.825597
H248	H	1.419298	0.041180	-0.325597
O249	O	0.868085	-0.600259	-0.215908
O250	O	1.368085	-0.100259	0.284092
C251	C	0.827928	-0.648416	-0.175705
C252	C	1.327928	-0.148416	0.324295
H253	H	0.853527	-0.700682	-0.171237
H254	H	1.353527	-0.200682	0.328763
H255	H	0.821595	-0.627258	-0.123240
H256	H	1.321595	-0.127258	0.376760
H257	H	0.776192	-0.656249	-0.200128
H258	H	1.276192	-0.156249	0.299872
O259	O	1.027483	-0.819691	-0.375656
O260	O	1.527483	-0.319691	0.124344
C261	C	0.990646	-0.777279	-0.421088
C262	C	1.490646	-0.277279	0.078912
H263	H	0.939808	-0.766356	-0.397621
H264	H	1.439808	-0.266356	0.102379
H265	H	1.020307	-0.725664	-0.432295
H266	H	1.520307	-0.225664	0.067705
H267	H	0.982037	-0.805521	-0.470085
H268	H	1.482037	-0.305521	0.029915
O269	O	0.875220	-0.426968	-0.561376
O270	O	1.375220	0.073032	-0.061376
C271	C	0.835364	-0.466591	-0.606083
C272	C	1.335364	0.033409	-0.106083
H273	H	0.862990	-0.469007	-0.656378
H274	H	1.362990	0.030993	-0.156378
H275	H	0.825848	-0.521938	-0.583370
H276	H	1.325848	-0.021938	-0.083370
H277	H	0.785025	-0.440870	-0.614651
H278	H	1.285025	0.059130	-0.114651
