data_functionalizedCrystal
_audit_creation_method	'MofGen! by Chris Wilmer'
_symmetry_space_group_name_H-M	'P1'
_symmetry_Int_Tables_number	1
_symmetry_cell_setting	triclinic
loop_
_symmetry_equiv_pos_as_xyz
  x,y,z
_cell_length_a	14.044220
_cell_length_b	16.109295
_cell_length_c	14.586319
_cell_angle_alpha	90.005323
_cell_angle_beta	89.986995
_cell_angle_gamma	91.675968
loop_
_atom_site_label
_atom_site_type_symbol
_atom_site_fract_x
_atom_site_fract_y
_atom_site_fract_z
O1	O	0.121820	-1.112202	-0.076180
O2	O	0.455153	-0.778869	0.257153
O3	O	0.788487	-0.445535	0.590487
O4	O	0.136988	-0.871268	-0.076196
O5	O	0.470321	-0.537934	0.257138
O6	O	0.803654	-0.204601	0.590471
O7	O	-0.008579	-0.988118	-0.076179
O8	O	0.324754	-0.654785	0.257154
O9	O	0.658087	-0.321452	0.590488
O10	O	0.267387	-0.995351	-0.076197
O11	O	0.600721	-0.662018	0.257137
O12	O	0.934054	-0.328685	0.590470
O13	O	-0.008604	-0.988098	0.076302
O14	O	0.324729	-0.654765	0.409635
O15	O	0.658063	-0.321432	0.742968
O16	O	0.136963	-0.871248	0.076285
O17	O	0.470297	-0.537914	0.409618
O18	O	0.803630	-0.204581	0.742952
O19	O	0.121796	-1.112182	0.076301
O20	O	0.455129	-0.778849	0.409634
O21	O	0.788462	-0.445515	0.742967
Cu22	Cu	0.129377	-0.991713	0.090216
Cu23	Cu	0.462711	-0.658380	0.423549
Cu24	Cu	0.796044	-0.325046	0.756882
Cu25	Cu	0.129406	-0.991737	-0.090111
Cu26	Cu	0.462740	-0.658403	0.243223
Cu27	Cu	0.796073	-0.325070	0.576556
O28	O	0.267363	-0.995331	0.076284
O29	O	0.600696	-0.661998	0.409617
O30	O	0.934030	-0.328665	0.742951
C31	C	0.136362	-0.840237	0.000043
C32	C	0.469695	-0.506904	0.333376
C33	C	0.803029	-0.173571	0.666709
C34	C	0.134523	-0.747805	0.000037
C35	C	0.467856	-0.414471	0.333370
C36	C	0.801190	-0.081138	0.666704
C37	C	-0.043905	-0.984942	0.000061
C38	C	0.289428	-0.651609	0.333395
C39	C	0.622762	-0.318276	0.666728
C40	C	-0.149128	-0.975499	0.000062
C41	C	0.184206	-0.642165	0.333395
C42	C	0.517539	-0.308832	0.666729
C43	C	0.216621	-0.531640	0.000041
C44	C	0.549955	-0.198307	0.333375
C45	C	0.883288	0.135027	0.666708
C46	C	0.214886	-0.444790	0.000047
C47	C	0.548219	-0.111457	0.333380
C48	C	0.881553	0.221876	0.666714
C49	C	0.042178	-0.451815	0.000054
C50	C	0.375512	-0.118482	0.333388
C51	C	0.708845	0.214852	0.666721
C52	C	0.043915	-0.538663	0.000055
C53	C	0.377248	-0.205330	0.333389
C54	C	0.710582	0.128003	0.666722
C55	C	0.131139	-0.578573	0.000044
C56	C	0.464473	-0.245240	0.333377
C57	C	0.797806	0.088093	0.666711
C58	C	0.127667	-0.404875	0.000049
C59	C	0.461001	-0.071542	0.333382
C60	C	0.794334	0.261791	0.666715
C61	C	0.125785	-0.310709	0.000055
C62	C	0.459118	0.022624	0.333388
C63	C	0.792451	0.355958	0.666722
C64	C	0.133022	-0.672746	0.000040
C65	C	0.466355	-0.339412	0.333373
C66	C	0.799689	-0.006079	0.666706
C67	C	-0.341783	-0.958233	0.000048
C68	C	-0.008450	-0.624900	0.333381
C69	C	0.324883	-0.291567	0.666714
C70	C	-0.399439	-1.025213	0.000049
C71	C	-0.066105	-0.691879	0.333383
C72	C	0.267228	-0.358546	0.666716
C73	C	-0.506639	-1.015606	0.000041
C74	C	-0.173306	-0.682273	0.333375
C75	C	0.160028	-0.348939	0.666708
C76	C	-0.234573	-0.967839	0.000056
C77	C	0.098760	-0.634505	0.333389
C78	C	0.432094	-0.301172	0.666722
C79	C	0.302689	-0.998507	0.000041
C80	C	0.636022	-0.665174	0.333375
C81	C	0.969355	-0.331841	0.666708
C82	C	0.407911	-1.007951	0.000035
C83	C	0.741245	-0.674618	0.333368
C84	C	1.074578	-0.341284	0.666702
C85	C	0.122427	-0.143212	0.000059
C86	C	0.455760	0.190121	0.333393
C87	C	0.789094	0.523454	0.666726
C88	C	0.124284	-0.235644	0.000056
C89	C	0.457617	0.097689	0.333389
C90	C	0.790950	0.431023	0.666723
N91	N	0.129356	-0.991703	0.217047
N92	N	0.462690	-0.658369	0.550381
N93	N	0.796023	-0.325036	0.883714
N94	N	0.129420	-0.991753	-0.216942
N95	N	0.462753	-0.658420	0.116391
N96	N	0.796086	-0.325086	0.449724
C97	C	0.071893	-0.937045	0.548077
C98	C	0.405226	-0.603711	0.881410
C99	C	0.738559	-0.270378	1.214743
C100	C	0.071880	-0.937037	0.452095
C101	C	0.405213	-0.603704	0.785429
C102	C	0.738546	-0.270370	1.118762
C103	C	0.186886	-1.046417	0.452035
C104	C	0.520219	-0.713084	0.785368
C105	C	0.853552	-0.379750	1.118702
C106	C	0.186893	-1.046428	0.548014
C107	C	0.520226	-0.713095	0.881348
C108	C	0.853560	-0.379761	1.214681
C109	C	0.129398	-0.991737	0.596033
C110	C	0.462732	-0.658404	0.929366
C111	C	0.796065	-0.325070	1.262700
C112	C	0.129378	-0.991719	0.404072
C113	C	0.462711	-0.658385	0.737405
C114	C	0.796044	-0.325052	1.070739
C115	C	0.129364	-0.991711	0.300005
C116	C	0.462697	-0.658377	0.633338
C117	C	0.796031	-0.325044	0.966672
C118	C	0.129410	-0.991746	0.700107
C119	C	0.462744	-0.658412	1.033440
C120	C	0.796077	-0.325079	1.366773
H121	H	0.284494	-0.406581	0.000047
H122	H	0.617828	-0.073247	0.333380
H123	H	0.951161	0.260086	0.666713
H124	H	-0.368289	-1.089770	-0.000008
H125	H	-0.034956	-0.756437	0.333325
H126	H	0.298378	-0.423104	0.666659
H127	H	0.287645	-0.564132	0.000039
H128	H	0.620978	-0.230799	0.333373
H129	H	0.954312	0.102535	0.666706
H130	H	0.233697	-1.090943	0.412927
H131	H	0.567030	-0.757610	0.746260
H132	H	0.900364	-0.424277	1.079593
H133	H	-0.028837	-0.419310	0.000069
H134	H	0.304497	-0.085976	0.333402
H135	H	0.637830	0.247357	0.666736
N136	N	-0.043417	-0.586598	0.000067
N137	N	0.289916	-0.253265	0.333401
N138	N	0.623250	0.080069	0.666734
N139	N	-0.121288	-0.550956	0.000073
N140	N	0.212045	-0.217623	0.333406
N141	N	0.545378	0.115710	0.666739
H142	H	-0.182965	-0.584810	0.000085
H143	H	0.150369	-0.251476	0.333419
H144	H	0.483702	0.081857	0.666752
H145	H	-0.372931	-0.893681	0.000041
H146	H	-0.039598	-0.560347	0.333375
H147	H	0.293736	-0.227014	0.666708
H148	H	0.233721	-1.090970	0.587061
H149	H	0.567055	-0.757636	0.920395
H150	H	0.900388	-0.424303	1.253728
H151	H	0.025076	-0.892512	0.587170
H152	H	0.358410	-0.559179	0.920504
H153	H	0.691743	-0.225846	1.253837
H154	H	0.025052	-0.892502	0.413054
H155	H	0.358385	-0.559168	0.746387
H156	H	0.691719	-0.225835	1.079720
