data_functionalizedCrystal
_audit_creation_method	'MofGen! by Chris Wilmer'
_symmetry_space_group_name_H-M	'P1'
_symmetry_Int_Tables_number	1
_symmetry_cell_setting	triclinic
loop_
_symmetry_equiv_pos_as_xyz
  x,y,z
_cell_length_a	24.447405
_cell_length_b	24.446649
_cell_length_c	24.443239
_cell_angle_alpha	60.006064
_cell_angle_beta	60.011844
_cell_angle_gamma	59.992812
loop_
_atom_site_label
_atom_site_type_symbol
_atom_site_fract_x
_atom_site_fract_y
_atom_site_fract_z
O1	O	0.075907	-0.799232	0.668277
O2	O	0.028634	-0.622262	0.538455
O3	O	0.140702	-0.734230	0.538349
O4	O	-0.036160	-0.687265	0.668384
O5	O	0.177886	-0.697056	0.575424
O6	O	0.065818	-0.585088	0.575530
O7	O	0.113091	-0.762059	0.705353
Cu8	Cu	0.092850	-0.670179	0.643827
Cu9	Cu	0.048876	-0.714142	0.599981
O10	O	0.001024	-0.650091	0.705459
N11	N	0.123780	-0.639263	0.674669
N12	N	0.017951	-0.745064	0.569139
C13	C	0.170236	-0.489965	0.721065
C14	C	0.170249	-0.592837	0.721058
C15	C	0.195989	-0.567121	0.746758
C16	C	0.308182	-0.547773	0.687664
C17	C	0.378316	-0.571143	0.664253
C18	C	0.378353	-0.684626	0.707525
C19	C	0.308220	-0.661254	0.730938
C20	C	0.187125	-0.454882	0.652117
C21	C	0.163710	-0.384741	0.628763
C22	C	0.106523	-0.384772	0.743308
C23	C	0.129938	-0.454913	0.766662
C24	C	0.101291	-0.575906	0.738041
C25	C	0.077897	-0.599283	0.714670
C26	C	0.192412	-0.656523	0.657348
C27	C	0.215809	-0.633146	0.680711
C28	C	0.101393	-0.575928	0.859014
C29	C	0.078071	-0.599328	0.929152
C30	C	0.192636	-0.656582	0.929078
C31	C	0.215955	-0.633184	0.858938
C32	C	0.170332	-0.592855	0.823908
C33	C	0.273137	-0.592827	0.721004
C34	C	-0.131205	-0.791294	0.522327
C35	C	-0.028388	-0.791420	0.522551
C36	C	-0.054056	-0.817099	0.496741
C37	C	-0.073479	-0.929255	0.555734
C38	C	-0.050156	-0.999396	0.579142
C39	C	0.063326	-0.999525	0.536064
C40	C	0.040001	-0.929386	0.512654
C41	C	-0.166365	-0.808188	0.591256
C42	C	-0.236499	-0.784726	0.614512
C43	C	-0.236309	-0.727482	0.499907
C44	C	-0.166175	-0.750944	0.476651
C45	C	-0.045285	-0.722468	0.505590
C46	C	-0.021951	-0.699130	0.529061
C47	C	0.035176	-0.813691	0.586439
C48	C	0.011842	-0.837031	0.562976
C49	C	-0.045097	-0.722476	0.384488
C50	C	-0.021613	-0.699140	0.314350
C51	C	0.035607	-0.813706	0.314419
C52	C	0.012124	-0.837041	0.384558
C53	C	-0.028229	-0.791425	0.419591
C54	C	-0.028402	-0.894253	0.522492
N55	N	0.412405	-0.639229	0.674505
O56	O	0.626552	-0.645384	0.514503
O57	O	0.626802	-0.775625	0.691288
O58	O	0.626698	-0.775326	0.579168
O59	O	0.626656	-0.645683	0.626623
O60	O	0.515277	-0.738265	0.616407
O61	O	0.515382	-0.738564	0.728527
O62	O	0.515131	-0.608323	0.551742
Cu63	Cu	0.505083	-0.670059	0.643535
Cu64	Cu	0.636850	-0.713889	0.599495
O65	O	0.515236	-0.608622	0.663862
N66	N	0.729529	-0.744719	0.568518
N67	N	0.123755	-0.350686	0.674680
O68	O	-0.036153	-0.136410	0.668391
O69	O	0.140633	-0.136380	0.538141
O70	O	0.028472	-0.136412	0.538488
O71	O	0.076007	-0.136377	0.668044
O72	O	0.065663	-0.247842	0.575621
O73	O	0.177823	-0.247810	0.575274
O74	O	0.001037	-0.247840	0.705524
Cu75	Cu	0.092826	-0.258000	0.643789
Cu76	Cu	0.048844	-0.126220	0.599875
O77	O	0.113198	-0.247808	0.705177
N78	N	0.017907	-0.033534	0.568986
N79	N	0.124013	-0.639306	0.963182
O80	O	0.117754	-0.799195	1.177439
O81	O	-0.012458	-0.622342	1.177485
O82	O	-0.012155	-0.734480	1.177444
O83	O	0.117450	-0.687057	1.177480
O84	O	0.024954	-0.697317	1.066020
O85	O	0.024650	-0.585179	1.066061
O86	O	0.154862	-0.762032	1.066014
Cu87	Cu	0.093145	-0.670212	1.055863
Cu88	Cu	0.049259	-0.714162	1.187636
O89	O	0.154559	-0.649894	1.066055
N90	N	0.018389	-0.745075	1.280318
C91	C	0.042795	-0.581375	0.539107
C92	C	0.181576	-0.720034	0.538975
C93	C	0.098930	-0.802946	0.704700
C94	C	-0.039851	-0.664287	0.704832
C95	C	0.571122	-0.775030	0.732180
C96	C	0.570995	-0.774660	0.593332
C97	C	0.570808	-0.608917	0.510851
C98	C	0.570939	-0.609288	0.649698
C99	C	0.181453	-0.191954	0.538725
C100	C	0.042602	-0.192131	0.539201
C101	C	-0.039829	-0.192128	0.704893
C102	C	0.099069	-0.192090	0.704464
C103	C	-0.011836	-0.581480	1.121779
C104	C	-0.011453	-0.720342	1.121706
C105	C	0.154240	-0.802894	1.121720
C106	C	0.153865	-0.664024	1.121769
H107	H	0.021932	-0.585534	0.957726
O108	O	0.571323	-0.823829	0.792721
C109	C	0.629045	-0.839339	0.804707
H110	H	0.669328	-0.824476	0.754961
H111	H	0.648475	-0.895443	0.831759
H112	H	0.616006	-0.810643	0.837092
O113	O	0.111156	-0.192174	0.753111
C114	C	0.103767	-0.249898	0.809596
H115	H	0.070161	-0.269148	0.809082
H116	H	0.080153	-0.236922	0.857148
H117	H	0.155012	-0.290301	0.808234
O118	O	-0.038041	-0.632174	0.280185
C119	C	-0.073281	-0.615197	0.239528
H120	H	-0.060615	-0.661418	0.229013
H121	H	-0.058297	-0.574550	0.190218
H122	H	-0.129426	-0.595895	0.266475
O123	O	0.571043	-0.560720	0.661736
C124	C	0.628693	-0.542634	0.615764
H125	H	0.669035	-0.585537	0.596089
H126	H	0.648087	-0.531767	0.641852
H127	H	0.615574	-0.495974	0.572177
O128	O	0.571043	-0.823333	0.581324
C129	C	0.571115	-0.881160	0.638841
H130	H	0.592241	-0.880578	0.670812
H131	H	0.603480	-0.927662	0.623106
H132	H	0.517684	-0.882001	0.669116
O133	O	-0.100447	-0.192096	0.753591
C134	C	-0.142160	-0.192124	0.729503
H135	H	-0.124042	-0.171040	0.672434
H136	H	-0.195823	-0.159767	0.750046
H137	H	-0.140346	-0.245584	0.746549
H138	H	-0.052152	-0.730472	1.121651
O139	O	0.083878	-0.895487	0.480402
C140	C	0.149255	-0.941540	0.476729
H141	H	0.146522	-0.991515	0.518157
H142	H	0.178021	-0.921313	0.483155
H143	H	0.176087	-0.949031	0.425908
H144	H	0.570727	-0.568026	0.460082
O145	O	0.241921	-0.191541	0.489880
C146	C	0.283601	-0.191415	0.513936
H147	H	0.251382	-0.170541	0.557101
H148	H	0.315430	-0.158801	0.471862
H149	H	0.317695	-0.244801	0.532296
H150	H	-0.052716	-0.530687	1.121793
O151	O	0.202380	-0.651803	1.121742
C152	C	0.177969	-0.585948	1.121778
H153	H	0.134952	-0.554244	1.100691
H154	H	0.219919	-0.563409	1.089431
H155	H	0.159299	-0.586939	1.175239
O156	O	0.129770	-1.033733	0.526475
C157	C	0.154112	-1.074306	0.488311
H158	H	0.110825	-1.084756	0.493713
H159	H	0.192849	-1.123656	0.506994
H160	H	0.178345	-1.047315	0.433366
O161	O	0.030484	-0.192275	0.490701
C162	C	0.014722	-0.249993	0.513810
H163	H	0.036367	-0.290310	0.555409
H164	H	0.037067	-0.269384	0.470677
H165	H	-0.042012	-0.236960	0.534028
O166	O	0.056980	-0.536784	0.825090
C167	C	-0.008870	-0.526844	0.871115
H168	H	-0.008700	-0.569137	0.921099
H169	H	-0.042193	-0.526476	0.850876
H170	H	-0.028964	-0.476882	0.878586
O171	O	0.237046	-0.695762	0.962997
C172	C	0.302894	-0.705663	0.916968
H173	H	0.302726	-0.697821	0.866984
H174	H	0.336228	-0.758854	0.937203
H175	H	0.322976	-0.668321	0.909498
H176	H	0.032695	-0.530537	0.498334
H177	H	0.195123	-0.853684	1.121698
H178	H	0.272095	-0.646975	0.830359
H179	H	0.064189	-0.543085	0.770891
H180	H	0.021747	-0.585481	0.728482
H181	H	0.232372	-0.730046	0.498140
H182	H	0.229515	-0.689349	0.624505
H183	H	-0.090650	-0.654278	0.745664
O184	O	0.282816	-0.649658	0.664162
C185	C	0.318014	-0.690224	0.623516
H186	H	0.284580	-0.715749	0.632494
H187	H	0.364861	-0.729887	0.636605
H188	H	0.333063	-0.657840	0.568584
H189	H	0.279688	-0.697946	0.758086
H190	H	0.406848	-0.534453	0.637104
O191	O	0.412335	-0.751122	0.717246
C192	C	0.366364	-0.785876	0.751677
H193	H	0.316379	-0.755287	0.780439
H194	H	0.386667	-0.836458	0.788273
H195	H	0.358872	-0.793987	0.714163
H196	H	0.025599	-0.893178	0.576787
O197	O	0.274178	-0.481276	0.677898
C198	C	0.291252	-0.445084	0.608649
H199	H	0.342166	-0.475726	0.581013
H200	H	0.293645	-0.395638	0.599381
H201	H	0.251754	-0.434622	0.589558
O202	O	0.226234	-0.488829	0.607736
C203	C	0.236125	-0.442821	0.541871
H204	H	0.193827	-0.392830	0.542024
H205	H	0.236462	-0.463080	0.508581
H206	H	0.286082	-0.435350	0.521746
O207	O	-0.084190	-0.678141	0.418494
C208	C	-0.048763	-0.637640	0.401423
H209	H	0.007347	-0.664780	0.382223
H210	H	-0.061361	-0.627033	0.447568
H211	H	-0.063626	-0.588359	0.360675
O212	O	0.180141	-0.350584	0.561798
C213	C	0.215452	-0.310018	0.544834
H214	H	0.202831	-0.299522	0.591054
H215	H	0.200491	-0.260690	0.504177
H216	H	0.271584	-0.337037	0.525554
H217	H	0.109031	-0.853782	0.745475
H218	H	0.073721	-0.356231	0.780438
H219	H	0.068452	-0.850855	0.285902
O220	O	0.113614	-0.488967	0.833649
C221	C	0.137607	-0.471820	0.862766
H222	H	0.180839	-0.452522	0.822819
H223	H	0.155853	-0.517953	0.904095
H224	H	0.095533	-0.431120	0.884928
O225	O	0.028548	-0.904044	0.418552
C226	C	0.069209	-0.939298	0.372589
H227	H	0.060345	-0.905847	0.322546
H228	H	0.056030	-0.986069	0.392818
H229	H	0.124127	-0.954485	0.365237
H230	H	-0.035712	-0.642984	0.515253
O231	O	-0.084463	-0.678132	0.466428
C232	C	-0.143297	-0.637517	0.501767
H233	H	-0.153134	-0.664581	0.557894
H234	H	-0.187435	-0.626860	0.489118
H235	H	-0.136899	-0.588267	0.486867
H236	H	-0.086862	-1.027893	0.606199
O237	O	0.074227	-0.858090	0.625719
C238	C	0.084150	-0.923951	0.635634
H239	H	0.041900	-0.923773	0.627696
H240	H	0.084430	-0.957240	0.688857
H241	H	0.134144	-0.944098	0.598367
H242	H	-0.129177	-0.900656	0.563750
H243	H	-0.265127	-0.798479	0.670643
O244	O	-0.132497	-0.847351	0.635713
C245	C	-0.178572	-0.857238	0.701541
H246	H	-0.228534	-0.814906	0.701329
H247	H	-0.158368	-0.857629	0.734910
H248	H	-0.186071	-0.907174	0.721613
H249	H	-0.264783	-0.694634	0.462714
H250	H	-0.137547	-0.737181	0.420520
