data_functionalizedCrystal
_audit_creation_method	'MofGen! by Chris Wilmer'
_symmetry_space_group_name_H-M	'P1'
_symmetry_Int_Tables_number	1
_symmetry_cell_setting	triclinic
loop_
_symmetry_equiv_pos_as_xyz
  x,y,z
_cell_length_a	13.185408
_cell_length_b	11.804365
_cell_length_c	10.967961
_cell_angle_alpha	89.856359
_cell_angle_beta	68.731691
_cell_angle_gamma	97.766955
loop_
_atom_site_label
_atom_site_type_symbol
_atom_site_fract_x
_atom_site_fract_y
_atom_site_fract_z
O1	O	1.451215	0.030358	-0.334227
O2	O	1.140004	0.054631	-0.216031
O3	O	1.295120	0.007100	-0.447607
O4	O	1.296099	0.077890	-0.102651
O5	O	1.254282	-0.178453	-0.386689
O6	O	1.099166	-0.130921	-0.155113
O7	O	1.410376	-0.155194	-0.273310
Cu8	Cu	1.251042	-0.160000	-0.208649
Cu9	Cu	1.299339	0.059437	-0.280691
O10	O	1.255260	-0.107662	-0.041734
C11	C	1.079594	-0.035684	-0.173590
C12	C	0.960432	-0.028352	-0.137900
N13	N	1.217081	-0.314341	-0.157982
C14	C	0.897318	-0.002271	-0.010819
C15	C	0.785356	0.004602	0.022723
C16	C	0.736499	-0.014598	-0.070816
C17	C	0.799615	-0.040672	-0.197902
C18	C	0.911586	-0.047554	-0.231444
C19	C	0.750767	-0.059881	-0.291442
C20	C	0.813884	-0.085955	-0.418528
C21	C	0.925844	-0.092835	-0.452064
C22	C	0.974701	-0.073636	-0.358525
C23	C	0.638796	-0.052999	-0.257899
C24	C	0.653065	-0.098282	-0.478525
C25	C	0.765027	-0.105155	-0.512066
C26	C	1.414860	-0.748856	-0.453064
C27	C	1.440550	-0.632063	-0.491398
C28	C	1.384685	-0.552627	-0.408048
C29	C	1.303125	-0.589995	-0.286356
C30	C	1.277439	-0.706799	-0.248013
C31	C	1.247263	-0.510570	-0.202997
C32	C	1.165704	-0.547938	-0.081305
C33	C	1.140021	-0.664731	-0.042969
C34	C	1.195886	-0.744167	-0.126320
C35	C	1.272950	-0.393766	-0.241339
C36	C	1.135528	-0.351709	-0.036289
C37	C	1.109838	-0.468502	0.002046
C38	C	1.470787	-0.064877	-0.315752
C39	C	1.589951	-0.072201	-0.351444
C40	C	1.271687	-0.094544	-0.460369
C41	C	1.262692	-0.120963	-0.589149
N42	N	1.333308	0.213776	-0.331371
C43	C	1.270545	-0.063928	-0.811222
C44	C	1.279840	-0.036613	-0.678122
C45	C	1.278694	-0.006017	-0.028973
C46	C	1.287691	0.020410	0.099805
H47	H	0.645334	-0.009002	-0.043498
H48	H	0.816432	-0.126385	-0.615541
C49	C	1.475466	-0.834997	-0.543763
C50	C	1.458256	-0.828959	-0.662153
C51	C	1.514081	-0.908289	-0.745749
H52	H	1.448545	-0.909960	-0.503673
H53	H	1.551940	-0.817926	-0.560270
H54	H	1.381797	-0.846038	-0.645644
H55	H	1.485181	-0.754015	-0.702279
H56	H	1.590555	-0.891219	-0.762256
H57	H	1.487155	-0.983247	-0.705648
H58	H	1.502420	-0.904196	-0.826090
C59	C	1.241730	-0.187242	-0.840756
C60	C	1.227688	-0.259753	-0.732866
C61	C	1.201128	-0.373358	-0.760013
H62	H	1.299487	-0.207155	-0.915382
H63	H	1.175464	-0.195208	-0.857709
H64	H	1.293946	-0.251793	-0.715929
H65	H	1.169927	-0.239877	-0.658228
H66	H	1.134861	-0.381325	-0.776967
H67	H	1.258889	-0.393259	-0.834642
H68	H	1.191587	-0.422570	-0.686811
C69	C	1.412688	-0.425876	-0.449933
C70	C	1.496049	-0.410155	-0.574359
C71	C	1.521862	-0.293406	-0.613001
H72	H	1.437196	-0.384986	-0.388877
H73	H	1.349140	-0.398239	-0.452821
H74	H	1.559584	-0.437778	-0.571462
H75	H	1.471565	-0.451018	-0.635443
H76	H	1.458315	-0.265769	-0.615890
H77	H	1.546366	-0.252526	-0.551938
H78	H	1.578418	-0.282725	-0.697432
H79	H	1.174966	-0.839271	-0.095111
C80	C	1.051407	-0.705084	0.089182
C81	C	1.007959	-0.610528	0.153960
C82	C	0.926319	-0.647655	0.275694
H83	H	1.082421	-0.743171	0.140547
H84	H	0.994469	-0.756313	0.076449
H85	H	1.064887	-0.559318	0.166699
H86	H	0.976924	-0.572430	0.102635
H87	H	0.869381	-0.698884	0.262960
H88	H	0.957342	-0.685742	0.327046
H89	H	0.896822	-0.583506	0.319655
H90	H	1.043431	-0.498943	0.101130
C91	C	1.074780	-0.265648	0.054428
C92	C	0.997884	-0.323366	0.169225
C93	C	0.941921	-0.244116	0.252824
H94	H	1.037840	-0.225746	0.011907
H95	H	1.125924	-0.212646	0.075808
H96	H	0.946747	-0.376348	0.147844
H97	H	1.034795	-0.363263	0.211782
H98	H	0.993066	-0.191114	0.274203
H99	H	0.904988	-0.204219	0.210291
H100	H	0.889749	-0.283265	0.330727
H101	H	1.241122	-0.213396	-0.611502
C102	C	1.316435	0.143581	-0.870144
C103	C	1.319944	0.146185	-0.744105
C104	C	1.346413	0.259633	-0.716379
H105	H	1.262209	0.187103	-0.874637
H106	H	1.386252	0.175245	-0.932336
H107	H	1.250137	0.114537	-0.681930
H108	H	1.374172	0.102687	-0.739581
H109	H	1.416230	0.291297	-0.778571
H110	H	1.292183	0.303145	-0.720877
H111	H	1.348807	0.261414	-0.630864
H112	H	0.613298	-0.113865	-0.554709
H113	H	0.733974	0.025831	0.126196
C114	C	0.570385	-0.024448	-0.119987
C115	C	0.614312	0.083013	-0.092956
C116	C	0.551314	0.109364	0.034077
H117	H	0.571529	-0.080869	-0.058780
H118	H	0.496705	-0.023026	-0.113367
H119	H	0.687973	0.081583	-0.099564
H120	H	0.613167	0.139457	-0.154130
H121	H	0.477634	0.110785	0.040697
H122	H	0.552462	0.052936	0.095273
H123	H	0.581103	0.182282	0.052430
H124	H	1.065868	-0.079233	-0.385827
C125	C	0.950574	0.018577	0.090526
C126	C	1.062140	0.006988	0.033941
C127	C	1.111235	0.026195	0.127266
H128	H	0.915181	-0.035675	0.162633
H129	H	0.943606	0.093736	0.120095
H130	H	1.069100	-0.068161	0.004392
H131	H	1.097562	0.061236	-0.038155
H132	H	1.104268	0.101354	0.156835
H133	H	1.075834	-0.028059	0.199367
H134	H	1.186940	0.018345	0.088883
H135	H	0.977228	-0.114080	-0.555541
H136	H	1.506956	-0.601642	-0.590477
H137	H	1.301393	0.055820	-0.655760
H138	H	1.339356	-0.363352	-0.340421
