data_functionalizedCrystal
_audit_creation_method	'MofGen! by Chris Wilmer'
_symmetry_space_group_name_H-M	'P1'
_symmetry_Int_Tables_number	1
_symmetry_cell_setting	triclinic
loop_
_symmetry_equiv_pos_as_xyz
  x,y,z
_cell_length_a	19.188930
_cell_length_b	19.188930
_cell_length_c	18.266242
_cell_angle_alpha	89.979776
_cell_angle_beta	90.006796
_cell_angle_gamma	96.855221
loop_
_atom_site_label
_atom_site_type_symbol
_atom_site_fract_x
_atom_site_fract_y
_atom_site_fract_z
O1	O	0.087164	-0.926147	0.061124
O2	O	0.098898	-0.722836	0.061075
O3	O	-0.008624	-0.830359	0.061087
O4	O	0.194687	-0.818624	0.061113
O5	O	-0.008621	-0.830345	-0.060675
O6	O	0.098902	-0.722822	-0.060687
O7	O	0.087168	-0.926133	-0.060638
Zn8	Zn	0.093035	-0.824475	-0.079994
Zn9	Zn	0.093031	-0.824494	0.080432
O10	O	0.194690	-0.818611	-0.060649
C11	C	-0.034634	-0.829972	0.000204
C12	C	-0.112138	-0.828831	0.000197
C13	C	0.098520	-0.696818	0.000188
C14	C	0.097380	-0.619313	0.000169
C15	C	0.087546	-0.952151	0.000252
C16	C	0.088687	-1.029656	0.000276
C17	C	-0.157062	-0.891922	0.000209
C18	C	-0.229886	-0.890850	0.000220
C19	C	-0.257782	-0.826684	0.000206
C20	C	-0.212849	-0.763585	0.000198
C21	C	-0.140026	-0.764658	0.000194
N22	N	-0.365786	-0.777632	-0.041244
N23	N	-0.434965	-0.776617	-0.041242
C24	C	-0.477191	-0.823446	0.000220
N25	N	-0.447627	-0.871340	0.041669
N26	N	-0.378442	-0.872357	0.041664
C27	C	-0.336745	-0.825513	0.000210
C28	C	-0.601079	-0.885379	0.000245
C29	C	-0.673904	-0.884305	0.000261
C30	C	-0.656865	-0.757038	0.000231
C31	C	-0.584042	-0.758114	0.000222
C32	C	-0.556154	-0.822286	0.000226
C33	C	0.220700	-0.818997	0.000236
C34	C	0.298204	-0.820138	0.000247
N35	N	0.093038	-0.824468	-0.189481
C36	C	0.160470	-0.574389	0.000188
C37	C	0.159399	-0.501566	0.000196
C38	C	0.095233	-0.473669	0.000199
C39	C	0.032133	-0.518603	0.000175
C40	C	0.033207	-0.591425	0.000160
N41	N	0.046184	-0.365694	0.041663
N42	N	0.045169	-0.296515	0.041679
C43	C	0.091994	-0.254260	0.000243
N44	N	0.139884	-0.283796	-0.041200
N45	N	0.140902	-0.352981	-0.041213
C46	C	0.094062	-0.394707	0.000215
C47	C	0.153928	-0.130372	0.000270
C48	C	0.152853	-0.057547	0.000274
C49	C	0.025586	-0.074586	0.000261
C50	C	0.026662	-0.147409	0.000250
C51	C	0.090835	-0.175298	0.000258
C52	C	0.135258	-0.866721	-0.771741
C53	C	0.135265	-0.866713	-0.695096
C54	C	0.093024	-0.824500	-0.656794
C55	C	0.050785	-0.782277	-0.695143
C56	C	0.050785	-0.782281	-0.771786
N57	N	0.031863	-0.822809	-0.536465
N58	N	0.031866	-0.822810	-0.463657
C59	C	0.093024	-0.824487	-0.425872
N60	N	0.154180	-0.826176	-0.463645
N61	N	0.154177	-0.826179	-0.536460
C62	C	0.093020	-0.824492	-0.573687
C63	C	0.135271	-0.866695	-0.304425
C64	C	0.135279	-0.866683	-0.227779
C65	C	0.050793	-0.782251	-0.227826
C66	C	0.050791	-0.782259	-0.304471
C67	C	0.093029	-0.824485	-0.342766
N68	N	0.093023	-0.824506	0.189919
H69	H	-0.134360	-0.944176	0.000214
H70	H	0.016395	-0.747887	-0.335687
Cl71	Cl	-0.691928	-0.676371	0.000216
H72	H	-0.547464	-0.706738	0.000208
H73	H	-0.266470	-0.942228	0.000233
H74	H	0.212725	-0.597091	0.000196
H75	H	0.169653	-0.901103	-0.802916
Cl76	Cl	-0.730382	-0.963627	0.000280
Cl77	Cl	-0.247918	-0.682919	0.000185
H78	H	0.169662	-0.901088	-0.663874
H79	H	-0.103449	-0.713281	0.000184
H80	H	0.016394	-0.747906	-0.663952
H81	H	0.210776	-0.464982	0.000210
Cl82	Cl	-0.002316	-0.729207	-0.819987
Cl83	Cl	0.188371	-0.919775	-0.352570
H84	H	-0.020111	-0.495885	0.000188
Cl85	Cl	-0.046114	-0.647904	0.000136
H86	H	0.169677	-0.901057	-0.196564
Cl87	Cl	-0.002306	-0.729176	-0.179682
Cl88	Cl	-0.052657	-0.203888	0.000230
H89	H	0.206181	-0.153080	0.000267
H90	H	-0.026659	-0.051874	0.000309
Cl91	Cl	-0.566016	-0.966051	0.000245
H92	H	0.204232	-0.020970	0.000285
