data_functionalizedCrystal
_audit_creation_method	'MofGen! by Chris Wilmer'
_symmetry_space_group_name_H-M	'P1'
_symmetry_Int_Tables_number	1
_symmetry_cell_setting	triclinic
loop_
_symmetry_equiv_pos_as_xyz
  x,y,z
_cell_length_a	19.188925
_cell_length_b	19.188925
_cell_length_c	10.066281
_cell_angle_alpha	80.162958
_cell_angle_beta	80.120939
_cell_angle_gamma	83.142549
loop_
_atom_site_label
_atom_site_type_symbol
_atom_site_fract_x
_atom_site_fract_y
_atom_site_fract_z
O1	O	0.917008	0.078063	0.113514
O2	O	0.713697	0.089801	0.113511
O3	O	0.821222	-0.017724	0.113505
O4	O	0.809483	0.185587	0.113520
O5	O	0.839483	0.000443	-0.113467
O6	O	0.731957	0.107968	-0.113462
O7	O	0.935269	0.096229	-0.113458
Zn8	Zn	0.836512	0.104983	-0.149497
Zn9	Zn	0.812453	0.081048	0.149549
O10	O	0.827743	0.203754	-0.113452
C11	C	0.696816	0.098505	0.000024
C12	C	0.619311	0.097366	0.000022
C13	C	0.057539	0.152829	0.000030
C14	C	0.130362	0.153905	0.000037
C15	C	0.175298	0.090814	0.000030
C16	C	0.147404	0.026638	0.000050
C17	C	0.074581	0.025563	0.000057
N18	N	0.302193	0.051322	-0.077236
N19	N	0.371371	0.052347	-0.077245
C20	C	0.394709	0.094049	0.000014
N21	N	0.346255	0.134698	0.077265
N22	N	0.277071	0.133674	0.077268
C23	C	0.254263	0.091972	0.000024
C24	C	0.501557	0.159386	0.000011
C25	C	0.574380	0.160458	0.000027
C26	C	0.591422	0.033191	0.000027
C27	C	0.518598	0.032119	0.000025
C28	C	0.473670	0.095219	0.000010
C29	C	0.829973	-0.034652	0.000020
C30	C	0.828834	-0.112156	0.000022
C31	C	0.884295	-0.673931	0.000058
C32	C	0.885372	-0.601106	0.000046
C33	C	0.822280	-0.556171	0.000045
C34	C	0.758108	-0.584062	0.000021
C35	C	0.757034	-0.656883	0.000020
N36	N	0.770388	-0.441673	0.077299
N37	N	0.771413	-0.372496	0.077304
C38	C	0.825514	-0.336762	0.000046
N39	N	0.878560	-0.372821	-0.077199
N40	N	0.877537	-0.442005	-0.077197
C41	C	0.823438	-0.477207	0.000045
C42	C	0.890851	-0.229914	0.000046
C43	C	0.891926	-0.157087	0.000025
C44	C	0.764659	-0.140045	0.000015
C45	C	0.763587	-0.212869	0.000022
C46	C	0.826684	-0.257800	0.000044
C47	C	0.952149	0.087525	0.000032
C48	C	1.029653	0.088663	0.000042
C49	C	0.818992	0.220681	0.000036
C50	C	0.820131	0.298186	0.000042
N51	N	0.852937	0.121317	-0.353587
C52	C	0.818159	0.086727	-0.421398
C53	C	0.830817	0.099303	-0.578553
N54	N	0.796034	0.064707	0.353640
H55	H	0.628008	-0.018181	0.000031
O56	O	0.687825	-0.686962	-0.000001
H57	H	0.676847	-0.727138	0.092504
H58	H	0.937624	-0.578399	0.000058
O59	O	0.488521	-0.037091	0.000023
H60	H	0.430334	-0.027241	0.000038
O61	O	0.904799	0.172872	-0.430792
H62	H	0.876525	0.215742	-0.495913
H63	H	0.942228	-0.266499	0.000063
H64	H	0.779010	0.047805	-0.363105
H65	H	0.935674	-0.710509	0.000068
H66	H	0.944179	-0.134386	0.000030
H67	H	0.713289	-0.103458	0.000002
O68	O	0.694380	-0.242953	0.000019
H69	H	0.650687	-0.199474	0.000026
O70	O	0.690056	-0.535602	0.000022
H71	H	0.701581	-0.480280	0.000040
O72	O	0.744174	0.013142	-0.569181
H73	H	0.761581	-0.040546	-0.596544
O74	O	0.195872	-0.041408	0.000031
H75	H	0.178549	-0.079529	0.092549
O76	O	0.009081	0.220884	0.000020
H77	H	0.011528	0.244200	0.092531
O78	O	0.160455	0.223117	0.000003
H79	H	0.116980	0.266813	-0.000017
O80	O	0.882682	0.150861	-0.655742
H81	H	0.884493	0.152642	-0.767065
H82	H	0.464974	0.210765	0.000002
O83	O	0.044499	-0.043645	0.000047
H84	H	0.087978	-0.087338	0.000034
H85	H	0.597082	0.212711	0.000028
