data_functionalizedCrystal
_audit_creation_method	'MofGen! by Chris Wilmer'
_symmetry_space_group_name_H-M	'P1'
_symmetry_Int_Tables_number	1
_symmetry_cell_setting	triclinic
loop_
_symmetry_equiv_pos_as_xyz
  x,y,z
_cell_length_a	29.019771
_cell_length_b	29.019011
_cell_length_c	29.015668
_cell_angle_alpha	60.004890
_cell_angle_beta	60.009825
_cell_angle_gamma	59.993818
loop_
_atom_site_label
_atom_site_type_symbol
_atom_site_fract_x
_atom_site_fract_y
_atom_site_fract_z
O1	O	0.063866	-0.673289	0.563007
O2	O	0.024059	-0.524205	0.453633
O3	O	0.118464	-0.618532	0.453552
O4	O	-0.030540	-0.578962	0.563088
O5	O	0.149785	-0.587215	0.484789
O6	O	0.055379	-0.492888	0.484869
O7	O	0.095186	-0.641972	0.594244
Cu8	Cu	0.078143	-0.564571	0.542409
Cu9	Cu	0.041102	-0.601606	0.505468
O10	O	0.000781	-0.547645	0.594325
N11	N	0.104196	-0.538525	0.568394
N12	N	0.015054	-0.627656	0.479483
C13	C	0.143783	-0.499167	0.850823
C14	C	0.386758	-0.499111	0.607645
C15	C	0.143618	-0.499136	0.607763
C16	C	0.143598	-0.256029	0.607770
C17	C	0.182748	-0.373362	0.646852
C18	C	0.182758	-0.460025	0.646847
C19	C	0.204440	-0.438361	0.668500
C20	C	0.298958	-0.422064	0.618723
C21	C	0.358043	-0.441753	0.599006
C22	C	0.358069	-0.537354	0.635461
C23	C	0.298985	-0.517664	0.655180
C24	C	0.196983	-0.343808	0.588767
C25	C	0.177262	-0.284720	0.569090
C26	C	0.129075	-0.284743	0.665586
C27	C	0.148797	-0.343831	0.685263
C28	C	0.124666	-0.445760	0.661149
C29	C	0.104961	-0.465454	0.641458
C30	C	0.201435	-0.513678	0.593176
C31	C	0.221143	-0.493984	0.612860
C32	C	0.124738	-0.445777	0.763064
C33	C	0.105085	-0.465488	0.822151
C34	C	0.201594	-0.513722	0.822097
C35	C	0.221247	-0.494012	0.763009
C36	C	0.182817	-0.460038	0.733494
C37	C	0.269432	-0.460018	0.646809
C38	C	0.121399	-0.520450	0.915812
C39	C	0.451745	-0.520012	0.585655
C40	C	0.121177	-0.520429	0.586502
C41	C	0.121544	-0.191035	0.586883
C42	C	-0.110592	-0.666601	0.440035
C43	C	-0.023978	-0.666709	0.440231
C44	C	-0.045598	-0.688342	0.418486
C45	C	-0.061967	-0.782825	0.468184
C46	C	-0.042323	-0.841914	0.487907
C47	C	0.053280	-0.842025	0.451623
C48	C	0.033634	-0.782937	0.431899
C49	C	-0.140218	-0.680832	0.498102
C50	C	-0.199302	-0.661065	0.517690
C51	C	-0.199129	-0.612843	0.421140
C52	C	-0.140045	-0.632610	0.401552
C53	C	-0.038209	-0.608622	0.425941
C54	C	-0.018555	-0.588961	0.445716
C55	C	0.029562	-0.685470	0.494059
C56	C	0.009908	-0.705133	0.474291
C57	C	-0.038037	-0.608631	0.323917
C58	C	-0.018247	-0.588973	0.264830
C59	C	0.029955	-0.685489	0.264893
C60	C	0.010165	-0.705145	0.323981
C61	C	-0.023833	-0.666715	0.353492
C62	C	-0.023990	-0.753339	0.440182
N63	N	0.504925	-0.538487	0.568205
O64	O	0.685342	-0.543679	0.433426
O65	O	0.685533	-0.653395	0.582361
O66	O	0.685457	-0.653145	0.487904
O67	O	0.685418	-0.543929	0.527882
O68	O	0.591592	-0.621921	0.519268
O69	O	0.591667	-0.622171	0.613725
O70	O	0.591477	-0.512455	0.464790
Cu71	Cu	0.583001	-0.564462	0.542121
Cu72	Cu	0.694008	-0.601388	0.505029
O73	O	0.591553	-0.512705	0.559246
N74	N	0.772084	-0.627363	0.478939
N75	N	0.104168	-0.137853	0.568408
O76	O	-0.030538	0.042663	0.563097
O77	O	0.118403	0.042683	0.453379
O78	O	0.023918	0.042657	0.453664
O79	O	0.063947	0.042689	0.562813
O80	O	0.055242	-0.051215	0.484950
O81	O	0.149727	-0.051189	0.484666
O82	O	0.000787	-0.051210	0.594384
Cu83	Cu	0.078117	-0.059771	0.542381
Cu84	Cu	0.041072	0.051244	0.505382
O85	O	0.095272	-0.051184	0.594099
N86	N	0.015015	0.129326	0.479356
N87	N	0.104469	-0.538576	0.968995
O88	O	0.099171	-0.673268	1.149499
O89	O	-0.010519	-0.524279	1.149527
O90	O	-0.010265	-0.618748	1.149494
O91	O	0.098916	-0.578799	1.149533
O92	O	0.021008	-0.587443	1.055625
O93	O	0.020753	-0.492974	1.055659
O94	O	0.130444	-0.641963	1.055630
Cu95	Cu	0.078454	-0.564610	1.047074
Cu96	Cu	0.041470	-0.601632	1.158084
O97	O	0.130189	-0.547494	1.055664
N98	N	0.015455	-0.627672	1.236163
C99	C	0.035988	-0.489761	0.454182
C100	C	0.152897	-0.606574	0.454082
C101	C	0.083257	-0.676417	0.593694
C102	C	-0.033653	-0.559604	0.593794
C103	C	0.638623	-0.652892	0.616806
C104	C	0.638531	-0.652583	0.499833
C105	C	0.638384	-0.512957	0.430345
C106	C	0.638480	-0.513267	0.547317
C107	C	0.152789	-0.004135	0.453875
C108	C	0.035820	-0.004282	0.454266
C109	C	-0.033639	-0.004275	0.593849
C110	C	0.083370	-0.004245	0.593498
C111	C	-0.009989	-0.489856	1.102597
C112	C	-0.009667	-0.606839	1.102536
C113	C	0.129914	-0.676386	1.102561
C114	C	0.129599	-0.559396	1.102601
H115	H	0.057789	-0.453866	0.846219
O116	O	0.093650	-0.004344	0.634429
C117	C	0.150987	-0.052957	0.693728
C118	C	0.139398	-0.052919	0.647379
H119	H	0.187981	-0.092220	0.704204
H120	H	0.111880	-0.053001	0.733183
H121	H	0.161702	-0.013651	0.678078
H122	H	0.128697	-0.092219	0.662975
H123	H	0.178514	-0.052846	0.607934
O124	O	0.170982	-0.727428	1.102474
C125	C	0.230680	-0.795385	1.053801
C126	C	0.184158	-0.737576	1.053836
H127	H	0.241355	-0.803603	1.014475
H128	H	0.215176	-0.829878	1.093048
H129	H	0.269980	-0.795453	1.053836
H130	H	0.144842	-0.737453	1.053781
H131	H	0.199708	-0.703108	1.014593
O132	O	-0.084710	-0.004174	0.634893
C133	C	-0.185119	0.044444	0.662153
C134	C	-0.127316	0.044401	0.615629
H135	H	-0.219582	0.083706	0.646591
H136	H	-0.185206	0.044491	0.701464
H137	H	-0.193362	0.005137	0.672837
H138	H	-0.119036	0.083701	0.604896
H139	H	-0.127257	0.044324	0.576348
O140	O	-0.084730	-0.549445	0.634779
C141	C	-0.177684	-0.482582	0.660868
C142	C	-0.119862	-0.494008	0.614407
H143	H	-0.206108	-0.437767	0.644411
H144	H	-0.171801	-0.487633	0.699356
H145	H	-0.197962	-0.513910	0.673222
H146	H	-0.099552	-0.462690	0.602005
H147	H	-0.125781	-0.488977	0.575950
O148	O	0.170468	-0.549101	1.102581
C149	C	0.196269	-0.482061	1.102636
C150	C	0.149939	-0.493640	1.102644
H151	H	0.179685	-0.437226	1.102699
H152	H	0.234786	-0.487070	1.063339
H153	H	0.208625	-0.513337	1.141907
H154	H	0.137535	-0.462375	1.063400
H155	H	0.111453	-0.488651	1.141967
O156	O	-0.051022	-0.438787	1.102631
C157	C	-0.077251	-0.345795	1.102623
C158	C	-0.030737	-0.403609	1.102598
H159	H	-0.060864	-0.317334	1.102584
H160	H	-0.115741	-0.351689	1.141913
H161	H	-0.089573	-0.325548	1.063345
H162	H	-0.018367	-0.423888	1.141848
H163	H	0.007723	-0.397678	1.063281
O164	O	0.025907	-0.438648	0.413213
C165	C	0.053172	-0.355686	0.351529
C166	C	0.064641	-0.413554	0.397934
H167	H	0.084488	-0.335386	0.339154
H168	H	0.008351	-0.327281	0.367996
H169	H	0.058207	-0.361571	0.313050
H170	H	0.059636	-0.407722	0.436428
H171	H	0.109457	-0.441938	0.381421
O172	O	-0.071028	-0.571221	0.352496
C173	C	-0.116757	-0.473416	0.346196
C174	C	-0.079390	-0.515717	0.313761
H175	H	-0.123540	-0.428532	0.314894
H176	H	-0.095163	-0.480209	0.373907
H177	H	-0.159270	-0.480196	0.373807
H178	H	-0.036871	-0.508962	0.286119
H179	H	-0.101028	-0.508913	0.286086
H180	H	0.638322	-0.478510	0.387573
H181	H	0.195693	-0.615009	0.419684
O182	O	0.638786	-0.694001	0.667811
C183	C	0.687486	-0.753627	0.735753
C184	C	0.687378	-0.707080	0.677975
H185	H	0.726763	-0.764208	0.743995
H186	H	0.687547	-0.792985	0.735836
H187	H	0.648199	-0.738118	0.770224
H188	H	0.726658	-0.722536	0.643472
H189	H	0.687287	-0.667732	0.677940
O190	O	0.638522	-0.693446	0.489546
C191	C	0.638517	-0.719277	0.422488
C192	C	0.638514	-0.672946	0.434066
H193	H	0.638523	-0.702725	0.377629
H194	H	0.599256	-0.731641	0.453719
H195	H	0.677821	-0.757785	0.427534
H196	H	0.599238	-0.634408	0.429012
H197	H	0.677802	-0.660630	0.402836
H198	H	0.027247	-0.004286	0.419974
O199	O	0.203734	-0.003789	0.412730
C200	C	0.296568	-0.003340	0.386322
C201	C	0.238895	-0.003718	0.432964
H202	H	0.325016	-0.003294	0.402668
H203	H	0.290429	0.036040	0.347953
H204	H	0.316969	-0.042530	0.373825
H205	H	0.218463	0.035445	0.445509
H206	H	0.245071	-0.043124	0.471302
O207	O	0.087329	-0.412800	0.734481
C208	C	-0.010470	-0.367008	0.740771
C209	C	0.031830	-0.404366	0.773211
H210	H	-0.055350	-0.360168	0.772070
H211	H	-0.003723	-0.388646	0.713125
H212	H	-0.003648	-0.324518	0.713095
H213	H	0.025034	-0.446863	0.800918
H214	H	0.025072	-0.382684	0.800821
O215	O	0.239002	-0.546728	0.850676
C216	C	0.336803	-0.592446	0.844379
C217	C	0.294499	-0.555073	0.811943
H218	H	0.381682	-0.599194	0.813077
H219	H	0.330067	-0.634979	0.872023
H220	H	0.329975	-0.570798	0.872056
H221	H	0.301302	-0.576671	0.784235
H222	H	0.301246	-0.512542	0.784334
O223	O	0.638540	-0.472404	0.557561
C224	C	0.687198	-0.445428	0.582337
C225	C	0.687192	-0.491757	0.570763
H226	H	0.726534	-0.461053	0.593002
H227	H	0.647964	-0.434919	0.619329
H228	H	0.687114	-0.405993	0.543204
H229	H	0.687296	-0.531221	0.609863
H230	H	0.726422	-0.502218	0.533749
O231	O	0.048512	-0.451573	0.655426
C232	C	-0.045102	-0.401650	0.705380
C233	C	0.018810	-0.417337	0.689613
H234	H	-0.069135	-0.373958	0.733012
H235	H	-0.056738	-0.441736	0.729467
H236	H	-0.056747	-0.377611	0.665292
H237	H	0.030500	-0.441362	0.729671
H238	H	0.030411	-0.377231	0.665504
O239	O	0.238800	-0.546642	0.560152
C240	C	0.336573	-0.592426	0.514373
C241	C	0.294318	-0.555079	0.551768
H242	H	0.381469	-0.599269	0.507592
H243	H	0.329779	-0.570777	0.471858
H244	H	0.329749	-0.634916	0.536019
H245	H	0.301117	-0.512582	0.530172
H246	H	0.301123	-0.576772	0.594281
O247	O	0.093481	-0.727546	0.634607
C248	C	0.160467	-0.820453	0.660578
C249	C	0.148959	-0.762578	0.614190
H250	H	0.205323	-0.848788	0.644092
H251	H	0.129228	-0.840832	0.672923
H252	H	0.155377	-0.814566	0.699079
H253	H	0.154056	-0.768416	0.575658
H254	H	0.180196	-0.742218	0.601893
H255	H	0.268542	-0.505632	0.738936
O256	O	-0.050552	-0.617105	1.102550
C257	C	-0.109914	-0.674336	1.151101
C258	C	-0.063602	-0.662778	1.151150
H259	H	-0.120488	-0.711255	1.190396
H260	H	-0.094257	-0.685113	1.111823
H261	H	-0.149316	-0.635162	1.151065
H262	H	-0.024184	-0.701933	1.151206
H263	H	-0.079305	-0.651978	1.190424
O264	O	0.270390	-0.554607	0.682428
C265	C	0.276653	-0.651513	0.716532
C266	C	0.309107	-0.609735	0.685652
H267	H	0.307942	-0.696095	0.719159
H268	H	0.248984	-0.639695	0.692390
H269	H	0.249000	-0.649680	0.760948
H270	H	0.336791	-0.611547	0.641236
H271	H	0.336740	-0.621567	0.709837
H272	H	0.093408	-0.418110	0.688821
H273	H	0.382132	-0.584293	0.642268
O274	O	0.386699	-0.404848	0.571637
C275	C	0.404699	-0.322919	0.492017
C276	C	0.372221	-0.364683	0.522949
H277	H	0.392996	-0.290428	0.452653
H278	H	0.452012	-0.346859	0.479316
H279	H	0.393104	-0.300528	0.521211
H280	H	0.383769	-0.387085	0.493787
H281	H	0.324916	-0.340712	0.535659
O282	O	0.229934	-0.372409	0.551381
C283	C	0.275663	-0.366149	0.453591
C284	C	0.238333	-0.333690	0.495871
H285	H	0.282475	-0.334859	0.408703
H286	H	0.254024	-0.393801	0.460370
H287	H	0.318165	-0.393823	0.460407
H288	H	0.195824	-0.305985	0.489082
H289	H	0.260017	-0.306073	0.489082
O290	O	0.270191	-0.366090	0.610691
C291	C	0.203526	-0.294594	0.654237
C292	C	0.236061	-0.358002	0.663414
H293	H	0.175933	-0.288034	0.696856
H294	H	0.175803	-0.277939	0.628304
H295	H	0.234793	-0.270860	0.630751
H296	H	0.204834	-0.381782	0.686915
H297	H	0.263792	-0.374614	0.689323
H298	H	0.268446	-0.505593	0.601208
O299	O	0.023897	-0.761576	0.352685
C300	C	0.019379	-0.850037	0.370701
C301	C	0.003781	-0.786136	0.338171
H302	H	0.003133	-0.869915	0.358970
H303	H	-0.000619	-0.857520	0.418007
H304	H	0.067213	-0.869990	0.359179
H305	H	-0.044045	-0.766141	0.349645
H306	H	0.023820	-0.778693	0.290873
O307	O	0.190990	-0.255981	0.512669
C308	C	0.156976	-0.189230	0.434473
C309	C	0.141350	-0.221750	0.498374
H310	H	0.116852	-0.161537	0.422898
H311	H	0.184603	-0.220460	0.410370
H312	H	0.181047	-0.161587	0.422852
H313	H	0.117259	-0.249393	0.510048
H314	H	0.113750	-0.190489	0.522442
H315	H	0.137197	-0.367895	0.732563
O316	O	0.096173	-0.256024	0.702870
C317	C	0.085630	-0.189275	0.736599
C318	C	0.122957	-0.221774	0.694355
H319	H	0.107264	-0.161568	0.729721
H320	H	0.078857	-0.220518	0.781511
H321	H	0.043111	-0.161648	0.729813
H322	H	0.165497	-0.249402	0.701089
H323	H	0.129683	-0.190500	0.649458
O324	O	-0.032395	-0.532516	0.431750
C325	C	-0.082186	-0.438862	0.381706
C326	C	-0.066553	-0.502769	0.397476
H327	H	-0.109815	-0.414793	0.354003
H328	H	-0.042079	-0.427275	0.357692
H329	H	-0.106271	-0.427209	0.421787
H330	H	-0.042482	-0.514468	0.357424
H331	H	-0.106681	-0.514322	0.421512
O332	O	0.062455	-0.722873	0.527154
C333	C	0.108137	-0.820677	0.572985
C334	C	0.070871	-0.778378	0.535509
H335	H	0.114963	-0.865562	0.579742
H336	H	0.086436	-0.813888	0.615504
H337	H	0.150637	-0.813891	0.551417
H338	H	0.028365	-0.785139	0.557028
H339	H	0.092616	-0.785178	0.492992
O340	O	0.070600	-0.754381	0.404731
C341	C	0.167504	-0.760730	0.370795
C342	C	0.125700	-0.793139	0.401585
H343	H	0.212062	-0.792052	0.368232
H344	H	0.155658	-0.733076	0.394963
H345	H	0.165740	-0.733062	0.326356
H346	H	0.127442	-0.820837	0.446025
H347	H	0.137559	-0.820758	0.377374
O348	O	0.062889	-0.722799	0.236207
C349	C	0.073524	-0.756551	0.169426
C350	C	0.036164	-0.714272	0.201888
H351	H	0.051937	-0.749664	0.141663
H352	H	0.080260	-0.801453	0.200692
H353	H	0.116057	-0.749808	0.141862
H354	H	-0.006390	-0.720963	0.229453
H355	H	0.029474	-0.669385	0.170591
H356	H	-0.029822	-0.541673	0.240758
H357	H	0.021495	-0.752433	0.485928
O358	O	-0.079289	-0.870468	0.515082
C359	C	-0.148785	-0.888450	0.509777
C360	C	-0.106931	-0.856084	0.478909
H361	H	-0.171136	-0.876842	0.480541
H362	H	-0.181295	-0.876736	0.549127
H363	H	-0.124875	-0.935771	0.522506
H364	H	-0.130793	-0.808756	0.466142
H365	H	-0.074422	-0.867845	0.439584
O366	O	-0.111693	-0.713824	0.535558
C367	C	-0.118101	-0.759589	0.633393
C368	C	-0.150475	-0.722210	0.591034
H369	H	-0.149442	-0.766391	0.678253
H370	H	-0.090451	-0.737991	0.626692
H371	H	-0.090436	-0.802096	0.626586
H372	H	-0.178170	-0.679697	0.597814
H373	H	-0.178089	-0.743853	0.597745
O374	O	-0.117918	-0.754006	0.476122
C375	C	-0.189284	-0.687256	0.432416
C376	C	-0.125903	-0.719854	0.423352
H377	H	-0.195761	-0.659645	0.389759
H378	H	-0.205966	-0.659540	0.458364
H379	H	-0.213051	-0.718486	0.455841
H380	H	-0.102089	-0.688665	0.399912
H381	H	-0.109264	-0.747578	0.397428
O382	O	-0.227773	-0.579905	0.383785
C383	C	-0.294428	-0.569278	0.349883
C384	C	-0.262015	-0.606644	0.392208
H385	H	-0.322130	-0.590876	0.356687
H386	H	-0.263132	-0.562517	0.305000
H387	H	-0.322048	-0.526752	0.356655
H388	H	-0.234395	-0.649191	0.385488
H389	H	-0.293341	-0.613358	0.437076
O390	O	-0.111286	-0.618858	0.345137
C391	C	-0.093089	-0.623358	0.256594
C392	C	-0.125683	-0.638979	0.320476
H393	H	-0.104725	-0.639609	0.236635
H394	H	-0.045794	-0.643342	0.249173
H395	H	-0.104646	-0.575518	0.236674
H396	H	-0.114173	-0.686811	0.340438
H397	H	-0.172969	-0.618955	0.327857
H398	H	-0.065797	-0.577331	0.398207
H399	H	-0.223425	-0.672650	0.564976
H400	H	0.100203	-0.866125	0.444882
