data_functionalizedCrystal
_audit_creation_method	'MofGen! by Chris Wilmer'
_symmetry_space_group_name_H-M	'P1'
_symmetry_Int_Tables_number	1
_symmetry_cell_setting	triclinic
loop_
_symmetry_equiv_pos_as_xyz
  x,y,z
_cell_length_a	12.759401
_cell_length_b	12.759400
_cell_length_c	12.759393
_cell_angle_alpha	90.029373
_cell_angle_beta	90.020938
_cell_angle_gamma	90.014690
loop_
_atom_site_label
_atom_site_type_symbol
_atom_site_fract_x
_atom_site_fract_y
_atom_site_fract_z
Zn1	Zn	1.606278	-0.418173	0.594028
Zn2	Zn	1.606173	-0.593888	0.418352
Zn3	Zn	1.430576	-0.418229	0.418363
Zn4	Zn	1.430573	-0.593815	0.593989
O5	O	1.518400	-0.506026	0.506183
O6	O	1.753285	-0.441489	0.570736
O7	O	1.582838	-0.570641	0.271332
O8	O	1.453928	-0.271200	0.441687
O9	O	1.753208	-0.570587	0.441667
O10	O	1.583015	-0.271159	0.570747
O11	O	1.453827	-0.441584	0.271341
O12	O	1.283555	-0.441513	0.441649
O13	O	1.453923	-0.570461	0.741015
O14	O	1.283552	-0.570516	0.570680
O15	O	1.583012	-0.441418	0.741044
O16	O	1.582835	-0.740900	0.441629
O17	O	1.453822	-0.740846	0.570669
C18	C	1.245433	-0.506013	0.506162
C19	C	1.128656	-0.506033	0.506178
C20	C	1.073820	-0.573307	0.573259
C21	C	0.964096	-0.573311	0.573280
C22	C	0.964053	-0.438764	0.439130
C23	C	1.073775	-0.438756	0.439115
C24	C	1.518345	-0.778993	0.506167
C25	C	1.518417	-0.895770	0.506195
C26	C	1.585599	-0.950531	0.573451
C27	C	1.585648	-1.060255	0.573477
C28	C	1.451330	-1.060448	0.438980
C29	C	1.451277	-0.950726	0.438961
C30	C	1.663150	-0.950421	0.651099
C31	C	1.663199	-1.060145	0.651124
C32	C	1.792433	-0.506040	0.506205
C33	C	1.909210	-0.506046	0.506214
C34	C	1.518479	-0.505925	0.780217
C35	C	1.518512	-0.505882	0.896993
C36	C	1.518484	-0.231993	0.506223
C37	C	1.518520	-0.115216	0.506240
C38	C	1.518382	-0.506051	0.233216
C39	C	1.518552	-0.505798	0.116440
C40	C	1.585734	-0.438679	0.951872
C41	C	1.585752	-0.438633	1.061596
C42	C	1.451323	-0.573004	1.061553
C43	C	1.451301	-0.573044	0.951831
H44	H	1.118424	-0.383967	0.384490
H45	H	1.634011	-1.094142	0.728396
O46	O	1.771006	-1.099547	0.622345
H47	H	1.823744	-1.031820	0.608224
O48	O	0.904854	-0.366211	0.366798
H49	H	0.961422	-0.319421	0.320157
H50	H	1.396563	-0.906140	0.384205
O51	O	1.133018	-0.645853	0.645600
H52	H	1.076449	-0.692625	0.692257
H53	H	1.396604	-0.627687	1.106216
H54	H	0.919454	-0.628090	0.627906
O55	O	1.378932	-1.119719	0.366449
H56	H	1.390261	-1.205216	0.377753
O57	O	1.634186	-0.910910	0.758837
H58	H	1.620039	-0.978584	0.811598
O59	O	1.765524	-0.905271	0.612575
H60	H	1.830232	-0.932079	0.664166
H61	H	1.640459	-0.383989	0.907226
O62	O	1.658261	-0.366156	1.120791
H63	H	1.704996	-0.319471	1.064221
H64	H	1.396553	-0.627768	0.907148
