data_functionalizedCrystal
_audit_creation_method	'MofGen! by Chris Wilmer'
_symmetry_space_group_name_H-M	'P1'
_symmetry_Int_Tables_number	1
_symmetry_cell_setting	triclinic
loop_
_symmetry_equiv_pos_as_xyz
  x,y,z
_cell_length_a	11.169417
_cell_length_b	10.686285
_cell_length_c	11.169409
_cell_angle_alpha	85.599661
_cell_angle_beta	89.979436
_cell_angle_gamma	85.632710
loop_
_atom_site_label
_atom_site_type_symbol
_atom_site_fract_x
_atom_site_fract_y
_atom_site_fract_z
Zn1	Zn	1.871641	-0.502221	-0.641959
Zn2	Zn	2.204975	-0.168887	-0.308626
Zn3	Zn	2.538308	0.164446	0.024708
Zn4	Zn	1.886938	-0.713273	-0.425902
Zn5	Zn	2.220272	-0.379939	-0.092569
Zn6	Zn	2.553605	-0.046606	0.240765
Zn7	Zn	1.670930	-0.502297	-0.441288
Zn8	Zn	2.004263	-0.168964	-0.107954
Zn9	Zn	2.337597	0.164369	0.225379
Zn10	Zn	1.686337	-0.713170	-0.626554
Zn11	Zn	2.019671	-0.379837	-0.293221
Zn12	Zn	2.353004	-0.046503	0.040112
O13	O	1.778962	-0.607740	-0.533926
O14	O	2.112295	-0.274407	-0.200592
O15	O	2.445628	0.058927	0.132741
O16	O	2.041621	-0.530228	-0.613306
O17	O	2.374954	-0.196894	-0.279973
O18	O	2.708288	0.136439	0.053360
O19	O	1.858238	-0.685361	-0.259988
O20	O	2.191571	-0.352028	0.073346
O21	O	2.524905	-0.018695	0.406679
O22	O	1.684705	-0.325710	-0.480793
O23	O	2.018038	0.007623	-0.147460
O24	O	2.351372	0.340957	0.185874
O25	O	2.052859	-0.685287	-0.454570
O26	O	2.386193	-0.351954	-0.121237
O27	O	2.719526	-0.018620	0.212096
O28	O	1.832167	-0.325654	-0.628225
O29	O	2.165500	0.007680	-0.294892
O30	O	2.498833	0.341013	0.038441
O31	O	1.699538	-0.530359	-0.271291
O32	O	2.032871	-0.197025	0.062042
O33	O	2.366205	0.136308	0.395375
O34	O	1.505023	-0.530259	-0.465856
O35	O	1.838357	-0.196926	-0.132522
O36	O	2.171690	0.136407	0.200811
O37	O	1.710964	-0.685112	-0.796553
O38	O	2.044298	-0.351779	-0.463220
O39	O	2.377631	-0.018446	-0.129886
O40	O	1.516343	-0.685187	-0.601970
O41	O	1.849676	-0.351853	-0.268637
O42	O	2.183010	-0.018520	0.064696
O43	O	1.847106	-0.530128	-0.807871
O44	O	2.180440	-0.196795	-0.474537
O45	O	2.513773	0.136538	-0.141204
O46	O	1.873178	-0.889836	-0.439633
O47	O	2.206511	-0.556503	-0.106300
O48	O	2.539845	-0.223169	0.227034
O49	O	1.725797	-0.889761	-0.587051
O50	O	2.059131	-0.556428	-0.253718
O51	O	2.392464	-0.223094	0.079615
C52	C	1.467136	-0.607721	-0.533912
C53	C	1.800469	-0.274388	-0.200578
C54	C	2.133802	0.058946	0.132755
C55	C	1.333737	-0.607743	-0.533932
C56	C	1.667071	-0.274410	-0.200599
C57	C	2.000404	0.058923	0.132735
C58	C	1.802852	-0.935583	-0.510027
C59	C	2.136185	-0.602250	-0.176694
C60	C	2.469519	-0.268916	0.156640
C61	C	1.813182	-1.075835	-0.499843
C62	C	2.146515	-0.742502	-0.166510
C63	C	2.479849	-0.409169	0.166823
C64	C	2.092005	-0.607760	-0.533940
C65	C	2.425339	-0.274427	-0.200607
C66	C	2.758672	0.058906	0.132726
C67	C	2.225406	-0.607769	-0.533947
C68	C	2.558739	-0.274435	-0.200613
C69	C	2.892073	0.058898	0.132720
C70	C	1.779048	-0.607600	-0.846978
C71	C	2.112381	-0.274267	-0.513645
C72	C	2.445714	0.059066	-0.180312
C73	C	1.779084	-0.607541	-0.980383
C74	C	2.112418	-0.274207	-0.647050
C75	C	2.445751	0.059126	-0.313716
C76	C	1.755011	-0.278617	-0.557944
C77	C	2.088344	0.054716	-0.224610
C78	C	2.421678	0.388050	0.108723
C79	C	1.744804	-0.138365	-0.568179
C80	C	2.078138	0.194969	-0.234846
C81	C	2.411471	0.528302	0.098488
C82	C	1.778938	-0.607788	-0.222097
C83	C	2.112272	-0.274455	0.111236
C84	C	2.445605	0.058878	0.444569
C85	C	1.779108	-0.607492	-0.088720
C86	C	2.112442	-0.274159	0.244614
C87	C	2.445775	0.059174	0.577947
H88	H	1.678362	-1.084602	-0.634477
H89	H	2.011695	-0.751269	-0.301143
H90	H	2.345028	-0.417936	0.032190
N91	N	1.901202	-1.147037	-0.412011
N92	N	2.234535	-0.813704	-0.078678
N93	N	2.567868	-0.480371	0.254655
H94	H	1.880946	-1.124246	-0.327881
H95	H	2.214279	-0.790912	0.005452
H96	H	2.547613	-0.457579	0.338785
H97	H	1.896316	-1.240475	-0.417032
H98	H	2.229649	-0.907142	-0.083699
H99	H	2.562982	-0.573808	0.249635
