data_functionalizedCrystal
_audit_creation_method	'MofGen! by Chris Wilmer'
_symmetry_space_group_name_H-M	'P1'
_symmetry_Int_Tables_number	1
_symmetry_cell_setting	triclinic
loop_
_symmetry_equiv_pos_as_xyz
  x,y,z
_cell_length_a	19.188930
_cell_length_b	19.188924
_cell_length_c	12.996460
_cell_angle_alpha	89.991787
_cell_angle_beta	89.980533
_cell_angle_gamma	83.143372
loop_
_atom_site_label
_atom_site_type_symbol
_atom_site_fract_x
_atom_site_fract_y
_atom_site_fract_z
O1	O	0.926144	0.087169	-0.085902
O2	O	1.259477	0.420503	0.247431
O3	O	1.592810	0.753836	0.580764
O4	O	0.722832	0.098904	-0.085832
O5	O	1.056165	0.432237	0.247501
O6	O	1.389499	0.765570	0.580834
O7	O	0.830357	-0.008620	-0.085857
O8	O	1.163691	0.324714	0.247476
O9	O	1.497024	0.658047	0.580809
O10	O	0.818618	0.194692	-0.085877
O11	O	1.151952	0.528026	0.247456
O12	O	1.485285	0.861359	0.580789
O13	O	0.830346	-0.008626	0.085277
O14	O	1.163680	0.324708	0.418610
O15	O	1.497013	0.658041	0.751943
O16	O	0.722821	0.098898	0.085301
O17	O	1.056154	0.432231	0.418635
O18	O	1.389488	0.765564	0.751968
O19	O	0.926132	0.087163	0.085232
O20	O	1.259466	0.420497	0.418565
O21	O	1.592799	0.753830	0.751898
Cu22	Cu	0.824476	0.093030	0.100892
Cu23	Cu	1.157809	0.426363	0.434226
Cu24	Cu	1.491142	0.759697	0.767559
Cu25	Cu	0.824489	0.093037	-0.101493
Cu26	Cu	1.157822	0.426370	0.231840
Cu27	Cu	1.491156	0.759704	0.565174
O28	O	0.818607	0.194686	0.085256
O29	O	1.151940	0.528020	0.418590
O30	O	1.485274	0.861353	0.751923
C31	C	0.696815	0.098521	-0.000256
C32	C	1.030149	0.431854	0.333077
C33	C	1.363482	0.765187	0.666410
C34	C	0.619311	0.097380	-0.000229
C35	C	0.952644	0.430713	0.333104
C36	C	1.285978	0.764047	0.666437
C37	C	0.574385	0.160471	-0.000252
C38	C	0.907719	0.493804	0.333082
C39	C	1.241052	0.827138	0.666415
C40	C	0.501562	0.159399	-0.000263
C41	C	0.834895	0.492733	0.333071
C42	C	1.168228	0.826066	0.666404
C43	C	0.473667	0.095233	-0.000272
C44	C	0.807000	0.428566	0.333061
C45	C	1.140333	0.761900	0.666394
C46	C	0.518602	0.032134	-0.000244
C47	C	0.851935	0.365467	0.333089
C48	C	1.185269	0.698800	0.666423
C49	C	0.591424	0.033207	-0.000223
C50	C	0.924758	0.366540	0.333111
C51	C	1.258091	0.699874	0.666444
N52	N	0.365692	0.046188	-0.058553
N53	N	0.699025	0.379521	0.274780
N54	N	1.032358	0.712854	0.608114
N55	N	0.296513	0.045172	-0.058576
N56	N	0.629846	0.378506	0.274758
N57	N	0.963180	0.711839	0.608091
C58	C	0.254258	0.091995	-0.000335
C59	C	0.587592	0.425328	0.332998
C60	C	0.920925	0.758661	0.666332
N61	N	0.283794	0.139882	0.057917
N62	N	0.617127	0.473215	0.391250
N63	N	0.950461	0.806548	0.724583
N64	N	0.352979	0.140899	0.057935
N65	N	0.686312	0.474233	0.391268
N66	N	1.019645	0.807566	0.724601
C67	C	0.394704	0.094062	-0.000295
C68	C	0.728038	0.427395	0.333038
C69	C	1.061371	0.760729	0.666372
C70	C	0.130368	0.153928	-0.000368
C71	C	0.463702	0.487262	0.332965
C72	C	0.797035	0.820595	0.666299
C73	C	0.057543	0.152854	-0.000373
C74	C	0.390877	0.486187	0.332960
C75	C	0.724210	0.819521	0.666294
C76	C	0.074585	0.025586	-0.000364
C77	C	0.407919	0.358920	0.332969
C78	C	0.741252	0.692253	0.666302
C79	C	0.147409	0.026663	-0.000349
C80	C	0.480742	0.359996	0.332984
C81	C	0.814075	0.693329	0.666317
C82	C	0.175295	0.090835	-0.000356
C83	C	0.508629	0.424169	0.332977
C84	C	0.841962	0.757502	0.666311
C85	C	0.829973	-0.034634	-0.000289
C86	C	1.163306	0.298700	0.333044
C87	C	1.496639	0.632033	0.666377
C88	C	0.828834	-0.112138	-0.000286
C89	C	1.162167	0.221195	0.333047
C90	C	1.495500	0.554528	0.666381
C91	C	0.828308	-0.148534	-0.093571
C92	C	1.161642	0.184799	0.239762
C93	C	1.494975	0.518133	0.573096
C94	C	0.827228	-0.221357	-0.093579
C95	C	1.160562	0.111977	0.239755
C96	C	1.493895	0.445310	0.573088
C97	C	0.826688	-0.257783	-0.000296
C98	C	1.160021	0.075550	0.333038
C99	C	1.493355	0.408884	0.666371
C100	C	0.827210	-0.221378	0.093002
C101	C	1.160543	0.111955	0.426335
C102	C	1.493876	0.445289	0.759668
C103	C	0.828282	-0.148556	0.093007
C104	C	1.161616	0.184778	0.426340
C105	C	1.494949	0.518111	0.759673
N106	N	0.864731	-0.377449	0.069119
N107	N	1.198065	-0.044115	0.402453
N108	N	1.531398	0.289218	0.735786
N109	N	0.863714	-0.446627	0.069109
N110	N	1.197047	-0.113294	0.402442
N111	N	1.530380	0.220040	0.735775
C112	C	0.823454	-0.477192	-0.000304
C113	C	1.156787	-0.143859	0.333029
C114	C	1.490121	0.189475	0.666362
N115	N	0.784259	-0.435967	-0.069722
N116	N	1.117593	-0.102634	0.263612
N117	N	1.450926	0.230700	0.596945
N118	N	0.785280	-0.366783	-0.069714
N119	N	1.118614	-0.033449	0.263619
N120	N	1.451947	0.299884	0.596953
C121	C	0.825524	-0.336746	-0.000290
C122	C	1.158858	-0.003413	0.333043
C123	C	1.492191	0.329920	0.666376
C124	C	0.821757	-0.592550	-0.093604
C125	C	1.155090	-0.259217	0.239729
C126	C	1.488423	0.074116	0.573063
C127	C	0.820672	-0.665374	-0.093608
C128	C	1.154006	-0.332040	0.239726
C129	C	1.487339	0.001293	0.573059
C130	C	0.820660	-0.665394	0.092975
C131	C	1.153994	-0.332061	0.426309
C132	C	1.487327	0.001272	0.759642
C133	C	0.821738	-0.592571	0.092976
C134	C	1.155071	-0.259238	0.426310
C135	C	1.488404	0.074095	0.759643
C136	C	0.822289	-0.556154	-0.000316
C137	C	1.155622	-0.222821	0.333017
C138	C	1.488956	0.110512	0.666350
C139	C	0.952149	0.087546	-0.000347
C140	C	1.285482	0.420880	0.332987
C141	C	1.618816	0.754213	0.666320
C142	C	1.029654	0.088687	-0.000381
C143	C	1.362987	0.422020	0.332953
C144	C	1.696320	0.755354	0.666286
C145	C	0.818992	0.220700	-0.000314
C146	C	1.152325	0.554034	0.333020
C147	C	1.485659	0.887367	0.666353
C148	C	0.820131	0.298205	-0.000324
C149	C	1.153464	0.631539	0.333010
C150	C	1.486797	0.964872	0.666343
N151	N	0.824472	0.093025	0.243240
N152	N	1.157805	0.426358	0.576573
N153	N	1.491138	0.759691	0.909906
N154	N	0.824499	0.093037	-0.243840
N155	N	1.157832	0.426370	0.089493
N156	N	1.491165	0.759703	0.422826
C157	C	0.824488	0.093038	0.663054
C158	C	1.157821	0.426371	0.996387
C159	C	1.491155	0.759704	1.329720
C160	C	0.824481	0.093036	0.546249
C161	C	1.157815	0.426370	0.879582
C162	C	1.491148	0.759703	1.212915
C163	C	0.824480	0.093032	0.453150
C164	C	1.157813	0.426365	0.786484
C165	C	1.491147	0.759698	1.119817
C166	C	0.824473	0.093029	0.336338
C167	C	1.157806	0.426363	0.669671
C168	C	1.491139	0.759696	1.003004
H169	H	0.495885	-0.020111	-0.000266
H170	H	0.829219	0.313222	0.333067
H171	H	1.162552	0.646556	0.666401
N172	N	0.828862	-0.109299	0.193627
N173	N	1.162195	0.224034	0.526961
N174	N	1.495529	0.557367	0.860294
H175	H	0.829628	-0.057641	0.179475
H176	H	1.162961	0.275693	0.512808
H177	H	1.496294	0.609026	0.846141
H178	H	0.785399	-0.116235	0.234381
H179	H	1.118732	0.217098	0.567715
H180	H	1.452065	0.550431	0.901048
N181	N	0.822317	-0.553317	0.193596
N182	N	1.155650	-0.219984	0.526929
N183	N	1.488984	0.113349	0.860263
H184	H	0.866034	-0.528898	0.197738
H185	H	1.199368	-0.195565	0.531072
H186	H	1.532701	0.137768	0.864405
H187	H	0.779462	-0.517346	0.197715
H188	H	1.112795	-0.184013	0.531048
H189	H	1.446128	0.149321	0.864381
N190	N	0.604464	0.229683	-0.000266
N191	N	0.937797	0.563016	0.333067
N192	N	1.271130	0.896349	0.666400
H193	H	0.564949	0.269488	-0.000285
H194	H	0.898282	0.602822	0.333049
H195	H	1.231615	0.936155	0.666382
H196	H	0.634285	0.232905	0.063181
H197	H	0.967618	0.566239	0.396514
H198	H	1.300952	0.899572	0.729848
H199	H	0.820215	-0.695051	0.168928
H200	H	1.153548	-0.361718	0.502262
H201	H	1.486882	-0.028384	0.835595
H202	H	0.828755	-0.118887	-0.169537
H203	H	1.162089	0.214446	0.163796
H204	H	1.495422	0.547779	0.497129
H205	H	0.826796	-0.250995	-0.169545
H206	H	1.160130	0.082338	0.163788
H207	H	1.493463	0.415671	0.497122
H208	H	0.822201	-0.562897	-0.169568
H209	H	1.155535	-0.229564	0.163765
H210	H	1.488868	0.103769	0.497098
H211	H	0.826767	-0.251040	0.168953
H212	H	1.160101	0.082293	0.502287
H213	H	1.493434	0.415626	0.835620
H214	H	0.464976	0.210777	-0.000278
H215	H	0.798310	0.544111	0.333055
H216	H	1.131643	0.877444	0.666388
N217	N	0.820164	-0.704641	-0.194227
N218	N	1.153497	-0.371308	0.139106
N219	N	1.486831	-0.037974	0.472440
H220	H	0.820699	-0.670521	-0.253322
H221	H	1.154032	-0.337187	0.080011
H222	H	1.487365	-0.003854	0.413345
H223	H	0.863012	-0.740628	-0.198235
H224	H	1.196345	-0.407295	0.135099
H225	H	1.529679	-0.073961	0.468432
H226	H	0.628003	-0.018171	-0.000205
H227	H	0.961337	0.315162	0.333128
H228	H	1.294670	0.648496	0.666462
H229	H	0.153075	0.206181	-0.000358
H230	H	0.486408	0.539515	0.332975
H231	H	0.819741	0.872848	0.666308
H232	H	0.020965	0.204232	-0.000385
H233	H	0.354298	0.537566	0.332948
H234	H	0.687632	0.870899	0.666282
N235	N	0.044510	-0.043623	-0.000363
N236	N	0.377843	0.289710	0.332971
N237	N	0.711176	0.623043	0.666304
H238	H	-0.008440	-0.034731	-0.000376
H239	H	0.324893	0.298602	0.332957
H240	H	0.658226	0.631935	0.666290
H241	H	0.060980	-0.071222	-0.063797
H242	H	0.394314	0.262111	0.269536
H243	H	0.727647	0.595444	0.602869
H244	H	0.183988	-0.024713	-0.000337
H245	H	0.517322	0.308620	0.332997
H246	H	0.850655	0.641953	0.666330
