data_functionalizedCrystal
_audit_creation_method	'MofGen! by Chris Wilmer'
_symmetry_space_group_name_H-M	'P1'
_symmetry_Int_Tables_number	1
_symmetry_cell_setting	triclinic
loop_
_symmetry_equiv_pos_as_xyz
  x,y,z
_cell_length_a	13.635800
_cell_length_b	17.110477
_cell_length_c	11.102315
_cell_angle_alpha	84.813817
_cell_angle_beta	71.393725
_cell_angle_gamma	99.060298
loop_
_atom_site_label
_atom_site_type_symbol
_atom_site_fract_x
_atom_site_fract_y
_atom_site_fract_z
V1	V	-2.031682	-0.109487	0.396094
O2	O	-2.036442	0.005257	0.388723
O3	O	-1.996397	-0.217090	0.393223
O4	O	-2.020444	-0.107804	0.568918
O5	O	-2.012228	-0.104785	0.211811
V6	V	-2.273252	-0.095762	0.374072
O7	O	-2.162730	-0.139593	0.444401
O8	O	-2.367303	-0.065655	0.325765
O9	O	-2.196934	0.011841	0.376943
O10	O	-2.327190	-0.210506	0.381443
O11	O	-2.351404	-0.100464	0.558355
O12	O	-2.172887	-0.097444	0.201248
V13	V	-1.531682	-0.109487	0.396094
O14	O	-1.536442	0.005257	0.388723
O15	O	-1.496397	-0.217090	0.393223
O16	O	-1.520444	-0.107804	0.568918
O17	O	-1.512228	-0.104785	0.211811
V18	V	-1.773252	-0.095762	0.374072
O19	O	-1.662730	-0.139593	0.444401
O20	O	-1.867303	-0.065655	0.325765
O21	O	-1.696934	0.011841	0.376943
O22	O	-1.827190	-0.210506	0.381443
O23	O	-1.851404	-0.100464	0.558355
O24	O	-1.672887	-0.097444	0.201248
C25	C	-1.915781	-0.243321	0.386932
C26	C	-1.927661	-0.331288	0.385737
C27	C	-2.024359	-0.376645	0.391508
C28	C	-2.035518	-0.459300	0.390393
C29	C	-1.949975	-0.496595	0.383496
C30	C	-1.853270	-0.451232	0.377728
C31	C	-1.842115	-0.368579	0.378853
C32	C	-1.979099	-0.745950	0.379791
C33	C	-1.990262	-0.828608	0.378662
C34	C	-2.172510	-0.836671	0.391329
C35	C	-2.161344	-0.754016	0.392446
C36	C	-2.064642	-0.708661	0.386685
C37	C	-1.961378	-0.581081	0.382351
C38	C	-2.053243	-0.624178	0.387839
C39	C	-1.946456	-0.103916	0.611048
C40	C	-1.977836	-0.103252	0.752331
C41	C	-2.109220	0.038068	0.383230
C42	C	-2.086960	0.126034	0.384434
C43	C	-2.078546	-0.101335	0.159111
C44	C	-2.036784	-0.101995	0.017827
C45	C	-1.415781	-0.243321	0.386932
C46	C	-1.427661	-0.331288	0.385737
C47	C	-1.446456	-0.103916	0.611048
C48	C	-1.477836	-0.103252	0.752331
C49	C	-2.160124	-0.111160	0.765289
C50	C	-2.266006	-0.114805	0.838143
C51	C	-2.295484	-0.114180	0.970890
C52	C	-2.219071	-0.109909	1.030786
C53	C	-2.113188	-0.106264	0.957933
C54	C	-2.083720	-0.106891	0.825183
C55	C	-1.930902	-0.098350	0.944973
C56	C	-1.901423	-0.098980	0.812227
C57	C	-1.854488	-0.094078	1.004869
C58	C	-1.748605	-0.090439	0.932017
C59	C	-1.719129	-0.091065	0.799262
C60	C	-1.795540	-0.095336	0.739374
C61	C	-1.609220	0.038068	0.383230
C62	C	-1.586960	0.126034	0.384434
C63	C	-1.578546	-0.101335	0.159111
C64	C	-1.536784	-0.101995	0.017827
C65	C	-1.524370	-0.376633	0.391519
C66	C	-1.535551	-0.459289	0.390416
C67	C	-1.450020	-0.496599	0.383520
C68	C	-1.353305	-0.451248	0.377741
C69	C	-1.342127	-0.368594	0.378854
C70	C	-1.662745	0.171379	0.378655
C71	C	-1.641836	0.254035	0.379765
C72	C	-1.545144	0.291344	0.386663
C73	C	-1.469352	0.245994	0.392439
C74	C	-1.490259	0.163340	0.391319
C75	C	-1.506115	-0.248187	0.788442
C76	C	-1.534993	-0.320339	0.872870
C77	C	-1.564479	-0.319711	1.005617
C78	C	-1.565088	-0.246923	1.053937
C79	C	-1.536210	-0.174771	0.969509
C80	C	-1.506722	-0.175407	0.836761
C81	C	-1.507938	-0.029839	0.933400
C82	C	-1.478445	-0.030464	0.800652
C83	C	-1.508548	0.042949	0.981720
C84	C	-1.479662	0.115104	0.897291
C85	C	-1.450174	0.114473	0.764536
C86	C	-1.449567	0.041688	0.716224
H87	H	-2.094017	-0.346285	0.397112
F88	F	-1.764179	-0.096006	0.598094
H89	H	-1.263373	-0.331679	0.374139
F90	F	-1.262283	-0.490966	0.370399
H91	H	-1.741483	0.141013	0.373039
H92	H	-2.328216	-0.118280	0.789360
F93	F	-1.522907	0.379313	0.387853
H94	H	-1.632906	-0.088078	0.739948
H95	H	-1.390625	0.276383	0.398054
F96	F	-1.722513	0.302285	0.373620
F97	F	-1.596486	-0.246259	1.195220
F98	F	-1.739197	-0.320307	0.372716
F99	F	-1.409591	0.115089	0.397475
H100	H	-1.587995	-0.378464	1.074360
F101	F	-1.474718	-0.248860	0.647160
H102	H	-2.122893	-0.593809	0.393460
F103	F	-1.638490	-0.507540	0.396561
H104	H	-1.878497	-0.093565	1.112958
H105	H	-2.381702	-0.117147	1.030207
H106	H	-1.686398	-0.086956	0.980794
H107	H	-1.594023	-0.346266	0.397126
H108	H	-1.426666	0.173228	0.695801
F109	F	-1.534349	-0.397802	0.821435
H110	H	-1.532565	0.043455	1.089811
F111	F	-1.418180	0.041011	0.574944
F112	F	-1.480320	0.192560	0.948725
H113	H	-2.114259	-0.496227	0.395095
F114	F	-2.128760	-0.111838	0.624011
F115	F	-2.252383	-0.714327	0.399748
H116	H	-2.251241	-0.873608	0.396020
H117	H	-1.920604	-0.858974	0.373076
H118	H	-1.783622	-0.481604	0.372120
F119	F	-1.876180	-0.697690	0.373651
F120	F	-2.250447	-0.109235	1.172066
H121	H	-1.891729	-0.611455	0.376732
H122	H	-1.459136	-0.563902	0.382615
