data_functionalizedCrystal
_audit_creation_method	'MofGen! by Chris Wilmer'
_symmetry_space_group_name_H-M	'P1'
_symmetry_Int_Tables_number	1
_symmetry_cell_setting	triclinic
loop_
_symmetry_equiv_pos_as_xyz
  x,y,z
_cell_length_a	10.686285
_cell_length_b	10.686220
_cell_length_c	10.686551
_cell_angle_alpha	89.691918
_cell_angle_beta	99.084519
_cell_angle_gamma	90.345431
loop_
_atom_site_label
_atom_site_type_symbol
_atom_site_fract_x
_atom_site_fract_y
_atom_site_fract_z
Zn1	Zn	-0.307898	1.994012	0.537149
Zn2	Zn	0.025435	2.327345	0.870482
Zn3	Zn	0.358769	2.660679	1.203815
Zn4	Zn	-0.536485	1.993911	0.308653
Zn5	Zn	-0.203152	2.327244	0.641987
Zn6	Zn	0.130181	2.660578	0.975320
Zn7	Zn	-0.340205	1.770410	0.340818
Zn8	Zn	-0.006872	2.103743	0.674151
Zn9	Zn	0.326462	2.437076	1.007485
Zn10	Zn	-0.533926	1.800161	0.534641
Zn11	Zn	-0.200592	2.133494	0.867974
Zn12	Zn	0.132741	2.466827	1.201307
O13	O	-0.429629	1.889623	0.430315
O14	O	-0.096295	2.222957	0.763648
O15	O	0.237038	2.556290	1.096982
O16	O	-0.325771	2.168662	0.494427
O17	O	0.007562	2.501995	0.827760
O18	O	0.340896	2.835329	1.161093
O19	O	-0.525040	1.951770	0.136178
O20	O	-0.191707	2.285103	0.469512
O21	O	0.141627	2.618437	0.802845
O22	O	-0.159182	1.787663	0.381372
O23	O	0.174151	2.120996	0.714705
O24	O	0.507485	2.454329	1.048039
O25	O	-0.493713	2.168588	0.326552
O26	O	-0.160380	2.501921	0.659886
O27	O	0.172954	2.835254	0.993219
O28	O	-0.135446	1.951942	0.525615
O29	O	0.197887	2.285275	0.858949
O30	O	0.531220	2.618609	1.192282
O31	O	-0.380834	1.787565	0.159810
O32	O	-0.047500	2.120898	0.493143
O33	O	0.285833	2.454231	0.826476
O34	O	-0.378352	1.599693	0.378940
O35	O	-0.045019	1.933026	0.712274
O36	O	0.288315	2.266359	1.045607
O37	O	-0.489351	1.838368	0.711715
O38	O	-0.156018	2.171702	1.045048
O39	O	0.177316	2.505035	1.378382
O40	O	-0.520678	1.621551	0.521341
O41	O	-0.187344	1.954884	0.854675
O42	O	0.145989	2.288217	1.188008
O43	O	-0.323289	1.980790	0.713557
O44	O	0.010044	2.314123	1.046891
O45	O	0.343377	2.647457	1.380224
O46	O	-0.712883	1.980618	0.324121
O47	O	-0.379550	2.313951	0.657454
O48	O	-0.046216	2.647285	0.990787
O49	O	-0.711003	1.838270	0.490153
O50	O	-0.377669	2.171604	0.823486
O51	O	-0.044336	2.504937	1.156819
C52	C	-0.452744	1.565334	0.453360
C53	C	-0.119410	1.898667	0.786693
C54	C	0.213923	2.232000	1.120026
C55	C	-0.462661	1.426605	0.463246
C56	C	-0.129327	1.759939	0.796579
C57	C	0.204006	2.093272	1.129912
C58	C	-0.757764	1.912697	0.403399
C59	C	-0.424431	2.246031	0.736733
C60	C	-0.091097	2.579364	1.070066
C61	C	-0.898130	1.922686	0.391919
C62	C	-0.564797	2.256019	0.725252
C63	C	-0.231464	2.589353	1.058585
C64	C	-0.100207	1.866495	0.457361
C65	C	0.233126	2.199828	0.790695
C66	C	0.566460	2.533162	1.124028
C67	C	0.040173	1.856639	0.468887
C68	C	0.373506	2.189972	0.802220
C69	C	0.706840	2.523306	1.135554
C70	C	-0.402431	1.912909	0.759745
C71	C	-0.069098	2.246242	1.093078
C72	C	0.264236	2.579576	1.426411
C73	C	-0.390841	1.922832	0.900128
C74	C	-0.057508	2.256165	1.233461
C75	C	0.275826	2.589499	1.566795
C76	C	-0.406424	2.215179	0.407181
C77	C	-0.073091	2.548513	0.740515
C78	C	0.260243	2.881846	1.073848
C79	C	-0.396535	2.353912	0.397323
C80	C	-0.063202	2.687245	0.730656
C81	C	0.270131	3.020579	1.063990
C82	C	-0.456624	1.866493	0.102170
C83	C	-0.123291	2.199827	0.435503
C84	C	0.210043	2.533160	0.768836
C85	C	-0.467841	1.856787	-0.038201
C86	C	-0.134508	2.190121	0.295132
C87	C	0.198826	2.523454	0.628466
H88	H	-0.332337	1.397808	0.333320
H89	H	0.000996	1.731141	0.666653
H90	H	0.334329	2.064474	0.999986
H91	H	-0.526872	1.382704	0.527245
H92	H	-0.193538	1.716037	0.860578
H93	H	0.139795	2.049370	1.193911
H94	H	-0.952701	1.986867	0.317226
H95	H	-0.619368	2.320200	0.650559
H96	H	-0.286035	2.653534	0.983892
H97	H	-0.542634	1.792656	0.907200
H98	H	-0.209300	2.125989	1.240534
H99	H	0.124033	2.459322	1.573867
H100	H	-0.905265	1.792453	0.543568
H101	H	-0.571932	2.125786	0.876901
H102	H	-0.238598	2.459120	1.210234
H103	H	-0.316051	1.986977	0.954732
H104	H	0.017282	2.320311	1.288065
H105	H	0.350615	2.653644	1.621398
