data_functionalizedCrystal
_audit_creation_method	'MofGen! by Chris Wilmer'
_symmetry_space_group_name_H-M	'P1'
_symmetry_Int_Tables_number	1
_symmetry_cell_setting	triclinic
loop_
_symmetry_equiv_pos_as_xyz
  x,y,z
_cell_length_a	17.038272
_cell_length_b	16.109318
_cell_length_c	15.186229
_cell_angle_alpha	90.000224
_cell_angle_beta	89.995962
_cell_angle_gamma	87.290060
loop_
_atom_site_label
_atom_site_type_symbol
_atom_site_fract_x
_atom_site_fract_y
_atom_site_fract_z
O1	O	0.100560	1.110263	-0.073156
O2	O	0.113052	0.869090	-0.073174
O3	O	-0.007009	0.988243	-0.073158
O4	O	0.220621	0.991110	-0.073172
O5	O	-0.007011	0.988235	0.073299
O6	O	0.113050	0.869082	0.073284
O7	O	0.100558	1.110255	0.073301
Zn8	Zn	0.106804	0.989667	0.096546
Zn9	Zn	0.106806	0.989678	-0.096418
O10	O	0.220620	0.991102	0.073286
C11	C	0.112543	0.838075	0.000053
C12	C	0.111019	0.745673	0.000046
C13	C	0.106097	0.446254	-0.079772
C14	C	0.107524	0.533077	-0.079778
C15	C	0.107511	0.533085	0.079898
C16	C	0.106079	0.446264	0.079903
C17	C	0.105375	0.402851	0.000065
C18	C	0.108235	0.576494	0.000055
C19	C	0.109782	0.670631	0.000050
C20	C	0.103827	0.308708	0.000070
C21	C	-0.036139	0.985632	0.000070
C22	C	-0.122932	0.977853	0.000070
C23	C	-0.173043	1.049273	0.000076
C24	C	-0.254593	1.041959	0.000067
C25	C	-0.286032	0.963224	0.000058
C26	C	-0.235915	0.891798	0.000049
C27	C	-0.154366	0.899113	0.000052
C28	C	-0.531791	0.937381	0.000044
C29	C	-0.613347	0.930072	0.000044
C30	C	-0.632020	1.080234	0.000060
C31	C	-0.550468	1.087542	0.000068
C32	C	-0.500358	1.016116	0.000055
C33	C	-0.369390	0.955746	0.000052
C34	C	-0.417002	1.023595	0.000055
C35	C	0.249749	0.993713	0.000055
C36	C	0.336542	1.001492	0.000050
C37	C	0.101067	1.141270	0.000073
C38	C	0.102592	1.233672	0.000074
N39	N	0.106802	0.989665	0.228238
N40	N	0.106802	0.989686	-0.228111
C41	C	0.053657	1.042447	0.453968
C42	C	0.053655	1.042449	0.546158
C43	C	0.159950	0.936899	0.546153
C44	C	0.159948	0.936893	0.453965
C45	C	0.106802	0.989671	0.407875
C46	C	0.106802	0.989680	0.592253
C47	C	0.106801	0.989682	0.692209
C48	C	0.106802	0.989668	0.307913
H49	H	0.108085	0.568443	0.144899
H50	H	0.010381	1.085421	0.416444
Br51	Br	-0.278581	0.784941	0.000022
Br52	Br	0.108496	0.591978	-0.188133
Br53	Br	-0.018477	1.114071	0.608712
Br54	Br	0.232075	0.865275	0.608707
Br55	Br	0.232072	0.865257	0.391402
Br56	Br	-0.374334	1.130447	0.000059
Br57	Br	0.105140	0.387338	-0.188122
H58	H	-0.113566	0.840955	0.000047
Br59	Br	0.105094	0.387355	0.188261
Br60	Br	-0.463795	0.840445	0.000020
Br61	Br	-0.130384	1.156133	0.000101
H62	H	-0.295391	1.100117	0.000074
H63	H	-0.394997	0.891639	0.000047
Br64	Br	-0.507807	1.194401	0.000052
H65	H	-0.672828	1.138384	0.000070
H66	H	-0.638941	0.865953	0.000051
