data_functionalizedCrystal
_audit_creation_method	'MofGen! by Chris Wilmer'
_symmetry_space_group_name_H-M	'P1'
_symmetry_Int_Tables_number	1
_symmetry_cell_setting	triclinic
loop_
_symmetry_equiv_pos_as_xyz
  x,y,z
_cell_length_a	25.639239
_cell_length_b	17.639504
_cell_length_c	17.640968
_cell_angle_alpha	109.667320
_cell_angle_beta	78.768889
_cell_angle_gamma	78.779592
loop_
_atom_site_label
_atom_site_type_symbol
_atom_site_fract_x
_atom_site_fract_y
_atom_site_fract_z
Zn1	Zn	0.069125	-1.354422	-0.721276
Zn2	Zn	-0.040492	-1.326401	-0.583407
Zn3	Zn	0.024816	-1.188690	-0.555535
Zn4	Zn	-0.040438	-1.216490	-0.693289
O5	O	0.003253	-1.271501	-0.638377
O6	O	0.073105	-1.466063	-0.726364
O7	O	-0.050395	-1.284772	-0.464361
O8	O	0.103877	-1.210768	-0.577568
O9	O	-0.007430	-1.445476	-0.625073
O10	O	0.136431	-1.332530	-0.699337
O11	O	-0.002414	-1.183596	-0.443883
O12	O	-0.002361	-1.077020	-0.550430
O13	O	-0.007338	-1.258149	-0.812350
O14	O	-0.050303	-1.097445	-0.651638
O15	O	0.073157	-1.359487	-0.832912
O16	O	-0.113669	-1.311728	-0.597936
O17	O	-0.113629	-1.230977	-0.678665
C18	C	-0.031135	-1.057322	-0.594973
C19	C	-0.045855	-0.965699	-0.576425
C20	C	0.115162	-0.718003	-0.779478
C21	C	0.101314	-0.631906	-0.762032
C22	C	0.017539	-0.610459	-0.656406
C23	C	0.031379	-0.696557	-0.673846
C24	C	0.080191	-0.750322	-0.735382
C25	C	-0.003592	-0.728876	-0.629750
C26	C	0.010248	-0.814966	-0.647185
C27	C	0.059059	-0.868736	-0.708717
C28	C	0.094031	-0.836412	-0.752818
C29	C	-0.052402	-0.675109	-0.568210
C30	C	-0.087373	-0.707428	-0.524114
C31	C	-0.073535	-0.793520	-0.541553
C32	C	-0.024724	-0.847290	-0.603085
C33	C	-0.108507	-0.825844	-0.497453
C34	C	-0.094667	-0.911933	-0.514888
C35	C	-0.010884	-0.933379	-0.620521
C36	C	-0.132618	-1.271355	-0.638311
C37	C	-0.190728	-1.271373	-0.638325
C38	C	-0.551039	-1.313704	-0.596458
C39	C	-0.605636	-1.313738	-0.596476
O40	O	-0.633858	-1.349577	-0.560809
N41	N	-0.632954	-1.271657	-0.638461
C42	C	-0.605671	-1.229546	-0.680437
O43	O	-0.633920	-1.193757	-0.716151
C44	C	-0.551073	-1.229517	-0.680424
C45	C	-0.523759	-1.271594	-0.638430
C46	C	-0.523725	-1.355778	-0.554468
C47	C	-0.469132	-1.355742	-0.554450
C48	C	-0.441852	-1.313632	-0.596421
C49	C	-0.469166	-1.271558	-0.638411
C50	C	-0.523789	-1.187412	-0.722406
C51	C	-0.469187	-1.187387	-0.722390
C52	C	-0.441874	-1.229464	-0.680395
C53	C	-0.387293	-1.229413	-0.680364
N54	N	-0.359975	-1.271494	-0.638380
C55	C	-0.387254	-1.313604	-0.596408
C56	C	-0.720329	-1.229611	-0.680463
C57	C	-0.774927	-1.229634	-0.680471
C58	C	-0.774889	-1.313827	-0.596511
C59	C	-0.720291	-1.313798	-0.596498
C60	C	-0.693011	-1.271692	-0.638478
C61	C	-0.272605	-1.313525	-0.596372
C62	C	-0.218007	-1.313483	-0.596354
C63	C	-0.218050	-1.229293	-0.680318
C64	C	-0.272643	-1.229332	-0.680332
C65	C	-0.299919	-1.271454	-0.638358
O66	O	-0.359036	-1.193595	-0.716016
O67	O	-0.358996	-1.349396	-0.560710
C68	C	0.139661	-1.271674	-0.638465
C69	C	0.197789	-1.271747	-0.638503
C70	C	0.037858	-1.315044	-0.853376
C71	C	0.052605	-1.333600	-0.944996
C72	C	0.037781	-0.486516	-0.681947
C73	C	0.052513	-0.578141	-0.700507
C74	C	-0.108442	-1.130852	-1.192802
C75	C	-0.094576	-1.148305	-1.278896
C76	C	-0.010763	-1.253820	-1.300295
C77	C	-0.024621	-1.236372	-1.214200
C78	C	-0.073462	-1.174888	-1.160460
C79	C	0.010359	-1.280409	-1.181858
C80	C	-0.003499	-1.262966	-1.095771
C81	C	-0.052338	-1.201486	-1.042027
C82	C	-0.087320	-1.157445	-1.074373
C83	C	0.059198	-1.341897	-1.235601
C84	C	0.094178	-1.385933	-1.203259
C85	C	0.080322	-1.368486	-1.117170
C86	C	0.031483	-1.307007	-1.063425
C87	C	0.115304	-1.412527	-1.084823
C88	C	0.101445	-1.395084	-0.998736
C89	C	0.017624	-1.289564	-0.977338
C90	C	-0.031173	-1.228174	-0.424223
C91	C	-0.045747	-1.209778	-0.332636
H92	H	-0.127115	-0.663641	-0.474008
N93	N	-0.300458	-1.356539	-0.553478
N94	N	-0.307487	-1.335712	-0.476315
H95	H	-0.327159	-1.366085	-0.446015
N96	N	-0.190103	-1.356473	-0.553466
N97	N	-0.146487	-1.414842	-0.593135
H98	H	-0.126780	-1.445202	-0.562846
N99	N	-0.551688	-1.144430	-0.765296
N100	N	-0.595300	-1.086052	-0.725631
H101	H	-0.615003	-1.055694	-0.755924
N102	N	-0.441243	-1.398728	-0.511550
N103	N	-0.465615	-1.436322	-0.474084
H104	H	-0.445922	-1.466686	-0.443786
H105	H	0.028862	-0.977159	-0.670633
H106	H	0.133943	-1.435996	-1.247026
N107	N	-0.300542	-1.186362	-0.723238
N108	N	-0.317857	-1.225992	-0.781675
H109	H	-0.337555	-1.195650	-0.811986
N110	N	-0.692475	-1.186589	-0.723349
N111	N	-0.716877	-1.149023	-0.760829
H112	H	-0.697207	-1.118640	-0.791119
H113	H	-0.545929	-1.390073	-0.520291
N114	N	-0.692402	-1.356780	-0.553596
N115	N	-0.716773	-1.394368	-0.516122
H116	H	-0.697079	-1.424727	-0.485820
H117	H	-0.123065	-1.112441	-1.305224
N118	N	0.143896	-0.891339	-0.815666
N119	N	0.180312	-0.933538	-0.796486
H120	H	0.215528	-0.972332	-0.840868
N121	N	-0.032325	-0.555540	-0.593564
N122	N	-0.078175	-0.566206	-0.600844
H123	H	-0.113394	-0.527421	-0.556462
H124	H	-0.797109	-1.348119	-0.562339
N125	N	-0.066536	-0.587166	-0.550379
N126	N	-0.034662	-0.545301	-0.525487
H127	H	-0.044644	-0.483190	-0.512891
N128	N	0.039119	-1.316624	-1.355204
N129	N	0.051487	-1.332195	-1.432066
H130	H	0.086717	-1.376551	-1.470846
H131	H	0.155067	-1.462593	-1.128592
H132	H	0.070328	-0.938834	-0.722909
N133	N	-0.441317	-1.144369	-0.765259
N134	N	-0.392571	-1.144338	-0.765240
H135	H	-0.372888	-1.113955	-0.795514
N136	N	-0.066491	-1.183651	-0.954087
N137	N	-0.072068	-1.111573	-0.902651
H138	H	-0.082063	-1.098974	-0.840543
N139	N	-0.130390	-0.944937	-0.469833
N140	N	-0.173969	-0.896925	-0.414891
H141	H	-0.199198	-0.920232	-0.383065
H142	H	-0.195831	-1.195005	-0.714487
H143	H	-0.148247	-0.782055	-0.447344
N144	N	-0.032266	-1.226768	-0.922426
N145	N	-0.044633	-1.211209	-0.845567
H146	H	-0.079868	-1.166864	-0.806784
N147	N	-0.802820	-1.186633	-0.723356
N148	N	-0.778452	-1.149037	-0.760821
H149	H	-0.798148	-1.118668	-0.791113
N150	N	-0.158338	-1.068057	-1.137905
N151	N	-0.194740	-1.087290	-1.095728
H152	H	-0.229978	-1.042945	-1.056958
H153	H	0.070479	-1.356099	-1.305698
H154	H	0.129931	-1.430942	-0.972403
H155	H	-0.127082	-1.107359	-1.030611
H156	H	0.154908	-0.761783	-0.829590
H157	H	0.129797	-0.605596	-0.797941
