data_functionalizedCrystal
_audit_creation_method	'MofGen! by Chris Wilmer'
_symmetry_space_group_name_H-M	'P1'
_symmetry_Int_Tables_number	1
_symmetry_cell_setting	triclinic
loop_
_symmetry_equiv_pos_as_xyz
  x,y,z
_cell_length_a	21.295417
_cell_length_b	12.827893
_cell_length_c	12.827885
_cell_angle_alpha	89.980538
_cell_angle_beta	89.961900
_cell_angle_gamma	90.030667
loop_
_atom_site_label
_atom_site_type_symbol
_atom_site_fract_x
_atom_site_fract_y
_atom_site_fract_z
Zn1	Zn	-0.250576	1.597562	-0.590788
Zn2	Zn	0.249424	2.097562	-0.090788
Zn3	Zn	-0.355858	1.597409	-0.416023
Zn4	Zn	0.144142	2.097409	0.083977
Zn5	Zn	-0.250607	1.422803	-0.416062
Zn6	Zn	0.249393	1.922803	0.083938
Zn7	Zn	-0.355812	1.422742	-0.590723
Zn8	Zn	0.144188	1.922742	-0.090723
O9	O	-0.303213	1.510129	-0.503399
O10	O	0.196787	2.010129	-0.003399
O11	O	-0.264548	1.743778	-0.567616
O12	O	0.235452	2.243778	-0.067616
O13	O	-0.341929	1.574209	-0.269792
O14	O	0.158071	2.074209	0.230208
O15	O	-0.162514	1.446074	-0.439283
O16	O	0.337486	1.946074	0.060717
O17	O	-0.341899	1.743665	-0.439217
O18	O	0.158101	2.243665	0.060783
O19	O	-0.162491	1.574469	-0.567654
O20	O	0.337509	2.074469	-0.067654
O21	O	-0.264601	1.445926	-0.269821
O22	O	0.235399	1.945926	0.230179
O23	O	-0.264556	1.276559	-0.439220
O24	O	0.235444	1.776559	0.060780
O25	O	-0.341819	1.445971	-0.736968
O26	O	0.158181	1.945971	-0.236968
O27	O	-0.341850	1.276514	-0.567543
O28	O	0.158150	1.776514	-0.067543
O29	O	-0.264503	1.574410	-0.737016
O30	O	0.235497	2.074410	-0.237016
O31	O	-0.443941	1.574150	-0.439154
O32	O	0.056059	2.074150	0.060846
O33	O	-0.443907	1.445823	-0.567505
O34	O	0.056093	1.945823	-0.067505
C35	C	-0.303202	1.238619	-0.503379
C36	C	0.196798	1.738619	-0.003379
C37	C	-0.303212	1.122466	-0.503396
C38	C	0.196788	1.622466	-0.003396
C39	C	-0.265004	1.070737	-0.567030
C40	C	0.234996	1.570737	-0.067030
C41	C	-0.265014	0.950686	-0.567049
C42	C	0.234986	1.450686	-0.067049
C43	C	-0.466765	1.509992	-0.503341
C44	C	0.033235	2.009992	-0.003341
C45	C	-0.536733	1.510029	-0.503351
C46	C	-0.036733	2.010029	-0.003351
C47	C	-0.569596	1.576908	-0.436587
C48	C	-0.069596	2.076908	0.063413
C49	C	-0.635339	1.576957	-0.436611
C50	C	-0.135339	2.076957	0.063389
C51	C	-0.668215	1.510108	-0.503387
C52	C	-0.168215	2.010108	-0.003387
C53	C	-0.635344	1.443224	-0.570165
C54	C	-0.135344	1.943224	-0.070165
C55	C	-0.569603	1.443185	-0.570147
C56	C	-0.069603	1.943185	-0.070147
N57	N	-0.771481	1.418692	-0.511347
N58	N	-0.271481	1.918692	-0.011347
N59	N	-0.833932	1.418732	-0.511358
N60	N	-0.333932	1.918732	-0.011358
C61	C	-0.866290	1.510225	-0.503447
C62	C	-0.366290	2.010225	-0.003447
N63	N	-0.833837	1.601678	-0.495505
N64	N	-0.333837	2.101678	0.004495
N65	N	-0.771380	1.601636	-0.495488
N66	N	-0.271380	2.101636	0.004512
C67	C	-0.739501	1.510144	-0.503415
C68	C	-0.239501	2.010144	-0.003415
C69	C	-0.970439	1.577163	-0.436705
C70	C	-0.470439	2.077163	0.063295
C71	C	-1.036183	1.577214	-0.436736
C72	C	-0.536183	2.077214	0.063264
C73	C	-1.036187	1.443472	-0.570284
C74	C	-0.536187	1.943472	-0.070284
C75	C	-0.970444	1.443431	-0.570259
C76	C	-0.470444	1.943431	-0.070259
C77	C	-0.937574	1.510275	-0.503464
C78	C	-0.437574	2.010275	-0.003464
C79	C	-0.139023	1.510295	-0.503480
C80	C	0.360977	2.010295	-0.003480
C81	C	-0.069055	1.510366	-0.503515
C82	C	0.430945	2.010366	-0.003515
C83	C	-0.303225	1.782699	-0.503420
C84	C	0.196775	2.282699	-0.003420
C85	C	-0.303230	1.898852	-0.503428
C86	C	0.196770	2.398852	-0.003428
C87	C	-0.303153	1.510201	-0.775969
C88	C	0.196847	2.010201	-0.275969
C89	C	-0.303127	1.510232	-0.892123
C90	C	0.196873	2.010232	-0.392123
C91	C	-0.264855	1.446774	-0.943922
C92	C	0.235145	1.946774	-0.443922
C93	C	-0.264828	1.446804	-1.063972
C94	C	0.235172	1.946804	-0.563972
C95	C	-0.303228	1.510117	-0.231889
C96	C	0.196772	2.010117	0.268111
C97	C	-0.303076	1.510289	-0.115737
C98	C	0.196924	2.010289	0.384263
H99	H	-0.542836	1.631339	-0.382202
H100	H	-0.042836	2.131339	0.117798
N101	N	-1.069743	1.645538	-0.368522
N102	N	-0.569743	2.145538	0.131478
N103	N	-1.062452	1.638648	-0.272087
N104	N	-0.562452	2.138648	0.227913
H105	H	-1.086153	1.686904	-0.223908
H106	H	-0.586153	2.186904	0.276092
H107	H	-0.232113	1.392418	-0.899392
H108	H	0.267887	1.892418	-0.399392
N109	N	-0.936862	1.645472	-0.368508
N110	N	-0.436862	2.145472	0.131492
N111	N	-0.900126	1.712020	-0.405334
N112	N	-0.400126	2.212020	0.094666
H113	H	-0.876414	1.760269	-0.357173
H114	H	-0.376414	2.260269	0.142827
H115	H	-0.662102	1.631422	-0.382244
H116	H	-0.162102	2.131422	0.117756
H117	H	-0.232059	1.392480	-1.108518
H118	H	0.267941	1.892480	-0.608518
H119	H	-0.232284	1.115326	-0.621493
H120	H	0.267716	1.615326	-0.121493
N121	N	-0.344278	0.954627	-0.435076
N122	N	0.155722	1.454627	0.064924
N123	N	-0.402376	0.942479	-0.441817
N124	N	0.097624	1.442479	0.058183
H125	H	-0.431367	0.981874	-0.393542
H126	H	0.068633	1.481874	0.106458
H127	H	-0.335841	1.564625	-1.071198
H128	H	0.164159	2.064625	-0.571198
N129	N	-0.936873	1.375120	-0.638467
N130	N	-0.436873	1.875120	-0.138467
N131	N	-0.944166	1.382009	-0.734902
N132	N	-0.444166	1.882009	-0.234902
H133	H	-0.920457	1.333765	-0.783083
H134	H	-0.420457	1.833765	-0.283083
N135	N	-0.223985	0.894872	-0.635400
N136	N	0.276015	1.394872	-0.135400
N137	N	-0.224053	0.797430	-0.635322
N138	N	0.275947	1.297430	-0.135322
H139	H	-0.195076	0.758007	-0.683598
H140	H	0.304924	1.258007	-0.183598
N141	N	-1.069770	1.375199	-0.638496
N142	N	-0.569770	1.875199	-0.138496
N143	N	-1.128467	1.375245	-0.638507
N144	N	-0.628467	1.875245	-0.138507
H145	H	-1.152190	1.327028	-0.686686
H146	H	-0.652190	1.827028	-0.186686
H147	H	-0.542845	1.388723	-0.624515
H148	H	-0.042845	1.888723	-0.124515
N149	N	-0.344215	1.578423	-0.947955
N150	N	0.155785	2.078423	-0.447955
N151	N	-0.402310	1.571448	-0.935814
N152	N	0.097690	2.071448	-0.435814
H153	H	-0.431331	1.619612	-0.975241
H154	H	0.068669	2.119612	-0.475241
N155	N	-0.344249	1.066541	-0.435046
N156	N	0.155751	1.566541	0.064954
N157	N	-0.322022	1.005603	-0.368585
N158	N	0.177978	1.505603	0.131415
H159	H	-0.351005	0.966108	-0.320308
H160	H	0.148995	1.466108	0.179692
H161	H	-0.662116	1.388797	-0.624536
H162	H	-0.162116	1.888797	-0.124536
