data_functionalizedCrystal
_audit_creation_method	'MofGen! by Chris Wilmer'
_symmetry_space_group_name_H-M	'P1'
_symmetry_Int_Tables_number	1
_symmetry_cell_setting	triclinic
loop_
_symmetry_equiv_pos_as_xyz
  x,y,z
_cell_length_a	16.974885
_cell_length_b	14.853559
_cell_length_c	15.455313
_cell_angle_alpha	92.670929
_cell_angle_beta	90.969048
_cell_angle_gamma	83.511792
loop_
_atom_site_label
_atom_site_type_symbol
_atom_site_fract_x
_atom_site_fract_y
_atom_site_fract_z
O1	O	1.049188	0.114952	0.001455
O2	O	1.549188	0.614952	0.501455
O3	O	0.819772	0.128714	-0.014636
O4	O	1.319772	0.628714	0.485364
O5	O	0.940611	-0.009391	-0.006159
O6	O	1.440611	0.490609	0.493841
O7	O	0.928348	0.253056	-0.007021
O8	O	1.428348	0.753056	0.492979
O9	O	0.933701	-0.001526	0.137618
O10	O	1.433701	0.498474	0.637618
O11	O	0.812862	0.136579	0.129142
O12	O	1.312862	0.636579	0.629142
O13	O	1.042278	0.122816	0.145232
O14	O	1.542278	0.622816	0.645232
Cu15	Cu	0.926939	0.130416	0.150315
Cu16	Cu	1.426939	0.630416	0.650315
Cu17	Cu	0.935111	0.121115	-0.019718
Cu18	Cu	1.435111	0.621115	0.480282
O19	O	0.921438	0.260921	0.136756
O20	O	1.421438	0.760921	0.636756
C21	C	0.786957	0.131978	0.055194
C22	C	1.286957	0.631978	0.555194
C23	C	0.699474	0.129975	0.049058
C24	C	1.199474	0.629975	0.549058
C25	C	0.936602	-0.039048	0.065689
C26	C	1.436602	0.460952	0.565689
C27	C	0.934941	-0.139134	0.065567
C28	C	1.434941	0.360866	0.565567
C29	C	0.207448	0.118209	0.006047
C30	C	0.707448	0.618209	0.506047
C31	C	0.289647	0.120091	0.011824
C32	C	0.789647	0.620091	0.511824
C33	C	0.326971	0.125326	0.093086
C34	C	0.826971	0.625326	0.593086
C35	C	0.282093	0.128670	0.168576
C36	C	0.782093	0.628670	0.668576
C37	C	0.199896	0.126781	0.162798
C38	C	0.699896	0.626781	0.662798
C39	C	0.572399	0.131430	0.118770
C40	C	1.072399	0.631430	0.618770
C41	C	0.654601	0.133321	0.124542
C42	C	1.154601	0.633321	0.624542
C43	C	0.662150	0.124741	-0.032211
C44	C	1.162150	0.624741	0.467789
C45	C	0.579951	0.122858	-0.037982
C46	C	1.079951	0.622858	0.462018
C47	C	0.535080	0.126196	0.037509
C48	C	1.035080	0.626196	0.537509
N49	N	0.410992	0.127253	0.098993
N50	N	0.910992	0.627253	0.598993
N51	N	0.451062	0.124263	0.031601
N52	N	0.951062	0.624263	0.531601
C53	C	0.931659	-0.566604	-0.013300
C54	C	1.431659	-0.066604	0.486700
C55	C	0.924125	-0.558024	0.143451
C56	C	1.424125	-0.058024	0.643451
C57	C	0.925692	-0.463989	0.143562
C58	C	1.425692	0.036011	0.643562
C59	C	0.930242	-0.421257	0.065240
C60	C	1.430242	0.078743	0.565240
C61	C	0.933224	-0.472560	-0.013192
C62	C	1.433224	0.027440	0.486808
C63	C	0.922703	-0.412678	0.221993
C64	C	1.422703	0.087322	0.721993
C65	C	0.924269	-0.318637	0.222106
C66	C	1.424269	0.181363	0.722106
C67	C	0.928825	-0.275904	0.143784
C68	C	1.428825	0.224096	0.643784
C69	C	0.931808	-0.327213	0.065349
C70	C	1.431808	0.172787	0.565349
C71	C	0.936357	-0.284481	-0.012973
C72	C	1.436357	0.215519	0.487027
C73	C	0.939346	-0.335789	-0.091409
C74	C	1.439346	0.164211	0.408591
C75	C	0.937780	-0.429827	-0.091514
C76	C	1.437780	0.070173	0.408486
C77	C	0.930391	-0.181866	0.143889
C78	C	1.430391	0.318134	0.643889
C79	C	0.937923	-0.190437	-0.012865
C80	C	1.437923	0.309563	0.487135
C81	C	1.075093	0.119552	0.075401
C82	C	1.575093	0.619552	0.575401
C83	C	1.162576	0.121555	0.081531
C84	C	1.662576	0.621555	0.581531
C85	C	0.925448	0.290578	0.064906
C86	C	1.425448	0.790578	0.564906
C87	C	0.927109	0.390664	0.065022
C88	C	1.427109	0.890664	0.565022
N89	N	0.921197	0.136957	0.269908
N90	N	1.421197	0.636957	0.769908
N91	N	0.940859	0.114566	-0.139311
N92	N	1.440859	0.614566	0.360689
C93	C	0.972551	0.078307	0.318904
C94	C	1.472551	0.578307	0.818904
C95	C	0.968216	0.083262	0.409408
C96	C	1.468216	0.583262	0.909408
C97	C	0.912529	0.146872	0.450914
C98	C	1.412529	0.646872	0.950914
C99	C	0.861169	0.205525	0.401911
C100	C	1.361169	0.705525	0.901911
C101	C	0.865501	0.200565	0.311408
C102	C	1.365501	0.700565	0.811408
C103	C	0.893831	0.168258	0.721184
C104	C	1.393831	0.668258	1.221184
C105	C	0.889504	0.173216	0.811693
C106	C	1.389504	0.673216	1.311693
C107	C	0.996551	0.050952	0.819184
C108	C	1.496551	0.550952	1.319184
C109	C	1.000881	0.046001	0.728679
C110	C	1.500881	0.546001	1.228679
C111	C	0.949518	0.104650	0.679684
C112	C	1.449518	0.604650	1.179684
N113	N	0.908098	0.151941	0.543423
N114	N	1.408098	0.651941	1.043423
N115	N	0.953946	0.099576	0.587176
N116	N	1.453946	0.599576	1.087176
H117	H	0.177065	0.113952	-0.060126
H118	H	0.677065	0.613952	0.439874
C119	C	0.150536	0.130466	0.245838
C120	C	0.650536	0.630466	0.745838
N121	N	0.113359	0.133239	0.308386
N122	N	0.613359	0.633239	0.808386
C123	C	0.339005	0.116398	-0.071216
C124	C	0.839005	0.616398	0.428784
N125	N	0.376182	0.113611	-0.133765
N126	N	0.876182	0.613611	0.366235
H127	H	0.549568	0.118593	-0.104154
H128	H	1.049568	0.618593	0.395846
H129	H	0.941631	-0.155652	-0.076645
H130	H	1.441631	0.344348	0.423355
C131	C	0.920987	-0.262207	0.308387
C132	C	1.420987	0.237793	0.808387
N133	N	0.918518	-0.219704	0.373375
N134	N	1.418518	0.280296	0.873375
H135	H	0.698693	0.122021	-0.093671
H136	H	1.198693	0.622021	0.406329
H137	H	0.943044	-0.300984	-0.155179
H138	H	1.443044	0.199016	0.344821
C139	C	0.941058	-0.486271	-0.177787
C140	C	1.441058	0.013729	0.322213
N141	N	0.943524	-0.528788	-0.242767
N142	N	1.443524	-0.028788	0.257233
H143	H	1.017901	0.026513	0.285117
H144	H	1.517901	0.526513	0.785117
H145	H	0.684987	0.137590	0.190719
H146	H	1.184987	0.637590	0.690719
C147	C	1.024692	0.018721	0.463299
C148	C	1.524692	0.518721	0.963299
N149	N	1.067225	-0.029904	0.503889
N150	N	1.567225	0.470096	1.003889
C151	C	0.523048	0.135130	0.201812
C152	C	1.023048	0.635130	0.701812
N153	N	0.485874	0.137927	0.264364
N154	N	0.985874	0.637927	0.764364
C155	C	0.799906	0.275489	0.447570
C156	C	1.299906	0.775489	0.947570
N157	N	0.753760	0.328186	0.481960
N158	N	1.253760	0.828186	0.981960
H159	H	0.927940	-0.140093	0.207749
H160	H	1.427940	0.359907	0.707749
C161	C	0.809013	0.265092	0.257513
C162	C	1.309013	0.765092	0.757513
N163	N	0.766465	0.313696	0.216920
N164	N	1.266465	0.813696	0.716920
H165	H	0.918994	-0.447477	0.285758
H166	H	1.418994	0.052523	0.785758
H167	H	1.046225	-0.005796	0.694887
H168	H	1.546225	0.494204	1.194887
H169	H	0.934095	-0.608384	-0.077161
H170	H	1.434095	-0.108384	0.422839
H171	H	0.920416	-0.592822	0.207217
H172	H	1.420416	-0.092822	0.707217
H173	H	1.038367	0.003201	0.859084
H174	H	1.538367	0.503201	1.359084
H175	H	0.312489	0.132927	0.234742
H176	H	0.812489	0.632927	0.734742
H177	H	0.844155	0.225019	0.845482
H178	H	1.344155	0.725019	1.345482
C179	C	0.837432	0.232892	0.667308
C180	C	1.337432	0.732892	1.167308
N181	N	0.794986	0.281620	0.626728
N182	N	1.294986	0.781620	1.126728
