data_functionalizedCrystal
_audit_creation_method	'MofGen! by Chris Wilmer'
_symmetry_space_group_name_H-M	'P1'
_symmetry_Int_Tables_number	1
_symmetry_cell_setting	triclinic
loop_
_symmetry_equiv_pos_as_xyz
  x,y,z
_cell_length_a	23.532407
_cell_length_b	14.044220
_cell_length_c	13.101039
_cell_angle_alpha	93.667477
_cell_angle_beta	86.668910
_cell_angle_gamma	88.018778
loop_
_atom_site_label
_atom_site_type_symbol
_atom_site_fract_x
_atom_site_fract_y
_atom_site_fract_z
O1	O	-0.764355	-0.109759	0.085088
O2	O	-0.599394	-0.126398	0.085118
O3	O	-0.679398	0.019883	0.085094
O4	O	-0.684351	-0.256039	0.085113
O5	O	-0.673659	0.009370	-0.085335
O6	O	-0.593655	-0.136910	-0.085310
O7	O	-0.758615	-0.120271	-0.085340
Zn8	Zn	-0.675224	-0.130260	-0.112384
Zn9	Zn	-0.682786	-0.116409	0.112162
O10	O	-0.678612	-0.266552	-0.085315
C11	C	-0.674361	0.049920	-0.000121
C12	C	-0.667895	0.155085	-0.000121
C13	C	-0.575286	-0.131230	-0.000092
C14	C	-0.512000	-0.129955	-0.000081
C15	C	-0.782724	-0.115439	-0.000128
C16	C	-0.846010	-0.116713	-0.000132
C17	C	-0.117154	-0.208533	-0.000121
C18	C	-0.057690	-0.207350	-0.000128
O19	O	-0.024892	-0.280192	-0.000160
N20	N	-0.030350	-0.120386	-0.000132
C21	C	-0.062478	-0.034600	-0.000141
O22	O	-0.033763	0.039479	-0.000146
C23	C	-0.121941	-0.035784	-0.000142
C24	C	-0.149278	-0.122754	-0.000127
C25	C	-0.144492	-0.295495	-0.000108
C26	C	-0.203952	-0.296678	-0.000100
C27	C	-0.236076	-0.210898	-0.000105
C28	C	-0.208738	-0.123936	-0.000119
C29	C	-0.154067	0.050000	-0.000157
C30	C	-0.213534	0.048808	-0.000159
C31	C	-0.240871	-0.038161	-0.000144
C32	C	-0.300322	-0.039339	-0.000116
N33	N	-0.327662	-0.126303	-0.000111
C34	C	-0.295539	-0.212083	-0.000106
C35	C	0.062399	-0.032119	-0.000140
C36	C	0.121861	-0.030933	-0.000132
C37	C	0.126645	-0.203683	-0.000121
C38	C	0.067182	-0.204868	-0.000122
C39	C	0.035060	-0.119083	-0.000136
C40	C	-0.420411	-0.214560	-0.000088
C41	C	-0.479877	-0.215735	-0.000075
C42	C	-0.484655	-0.042985	-0.000092
C43	C	-0.425194	-0.041809	-0.000099
C44	C	-0.393073	-0.127605	-0.000100
O45	O	-0.333156	0.033464	-0.000088
O46	O	-0.324261	-0.286150	-0.000114
C47	C	-0.683649	-0.296589	-0.000099
C48	C	-0.690115	-0.401754	-0.000092
N49	N	-0.670067	-0.139712	-0.265631
C50	C	-0.656074	0.347636	-0.000104
C51	C	-0.701933	0.405701	-0.000109
C52	C	-0.695356	0.512843	-0.000100
C53	C	-0.662651	0.240484	-0.000113
C54	C	-0.663052	-0.152581	-0.474671
C55	C	-0.694960	-0.094083	-0.525557
C56	C	-0.691057	-0.101244	-0.641874
C57	C	-0.666955	-0.145422	-0.358344
N58	N	-0.687946	-0.106949	0.265409
H59	H	-0.502131	-0.286558	-0.000063
C60	C	-0.286124	0.153109	0.087443
C61	C	-0.248844	0.143106	-0.000170
H62	H	-0.307925	0.211322	0.087433
H63	H	-0.264823	0.153651	0.146861
H64	H	-0.310915	0.101144	0.087441
H65	H	-0.224051	0.195068	-0.000164
H66	H	-0.270148	0.142573	-0.059603
H67	H	-0.402936	0.029009	-0.000096
H68	H	-0.725209	-0.038625	-0.481764
C69	C	-0.626217	-0.220146	-0.639237
C70	C	-0.622224	-0.227454	-0.533781
H71	H	-0.601016	-0.266376	-0.675735
H72	H	-0.616176	-0.158068	-0.656755
H73	H	-0.664168	-0.231055	-0.656739
H74	H	-0.584274	-0.216538	-0.516278
H75	H	-0.632263	-0.289547	-0.516256
H76	H	-0.746136	0.374950	-0.000048
H77	H	-0.226205	-0.367497	-0.000087
C78	C	-0.421672	-0.385435	-0.000056
C79	C	-0.385109	-0.308866	-0.000077
H80	H	-0.399878	-0.443653	-0.000037
H81	H	-0.442965	-0.385971	-0.059485
H82	H	-0.446964	-0.378616	0.059380
H83	H	-0.359820	-0.315681	-0.059517
H84	H	-0.363807	-0.308332	0.059358
H85	H	0.044928	-0.275686	-0.000116
C86	C	-0.125067	-0.436959	0.087529
C87	C	-0.109188	-0.389795	-0.000093
H88	H	-0.103272	-0.495176	0.087545
H89	H	-0.164390	-0.450093	0.087518
H90	H	-0.118298	-0.397596	0.146947
H91	H	-0.115961	-0.429154	-0.059511
H92	H	-0.069855	-0.376664	-0.000091
C93	C	0.219928	-0.278562	-0.000133
C94	C	0.161963	-0.297977	-0.000124
H95	H	0.241732	-0.336772	-0.000139
H96	H	0.226687	-0.239220	0.059294
H97	H	0.230677	-0.246540	-0.059571
H98	H	0.151213	-0.329993	0.059319
H99	H	0.155201	-0.337335	-0.059556
C100	C	-0.592786	0.450666	0.087512
C101	C	-0.596408	0.389151	-0.000098
H102	H	-0.555952	0.476307	0.087507
H103	H	-0.599243	0.416251	0.146931
H104	H	-0.620701	0.501168	0.087503
H105	H	-0.568495	0.338644	-0.000086
H106	H	-0.589944	0.423567	-0.059533
C107	C	0.111145	0.139701	-0.000144
C108	C	0.151906	0.064667	-0.000139
H109	H	0.129693	0.198721	-0.000159
H110	H	0.086058	0.139309	0.059288
H111	H	0.090047	0.131968	-0.059576
H112	H	0.173001	0.072397	0.059298
H113	H	0.177003	0.065061	-0.059577
C114	C	-0.557259	0.061294	0.087505
C115	C	-0.519975	0.051298	-0.000102
H116	H	-0.579067	0.119498	0.087488
H117	H	-0.535959	0.061850	0.146927
H118	H	-0.582042	0.009319	0.087505
H119	H	-0.495189	0.103270	-0.000098
H120	H	-0.541276	0.050751	-0.059539
C121	C	-0.010190	0.072183	0.087474
C122	C	0.027091	0.062185	-0.000137
H123	H	-0.031988	0.130399	0.087470
H124	H	0.011110	0.072714	0.146893
H125	H	-0.034984	0.020221	0.087464
H126	H	0.051887	0.114143	-0.000123
H127	H	0.005789	0.061662	-0.059571
C128	C	-0.164792	0.220628	-0.000207
C129	C	-0.124028	0.145600	-0.000189
H130	H	-0.146247	0.279649	-0.000236
H131	H	-0.189878	0.220243	0.059227
H132	H	-0.185891	0.212880	-0.059638
H133	H	-0.102932	0.153344	0.059246
H134	H	-0.098933	0.145986	-0.059629
