data_functionalizedCrystal
_audit_creation_method	'MofGen! by Chris Wilmer'
_symmetry_space_group_name_H-M	'P1'
_symmetry_Int_Tables_number	1
_symmetry_cell_setting	triclinic
loop_
_symmetry_equiv_pos_as_xyz
  x,y,z
_cell_length_a	10.723024
_cell_length_b	14.472310
_cell_length_c	15.995343
_cell_angle_alpha	90.005791
_cell_angle_beta	83.978527
_cell_angle_gamma	90.012758
loop_
_atom_site_label
_atom_site_type_symbol
_atom_site_fract_x
_atom_site_fract_y
_atom_site_fract_z
O1	O	1.655702	0.076846	0.117431
O2	O	1.292406	0.076850	0.128672
O3	O	1.483990	0.076831	0.001221
O4	O	1.464118	0.076865	0.244883
O5	O	1.483940	-0.076851	0.001228
O6	O	1.292356	-0.076832	0.128679
O7	O	1.655652	-0.076836	0.117438
Cu8	Cu	1.474000	-0.090867	0.123060
Cu9	Cu	1.474058	0.090880	0.123051
O10	O	1.464068	-0.076817	0.244890
C11	C	1.245892	0.000009	0.127858
C12	C	1.107369	0.000010	0.125410
N13	N	1.473968	-0.218697	0.123065
C14	C	1.031473	0.000021	0.196725
C15	C	0.888302	0.000022	0.194197
C16	C	1.474056	-0.592789	0.123048
C17	C	1.371200	-0.553613	0.191012
C18	C	1.371437	-0.446524	0.191263
C19	C	1.474011	-0.407198	0.123056
C20	C	1.604209	-0.446033	0.142886
C21	C	1.603631	-0.553154	0.143370
C22	C	1.447877	-0.553330	0.035057
C23	C	1.444891	-0.446203	0.035626
C24	C	1.473994	-0.302310	0.123060
C25	C	1.474082	-0.697677	0.123046
C26	C	1.702166	0.000006	0.118253
C27	C	1.840689	0.000012	0.120700
C28	C	1.483145	-0.000013	-0.029975
C29	C	1.480687	-0.000020	-0.122940
N30	N	1.474100	0.218711	0.123039
C31	C	1.476226	0.000001	-0.293152
C32	C	1.337932	0.000005	-0.317292
C33	C	1.335330	0.000364	-0.413985
C34	C	1.471832	0.000021	-0.460737
C35	C	1.541397	0.087603	-0.431243
C36	C	1.543037	0.087666	-0.334441
C37	C	1.545006	-0.087105	-0.334526
C38	C	1.539900	-0.088246	-0.431050
C39	C	1.469356	0.000035	-0.555450
C40	C	1.478706	-0.000007	-0.198440
C41	C	1.464913	0.000029	0.276086
C42	C	1.467371	0.000042	0.369051
H43	H	1.072490	0.000024	0.259652
C44	C	1.315522	-0.411898	0.015302
C45	C	1.265025	-0.440708	-0.067499
C46	C	1.135662	-0.406387	-0.087826
C47	C	1.056796	-0.343255	-0.025352
C48	C	1.107292	-0.314441	0.057454
C49	C	1.236655	-0.348762	0.077781
H50	H	1.323407	-0.487445	-0.113750
H51	H	1.098282	-0.427717	-0.149124
H52	H	0.961035	-0.317848	-0.040399
H53	H	1.048910	-0.267704	0.103705
H54	H	1.274035	-0.327432	0.139079
C55	C	1.677113	0.091681	-0.473488
C56	C	1.787594	0.091041	-0.419266
C57	C	1.923309	0.095116	-0.461514
C58	C	1.948541	0.099831	-0.557985
C59	C	1.838057	0.100471	-0.612213
C60	C	1.702342	0.096396	-0.569965
H61	H	1.768918	0.087550	-0.347847
H62	H	2.005096	0.094642	-0.421370
H63	H	2.049005	0.102847	-0.589260
H64	H	1.856733	0.103961	-0.683632
H65	H	1.620554	0.096870	-0.610109
H66	H	1.644454	0.091398	-0.319285
C67	C	0.928771	-0.000001	0.038214
C68	C	1.022339	-0.079807	0.018920
C69	C	1.110432	-0.079820	-0.063565
C70	C	1.104956	-0.000026	-0.126757
C71	C	1.011384	0.079787	-0.107464
C72	C	0.923292	0.079799	-0.024979
H73	H	1.026396	-0.138881	0.065700
H74	H	1.179700	-0.138902	-0.077846
H75	H	1.170168	-0.000035	-0.187817
H76	H	1.007328	0.138860	-0.154244
H77	H	0.854024	0.138882	-0.010697
H78	H	1.495464	0.153387	-0.307926
C79	C	1.240689	-0.411052	0.175171
C80	C	1.185575	-0.436581	0.093106
C81	C	1.054817	-0.401116	0.077020
C82	C	0.979174	-0.340123	0.142998
C83	C	1.034288	-0.314592	0.225068
C84	C	1.165045	-0.350056	0.241155
H85	H	1.241571	-0.481734	0.044260
H86	H	1.014019	-0.420017	0.016266
H87	H	0.882379	-0.313871	0.131090
H88	H	0.978291	-0.269438	0.273914
H89	H	1.205843	-0.331155	0.301909
C90	C	1.240013	-0.588371	0.175108
C91	C	1.224671	-0.652762	0.100221
C92	C	1.093472	-0.687488	0.084289
C93	C	0.977615	-0.657821	0.143245
C94	C	0.992953	-0.593426	0.218137
C95	C	1.124152	-0.558701	0.234069
H96	H	1.310438	-0.674726	0.056573
H97	H	1.082118	-0.735157	0.028848
H98	H	0.880493	-0.683527	0.131451
H99	H	0.907185	-0.571462	0.261785
H100	H	1.135505	-0.511031	0.289510
C101	C	1.549193	-0.587559	-0.033287
C102	C	1.567004	-0.691869	-0.049381
C103	C	1.668322	-0.726105	-0.117718
C104	C	1.751828	-0.656030	-0.169961
C105	C	1.734020	-0.551713	-0.153869
C106	C	1.632702	-0.517478	-0.085532
H107	H	1.505186	-0.743749	-0.010706
H108	H	1.681504	-0.803327	-0.129630
H109	H	1.826830	-0.681373	-0.220548
H110	H	1.795839	-0.499834	-0.192543
H111	H	1.619520	-0.440256	-0.073619
C112	C	1.486026	-0.176815	-0.296675
C113	C	1.428582	-0.247439	-0.353633
C114	C	1.369585	-0.337140	-0.315776
C115	C	1.368032	-0.356218	-0.220960
C116	C	1.425478	-0.285592	-0.163996
C117	C	1.484475	-0.195891	-0.201854
H118	H	1.429730	-0.233318	-0.423827
H119	H	1.327060	-0.389421	-0.357945
H120	H	1.324358	-0.422620	-0.192936
H121	H	1.424330	-0.299713	-0.093803
H122	H	1.527000	-0.143610	-0.159685
H123	H	1.388155	-0.420881	0.256544
C124	C	1.393519	-0.589891	0.278716
C125	C	1.504637	-0.654875	0.288835
C126	C	1.526986	-0.691129	0.376542
C127	C	1.438217	-0.662399	0.454130
C128	C	1.327091	-0.597411	0.444014
C129	C	1.304742	-0.561157	0.356307
H130	H	1.570355	-0.676146	0.231397
H131	H	1.609248	-0.739237	0.384030
H132	H	1.454761	-0.689236	0.519056
H133	H	1.261372	-0.576140	0.501452
H134	H	1.222479	-0.513049	0.348819
H135	H	1.627831	-0.419187	0.206352
H136	H	1.066352	0.000025	0.062483
H137	H	1.493706	0.153034	-0.451605
H138	H	0.823088	0.000034	0.255249
C139	C	1.266712	0.084725	-0.278546
C140	C	1.333574	0.153807	-0.225138
C141	C	1.262358	0.238528	-0.186389
C142	C	1.124281	0.254166	-0.201048
C143	C	1.057412	0.185081	-0.254458
C144	C	1.128627	0.100361	-0.293207
H145	H	1.435794	0.142233	-0.214284
H146	H	1.311860	0.289669	-0.146851
H147	H	1.071562	0.316881	-0.172364
H148	H	0.955192	0.196656	-0.265312
H149	H	1.079126	0.049220	-0.332745
C150	C	1.634789	-0.586890	0.230091
C151	C	1.750960	-0.647832	0.237014
C152	C	1.782116	-0.681562	0.323738
C153	C	1.697101	-0.654349	0.403539
C154	C	1.580922	-0.593403	0.396619
C155	C	1.549766	-0.559674	0.309895
H156	H	1.813901	-0.667980	0.177939
H157	H	1.868120	-0.726678	0.328861
H158	H	1.720164	-0.679318	0.467737
H159	H	1.517981	-0.573256	0.455694
H160	H	1.463762	-0.514558	0.304772
H161	H	1.682560	-0.579068	0.095860
H162	H	1.489242	-0.153041	-0.449903
C163	C	1.539520	-0.410048	-0.035984
C164	C	1.645369	-0.344182	-0.016235
C165	C	1.740010	-0.308029	-0.087843
C166	C	1.728803	-0.337741	-0.179200
C167	C	1.622949	-0.403611	-0.198953
C168	C	1.528308	-0.439764	-0.127345
H169	H	1.653670	-0.322184	0.051396
H170	H	1.818370	-0.259268	-0.073220
H171	H	1.798862	-0.310978	-0.232208
H172	H	1.614649	-0.425609	-0.266584
H173	H	1.449949	-0.488526	-0.141968
H174	H	1.354999	-0.580400	0.016175
C175	C	1.261744	-0.084421	-0.440110
C176	C	1.204944	-0.152931	-0.372929
C177	C	1.131341	-0.237713	-0.399047
C178	C	1.114537	-0.253985	-0.492347
C179	C	1.171338	-0.185473	-0.559534
C180	C	1.244942	-0.100691	-0.533416
H181	H	1.217382	-0.140888	-0.303858
H182	H	1.089293	-0.288430	-0.349311
H183	H	1.060051	-0.316746	-0.511682
H184	H	1.158900	-0.197517	-0.628606
H185	H	1.286989	-0.049974	-0.583153
C186	C	1.262177	0.085683	-0.439319
C187	C	1.205954	0.153706	-0.371525
C188	C	1.132801	0.239032	-0.396859
C189	C	1.115872	0.256334	-0.489986
C190	C	1.172097	0.188309	-0.557785
C191	C	1.245250	0.102984	-0.532452
H192	H	1.218485	0.140900	-0.302582
H193	H	1.091180	0.289388	-0.346668
H194	H	1.061720	0.319497	-0.508739
H195	H	1.159566	0.201116	-0.626729
H196	H	1.286871	0.052628	-0.582642
C197	C	1.674466	-0.095742	-0.474779
C198	C	1.696874	-0.102655	-0.571257
C199	C	1.831446	-0.110140	-0.614988
C200	C	1.943610	-0.110711	-0.562241
C201	C	1.921205	-0.103798	-0.465757
C202	C	1.786633	-0.096313	-0.422027
H203	H	1.613841	-0.102232	-0.610309
H204	H	1.848031	-0.115257	-0.686412
H205	H	2.043228	-0.116252	-0.594613
H206	H	2.004238	-0.104221	-0.426705
H207	H	1.770048	-0.091195	-0.350603
C208	C	1.682517	-0.088261	-0.314800
C209	C	1.732212	-0.010591	-0.261424
C210	C	1.869717	-0.011738	-0.241693
C211	C	1.957528	-0.090556	-0.275337
C212	C	1.907834	-0.168233	-0.328715
C213	C	1.770329	-0.167085	-0.348447
H214	H	1.667209	0.047761	-0.236516
H215	H	1.906503	0.045763	-0.202178
H216	H	2.059317	-0.091406	-0.260730
H217	H	1.972837	-0.226584	-0.353624
H218	H	1.733543	-0.224586	-0.387962
H219	H	1.682577	-0.420557	0.094732
H220	H	1.284307	-0.062794	-0.289594
