data_functionalizedCrystal
_audit_creation_method	'MofGen! by Chris Wilmer'
_symmetry_space_group_name_H-M	'P1'
_symmetry_Int_Tables_number	1
_symmetry_cell_setting	triclinic
loop_
_symmetry_equiv_pos_as_xyz
  x,y,z
_cell_length_a	18.215407
_cell_length_b	18.101395
_cell_length_c	18.215399
_cell_angle_alpha	89.973573
_cell_angle_beta	89.980167
_cell_angle_gamma	90.031552
loop_
_atom_site_label
_atom_site_type_symbol
_atom_site_fract_x
_atom_site_fract_y
_atom_site_fract_z
Zn1	Zn	1.125040	-0.294828	-0.416124
Zn2	Zn	1.124935	-0.418675	-0.293061
Zn3	Zn	1.001973	-0.294853	-0.293071
Zn4	Zn	1.001925	-0.418634	-0.416086
O5	O	1.063468	-0.356747	-0.354585
O6	O	1.228010	-0.311264	-0.399811
O7	O	1.108600	-0.402277	-0.190078
O8	O	1.018362	-0.191216	-0.309415
O9	O	1.227933	-0.402253	-0.309397
O10	O	1.108779	-0.191199	-0.399821
O11	O	1.018260	-0.311305	-0.190085
O12	O	0.898982	-0.311265	-0.309378
O13	O	1.018281	-0.402183	-0.519075
O14	O	0.898947	-0.402207	-0.399756
O15	O	1.108733	-0.311224	-0.519103
O16	O	1.108554	-0.522302	-0.309360
O17	O	1.018179	-0.522272	-0.399746
C18	C	0.872262	-0.356735	-0.354564
C19	C	0.790463	-0.356747	-0.354572
C20	C	0.602270	-0.404175	-0.401573
C21	C	0.525412	-0.404177	-0.401583
C22	C	0.525418	-0.309333	-0.307613
C23	C	0.602276	-0.309328	-0.307608
C24	C	0.640700	-0.356753	-0.354587
C25	C	0.486984	-0.356761	-0.354601
C26	C	0.403650	-0.356763	-0.354611
C27	C	0.724039	-0.356750	-0.354579
C28	C	1.063370	-0.549158	-0.354564
C29	C	1.063395	-0.631472	-0.354579
C30	C	1.063557	-0.930563	-0.354619
C31	C	1.006827	-0.899249	-0.411628
C32	C	1.006557	-0.813632	-0.411450
C33	C	1.063476	-0.782180	-0.354600
C34	C	1.042479	-0.813331	-0.277038
C35	C	1.042113	-0.898976	-0.277380
C36	C	1.141408	-0.898906	-0.374487
C37	C	1.140950	-0.813255	-0.376188
C38	C	1.063432	-0.698321	-0.354584
C39	C	1.063599	-1.014422	-0.354629
C40	C	1.255421	-0.356761	-0.354607
C41	C	1.337220	-0.356766	-0.354616
C42	C	1.063513	-0.356696	-0.546538
C43	C	1.063532	-0.356675	-0.628337
C44	C	1.063587	-0.163585	-0.354623
C45	C	1.063638	-0.081271	-0.354639
C46	C	1.110648	-0.309268	-0.816547
C47	C	1.110656	-0.309246	-0.893406
C48	C	1.016469	-0.403967	-0.893365
C49	C	1.016457	-0.403984	-0.816508
C50	C	1.063551	-0.356636	-0.778101
C51	C	1.063571	-0.356597	-0.931817
C52	C	1.063580	-0.356574	-1.015151
C53	C	1.063541	-0.356657	-0.694762
C54	C	1.063466	-0.356745	-0.163379
C55	C	1.063590	-0.356558	-0.081580
H56	H	0.494124	-0.270723	-0.269363
H57	H	1.183674	-0.919155	-0.332965
H58	H	1.148992	-0.270712	-0.785278
O59	O	1.164163	-0.924524	-0.440873
C60	C	1.113779	-0.902714	-0.495472
H61	H	1.082204	-0.852053	-0.475902
H62	H	1.073673	-0.949767	-0.506587
C63	C	1.194356	-0.945984	-0.590570
C64	C	1.155578	-0.883758	-0.566536
H65	H	1.220138	-0.934295	-0.634407
H66	H	1.228299	-0.960681	-0.553786
H67	H	1.160927	-0.985189	-0.599827
H68	H	1.189007	-0.844558	-0.557270
H69	H	1.121641	-0.869054	-0.603320
O70	O	1.156478	-0.263211	-0.930638
C71	C	1.198024	-0.221413	-0.880255
H72	H	1.200545	-0.251762	-0.825463
H73	H	1.171107	-0.165169	-0.872086
C74	C	1.273262	-0.173462	-0.977565
C75	C	1.276365	-0.210739	-0.910270
H76	H	1.321586	-0.166874	-0.996080
H77	H	1.245271	-0.201619	-1.011510
H78	H	1.250829	-0.126595	-0.970748
H79	H	1.298789	-0.257608	-0.917089
H80	H	1.304362	-0.182589	-0.876327
H81	H	0.978100	-0.442556	-0.785204
H82	H	0.949472	-0.920836	-0.398633
O83	O	0.488163	-0.450208	-0.447325
C84	C	0.506971	-0.434105	-0.520700
H85	H	0.562789	-0.405636	-0.522269
H86	H	0.463745	-0.396066	-0.545559
C87	C	0.441951	-0.541327	-0.563226
C88	C	0.510511	-0.506365	-0.565153
H89	H	0.444131	-0.585898	-0.590648
H90	H	0.429276	-0.552174	-0.513792
H91	H	0.405936	-0.509619	-0.583940
H92	H	0.546522	-0.538068	-0.544431
H93	H	0.523191	-0.495524	-0.614584
O94	O	0.639497	-0.263236	-0.261893
C95	C	0.589104	-0.221371	-0.220437
H96	H	0.534301	-0.251703	-0.217837
H97	H	0.580968	-0.165161	-0.247483
C98	C	0.686388	-0.173342	-0.145323
C99	C	0.619079	-0.210599	-0.142125
H100	H	0.704878	-0.166694	-0.097018
H101	H	0.720339	-0.201545	-0.173254
H102	H	0.679599	-0.126504	-0.167865
H103	H	0.625871	-0.257439	-0.119592
H104	H	0.585130	-0.182403	-0.114189
O105	O	0.639677	-0.450133	-0.447249
C106	C	0.684160	-0.408023	-0.494860
H107	H	0.695691	-0.351869	-0.468996
H108	H	0.654565	-0.399954	-0.549412
C109	C	0.742989	-0.517751	-0.539881
C110	C	0.757157	-0.448784	-0.508112
H111	H	0.788016	-0.542894	-0.548059
H112	H	0.713018	-0.546122	-0.507807
H113	H	0.718324	-0.511017	-0.585338
H114	H	0.781812	-0.455519	-0.462652
H115	H	0.787134	-0.420415	-0.540180
O116	O	0.970766	-0.450066	-0.930596
C117	C	0.986817	-0.523881	-0.911813
H118	H	1.015096	-0.525428	-0.856013
H119	H	1.024648	-0.548815	-0.955069
C120	C	0.880315	-0.566839	-0.976774
C121	C	0.915042	-0.568740	-0.908237
H122	H	0.836041	-0.594512	-0.974571
H123	H	0.869502	-0.517109	-0.989431
H124	H	0.911848	-0.587617	-1.012813
H125	H	0.883513	-0.547955	-0.872201
H126	H	0.925847	-0.618468	-0.895574
H127	H	1.019695	-0.792568	-0.468960
H128	H	1.019834	-0.919798	-0.469325
O129	O	0.975326	-0.787871	-0.256471
C130	C	0.957291	-0.816386	-0.186711
H131	H	1.009723	-0.832323	-0.156458
H132	H	0.920993	-0.867261	-0.193426
C133	C	0.851401	-0.737707	-0.179464
C134	C	0.915799	-0.757275	-0.142304
H135	H	0.825803	-0.701247	-0.152072
H136	H	0.863549	-0.718498	-0.226463
H137	H	0.821161	-0.780109	-0.185058
H138	H	0.946041	-0.714876	-0.136719
H139	H	0.903655	-0.776476	-0.095302
H140	H	0.948852	-0.793209	-0.398289
O141	O	1.089180	-0.923799	-0.224950
C142	C	1.050348	-0.967004	-0.173518
H143	H	0.998127	-0.989264	-0.199976
H144	H	1.035338	-0.931558	-0.124027
C145	C	1.162890	-1.004670	-0.115952
C146	C	1.098753	-1.032015	-0.148451
H147	H	1.192748	-1.044770	-0.100487
H148	H	1.189052	-0.975560	-0.150601
H149	H	1.150371	-0.975131	-0.074714
H150	H	1.111272	-1.061545	-0.189694
H151	H	1.072594	-1.061132	-0.113808
O152	O	0.974221	-0.922981	-0.257410
C153	C	0.943918	-0.965673	-0.314604
H154	H	0.989972	-0.988449	-0.350419
H155	H	0.906152	-0.929661	-0.349373
C156	C	0.843057	-1.002215	-0.237741
C157	C	0.899621	-1.030194	-0.281727
H158	H	0.815730	-1.042012	-0.217462
H159	H	0.863471	-0.973450	-0.199209
H160	H	0.811593	-0.972205	-0.266722
H161	H	0.931089	-1.060195	-0.252743
H162	H	0.879211	-1.058965	-0.320253
H163	H	1.082498	-0.792959	-0.233404
H164	H	1.185453	-0.791842	-0.337692
O165	O	1.159751	-0.788867	-0.444276
C166	C	1.103108	-0.743935	-0.472319
H167	H	1.069340	-0.720748	-0.424940
H168	H	1.066170	-0.778252	-0.509587
C169	C	1.178221	-0.708294	-0.574802
C170	C	1.136751	-0.679811	-0.516609
H171	H	1.198972	-0.668742	-0.602125
H172	H	1.216382	-0.738568	-0.555910
H173	H	1.147433	-0.736892	-0.605851
H174	H	1.167541	-0.651222	-0.485557
H175	H	1.098596	-0.649531	-0.535497
