data_functionalizedCrystal
_audit_creation_method	'MofGen! by Chris Wilmer'
_symmetry_space_group_name_H-M	'P1'
_symmetry_Int_Tables_number	1
_symmetry_cell_setting	triclinic
loop_
_symmetry_equiv_pos_as_xyz
  x,y,z
_cell_length_a	16.974885
_cell_length_b	16.974813
_cell_length_c	9.130313
_cell_angle_alpha	86.344195
_cell_angle_beta	93.651792
_cell_angle_gamma	83.628230
loop_
_atom_site_label
_atom_site_type_symbol
_atom_site_fract_x
_atom_site_fract_y
_atom_site_fract_z
O1	O	1.049025	0.100749	-0.009509
O2	O	0.818806	0.113590	-0.038297
O3	O	0.940334	-0.007941	-0.009492
O4	O	0.927497	0.222280	-0.038314
O5	O	0.940332	-0.007937	0.234106
O6	O	0.818804	0.113594	0.205301
O7	O	1.049023	0.100752	0.234089
Cu8	Cu	0.933914	0.107173	0.241938
Cu9	Cu	0.933915	0.107169	-0.046146
O10	O	0.927495	0.222283	0.205284
C11	C	0.789348	0.113105	0.080071
C12	C	0.701573	0.111642	0.069849
C13	C	0.207500	0.103385	-0.002043
C14	C	0.289973	0.104759	0.007582
C15	C	0.331201	0.105454	0.145180
C16	C	0.289951	0.104766	0.273163
C17	C	0.207480	0.103387	0.263538
C18	C	0.577852	0.109575	0.188207
C19	C	0.660329	0.110957	0.197822
C20	C	0.660346	0.110949	-0.067761
C21	C	0.577873	0.109574	-0.077374
C22	C	0.536631	0.108882	0.050609
N23	N	0.415501	0.106861	0.155021
N24	N	0.452332	0.107470	0.040768
C25	C	0.939845	-0.037397	0.115739
C26	C	0.938381	-0.125172	0.125966
C27	C	0.937695	-0.166406	-0.002014
C28	C	0.936315	-0.248879	0.007599
C29	C	0.935625	-0.290117	0.145194
C30	C	0.936308	-0.248877	0.273183
C31	C	0.937683	-0.166405	0.263568
C32	C	0.931507	-0.536773	0.188188
C33	C	0.930134	-0.619252	0.197793
C34	C	0.930139	-0.619248	-0.067792
C35	C	0.931519	-0.536774	-0.077394
C36	C	0.932198	-0.495541	0.050594
N37	N	0.934216	-0.374419	0.155023
N38	N	0.933601	-0.411240	0.040763
C39	C	1.078482	0.101238	0.115718
C40	C	1.166256	0.102700	0.125931
C41	C	0.927984	0.251739	0.080049
C42	C	0.929449	0.339514	0.069813
N43	N	0.933918	0.107175	0.444561
N44	N	0.933917	0.107161	-0.248767
C45	C	0.987744	0.053379	0.533967
C46	C	0.987742	0.053370	0.687305
C47	C	0.880085	0.160959	0.661815
C48	C	0.880084	0.160964	0.508480
C49	C	1.049901	-0.008734	0.548684
C50	C	1.049899	-0.008744	0.702022
H51	H	0.693934	0.111511	-0.171957
C52	C	0.335340	0.105527	-0.133186
H53	H	0.390362	0.106442	-0.107751
H54	H	0.315743	0.151390	-0.195499
H55	H	0.327913	0.059211	-0.183147
C56	C	0.938457	-0.121048	-0.153366
H57	H	0.939382	-0.066025	-0.140766
H58	H	0.892146	-0.128483	-0.212533
H59	H	0.984325	-0.140647	-0.200165
C60	C	0.532532	0.108785	-0.228729
H61	H	0.568909	0.109377	-0.303567
H62	H	0.494270	0.154327	-0.244219
H63	H	0.506453	0.062148	-0.231783
H64	H	0.935760	-0.282449	-0.096616
C65	C	0.820878	0.220127	0.732132
H66	H	0.828589	0.212423	0.836258
H67	H	0.768120	0.211569	0.701767
H68	H	0.829409	0.272898	0.701766
C69	C	1.131804	0.008755	0.765879
H70	H	1.165487	0.015966	0.688086
H71	H	1.154729	-0.034583	0.831524
H72	H	1.125722	0.055692	0.817404
C73	C	0.935551	-0.294237	0.424534
H74	H	0.934643	-0.349262	0.411934
H75	H	0.889691	-0.274644	0.471346
H76	H	0.981870	-0.286800	0.483692
H77	H	1.036996	-0.069381	0.512728
H78	H	0.929585	-0.652829	-0.171993
H79	H	0.173938	0.102825	-0.114091
C80	C	1.127204	0.016513	0.490587
H81	H	1.161631	0.027749	0.570821
H82	H	1.115098	0.062674	0.425121
H83	H	1.152583	-0.025320	0.439992
C84	C	0.932268	-0.491416	-0.228750
H85	H	0.931654	-0.527786	-0.303596
H86	H	0.978889	-0.465321	-0.231848
H87	H	0.886710	-0.453166	-0.244191
H88	H	0.929568	-0.652825	0.309845
C89	C	0.932267	-0.491428	0.328971
H90	H	0.931670	-0.527804	0.412292
H91	H	0.886718	-0.453174	0.324577
H92	H	0.978897	-0.465340	0.336916
H93	H	0.938229	-0.132832	0.367781
H94	H	0.693893	0.111528	0.309876
C95	C	0.532495	0.108826	0.328981
H96	H	0.568861	0.109447	0.412303
H97	H	0.506405	0.062202	0.336950
H98	H	0.494241	0.154381	0.324553
C99	C	0.335298	0.105532	0.424518
H100	H	0.390321	0.106461	0.411923
H101	H	0.327863	0.059223	0.483697
H102	H	0.315692	0.151402	0.471303
C103	C	0.820871	0.220135	0.410138
H104	H	0.788817	0.252171	0.470171
H105	H	0.787995	0.191707	0.349795
H106	H	0.849275	0.253044	0.349791
H107	H	0.173899	0.102837	0.367747
H108	H	1.031250	-0.065991	0.754149
