data_functionalizedCrystal
_audit_creation_method	'MofGen! by Chris Wilmer'
_symmetry_space_group_name_H-M	'P1'
_symmetry_Int_Tables_number	1
_symmetry_cell_setting	triclinic
loop_
_symmetry_equiv_pos_as_xyz
  x,y,z
_cell_length_a	10.908878
_cell_length_b	15.995350
_cell_length_c	10.065875
_cell_angle_alpha	98.791555
_cell_angle_beta	83.443480
_cell_angle_gamma	71.788583
loop_
_atom_site_label
_atom_site_type_symbol
_atom_site_fract_x
_atom_site_fract_y
_atom_site_fract_z
O1	O	1.722639	-0.144244	-0.113475
O2	O	1.348776	-0.078859	-0.113479
O3	O	1.545927	-0.234862	-0.113476
O4	O	1.525488	0.011759	-0.113478
O5	O	1.508333	-0.205016	0.113512
O6	O	1.311182	-0.049013	0.113509
O7	O	1.685045	-0.114398	0.113513
Zn8	Zn	1.492145	-0.076967	0.149550
Zn9	Zn	1.541677	-0.116291	-0.149516
O10	O	1.487894	0.041605	0.113510
C11	C	1.282138	-0.057826	0.000014
C12	C	1.139585	-0.039629	0.000012
C13	C	1.090577	-0.106028	0.000012
C14	C	0.943242	-0.087222	0.000010
C15	C	1.526286	-0.251017	0.000016
C16	C	1.523754	-0.343615	0.000008
C17	C	1.514655	-0.680096	0.000013
C18	C	1.374332	-0.613178	-0.000498
C19	C	1.376781	-0.516773	0.000013
C20	C	1.519168	-0.513164	0.000010
C21	C	1.566955	-0.546841	0.129629
C22	C	1.563410	-0.642971	0.129738
C23	C	1.609062	-0.677674	-0.128390
C24	C	1.609312	-0.580949	-0.130103
C25	C	1.521726	-0.418822	0.000012
C26	C	1.512100	-0.774437	0.000019
C27	C	1.751684	-0.135432	0.000017
C28	C	1.894238	-0.153631	0.000010
C29	C	1.507536	0.057759	0.000015
C30	C	1.510070	0.150356	0.000014
N31	N	1.458350	-0.050132	0.353655
N32	N	1.575482	-0.143134	-0.353621
C33	C	1.529910	-0.106958	0.421435
C34	C	1.503911	-0.086300	0.578602
H35	H	0.876128	-0.016448	0.000003
H36	H	1.496861	-0.641501	0.226633
H37	H	0.961353	-0.224407	0.000001
O38	O	1.704455	-0.546577	0.136039
H39	H	1.740276	-0.522379	0.046696
H40	H	1.333607	-0.636117	-0.093451
H41	H	1.072468	0.031140	0.000005
O42	O	1.636528	-0.191683	0.344197
H43	H	1.640204	-0.194620	0.232872
H44	H	1.303152	-0.612839	0.091935
O45	O	1.482091	-0.483581	0.257414
H46	H	1.405835	-0.428126	0.228933
H47	H	1.337732	-0.492988	-0.092903
O48	O	1.397279	-0.001579	0.655847
H49	H	1.348817	0.036908	0.582289
O50	O	1.179462	-0.199775	0.000027
H51	H	1.281234	-0.199832	0.000042
H52	H	1.306562	-0.469039	0.093087
O53	O	1.682135	-0.227849	0.569148
H54	H	1.685825	-0.230783	0.457823
O55	O	1.698653	-0.703682	0.137558
H56	H	1.766294	-0.664312	0.141256
O57	O	1.351707	0.034583	0.430885
H58	H	1.278409	0.016678	0.496014
O59	O	1.569811	-0.713515	-0.258534
H60	H	1.482567	-0.733456	-0.233146
H61	H	1.574560	-0.559258	-0.225992
O62	O	1.748577	-0.581125	-0.140485
H63	H	1.788044	-0.601034	-0.048869
H64	H	1.712728	-0.723964	-0.129264
