data_functionalizedCrystal
_audit_creation_method	'MofGen! by Chris Wilmer'
_symmetry_space_group_name_H-M	'P1'
_symmetry_Int_Tables_number	1
_symmetry_cell_setting	triclinic
loop_
_symmetry_equiv_pos_as_xyz
  x,y,z
_cell_length_a	19.288864
_cell_length_b	17.699083
_cell_length_c	18.366186
_cell_angle_alpha	89.992864
_cell_angle_beta	89.977106
_cell_angle_gamma	83.209630
loop_
_atom_site_label
_atom_site_type_symbol
_atom_site_fract_x
_atom_site_fract_y
_atom_site_fract_z
O1	O	0.921465	0.094417	-0.060785
O2	O	0.719219	0.107154	-0.060735
O3	O	0.826056	-0.009412	-0.060755
O4	O	0.814628	0.210983	-0.060765
O5	O	0.826038	-0.009417	0.060345
O6	O	0.719201	0.107148	0.060364
O7	O	0.921446	0.094412	0.060315
Zn8	Zn	0.820321	0.100779	0.079567
Zn9	Zn	0.820345	0.100786	-0.079987
O10	O	0.814610	0.210977	0.060335
C11	C	0.693333	0.106741	-0.000179
C12	C	0.616228	0.105511	-0.000160
C13	C	0.571613	0.173906	-0.000174
C14	C	0.499164	0.172751	-0.000182
C15	C	0.471334	0.103196	-0.000190
C16	C	0.515959	0.034791	-0.000172
C17	C	0.588406	0.035949	-0.000156
C18	C	0.363014	0.048520	-0.042639
C19	C	0.290568	0.047365	-0.042659
C20	C	0.247884	0.099622	-0.000234
C21	C	0.277654	0.153047	0.042200
C22	C	0.350101	0.154205	0.042216
C23	C	0.392779	0.101932	-0.000206
C24	C	0.124712	0.166769	-0.000256
C25	C	0.052262	0.165610	-0.000260
C26	C	0.069059	0.027649	-0.000257
C27	C	0.141507	0.028809	-0.000246
C28	C	0.169329	0.098371	-0.000249
C29	C	0.825637	-0.037611	-0.000205
C30	C	0.824409	-0.121627	-0.000204
C31	C	0.887120	-0.170336	-0.000219
C32	C	0.885961	-0.249278	-0.000225
C33	C	0.822091	-0.279509	-0.000211
C34	C	0.759375	-0.230794	-0.000199
C35	C	0.760535	-0.151854	-0.000198
C36	C	0.754699	-0.549150	-0.000204
C37	C	0.753545	-0.628097	-0.000203
C38	C	0.880126	-0.646575	-0.000230
C39	C	0.881285	-0.567635	-0.000230
C40	C	0.818570	-0.518926	-0.000221
C41	C	0.819827	-0.433329	-0.000216
C42	C	0.820834	-0.365105	-0.000211
C43	C	0.947332	0.094824	-0.000243
C44	C	1.024437	0.096054	-0.000267
C45	C	0.815028	0.239176	-0.000217
C46	C	0.816257	0.323193	-0.000222
N47	N	0.820310	0.100773	0.188458
N48	N	0.820361	0.100786	-0.188878
C49	C	0.867632	0.049183	0.226550
C50	C	0.867637	0.049180	0.302777
C51	C	0.820325	0.100780	0.340911
C52	C	0.772993	0.152373	0.302810
C53	C	0.772986	0.152370	0.226583
C54	C	0.811108	0.169742	0.461669
C55	C	0.811121	0.169746	0.537894
C56	C	0.820345	0.100789	0.576018
C57	C	0.829571	0.031825	0.537908
C58	C	0.829563	0.031822	0.461681
C59	C	0.820328	0.100788	0.423565
C60	C	0.867675	0.049191	0.696765
C61	C	0.867674	0.049187	0.772994
C62	C	0.773034	0.152387	0.773025
C63	C	0.773031	0.152385	0.696797
C64	C	0.820355	0.100788	0.658672
H65	H	0.493296	-0.021841	-0.000188
N66	N	0.950173	-0.535028	-0.000238
H67	H	0.989725	-0.577865	-0.000249
H68	H	0.953417	-0.502672	-0.045131
H69	H	0.709469	-0.112195	-0.000187
H70	H	0.939130	-0.145729	-0.000225
H71	H	0.177834	-0.026886	-0.000238
H72	H	0.937027	-0.288934	-0.000235
H73	H	0.931192	-0.686243	-0.000241
N74	N	0.258462	-0.010257	-0.088421
H75	H	0.225043	0.017055	-0.124715
H76	H	0.296535	-0.043177	-0.115239
H77	H	0.906208	0.007172	0.804009
H78	H	0.624733	-0.019749	-0.000145
H79	H	0.734470	0.194386	0.333862
H80	H	0.906165	0.007168	0.195510
N81	N	0.839524	-0.042557	0.579014
H82	H	0.838126	-0.032094	0.633086
H83	H	0.800963	-0.073971	0.565713
H84	H	0.906207	0.007175	0.665722
H85	H	0.734510	0.194397	0.804072
H86	H	0.701531	-0.652707	-0.000190
H87	H	0.734500	0.194397	0.665781
N88	N	0.690485	-0.263396	-0.000190
H89	H	0.699266	-0.320795	-0.000190
H90	H	0.663043	-0.245565	0.044710
H91	H	0.374336	0.197703	0.076770
N92	N	0.687060	-0.496621	-0.000192
H93	H	0.646425	-0.527753	-0.000180
H94	H	0.684776	-0.463470	0.044701
N95	N	0.918679	-0.006461	0.343880
H96	H	0.910779	-0.060161	0.330632
H97	H	0.967934	0.002190	0.330573
N98	N	0.409049	-0.007849	-0.088397
H99	H	0.379198	-0.041863	-0.115285
H100	H	0.435737	0.020485	-0.124629
N101	N	0.839511	-0.042553	0.420575
H102	H	0.845356	-0.086239	0.456288
H103	H	0.797320	-0.046854	0.388972
H104	H	0.803613	0.225900	0.568918
N105	N	0.801161	0.244121	0.420553
H106	H	0.795325	0.287807	0.456260
H107	H	0.843346	0.248418	0.388905
N108	N	0.721940	0.208013	0.185493
H109	H	0.691965	0.240700	0.221214
H110	H	0.748468	0.241401	0.153847
H111	H	0.462831	0.228448	-0.000192
N112	N	0.601621	0.248931	-0.000183
H113	H	0.562359	0.292084	-0.000195
H114	H	0.631289	0.252422	0.044714
H115	H	0.242902	0.195599	0.076747
H116	H	0.147365	0.223410	-0.000249
N117	N	0.004137	0.239383	-0.000218
H118	H	0.032758	0.283622	-0.000202
H119	H	-0.026289	0.241943	-0.045098
H120	H	0.046401	-0.028984	-0.000308
