data_functionalizedCrystal
_audit_creation_method	'MofGen! by Chris Wilmer'
_symmetry_space_group_name_H-M	'P1'
_symmetry_Int_Tables_number	1
_symmetry_cell_setting	triclinic
loop_
_symmetry_equiv_pos_as_xyz
  x,y,z
_cell_length_a	12.645330
_cell_length_b	11.169417
_cell_length_c	11.169409
_cell_angle_alpha	90.019824
_cell_angle_beta	89.967722
_cell_angle_gamma	89.981430
loop_
_atom_site_label
_atom_site_type_symbol
_atom_site_fract_x
_atom_site_fract_y
_atom_site_fract_z
Zn1	Zn	-0.421929	-1.834901	-0.678543
Zn2	Zn	-0.599240	-1.834765	-0.477860
Zn3	Zn	-0.421993	-1.634187	-0.477878
Zn4	Zn	-0.599153	-1.634169	-0.678505
O5	O	-0.510579	-1.734505	-0.578197
O6	O	-0.445458	-2.002833	-0.651931
O7	O	-0.575791	-1.808108	-0.309913
O8	O	-0.273637	-1.660877	-0.504519
O9	O	-0.575728	-2.002732	-0.504490
O10	O	-0.273590	-1.808341	-0.651948
O11	O	-0.445569	-1.660745	-0.309925
O12	O	-0.445485	-1.466235	-0.504483
O13	O	-0.575581	-1.660846	-0.846460
O14	O	-0.575644	-1.466221	-0.651883
O15	O	-0.445375	-1.808323	-0.846488
O16	O	-0.747575	-1.808090	-0.504453
O17	O	-0.747512	-1.660713	-0.651866
C18	C	-0.510563	-1.422681	-0.578181
C19	C	-0.510581	-1.289281	-0.578203
C20	C	-0.786008	-1.734418	-0.578180
C21	C	-0.903838	-1.734490	-0.578213
C22	C	-0.510461	-1.734597	-0.891239
C23	C	-0.510411	-1.734637	-1.024639
C24	C	-1.071407	-1.642158	-0.671236
C25	C	-0.948847	-1.641685	-0.670937
C26	C	-0.948447	-1.700247	-0.451730
C27	C	-1.071046	-1.699683	-0.452295
C28	C	-1.070922	-1.861631	-0.610646
C29	C	-0.948315	-1.860852	-0.613412
C30	C	-0.234073	-1.734626	-0.578240
C31	C	-0.116243	-1.734677	-0.578258
C32	C	-0.510596	-2.047548	-0.578213
C33	C	-0.510603	-2.180948	-0.578220
C34	C	-0.510619	-1.734483	-0.266372
C35	C	-0.510371	-1.734676	-0.132972
H36	H	-0.918682	-1.663110	-0.764723
H37	H	-0.917841	-1.608410	-0.423796
O38	O	-1.111752	-1.903004	-0.730746
H39	H	-1.078659	-1.992692	-0.751523
H40	H	-1.100807	-1.663386	-0.765330
O41	O	-1.109319	-1.953059	-0.521066
H42	H	-1.155259	-2.023346	-0.568256
O43	O	-1.112320	-1.518257	-0.643178
H44	H	-1.164448	-1.522285	-0.563298
H45	H	-1.099742	-1.606879	-0.424857
O46	O	-0.910111	-1.517027	-0.642485
H47	H	-0.978946	-1.456848	-0.628875
O48	O	-1.110354	-1.785047	-0.357390
H49	H	-1.041794	-1.826542	-0.311289
H50	H	-0.919296	-1.765497	-0.380561
O51	O	-0.909674	-1.895086	-0.736701
H52	H	-0.858998	-1.822418	-0.772767
O53	O	-0.907774	-1.956972	-0.530211
H54	H	-0.855056	-1.915999	-0.462168
