data_functionalizedCrystal
_audit_creation_method	'MofGen! by Chris Wilmer'
_symmetry_space_group_name_H-M	'P1'
_symmetry_Int_Tables_number	1
_symmetry_cell_setting	triclinic
loop_
_symmetry_equiv_pos_as_xyz
  x,y,z
_cell_length_a	6.817900
_cell_length_b	23.752963
_cell_length_c	23.753023
_cell_angle_alpha	97.113271
_cell_angle_beta	100.067528
_cell_angle_gamma	100.066732
loop_
_atom_site_label
_atom_site_type_symbol
_atom_site_fract_x
_atom_site_fract_y
_atom_site_fract_z
V1	V	-3.971794	-0.079886	-0.178727
O2	O	-3.977677	0.003095	-0.174979
O3	O	-3.907026	-0.157686	-0.177837
O4	O	-3.907021	-0.078983	-0.256524
O5	O	-3.977682	-0.076152	-0.095747
V6	V	-4.459665	-0.069922	-0.168762
O7	O	-4.223516	-0.101743	-0.200587
O8	O	-4.658140	-0.048065	-0.146902
O9	O	-4.301226	0.007878	-0.169652
O10	O	-4.571179	-0.152903	-0.172509
O11	O	-4.571174	-0.073656	-0.251741
O12	O	-4.301231	-0.070825	-0.090964
C13	C	-3.748575	-0.176641	-0.175103
C14	C	-3.776798	-0.240246	-0.174894
C15	C	-3.924670	-0.626269	-0.121105
C16	C	-3.951214	-0.686031	-0.120900
O17	O	-3.941785	-0.709812	-0.076207
N18	N	-3.991787	-0.724303	-0.173229
C19	C	-4.005838	-0.702811	-0.225766
O20	O	-4.042788	-0.740852	-0.270258
C21	C	-3.979309	-0.643050	-0.225971
C22	C	-3.938715	-0.604780	-0.173638
C23	C	-3.884081	-0.588000	-0.068776
C24	C	-3.857536	-0.528242	-0.068981
C25	C	-3.871581	-0.506753	-0.121514
C26	C	-3.912170	-0.545022	-0.173842
C27	C	-3.993374	-0.621559	-0.278507
C28	C	-3.966843	-0.561794	-0.278707
C29	C	-3.926249	-0.523524	-0.226374
C30	C	-3.899670	-0.463776	-0.226580
N31	N	-3.859097	-0.425504	-0.174251
C32	C	-3.845052	-0.446992	-0.121718
C33	C	-4.061551	-0.828312	-0.225334
C34	C	-4.088066	-0.888072	-0.225130
C35	C	-4.033443	-0.871288	-0.120264
C36	C	-4.006914	-0.811527	-0.120468
C37	C	-4.020978	-0.790040	-0.173005
C38	C	-3.789306	-0.321497	-0.122152
C39	C	-3.762753	-0.261734	-0.122361
C40	C	-3.817388	-0.278524	-0.227227
C41	C	-3.843929	-0.338281	-0.227018
C42	C	-3.829891	-0.359765	-0.174476
O43	O	-3.909078	-0.439953	-0.271251
O44	O	-3.808129	-0.408946	-0.077235
C45	C	-3.748568	-0.076248	-0.275476
C46	C	-3.776784	-0.076025	-0.339078
C47	C	-3.979301	-0.127140	-0.741885
C48	C	-4.005846	-0.126939	-0.801648
O49	O	-4.042870	-0.171425	-0.839697
N50	N	-3.991799	-0.074407	-0.823143
C51	C	-3.951223	-0.022073	-0.784872
O52	O	-3.941714	0.022628	-0.808643
C53	C	-3.924693	-0.022274	-0.725111
C54	C	-3.938724	-0.074810	-0.703619
C55	C	-3.993332	-0.179671	-0.720393
C56	C	-3.966785	-0.179871	-0.660634
C57	C	-3.926207	-0.127541	-0.622368
C58	C	-3.912177	-0.075010	-0.643861
C59	C	-3.884133	0.030059	-0.686842
C60	C	-3.857605	0.029853	-0.627077
C61	C	-3.871635	-0.022682	-0.605585
C62	C	-3.845052	-0.022880	-0.545836
N63	N	-3.859099	-0.075412	-0.524341
C64	C	-3.899677	-0.127743	-0.562607
C65	C	-4.006944	-0.021654	-0.910376
C66	C	-4.033459	-0.021451	-0.970135
C67	C	-4.088084	-0.126318	-0.986907
C68	C	-4.061554	-0.126519	-0.927146
C69	C	-4.020991	-0.074186	-0.888880
C70	C	-3.843922	-0.128160	-0.437109
C71	C	-3.817362	-0.128355	-0.377344
C72	C	-3.762750	-0.023489	-0.360578
C73	C	-3.789297	-0.023293	-0.420337
C74	C	-3.829892	-0.075633	-0.458602
O75	O	-3.808031	0.021583	-0.507753
O76	O	-3.909205	-0.172437	-0.538828
C77	C	-4.123019	0.026830	-0.172384
C78	C	-4.074034	0.090434	-0.172597
C79	C	-4.123026	-0.073562	-0.072009
C80	C	-4.074049	-0.073782	-0.008407
H81	H	-3.973859	-0.780371	-0.077854
O82	O	-3.883700	-0.178992	-0.474303
C83	C	-4.117204	-0.242349	-0.554300
C84	C	-4.072450	-0.184773	-0.512207
H85	H	-4.269787	-0.247036	-0.584964
H86	H	-4.122814	-0.279949	-0.528696
H87	H	-3.992046	-0.242668	-0.580429
H88	H	-4.197555	-0.184397	-0.486068
H89	H	-4.066765	-0.147198	-0.537844
H90	H	-4.121086	-0.919226	-0.267744
O91	O	-3.723585	-0.224507	-0.071564
C92	C	-3.833895	-0.150097	-0.013643
C93	C	-3.878462	-0.192216	-0.071197
H94	H	-3.959108	-0.123988	-0.013322
H95	H	-3.681304	-0.119420	-0.008905
H96	H	-3.828341	-0.175736	0.023930
H97	H	-3.884123	-0.166625	-0.108803
H98	H	-4.031019	-0.222893	-0.075884
O99	O	-4.075164	-0.807537	-0.276422
C100	C	-4.132252	-0.830506	-0.380414
C101	C	-4.116837	-0.854106	-0.322599
H102	H	-4.165988	-0.868145	-0.417764
H103	H	-3.982320	-0.800728	-0.380971
H104	H	-4.260011	-0.805169	-0.385307
H105	H	-3.989165	-0.879470	-0.317669
H106	H	-4.266857	-0.883854	-0.322068
O107	O	-3.980430	-0.230956	-0.639859
C108	C	-3.847545	-0.317999	-0.633179
C109	C	-3.831748	-0.260154	-0.656726
H110	H	-3.727326	-0.341617	-0.646797
H111	H	-4.005112	-0.345990	-0.651371
H112	H	-3.821807	-0.309193	-0.583895
H113	H	-3.857391	-0.268906	-0.706008
H114	H	-3.674181	-0.232182	-0.638489
H115	H	-3.777872	-0.338982	-0.079367
H116	H	-3.828785	-0.171138	-0.359849
O117	O	-3.818122	0.080745	-0.589986
C118	C	-3.766892	0.184777	-0.579666
C119	C	-3.811573	0.127186	-0.621733
H120	H	-3.761626	0.222338	-0.605318
H121	H	-3.614182	0.189551	-0.549035
H122	H	-3.891947	0.185072	-0.553497
H123	H	-3.686647	0.126851	-0.647940
H124	H	-3.964347	0.122435	-0.652325
H125	H	-4.022010	-0.888795	-0.077488
H126	H	-4.026428	-0.652709	-0.321123
H127	H	-3.978321	-0.544304	-0.321490
H128	H	-3.824497	-0.497088	-0.026366
H129	H	-3.872645	-0.605489	-0.025995
O130	O	-3.883433	-0.375381	-0.277906
C131	C	-3.934724	-0.385712	-0.381939
C132	C	-3.889991	-0.343638	-0.324350
H133	H	-3.939998	-0.360064	-0.419504
H134	H	-4.087444	-0.416335	-0.386704
H135	H	-3.809691	-0.411888	-0.382237
H136	H	-4.014896	-0.317423	-0.324012
H137	H	-3.737208	-0.313054	-0.319608
H138	H	-3.777882	0.019485	-0.437837
O139	O	-4.019829	0.029632	-0.990913
C140	C	-3.962726	0.133625	-0.967953
C141	C	-3.978141	0.075813	-0.944348
H142	H	-3.928977	0.170978	-0.930316
H143	H	-4.112662	0.134182	-0.997730
H144	H	-3.834974	0.138513	-0.993293
H145	H	-4.105805	0.070887	-0.918982
H146	H	-3.828116	0.075282	-0.914601
O147	O	-4.032998	-0.230551	-0.757506
C148	C	-4.259739	-0.322837	-0.792913
C149	C	-4.215058	-0.265243	-0.750851
H150	H	-4.406955	-0.350897	-0.787556
H151	H	-4.129215	-0.346566	-0.783043
H152	H	-4.276186	-0.313667	-0.839316
H153	H	-4.198650	-0.274362	-0.704434
H154	H	-4.345599	-0.241531	-0.760771
O155	O	-3.967867	0.029168	-0.873189
C156	C	-4.078054	0.087075	-0.798743
C157	C	-4.122565	0.029502	-0.840832
H158	H	-4.203076	0.087359	-0.772562
H159	H	-4.072681	0.124671	-0.824351
H160	H	-3.925346	0.091801	-0.768127
H161	H	-4.275279	0.024719	-0.871457
H162	H	-4.127806	-0.008065	-0.815187
O163	O	-4.075137	-0.177601	-0.906366
C164	C	-4.131493	-0.281582	-0.929315
C165	C	-4.116343	-0.223774	-0.952924
H166	H	-4.164767	-0.318927	-0.966944
H167	H	-4.259296	-0.286601	-0.903998
H168	H	-3.981470	-0.282008	-0.899513
H169	H	-4.266266	-0.223307	-0.982748
H170	H	-3.988445	-0.218779	-0.978206
O171	O	-3.870182	0.081082	-0.707734
C172	C	-3.696652	0.144897	-0.762716
C173	C	-3.712191	0.087100	-0.739080
H174	H	-3.568953	0.149776	-0.788075
H175	H	-3.662978	0.182285	-0.725114
H176	H	-3.846645	0.145400	-0.792492
H177	H	-3.562251	0.086540	-0.709313
H178	H	-3.745968	0.049738	-0.776710
O179	O	-4.127882	-0.177145	-1.024114
C180	C	-4.361422	-0.240474	-1.104123
C181	C	-4.316628	-0.182907	-1.062014
H182	H	-4.514002	-0.245146	-1.134783
H183	H	-4.367060	-0.278084	-1.078532
H184	H	-4.236270	-0.240792	-1.130254
H185	H	-4.441728	-0.182533	-1.035873
H186	H	-4.310915	-0.145323	-1.087638
O187	O	-3.723682	0.027321	-0.323382
C188	C	-3.833891	0.085198	-0.248918
C189	C	-3.878386	0.027637	-0.291025
H190	H	-3.958918	0.085468	-0.222738
H191	H	-3.828522	0.122805	-0.274512
H192	H	-3.681184	0.089919	-0.218304
H193	H	-4.031099	0.022860	-0.321650
H194	H	-3.883623	-0.009941	-0.265395
H195	H	-3.828809	-0.261016	-0.269998
