data_functionalizedCrystal
_audit_creation_method	'MofGen! by Chris Wilmer'
_symmetry_space_group_name_H-M	'P1'
_symmetry_Int_Tables_number	1
_symmetry_cell_setting	triclinic
loop_
_symmetry_equiv_pos_as_xyz
  x,y,z
_cell_length_a	8.634740
_cell_length_b	12.837942
_cell_length_c	7.088929
_cell_angle_alpha	83.116986
_cell_angle_beta	97.174953
_cell_angle_gamma	97.699623
loop_
_atom_site_label
_atom_site_type_symbol
_atom_site_fract_x
_atom_site_fract_y
_atom_site_fract_z
O1	O	2.081987	0.352221	-0.158985
O2	O	1.628808	0.323458	-0.158989
O3	O	1.845350	0.185933	-0.158975
O4	O	1.865445	0.489747	-0.158998
O5	O	1.874281	0.167505	0.159002
O6	O	1.657740	0.305031	0.158988
O7	O	2.110918	0.333793	0.158992
Cu8	Cu	1.886971	0.317729	0.188024
Cu9	Cu	1.852756	0.339522	-0.188021
O10	O	1.894377	0.471319	0.158979
C11	C	1.584866	0.307729	-0.000001
C12	C	1.410828	0.288301	-0.000002
C13	C	1.853026	0.137420	0.000012
C14	C	1.832777	0.020321	0.000009
C15	C	2.076200	-0.196322	-0.000029
C16	C	2.057182	-0.306347	-0.000032
C17	C	1.775722	-0.309756	-0.000015
C18	C	1.794740	-0.199731	-0.000011
C19	C	1.944985	-0.143018	-0.000015
C20	C	1.964003	-0.032991	0.000002
C21	C	1.682543	-0.036401	0.000005
C22	C	1.663525	-0.146426	0.000002
C23	C	2.154860	0.349523	0.000000
C24	C	2.328897	0.368952	-0.000011
C25	C	1.886700	0.519832	-0.000013
C26	C	1.906948	0.636932	-0.000022
N27	N	1.911047	0.302402	0.452514
N28	N	1.828691	0.354843	-0.452510
H29	H	1.391905	0.452868	-0.000005
C30	C	2.129261	0.029392	-0.000009
H31	H	2.204681	-0.018115	-0.000037
H32	H	2.152633	0.065955	0.110875
H33	H	2.132430	0.078812	-0.110910
H34	H	1.743338	0.409186	0.465838
H35	H	2.164031	-0.349743	-0.000049
H36	H	2.198537	-0.150147	-0.000013
C37	C	1.498266	-0.208810	-0.000002
H38	H	1.422842	-0.161302	-0.000007
H39	H	1.495085	-0.258237	0.110875
H40	H	1.474905	-0.245365	-0.110910
C41	C	2.026364	0.228987	0.562817
H42	H	2.024716	0.230036	0.696324
H43	H	2.129555	0.252666	0.530081
H44	H	1.995936	0.158957	0.530115
H45	H	1.653398	-0.355949	-0.000032
C46	C	1.325730	0.174943	-0.000005
H47	H	1.215996	0.176318	-0.000024
H48	H	1.364421	0.132857	0.110878
H49	H	1.344246	0.145723	-0.110908
C50	C	1.538199	0.022236	0.000003
H51	H	1.571037	0.095887	-0.000008
H52	H	1.487345	-0.002926	0.110886
H53	H	1.467173	0.009936	-0.110899
