data_functionalizedCrystal
_audit_creation_method	'MofGen! by Chris Wilmer'
_symmetry_space_group_name_H-M	'P1'
_symmetry_Int_Tables_number	1
_symmetry_cell_setting	triclinic
loop_
_symmetry_equiv_pos_as_xyz
  x,y,z
_cell_length_a	18.050591
_cell_length_b	18.215405
_cell_length_c	18.215399
_cell_angle_alpha	89.969449
_cell_angle_beta	89.974300
_cell_angle_gamma	90.020891
loop_
_atom_site_label
_atom_site_type_symbol
_atom_site_fract_x
_atom_site_fract_y
_atom_site_fract_z
Zn1	Zn	1.135345	-0.293070	-0.416218
Zn2	Zn	1.385345	-0.043070	-0.166218
Zn3	Zn	1.635345	0.206930	0.083782
Zn4	Zn	1.885345	0.456930	0.333782
Zn5	Zn	1.135252	-0.416141	-0.293146
Zn6	Zn	1.385252	-0.166141	-0.043146
Zn7	Zn	1.635252	0.083859	0.206854
Zn8	Zn	1.885252	0.333859	0.456854
Zn9	Zn	1.011154	-0.293085	-0.293152
Zn10	Zn	1.261154	-0.043085	-0.043152
Zn11	Zn	1.511154	0.206915	0.206848
Zn12	Zn	1.761154	0.456915	0.456848
Zn13	Zn	1.011119	-0.416091	-0.416158
Zn14	Zn	1.261119	-0.166091	-0.166158
Zn15	Zn	1.511119	0.083909	0.083842
Zn16	Zn	1.761119	0.333909	0.333842
O17	O	1.073217	-0.354597	-0.354669
O18	O	1.323217	-0.104597	-0.104669
O19	O	1.573217	0.145403	0.145331
O20	O	1.823217	0.395403	0.395331
O21	O	1.239257	-0.309411	-0.399914
O22	O	1.489257	-0.059411	-0.149914
O23	O	1.739257	0.190589	0.100086
O24	O	1.989257	0.440589	0.350086
O25	O	1.118766	-0.399845	-0.190162
O26	O	1.368766	-0.149845	0.059838
O27	O	1.618766	0.100155	0.309838
O28	O	1.868766	0.350155	0.559838
O29	O	1.027681	-0.190099	-0.309505
O30	O	1.277681	0.059901	-0.059505
O31	O	1.527681	0.309901	0.190495
O32	O	1.777681	0.559901	0.440495
O33	O	1.239189	-0.399831	-0.309494
O34	O	1.489189	-0.149831	-0.059494
O35	O	1.739189	0.100169	0.190506
O36	O	1.989189	0.350169	0.440506
O37	O	1.118924	-0.190088	-0.399921
O38	O	1.368924	0.059912	-0.149921
O39	O	1.618924	0.309912	0.100079
O40	O	1.868924	0.559912	0.350079
O41	O	1.027591	-0.309436	-0.190167
O42	O	1.277591	-0.059436	0.059833
O43	O	1.527591	0.190564	0.309833
O44	O	1.777591	0.440564	0.559833
O45	O	0.907224	-0.309387	-0.309447
O46	O	1.157224	-0.059387	-0.059447
O47	O	1.407224	0.190613	0.190553
O48	O	1.657224	0.440613	0.440553
O49	O	1.027622	-0.399745	-0.519150
O50	O	1.277622	-0.149745	-0.269150
O51	O	1.527622	0.100255	-0.019150
O52	O	1.777622	0.350255	0.230850
O53	O	0.907199	-0.399759	-0.399819
O54	O	1.157199	-0.149759	-0.149819
O55	O	1.407199	0.100241	0.100181
O56	O	1.657199	0.350241	0.350181
O57	O	1.118890	-0.309362	-0.519194
O58	O	1.368890	-0.059362	-0.269194
O59	O	1.618890	0.190638	-0.019194
O60	O	1.868890	0.440638	0.230806
O61	O	1.118733	-0.519119	-0.309436
O62	O	1.368733	-0.269119	-0.059436
O63	O	1.618733	-0.019119	0.190564
O64	O	1.868733	0.230881	0.440564
O65	O	1.027533	-0.519082	-0.399813
O66	O	1.277533	-0.269082	-0.149813
O67	O	1.527533	-0.019082	0.100187
O68	O	1.777533	0.230918	0.350187
C69	C	1.073139	-0.545803	-0.354633
C70	C	1.323139	-0.295803	-0.104633
C71	C	1.573139	-0.045803	0.145367
C72	C	1.823139	0.204197	0.395367
C73	C	1.073173	-0.627602	-0.354643
C74	C	1.323173	-0.377602	-0.104643
C75	C	1.573173	-0.127602	0.145357
C76	C	1.823173	0.122398	0.395357
C77	C	0.880265	-0.354569	-0.354628
C78	C	1.130265	-0.104569	-0.104628
C79	C	1.380265	0.145431	0.145372
C80	C	1.630265	0.395431	0.395372
C81	C	0.797720	-0.354575	-0.354628
C82	C	1.047720	-0.104575	-0.104628
C83	C	1.297720	0.145425	0.145372
C84	C	1.547720	0.395425	0.395372
C85	C	1.120773	-0.815791	-0.307670
C86	C	1.370773	-0.565791	-0.057670
C87	C	1.620773	-0.315791	0.192330
C88	C	1.870773	-0.065791	0.442330
C89	C	1.120806	-0.892650	-0.307688
C90	C	1.370806	-0.642650	-0.057688
C91	C	1.620806	-0.392650	0.192312
C92	C	1.870806	-0.142650	0.442312
C93	C	1.025757	-0.892651	-0.401720
C94	C	1.275757	-0.642651	-0.151720
C95	C	1.525757	-0.392651	0.098280
C96	C	1.775757	-0.142651	0.348280
C97	C	1.025728	-0.815794	-0.401705
C98	C	1.275728	-0.565794	-0.151705
C99	C	1.525728	-0.315794	0.098295
C100	C	1.775728	-0.065794	0.348295
C101	C	1.073235	-0.777365	-0.354676
C102	C	1.323235	-0.527365	-0.104676
C103	C	1.573235	-0.277365	0.145324
C104	C	1.823235	-0.027365	0.395324
C105	C	1.073297	-0.931082	-0.354709
C106	C	1.323297	-0.681082	-0.104709
C107	C	1.573297	-0.431082	0.145291
C108	C	1.823297	-0.181082	0.395291
C109	C	1.073333	-1.014415	-0.354728
C110	C	1.323333	-0.764415	-0.104728
C111	C	1.573333	-0.514415	0.145272
C112	C	1.823333	-0.264415	0.395272
C113	C	1.073201	-0.694027	-0.354657
C114	C	1.323201	-0.444027	-0.104657
C115	C	1.573201	-0.194027	0.145343
C116	C	1.823201	0.055973	0.395343
C117	C	0.598261	-0.305374	-0.305597
C118	C	0.848261	-0.055374	-0.055597
C119	C	1.098261	0.194626	0.194403
C120	C	1.348261	0.444626	0.444403
C121	C	0.548844	-0.372499	-0.287483
C122	C	0.798844	-0.122499	-0.037483
C123	C	1.048844	0.127501	0.212517
C124	C	1.298844	0.377501	0.462517
C125	C	0.646589	-0.354598	-0.354661
C126	C	0.896589	-0.104598	-0.104661
C127	C	1.146589	0.145402	0.145339
C128	C	1.396589	0.395402	0.395339
C129	C	0.548925	-0.287496	-0.372773
C130	C	0.798925	-0.037496	-0.122773
C131	C	1.048925	0.212504	0.127227
C132	C	1.298925	0.462504	0.377227
C133	C	0.500604	-0.354613	-0.354692
C134	C	0.750604	-0.104613	-0.104692
C135	C	1.000604	0.145387	0.145308
C136	C	1.250604	0.395387	0.395308
C137	C	0.598259	-0.421758	-0.336512
C138	C	0.848259	-0.171758	-0.086512
C139	C	1.098259	0.078242	0.163488
C140	C	1.348259	0.328242	0.413488
C141	C	0.598344	-0.336710	-0.421833
C142	C	0.848344	-0.086710	-0.171833
C143	C	1.098344	0.163290	0.078167
C144	C	1.348344	0.413290	0.328167
C145	C	0.548949	-0.403881	-0.403745
C146	C	0.798949	-0.153881	-0.153745
C147	C	1.048949	0.096119	0.096255
C148	C	1.298949	0.346119	0.346255
C149	C	0.730687	-0.354588	-0.354642
C150	C	0.980687	-0.104588	-0.104642
C151	C	1.230687	0.145412	0.145358
C152	C	1.480687	0.395412	0.395358
C153	C	0.416508	-0.354631	-0.354712
C154	C	0.666508	-0.104631	-0.104712
C155	C	0.916508	0.145369	0.145288
C156	C	1.166508	0.395369	0.395288
C157	C	1.266923	-0.354625	-0.354710
C158	C	1.516923	-0.104625	-0.104710
C159	C	1.766923	0.145375	0.145290
C160	C	2.016923	0.395375	0.395290
C161	C	1.349469	-0.354637	-0.354727
C162	C	1.599469	-0.104637	-0.104727
C163	C	1.849469	0.145363	0.145273
C164	C	2.099469	0.395363	0.395273
C165	C	1.073263	-0.354546	-0.546622
C166	C	1.323263	-0.104546	-0.296622
C167	C	1.573263	0.145454	-0.046622
C168	C	1.823263	0.395454	0.203378
C169	C	1.073282	-0.354524	-0.628420
C170	C	1.323282	-0.104524	-0.378420
C171	C	1.573282	0.145476	-0.128420
C172	C	1.823282	0.395476	0.121580
C173	C	1.073316	-0.162644	-0.354720
C174	C	1.323316	0.087356	-0.104720
C175	C	1.573316	0.337356	0.145280
C176	C	1.823316	0.587356	0.395280
C177	C	1.073359	-0.080845	-0.354742
C178	C	1.323359	0.169155	-0.104742
C179	C	1.573359	0.419155	0.145258
C180	C	1.823359	0.669155	0.395258
C181	C	1.120822	-0.307418	-0.816639
C182	C	1.370822	-0.057418	-0.566639
C183	C	1.620822	0.192582	-0.316639
C184	C	1.870822	0.442582	-0.066639
C185	C	1.120831	-0.307397	-0.893497
C186	C	1.370831	-0.057397	-0.643497
C187	C	1.620831	0.192603	-0.393497
C188	C	1.870831	0.442603	-0.143497
C189	C	1.025794	-0.401517	-0.893440
C190	C	1.275794	-0.151517	-0.643440
C191	C	1.525794	0.098483	-0.393440
C192	C	1.775794	0.348483	-0.143440
C193	C	1.025782	-0.401534	-0.816583
C194	C	1.275782	-0.151534	-0.566583
C195	C	1.525782	0.098466	-0.316583
C196	C	1.775782	0.348466	-0.066583
C197	C	1.073300	-0.354486	-0.778184
C198	C	1.323300	-0.104486	-0.528184
C199	C	1.573300	0.145514	-0.278184
C200	C	1.823300	0.395514	-0.028184
C201	C	1.073321	-0.354447	-0.931900
C202	C	1.323321	-0.104447	-0.681900
C203	C	1.573321	0.145553	-0.431900
C204	C	1.823321	0.395553	-0.181900
C205	C	1.073331	-0.354424	-1.015234
C206	C	1.323331	-0.104424	-0.765234
C207	C	1.573331	0.145576	-0.515234
C208	C	1.823331	0.395576	-0.265234
C209	C	1.073290	-0.354508	-0.694845
C210	C	1.323290	-0.104508	-0.444845
C211	C	1.573290	0.145492	-0.194845
C212	C	1.823290	0.395492	0.055155
C213	C	1.073215	-0.354594	-0.163462
C214	C	1.323215	-0.104594	0.086538
C215	C	1.573215	0.145406	0.336538
C216	C	1.823215	0.395406	0.586538
C217	C	1.073340	-0.354409	-0.081664
C218	C	1.323340	-0.104409	0.168336
C219	C	1.573340	0.145591	0.418336
C220	C	1.823340	0.395591	0.668336
H221	H	1.159457	-0.784504	-0.269377
H222	H	1.409457	-0.534504	-0.019377
H223	H	1.659457	-0.284504	0.230623
H224	H	1.909457	-0.034504	0.480623
F225	F	0.975133	-0.774896	-0.451742
F226	F	1.225133	-0.524896	-0.201742
F227	F	1.475133	-0.274896	0.048258
F228	F	1.725133	-0.024896	0.298258
H229	H	0.987108	-0.439824	-0.924714
H230	H	1.237108	-0.189824	-0.674714
H231	H	1.487108	0.060176	-0.424714
H232	H	1.737108	0.310176	-0.174714
F233	F	1.171404	-0.933541	-0.257659
F234	F	1.421404	-0.683541	-0.007659
F235	F	1.671404	-0.433541	0.242341
F236	F	1.921404	-0.183541	0.492341
F237	F	0.975199	-0.933555	-0.451767
F238	F	1.225199	-0.683555	-0.201767
F239	F	1.475199	-0.433555	0.048233
F240	F	1.725199	-0.183555	0.298233
F241	F	0.626784	-0.316895	-0.496046
F242	F	0.876784	-0.066895	-0.246046
F243	F	1.126784	0.183105	0.003954
F244	F	1.376784	0.433105	0.253954
F245	F	0.975197	-0.451629	-0.775655
F246	F	1.225197	-0.201629	-0.525655
F247	F	1.475197	0.048371	-0.275655
F248	F	1.725197	0.298371	-0.025655
F249	F	0.520594	-0.213317	-0.392778
F250	F	0.770594	0.036683	-0.142778
F251	F	1.020594	0.286683	0.107222
F252	F	1.270594	0.536683	0.357222
F253	F	0.626564	-0.251023	-0.251308
F254	F	0.876564	-0.001023	-0.001308
F255	F	1.126564	0.248977	0.248692
F256	F	1.376564	0.498977	0.498692
F257	F	0.520424	-0.392290	-0.213252
F258	F	0.770424	-0.142290	0.036748
F259	F	1.020424	0.107710	0.286748
F260	F	1.270424	0.357710	0.536748
F261	F	1.171415	-0.257306	-0.934420
F262	F	1.421415	-0.007306	-0.684420
F263	F	1.671415	0.242694	-0.434420
F264	F	1.921415	0.492694	-0.184420
H265	H	0.527434	-0.445563	-0.445250
H266	H	0.777434	-0.195563	-0.195250
H267	H	1.027434	0.054437	0.054750
H268	H	1.277434	0.304437	0.304750
F269	F	0.626463	-0.495960	-0.316420
F270	F	0.876463	-0.245960	-0.066420
F271	F	1.126463	0.004040	0.183580
F272	F	1.376463	0.254040	0.433580
H273	H	1.159513	-0.269106	-0.785376
H274	H	1.409513	-0.019106	-0.535376
H275	H	1.659513	0.230894	-0.285376
H276	H	1.909513	0.480894	-0.035376
