data_functionalizedCrystal
_audit_creation_method	'MofGen! by Chris Wilmer'
_symmetry_space_group_name_H-M	'P1'
_symmetry_Int_Tables_number	1
_symmetry_cell_setting	triclinic
loop_
_symmetry_equiv_pos_as_xyz
  x,y,z
_cell_length_a	19.188930
_cell_length_b	17.666332
_cell_length_c	19.188930
_cell_angle_alpha	89.988397
_cell_angle_beta	96.855221
_cell_angle_gamma	90.023234
loop_
_atom_site_label
_atom_site_type_symbol
_atom_site_fract_x
_atom_site_fract_y
_atom_site_fract_z
O1	O	0.926150	0.063200	-0.087169
O2	O	1.176150	0.313200	0.162831
O3	O	1.426150	0.563200	0.412831
O4	O	1.676150	0.813200	0.662831
O5	O	0.722838	0.063149	-0.098903
O6	O	0.972838	0.313149	0.151097
O7	O	1.222838	0.563149	0.401097
O8	O	1.472838	0.813149	0.651097
O9	O	0.830361	0.063161	0.008620
O10	O	1.080361	0.313161	0.258620
O11	O	1.330361	0.563161	0.508620
O12	O	1.580361	0.813161	0.758620
O13	O	0.818627	0.063188	-0.194692
O14	O	1.068627	0.313188	0.055308
O15	O	1.318627	0.563188	0.305308
O16	O	1.568627	0.813188	0.555308
O17	O	0.830342	-0.062735	0.008625
O18	O	1.080342	0.187265	0.258625
O19	O	1.330342	0.437265	0.508625
O20	O	1.580342	0.687265	0.758625
O21	O	0.722820	-0.062747	-0.098897
O22	O	0.972820	0.187253	0.151103
O23	O	1.222820	0.437253	0.401103
O24	O	1.472820	0.687253	0.651103
O25	O	0.926131	-0.062697	-0.087163
O26	O	1.176131	0.187303	0.162837
O27	O	1.426131	0.437303	0.412837
O28	O	1.676131	0.687303	0.662837
Cu29	Cu	0.824473	-0.074217	-0.093030
Cu30	Cu	1.074473	0.175783	0.156970
Cu31	Cu	1.324473	0.425783	0.406970
Cu32	Cu	1.574473	0.675783	0.656970
Cu33	Cu	0.824496	0.074670	-0.093036
Cu34	Cu	1.074496	0.324670	0.156964
Cu35	Cu	1.324496	0.574670	0.406964
Cu36	Cu	1.574496	0.824670	0.656964
O37	O	0.818608	-0.062709	-0.194686
O38	O	1.068608	0.187291	0.055314
O39	O	1.318608	0.437291	0.305314
O40	O	1.568608	0.687291	0.555314
C41	C	0.696818	0.000194	-0.098520
C42	C	0.946818	0.250194	0.151480
C43	C	1.196818	0.500194	0.401480
C44	C	1.446818	0.750194	0.651480
C45	C	0.619313	0.000174	-0.097380
C46	C	0.869313	0.250174	0.152620
C47	C	1.119313	0.500174	0.402620
C48	C	1.369313	0.750174	0.652620
N49	N	0.824463	-0.178937	-0.093025
N50	N	1.074463	0.071063	0.156975
N51	N	1.324463	0.321063	0.406975
N52	N	1.574463	0.571063	0.656975
C53	C	0.574389	0.000194	-0.160470
C54	C	0.824389	0.250194	0.089530
C55	C	1.074389	0.500194	0.339530
C56	C	1.324389	0.750194	0.589530
C57	C	0.501566	0.000203	-0.159399
C58	C	0.751566	0.250203	0.090601
C59	C	1.001566	0.500203	0.340601
C60	C	1.251566	0.750203	0.590601
C61	C	0.473669	0.000206	-0.095233
C62	C	0.723669	0.250206	0.154767
C63	C	0.973669	0.500206	0.404767
C64	C	1.223669	0.750206	0.654767
C65	C	0.518603	0.000181	-0.032133
C66	C	0.768603	0.250181	0.217867
C67	C	1.018603	0.500181	0.467867
C68	C	1.268603	0.750181	0.717867
C69	C	0.591425	0.000166	-0.033207
C70	C	0.841425	0.250166	0.216793
C71	C	1.091425	0.500166	0.466793
C72	C	1.341425	0.750166	0.716793
N73	N	0.365695	0.043078	-0.046188
N74	N	0.615695	0.293078	0.203812
N75	N	0.865695	0.543078	0.453812
N76	N	1.115695	0.793078	0.703812
N77	N	0.296517	0.043095	-0.045172
N78	N	0.546517	0.293095	0.204828
N79	N	0.796517	0.543095	0.454828
N80	N	1.046517	0.793095	0.704828
C81	C	0.254260	0.000252	-0.091994
C82	C	0.504260	0.250252	0.158006
C83	C	0.754260	0.500252	0.408006
C84	C	1.004260	0.750252	0.658006
N85	N	0.283795	-0.042599	-0.139881
N86	N	0.533795	0.207401	0.110119
N87	N	0.783795	0.457401	0.360119
N88	N	1.033795	0.707401	0.610119
N89	N	0.352979	-0.042612	-0.140899
N90	N	0.602979	0.207388	0.109101
N91	N	0.852979	0.457388	0.359101
N92	N	1.102979	0.707388	0.609101
C93	C	0.394707	0.000222	-0.094062
C94	C	0.644707	0.250222	0.155938
C95	C	0.894707	0.500222	0.405938
C96	C	1.144707	0.750222	0.655938
C97	C	0.130372	0.000280	-0.153928
C98	C	0.380372	0.250280	0.096072
C99	C	0.630372	0.500280	0.346072
C100	C	0.880372	0.750280	0.596072
C101	C	0.057547	0.000283	-0.152853
C102	C	0.307547	0.250283	0.097147
C103	C	0.557547	0.500283	0.347147
C104	C	0.807547	0.750283	0.597147
C105	C	0.074586	0.000270	-0.025586
C106	C	0.324586	0.250270	0.224414
C107	C	0.574586	0.500270	0.474414
C108	C	0.824586	0.750270	0.724414
C109	C	0.147409	0.000258	-0.026662
C110	C	0.397409	0.250258	0.223338
C111	C	0.647409	0.500258	0.473338
C112	C	0.897409	0.750258	0.723338
C113	C	0.175298	0.000267	-0.090835
C114	C	0.425298	0.250267	0.159165
C115	C	0.675298	0.500267	0.409165
C116	C	0.925298	0.750267	0.659165
C117	C	0.872089	-0.218541	-0.045437
C118	C	1.122089	0.031459	0.204563
C119	C	1.372089	0.281459	0.454563
C120	C	1.622089	0.531459	0.704563
C121	C	0.872093	-0.297789	-0.045433
C122	C	1.122093	-0.047789	0.204567
C123	C	1.372093	0.202211	0.454567
C124	C	1.622093	0.452211	0.704567
C125	C	0.824478	-0.337429	-0.093030
C126	C	1.074478	-0.087429	0.156970
C127	C	1.324478	0.162571	0.406970
C128	C	1.574478	0.412571	0.656970
C129	C	0.776842	-0.297815	-0.140621
C130	C	1.026842	-0.047815	0.109379
C131	C	1.276842	0.202185	0.359379
C132	C	1.526842	0.452185	0.609379
C133	C	0.776835	-0.218569	-0.140619
C134	C	1.026835	0.031431	0.109381
C135	C	1.276835	0.281431	0.359381
C136	C	1.526835	0.531431	0.609381
N137	N	0.815401	-0.461841	-0.154837
N138	N	1.065401	-0.211841	0.095163
N139	N	1.315401	0.038159	0.345163
N140	N	1.565401	0.288159	0.595163
N141	N	0.815413	-0.537121	-0.154837
N142	N	1.065413	-0.287121	0.095163
N143	N	1.315413	-0.037121	0.345163
N144	N	1.565413	0.212879	0.595163
C145	C	0.824496	-0.576193	-0.093040
C146	C	1.074496	-0.326193	0.156960
C147	C	1.324496	-0.076193	0.406960
C148	C	1.574496	0.173807	0.656960
N149	N	0.833582	-0.537140	-0.031239
N150	N	1.083582	-0.287140	0.218761
N151	N	1.333582	-0.037140	0.468761
N152	N	1.583582	0.212860	0.718761
N153	N	0.833574	-0.461853	-0.031240
N154	N	1.083574	-0.211853	0.218760
N155	N	1.333574	0.038147	0.468760
N156	N	1.583574	0.288147	0.718760
C157	C	0.824480	-0.423358	-0.093038
C158	C	1.074480	-0.173358	0.156962
C159	C	1.324480	0.076642	0.406962
C160	C	1.574480	0.326642	0.656962
C161	C	0.872130	-0.701727	-0.045444
C162	C	1.122130	-0.451727	0.204556
C163	C	1.372130	-0.201727	0.454556
C164	C	1.622130	0.048273	0.704556
C165	C	0.872129	-0.780976	-0.045440
C166	C	1.122129	-0.530976	0.204560
C167	C	1.372129	-0.280976	0.454560
C168	C	1.622129	-0.030976	0.704560
C169	C	0.776881	-0.781000	-0.140634
C170	C	1.026881	-0.531000	0.109366
C171	C	1.276881	-0.281000	0.359366
C172	C	1.526881	-0.031000	0.609366
C173	C	0.776878	-0.701753	-0.140632
C174	C	1.026878	-0.451753	0.109368
C175	C	1.276878	-0.201753	0.359368
C176	C	1.526878	0.048247	0.609368
C177	C	0.824506	-0.662121	-0.093038
C178	C	1.074506	-0.412121	0.156962
C179	C	1.324506	-0.162121	0.406962
C180	C	1.574506	0.087879	0.656962
C181	C	0.952151	0.000260	-0.087546
C182	C	1.202151	0.250260	0.162454
C183	C	1.452151	0.500260	0.412454
C184	C	1.702151	0.750260	0.662454
C185	C	1.029656	0.000285	-0.088687
C186	C	1.279656	0.250285	0.161313
C187	C	1.529656	0.500285	0.411313
C188	C	1.779656	0.750285	0.661313
C189	C	0.829972	0.000211	0.034634
C190	C	1.079972	0.250211	0.284634
C191	C	1.329972	0.500211	0.534634
C192	C	1.579972	0.750211	0.784634
C193	C	0.828831	0.000204	0.112138
C194	C	1.078831	0.250204	0.362138
C195	C	1.328831	0.500204	0.612138
C196	C	1.578831	0.750204	0.862138
N197	N	0.824512	0.179390	-0.093036
N198	N	1.074512	0.429390	0.156964
N199	N	1.324512	0.679390	0.406964
N200	N	1.574512	0.929390	0.656964
C201	C	0.818997	0.000244	-0.220700
C202	C	1.068997	0.250244	0.029300
C203	C	1.318997	0.500244	0.279300
C204	C	1.568997	0.750244	0.529300
C205	C	0.820138	0.000255	-0.298204
C206	C	1.070138	0.250255	-0.048204
C207	C	1.320138	0.500255	0.201796
C208	C	1.570138	0.750255	0.451796
C209	C	0.891922	0.000216	0.157062
C210	C	1.141922	0.250216	0.407062
C211	C	1.391922	0.500216	0.657062
C212	C	1.641922	0.750216	0.907062
C213	C	0.890850	0.000228	0.229886
C214	C	1.140850	0.250228	0.479886
C215	C	1.390850	0.500228	0.729886
C216	C	1.640850	0.750228	0.979886
C217	C	0.826684	0.000212	0.257782
C218	C	1.076684	0.250212	0.507782
C219	C	1.326684	0.500212	0.757782
C220	C	1.576684	0.750212	1.007782
C221	C	0.763585	0.000205	0.212849
C222	C	1.013585	0.250205	0.462849
C223	C	1.263585	0.500205	0.712849
C224	C	1.513585	0.750205	0.962849
C225	C	0.764658	0.000200	0.140026
C226	C	1.014658	0.250200	0.390026
C227	C	1.264658	0.500200	0.640026
C228	C	1.514658	0.750200	0.890026
N229	N	0.777630	-0.042645	0.365789
N230	N	1.027630	0.207355	0.615789
N231	N	1.277630	0.457355	0.865789
N232	N	1.527630	0.707355	1.115789
N233	N	0.776615	-0.042642	0.434968
N234	N	1.026615	0.207358	0.684968
N235	N	1.276615	0.457358	0.934968
N236	N	1.526615	0.707358	1.184968
C237	C	0.823446	0.000227	0.477191
C238	C	1.073446	0.250227	0.727191
C239	C	1.323446	0.500227	0.977191
C240	C	1.573446	0.750227	1.227191
N241	N	0.871341	0.043084	0.447624
N242	N	1.121341	0.293084	0.697624
N243	N	1.371341	0.543084	0.947624
N244	N	1.621341	0.793084	1.197624
N245	N	0.872359	0.043079	0.378439
N246	N	1.122359	0.293079	0.628439
N247	N	1.372359	0.543079	0.878439
N248	N	1.622359	0.793079	1.128439
C249	C	0.825513	0.000218	0.336745
C250	C	1.075513	0.250218	0.586745
C251	C	1.325513	0.500218	0.836745
C252	C	1.575513	0.750218	1.086745
C253	C	0.885379	0.000253	0.601079
C254	C	1.135379	0.250253	0.851079
C255	C	1.385379	0.500253	1.101079
C256	C	1.635379	0.750253	1.351079
C257	C	0.884305	0.000270	0.673904
C258	C	1.134305	0.250270	0.923904
C259	C	1.384305	0.500270	1.173904
C260	C	1.634305	0.750270	1.423904
C261	C	0.757038	0.000239	0.656865
C262	C	1.007038	0.250239	0.906865
C263	C	1.257038	0.500239	1.156865
C264	C	1.507038	0.750239	1.406865
C265	C	0.758114	0.000230	0.584042
C266	C	1.008114	0.250230	0.834042
C267	C	1.258114	0.500230	1.084042
C268	C	1.508114	0.750230	1.334042
C269	C	0.822287	0.000233	0.556154
C270	C	1.072287	0.250233	0.806154
C271	C	1.322287	0.500233	1.056154
C272	C	1.572287	0.750233	1.306154
H273	H	0.597091	0.000203	-0.212725
H274	H	0.847091	0.250203	0.037275
H275	H	1.097091	0.500203	0.287275
H276	H	1.347091	0.750203	0.537275
F277	F	0.922818	-0.823127	0.005216
F278	F	1.172818	-0.573127	0.255216
F279	F	1.422818	-0.323127	0.505216
F280	F	1.672818	-0.073127	0.755216
F281	F	0.697505	0.000188	0.092213
F282	F	0.947505	0.250188	0.342213
F283	F	1.197505	0.500188	0.592213
F284	F	1.447505	0.750188	0.842213
F285	F	0.695295	0.000193	0.242539
F286	F	0.945295	0.250193	0.492539
F287	F	1.195295	0.500193	0.742539
F288	F	1.445295	0.750193	0.992539
F289	F	0.922787	-0.339946	0.005219
F290	F	1.172787	-0.089946	0.255219
F291	F	1.422787	0.160054	0.505219
F292	F	1.672787	0.410054	0.755219
H293	H	0.738072	-0.330094	-0.179374
H294	H	0.988072	-0.080094	0.070626
H295	H	1.238072	0.169906	0.320626
H296	H	1.488072	0.419906	0.570626
H297	H	0.738109	-0.813275	-0.179385
H298	H	0.988109	-0.563275	0.070615
H299	H	1.238109	-0.313275	0.320615
H300	H	1.488109	-0.063275	0.570615
H301	H	0.910869	-0.186275	-0.006681
H302	H	1.160869	0.063725	0.243319
H303	H	1.410869	0.313725	0.493319
H304	H	1.660869	0.563725	0.743319
F305	F	0.726143	-0.176417	-0.191271
F306	F	0.976143	0.073583	0.058729
F307	F	1.226143	0.323583	0.308729
F308	F	1.476143	0.573583	0.558729
H309	H	0.937632	0.000259	0.578372
H310	H	1.187632	0.250259	0.828372
H311	H	1.437632	0.500259	1.078372
H312	H	1.687632	0.750259	1.328372
H313	H	0.020970	0.000295	-0.204232
H314	H	0.270970	0.250295	0.045768
H315	H	0.520970	0.500295	0.295768
H316	H	0.770970	0.750295	0.545768
F317	F	0.922816	-0.659546	0.005212
F318	F	1.172816	-0.409546	0.255212
F319	F	1.422816	-0.159546	0.505212
F320	F	1.672816	0.090454	0.755212
F321	F	0.726191	-0.659600	-0.191285
F322	F	0.976191	-0.409600	0.058715
F323	F	1.226191	-0.159600	0.308715
F324	F	1.476191	0.090400	0.558715
F325	F	0.639238	0.000144	0.033946
F326	F	0.889238	0.250144	0.283946
F327	F	1.139238	0.500144	0.533946
F328	F	1.389238	0.750144	0.783946
F329	F	0.951459	0.000287	0.721716
F330	F	1.201459	0.250287	0.971716
F331	F	1.451459	0.500287	1.221716
F332	F	1.701459	0.750287	1.471716
F333	F	0.960220	0.000236	0.127385
F334	F	1.210220	0.250236	0.377385
F335	F	1.460220	0.500236	0.627385
F336	F	1.710220	0.750236	0.877385
F337	F	0.688747	0.000226	0.686550
F338	F	0.938747	0.250226	0.936550
F339	F	1.188747	0.500226	1.186550
F340	F	1.438747	0.750226	1.436550
F341	F	0.488912	0.000181	0.036157
F342	F	0.738912	0.250181	0.286157
F343	F	0.988912	0.500181	0.536157
F344	F	1.238912	0.750181	0.786157
F345	F	0.958003	0.000242	0.277706
F346	F	1.208003	0.250242	0.527706
F347	F	1.458003	0.500242	0.777706
F348	F	1.708003	0.750242	1.027706
H349	H	0.464982	0.000217	-0.210776
H350	H	0.714982	0.250217	0.039224
H351	H	0.964982	0.500217	0.289224
H352	H	1.214982	0.750217	0.539224
F353	F	0.160055	0.000283	-0.222225
F354	F	0.410055	0.250283	0.027775
F355	F	0.660055	0.500283	0.277775
F356	F	0.910055	0.750283	0.527775
H357	H	0.706738	0.000216	0.547464
H358	H	0.956738	0.250216	0.797464
H359	H	1.206738	0.500216	1.047464
H360	H	1.456738	0.750216	1.297464
H361	H	0.183988	0.000246	0.024713
H362	H	0.433988	0.250246	0.274713
H363	H	0.683988	0.500246	0.524713
H364	H	0.933988	0.750246	0.774713
F365	F	0.044901	0.000266	0.042705
F366	F	0.294901	0.250266	0.292705
F367	F	0.544901	0.500266	0.542705
F368	F	0.794901	0.750266	0.792705
