data_functionalizedCrystal
_audit_creation_method	'MofGen! by Chris Wilmer'
_symmetry_space_group_name_H-M	'P1'
_symmetry_Int_Tables_number	1
_symmetry_cell_setting	triclinic
loop_
_symmetry_equiv_pos_as_xyz
  x,y,z
_cell_length_a	15.297475
_cell_length_b	16.120444
_cell_length_c	16.120256
_cell_angle_alpha	95.616860
_cell_angle_beta	83.675350
_cell_angle_gamma	83.688625
loop_
_atom_site_label
_atom_site_type_symbol
_atom_site_fract_x
_atom_site_fract_y
_atom_site_fract_z
Zn1	Zn	1.308562	-0.577536	-0.709556
Zn2	Zn	1.308448	-0.710203	-0.576848
Zn3	Zn	1.168346	-0.546812	-0.546217
Zn4	Zn	1.152483	-0.690935	-0.690339
O5	O	1.234460	-0.631372	-0.630740
O6	O	1.432500	-0.616057	-0.712813
O7	O	1.296454	-0.683734	-0.456931
O8	O	1.193632	-0.435049	-0.563107
O9	O	1.432416	-0.713527	-0.615313
O10	O	1.296648	-0.457623	-0.683112
O11	O	1.193521	-0.563691	-0.434426
O12	O	1.042288	-0.545008	-0.544474
O13	O	1.166596	-0.680688	-0.808742
O14	O	1.030634	-0.650895	-0.650359
O15	O	1.281267	-0.597374	-0.822860
O16	O	1.281073	-0.823485	-0.596679
O17	O	1.166486	-0.809329	-0.680061
C18	C	1.004321	-0.592527	-0.592008
C19	C	0.905865	-0.575930	-0.575458
C20	C	0.604160	-0.750000	-0.749023
C21	C	0.696664	-0.765600	-0.764569
C22	C	0.748969	-0.718183	-0.717293
C23	C	0.708760	-0.655165	-0.654467
C24	C	0.616246	-0.639568	-0.638914
C25	C	0.761056	-0.607752	-0.607185
C26	C	0.720847	-0.544733	-0.544359
C27	C	0.628342	-0.529139	-0.528809
C28	C	0.576038	-0.576555	-0.576085
C29	C	0.853569	-0.623349	-0.622738
C30	C	0.865656	-0.512917	-0.512629
C31	C	0.773152	-0.497317	-0.497083
C32	C	1.222068	-0.846448	-0.639631
C33	C	1.216847	-0.938473	-0.643476
C34	C	1.261753	-1.154958	-0.611009
C35	C	1.207329	-1.106962	-0.650507
C36	C	1.212627	-1.013206	-0.646593
C37	C	1.256458	-1.248723	-0.614921
C38	C	1.465497	-0.670369	-0.669624
C39	C	1.563951	-0.686987	-0.686194
C40	C	1.222175	-0.640309	-0.846681
C41	C	1.216940	-0.644117	-0.938702
C42	C	1.246922	-0.415461	-0.621836
C43	C	1.252233	-0.323452	-0.618042
C44	C	1.261760	-0.611490	-1.155166
C45	C	1.207354	-0.651031	-1.107175
C46	C	1.212689	-0.647183	-1.013428
C47	C	1.256426	-0.615337	-1.248921
C48	C	1.246751	-0.622418	-0.415645
C49	C	1.252171	-0.618406	-0.323644
H50	H	0.824290	-0.730888	-0.729956
H51	H	0.561565	-0.788604	-0.787503
Br52	Br	1.346039	-1.106087	-0.549752
H53	H	1.156764	-0.687767	-1.136493
Br54	Br	1.346054	-0.550239	-1.106297
H55	H	0.729395	-0.816911	-0.815721
Br56	Br	0.908127	-0.708872	-0.707998
H57	H	0.500712	-0.563855	-0.563432
H58	H	0.595607	-0.477833	-0.477644
H59	H	0.740400	-0.446007	-0.445929
Br60	Br	1.123036	-1.155831	-0.711765
Br61	Br	0.936633	-0.448569	-0.448458
