data_functionalizedCrystal
_audit_creation_method	'MofGen! by Chris Wilmer'
_symmetry_space_group_name_H-M	'P1'
_symmetry_Int_Tables_number	1
_symmetry_cell_setting	triclinic
loop_
_symmetry_equiv_pos_as_xyz
  x,y,z
_cell_length_a	14.519709
_cell_length_b	14.971486
_cell_length_c	14.048226
_cell_angle_alpha	90.006640
_cell_angle_beta	90.000842
_cell_angle_gamma	83.647137
loop_
_atom_site_label
_atom_site_type_symbol
_atom_site_fract_x
_atom_site_fract_y
_atom_site_fract_z
O1	O	-1.223800	-0.117253	-0.079037
O2	O	-0.723800	0.382747	0.420963
O3	O	-0.955315	-0.131060	-0.079066
O4	O	-0.455315	0.368940	0.420934
O5	O	-1.096753	0.006039	-0.079044
O6	O	-0.596753	0.506039	0.420956
O7	O	-1.082361	-0.254353	-0.079059
O8	O	-0.582361	0.245647	0.420941
O9	O	-1.096736	0.006048	0.079277
O10	O	-0.596736	0.506048	0.579277
O11	O	-0.955298	-0.131052	0.079255
O12	O	-0.455298	0.368948	0.579255
O13	O	-1.223783	-0.117245	0.079284
O14	O	-0.723783	0.382755	0.579284
Zn15	Zn	-1.089538	-0.124147	0.104407
Zn16	Zn	-0.589538	0.375853	0.604407
Zn17	Zn	-1.089560	-0.124158	-0.104189
Zn18	Zn	-0.589560	0.375842	0.395811
O19	O	-1.082344	-0.254344	0.079262
O20	O	-0.582344	0.245656	0.579262
C21	C	-0.920947	-0.130413	0.000091
C22	C	-0.420947	0.369587	0.500091
C23	C	-0.818567	-0.128485	0.000080
C24	C	-0.318567	0.371515	0.500080
C25	C	-1.096101	0.039369	0.000116
C26	C	-0.596101	0.539369	0.500116
C27	C	-1.094172	0.138667	0.000115
C28	C	-0.594172	0.638667	0.500115
C29	C	-1.258151	-0.117892	0.000125
C30	C	-0.758151	0.382108	0.500125
C31	C	-1.360531	-0.119820	0.000130
C32	C	-0.860531	0.380180	0.500130
C33	C	-0.443675	-0.121386	0.000123
C34	C	0.056325	0.378614	0.500123
C35	C	-0.547982	-0.123357	0.000111
C36	C	-0.047982	0.376643	0.500111
C37	C	-0.631118	-0.124935	0.000101
C38	C	-0.131118	0.375065	0.500101
C39	C	-0.735431	-0.126907	0.000090
C40	C	-0.235431	0.373093	0.500090
C41	C	-1.082996	-0.287674	0.000100
C42	C	-0.582996	0.212326	0.500100
C43	C	-1.084925	-0.386972	0.000094
C44	C	-0.584925	0.113028	0.500094
N45	N	-1.089529	-0.124139	0.246767
N46	N	-0.589529	0.375861	0.746767
C47	C	-1.177264	0.195845	0.000125
C48	C	-0.677264	0.695845	0.500125
C49	C	-1.175446	0.289146	0.000115
C50	C	-0.675446	0.789146	0.500115
C51	C	-1.090536	0.325266	0.000102
C52	C	-0.590536	0.825266	0.500102
C53	C	-1.007438	0.268080	0.000090
C54	C	-0.507438	0.768080	0.500090
C55	C	-1.009257	0.174781	0.000093
C56	C	-0.509257	0.674781	0.500093
C57	C	-1.003653	0.462545	0.000086
C58	C	-0.503653	0.962545	0.500086
C59	C	-1.001834	0.555850	0.000085
C60	C	-0.501834	1.055850	0.500085
C61	C	-1.169842	0.576909	0.000108
C62	C	-0.669842	1.076909	0.500108
C63	C	-1.171661	0.483610	0.000111
C64	C	-0.671661	0.983610	0.500111
C65	C	-1.088563	0.426431	0.000100
C66	C	-0.588563	0.926431	0.500100
N67	N	-1.089576	-0.124159	-0.246549
N68	N	-0.589576	0.375841	0.253451
C69	C	-1.152178	-0.063457	0.296595
C70	C	-0.652178	0.436543	0.796595
C71	C	-1.152184	-0.063456	0.396253
C72	C	-0.652184	0.436544	0.896253
C73	C	-1.089545	-0.124143	0.446081
C74	C	-0.589545	0.375857	0.946081
C75	C	-1.026890	-0.184829	0.396246
C76	C	-0.526890	0.315171	0.896246
C77	C	-1.026880	-0.184824	0.296590
C78	C	-0.526880	0.315176	0.796590
C79	C	-1.026916	-0.184835	0.603960
C80	C	-0.526916	0.315165	1.103960
C81	C	-1.026927	-0.184841	0.703623
C82	C	-0.526927	0.315159	1.203623
C83	C	-1.152220	-0.063467	0.703623
C84	C	-0.652220	0.436533	1.203623
C85	C	-1.152211	-0.063463	0.603967
C86	C	-0.652211	0.436537	1.103967
C87	C	-1.089556	-0.124150	0.554139
C88	C	-0.589556	0.375850	1.054139
H89	H	-1.246407	0.166444	0.000141
H90	H	-0.746407	0.666444	0.500141
N91	N	-0.919629	0.113118	0.000098
N92	N	-0.419629	0.613118	0.500098
H93	H	-0.916635	0.073949	0.058791
H94	H	-0.416635	0.573949	0.558791
H95	H	-0.916687	0.073986	-0.058627
H96	H	-0.416687	0.573986	0.441373
N97	N	-0.959364	-0.250282	0.757379
N98	N	-0.459364	0.249718	1.257379
H99	H	-0.994650	-0.289965	0.798713
H100	H	-0.494650	0.210035	1.298713
H101	H	-0.919677	-0.288665	0.710642
H102	H	-0.419677	0.211335	1.210642
N103	N	-0.959336	-0.250285	0.550214
N104	N	-0.459336	0.249715	1.050214
H105	H	-0.919658	-0.288734	0.596900
H106	H	-0.419658	0.211266	1.096900
H107	H	-0.994679	-0.289903	0.508854
H108	H	-0.494679	0.210097	1.008854
N109	N	-1.219724	0.002017	0.242859
N110	N	-0.719724	0.502017	0.742859
H111	H	-1.210210	-0.007182	0.172166
H112	H	-0.710210	0.492818	0.672166
H113	H	-1.285162	-0.008444	0.260261
H114	H	-0.785162	0.491556	0.760261
N115	N	-1.265065	0.350818	0.000131
N116	N	-0.765065	0.850818	0.500131
H117	H	-1.319131	0.313779	0.000148
H118	H	-0.819131	0.813779	0.500148
H119	H	-1.267955	0.389993	0.058823
H120	H	-0.767955	0.889993	0.558823
N121	N	-1.219764	0.001977	0.450007
N122	N	-0.719764	0.501977	0.950007
H123	H	-1.260617	-0.032315	0.491341
H124	H	-0.760617	0.467685	0.991341
H125	H	-1.184426	0.041643	0.491315
H126	H	-0.684426	0.541643	0.991315
H127	H	-0.935985	0.415991	0.000075
H128	H	-0.435985	0.915991	0.500075
N129	N	-0.959333	-0.250284	0.449993
N130	N	-0.459333	0.249716	0.949993
H131	H	-0.970017	-0.313789	0.432635
H132	H	-0.470017	0.186211	0.932635
H133	H	-0.893899	-0.239761	0.432644
H134	H	-0.393899	0.260239	0.932644
H135	H	-1.240802	0.454205	0.000128
H136	H	-0.740802	0.954205	0.500128
N137	N	-1.219770	0.001987	0.550216
N138	N	-0.719770	0.501987	1.050216
H139	H	-1.285233	-0.008457	0.567546
H140	H	-0.785233	0.491543	1.067546
H141	H	-1.209007	0.065466	0.567589
H142	H	-0.709007	0.565466	1.067589
N143	N	-0.959304	-0.250270	0.242842
N144	N	-0.459304	0.249730	0.742842
H145	H	-0.919624	-0.288717	0.289528
H146	H	-0.419624	0.211283	0.789528
H147	H	-0.994641	-0.289890	0.201479
H148	H	-0.494641	0.210110	0.701479
H149	H	-1.237504	0.623470	0.000114
H150	H	-0.737504	1.123470	0.500114
H151	H	-0.932692	0.585255	0.000090
H152	H	-0.432692	1.085255	0.500090
H153	H	-0.938303	0.297496	0.000073
H154	H	-0.438303	0.797496	0.500073
N155	N	-1.219802	0.001988	0.757358
N156	N	-0.719802	0.501988	1.257358
H157	H	-1.210303	-0.007219	0.828051
H158	H	-0.710303	0.492781	1.328051
H159	H	-1.209087	0.065467	0.739949
H160	H	-0.709087	0.565467	1.239949
