data_functionalizedCrystal
_audit_creation_method	'MofGen! by Chris Wilmer'
_symmetry_space_group_name_H-M	'P1'
_symmetry_Int_Tables_number	1
_symmetry_cell_setting	triclinic
loop_
_symmetry_equiv_pos_as_xyz
  x,y,z
_cell_length_a	19.188930
_cell_length_b	19.188924
_cell_length_c	13.448316
_cell_angle_alpha	89.991325
_cell_angle_beta	89.979356
_cell_angle_gamma	83.143372
loop_
_atom_site_label
_atom_site_type_symbol
_atom_site_fract_x
_atom_site_fract_y
_atom_site_fract_z
O1	O	0.926145	0.087170	-0.083016
O2	O	1.426145	0.587170	0.416984
O3	O	0.722833	0.098904	-0.082948
O4	O	1.222833	0.598904	0.417052
O5	O	0.830359	-0.008619	-0.082972
O6	O	1.330359	0.491381	0.417028
O7	O	0.818619	0.194693	-0.082992
O8	O	1.318619	0.694693	0.417008
O9	O	0.830345	-0.008626	0.082411
O10	O	1.330345	0.491374	0.582411
O11	O	0.722820	0.098897	0.082435
O12	O	1.222820	0.598897	0.582435
O13	O	0.926131	0.087163	0.082368
O14	O	1.426131	0.587163	0.582368
Cu15	Cu	0.824474	0.093030	0.097502
Cu16	Cu	1.324474	0.593030	0.597502
Cu17	Cu	0.824490	0.093037	-0.098083
Cu18	Cu	1.324490	0.593037	0.401917
O19	O	0.818606	0.194686	0.082392
O20	O	1.318606	0.694686	0.582392
C21	C	0.696815	0.098521	-0.000248
C22	C	1.196815	0.598521	0.499752
C23	C	0.619311	0.097380	-0.000222
C24	C	1.119311	0.597380	0.499778
C25	C	0.574386	0.160471	-0.000243
C26	C	1.074386	0.660471	0.499757
C27	C	0.501562	0.159399	-0.000254
C28	C	1.001562	0.659399	0.499746
C29	C	0.473667	0.095233	-0.000263
C30	C	0.973667	0.595233	0.499737
C31	C	0.518602	0.032134	-0.000236
C32	C	1.018602	0.532134	0.499764
C33	C	0.591424	0.033207	-0.000215
C34	C	1.091424	0.533207	0.499785
N35	N	0.365692	0.046188	-0.056586
N36	N	0.865692	0.546188	0.443414
N37	N	0.296514	0.045173	-0.056608
N38	N	0.796514	0.545173	0.443392
C39	C	0.254258	0.091995	-0.000324
C40	C	0.754258	0.591995	0.499676
N41	N	0.283793	0.139881	0.055971
N42	N	0.783793	0.639881	0.555971
N43	N	0.352978	0.140899	0.055988
N44	N	0.852978	0.640899	0.555988
C45	C	0.394704	0.094062	-0.000285
C46	C	0.894704	0.594062	0.499715
C47	C	0.130368	0.153928	-0.000356
C48	C	0.630368	0.653928	0.499644
C49	C	0.057543	0.152854	-0.000360
C50	C	0.557543	0.652854	0.499640
C51	C	0.074585	0.025586	-0.000352
C52	C	0.574585	0.525586	0.499648
C53	C	0.147409	0.026663	-0.000337
C54	C	0.647409	0.526663	0.499663
C55	C	0.175295	0.090835	-0.000344
C56	C	0.675295	0.590835	0.499656
C57	C	0.829973	-0.034634	-0.000279
C58	C	1.329973	0.465366	0.499721
C59	C	0.828834	-0.112138	-0.000276
C60	C	1.328834	0.387862	0.499724
C61	C	0.828310	-0.148534	-0.090427
C62	C	1.328310	0.351466	0.409573
C63	C	0.827230	-0.221356	-0.090434
C64	C	1.327230	0.278644	0.409566
C65	C	0.826688	-0.257783	-0.000286
C66	C	1.326688	0.242217	0.499714
C67	C	0.827208	-0.221378	0.089877
C68	C	1.327208	0.278622	0.589877
C69	C	0.828281	-0.148556	0.089882
C70	C	1.328281	0.351444	0.589882
N71	N	0.864730	-0.377449	0.066797
N72	N	1.364730	0.122551	0.566797
N73	N	0.863713	-0.446627	0.066787
N74	N	1.363713	0.053373	0.566787
C75	C	0.823454	-0.477192	-0.000294
C76	C	1.323454	0.022808	0.499706
N77	N	0.784260	-0.435967	-0.067379
N78	N	1.284260	0.064033	0.432621
N79	N	0.785281	-0.366782	-0.067372
N80	N	1.285281	0.133218	0.432628
C81	C	0.825524	-0.336746	-0.000281
C82	C	1.325524	0.163254	0.499719
C83	C	0.821758	-0.592550	-0.090459
C84	C	1.321758	-0.092550	0.409541
C85	C	0.820674	-0.665373	-0.090462
C86	C	1.320674	-0.165373	0.409538
C87	C	0.820659	-0.665395	0.089852
C88	C	1.320659	-0.165395	0.589852
C89	C	0.821736	-0.592572	0.089852
C90	C	1.321736	-0.092572	0.589852
C91	C	0.822289	-0.556154	-0.000306
C92	C	1.322289	-0.056154	0.499694
C93	C	0.952149	0.087546	-0.000335
C94	C	1.452149	0.587546	0.499665
C95	C	1.029654	0.088687	-0.000368
C96	C	1.529654	0.588687	0.499632
C97	C	0.818992	0.220700	-0.000303
C98	C	1.318992	0.720700	0.499697
C99	C	0.820131	0.298205	-0.000313
C100	C	1.320131	0.798205	0.499687
N101	N	0.824468	0.093024	0.235067
N102	N	1.324468	0.593024	0.735067
N103	N	0.824502	0.093038	-0.235647
N104	N	1.324502	0.593038	0.264353
C105	C	0.872095	0.045432	0.287097
C106	C	1.372095	0.545432	0.787097
C107	C	0.872100	0.045431	0.391200
C108	C	1.372100	0.545431	0.891200
C109	C	0.824480	0.093026	0.443271
C110	C	1.324480	0.593026	0.943271
C111	C	0.776848	0.140620	0.391234
C112	C	1.276848	0.640620	0.891234
C113	C	0.776841	0.140617	0.287133
C114	C	1.276841	0.640617	0.787133
C115	C	0.776867	0.140625	0.608214
C116	C	1.276867	0.640625	1.108214
C117	C	0.776875	0.140629	0.712323
C118	C	1.276875	0.640629	1.212323
C119	C	0.872126	0.045439	0.712281
C120	C	1.372126	0.545439	1.212281
C121	C	0.872119	0.045436	0.608180
C122	C	1.372119	0.545436	1.108180
C123	C	0.824488	0.093031	0.556150
C124	C	1.324488	0.593031	1.056150
H125	H	0.495885	-0.020111	-0.000257
H126	H	0.995885	0.479889	0.499743
N127	N	0.820095	-0.702604	0.181929
N128	N	1.320095	-0.202604	0.681929
N129	N	0.819132	-0.767622	0.181915
N130	N	1.319132	-0.267622	0.681915
H131	H	0.818730	-0.793905	0.246947
H132	H	1.318730	-0.293905	0.746947
N133	N	0.602858	0.226026	-0.000253
N134	N	1.102858	0.726026	0.499747
N135	N	0.562732	0.282354	-0.000273
N136	N	1.062732	0.782354	0.499727
H137	H	0.582842	0.328653	-0.000281
H138	H	1.082842	0.828653	0.499719
N139	N	0.920755	-0.003196	0.765438
N140	N	1.420755	0.496804	1.265438
N141	N	0.920740	-0.003206	0.858385
N142	N	1.420740	0.496794	1.358385
H143	H	0.955075	-0.037560	0.895932
H144	H	1.455075	0.462440	1.395932
H145	H	0.826799	-0.250995	-0.163848
H146	H	1.326799	0.249005	0.336152
N147	N	0.828876	-0.111327	-0.182511
N148	N	1.328876	0.388673	0.317489
N149	N	0.878681	-0.077276	-0.202638
N150	N	1.378681	0.422724	0.297362
H151	H	0.879081	-0.050997	-0.267672
H152	H	1.379081	0.449003	0.232328
N153	N	0.637319	-0.031242	-0.000178
N154	N	1.137319	0.468758	0.499822
N155	N	0.634867	-0.073968	0.069541
N156	N	1.134867	0.426032	0.569541
H157	H	0.667282	-0.119486	0.069568
H158	H	1.167282	0.380514	0.569568
H159	H	0.910875	0.006677	0.244707
H160	H	1.410875	0.506677	0.744707
N161	N	0.920751	-0.003190	0.444331
N162	N	1.420751	0.496810	0.944331
N163	N	0.963267	-0.045680	0.397827
N164	N	1.463267	0.454320	0.897827
H165	H	0.997629	-0.080023	0.435350
H166	H	1.497629	0.419977	0.935350
H167	H	0.822204	-0.562897	-0.163871
H168	H	1.322204	-0.062897	0.336129
H169	H	0.153075	0.206181	-0.000346
H170	H	0.653075	0.706181	0.499654
N171	N	0.455671	0.223854	-0.000271
N172	N	0.955671	0.723854	0.499729
N173	N	0.480579	0.281144	-0.000271
N174	N	0.980579	0.781144	0.499729
H175	H	0.448171	0.326667	-0.000283
H176	H	0.948171	0.826667	0.499717
H177	H	0.826765	-0.251041	0.163277
H178	H	1.326765	0.248959	0.663277
H179	H	0.828705	-0.118923	0.163295
H180	H	1.328705	0.381077	0.663295
N181	N	0.820160	-0.702551	-0.182559
N182	N	1.320160	-0.202551	0.317441
N183	N	0.868775	-0.749768	-0.202680
N184	N	1.368775	-0.249768	0.297320
H185	H	0.868417	-0.776025	-0.267727
H186	H	1.368417	-0.276025	0.232273
N187	N	0.920801	-0.003148	0.555003
N188	N	1.420801	0.496852	1.055003
N189	N	0.963346	-0.045619	0.601467
N190	N	1.463346	0.454381	1.101467
H191	H	0.997740	-0.079922	0.563912
H192	H	1.497740	0.420078	1.063912
H193	H	0.738097	0.179386	0.754714
H194	H	1.238097	0.679386	1.254714
H195	H	0.822169	-0.562939	0.163263
H196	H	1.322169	-0.062939	0.663263
N197	N	0.728206	0.189244	0.555081
N198	N	1.228206	0.689244	1.055081
N199	N	0.685693	0.231738	0.601582
N200	N	1.185693	0.731738	1.101582
H201	H	0.651329	0.266077	0.564057
H202	H	1.151329	0.766077	1.064057
H203	H	0.738057	0.179370	0.244771
H204	H	1.238057	0.679370	0.744771
N205	N	0.011660	0.217310	-0.000370
N206	N	0.511660	0.717310	0.499630
N207	N	0.036572	0.274598	-0.000373
N208	N	0.536572	0.774598	0.499627
H209	H	0.004167	0.320122	-0.000380
H210	H	0.504167	0.820122	0.499620
N211	N	0.046089	-0.039953	-0.000343
N212	N	0.546089	0.460047	0.499657
N213	N	-0.018931	-0.040904	-0.000352
N214	N	0.481069	0.459096	0.499648
H215	H	-0.039060	-0.087193	-0.000339
H216	H	0.460940	0.412807	0.499661
H217	H	0.183988	-0.024713	-0.000325
H218	H	0.683988	0.475287	0.499675
N219	N	0.728195	0.189227	0.444423
N220	N	1.228195	0.689227	0.944423
N221	N	0.684933	0.167178	0.502547
N222	N	1.184933	0.667178	1.002547
H223	H	0.650571	0.201507	0.540112
H224	H	1.150571	0.701507	1.040112
