data_functionalizedCrystal
_audit_creation_method	'MofGen! by Chris Wilmer'
_symmetry_space_group_name_H-M	'P1'
_symmetry_Int_Tables_number	1
_symmetry_cell_setting	triclinic
loop_
_symmetry_equiv_pos_as_xyz
  x,y,z
_cell_length_a	23.532355
_cell_length_b	23.532407
_cell_length_c	9.482900
_cell_angle_alpha	99.267072
_cell_angle_beta	80.777498
_cell_angle_gamma	82.838123
loop_
_atom_site_label
_atom_site_type_symbol
_atom_site_fract_x
_atom_site_fract_y
_atom_site_fract_z
O1	O	0.764193	0.060038	-0.120718
O2	O	0.598329	0.070068	-0.120768
O3	O	0.686259	-0.017876	-0.120701
O4	O	0.676262	0.147983	-0.120785
O5	O	0.668398	0.000059	0.121078
O6	O	0.580468	0.088003	0.121011
O7	O	0.746332	0.077973	0.121061
Cu8	Cu	0.661769	0.084626	0.143112
Cu9	Cu	0.682892	0.063416	-0.142819
O10	O	0.658401	0.165918	0.120993
C11	C	0.568182	0.078785	0.000116
C12	C	0.504965	0.078029	0.000098
C13	C	0.103210	0.083072	0.131955
C14	C	0.043810	0.082355	0.131961
O15	O	0.004812	0.090279	0.244045
N16	N	0.023838	0.072223	0.000168
C17	C	0.063270	0.062802	-0.131639
O18	O	0.040828	0.054117	-0.243739
C19	C	0.122669	0.063515	-0.131644
C20	C	0.142637	0.073653	0.000158
C21	C	0.123179	0.093209	0.263746
C22	C	0.182575	0.093927	0.263740
C23	C	0.222002	0.084508	0.131942
C24	C	0.202033	0.074371	0.000151
C25	C	0.162100	0.054089	-0.263450
C26	C	0.221503	0.054803	-0.263443
C27	C	0.241471	0.064941	-0.131641
C28	C	0.300855	0.065670	-0.131653
N29	N	0.320828	0.075802	0.000140
C30	C	0.281401	0.085221	0.131938
C31	C	-0.061473	0.061304	-0.131620
C32	C	-0.120872	0.060595	-0.131617
C33	C	-0.140327	0.080147	0.131984
C34	C	-0.080928	0.080861	0.131980
C35	C	-0.041501	0.071436	0.000173
C36	C	0.406137	0.086729	0.131914
C37	C	0.465538	0.087448	0.131896
C38	C	0.484989	0.067893	-0.131704
C39	C	0.425592	0.067176	-0.131687
C40	C	0.386167	0.076593	0.000134
O41	O	0.339888	0.057749	-0.243679
O42	O	0.303853	0.093897	0.244019
C43	C	0.677074	-0.030124	0.000196
C44	C	0.676306	-0.093340	0.000218
C45	C	0.621117	-0.359505	0.000110
C46	C	0.621828	-0.300104	0.000122
O47	O	0.578045	-0.263355	0.000063
N48	N	0.674103	-0.277485	0.000154
C49	C	0.725672	-0.314272	0.000161
O50	O	0.770202	-0.289578	0.000188
C51	C	0.724962	-0.373672	0.000139
C52	C	0.672682	-0.396286	0.000121
C53	C	0.568842	-0.382120	0.000091
C54	C	0.568131	-0.441516	0.000082
C55	C	0.619696	-0.478298	0.000093
C56	C	0.671971	-0.455683	0.000112
C57	C	0.776531	-0.410458	0.000135
C58	C	0.775816	-0.469862	0.000112
C59	C	0.723536	-0.492477	0.000094
C60	C	0.722826	-0.551861	0.000114
N61	N	0.670550	-0.574480	0.000082
C62	C	0.618986	-0.537699	0.000071
C63	C	0.727160	-0.189526	0.000204
C64	C	0.727871	-0.130126	0.000236
C65	C	0.624026	-0.115962	0.000194
C66	C	0.623316	-0.175363	0.000173
C67	C	0.674885	-0.212145	0.000171
C68	C	0.617497	-0.662436	0.000054
C69	C	0.616791	-0.721838	0.000052
C70	C	0.720635	-0.735997	0.000085
C71	C	0.721342	-0.676600	0.000096
C72	C	0.669768	-0.639821	0.000075
O73	O	0.766586	-0.588645	0.000168
O74	O	0.574465	-0.562402	0.000025
C75	C	0.776479	0.069256	0.000174
C76	C	0.839697	0.070011	0.000182
C77	C	0.667587	0.178165	0.000094
C78	C	0.668356	0.241380	0.000062
N79	N	0.646916	0.099543	0.344221
N80	N	0.697749	0.048494	-0.343928
C81	C	0.678507	0.067813	0.416444
C82	C	0.666154	0.080229	0.583852
H83	H	-0.172439	0.087816	0.239301
N84	N	0.618210	0.128390	0.666101
H85	H	0.626591	0.166796	0.639671
H86	H	0.579756	0.120157	0.639666
H87	H	0.574216	-0.740247	0.000044
N88	N	0.404058	0.056243	-0.273849
H89	H	0.384672	0.020198	-0.279704
H90	H	0.375048	0.090843	-0.279670
H91	H	0.733941	0.012131	0.593975
N92	N	0.598972	0.147701	0.426465
H93	H	0.596942	0.149743	0.534398
H94	H	0.607383	0.186079	0.399919
N95	N	-0.142403	0.049661	-0.273776
H96	H	-0.186015	0.050634	-0.253789
H97	H	-0.132590	0.080825	-0.331350
N98	N	-0.018956	0.051148	-0.273800
H99	H	0.001304	0.086316	-0.279702
H100	H	0.010906	0.015682	-0.279593
H101	H	0.481792	0.095706	0.239229
H102	H	0.253603	0.047129	-0.370778
N103	N	0.363621	0.096884	0.274090
H104	H	0.385345	0.103026	0.357562
H105	H	0.333964	0.132551	0.280253
N106	N	0.140575	0.043145	-0.405609
H107	H	0.111546	0.077715	-0.411535
H108	H	0.174605	0.037267	-0.489004
H109	H	0.198827	0.102179	0.371066
H110	H	0.769156	-0.219471	0.000213
N111	N	0.080660	0.103367	0.405911
H112	H	0.102385	0.109507	0.489383
H113	H	0.051006	0.139036	0.412072
N114	N	-0.059393	0.091796	0.274134
H115	H	-0.093388	0.097656	0.357621
H116	H	-0.030355	0.057210	0.279904
H117	H	0.763910	-0.658185	0.000131
N118	N	0.561866	-0.622778	0.000062
H119	H	0.553225	-0.591181	0.089700
H120	H	0.566490	-0.604493	-0.089614
N121	N	0.527518	0.057734	-0.273852
H122	H	0.568176	0.059725	-0.253845
H123	H	0.526205	0.018029	-0.331377
H124	H	0.525561	-0.459924	0.000055
H125	H	0.526850	-0.352177	0.000077
N126	N	0.726444	0.019653	0.334171
H127	H	0.764923	0.027826	0.360554
H128	H	0.718007	-0.018732	0.360628
N129	N	0.566929	-0.199752	0.000159
H130	H	0.534373	-0.167432	0.000162
H131	H	0.570989	-0.230725	-0.089481
H132	H	0.582039	-0.086003	0.000187
N133	N	0.784255	-0.105736	0.000286
H134	H	0.816810	-0.138055	0.000294
H135	H	0.793438	-0.088039	-0.089338
H136	H	0.819103	-0.392057	0.000148
N137	N	0.831436	-0.509537	0.000115
H138	H	0.860879	-0.508935	-0.089504
H139	H	0.847588	-0.495634	0.089811
N140	N	0.776249	-0.775673	0.000110
H141	H	0.767861	-0.816733	0.000097
H142	H	0.805668	-0.775026	-0.089512
