data_functionalizedCrystal
_audit_creation_method	'MofGen! by Chris Wilmer'
_symmetry_space_group_name_H-M	'P1'
_symmetry_Int_Tables_number	1
_symmetry_cell_setting	triclinic
loop_
_symmetry_equiv_pos_as_xyz
  x,y,z
_cell_length_a	23.532407
_cell_length_b	23.532407
_cell_length_c	9.730223
_cell_angle_alpha	89.987127
_cell_angle_beta	89.999391
_cell_angle_gamma	82.848747
loop_
_atom_site_label
_atom_site_type_symbol
_atom_site_fract_x
_atom_site_fract_y
_atom_site_fract_z
O1	O	0.755259	0.069135	-0.114228
O2	O	1.088592	0.402468	0.219105
O3	O	1.421925	0.735802	0.552438
O4	O	0.589395	0.079138	-0.114253
O5	O	0.922728	0.412472	0.219080
O6	O	1.256062	0.745805	0.552413
O7	O	0.677328	-0.008795	-0.114202
O8	O	1.010662	0.324538	0.219132
O9	O	1.343995	0.657872	0.552465
O10	O	0.667325	0.157068	-0.114280
O11	O	1.000659	0.490402	0.219053
O12	O	1.333992	0.823735	0.552387
O13	O	0.677323	-0.008797	0.114378
O14	O	1.010656	0.324536	0.447712
O15	O	1.343989	0.657869	0.781045
O16	O	0.589390	0.079136	0.114326
O17	O	0.922723	0.412469	0.447660
O18	O	1.256056	0.745803	0.780993
O19	O	0.755253	0.069133	0.114352
O20	O	1.088586	0.402466	0.447685
O21	O	1.421920	0.735799	0.781018
Zn22	Zn	0.672320	0.074134	0.150631
Zn23	Zn	1.005654	0.407467	0.483964
Zn24	Zn	1.338987	0.740801	0.817298
Zn25	Zn	0.672328	0.074137	-0.150533
Zn26	Zn	1.005661	0.407470	0.182801
Zn27	Zn	1.338994	0.740804	0.516134
O28	O	0.667320	0.157066	0.114300
O29	O	1.000653	0.490399	0.447633
O30	O	1.333986	0.823733	0.780966
C31	C	0.568176	0.078882	0.000034
C32	C	0.901510	0.412216	0.333367
C33	C	1.234843	0.745549	0.666701
C34	C	0.504959	0.078116	0.000026
C35	C	0.838293	0.411450	0.333359
C36	C	1.171626	0.744783	0.666693
C37	C	0.238792	0.022921	0.000090
C38	C	0.572125	0.356254	0.333423
C39	C	0.905458	0.689588	0.666756
C40	C	0.298192	0.023632	0.000089
C41	C	0.631525	0.356966	0.333422
C42	C	0.964859	0.690299	0.666756
O43	O	0.334937	-0.020153	0.000157
O44	O	0.668270	0.313180	0.333491
O45	O	1.001603	0.646513	0.666824
N46	N	0.320818	0.075909	0.000055
N47	N	0.654152	0.409242	0.333388
N48	N	0.987485	0.742575	0.666721
C49	C	0.284041	0.127477	0.000035
C50	C	0.617374	0.460810	0.333369
C51	C	0.950707	0.794144	0.666702
O52	O	0.308740	0.172007	0.000008
O53	O	0.642074	0.505341	0.333341
O54	O	0.975407	0.838674	0.666674
C55	C	0.224642	0.126765	0.000046
C56	C	0.557975	0.460098	0.333379
C57	C	0.891308	0.793432	0.666713
C58	C	0.202019	0.074485	0.000066
C59	C	0.535352	0.407819	0.333399
C60	C	0.868686	0.741152	0.666733
C61	C	0.216168	-0.029354	0.000111
C62	C	0.549502	0.303979	0.333445
C63	C	0.882835	0.637312	0.666778
C64	C	0.156772	-0.030066	0.000109
C65	C	0.490106	0.303268	0.333443
C66	C	0.823439	0.636601	0.666776
C67	C	0.119999	0.021499	0.000086
C68	C	0.453333	0.354832	0.333419
C69	C	0.786666	0.688165	0.666753
C70	C	0.142623	0.073774	0.000064
C71	C	0.475956	0.407107	0.333397
C72	C	0.809289	0.740441	0.666731
C73	C	0.187865	0.178333	0.000036
C74	C	0.521199	0.511666	0.333370
C75	C	0.854532	0.844999	0.666703
C76	C	0.128463	0.177616	0.000048
C77	C	0.461796	0.510949	0.333381
C78	C	0.795129	0.844283	0.666714
C79	C	0.105840	0.125336	0.000068
C80	C	0.439173	0.458670	0.333401
C81	C	0.772507	0.792003	0.666735
C82	C	0.046454	0.124627	0.000039
C83	C	0.379787	0.457960	0.333372
C84	C	0.713120	0.791294	0.666705
N85	N	0.023828	0.072351	0.000073
N86	N	0.357161	0.405684	0.333406
N87	N	0.690494	0.739017	0.666740
C88	C	0.060600	0.020787	0.000096
C89	C	0.393934	0.354120	0.333430
C90	C	0.727267	0.687453	0.666763
C91	C	0.408783	0.128968	0.000016
C92	C	0.742117	0.462302	0.333349
C93	C	1.075450	0.795635	0.666682
C94	C	0.468181	0.129681	-0.000005
C95	C	0.801515	0.463014	0.333329
C96	C	1.134848	0.796348	0.666662
C97	C	0.482328	0.025836	0.000051
C98	C	0.815662	0.359170	0.333385
C99	C	1.148995	0.692503	0.666718
C100	C	0.422929	0.025124	0.000062
C101	C	0.756263	0.358457	0.333395
C102	C	1.089596	0.691791	0.666729
C103	C	0.386157	0.076692	0.000050
C104	C	0.719490	0.410025	0.333383
C105	C	1.052824	0.743359	0.666716
C106	C	-0.064136	0.019297	0.000091
C107	C	0.269197	0.352630	0.333425
C108	C	0.602530	0.685964	0.666758
C109	C	-0.123538	0.018590	0.000084
C110	C	0.209795	0.351924	0.333417
C111	C	0.543128	0.685257	0.666750
C112	C	-0.137680	0.122435	0.000035
C113	C	0.195653	0.455768	0.333368
C114	C	0.528986	0.789101	0.666702
C115	C	-0.078284	0.123142	0.000035
C116	C	0.255050	0.456475	0.333368
C117	C	0.588383	0.789808	0.666702
C118	C	-0.041512	0.071568	0.000068
C119	C	0.291821	0.404901	0.333401
C120	C	0.625154	0.738235	0.666735
O121	O	0.009675	0.168390	-0.000024
O122	O	0.343008	0.501723	0.333309
O123	O	0.676341	0.835057	0.666643
O124	O	0.035892	-0.023737	0.000142
O125	O	0.369226	0.309597	0.333476
O126	O	0.702559	0.642930	0.666809
C127	C	0.677071	-0.030012	0.000095
C128	C	1.010404	0.303321	0.333429
C129	C	1.343738	0.636654	0.666762
C130	C	0.676305	-0.093229	0.000116
C131	C	1.009638	0.240104	0.333449
C132	C	1.342972	0.573437	0.666783
C133	C	0.621110	-0.359397	0.000022
C134	C	0.954443	-0.026063	0.333355
C135	C	1.287776	0.307270	0.666689
C136	C	0.621821	-0.299997	0.000033
C137	C	0.955154	0.033337	0.333366
C138	C	1.288488	0.366670	0.666699
O139	O	0.578035	-0.263252	-0.000018
O140	O	0.911368	0.070081	0.333316
O141	O	1.244702	0.403415	0.666649
N142	N	0.674097	-0.277370	0.000056
N143	N	1.007431	0.055963	0.333390
N144	N	1.340764	0.389296	0.666723
C145	C	0.725666	-0.314148	0.000056
C146	C	1.058999	0.019186	0.333389
C147	C	1.392332	0.352519	0.666722
O148	O	0.770196	-0.289448	0.000075
O149	O	1.103529	0.043885	0.333409
O150	O	1.436863	0.377219	0.666742
C151	C	0.724953	-0.373547	0.000035
C152	C	1.058287	-0.040214	0.333368
C153	C	1.391620	0.293120	0.666702
C154	C	0.672674	-0.396170	0.000025
C155	C	1.006007	-0.062836	0.333359
C156	C	1.339340	0.270497	0.666692
C157	C	0.568834	-0.382020	0.000011
C158	C	0.902167	-0.048687	0.333344
C159	C	1.235501	0.284647	0.666677
C160	C	0.568123	-0.441416	0.000002
C161	C	0.901456	-0.108083	0.333336
C162	C	1.234790	0.225250	0.666669
C163	C	0.619687	-0.478189	0.000006
C164	C	0.953021	-0.144856	0.333339
C165	C	1.286354	0.188478	0.666672
C166	C	0.671963	-0.455566	0.000017
C167	C	1.005296	-0.122232	0.333350
C168	C	1.338629	0.211101	0.666684
C169	C	0.776521	-0.410323	0.000024
C170	C	1.109854	-0.076990	0.333358
C171	C	1.443188	0.256343	0.666691
C172	C	0.775805	-0.469726	0.000003
C173	C	1.109138	-0.136392	0.333336
C174	C	1.442471	0.196941	0.666669
C175	C	0.723525	-0.492348	-0.000007
C176	C	1.056858	-0.159015	0.333326
C177	C	1.390192	0.174318	0.666660
C178	C	0.722816	-0.551735	0.000012
C179	C	1.056149	-0.218401	0.333346
C180	C	1.389482	0.114932	0.666679
N181	N	0.670539	-0.574361	-0.000012
N182	N	1.003873	-0.241028	0.333322
N183	N	1.337206	0.092306	0.666655
C184	C	0.618975	-0.537588	-0.000015
C185	C	0.952308	-0.204255	0.333319
C186	C	1.285642	0.129079	0.666652
C187	C	0.727157	-0.189405	0.000096
C188	C	1.060490	0.143928	0.333430
C189	C	1.393824	0.477261	0.666763
C190	C	0.727870	-0.130007	0.000127
C191	C	1.061203	0.203326	0.333460
C192	C	1.394536	0.536659	0.666793
C193	C	0.624025	-0.115860	0.000101
C194	C	0.957358	0.217473	0.333434
C195	C	1.290691	0.550807	0.666768
C196	C	0.623313	-0.175259	0.000081
C197	C	0.956646	0.158074	0.333414
C198	C	1.289979	0.491407	0.666747
C199	C	0.674881	-0.212031	0.000072
C200	C	1.008214	0.121302	0.333406
C201	C	1.341547	0.454635	0.666739
C202	C	0.617485	-0.662325	-0.000031
C203	C	0.950819	-0.328992	0.333303
C204	C	1.284152	0.004342	0.666636
C205	C	0.616779	-0.721727	-0.000033
C206	C	0.950112	-0.388394	0.333300
C207	C	1.283446	-0.055060	0.666634
C208	C	0.720623	-0.735869	-0.000015
C209	C	1.053957	-0.402536	0.333318
C210	C	1.387290	-0.069202	0.666652
C211	C	0.721330	-0.676472	-0.000005
C212	C	1.054664	-0.343139	0.333328
C213	C	1.387997	-0.009805	0.666661
C214	C	0.669757	-0.639701	-0.000018
C215	C	1.003090	-0.306368	0.333316
C216	C	1.336423	0.026966	0.666649
O217	O	0.766579	-0.588514	0.000057
O218	O	1.099912	-0.255181	0.333390
O219	O	1.433245	0.078153	0.666723
O220	O	0.574452	-0.562296	-0.000053
O221	O	0.907785	-0.228963	0.333281
O222	O	1.241119	0.104371	0.666614
C223	C	0.776472	0.069389	0.000061
C224	C	1.109805	0.402722	0.333395
C225	C	1.443138	0.736055	0.666728
C226	C	0.839689	0.070155	0.000060
C227	C	1.173022	0.403488	0.333394
C228	C	1.506355	0.736821	0.666727
C229	C	0.667577	0.178283	-0.000000
C230	C	1.000911	0.511617	0.333333
C231	C	1.334244	0.844950	0.666667
C232	C	0.668343	0.241500	-0.000030
C233	C	1.001676	0.574834	0.333304
C234	C	1.335010	0.908167	0.666637
N235	N	0.672319	0.074131	0.356167
N236	N	1.005653	0.407465	0.689501
N237	N	1.338986	0.740798	1.022834
N238	N	0.672333	0.074135	-0.356069
N239	N	1.005666	0.407468	-0.022736
N240	N	1.339000	0.740802	0.310597
C241	C	0.711269	0.035211	0.428116
C242	C	1.044603	0.368544	0.761450
C243	C	1.377936	0.701877	1.094783
C244	C	0.711275	0.035211	0.571999
C245	C	1.044608	0.368544	0.905333
C246	C	1.377942	0.701878	1.238666
C247	C	0.633379	0.113057	0.571972
C248	C	0.966712	0.446391	0.905305
C249	C	1.300046	0.779724	1.238638
C250	C	0.633371	0.113054	0.428091
C251	C	0.966705	0.446388	0.761425
C252	C	1.300038	0.779721	1.094758
H253	H	0.138359	-0.072637	0.000132
H254	H	0.471692	0.260696	0.333465
H255	H	0.805026	0.594030	0.666798
Cl256	Cl	0.584399	0.161984	0.337632
Cl257	Cl	0.917733	0.495317	0.670966
Cl258	Cl	1.251066	0.828651	1.004299
H259	H	0.246104	-0.071347	0.000135
H260	H	0.579437	0.261987	0.333468
H261	H	0.912770	0.595320	0.666802
Cl262	Cl	0.504001	-0.335801	0.000004
Cl263	Cl	0.837334	-0.002467	0.333338
Cl264	Cl	1.170668	0.330866	0.666671
H265	H	0.575489	-0.632392	-0.000041
H266	H	0.908823	-0.299059	0.333292
H267	H	1.242156	0.034275	0.666625
Cl268	Cl	0.551051	-0.750163	-0.000043
Cl269	Cl	0.884384	-0.416829	0.333290
Cl270	Cl	1.217718	-0.083496	0.666624
H271	H	-0.141954	-0.023984	0.000097
H272	H	0.191379	0.309349	0.333430
H273	H	0.524713	0.642683	0.666763
Cl274	Cl	0.760231	-0.013723	0.337704
Cl275	Cl	1.093564	0.319611	0.671037
Cl276	Cl	1.426897	0.652944	1.004370
H277	H	0.512280	-0.016150	0.000071
H278	H	0.845613	0.317183	0.333404
H279	H	1.178947	0.650516	0.666737
H280	H	0.742991	0.003518	0.630576
H281	H	1.076324	0.336851	0.963910
H282	H	1.409657	0.670184	1.297243
H283	H	0.582038	-0.085909	0.000099
H284	H	0.915372	0.247425	0.333433
H285	H	1.248705	0.580758	0.666766
H286	H	0.770441	-0.111594	0.000156
H287	H	1.103774	0.221740	0.333489
H288	H	1.437107	0.555073	0.666823
H289	H	0.601669	0.144748	0.630547
H290	H	0.935002	0.478082	0.963880
H291	H	1.268336	0.811415	1.297213
H292	H	-0.034204	-0.022699	0.000118
H293	H	0.299130	0.310634	0.333451
H294	H	0.632463	0.643967	0.666784
Cl295	Cl	0.791992	-0.235628	0.000103
Cl296	Cl	1.125325	0.097705	0.333437
Cl297	Cl	1.458659	0.431038	0.666770
Cl298	Cl	0.496613	0.195407	-0.000059
Cl299	Cl	0.829947	0.528740	0.333275
Cl300	Cl	1.163280	0.862073	0.666608
Cl301	Cl	0.394496	-0.040601	0.000094
Cl302	Cl	0.727829	0.292732	0.333428
Cl303	Cl	1.061163	0.626066	0.666761
H304	H	0.378846	0.170964	-0.000004
H305	H	0.712179	0.504297	0.333329
H306	H	1.045512	0.837630	0.666662
H307	H	0.206274	0.220904	0.000014
H308	H	0.539607	0.554238	0.333347
H309	H	0.872940	0.887571	0.666680
H310	H	0.098525	0.219610	0.000044
H311	H	0.431858	0.552943	0.333378
H312	H	0.765192	0.886277	0.666711
Cl313	Cl	-0.049843	0.188865	-0.000008
Cl314	Cl	0.283491	0.522199	0.333325
Cl315	Cl	0.616824	0.855532	0.666659
Cl316	Cl	0.840637	-0.515951	-0.000012
Cl317	Cl	1.173970	-0.182617	0.333321
Cl318	Cl	1.507304	0.150716	0.666655
H319	H	0.819093	-0.391915	0.000031
H320	H	1.152426	-0.058581	0.333365
H321	H	1.485759	0.274752	0.666698
Cl322	Cl	0.787054	-0.648031	0.000057
Cl323	Cl	1.120387	-0.314698	0.333390
Cl324	Cl	1.453721	0.018635	0.666724
H325	H	-0.167631	0.164417	0.000009
H326	H	0.165702	0.497750	0.333342
H327	H	0.499035	0.831084	0.666675
H328	H	0.525551	-0.459830	-0.000017
H329	H	0.858885	-0.126496	0.333316
H330	H	1.192218	0.206837	0.666649
H331	H	0.580742	-0.193674	0.000078
H332	H	0.914075	0.139659	0.333411
H333	H	1.247409	0.472993	0.666745
Cl334	Cl	0.785443	-0.782108	-0.000002
Cl335	Cl	1.118777	-0.448775	0.333332
Cl336	Cl	1.452110	-0.115442	0.666665
