data_functionalizedCrystal
_audit_creation_method	'MofGen! by Chris Wilmer'
_symmetry_space_group_name_H-M	'P1'
_symmetry_Int_Tables_number	1
_symmetry_cell_setting	triclinic
loop_
_symmetry_equiv_pos_as_xyz
  x,y,z
_cell_length_a	16.109301
_cell_length_b	15.538191
_cell_length_c	14.586319
_cell_angle_alpha	89.999456
_cell_angle_beta	89.999213
_cell_angle_gamma	65.366787
loop_
_atom_site_label
_atom_site_type_symbol
_atom_site_fract_x
_atom_site_fract_y
_atom_site_fract_z
O1	O	1.066616	0.121093	-0.076175
O2	O	0.820010	0.136163	-0.076189
O3	O	0.991317	-0.008516	-0.076184
O4	O	0.895309	0.265773	-0.076180
O5	O	0.991309	-0.008518	0.076297
O6	O	0.820002	0.136161	0.076292
O7	O	1.066608	0.121091	0.076306
Cu8	Cu	0.943304	0.128626	0.090221
Cu9	Cu	0.943314	0.128629	-0.090105
O10	O	0.895301	0.265770	0.076300
C11	C	0.789215	0.135552	0.000050
C12	C	0.697472	0.133722	0.000044
C13	C	1.001358	-0.043615	0.000054
C14	C	1.031279	-0.148198	0.000047
C15	C	0.450596	0.215316	0.000056
C16	C	0.364396	0.213589	0.000062
C17	C	0.436032	0.041932	0.000056
C18	C	0.522229	0.043660	0.000056
C19	C	0.529508	0.130355	0.000052
C20	C	0.357111	0.126900	0.000057
C21	C	0.263649	0.125027	0.000063
C22	C	0.622975	0.132228	0.000047
C23	C	0.734025	-0.435898	0.000050
C24	C	0.762161	-0.534172	0.000053
C25	C	0.920419	-0.556664	0.000062
C26	C	0.892297	-0.458389	0.000054
C27	C	0.799099	-0.398013	0.000049
C28	C	0.957370	-0.420505	0.000053
C29	C	0.929249	-0.322239	0.000049
C30	C	0.836055	-0.261857	0.000047
C31	C	0.770978	-0.299747	0.000046
C32	C	1.050568	-0.480882	0.000064
C33	C	1.115641	-0.442998	0.000063
C34	C	1.087520	-0.344730	0.000053
C35	C	0.994326	-0.284349	0.000051
C36	C	1.152598	-0.306840	0.000055
C37	C	1.124477	-0.208574	0.000052
C38	C	0.966206	-0.186083	0.000048
C39	C	1.097403	0.121703	0.000065
C40	C	1.189147	0.123533	0.000065
C41	C	0.885260	0.300870	0.000060
C42	C	0.855340	0.405453	0.000062
N43	N	0.943304	0.128624	0.217053
N44	N	0.943324	0.128624	-0.216937
C45	C	1.019171	0.064581	0.452062
C46	C	1.019174	0.064579	0.548043
C47	C	0.867450	0.192669	0.548048
C48	C	0.867445	0.192666	0.452069
C49	C	0.943310	0.128623	0.404078
C50	C	0.943318	0.128624	0.596039
C51	C	0.943320	0.128622	0.700106
C52	C	0.943307	0.128624	0.300004
H53	H	0.456517	0.285908	0.000059
H54	H	1.080946	0.012429	0.587109
N55	N	0.633508	-0.370755	0.000062
H56	H	0.618314	-0.329476	-0.056458
H57	H	0.596602	-0.409717	0.000100
N58	N	0.865684	-0.120956	0.000069
H59	H	0.857748	-0.052957	0.000077
H60	H	0.836026	-0.133206	-0.056452
H61	H	0.805683	0.244813	0.587132
N62	N	0.607345	-0.047987	0.000050
H63	H	0.644707	-0.051093	-0.056473
H64	H	0.644632	-0.051043	0.056614
N65	N	0.785615	0.261735	0.400306
H66	H	0.737558	0.302310	0.445270
H67	H	0.804865	0.303394	0.360474
H68	H	0.300146	0.282773	0.000067
H69	H	0.430094	-0.028652	0.000065
H70	H	0.996301	-0.605834	0.000070
N71	N	0.805721	-0.155869	0.000032
H72	H	0.736808	-0.123373	0.000028
H73	H	0.830073	-0.136686	0.056557
N74	N	0.670461	-0.234603	0.000037
H75	H	0.640754	-0.246778	-0.056489
H76	H	0.640823	-0.246808	0.056598
N77	N	0.691971	-0.575034	0.000056
H78	H	0.628666	-0.521873	0.000053
H79	H	0.700193	-0.615317	-0.056469
H80	H	1.191523	-0.492169	0.000071
N81	N	1.080897	-0.586869	0.000073
H82	H	1.056611	-0.606129	-0.056455
H83	H	1.149811	-0.619296	0.000117
H84	H	1.228479	-0.356012	0.000068
H85	H	1.177466	-0.177729	0.000052
N86	N	1.100991	-0.004491	0.400298
H87	H	1.149048	-0.045062	0.445264
H88	H	1.081734	-0.046151	0.360480
