data_functionalizedCrystal
_audit_creation_method	'MofGen! by Chris Wilmer'
_symmetry_space_group_name_H-M	'P1'
_symmetry_Int_Tables_number	1
_symmetry_cell_setting	triclinic
loop_
_symmetry_equiv_pos_as_xyz
  x,y,z
_cell_length_a	23.532407
_cell_length_b	15.944551
_cell_length_c	14.421503
_cell_angle_alpha	89.996660
_cell_angle_beta	90.002238
_cell_angle_gamma	83.173708
loop_
_atom_site_label
_atom_site_type_symbol
_atom_site_fract_x
_atom_site_fract_y
_atom_site_fract_z
O1	O	-0.755658	-0.101953	-0.076998
O2	O	-0.255658	0.398047	0.423002
O3	O	-0.589852	-0.116706	-0.077025
O4	O	-0.089852	0.383294	0.422975
O5	O	-0.677283	0.012983	-0.077003
O6	O	-0.177283	0.512983	0.422997
O7	O	-0.668227	-0.231642	-0.077021
O8	O	-0.168227	0.268358	0.422979
O9	O	-0.677268	0.012964	0.077221
O10	O	-0.177268	0.512964	0.577221
O11	O	-0.589837	-0.116726	0.077198
O12	O	-0.089837	0.383274	0.577198
O13	O	-0.755643	-0.101972	0.077225
O14	O	-0.255643	0.398028	0.577225
Cu15	Cu	-0.672739	-0.109351	0.091294
Cu16	Cu	-0.172739	0.390649	0.591294
Cu17	Cu	-0.672756	-0.109328	-0.091094
Cu18	Cu	-0.172756	0.390672	0.408906
O19	O	-0.668213	-0.231662	0.077203
O20	O	-0.168213	0.268338	0.577203
C21	C	-0.568627	-0.116340	0.000083
C22	C	-0.068627	0.383660	0.500083
C23	C	-0.505406	-0.115211	0.000073
C24	C	-0.005406	0.384789	0.500073
C25	C	-0.676899	0.044265	0.000109
C26	C	-0.176899	0.544265	0.500109
C27	C	-0.675772	0.137501	0.000110
C28	C	-0.175772	0.637501	0.500110
C29	C	-0.776868	-0.102338	0.000115
C30	C	-0.276868	0.397662	0.500115
C31	C	-0.840090	-0.103468	0.000119
C32	C	-0.340090	0.396532	0.500119
C33	C	-0.106572	-0.184874	0.000109
C34	C	0.393428	0.315126	0.500109
C35	C	-0.047168	-0.183824	0.000115
C36	C	0.452832	0.316176	0.500115
O37	O	-0.010674	-0.248403	0.000144
O38	O	0.489326	0.251597	0.500144
N39	N	-0.024243	-0.106724	0.000119
N40	N	0.475757	0.393276	0.500119
C41	C	-0.060726	-0.030668	0.000127
C42	C	0.439274	0.469332	0.500127
O43	O	-0.035772	0.035009	0.000132
O44	O	0.464228	0.535009	0.500132
C45	C	-0.120129	-0.031718	0.000128
C46	C	0.379871	0.468282	0.500128
C47	C	-0.143051	-0.108823	0.000114
C48	C	0.356949	0.391177	0.500114
C49	C	-0.129494	-0.261973	0.000097
C50	C	0.370506	0.238027	0.500097
C51	C	-0.188894	-0.263022	0.000089
C52	C	0.311106	0.236978	0.500089
C53	C	-0.225373	-0.186971	0.000094
C54	C	0.274627	0.313029	0.500094
C55	C	-0.202451	-0.109872	0.000107
C56	C	0.297549	0.390128	0.500107
C57	C	-0.156611	0.044337	0.000143
C58	C	0.343389	0.544337	0.500143
C59	C	-0.216018	0.043281	0.000144
C60	C	0.283982	0.543281	0.500144
C61	C	-0.238939	-0.033825	0.000131
C62	C	0.261061	0.466175	0.500131
C63	C	-0.298329	-0.034871	0.000105
C64	C	0.201671	0.465129	0.500105
N65	N	-0.321254	-0.111971	0.000100
N66	N	0.178746	0.388029	0.500100
C67	C	-0.284776	-0.188022	0.000095
C68	C	0.215224	0.311978	0.500095
C69	C	0.064025	-0.028468	0.000127
C70	C	0.564025	0.471532	0.500127
C71	C	0.123427	-0.027417	0.000119
C72	C	0.623427	0.472583	0.500119
C73	C	0.136981	-0.180574	0.000109
C74	C	0.636981	0.319426	0.500109
C75	C	0.077578	-0.181624	0.000110
C76	C	0.577578	0.318376	0.500110
C77	C	0.041100	-0.105569	0.000123
C78	C	0.541100	0.394431	0.500123
C79	C	-0.409521	-0.190219	0.000079
C80	C	0.090479	0.309781	0.500079
C81	C	-0.468927	-0.191261	0.000067
C82	C	0.031073	0.308739	0.500067
C83	C	-0.482476	-0.038104	0.000083
C84	C	0.017524	0.461896	0.500083
C85	C	-0.423075	-0.037062	0.000089
C86	C	0.076925	0.462938	0.500089
C87	C	-0.386599	-0.113126	0.000090
C88	C	0.113401	0.386874	0.500090
O89	O	-0.334859	0.029673	0.000080
O90	O	0.165141	0.529673	0.500080
O91	O	-0.309738	-0.253687	0.000103
O92	O	0.190262	0.246313	0.500103
C93	C	-0.668596	-0.262943	0.000089
C94	C	-0.168596	0.237057	0.500089
C95	C	-0.669723	-0.356179	0.000082
C96	C	-0.169723	0.143821	0.500082
N97	N	-0.672731	-0.109366	0.219575
N98	N	-0.172731	0.390634	0.719575
C99	C	-0.618885	0.351879	0.000087
C100	C	-0.118885	0.851879	0.500087
C101	C	-0.645294	0.413109	0.076133
C102	C	-0.145294	0.913109	0.576133
C103	C	-0.673733	0.308210	0.000102
C104	C	-0.173733	0.808210	0.500102
C105	C	-0.645322	0.413111	-0.075919
C106	C	-0.145322	0.913111	0.424081
C107	C	-0.671760	0.473106	0.000091
C108	C	-0.171760	0.973106	0.500091
C109	C	-0.700158	0.368212	0.076211
C110	C	-0.200158	0.868212	0.576211
C111	C	-0.700178	0.368208	-0.075910
C112	C	-0.200178	0.868208	0.424090
C113	C	-0.726627	0.429421	0.000155
C114	C	-0.226627	0.929421	0.500155
C115	C	-0.674869	0.213217	0.000109
C116	C	-0.174869	0.713217	0.500109
C117	C	-0.670629	0.568097	0.000090
C118	C	-0.170629	1.068097	0.500090
N119	N	-0.672769	-0.109306	-0.219375
N120	N	-0.172769	0.390694	0.280625
C121	C	-0.632296	-0.169308	0.469218
C122	C	-0.132296	0.330692	0.969218
C123	C	-0.683757	-0.185182	0.531028
C124	C	-0.183757	0.314818	1.031028
C125	C	-0.672745	-0.109346	0.408736
C126	C	-0.172745	0.390654	0.908736
C127	C	-0.621298	-0.093492	0.531020
C128	C	-0.121298	0.406508	1.031020
C129	C	-0.672754	-0.109328	0.591458
C130	C	-0.172754	0.390672	1.091458
C131	C	-0.724232	-0.125257	0.469185
C132	C	-0.224232	0.374743	0.969185
C133	C	-0.661739	-0.033535	0.469172
C134	C	-0.161739	0.466465	0.969172
C135	C	-0.713237	-0.049376	0.530954
C136	C	-0.213237	0.450624	1.030954
C137	C	-0.672739	-0.109358	0.303475
C138	C	-0.172739	0.390642	0.803475
C139	C	-0.672766	-0.109315	0.696717
C140	C	-0.172766	0.390685	1.196717
H141	H	-0.487586	-0.254052	0.000056
H142	H	0.012414	0.245948	0.500056
N143	N	-0.783792	0.471493	0.000222
N144	N	-0.283792	0.971493	0.500222
N145	N	-0.816901	0.460051	0.065574
N146	N	-0.316901	0.960051	0.565574
H147	H	-0.857274	0.489764	0.065625
H148	H	-0.357274	0.989764	0.565625
N149	N	-0.729261	0.343216	-0.156562
N150	N	-0.229261	0.843216	0.343438
N151	N	-0.710574	0.357344	-0.235464
N152	N	-0.210574	0.857344	0.264536
H153	H	-0.731110	0.339692	-0.292432
H154	H	-0.231110	0.839692	0.207568
H155	H	-0.622122	0.433001	-0.140214
H156	H	-0.122122	0.933001	0.359786
N157	N	-0.566717	-0.076679	0.565115
N158	N	-0.066717	0.423321	1.065115
N159	N	-0.538048	-0.129429	0.615828
N160	N	-0.038048	0.370571	1.115828
H161	H	-0.499500	-0.117562	0.639909
H162	H	0.000500	0.382438	1.139909
H163	H	-0.747484	0.001343	0.557891
H164	H	-0.247484	0.501343	1.057891
H165	H	-0.652405	0.030549	0.441981
H166	H	-0.152405	0.530549	0.941981
H167	H	-0.693074	-0.249286	0.558197
H168	H	-0.193074	0.250714	1.058197
N169	N	-0.372275	-0.267923	0.000085
N170	N	0.127725	0.232077	0.500085
N171	N	-0.392759	-0.336750	0.000075
N172	N	0.107241	0.163250	0.500075
H173	H	-0.366455	-0.391629	0.000075
H174	H	0.133545	0.108371	0.500075
H175	H	-0.767753	-0.138736	0.442138
H176	H	-0.267753	0.361264	0.942138
H177	H	-0.512187	0.023814	0.000083
H178	H	-0.012187	0.523814	0.500083
H179	H	-0.207551	-0.325809	0.000078
H180	H	0.292449	0.174191	0.500078
H181	H	-0.573358	0.318187	0.000156
H182	H	-0.073358	0.818187	0.500156
N183	N	0.054167	-0.260385	0.000125
N184	N	0.554167	0.239615	0.500125
N185	N	0.022540	-0.278069	0.065139
N186	N	0.522540	0.221931	0.565139
H187	H	0.006009	-0.333697	0.065154
H188	H	0.506009	0.166303	0.565154
N189	N	-0.092246	-0.339671	0.000098
N190	N	0.407754	0.160329	0.500098
N191	N	-0.112732	-0.408497	0.000090
N192	N	0.387268	0.091503	0.500090
H193	H	-0.086429	-0.463378	0.000085
H194	H	0.413571	0.036622	0.500085
H195	H	0.142084	0.035370	0.000116
H196	H	0.642084	0.535370	0.500116
N197	N	0.174257	-0.258252	0.000113
N198	N	0.674257	0.241748	0.500113
N199	N	0.227294	-0.257295	0.000124
N200	N	0.727294	0.242705	0.500124
H201	H	0.253622	-0.312151	0.000130
H202	H	0.753622	0.187849	0.500130
H203	H	-0.137960	0.107125	0.000154
H204	H	0.362040	0.607125	0.500154
N205	N	0.026774	0.049234	0.000136
N206	N	0.526774	0.549234	0.500136
N207	N	0.047256	0.118063	0.000141
N208	N	0.547256	0.618063	0.500141
H209	H	0.020950	0.172941	0.000150
H210	H	0.520950	0.672941	0.500150
N211	N	-0.253270	0.120980	0.000167
N212	N	0.246730	0.620980	0.500167
N213	N	-0.232791	0.189811	0.000183
N214	N	0.267209	0.689811	0.500183
H215	H	-0.259099	0.244687	0.000200
H216	H	0.240901	0.744687	0.500200
H217	H	-0.404412	0.025724	0.000087
H218	H	0.095588	0.525724	0.500087
H219	H	-0.622089	0.433014	0.140416
H220	H	-0.122089	0.933014	0.640416
H221	H	-0.723331	0.348409	0.140572
H222	H	-0.223331	0.848409	0.640572
H223	H	-0.598124	-0.220056	0.442111
H224	H	-0.098124	0.279944	0.942111
