data_functionalizedCrystal
_audit_creation_method	'MofGen! by Chris Wilmer'
_symmetry_space_group_name_H-M	'P1'
_symmetry_Int_Tables_number	1
_symmetry_cell_setting	triclinic
loop_
_symmetry_equiv_pos_as_xyz
  x,y,z
_cell_length_a	12.759401
_cell_length_b	15.299816
_cell_length_c	12.759393
_cell_angle_alpha	99.650111
_cell_angle_beta	89.982620
_cell_angle_gamma	80.350473
loop_
_atom_site_label
_atom_site_type_symbol
_atom_site_fract_x
_atom_site_fract_y
_atom_site_fract_z
Zn1	Zn	1.678530	-0.358995	-0.666396
Zn2	Zn	2.178530	0.141005	-0.166396
Zn3	Zn	1.708802	-0.509839	-0.521143
Zn4	Zn	2.208802	-0.009839	-0.021143
Zn5	Zn	1.502845	-0.359043	-0.490745
Zn6	Zn	2.002845	0.140957	0.009255
Zn7	Zn	1.533180	-0.509769	-0.696770
Zn8	Zn	2.033180	-0.009769	-0.196770
O9	O	1.605839	-0.434412	-0.593763
O10	O	2.105839	0.065588	-0.093763
O11	O	1.829569	-0.379014	-0.647137
O12	O	2.329569	0.120986	-0.147137
O13	O	1.681454	-0.489885	-0.370099
O14	O	2.181454	0.010115	0.129901
O15	O	1.500786	-0.232829	-0.488611
O16	O	2.000786	0.267171	0.011389
O17	O	1.851809	-0.489839	-0.540421
O18	O	2.351809	0.010161	-0.040421
O19	O	1.629861	-0.232794	-0.617661
O20	O	2.129861	0.267206	-0.117661
O21	O	1.530139	-0.379096	-0.347766
O22	O	2.030139	0.120904	0.152234
O23	O	1.359846	-0.379028	-0.518065
O24	O	1.859846	0.120972	-0.018065
O25	O	1.552488	-0.489719	-0.839752
O26	O	2.052488	0.010281	-0.339752
O27	O	1.382134	-0.489766	-0.669431
O28	O	1.882134	0.010234	-0.169431
O29	O	1.659276	-0.378947	-0.817436
O30	O	2.159276	0.121053	-0.317436
O31	O	1.710869	-0.636038	-0.569874
O32	O	2.210869	-0.136038	-0.069874
O33	O	1.581841	-0.635986	-0.698907
O34	O	2.081841	-0.135986	-0.198907
C35	C	1.332869	-0.434395	-0.593746
C36	C	1.832869	0.065605	-0.093746
C37	C	1.216095	-0.434410	-0.593768
C38	C	1.716095	0.065590	-0.093768
C39	C	1.172884	-0.492163	-0.672491
C40	C	1.672884	0.007837	-0.172491
C41	C	1.063162	-0.492175	-0.672505
C42	C	1.563162	0.007825	-0.172505
C43	C	1.039872	-0.376677	-0.515062
C44	C	1.539872	0.123323	-0.015062
C45	C	1.149591	-0.376661	-0.515053
C46	C	1.649591	0.123339	-0.015053
C47	C	1.186330	-0.558848	-0.763388
C48	C	1.686330	-0.058848	-0.263388
C49	C	1.076608	-0.558859	-0.763401
C50	C	1.576608	-0.058859	-0.263401
C51	C	1.652960	-0.668736	-0.641008
C52	C	2.152960	-0.168736	-0.141008
C53	C	1.673215	-0.768981	-0.661255
C54	C	2.173215	-0.268981	-0.161255
C55	C	1.461766	-1.051927	-0.449415
C56	C	1.961766	-0.551927	0.050585
C57	C	1.442731	-0.957742	-0.430395
C58	C	1.942731	-0.457742	0.069605
C59	C	1.500350	-0.910547	-0.488108
C60	C	2.000350	-0.410547	0.011892
C61	C	1.577008	-0.957547	-0.564845
C62	C	2.077008	-0.457547	-0.064845
C63	C	1.596040	-1.051741	-0.583873
C64	C	2.096040	-0.551741	-0.083873
C65	C	1.634624	-0.910361	-0.622565
C66	C	2.134624	-0.410361	-0.122565
C67	C	1.711282	-0.957361	-0.699302
C68	C	2.211282	-0.457361	-0.199302
C69	C	1.730310	-1.051546	-0.718326
C70	C	2.230310	-0.551546	-0.218326
C71	C	1.672691	-1.098741	-0.660613
C72	C	2.172691	-0.598741	-0.160613
C73	C	1.615592	-0.816167	-0.603538
C74	C	2.115592	-0.316167	-0.103538
C75	C	1.749866	-0.815981	-0.737995
C76	C	2.249866	-0.315981	-0.237995
C77	C	1.768901	-0.910166	-0.757015
C78	C	2.268901	-0.410166	-0.257015
C79	C	1.879876	-0.434429	-0.593782
C80	C	2.379876	0.065571	-0.093782
C81	C	1.996654	-0.434436	-0.593790
C82	C	2.496654	0.065564	-0.093790
C83	C	1.605889	-0.434320	-0.867778
C84	C	2.105889	0.065680	-0.367778
C85	C	1.605910	-0.434281	-0.984547
C86	C	2.105910	0.065719	-0.484547
C87	C	1.558563	-0.199172	-0.546357
C88	C	2.058563	0.300828	-0.046357
C89	C	1.538417	-0.098927	-0.526156
C90	C	2.038417	0.401073	-0.026156
C91	C	1.527147	-0.376582	-1.027784
C92	C	2.027147	0.123418	-0.527784
C93	C	1.527173	-0.376555	-1.137503
C94	C	2.027173	0.123445	-0.637503
C95	C	1.684736	-0.491928	-1.160739
C96	C	2.184736	0.008072	-0.660739
C97	C	1.684705	-0.491959	-1.051023
C98	C	2.184705	0.008041	-0.551023
C99	C	1.436182	-0.309970	-1.014369
C100	C	1.936182	0.190030	-0.514369
C101	C	1.436208	-0.309943	-1.124088
C102	C	1.936208	0.190057	-0.624088
C103	C	1.605837	-0.434438	-0.320801
C104	C	2.105837	0.065562	0.179199
C105	C	1.605968	-0.434223	-0.203982
C106	C	2.105968	0.065777	0.296018
H107	H	1.212386	-0.540220	-0.841037
H108	H	1.712386	-0.040220	-0.341037
N109	N	1.693214	-1.200330	-0.681117
N110	N	2.193214	-0.700330	-0.181117
H111	H	1.625721	-1.223055	-0.704952
H112	H	2.125721	-0.723055	-0.204952
H113	H	1.750546	-1.222881	-0.738465
H114	H	2.250546	-0.722881	-0.238465
N115	N	1.769649	-0.554201	-1.004394
N116	N	2.269649	-0.054201	-0.504394
H117	H	1.841911	-0.540202	-1.020665
H118	H	2.341911	-0.040202	-0.520665
H119	H	1.757580	-0.545444	-0.924816
H120	H	2.257580	-0.045444	-0.424816
H121	H	1.451988	-0.243631	-0.966972
H122	H	1.951988	0.256369	-0.466972
H123	H	1.792726	-1.089811	-0.780815
H124	H	2.292726	-0.589811	-0.280815
N125	N	1.479825	-0.808962	-0.467577
N126	N	1.979825	-0.308962	0.032423
H127	H	1.547317	-0.786240	-0.443729
H128	H	2.047317	-0.286240	0.056271
H129	H	1.455856	-0.786302	-0.535068
H130	H	1.955856	-0.286302	-0.035068
N131	N	1.360064	-0.907050	-0.347629
N132	N	1.860064	-0.407050	0.152371
H133	H	1.288309	-0.923486	-0.367198
H134	H	1.788309	-0.423486	0.132802
H135	H	1.379841	-0.923502	-0.275930
H136	H	1.879841	-0.423502	0.224070
N137	N	1.196211	-0.314370	-0.430155
N138	N	1.696211	0.185630	0.069845
H139	H	1.233345	-0.272619	-0.464524
H140	H	1.733345	0.227381	0.035476
H141	H	1.137384	-0.277848	-0.380314
H142	H	1.637384	0.222152	0.119686
H143	H	1.037589	-0.533927	-0.835724
H144	H	1.537589	-0.033927	-0.335724
H145	H	1.414856	-1.090362	-0.402438
H146	H	1.914856	-0.590362	0.097562
H147	H	1.358559	-0.328674	-0.988365
H148	H	1.858559	0.171326	-0.488365
H149	H	1.748888	-0.538887	-1.214876
H150	H	2.248888	-0.038887	-0.714876
N151	N	1.055756	-0.651351	-0.752983
N152	N	1.555756	-0.151351	-0.252983
H153	H	0.976609	-0.651396	-0.752990
H154	H	1.476609	-0.151396	-0.252990
H155	H	1.091336	-0.696686	-0.814794
H156	H	1.591336	-0.196686	-0.314794
N157	N	1.851581	-0.960862	-0.839779
N158	N	2.351581	-0.460862	-0.339779
H159	H	1.854890	-1.027690	-0.843070
H160	H	2.354890	-0.527690	-0.343070
H161	H	1.831857	-0.944363	-0.911468
H162	H	2.331857	-0.444363	-0.411468
H163	H	1.233698	-0.625164	-0.747480
H164	H	1.733698	-0.125164	-0.247480
N165	N	1.532924	-0.765488	-0.520766
N166	N	2.032924	-0.265488	-0.020766
H167	H	1.567752	-0.726413	-0.464220
H168	H	2.067752	-0.226413	0.035780
H169	H	1.476338	-0.726466	-0.555606
H170	H	1.976338	-0.226466	-0.055606
H171	H	1.443958	-0.240082	-1.139793
H172	H	1.943958	0.259918	-0.639793
H173	H	0.985711	-0.329659	-0.450976
H174	H	1.485711	0.170341	0.049024
H175	H	1.796783	-0.777556	-0.784992
H176	H	2.296783	-0.277556	-0.284992
H177	H	1.363945	-0.334945	-1.163157
H178	H	1.863945	0.165055	-0.663157
