data_functionalizedCrystal
_audit_creation_method	'MofGen! by Chris Wilmer'
_symmetry_space_group_name_H-M	'P1'
_symmetry_Int_Tables_number	1
_symmetry_cell_setting	triclinic
loop_
_symmetry_equiv_pos_as_xyz
  x,y,z
_cell_length_a	9.065218
_cell_length_b	17.699083
_cell_length_c	7.540329
_cell_angle_alpha	89.995522
_cell_angle_beta	89.996962
_cell_angle_gamma	84.149450
loop_
_atom_site_label
_atom_site_type_symbol
_atom_site_fract_x
_atom_site_fract_y
_atom_site_fract_z
O1	O	1.957110	0.110973	-0.147491
O2	O	1.527555	0.120075	-0.147494
O3	O	1.754468	0.005430	-0.147477
O4	O	1.730196	0.225619	-0.147508
O5	O	1.754455	0.005428	0.147488
O6	O	1.527542	0.120074	0.147471
O7	O	1.957096	0.110971	0.147474
Cu8	Cu	1.742318	0.115522	0.174405
Cu9	Cu	1.742334	0.115524	-0.174425
O10	O	1.730183	0.225617	0.147457
C11	C	1.472588	0.119200	-0.000012
C12	C	1.308822	0.116584	-0.000012
C13	C	1.753592	-0.022775	0.000006
C14	C	1.750983	-0.106813	0.000007
C15	C	1.884176	-0.154396	0.000010
C16	C	1.881716	-0.233358	-0.000006
C17	C	1.746060	-0.264737	-0.000012
C18	C	1.612857	-0.217149	-0.000021
C19	C	1.615319	-0.138188	-0.000018
C20	C	1.602925	-0.535589	-0.000035
C21	C	1.600474	-0.614556	-0.000033
C22	C	1.869322	-0.630760	-0.000023
C23	C	1.871784	-0.551799	-0.000020
C24	C	1.738581	-0.504217	-0.000038
C25	C	1.741251	-0.418597	-0.000025
C26	C	1.743390	-0.350355	-0.000013
C27	C	2.012064	0.111847	-0.000012
C28	C	2.175829	0.114463	-0.000023
C29	C	1.731059	0.253822	-0.000030
C30	C	1.733669	0.337860	-0.000042
N31	N	1.742317	0.115521	0.419754
N32	N	1.742346	0.115520	-0.419774
H33	H	1.994642	-0.128854	0.000026
H34	H	1.502404	-0.242703	-0.000037
O35	O	1.485839	-0.092041	-0.000255
C36	C	1.256855	-0.053989	-0.153141
C37	C	1.403424	-0.106305	-0.153059
H38	H	1.190196	-0.065492	-0.276688
H39	H	1.189966	-0.065528	-0.029786
H40	H	1.281953	0.007830	-0.153058
H41	H	1.378460	-0.168142	-0.153204
H42	H	1.470270	-0.094702	-0.276403
O43	O	2.011236	-0.279470	0.000088
C44	C	2.278167	-0.287210	0.000022
C45	C	2.131589	-0.234901	-0.000044
H46	H	2.375510	-0.251197	-0.000123
H47	H	2.283823	-0.324573	0.123491
H48	H	2.283672	-0.324594	-0.123394
H49	H	2.125985	-0.197470	0.123288
H50	H	2.125993	-0.197589	-0.123595
H51	H	1.490001	-0.640101	-0.000035
H52	H	1.982248	-0.526255	-0.000006
H53	H	1.494463	-0.496857	-0.000050
H54	H	1.977782	-0.669510	-0.000018
