data_functionalizedCrystal
_audit_creation_method	'MofGen! by Chris Wilmer'
_symmetry_space_group_name_H-M	'P1'
_symmetry_Int_Tables_number	1
_symmetry_cell_setting	triclinic
loop_
_symmetry_equiv_pos_as_xyz
  x,y,z
_cell_length_a	18.215407
_cell_length_b	12.759394
_cell_length_c	18.215399
_cell_angle_alpha	89.972315
_cell_angle_beta	89.983176
_cell_angle_gamma	90.015285
loop_
_atom_site_label
_atom_site_type_symbol
_atom_site_fract_x
_atom_site_fract_y
_atom_site_fract_z
Zn1	Zn	1.125101	-0.418240	-0.416130
Zn2	Zn	1.125038	-0.593945	-0.293069
Zn3	Zn	1.002041	-0.418281	-0.293077
Zn4	Zn	1.002022	-0.593879	-0.416094
O5	O	1.063550	-0.506086	-0.354592
O6	O	1.228077	-0.441557	-0.399817
O7	O	1.108703	-0.570688	-0.190086
O8	O	1.018399	-0.271255	-0.309418
O9	O	1.228031	-0.570647	-0.309405
O10	O	1.108812	-0.271224	-0.399825
O11	O	1.018338	-0.441629	-0.190092
O12	O	0.899054	-0.441565	-0.309384
O13	O	1.018367	-0.570535	-0.519083
O14	O	0.899040	-0.570575	-0.399764
O15	O	1.108793	-0.441494	-0.519109
O16	O	1.108685	-0.740957	-0.309370
O17	O	1.018305	-0.740909	-0.399756
C18	C	0.872344	-0.506068	-0.354571
C19	C	0.790545	-0.506086	-0.354580
C20	C	0.602363	-0.573367	-0.401582
C21	C	0.525505	-0.573370	-0.401591
C22	C	0.525489	-0.438824	-0.307619
C23	C	0.602347	-0.438816	-0.307614
C24	C	0.640782	-0.506094	-0.354594
C25	C	0.487066	-0.506105	-0.354608
C26	C	0.403732	-0.506108	-0.354618
C27	C	0.724121	-0.506090	-0.354586
C28	C	1.063506	-0.779054	-0.354575
C29	C	1.063555	-0.895830	-0.354592
C30	C	1.157738	-0.895827	-0.260543
C31	C	1.204848	-0.950687	-0.213528
C32	C	1.204891	-1.060408	-0.213548
C33	C	1.157820	-1.115273	-0.260590
C34	C	1.110710	-1.060414	-0.307605
C35	C	1.110670	-0.950690	-0.307579
C36	C	1.016532	-1.060417	-0.401656
C37	C	1.016484	-0.950695	-0.401634
C38	C	0.969461	-1.115281	-0.448698
C39	C	0.922345	-1.060422	-0.495711
C40	C	0.922303	-0.950694	-0.495689
C41	C	0.969373	-0.895836	-0.448649
C42	C	1.255503	-0.506105	-0.354614
C43	C	1.337302	-0.506113	-0.354623
C44	C	1.063585	-0.506002	-0.546545
C45	C	1.063600	-0.505966	-0.628344
C46	C	1.063615	-0.232053	-0.354626
C47	C	1.063642	-0.115276	-0.354641
C48	C	1.016586	-0.438720	-0.816542
C49	C	1.016599	-0.438699	-0.893401
C50	C	1.110702	-0.573087	-0.893384
C51	C	1.110685	-0.573113	-0.816527
C52	C	1.063628	-0.505923	-0.778108
C53	C	1.063658	-0.505877	-0.931824
C54	C	1.063672	-0.505854	-1.015158
C55	C	1.063613	-0.505947	-0.694769
C56	C	1.063558	-0.506094	-0.163386
C57	C	1.063686	-0.505834	-0.081588
H58	H	1.157698	-0.806486	-0.260513
F59	F	0.484620	-0.644970	-0.451602
H60	H	0.978292	-0.383976	-0.924691
H61	H	0.494186	-0.384051	-0.269369
F62	F	0.643237	-0.367205	-0.257605
F63	F	0.643266	-0.644967	-0.451584
F64	F	1.160781	-0.644590	-0.934279
F65	F	0.966503	-0.367214	-0.775656
H66	H	1.148993	-0.627842	-0.785233
F67	F	1.254945	-0.892289	-0.163468
H68	H	0.969339	-0.806495	-0.448621
F69	F	1.255035	-1.118795	-0.163513
F70	F	0.969264	-1.232056	-0.448475
F71	F	1.157625	-1.232048	-0.260365
H72	H	0.884027	-1.105102	-0.534013
H73	H	0.883943	-0.906033	-0.533977
