data_functionalizedCrystal
_audit_creation_method	'MofGen! by Chris Wilmer'
_symmetry_space_group_name_H-M	'P1'
_symmetry_Int_Tables_number	1
_symmetry_cell_setting	triclinic
loop_
_symmetry_equiv_pos_as_xyz
  x,y,z
_cell_length_a	17.639054
_cell_length_b	17.638516
_cell_length_c	17.640968
_cell_angle_alpha	87.860832
_cell_angle_beta	109.669605
_cell_angle_gamma	114.320343
loop_
_atom_site_label
_atom_site_type_symbol
_atom_site_fract_x
_atom_site_fract_y
_atom_site_fract_z
Zn1	Zn	1.372118	0.104669	0.703797
Zn2	Zn	1.872118	0.604669	1.203797
Zn3	Zn	1.316237	-0.061052	0.593766
Zn4	Zn	1.816237	0.438948	1.093766
Zn5	Zn	1.195110	0.037662	0.549299
Zn6	Zn	1.695110	0.537662	1.049299
Zn7	Zn	1.206330	-0.060984	0.703627
Zn8	Zn	1.706330	0.439016	1.203627
O9	O	1.272448	0.005074	0.637622
O10	O	1.772448	0.505074	1.137622
O11	O	1.484780	0.110699	0.707881
O12	O	1.984780	0.610699	1.207881
O13	O	1.272087	-0.076028	0.477232
O14	O	1.772087	0.423972	0.977232
O15	O	1.237281	0.157190	0.551255
O16	O	1.737281	0.657190	1.051255
O17	O	1.443725	-0.011055	0.627042
O18	O	1.943725	0.488945	1.127042
O19	O	1.367328	0.206419	0.664763
O20	O	1.867328	0.706419	1.164763
O21	O	1.183095	-0.003503	0.444563
O22	O	1.683095	0.496497	0.944563
O23	O	1.076523	-0.003437	0.551091
O24	O	1.576523	0.496563	1.051091
O25	O	1.256404	-0.010939	0.814285
O26	O	1.756404	0.489061	1.314285
O27	O	1.084766	-0.075912	0.664475
O28	O	1.584766	0.424088	1.164475
O29	O	1.378207	0.110766	0.814409
O30	O	1.878207	0.610766	1.314409
O31	O	1.282967	-0.171682	0.626878
O32	O	1.782967	0.328318	1.126878
O33	O	1.202218	-0.171631	0.707593
O34	O	1.702218	0.328369	1.207593
C35	C	1.049510	-0.046939	0.602940
C36	C	1.549510	0.453061	1.102940
C37	C	0.954138	-0.069204	0.588125
C38	C	1.454138	0.430796	1.088125
C39	C	1.237774	-0.200334	0.672063
C40	C	1.737774	0.299666	1.172063
C41	C	1.223025	-0.288183	0.686836
C42	C	1.723025	0.211817	1.186836
C43	C	0.798334	-0.163913	0.525068
C44	C	1.298334	0.336087	1.025068
C45	C	0.887953	-0.142984	0.538994
C46	C	1.387953	0.357016	1.038994
C47	C	0.930723	-0.016326	0.623353
C48	C	1.430723	0.483674	1.123353
C49	C	0.841105	-0.037247	0.609437
C50	C	1.341105	0.462753	1.109437
C51	C	0.774917	-0.111041	0.560293
C52	C	1.274917	0.388959	1.060293
C53	C	0.817689	0.015625	0.644663
C54	C	1.317689	0.515625	1.144663
C55	C	0.728079	-0.005292	0.630745
C56	C	1.228079	0.494708	1.130745
C57	C	0.661886	-0.079081	0.581601
C58	C	1.161886	0.420919	1.081601
C59	C	0.685307	-0.131958	0.546375
C60	C	1.185307	0.368042	1.046375
C61	C	0.883878	0.089422	0.693802
C62	C	1.383878	0.589422	1.193802
C63	C	0.860462	0.142294	0.729027
C64	C	1.360462	0.642294	1.229027
C65	C	0.770851	0.121374	0.715114
C66	C	1.270851	0.621374	1.215114
C67	C	0.704658	0.047585	0.665971
C68	C	1.204658	0.547585	1.165971
C69	C	0.747430	0.174251	0.750340
C70	C	1.247430	0.674251	1.250340
C71	C	0.657820	0.153334	0.736422
C72	C	1.157820	0.653334	1.236422
C73	C	0.615048	0.026668	0.652053
C74	C	1.115048	0.526668	1.152053
C75	C	1.385023	-0.576994	0.525536
C76	C	1.885023	-0.076994	1.025536
C77	C	1.371153	-0.659542	0.539428
C78	C	1.871153	-0.159542	1.039428
C79	C	1.286957	-0.659576	0.623382
C80	C	1.786957	-0.159576	1.123382
C81	C	1.300817	-0.577028	0.609494
C82	C	1.800817	-0.077028	1.109494
C83	C	1.349851	-0.535743	0.560571
C84	C	1.849851	-0.035743	1.060571
C85	C	1.265644	-0.535777	0.644529
C86	C	1.765644	-0.035777	1.144529
C87	C	1.279507	-0.453235	0.630645
C88	C	1.779507	0.046765	1.130645
C89	C	1.328542	-0.411943	0.581727
C90	C	1.828542	0.088057	1.081727
C91	C	1.363714	-0.453201	0.546688
C92	C	1.863714	0.046799	1.046688
C93	C	1.216615	-0.577061	0.693456
C94	C	1.716615	-0.077061	1.193456
C95	C	1.181443	-0.535810	0.728491
C96	C	1.681443	-0.035810	1.228491
C97	C	1.195300	-0.453268	0.714603
C98	C	1.695300	0.046732	1.214603
C99	C	1.244335	-0.411977	0.665684
C100	C	1.744335	0.088023	1.165684
C101	C	1.160128	-0.412011	0.749642
C102	C	1.660128	0.087989	1.249642
C103	C	1.173991	-0.329468	0.735759
C104	C	1.673991	0.170532	1.235759
C105	C	1.258197	-0.329434	0.651801
C106	C	1.758197	0.170566	1.151801
C107	C	1.496257	0.057289	0.672441
C108	C	1.996257	0.557289	1.172441
C109	C	1.591631	0.079540	0.687278
C110	C	2.091631	0.579540	1.187278
C111	C	1.324790	0.057395	0.843836
C112	C	1.824790	0.557395	1.343836
C113	C	1.347095	0.079692	0.931711
C114	C	1.847095	0.579692	1.431711
C115	C	1.307286	0.211294	0.603068
C116	C	1.807286	0.711294	1.103068
C117	C	1.322132	0.299172	0.588343
C118	C	1.822132	0.799172	1.088343
C119	C	1.220369	-0.046976	0.432209
C120	C	1.720369	0.453024	0.932209
C121	C	1.198268	-0.069010	0.344323
C122	C	1.698268	0.430990	0.844323
C123	C	1.103401	-0.163802	1.220407
C124	C	1.603401	0.336198	1.720407
C125	C	1.124380	-0.142837	1.302980
C126	C	1.624380	0.357163	1.802980
C127	C	1.251204	-0.016117	1.303099
C128	C	1.751204	0.483883	1.803099
C129	C	1.230233	-0.037070	1.220523
C130	C	1.730233	0.462930	1.720523
C131	C	1.156332	-0.110913	1.179183
C132	C	1.656332	0.389087	1.679183
C133	C	1.283163	0.015819	1.179300
C134	C	1.783163	0.515819	1.679300
C135	C	1.262197	-0.005134	1.096731
C136	C	1.762197	0.494866	1.596731
C137	C	1.188300	-0.078976	1.055387
C138	C	1.688300	0.421024	1.555387
C139	C	1.135365	-0.131867	1.096615
C140	C	1.635365	0.368133	1.596615
C141	C	1.357068	0.089660	1.220642
C142	C	1.857068	0.589660	1.720642
C143	C	1.409998	0.142548	1.179419
C144	C	1.909998	0.642548	1.679419
C145	C	1.389029	0.121598	1.096848
C146	C	1.889029	0.621598	1.596848
C147	C	1.315132	0.047757	1.055503
C148	C	1.815132	0.547757	1.555503
C149	C	1.441964	0.174489	1.055619
C150	C	1.941964	0.674489	1.555619
C151	C	1.420997	0.153536	0.973051
C152	C	1.920997	0.653536	1.473051
C153	C	1.294165	0.026803	0.972935
C154	C	1.794165	0.526803	1.472935
H155	H	0.561153	-0.033428	0.612043
H156	H	1.061153	0.466572	1.112043
H157	H	0.744439	-0.224009	0.485058
H158	H	1.244439	0.275991	0.985058
H159	H	1.399802	-0.693124	0.510898
H160	H	1.899802	-0.193124	1.010898
H161	H	1.403635	-0.419588	0.506843
H162	H	1.903635	0.080412	1.006843
H163	H	1.470171	0.202670	1.213090
H164	H	1.970171	0.702670	1.713090
H165	H	1.141522	-0.569435	0.768326
H166	H	1.641522	-0.069435	1.268326
H167	H	0.907012	-0.186045	0.510306
H168	H	1.407012	0.313955	1.010306
H169	H	0.588920	-0.096102	0.570256
H170	H	1.088920	0.403898	1.070256
H171	H	0.984624	0.043758	0.663364
H172	H	1.484624	0.543758	1.163364
H173	H	1.502139	0.234608	1.089292
H174	H	2.002139	0.734608	1.589292
H175	H	0.801332	0.234338	0.790346
H176	H	1.301332	0.734338	1.290346
H177	H	1.075170	-0.191984	1.062948
H178	H	1.575170	0.308016	1.562948
H179	H	1.247036	-0.693201	0.663217
H180	H	1.747036	-0.193201	1.163217
H181	H	1.464097	0.196604	0.939486
H182	H	1.964097	0.696604	1.439486
H183	H	1.081273	-0.185911	1.336541
H184	H	1.581273	0.314089	1.836541
H185	H	0.956843	0.106452	0.705129
H186	H	1.456843	0.606452	1.205129
H187	H	0.631412	-0.192054	0.506365
H188	H	1.131412	0.307946	1.006365
H189	H	1.043206	-0.223919	1.186739
H190	H	1.543206	0.276081	1.686739
H191	H	1.311376	0.044005	1.336770
H192	H	1.811376	0.544005	1.836770
H193	H	1.171233	-0.096037	0.988155
H194	H	1.671233	0.403963	1.488155
H195	H	0.914364	0.202379	0.769038
H196	H	1.414364	0.702379	1.269038
H197	H	0.638755	0.196390	0.765102
H198	H	1.138755	0.696390	1.265102
H199	H	1.374138	0.106716	1.287875
H200	H	1.874138	0.606716	1.787875
H201	H	1.205335	-0.644271	0.704762
H202	H	1.705335	-0.144271	1.204762
H203	H	1.298119	-0.295822	0.611956
H204	H	1.798119	0.204178	1.111956
H205	H	1.339830	-0.344730	0.570426
H206	H	1.839830	0.155270	1.070426
H207	H	1.120212	-0.445635	0.789481
H208	H	1.620212	0.054365	1.289481
H209	H	1.424945	-0.543381	0.485691
H210	H	1.924945	-0.043381	0.985691
H211	H	1.145351	-0.295881	0.764289
H212	H	1.645351	0.204119	1.264289
H213	H	1.233970	-0.033314	0.939267
H214	H	1.733970	0.466686	1.439267
