data_functionalizedCrystal
_audit_creation_method	'MofGen! by Chris Wilmer'
_symmetry_space_group_name_H-M	'P1'
_symmetry_Int_Tables_number	1
_symmetry_cell_setting	triclinic
loop_
_symmetry_equiv_pos_as_xyz
  x,y,z
_cell_length_a	12.594517
_cell_length_b	16.994726
_cell_length_c	12.594516
_cell_angle_alpha	89.914904
_cell_angle_beta	89.984147
_cell_angle_gamma	90.049982
loop_
_atom_site_label
_atom_site_type_symbol
_atom_site_fract_x
_atom_site_fract_y
_atom_site_fract_z
Zn1	Zn	1.627568	0.446040	0.423097
Zn2	Zn	1.627370	0.314148	0.601290
Zn3	Zn	1.449483	0.314149	0.423325
Zn4	Zn	1.449554	0.446009	0.601033
O5	O	1.538494	0.380086	0.512186
O6	O	1.776488	0.428557	0.446747
O7	O	1.603660	0.203766	0.577886
O8	O	1.473159	0.331658	0.274349
O9	O	1.776342	0.331656	0.577664
O10	O	1.603998	0.428558	0.274181
O11	O	1.472967	0.203767	0.447136
O12	O	1.300547	0.331627	0.446887
O13	O	1.473281	0.556395	0.577226
O14	O	1.300599	0.428505	0.577448
O15	O	1.604067	0.556418	0.446497
O16	O	1.603729	0.331626	0.750202
O17	O	1.473089	0.428504	0.750013
C18	C	1.261953	0.380063	0.512165
C19	C	1.143647	0.380072	0.512182
C20	C	1.538343	0.175146	0.512479
C21	C	1.538463	0.085824	0.512337
Zn22	Zn	1.449441	-0.185352	0.600492
Zn23	Zn	1.628030	-0.184750	0.423133
Zn24	Zn	1.627254	-0.053262	0.601340
Zn25	Zn	1.449945	-0.053089	0.422800
O26	O	1.538667	-0.119113	0.511941
O27	O	1.473245	-0.295653	0.576749
O28	O	1.776872	-0.167128	0.447267
O29	O	1.603131	-0.071108	0.750173
O30	O	1.604454	-0.295210	0.446444
O31	O	1.472492	-0.168154	0.749549
O32	O	1.776302	-0.070524	0.578195
O33	O	1.603619	0.057142	0.577872
O34	O	1.300933	-0.070814	0.445876
O35	O	1.473351	0.057269	0.446699
O36	O	1.300563	-0.167987	0.576426
O37	O	1.604943	-0.166960	0.274144
O38	O	1.474104	-0.070230	0.273899
C39	C	1.074335	0.327481	0.441072
C40	C	1.003511	0.308082	0.538188
C41	C	1.003673	0.399484	0.415114
C42	C	1.074381	0.360635	0.609348
C43	C	1.074549	0.452071	0.486208
C44	C	1.003757	0.432700	0.583391
C45	C	1.816115	0.380110	0.512209
C46	C	1.934420	0.380120	0.512218
C47	C	1.538424	0.380079	0.788727
C48	C	1.538492	0.380102	0.907033
C49	C	1.538709	0.585827	0.511803
C50	C	1.538809	0.675149	0.511647
C51	C	1.538593	0.380111	0.234566
C52	C	1.538635	0.380122	0.116260
C53	C	1.467429	0.432757	0.976222
C54	C	1.441447	0.360780	1.047187
C55	C	1.564571	0.452090	1.046867
C56	C	1.512458	0.308087	0.976440
C57	C	1.635627	0.399446	0.976113
C58	C	1.609682	0.327420	1.047046
C59	C	1.539713	-0.118477	0.235402
C60	C	1.540314	-0.118137	0.117098
C61	C	1.261048	-0.119448	0.511019
C62	C	1.142744	-0.119591	0.510627
C63	C	1.537727	-0.119761	0.789561
C64	C	1.537475	-0.120147	0.907865
C65	C	1.815206	-0.118824	0.512935
C66	C	1.933510	-0.118833	0.513625
C67	C	1.469564	-0.065297	0.047674
C68	C	1.567033	-0.045752	-0.022582
C69	C	1.443932	-0.137075	-0.023442
C70	C	1.637827	-0.098559	0.048400
C71	C	1.514660	-0.189916	0.047547
C72	C	1.612197	-0.170398	-0.022678
C73	C	1.073692	-0.066827	0.439405
C74	C	1.003082	-0.138826	0.413005
C75	C	1.002556	-0.047869	0.536313
C76	C	1.073692	-0.191625	0.484181
C77	C	1.073172	-0.100620	0.607534
C78	C	1.002594	-0.172668	0.581171
H79	H	1.105326	0.282952	0.380996
H80	H	1.492468	-0.250843	0.078386
Br81	Br	1.603980	0.055825	-0.073941
Br82	Br	0.951507	0.206633	0.574845
H83	H	1.361978	-0.153329	-0.054984
H84	H	1.105312	0.344169	0.691477
Br85	Br	1.125718	0.007643	0.339422
Br86	Br	1.774467	-0.071351	0.100743
H87	H	1.407227	0.477220	0.945126
Br88	Br	1.709952	0.253137	1.098549
Br89	Br	0.952425	0.506864	0.683755
Br90	Br	0.951747	-0.165772	0.275942
H91	H	1.104803	-0.252405	0.462070
H92	H	0.971578	-0.217453	0.641117
Br93	Br	0.950476	0.053408	0.572982
Br94	Br	1.304638	0.333512	1.099215
Br95	Br	1.124549	-0.073642	0.744563
Br96	Br	1.712790	-0.244474	-0.073853
H97	H	1.717687	0.415826	0.944874
Br98	Br	1.126592	0.553496	0.449510
H99	H	0.972557	0.415856	0.333020
H100	H	1.490364	0.247199	0.945629
H101	H	1.586570	0.512962	1.077806
Br102	Br	1.369201	0.008827	0.099176
