data_functionalizedCrystal
_audit_creation_method	'MofGen! by Chris Wilmer'
_symmetry_space_group_name_H-M	'P1'
_symmetry_Int_Tables_number	1
_symmetry_cell_setting	triclinic
loop_
_symmetry_equiv_pos_as_xyz
  x,y,z
_cell_length_a	17.019282
_cell_length_b	19.188925
_cell_length_c	16.098538
_cell_angle_alpha	92.713859
_cell_angle_beta	91.140572
_cell_angle_gamma	83.266030
loop_
_atom_site_label
_atom_site_type_symbol
_atom_site_fract_x
_atom_site_fract_y
_atom_site_fract_z
O1	O	1.046076	0.089163	0.005794
O2	O	1.379409	0.422497	0.339127
O3	O	1.712742	0.755830	0.672461
O4	O	0.817211	0.099776	-0.010627
O5	O	1.150544	0.433110	0.322706
O6	O	1.483878	0.766443	0.656039
O7	O	0.938250	-0.007153	-0.001938
O8	O	1.271583	0.326180	0.331395
O9	O	1.604917	0.659513	0.664729
O10	O	0.925037	0.196093	-0.002895
O11	O	1.258370	0.529427	0.330438
O12	O	1.591703	0.862760	0.663771
O13	O	0.931179	-0.000932	0.136067
O14	O	1.264513	0.332402	0.469401
O15	O	1.597846	0.665735	0.802734
O16	O	0.810141	0.105998	0.127378
O17	O	1.143474	0.439331	0.460711
O18	O	1.476807	0.772665	0.794045
O19	O	1.039005	0.095385	0.143799
O20	O	1.372339	0.428719	0.477133
O21	O	1.705672	0.762052	0.810466
Zn22	Zn	0.923450	0.101680	0.157500
Zn23	Zn	1.256784	0.435013	0.490833
Zn24	Zn	1.590117	0.768346	0.824167
Zn25	Zn	0.932766	0.093482	-0.024328
Zn26	Zn	1.266099	0.426815	0.309005
Zn27	Zn	1.599433	0.760149	0.642339
O28	O	0.917966	0.202315	0.135110
O29	O	1.251300	0.535648	0.468443
O30	O	1.584633	0.868982	0.801777
C31	C	0.784396	0.102364	0.056275
C32	C	1.117729	0.435697	0.389608
C33	C	1.451062	0.769030	0.722941
C34	C	0.697150	0.100796	0.050015
C35	C	1.030483	0.434129	0.383348
C36	C	1.363817	0.767462	0.716681
C37	C	0.652312	0.103449	0.122302
C38	C	0.985646	0.436782	0.455636
C39	C	1.318979	0.770115	0.788969
C40	C	0.570337	0.101964	0.116423
C41	C	0.903671	0.435297	0.449756
C42	C	1.237004	0.768631	0.783090
C43	C	0.533201	0.097831	0.038255
C44	C	0.866534	0.431165	0.371588
C45	C	1.199867	0.764498	0.704922
C46	C	0.578045	0.095176	-0.034038
C47	C	0.911378	0.428509	0.299295
C48	C	1.244711	0.761843	0.632629
C49	C	0.660019	0.096656	-0.028158
C50	C	0.993352	0.429989	0.305175
C51	C	1.326686	0.763322	0.638509
C52	C	0.285885	0.093190	0.016737
C53	C	0.619218	0.426523	0.350070
C54	C	0.952552	0.759857	0.683404
C55	C	0.203904	0.091713	0.010862
C56	C	0.537238	0.425046	0.344196
C57	C	0.870571	0.758379	0.677529
C58	C	0.196203	0.098499	0.161324
C59	C	0.529536	0.431833	0.494657
C60	C	0.862869	0.765166	0.827991
C61	C	0.278178	0.099983	0.167197
C62	C	0.611512	0.433316	0.500531
C63	C	0.944845	0.766650	0.833864
C64	C	0.323016	0.097324	0.094904
C65	C	0.656349	0.430657	0.428238
C66	C	0.989682	0.763990	0.761571
C67	C	0.449409	0.096316	0.032243
C68	C	0.782742	0.429649	0.365577
C69	C	1.116075	0.762983	0.698910
C70	C	0.406807	0.098834	0.100917
C71	C	0.740140	0.432167	0.434250
C72	C	1.073473	0.765501	0.767583
C73	C	0.934287	-0.030056	0.067033
C74	C	1.267621	0.303278	0.400367
C75	C	1.600954	0.636611	0.733700
C76	C	0.933005	-0.107567	0.066940
C77	C	1.266339	0.225767	0.400273
C78	C	1.599672	0.559100	0.733606
C79	C	0.995441	-0.669032	0.071399
C80	C	1.328775	-0.335699	0.404732
C81	C	1.662108	-0.002365	0.738065
C82	C	0.996653	-0.596203	0.071493
C83	C	1.329986	-0.262869	0.404826
C84	C	1.663319	0.070464	0.738160
C85	C	0.925631	-0.551616	0.066397
C86	C	1.258964	-0.218283	0.399730
C87	C	1.592298	0.115051	0.733064
C88	C	0.853391	-0.579864	0.061227
C89	C	1.186724	-0.246530	0.394561
C90	C	1.520058	0.086803	0.727894
C91	C	0.852181	-0.652691	0.061141
C92	C	1.185515	-0.319358	0.394475
C93	C	1.518848	0.013975	0.727808
N94	N	0.876621	-0.433305	0.015734
N95	N	1.209954	-0.099972	0.349068
N96	N	1.543287	0.233361	0.682401
N97	N	0.877775	-0.364122	0.015815
N98	N	1.211108	-0.030789	0.349148
N99	N	1.544441	0.302544	0.682481
C100	C	0.929271	-0.332189	0.066658
C101	C	1.262605	0.001144	0.399991
C102	C	1.595938	0.334478	0.733324
N103	N	0.979583	-0.372054	0.117408
N104	N	1.312916	-0.038721	0.450741
N105	N	1.646250	0.294613	0.784074
N106	N	0.978431	-0.441244	0.117324
N107	N	1.311764	-0.107910	0.450657
N108	N	1.645098	0.225423	0.783990
C109	C	0.926935	-0.472646	0.066490
C110	C	1.260268	-0.139312	0.399823
C111	C	1.593601	0.194021	0.733157
C112	C	1.002820	-0.224980	0.071935
C113	C	1.336153	0.108354	0.405269
C114	C	1.669486	0.441687	0.738602
C115	C	1.004028	-0.152148	0.072035
C116	C	1.337361	0.181185	0.405368
C117	C	1.670695	0.514518	0.738701
C118	C	0.860765	-0.135811	0.061760
C119	C	1.194098	0.197522	0.395094
C120	C	1.527431	0.530856	0.728427
C121	C	0.859558	-0.208641	0.061669
C122	C	1.192891	0.124693	0.395003
C123	C	1.526225	0.458026	0.728336
C124	C	0.930588	-0.253221	0.066753
C125	C	1.263921	0.080112	0.400086
C126	C	1.597255	0.413445	0.733420
C127	C	1.071821	0.092798	0.076896
C128	C	1.405154	0.426131	0.410229
C129	C	1.738487	0.759464	0.743562
C130	C	1.159067	0.094366	0.083150
C131	C	1.492400	0.427699	0.416483
C132	C	1.825733	0.761032	0.749817
C133	C	0.921929	0.225217	0.066137
C134	C	1.255262	0.558551	0.399470
C135	C	1.588595	0.891884	0.732803
C136	C	0.923211	0.302728	0.066225
C137	C	1.256545	0.636061	0.399558
C138	C	1.589878	0.969395	0.732892
N139	N	0.917098	0.107274	0.281593
N140	N	1.250432	0.440607	0.614926
N141	N	1.583765	0.773940	0.948260
N142	N	0.939124	0.087882	-0.148421
N143	N	1.272457	0.421216	0.184913
N144	N	1.605791	0.754549	0.518246
C145	C	0.968491	0.061905	0.328868
C146	C	1.301824	0.395238	0.662201
C147	C	1.635157	0.728571	0.995534
C148	C	0.964055	0.065825	0.415738
C149	C	1.297388	0.399158	0.749071
C150	C	1.630721	0.732491	1.082405
C151	C	0.908229	0.115117	0.455333
C152	C	1.241563	0.448451	0.788666
C153	C	1.574896	0.781784	1.121999
C154	C	0.856831	0.160489	0.408052
C155	C	1.190165	0.493822	0.741385
C156	C	1.523498	0.827155	1.074718
C157	C	0.861264	0.156565	0.321183
C158	C	1.194598	0.489898	0.654516
C159	C	1.527931	0.823231	0.987849
C160	C	0.892159	0.129330	0.717429
C161	C	1.225493	0.462663	1.050762
C162	C	1.558826	0.795996	1.384096
C163	C	0.887732	0.133252	0.804305
C164	C	1.221065	0.466585	1.137638
C165	C	1.554398	0.799918	1.470971
C166	C	0.994954	0.038586	0.811985
C167	C	1.328288	0.371920	1.145318
C168	C	1.661621	0.705253	1.478652
C169	C	0.999386	0.034670	0.725114
C170	C	1.332719	0.368003	1.058447
C171	C	1.666052	0.701336	1.391781
C172	C	0.947985	0.080038	0.677841
C173	C	1.281318	0.413371	1.011174
C174	C	1.614652	0.746705	1.344507
C175	C	0.903695	0.119127	0.544128
C176	C	1.237028	0.452460	0.877462
C177	C	1.570362	0.785794	1.210795
C178	C	0.952516	0.076025	0.589046
C179	C	1.285849	0.409358	0.922380
C180	C	1.619183	0.742691	1.255713
H181	H	0.159688	0.100663	0.220181
H182	H	0.493021	0.433996	0.553514
H183	H	0.826354	0.767330	0.886848
H184	H	1.062848	-0.129158	0.076253
H185	H	1.396182	0.204176	0.409586
H186	H	1.729515	0.537509	0.742920
H187	H	0.173670	0.088349	-0.052795
H188	H	0.507004	0.421683	0.280539
H189	H	0.840337	0.755016	0.613872
H190	H	0.802937	-0.099509	0.057618
H191	H	1.136270	0.233824	0.390951
H192	H	1.469604	0.567158	0.724285
H193	H	1.044843	-0.005469	0.692878
H194	H	1.378176	0.327865	1.026212
H195	H	1.711510	0.661198	1.359545
H196	H	0.850308	0.166272	0.678946
H197	H	1.183641	0.499605	1.012279
H198	H	1.516975	0.832939	1.345612
C199	C	1.080947	-0.274020	0.077538
C200	C	1.414280	0.059313	0.410871
C201	C	1.747614	0.392647	0.744204
H202	H	1.124139	-0.246767	0.080645
H203	H	1.457472	0.086566	0.413979
H204	H	1.790806	0.419899	0.747312
H205	H	1.085919	-0.304937	0.029591
H206	H	1.419252	0.028396	0.362924
H207	H	1.752586	0.361730	0.696258
H208	H	1.080986	-0.300602	0.125848
H209	H	1.414319	0.032731	0.459181
H210	H	1.747653	0.366065	0.792515
C211	C	0.709344	0.093739	-0.107672
C212	C	1.042677	0.427072	0.225662
C213	C	1.376010	0.760405	0.558995
H214	H	0.763484	0.095205	-0.092975
H215	H	1.096817	0.428538	0.240358
H216	H	1.430150	0.761871	0.573692
H217	H	0.691357	0.132777	-0.139991
H218	H	1.024690	0.466111	0.193342
H219	H	1.358024	0.799444	0.526675
H220	H	0.703629	0.051420	-0.139100
H221	H	1.036963	0.384754	0.194234
H222	H	1.370296	0.718087	0.527567
C223	C	0.335194	0.090273	-0.062782
C224	C	0.668528	0.423606	0.270551
C225	C	1.001861	0.756940	0.603884
H226	H	0.301333	0.087608	-0.110176
H227	H	0.634666	0.420942	0.223157
H228	H	0.968000	0.754275	0.556491
H229	H	0.373470	0.050033	-0.063179
H230	H	0.706804	0.383366	0.270154
H231	H	1.040137	0.716700	0.603488
H232	H	0.361193	0.131390	-0.064058
H233	H	0.694527	0.464724	0.269275
H234	H	1.027860	0.798057	0.602608
H235	H	0.811373	0.200622	0.440294
H236	H	1.144706	0.533955	0.773628
H237	H	1.478040	0.867288	1.106961
H238	H	0.997966	0.035888	0.556806
H239	H	1.331300	0.369221	0.890139
H240	H	1.664633	0.702555	1.223472
H241	H	0.437047	0.102195	0.164561
H242	H	0.770381	0.435529	0.497894
H243	H	1.103714	0.768862	0.831227
H244	H	0.419163	0.092951	-0.031401
H245	H	0.752496	0.426284	0.301932
H246	H	1.085830	0.759618	0.635265
H247	H	0.547802	0.091806	-0.097684
H248	H	0.881136	0.425140	0.235649
H249	H	1.214469	0.758473	0.568982
H250	H	0.795565	-0.543556	0.057080
H251	H	1.128898	-0.210223	0.390414
H252	H	1.462231	0.123110	0.723747
H253	H	1.053279	-0.705325	0.075543
H254	H	1.386613	-0.371992	0.408876
H255	H	1.719946	-0.038659	0.742209
H256	H	1.005902	0.028881	0.454229
H257	H	1.339235	0.362214	0.787562
H258	H	1.672569	0.695548	1.120896
C259	C	0.772726	-0.683757	0.055440
C260	C	1.106059	-0.350424	0.388774
C261	C	1.439392	-0.017090	0.722107
H262	H	0.730599	-0.646775	0.052414
H263	H	1.063932	-0.313442	0.385747
H264	H	1.397266	0.019892	0.719081
H265	H	0.766811	-0.709664	0.103315
H266	H	1.100144	-0.376331	0.436648
H267	H	1.433477	-0.042997	0.769981
H268	H	0.771744	-0.713992	0.007058
H269	H	1.105077	-0.380658	0.340391
H270	H	1.438410	-0.047325	0.673725
H271	H	1.055473	-0.573205	0.075706
H272	H	1.388806	-0.239872	0.409040
H273	H	1.722139	0.093462	0.742373
C274	C	0.780105	-0.239707	0.055965
C275	C	1.113438	0.093626	0.389299
C276	C	1.446772	0.426960	0.722632
H277	H	0.737979	-0.202725	0.052937
H278	H	1.071313	0.130609	0.386270
H279	H	1.404646	0.463942	0.719603
H280	H	0.774189	-0.265611	0.103842
H281	H	1.107522	0.067722	0.437175
H282	H	1.440856	0.401055	0.770508
H283	H	0.779122	-0.269944	0.007585
H284	H	1.112456	0.063389	0.340918
H285	H	1.445789	0.396723	0.674252
C286	C	0.842263	0.173325	0.587680
C287	C	1.175597	0.506658	0.921013
C288	C	1.508930	0.839991	1.254347
H289	H	0.812277	0.199777	0.547086
H290	H	1.145610	0.533110	0.880419
H291	H	1.478943	0.866443	1.213752
H292	H	0.868675	0.204003	0.623595
H293	H	1.202008	0.537336	0.956928
H294	H	1.535342	0.870669	1.290262
H295	H	0.807918	0.149616	0.619220
H296	H	1.141251	0.482950	0.952553
H297	H	1.474585	0.816283	1.285886
H298	H	1.013953	0.021768	0.296636
H299	H	1.347286	0.355101	0.629969
H300	H	1.680620	0.688435	0.963303
C301	C	1.051482	-0.011321	0.863986
C302	C	1.384816	0.322012	1.197320
C303	C	1.718149	0.655346	1.530653
H304	H	1.040845	-0.001931	0.921393
H305	H	1.374178	0.331403	1.254727
H306	H	1.707511	0.664736	1.588060
H307	H	1.104636	-0.004244	0.853498
H308	H	1.437969	0.329090	1.186831
H309	H	1.771302	0.662423	1.520164
H310	H	1.043828	-0.058586	0.849157
H311	H	1.377161	0.274748	1.182490
H312	H	1.710495	0.608081	1.515824
C313	C	0.826279	0.187439	0.847854
C314	C	1.159613	0.520772	1.181188
C315	C	1.492946	0.854105	1.514521
H316	H	0.796285	0.213882	0.807258
H317	H	1.129618	0.547216	1.140591
H318	H	1.462952	0.880549	1.473925
H319	H	0.852678	0.218126	0.883769
H320	H	1.186011	0.551460	1.217103
H321	H	1.519345	0.884793	1.550436
H322	H	0.791943	0.163721	0.879394
H323	H	1.125276	0.497054	1.212727
H324	H	1.458610	0.830387	1.546060
H325	H	0.819414	0.193508	0.282692
H326	H	1.152748	0.526842	0.616025
H327	H	1.486081	0.860175	0.949359
H328	H	0.533836	0.104113	0.175288
H329	H	0.867169	0.437446	0.508621
H330	H	1.200502	0.770780	0.841954
C331	C	0.693159	0.107996	0.208286
C332	C	1.026492	0.441329	0.541619
C333	C	1.359826	0.774662	0.874953
H334	H	0.748401	0.108504	0.201437
H335	H	1.081734	0.441837	0.534771
H336	H	1.415068	0.775170	0.868104
H337	H	0.684279	0.068471	0.238676
H338	H	1.017612	0.401805	0.572009
H339	H	1.350946	0.735138	0.905343
H340	H	0.672002	0.149828	0.237788
H341	H	1.005335	0.483162	0.571121
H342	H	1.338668	0.816495	0.904454
C343	C	0.319020	0.104546	0.253182
C344	C	0.652354	0.437879	0.586515
C345	C	0.985687	0.771212	0.919849
H346	H	0.280575	0.105914	0.295393
H347	H	0.613909	0.439247	0.628727
H348	H	0.947242	0.772581	0.962060
H349	H	0.344693	0.145945	0.258144
H350	H	0.678026	0.479278	0.591477
H351	H	1.011360	0.812611	0.924811
H352	H	0.356982	0.064589	0.259060
H353	H	0.690316	0.397923	0.592393
H354	H	1.023649	0.731256	0.925727
