data_functionalizedCrystal
_audit_creation_method	'MofGen! by Chris Wilmer'
_symmetry_space_group_name_H-M	'P1'
_symmetry_Int_Tables_number	1
_symmetry_cell_setting	triclinic
loop_
_symmetry_equiv_pos_as_xyz
  x,y,z
_cell_length_a	11.026607
_cell_length_b	11.792241
_cell_length_c	9.482900
_cell_angle_alpha	99.398500
_cell_angle_beta	78.636152
_cell_angle_gamma	96.389716
loop_
_atom_site_label
_atom_site_type_symbol
_atom_site_fract_x
_atom_site_fract_y
_atom_site_fract_z
O1	O	1.632118	0.461983	-0.120906
O2	O	1.278456	0.407791	-0.120907
O3	O	1.463868	0.271422	-0.120897
O4	O	1.446706	0.598353	-0.120917
O5	O	1.426207	0.299264	0.120894
O6	O	1.240795	0.435633	0.120883
O7	O	1.594458	0.489825	0.120884
Cu8	Cu	1.414188	0.465271	0.142961
Cu9	Cu	1.458726	0.432345	-0.142984
O10	O	1.409046	0.626195	0.120873
C11	C	1.214349	0.411715	-0.000012
C12	C	1.079439	0.381912	-0.000012
C13	C	1.006176	0.464202	-0.000018
C14	C	0.866739	0.433401	-0.000018
C15	C	1.443960	0.242838	-0.000002
C16	C	1.440733	0.116183	-0.000003
C17	C	1.434802	-0.115710	-0.000028
C18	C	1.438097	0.013331	-0.000014
C19	C	1.658565	0.485901	-0.000014
C20	C	1.793477	0.515703	-0.000024
C21	C	1.428955	0.654778	-0.000025
C22	C	1.432183	0.781432	-0.000033
N23	N	1.382871	0.488431	0.344079
N24	N	1.490052	0.409178	-0.344102
C25	C	1.449480	0.439169	0.416282
C26	C	1.423433	0.458448	0.583698
H27	H	0.833974	0.608964	-0.000020
C28	C	1.566648	0.221373	0.609139
C29	C	1.593044	0.332863	0.572230
H30	H	1.630217	0.174229	0.557531
H31	H	1.562565	0.224454	0.710668
H32	H	1.489266	0.189818	0.584225
H33	H	1.670422	0.364421	0.597155
H34	H	1.597140	0.329785	0.470679
H35	H	1.347114	0.514896	0.645818
H36	H	1.525786	0.382714	0.354159
C37	C	0.972077	0.219548	-0.124307
C38	C	1.024775	0.256017	-0.000011
H39	H	0.938340	0.141822	-0.124309
H40	H	0.908048	0.267179	-0.124297
H41	H	1.034112	0.224895	-0.208615
H42	H	0.962738	0.250679	0.084297
H43	H	1.088811	0.208373	-0.000008
C44	C	1.188393	0.596239	-0.000021
C45	C	1.060843	0.590095	-0.000022
H46	H	1.222138	0.673963	-0.000031
H47	H	1.201639	0.569180	0.084294
H48	H	1.227907	0.549755	-0.084342
H49	H	1.021328	0.636574	0.084305
H50	H	1.047587	0.617170	-0.084346
C51	C	0.759382	0.271031	-0.124313
C52	C	0.812081	0.307500	-0.000017
H53	H	0.725646	0.193305	-0.124315
H54	H	0.695353	0.318662	-0.124303
H55	H	0.821417	0.276378	-0.208621
H56	H	0.750043	0.302162	0.084291
H57	H	0.876116	0.259856	-0.000014
C58	C	1.273992	0.568990	0.577552
C59	C	1.279854	0.564640	0.427934
H60	H	1.210397	0.616045	0.629314
H61	H	1.256216	0.493306	0.602422
H62	H	1.351388	0.600588	0.602390
H63	H	1.202461	0.533033	0.403094
H64	H	1.297623	0.640338	0.403053
