data_functionalizedCrystal
_audit_creation_method	'MofGen! by Chris Wilmer'
_symmetry_space_group_name_H-M	'P1'
_symmetry_Int_Tables_number	1
_symmetry_cell_setting	triclinic
loop_
_symmetry_equiv_pos_as_xyz
  x,y,z
_cell_length_a	14.971482
_cell_length_b	17.019294
_cell_length_c	13.448316
_cell_angle_alpha	86.114424
_cell_angle_beta	89.993798
_cell_angle_gamma	83.503209
loop_
_atom_site_label
_atom_site_type_symbol
_atom_site_fract_x
_atom_site_fract_y
_atom_site_fract_z
O1	O	1.186694	0.102787	-0.091479
O2	O	1.686694	0.602787	0.408521
O3	O	0.926263	0.115101	-0.092538
O4	O	1.426263	0.615101	0.407462
O5	O	1.063743	-0.005882	-0.082171
O6	O	1.563743	0.494118	0.417829
O7	O	1.049214	0.223770	-0.101845
O8	O	1.549214	0.723770	0.398155
O9	O	1.063726	-0.005890	0.083213
O10	O	1.563726	0.494110	0.583213
O11	O	0.926246	0.115093	0.072847
O12	O	1.426246	0.615093	0.572847
O13	O	1.186677	0.102779	0.073906
O14	O	1.686677	0.602779	0.573906
Cu15	Cu	1.056460	0.108936	0.088477
Cu16	Cu	1.556460	0.608936	0.588477
Cu17	Cu	1.056480	0.108944	-0.107109
Cu18	Cu	1.556480	0.608944	0.392891
O19	O	1.049196	0.223763	0.063539
O20	O	1.549196	0.723763	0.563539
C21	C	0.892931	0.114547	-0.009799
C22	C	1.392931	0.614547	0.490201
C23	C	0.793638	0.112898	-0.009660
C24	C	1.293638	0.612898	0.490340
C25	C	0.746986	0.112117	0.080559
C26	C	1.246986	0.612117	0.580559
C27	C	0.653691	0.110556	0.080694
C28	C	1.153691	0.610556	0.580694
C29	C	0.607049	0.109780	-0.009391
C30	C	1.107049	0.609780	0.490609
C31	C	0.653708	0.110559	-0.099617
C32	C	1.153708	0.610559	0.400383
C33	C	0.747002	0.112115	-0.099750
C34	C	1.247002	0.612115	0.400250
C35	C	0.459254	0.107317	-0.099333
C36	C	0.959254	0.607317	0.400667
C37	C	0.365954	0.105763	-0.099200
C38	C	0.865954	0.605763	0.400800
C39	C	0.365943	0.105758	0.081111
C40	C	0.865943	0.605758	0.581111
C41	C	0.459237	0.107314	0.080978
C42	C	0.959237	0.607314	0.580978
C43	C	0.505889	0.108094	-0.009248
C44	C	1.005889	0.608094	0.490752
C45	C	1.063183	-0.035276	0.003037
C46	C	1.563183	0.464724	0.503037
C47	C	1.061530	-0.122848	0.010533
C48	C	1.561530	0.377152	0.510533
C49	C	1.060765	-0.163981	-0.076096
C50	C	1.560765	0.336019	0.423904
C51	C	1.059206	-0.246264	-0.069050
C52	C	1.559206	0.253736	0.430950
C53	C	1.058419	-0.287413	0.024626
C54	C	1.558419	0.212587	0.524626
C55	C	1.059181	-0.246274	0.111261
C56	C	1.559181	0.253726	0.611261
C57	C	1.060734	-0.163992	0.104214
C58	C	1.560734	0.336008	0.604214
C59	C	1.053724	-0.535851	0.050414
C60	C	1.553724	-0.035851	0.550414
C61	C	1.052174	-0.618139	0.057455
C62	C	1.552174	-0.118139	0.557455
C63	C	1.052198	-0.618123	-0.122857
C64	C	1.552198	-0.118123	0.377143
C65	C	1.053756	-0.535840	-0.129896
C66	C	1.553756	-0.035840	0.370104
C67	C	1.054513	-0.494708	-0.043261
C68	C	1.554513	0.005292	0.456739
C69	C	1.056828	-0.371519	0.031831
C70	C	1.556828	0.128481	0.531831
C71	C	1.056098	-0.410602	-0.050466
C72	C	1.556098	0.089398	0.449534
C73	C	1.220009	0.103333	-0.008835
C74	C	1.720009	0.603333	0.491165
C75	C	1.319302	0.104982	-0.008981
C76	C	1.819302	0.604982	0.491019
C77	C	1.049756	0.253156	-0.021671
C78	C	1.549756	0.753156	0.478329
C79	C	1.051409	0.340728	-0.029174
C80	C	1.551409	0.840728	0.470826
N81	N	1.056452	0.108929	0.226042
N82	N	1.556452	0.608929	0.726042
N83	N	1.056495	0.108945	-0.244674
N84	N	1.556495	0.608945	0.255326
C85	C	1.117347	0.055380	0.282671
C86	C	1.617347	0.555380	0.782671
C87	C	1.117352	0.055379	0.386774
C88	C	1.617352	0.555379	0.886774
C89	C	1.056467	0.108932	0.434246
C90	C	1.556467	0.608932	0.934246
C91	C	0.995565	0.162484	0.377610
C92	C	1.495565	0.662484	0.877610
C93	C	0.995556	0.162480	0.273509
C94	C	1.495556	0.662480	0.773509
C95	C	0.995590	0.162489	0.594589
C96	C	1.495590	0.662489	1.094589
C97	C	0.995600	0.162494	0.698698
C98	C	1.495600	0.662494	1.198698
C99	C	1.117386	0.055388	0.707855
C100	C	1.617386	0.555388	1.207855
C101	C	1.117377	0.055384	0.603754
C102	C	1.617377	0.555384	1.103754
C103	C	1.056477	0.108937	0.547124
C104	C	1.556477	0.608937	1.047124
H105	H	0.497236	0.107952	-0.172804
H106	H	0.997236	0.607952	0.327196
H107	H	0.784985	0.112752	-0.173216
H108	H	1.284985	0.612752	0.326784
H109	H	0.327981	0.105132	-0.172555
H110	H	0.827981	0.605132	0.327445
N111	N	0.603400	0.109715	-0.196777
N112	N	1.103400	0.609715	0.303223
H113	H	0.557377	0.157933	-0.204928
H114	H	1.057377	0.657933	0.295072
H115	H	0.647171	0.110414	-0.253894
H116	H	1.147171	0.610414	0.246106
N117	N	0.603370	0.109711	0.177999
N118	N	1.103370	0.609711	0.677999
H119	H	0.647152	0.109883	0.235095
H120	H	1.147152	0.609883	0.735095
H121	H	0.557773	0.158213	0.178072
H122	H	1.057773	0.658213	0.678072
H123	H	1.054398	-0.502342	-0.206177
H124	H	1.554398	-0.002342	0.293823
H125	H	1.166931	0.011774	0.244026
H126	H	1.666931	0.511774	0.744026
N127	N	0.797281	0.112954	0.177729
N128	N	1.297281	0.612954	0.677729
H129	H	0.843307	0.064738	0.185880
H130	H	1.343307	0.564738	0.685880
H131	H	0.828613	0.162494	0.177448
H132	H	1.328613	0.662494	0.677448
N133	N	1.061622	-0.119603	-0.177133
N134	N	1.561622	0.380397	0.322867
H135	H	1.060899	-0.158149	-0.230942
H136	H	1.560899	0.341851	0.269058
H137	H	1.006846	-0.079120	-0.184531
H138	H	1.506846	0.420880	0.315469
H139	H	0.945995	0.206095	0.548485
H140	H	1.445995	0.706095	1.048485
H141	H	1.051579	-0.651622	-0.193390
H142	H	1.551579	-0.151622	0.306610
H143	H	1.061344	-0.130501	0.174757
H144	H	1.561344	0.369499	0.674757
N145	N	1.051328	-0.662524	0.158496
N146	N	1.551328	-0.162524	0.658496
H147	H	1.052043	-0.623982	0.212311
H148	H	1.552043	-0.123982	0.712311
H149	H	0.995264	-0.690325	0.164796
H150	H	1.495264	-0.190325	0.664796
N151	N	0.929872	0.220232	0.212426
N152	N	1.429872	0.720232	0.712426
H153	H	0.891302	0.254159	0.258293
H154	H	1.391302	0.754159	0.758293
H155	H	0.964058	0.255156	0.166224
H156	H	1.464058	0.755156	0.666224
H157	H	1.058587	-0.279751	-0.139592
H158	H	1.558587	0.220249	0.360408
H159	H	1.166937	0.011775	0.432881
H160	H	1.666937	0.511775	0.932881
H161	H	1.056733	-0.377094	-0.126737
H162	H	1.556733	0.122906	0.373263
H163	H	1.166959	0.011781	0.565102
H164	H	1.666959	0.511781	1.065102
H165	H	0.497209	0.107951	0.154333
H166	H	0.997209	0.607951	0.654333
H167	H	1.056190	-0.405032	0.108102
H168	H	1.556190	0.094968	0.608102
N169	N	1.054553	-0.491494	0.143852
N170	N	1.554553	0.008506	0.643852
H171	H	1.053825	-0.530050	0.204262
H172	H	1.553825	-0.030050	0.704262
H173	H	1.110620	-0.463699	0.145396
H174	H	1.610620	0.036301	0.645396
N175	N	0.929920	0.220253	0.749888
N176	N	1.429920	0.720253	1.249888
H177	H	0.890368	0.190048	0.795684
H178	H	1.390368	0.690048	1.295684
H179	H	0.964112	0.255226	0.790010
H180	H	1.464112	0.755226	1.290010
H181	H	1.166973	0.011783	0.753968
H182	H	1.666973	0.511783	1.253968
H183	H	1.058535	-0.279783	0.187535
H184	H	1.558535	0.220217	0.687535
H185	H	0.327955	0.105124	0.154577
H186	H	0.827955	0.605124	0.654577
N187	N	0.929892	0.220239	0.428815
N188	N	1.429892	0.720239	0.928815
H189	H	0.964028	0.255219	0.468994
H190	H	1.464028	0.755219	0.968994
H191	H	0.891326	0.254108	0.377087
H192	H	1.391326	0.754108	0.877087
