data_functionalizedCrystal
_audit_creation_method	'MofGen! by Chris Wilmer'
_symmetry_space_group_name_H-M	'P1'
_symmetry_Int_Tables_number	1
_symmetry_cell_setting	triclinic
loop_
_symmetry_equiv_pos_as_xyz
  x,y,z
_cell_length_a	21.395362
_cell_length_b	18.101397
_cell_length_c	21.395355
_cell_angle_alpha	90.019934
_cell_angle_beta	90.043940
_cell_angle_gamma	90.036343
loop_
_atom_site_label
_atom_site_type_symbol
_atom_site_fract_x
_atom_site_fract_y
_atom_site_fract_z
Zn1	Zn	0.957904	-0.294601	0.354579
Zn2	Zn	0.957825	-0.418425	0.249799
Zn3	Zn	0.853119	-0.294636	0.249781
Zn4	Zn	0.853107	-0.418440	0.354504
O5	O	0.905489	-0.356526	0.302166
O6	O	1.045572	-0.311006	0.340720
O7	O	0.943908	-0.402012	0.162119
O8	O	0.867057	-0.190998	0.263706
O9	O	1.045514	-0.401979	0.263738
O10	O	0.944042	-0.190973	0.340701
O11	O	0.866981	-0.311065	0.162105
O12	O	0.765439	-0.311080	0.263633
O13	O	0.867036	-0.402005	0.442192
O14	O	0.765431	-0.402038	0.340573
O15	O	0.944030	-0.311021	0.442247
O16	O	0.943896	-0.522060	0.263665
O17	O	0.866960	-0.522071	0.340591
C18	C	0.742701	-0.356565	0.302093
C19	C	0.673060	-0.356599	0.302077
C20	C	0.905435	-0.548936	0.302136
C21	C	0.905470	-0.631250	0.302144
C22	C	0.640359	-0.404024	0.342080
C23	C	0.574923	-0.404006	0.342107
C24	C	0.542192	-0.356571	0.302122
C25	C	0.574901	-0.309137	0.262116
C26	C	0.640335	-0.309151	0.262094
C27	C	0.438466	-0.350605	0.245717
C28	C	0.373033	-0.350596	0.245738
C29	C	0.340371	-0.356522	0.302191
C30	C	0.373150	-0.362474	0.358624
C31	C	0.438584	-0.362488	0.358602
C32	C	0.471239	-0.356550	0.302142
C33	C	0.236717	-0.403930	0.342227
C34	C	0.171280	-0.403907	0.342256
C35	C	0.171259	-0.309042	0.262259
C36	C	0.236695	-0.309061	0.262236
C37	C	0.269420	-0.356509	0.302219
C38	C	0.905550	-0.930341	0.302201
C39	C	0.953821	-0.898978	0.253671
C40	C	0.953988	-0.813359	0.253797
C41	C	0.905510	-0.781959	0.302172
C42	C	0.923415	-0.812974	0.368221
C43	C	0.923789	-0.898619	0.367956
C44	C	0.839245	-0.898868	0.285253
C45	C	0.839572	-0.813218	0.283779
C46	C	0.905486	-0.698099	0.302159
C47	C	0.905575	-1.014201	0.302217
C48	C	1.068912	-0.356487	0.302239
C49	C	1.138553	-0.356470	0.302271
C50	C	0.905541	-0.356511	0.465589
C51	C	0.905563	-0.356504	0.535231
C52	C	0.905560	-0.163364	0.302210
C53	C	0.905590	-0.081050	0.302229
C54	C	0.905473	-0.356487	0.139378
C55	C	0.905572	-0.356285	0.069737
C56	C	0.945652	-0.309127	0.567974
C57	C	0.945651	-0.309095	0.633409
C58	C	0.905568	-0.356454	0.666099
C59	C	0.865471	-0.403834	0.633348
C60	C	0.865469	-0.403859	0.567914
C61	C	0.900602	-0.423137	0.769761
C62	C	0.900609	-0.423113	0.835194
C63	C	0.905572	-0.356375	0.867920
C64	C	0.910541	-0.289660	0.835204
C65	C	0.910539	-0.289685	0.769770
C66	C	0.905566	-0.356431	0.737051
C67	C	0.945662	-0.308960	0.971615
C68	C	0.945657	-0.308927	1.037052
C69	C	0.865480	-0.403672	1.036990
C70	C	0.865482	-0.403699	0.971555
C71	C	0.905576	-0.356344	0.938871
H72	H	0.666999	-0.442659	0.374638
H73	H	0.465270	-0.367332	0.404552
H74	H	0.548292	-0.442624	0.374685
H75	H	0.978306	-0.270396	0.945003
H76	H	0.144656	-0.442524	0.374835
C77	C	0.821383	-0.455821	0.935536
N78	N	0.788164	-0.495081	0.908407
H79	H	0.832837	-0.442225	1.063605
C80	C	1.020341	-0.785584	0.268944
N81	N	1.070322	-0.764665	0.280352
H82	H	0.263363	-0.442561	0.374787
H83	H	0.896566	-0.477436	0.861826
C84	C	0.135258	-0.256861	0.218274
N85	N	0.108139	-0.217557	0.185145
C86	C	0.272668	-0.256896	0.218223
N87	N	0.299762	-0.217602	0.185072
C88	C	0.989759	-0.256804	1.073069
N89	N	1.022979	-0.217544	1.100198
C90	C	0.878361	-0.926648	0.418478
N91	N	0.844150	-0.947756	0.456535
H92	H	0.889332	-0.792635	0.405352
H93	H	0.548247	-0.270513	0.229561
H94	H	0.896393	-0.477468	0.743122
H95	H	0.832820	-0.442439	0.541255
H96	H	0.666960	-0.270530	0.229519
C97	C	0.790656	-0.926276	0.333001
N98	N	0.754063	-0.946924	0.368967
C99	C	0.337226	-0.368991	0.420728
N100	N	0.310166	-0.373900	0.467503
C101	C	0.336983	-0.344044	0.183661
N102	N	0.309831	-0.339105	0.136903
C103	C	0.989749	-0.257025	0.532026
N104	N	1.022960	-0.217778	0.504949
H105	H	0.832833	-0.442392	0.659968
H106	H	0.465054	-0.345775	0.199743
H107	H	0.914583	-0.235316	0.861848
C108	C	0.988161	-0.783910	0.387937
N109	N	1.036930	-0.762020	0.402783
H110	H	0.942785	-0.792391	0.204823
H111	H	0.942753	-0.919614	0.204551
C112	C	0.821326	-0.785832	0.218117
N113	N	0.807584	-0.765197	0.168662
H114	H	0.972255	-0.918525	0.382310
C115	C	1.019809	-0.927975	0.268638
N116	N	1.069510	-0.949823	0.279909
C117	C	0.788368	-0.784353	0.328030
N118	N	0.749802	-0.762613	0.361366
C119	C	0.989758	-0.256979	0.669433
N120	N	1.022981	-0.217727	0.696565
H121	H	0.822957	-0.920524	0.237924
C122	C	0.915996	-0.216299	0.733785
N123	N	0.920102	-0.161023	0.706682
