data_functionalizedCrystal
_audit_creation_method	'MofGen! by Chris Wilmer'
_symmetry_space_group_name_H-M	'P1'
_symmetry_Int_Tables_number	1
_symmetry_cell_setting	triclinic
loop_
_symmetry_equiv_pos_as_xyz
  x,y,z
_cell_length_a	16.959455
_cell_length_b	16.959454
_cell_length_c	19.805399
_cell_angle_alpha	90.022387
_cell_angle_beta	90.019903
_cell_angle_gamma	90.019023
loop_
_atom_site_label
_atom_site_type_symbol
_atom_site_fract_x
_atom_site_fract_y
_atom_site_fract_z
Zn1	Zn	1.208409	-0.314722	0.382750
Zn2	Zn	1.208324	-0.446904	0.269572
Zn3	Zn	1.076230	-0.314741	0.269574
Zn4	Zn	1.076202	-0.446860	0.382718
O5	O	1.142291	-0.380807	0.326154
O6	O	1.319008	-0.332267	0.367749
O7	O	1.190777	-0.429399	0.174856
O8	O	1.093811	-0.204128	0.284601
O9	O	1.318946	-0.429381	0.284598
O10	O	1.190922	-0.204114	0.367751
O11	O	1.093728	-0.332300	0.174857
O12	O	0.965615	-0.332257	0.284570
O13	O	1.093763	-0.429305	0.477439
O14	O	0.965595	-0.429324	0.367697
O15	O	1.190895	-0.332224	0.477462
O16	O	1.190750	-0.557509	0.284567
O17	O	1.093681	-0.557477	0.367695
C18	C	0.936925	-0.380788	0.326131
C19	C	0.849068	-0.380799	0.326137
C20	C	0.807781	-0.330189	0.282926
C21	C	0.807801	-0.431415	0.369358
C22	C	0.725255	-0.431424	0.369368
C23	C	0.683969	-0.380814	0.326157
C24	C	0.725228	-0.330194	0.282936
C25	C	0.683990	-0.482037	0.412592
C26	C	0.601439	-0.482048	0.412605
C27	C	0.560151	-0.431441	0.369390
C28	C	0.601415	-0.380820	0.326167
C29	C	0.560128	-0.330209	0.282956
C30	C	0.601391	-0.279592	0.239729
C31	C	0.683940	-0.279587	0.239721
C32	C	0.477602	-0.431445	0.369398
C33	C	0.477575	-0.330215	0.282966
C34	C	1.142225	-0.586173	0.326142
C35	C	1.142269	-0.674030	0.326160
C36	C	1.091820	-1.045518	0.369434
C37	C	1.192982	-1.045492	0.282942
C38	C	1.192954	-0.962947	0.282936
C39	C	1.142358	-0.921683	0.326179
C40	C	1.091789	-0.962965	0.369427
C41	C	1.243516	-0.921658	0.239683
C42	C	1.243490	-0.839107	0.239675
C43	C	1.192897	-0.797842	0.282921
C44	C	1.142327	-0.839129	0.326172
C45	C	1.091731	-0.797865	0.369415
C46	C	1.041164	-0.839151	0.412670
C47	C	1.041196	-0.921700	0.412674
C48	C	1.192865	-0.715294	0.282917
C49	C	1.091700	-0.715312	0.369408
C50	C	1.348459	-0.380827	0.326177
C51	C	1.436316	-0.380835	0.326187
C52	C	1.142335	-0.380757	0.502696
C53	C	1.142354	-0.380736	0.577928
C54	C	1.142379	-0.174639	0.326180
C55	C	1.142416	-0.086782	0.326191
C56	C	1.142292	-0.380800	0.150298
C57	C	1.142427	-0.380598	0.075066
C58	C	1.192932	-0.330183	0.613286
C59	C	1.192940	-0.330160	0.683974
C60	C	1.142374	-0.380695	0.719304
C61	C	1.091791	-0.431250	0.683942
C62	C	1.091779	-0.431268	0.613254
C63	C	1.091835	-0.431176	0.969015
C64	C	1.091852	-0.431155	1.039707
C65	C	1.192996	-0.330068	1.039735
C66	C	1.192985	-0.330087	0.969048
C67	C	1.142399	-0.380638	0.933692
C68	C	1.142389	-0.380661	0.857043
C69	C	1.142386	-0.380676	0.795951
H70	H	0.444010	-0.472652	0.404597
H71	H	0.717543	-0.238377	0.204529
O72	O	0.556859	-0.225020	0.193109
H73	H	0.492527	-0.233539	0.200376
O74	O	1.037118	-0.670806	0.416041
H75	H	1.001958	-0.713384	0.446111
O76	O	1.247410	-0.670759	0.236283
H77	H	1.212051	-0.633189	0.201813
H78	H	0.999965	-0.805545	0.447875
H79	H	1.000027	-0.955322	0.447889
O80	O	0.852277	-0.275592	0.236306
H81	H	0.916615	-0.284084	0.243557
O82	O	1.247574	-1.089992	0.236322
H83	H	1.239110	-1.154329	0.243601
O84	O	1.037272	-1.090039	0.416078
H85	H	1.045784	-1.154373	0.408817
H86	H	1.050657	-0.472350	0.940237
O87	O	1.298114	-0.966160	0.193069
H88	H	1.289657	-1.030496	0.200356
O89	O	1.247528	-0.275583	0.930946
H90	H	1.239028	-0.284094	0.875852
O91	O	0.852326	-0.485977	0.415983
H92	H	0.916659	-0.477463	0.408720
O93	O	0.556995	-0.536695	0.459219
H94	H	0.519404	-0.501430	0.493746
O95	O	1.298035	-0.794578	0.193033
H96	H	1.333227	-0.837141	0.162970
O97	O	0.728523	-0.536616	0.459198
H98	H	0.685964	-0.571807	0.489262
H99	H	1.234111	-0.289035	0.584525
H100	H	0.443965	-0.289003	0.247777
O101	O	1.247496	-0.275641	0.722113
H102	H	1.282664	-0.240513	0.685670
H103	H	1.234183	-0.288904	1.068530
H104	H	1.050672	-0.472308	1.068471
O105	O	1.037244	-0.485752	0.722042
H106	H	1.045752	-0.477252	0.777136
H107	H	1.050585	-0.472425	0.584467
