data_functionalizedCrystal
_audit_creation_method	'MofGen! by Chris Wilmer'
_symmetry_space_group_name_H-M	'P1'
_symmetry_Int_Tables_number	1
_symmetry_cell_setting	triclinic
loop_
_symmetry_equiv_pos_as_xyz
  x,y,z
_cell_length_a	34.408637
_cell_length_b	34.407814
_cell_length_c	34.404193
_cell_angle_alpha	60.004510
_cell_angle_beta	60.009006
_cell_angle_gamma	59.994604
loop_
_atom_site_label
_atom_site_type_symbol
_atom_site_fract_x
_atom_site_fract_y
_atom_site_fract_z
O1	O	0.053973	-0.567860	0.474801
O2	O	0.553973	-0.067860	0.974801
O3	O	0.020377	-0.442124	0.382567
O4	O	0.520377	0.057876	0.882567
O5	O	0.100004	-0.521670	0.382483
O6	O	0.600004	-0.021670	0.882483
O7	O	-0.025653	-0.488314	0.474886
O8	O	0.474347	0.011686	0.974886
O9	O	0.126426	-0.495253	0.408816
O10	O	0.626426	0.004747	0.908816
O11	O	0.046800	-0.415707	0.408900
O12	O	0.546800	0.084293	0.908900
O13	O	0.080396	-0.541443	0.501134
O14	O	0.580396	-0.041443	1.001134
Zn15	Zn	0.067793	-0.474381	0.459198
Zn16	Zn	0.567793	0.025619	0.959198
Zn17	Zn	0.032980	-0.509186	0.424503
Zn18	Zn	0.532980	-0.009186	0.924503
O19	O	0.000769	-0.461897	0.501219
O20	O	0.500769	0.038103	1.001219
N21	N	0.091552	-0.450631	0.482879
N22	N	0.591552	0.049369	0.982879
N23	N	0.009225	-0.532940	0.400823
N24	N	0.509225	-0.032940	0.900823
C25	C	0.142848	-0.268847	0.534081
C26	C	0.642848	0.231153	1.034081
C27	C	0.142979	-0.399386	0.664559
C28	C	0.642979	0.100614	1.164559
C29	C	0.142862	-0.399365	0.534081
C30	C	0.642862	0.100635	1.034081
C31	C	0.273409	-0.399338	0.533986
C32	C	0.773409	0.100662	1.033986
C33	C	0.157225	-0.311914	0.548422
C34	C	0.657225	0.188086	1.048422
C35	C	0.157300	-0.385019	0.621491
C36	C	0.657300	0.114981	1.121491
C37	C	0.230339	-0.384991	0.548370
C38	C	0.730339	0.115009	1.048370
C39	C	0.157235	-0.385007	0.548422
C40	C	0.657235	0.114993	1.048422
C41	C	0.124548	-0.214028	0.515827
C42	C	0.624548	0.285972	1.015827
C43	C	0.124571	-0.417639	0.515827
C44	C	0.624571	0.082361	1.015827
C45	C	0.175526	-0.366733	0.566676
C46	C	0.675526	0.133267	1.066676
C47	C	0.353121	-0.385580	0.491988
C48	C	0.853121	0.114420	0.991988
C49	C	0.402952	-0.402180	0.475348
C50	C	0.902952	0.097820	0.975348
C51	C	0.402981	-0.482812	0.506096
C52	C	0.902981	0.017188	1.006096
C53	C	0.353151	-0.466211	0.522737
C54	C	0.853151	0.033789	1.022737
C55	C	0.136544	-0.189099	0.466839
C56	C	0.636544	0.310901	0.966839
C57	C	0.119905	-0.139265	0.450247
C58	C	0.619905	0.360735	0.950247
C59	C	0.079280	-0.139291	0.531632
C60	C	0.579280	0.360709	1.031632
C61	C	0.095918	-0.189125	0.548224
C62	C	0.595918	0.310875	1.048224
C63	C	0.075577	-0.405615	0.527900
C64	C	0.575577	0.094385	1.027900
C65	C	0.058953	-0.422228	0.511301
C66	C	0.558953	0.077772	1.011301
C67	C	0.140315	-0.462889	0.470566
C68	C	0.640315	0.037111	0.970566
C69	C	0.156941	-0.446276	0.487159
C70	C	0.656941	0.053724	0.987159
C71	C	0.075772	-0.405653	0.744326
C72	C	0.575772	0.094347	1.244326
C73	C	0.059206	-0.422280	0.794159
C74	C	0.559206	0.077720	1.294159
C75	C	0.140607	-0.462951	0.794094
C76	C	0.640607	0.037049	1.294094
C77	C	0.157172	-0.446325	0.744260
C78	C	0.657172	0.053675	1.244260
C79	C	0.124753	-0.417674	0.719377
C80	C	0.624753	0.082326	1.219377
C81	C	0.328223	-0.417595	0.515681
C82	C	0.828223	0.082405	1.015681
C83	C	-0.172390	-0.583988	0.349141
C84	C	0.327610	-0.083988	0.849141
C85	C	-0.041751	-0.584138	0.218783
C86	C	0.458249	-0.084138	0.718783
C87	C	-0.041941	-0.584130	0.349402
C88	C	0.458059	-0.084130	0.849402
C89	C	-0.041957	-0.714607	0.349338
C90	C	0.458043	-0.214607	0.849338
C91	C	-0.129326	-0.598388	0.334853
C92	C	0.370674	-0.098388	0.834853
C93	C	-0.056165	-0.598473	0.261852
C94	C	0.443835	-0.098473	0.761852
C95	C	-0.056282	-0.671535	0.334962
C96	C	0.443718	-0.171535	0.834962
C97	C	-0.056272	-0.598469	0.334999
C98	C	0.443728	-0.098469	0.834999
C99	C	-0.227205	-0.565659	0.367327
C100	C	0.272795	-0.065659	0.867327
C101	C	-0.023703	-0.565882	0.367734
C102	C	0.476297	-0.065882	0.867734
C103	C	-0.074511	-0.616717	0.316667
C104	C	0.425489	-0.116717	0.816667
C105	C	-0.055754	-0.794298	0.391257
C106	C	0.444246	-0.294298	0.891257
C107	C	-0.039181	-0.844132	0.407888
C108	C	0.460819	-0.344132	0.907888
C109	C	0.041447	-0.844215	0.377269
C110	C	0.541447	-0.344215	0.877269
C111	C	0.024873	-0.794381	0.360637
C112	C	0.524873	-0.294381	0.860637
C113	C	-0.252183	-0.577666	0.416302
C114	C	0.247817	-0.077666	0.916302
C115	C	-0.302014	-0.561001	0.432833
C116	C	0.197986	-0.061001	0.932833
C117	C	-0.301886	-0.520329	0.351410
C118	C	0.198114	-0.020329	0.851410
C119	C	-0.252055	-0.536994	0.334880
C120	C	0.247945	-0.036994	0.834880
C121	C	-0.035709	-0.516892	0.355682
C122	C	0.464291	-0.016892	0.855682
C123	C	-0.019129	-0.500308	0.372353
C124	C	0.480871	-0.000308	0.872353
C125	C	0.021465	-0.581700	0.413115
C126	C	0.521465	-0.081700	0.913115
C127	C	0.004884	-0.598286	0.396450
C128	C	0.504884	-0.098286	0.896450
C129	C	-0.035389	-0.516907	0.139026
C130	C	0.464611	-0.016907	0.639026
C131	C	-0.018707	-0.500324	0.089193
C132	C	0.481293	-0.000324	0.589193
C133	C	0.021949	-0.581721	0.089240
C134	C	0.521949	-0.081721	0.589240
C135	C	0.005268	-0.598303	0.139074
C136	C	0.505268	-0.098303	0.639074
C137	C	-0.023402	-0.565894	0.163965
C138	C	0.476598	-0.065894	0.663965
C139	C	-0.023728	-0.769425	0.367633
C140	C	0.476272	-0.269425	0.867633
N141	N	0.427173	-0.450553	0.482630
N142	N	0.927173	0.049447	0.982630
O143	O	0.589997	-0.458460	0.365361
O144	O	1.089997	0.041540	0.865361
O145	O	0.590185	-0.550997	0.490963
O146	O	1.090185	-0.050997	0.990963
O147	O	0.590104	-0.550786	0.411309
O148	O	1.090104	-0.050786	0.911309
O149	O	0.590077	-0.458671	0.445016
O150	O	1.090077	0.041329	0.945016
O151	O	0.510940	-0.524462	0.437777
O152	O	1.010940	-0.024462	0.937777
O153	O	0.511020	-0.524674	0.517432
O154	O	1.011020	-0.024674	1.017432
O155	O	0.510832	-0.432136	0.391830
O156	O	1.010832	0.067864	0.891830
Zn157	Zn	0.498357	-0.474225	0.458833
Zn158	Zn	0.998357	0.025775	0.958833
Zn159	Zn	0.602660	-0.508908	0.423960
Zn160	Zn	1.102660	-0.008908	0.923960
O161	O	0.510913	-0.432348	0.471484
O162	O	1.010913	0.067652	0.971484
N163	N	0.673844	-0.532580	0.400158
N164	N	1.173844	-0.032580	0.900158
N165	N	0.091520	-0.115070	0.482873
N166	N	0.591520	0.384930	0.982873
O167	O	-0.025663	0.047841	0.474857
O168	O	0.474337	0.547841	0.974857
O169	O	0.099940	0.047877	0.382299
O170	O	0.599940	0.547877	0.882299
O171	O	0.020247	0.047844	0.382560
O172	O	0.520247	0.547844	0.882560
O173	O	0.054030	0.047874	0.474596
O174	O	0.554030	0.547874	0.974596
O175	O	0.046674	-0.031326	0.408942
O176	O	0.546674	0.468674	0.908942
O177	O	0.126367	-0.031293	0.408680
O178	O	0.626367	0.468707	0.908680
O179	O	0.000764	-0.031329	0.501238
O180	O	0.500764	0.468671	1.001238
Zn181	Zn	0.067761	-0.043881	0.459148
Zn182	Zn	0.567761	0.456119	0.959148
Zn183	Zn	0.032943	0.060429	0.424389
Zn184	Zn	0.532943	0.560429	0.924389
O185	O	0.080457	-0.031296	0.500977
O186	O	0.580457	0.468704	1.000977
N187	N	0.009178	0.131618	0.400665
N188	N	0.509178	0.631618	0.900665
N189	N	0.091852	-0.450680	0.818332
N190	N	0.591852	0.049320	1.318332
O191	O	0.083862	-0.567845	0.981235
O192	O	0.583862	-0.067845	1.481235
O193	O	-0.008657	-0.442198	0.981276
O194	O	0.491343	0.057802	1.481276
O195	O	-0.008441	-0.521875	0.981252
O196	O	0.491559	-0.021875	1.481252
O197	O	0.083646	-0.488168	0.981258
O198	O	0.583646	0.011832	1.481258
O199	O	0.017919	-0.495468	0.902085
O200	O	0.517919	0.004532	1.402085
O201	O	0.017703	-0.415791	0.902109
O202	O	0.517703	0.084209	1.402109
O203	O	0.110222	-0.541438	0.902067
O204	O	0.610222	-0.041438	1.402067
Zn205	Zn	0.068148	-0.474422	0.889518
Zn206	Zn	0.568148	0.025578	1.389518
Zn207	Zn	0.033417	-0.509214	0.993825
Zn208	Zn	0.533417	-0.009214	1.493825
O209	O	0.110006	-0.461761	0.902091
O210	O	0.610006	0.038239	1.402091
N211	N	0.009712	-0.532961	1.065011
N212	N	0.509712	-0.032961	1.565011
C213	C	0.030439	-0.413071	0.383027
C214	C	0.530439	0.086929	0.883027
C215	C	0.129046	-0.511580	0.382922
C216	C	0.629046	-0.011580	0.882922
C217	C	0.070334	-0.570496	0.500675
C218	C	0.570334	-0.070496	1.000675
C219	C	-0.028274	-0.471987	0.500780
C220	C	0.471726	0.028013	1.000780
C221	C	0.550625	-0.550579	0.520021
C222	C	1.050625	-0.050579	1.020021
C223	C	0.550527	-0.550317	0.421379
C224	C	1.050527	-0.050317	0.921379
C225	C	0.550389	-0.432554	0.362773
C226	C	1.050389	0.067446	0.862773
C227	C	0.550491	-0.432816	0.461414
C228	C	1.050491	0.067184	0.961414
C229	C	0.128944	0.008394	0.382712
C230	C	0.628944	0.508394	0.882712
C231	C	0.030287	0.008256	0.383068
C232	C	0.530287	0.508256	0.883068
C233	C	-0.028273	0.008252	0.500793
C234	C	0.471727	0.508252	1.000793
C235	C	0.070417	0.008292	0.500470
C236	C	0.570417	0.508292	1.000470
C237	C	-0.008218	-0.413165	0.941698
C238	C	0.491782	0.086835	1.441698
C239	C	-0.007945	-0.511830	0.941653
C240	C	0.492055	-0.011830	1.441653
C241	C	0.109783	-0.570471	0.941646
C242	C	0.609783	-0.070471	1.441646
C243	C	0.109516	-0.471800	0.941673
C244	C	0.609516	0.028200	1.441673
H245	H	0.049370	-0.382321	0.724071
H246	H	0.549370	0.117679	1.224071
H247	H	0.138832	-0.606554	0.941627
H248	H	0.638832	-0.106554	1.441627
H249	H	-0.064365	-0.464880	0.529794
H250	H	0.435635	0.035120	1.029794
O251	O	0.550753	-0.585297	0.563015
O252	O	1.050753	-0.085297	1.063015
C253	C	0.591784	-0.625378	0.556702
C254	C	1.091784	-0.125378	1.056702
H255	H	0.605417	-0.624831	0.518717
H256	H	1.105417	-0.124831	1.018717
H257	H	0.620503	-0.624509	0.563500
H258	H	1.120503	-0.124509	1.063500
C259	C	0.562649	-0.671747	0.638587
C260	C	1.062649	-0.171747	1.138587
C261	C	0.579391	-0.671077	0.591935
C262	C	1.079391	-0.171077	1.091935
H263	H	0.555006	-0.699936	0.660321
H264	H	1.055006	-0.199936	1.160321
H265	H	0.535006	-0.644743	0.642841
H266	H	1.035006	-0.144743	1.142841
H267	H	0.586584	-0.671021	0.644245
H268	H	1.086584	-0.171021	1.144245
H269	H	0.555454	-0.671797	0.586275
H270	H	1.055454	-0.171797	1.086275
H271	H	0.607030	-0.698082	0.587681
H272	H	1.107030	-0.198082	1.087681
O273	O	0.078965	-0.613619	0.535177
O274	O	0.578965	-0.113619	1.035177
C275	C	0.125749	-0.643134	0.517900
C276	C	0.625749	-0.143134	1.017900
H277	H	0.138296	-0.630159	0.477355
H278	H	0.638296	-0.130159	0.977355
H279	H	0.150381	-0.641819	0.529934
H280	H	0.650381	-0.141819	1.029934
C281	C	0.111220	-0.710615	0.587340
C282	C	0.611220	-0.210615	1.087340
C283	C	0.126629	-0.694682	0.537542
C284	C	0.626629	-0.194682	1.037542
H285	H	0.111765	-0.742413	0.599458
H286	H	0.611765	-0.242413	1.099458
H287	H	0.079702	-0.690730	0.598981
H288	H	0.579702	-0.190730	1.098981
H289	H	0.131749	-0.709515	0.597362
H290	H	0.631749	-0.209515	1.097362
H291	H	0.106097	-0.695776	0.527521
H292	H	0.606097	-0.195776	1.027521
H293	H	0.158145	-0.714569	0.525900
H294	H	0.658145	-0.214569	1.025900
H295	H	0.550540	-0.579254	0.414165
H296	H	1.050540	-0.079254	0.914165
H297	H	0.550329	-0.403500	0.326702
H298	H	1.050329	0.096500	0.826702
O299	O	0.143987	-0.463112	0.941647
O300	O	0.643987	0.036888	1.441647
C301	C	0.126643	-0.416323	0.941672
C302	C	0.626643	0.083677	1.441672
H303	H	0.096077	-0.393800	0.926695
H304	H	0.596077	0.106200	1.426695
H305	H	0.113380	-0.417029	0.979655
H306	H	0.613380	0.082971	1.479655
C307	C	0.204445	-0.422348	0.929017
C308	C	0.704445	0.077652	1.429017
C309	C	0.166906	-0.394684	0.910618
C310	C	0.666906	0.105316	1.410618
H311	H	0.229281	-0.409000	0.909863
H312	H	0.729281	0.091000	1.409863
H313	H	0.216130	-0.453871	0.929001
H314	H	0.716130	0.046129	1.429001
H315	H	0.193386	-0.422933	0.960669
H316	H	0.693386	0.077067	1.460669
H317	H	0.177963	-0.394103	0.878969
H318	H	0.677963	0.105897	1.378969
H319	H	0.155223	-0.363160	0.910627
H320	H	0.655223	0.136840	1.410627
O321	O	0.550458	-0.398338	0.470100
O322	O	1.050458	0.101662	0.970100
C323	C	0.550531	-0.415686	0.516873
C324	C	1.050531	0.084314	1.016873
H325	H	0.535584	-0.446264	0.539401
H326	H	1.035584	0.053736	1.039401
H327	H	0.588524	-0.428937	0.516133
H328	H	1.088524	0.071063	1.016133
C329	C	0.537839	-0.337873	0.510865
C330	C	1.037839	0.162127	1.010865
C331	C	0.519476	-0.375427	0.538535
C332	C	1.019476	0.124573	1.038535
H333	H	0.518685	-0.313040	0.524227
H334	H	1.018685	0.186960	1.024227
H335	H	0.537791	-0.326186	0.479353
H336	H	1.037791	0.173814	0.979353
H337	H	0.569499	-0.348922	0.510251
H338	H	1.069499	0.151078	1.010251
H339	H	0.487819	-0.364380	0.539145
H340	H	0.987819	0.135620	1.039145
H341	H	0.519517	-0.387112	0.570049
H342	H	1.019517	0.112888	1.070049
H343	H	0.019320	-0.412483	0.814467
H344	H	0.519320	0.087517	1.314467
H345	H	0.164941	0.008624	0.353583
H346	H	0.664941	0.508624	0.853583
H347	H	-0.037264	-0.377079	0.941710
H348	H	0.462736	0.122921	1.441710
H349	H	0.167007	-0.486271	0.814352
H350	H	0.667007	0.013729	1.314352
O351	O	0.021674	0.008152	0.348613
O352	O	0.521674	0.508152	0.848613
C353	C	0.010476	-0.032860	0.365035
C354	C	0.510476	0.467140	0.865035
H355	H	0.025858	-0.061503	0.394589
H356	H	0.525858	0.438497	0.894589
H357	H	-0.029833	-0.023604	0.379406
H358	H	0.470167	0.476396	0.879406
C359	C	0.013026	-0.016289	0.287343
C360	C	0.513026	0.483711	0.787343
C361	C	0.031922	-0.051471	0.323638
C362	C	0.531922	0.448529	0.823638
H363	H	0.026253	-0.027768	0.261807
H364	H	0.526253	0.472232	0.761807
H365	H	0.020569	0.011343	0.276279
H366	H	0.520569	0.511343	0.776279
H367	H	-0.020564	-0.008579	0.299325
H368	H	0.479436	0.491421	0.799325
H369	H	0.065510	-0.059176	0.311658
H370	H	0.565510	0.440824	0.811658
H371	H	0.024385	-0.079104	0.334699
H372	H	0.524385	0.420896	0.834699
O373	O	0.204771	-0.458029	0.720100
O374	O	0.704771	0.041971	1.220100
C375	C	0.229829	-0.486887	0.752750
C376	C	0.729829	0.013113	1.252750
H377	H	0.206086	-0.480540	0.788282
H378	H	0.706086	0.019460	1.288282
H379	H	0.240587	-0.525921	0.758039
H380	H	0.740587	-0.025921	1.258039
C381	C	0.303904	-0.482054	0.689633
C382	C	0.803904	0.017946	1.189633
C383	C	0.274743	-0.474254	0.733272
C384	C	0.774743	0.025746	1.233272
H385	H	0.331610	-0.474263	0.677617
H386	H	0.831610	0.025737	1.177617
H387	H	0.287022	-0.462613	0.667635
H388	H	0.787022	0.037387	1.167635
H389	H	0.312864	-0.514582	0.694046
H390	H	0.812864	-0.014582	1.194046
H391	H	0.265779	-0.441725	0.728857
H392	H	0.765779	0.058275	1.228857
H393	H	0.291624	-0.493689	0.755268
H394	H	0.791624	0.006311	1.255268
O395	O	-0.071340	0.008270	0.535398
O396	O	0.428660	0.508270	1.035398
C397	C	-0.100980	0.008247	0.518290
C398	C	0.399020	0.508247	1.018290
H399	H	-0.088110	0.023228	0.477743
H400	H	0.411890	0.523228	0.977743
H401	H	-0.099690	-0.029738	0.530403
H402	H	0.400310	0.470262	1.030403
C403	C	-0.168291	0.020894	0.587813
C404	C	0.331709	0.520894	1.087813
C405	C	-0.152486	0.039299	0.538012
C406	C	0.347514	0.539299	1.038012
H407	H	-0.200063	0.040047	0.599980
H408	H	0.299937	0.540047	1.099980
H409	H	-0.148323	0.020909	0.599340
H410	H	0.351677	0.520909	1.099340
H411	H	-0.167212	-0.010759	0.597901
H412	H	0.332788	0.489241	1.097901
H413	H	-0.153560	0.070949	0.527926
H414	H	0.346440	0.570949	1.027926
H415	H	-0.172456	0.039290	0.526484
H416	H	0.327544	0.539290	1.026484
O417	O	0.079134	0.008271	0.534925
O418	O	0.579134	0.508271	1.034925
C419	C	0.125920	0.008296	0.517561
C420	C	0.625920	0.508296	1.017561
H421	H	0.148422	-0.006684	0.486998
H422	H	0.648422	0.493316	0.986998
H423	H	0.125208	0.046281	0.504285
H424	H	0.625208	0.546281	1.004285
C425	C	0.119955	-0.004356	0.595348
C426	C	0.619955	0.495644	1.095348
C427	C	0.147593	-0.022758	0.557814
C428	C	0.647593	0.477242	1.057814
H429	H	0.133324	-0.023510	0.620178
H430	H	0.633324	0.476490	1.120178
H431	H	0.088434	-0.004371	0.607047
H432	H	0.588434	0.495629	1.107047
H433	H	0.119364	0.027297	0.584279
H434	H	0.619364	0.527297	1.084279
H435	H	0.148179	-0.054408	0.568882
H436	H	0.648179	0.445592	1.068882
H437	H	0.179116	-0.022749	0.546118
H438	H	0.679116	0.477251	1.046118
H439	H	-0.036863	-0.519031	0.941619
H440	H	0.463137	-0.019031	1.441619
H441	H	0.049217	-0.382297	0.551240
H442	H	0.549217	0.117703	1.051240
H443	H	0.019058	-0.412426	0.521121
H444	H	0.519058	0.087574	1.021121
H445	H	0.166679	-0.486211	0.447227
H446	H	0.666679	0.013789	0.947227
H447	H	0.196836	-0.456064	0.477324
H448	H	0.696836	0.043936	0.977324
H449	H	0.165136	-0.518689	0.353905
H450	H	0.665136	-0.018689	0.853905
O451	O	0.329040	-0.497374	0.545725
O452	O	0.829040	0.002626	1.045725
C453	C	0.361733	-0.543843	0.548390
C454	C	0.861733	-0.043843	1.048390
H455	H	0.397237	-0.541936	0.518941
H456	H	0.897237	-0.041936	1.018941
H457	H	0.367067	-0.562867	0.584492
H458	H	0.867067	-0.062867	1.084492
C459	C	0.298671	-0.573823	0.578485
C460	C	0.798671	-0.073823	1.078485
C461	C	0.342277	-0.571481	0.542312
C462	C	0.842277	-0.071481	1.042312
H463	H	0.286670	-0.590873	0.574738
H464	H	0.786670	-0.090873	1.074738
H465	H	0.276645	-0.542517	0.576691
H466	H	0.776645	-0.042517	1.076691
H467	H	0.303122	-0.589676	0.608566
H468	H	0.803122	-0.089676	1.108566
H469	H	0.337825	-0.555624	0.512232
H470	H	0.837825	-0.055624	1.012232
H471	H	0.364302	-0.602786	0.544100
H472	H	0.864302	-0.102786	1.044100
H473	H	0.423275	-0.522397	0.511838
H474	H	0.923275	-0.022397	1.011838
H475	H	0.423225	-0.376108	0.456057
H476	H	0.923225	0.123892	0.956057
O477	O	0.021913	-0.370023	0.348405
O478	O	0.521913	0.129977	0.848405
C479	C	0.027189	-0.376235	0.308301
C480	C	0.527189	0.123765	0.808301
H481	H	0.051037	-0.414182	0.308734
H482	H	0.551037	0.085818	0.808734
H483	H	-0.009215	-0.369475	0.309246
H484	H	0.490785	0.130525	0.809246
C485	C	0.020625	-0.294283	0.262101
C486	C	0.520625	0.205717	0.762101
C487	C	0.049919	-0.340890	0.262631
C488	C	0.549919	0.159110	0.762631
H489	H	0.034644	-0.272479	0.233929
H490	H	0.534644	0.227521	0.733929
H491	H	0.017069	-0.290098	0.289120
H492	H	0.517069	0.209902	0.789120
H493	H	-0.009710	-0.288656	0.262890
H494	H	0.490290	0.211344	0.762890
H495	H	0.080251	-0.346517	0.261847
H496	H	0.580251	0.153483	0.761847
H497	H	0.053481	-0.345075	0.235610
H498	H	0.553481	0.154925	0.735610
O499	O	0.328978	-0.338341	0.485114
O500	O	0.828978	0.161659	0.985114
C501	C	0.361643	-0.313644	0.460624
C502	C	0.861643	0.186356	0.960624
H503	H	0.397178	-0.339216	0.466351
H504	H	0.897178	0.160784	0.966351
H505	H	0.366912	-0.298153	0.420981
H506	H	0.866912	0.201847	0.920981
C507	C	0.298560	-0.241641	0.472650
C508	C	0.798560	0.258359	0.972650
C509	C	0.342204	-0.273049	0.479688
C510	C	0.842204	0.226951	0.979688
H511	H	0.286568	-0.216599	0.484408
H512	H	0.786568	0.283401	0.984408
H513	H	0.276552	-0.258279	0.489148
H514	H	0.776552	0.241721	0.989148
H515	H	0.302956	-0.228737	0.439614
H516	H	0.802956	0.271263	0.939614
H517	H	0.337806	-0.285957	0.512724
H518	H	0.837806	0.214043	1.012724
H519	H	0.364210	-0.256412	0.463196
H520	H	0.864210	0.243588	0.963196
H521	H	0.159856	-0.209371	0.440456
H522	H	0.659856	0.290629	0.940456
H523	H	0.129672	-0.118967	0.410356
H524	H	0.629672	0.381033	0.910356
H525	H	0.055974	-0.119015	0.558014
H526	H	0.555974	0.380985	1.058014
H527	H	-0.028474	-0.460433	0.068892
H528	H	0.471526	0.039567	0.568892
O529	O	0.084238	-0.213265	0.595826
O530	O	0.584238	0.286735	1.095826
C531	C	0.055389	-0.180597	0.620860
C532	C	0.555389	0.319403	1.120860
H533	H	0.061726	-0.145067	0.597094
H534	H	0.561726	0.354933	1.097094
H535	H	0.016357	-0.175310	0.631628
H536	H	0.516357	0.324690	1.131628
C537	C	0.060260	-0.243690	0.694956
C538	C	0.560260	0.256310	1.194956
C539	C	0.068046	-0.200052	0.665767
C540	C	0.568046	0.299948	1.165767
H541	H	0.068066	-0.255690	0.722657
H542	H	0.568066	0.244310	1.222657
H543	H	0.079695	-0.265699	0.678090
H544	H	0.579695	0.234301	1.178090
H545	H	0.027734	-0.239278	0.703924
H546	H	0.527734	0.260722	1.203924
H547	H	0.100573	-0.204465	0.656794
H548	H	0.600573	0.295535	1.156794
H549	H	0.048617	-0.178043	0.682632
H550	H	0.548617	0.321957	1.182632
O551	O	-0.063475	-0.485480	0.327778
O552	O	0.436525	0.014520	0.827778
C553	C	-0.075548	-0.510623	0.315661
C554	C	0.424452	-0.010623	0.815661
H555	H	-0.048113	-0.547874	0.318666
H556	H	0.451887	-0.047874	0.818666
H557	H	-0.112253	-0.513375	0.340949
H558	H	0.387747	-0.013375	0.840949
C559	C	-0.109911	-0.438299	0.260518
C560	C	0.390089	0.061701	0.760518
C561	C	-0.076212	-0.484049	0.264205
C562	C	0.423788	0.015951	0.764205
H563	H	-0.110323	-0.421906	0.228778
H564	H	0.389677	0.078094	0.728778
H565	H	-0.101779	-0.421358	0.268682
H566	H	0.398221	0.078642	0.768682
H567	H	-0.140495	-0.440599	0.281594
H568	H	0.359505	0.059401	0.781594
H569	H	-0.045629	-0.481749	0.243134
H570	H	0.454371	0.018251	0.743134
H571	H	-0.084339	-0.500988	0.256036
H572	H	0.415661	-0.000988	0.756036
H573	H	-0.058738	-0.490513	0.159288
H574	H	0.441262	0.009487	0.659288
H575	H	0.045284	-0.608113	0.068976
H576	H	0.545284	-0.108113	0.568976
H577	H	0.015032	-0.638195	0.159378
H578	H	0.515032	-0.138195	0.659378
H579	H	-0.028907	-0.460416	0.362542
H580	H	0.471093	0.039584	0.862542
H581	H	0.014660	-0.638178	0.406265
H582	H	0.514660	-0.138178	0.906265
O583	O	0.049308	-0.613161	0.440939
O584	O	0.549308	-0.113161	0.940939
C585	C	0.093620	-0.606030	0.418367
C586	C	0.593620	-0.106030	0.918367
H587	H	0.100526	-0.587960	0.378408
H588	H	0.600526	-0.087960	0.878408
H589	H	0.093156	-0.582517	0.433084
H590	H	0.593156	-0.082517	0.933084
C591	C	0.124839	-0.676606	0.476888
C592	C	0.624839	-0.176606	0.976888
C593	C	0.133323	-0.654416	0.427808
C594	C	0.633323	-0.154416	0.927808
H595	H	0.149329	-0.706452	0.482713
H596	H	0.649329	-0.206452	0.982713
H597	H	0.094984	-0.681410	0.492097
H598	H	0.594984	-0.181410	0.992097
H599	H	0.124451	-0.657008	0.489146
H600	H	0.624451	-0.157008	0.989146
H601	H	0.133704	-0.674012	0.415552
H602	H	0.633704	-0.174012	0.915552
H603	H	0.163178	-0.649617	0.412598
H604	H	0.663178	-0.149617	0.912598
O605	O	0.056040	-0.770275	0.337640
O606	O	0.556040	-0.270275	0.837640
C607	C	0.089902	-0.782477	0.296577
C608	C	0.589902	-0.282477	0.796577
H609	H	0.092234	-0.818649	0.301067
H610	H	0.592234	-0.318649	0.801067
H611	H	0.078695	-0.754428	0.264262
H612	H	0.578695	-0.254428	0.764262
C613	C	0.136016	-0.740409	0.283792
C614	C	0.636016	-0.240409	0.783792
C615	C	0.138883	-0.784838	0.289309
C616	C	0.638883	-0.284838	0.789309
H617	H	0.166229	-0.741863	0.279308
H618	H	0.666229	-0.241863	0.779308
H619	H	0.113202	-0.732186	0.311457
H620	H	0.613202	-0.232186	0.811457
H621	H	0.126675	-0.717039	0.256864
H622	H	0.626675	-0.217039	0.756864
H623	H	0.148218	-0.808205	0.316240
H624	H	0.648218	-0.308205	0.816240
H625	H	0.161700	-0.793065	0.261649
H626	H	0.661700	-0.293065	0.761649
O627	O	-0.070328	-0.868246	0.430776
O628	O	0.429672	-0.368246	0.930776
C629	C	-0.093604	-0.856064	0.400217
C630	C	0.406396	-0.356064	0.900217
H631	H	-0.092415	-0.819894	0.371849
H632	H	0.407585	-0.319894	0.871849
H633	H	-0.074980	-0.884122	0.382380
H634	H	0.425020	-0.384122	0.882380
C635	C	-0.147255	-0.898137	0.464091
C636	C	0.352745	-0.398137	0.964091
C637	C	-0.145798	-0.853711	0.429251
C638	C	0.354202	-0.353711	0.929251
H639	H	-0.179450	-0.896688	0.482000
H640	H	0.320550	-0.396688	0.982000
H641	H	-0.131573	-0.906347	0.484679
H642	H	0.368427	-0.406347	0.984679
H643	H	-0.131732	-0.921514	0.449221
H644	H	0.368268	-0.421514	0.949221
H645	H	-0.161316	-0.830336	0.444121
H646	H	0.338684	-0.330336	0.944121
H647	H	-0.161484	-0.845498	0.408666
H648	H	0.338516	-0.345498	0.908666
O649	O	-0.102946	-0.769995	0.397961
O650	O	0.397054	-0.269995	0.897961
C651	C	-0.109644	-0.741183	0.353443
C652	C	0.390356	-0.241183	0.853443
H653	H	-0.075356	-0.733763	0.325726
H654	H	0.424644	-0.233763	0.825726
H655	H	-0.119445	-0.760370	0.342330
H656	H	0.380555	-0.260370	0.842330
C657	C	-0.192152	-0.702929	0.391310
C658	C	0.307848	-0.202929	0.891310
C659	C	-0.150040	-0.693812	0.357268
C660	C	0.349960	-0.193812	0.857268
H661	H	-0.217072	-0.673709	0.393670
H662	H	0.282928	-0.173709	0.893670
H663	H	-0.187641	-0.722342	0.421303
H664	H	0.312359	-0.222342	0.921303
H665	H	-0.200313	-0.718919	0.382045
H666	H	0.299687	-0.218919	0.882045
H667	H	-0.141877	-0.677828	0.366537
H668	H	0.358123	-0.177828	0.866537
H669	H	-0.154551	-0.674395	0.327277
H670	H	0.345449	-0.174395	0.827277
O671	O	-0.228120	-0.605488	0.447887
O672	O	0.271880	-0.105488	0.947887
C673	C	-0.260853	-0.612516	0.494660
C674	C	0.239147	-0.112516	0.994660
H675	H	-0.296352	-0.582443	0.494514
H676	H	0.203648	-0.082443	0.994514
H677	H	-0.266179	-0.647998	0.508924
H678	H	0.233821	-0.147998	1.008924
C679	C	-0.197858	-0.649825	0.526860
C680	C	0.302142	-0.149825	1.026860
C681	C	-0.241458	-0.612886	0.526681
C682	C	0.258542	-0.112886	1.026681
H683	H	-0.185895	-0.650055	0.546614
H684	H	0.314105	-0.150055	1.046614
H685	H	-0.175805	-0.645091	0.495348
H686	H	0.324195	-0.145091	0.995348
H687	H	-0.202303	-0.679389	0.538746
H688	H	0.297697	-0.179389	1.038746
H689	H	-0.237012	-0.583322	0.514790
H690	H	0.262988	-0.083322	1.014790
H691	H	-0.263511	-0.617614	0.558192
H692	H	0.236489	-0.117614	1.058192
O693	O	-0.326300	-0.572583	0.480405
O694	O	0.173700	-0.072583	0.980405
C695	C	-0.355129	-0.530697	0.492422
C696	C	0.144871	-0.030697	0.992422
H697	H	-0.340074	-0.500786	0.464350
H698	H	0.159926	-0.000786	0.964350
H699	H	-0.392880	-0.520172	0.494013
H700	H	0.107120	-0.020172	0.994013
C701	C	-0.374457	-0.576303	0.575801
C702	C	0.125543	-0.076303	1.075801
C703	C	-0.355962	-0.539567	0.541324
C704	C	0.144038	-0.039567	1.041324
H705	H	-0.374973	-0.581774	0.605967
H706	H	0.125027	-0.081774	1.105967
H707	H	-0.355035	-0.604523	0.567705
H708	H	0.144965	-0.104523	1.067705
H709	H	-0.405914	-0.567527	0.577120
H710	H	0.094086	-0.067527	1.077120
H711	H	-0.324504	-0.548345	0.540001
H712	H	0.175496	-0.048345	1.040001
H713	H	-0.375379	-0.511349	0.549421
H714	H	0.124621	-0.011349	1.049421
O715	O	-0.325953	-0.492475	0.319827
O716	O	0.174047	0.007525	0.819827
C717	C	-0.293220	-0.485469	0.273054
C718	C	0.206780	0.014531	0.773054
H719	H	-0.257714	-0.491074	0.273208
H720	H	0.242286	0.008926	0.773208
H721	H	-0.287908	-0.511993	0.258769
H722	H	0.212092	-0.011993	0.758769
C723	C	-0.356209	-0.427531	0.240860
C724	C	0.143791	0.072469	0.740860
C725	C	-0.312601	-0.434411	0.241049
C726	C	0.187399	0.065589	0.741049
H727	H	-0.368164	-0.396037	0.221117
H728	H	0.131836	0.103963	0.721117
H729	H	-0.378262	-0.432253	0.272372
H730	H	0.121738	0.067747	0.772372
H731	H	-0.351776	-0.449638	0.228957
H732	H	0.148224	0.050362	0.728957
H733	H	-0.317035	-0.412309	0.252957
H734	H	0.182965	0.087691	0.752957
H735	H	-0.290549	-0.429685	0.209538
H736	H	0.209451	0.070315	0.709538
O737	O	0.088643	-0.868479	0.370559
O738	O	0.588643	-0.368479	0.870559
C739	C	0.095348	-0.897311	0.415072
C740	C	0.595348	-0.397311	0.915072
H741	H	0.063778	-0.882265	0.443776
H742	H	0.563778	-0.382265	0.943776
H743	H	0.098273	-0.935069	0.423693
H744	H	0.598273	-0.435069	0.923693
C745	C	0.180143	-0.916608	0.378018
C746	C	0.680143	-0.416608	0.878018
C747	C	0.141370	-0.898125	0.413273
C748	C	0.641370	-0.398125	0.913273
H749	H	0.208533	-0.917111	0.376909
H750	H	0.708533	-0.417111	0.876909
H751	H	0.175626	-0.897184	0.348029
H752	H	0.675626	-0.397184	0.848029
H753	H	0.182574	-0.948071	0.385207
H754	H	0.682574	-0.448071	0.885207
H755	H	0.138936	-0.866660	0.406081
H756	H	0.638936	-0.366660	0.906081
H757	H	0.145888	-0.917542	0.443261
H758	H	0.645888	-0.417542	0.943261
H759	H	-0.231721	-0.527215	0.295000
H760	H	0.268279	-0.027215	0.795000
