data_functionalizedCrystal
_audit_creation_method	'MofGen! by Chris Wilmer'
_symmetry_space_group_name_H-M	'P1'
_symmetry_Int_Tables_number	1
_symmetry_cell_setting	triclinic
loop_
_symmetry_equiv_pos_as_xyz
  x,y,z
_cell_length_a	16.956984
_cell_length_b	16.956984
_cell_length_c	15.455313
_cell_angle_alpha	92.464369
_cell_angle_beta	87.518126
_cell_angle_gamma	76.053419
loop_
_atom_site_label
_atom_site_type_symbol
_atom_site_fract_x
_atom_site_fract_y
_atom_site_fract_z
O1	O	1.059594	0.029448	-0.072135
O2	O	1.392927	0.362781	0.261198
O3	O	1.726260	0.696115	0.594532
O4	O	0.825582	0.057566	-0.072136
O5	O	1.158916	0.390899	0.261197
O6	O	1.492249	0.724233	0.594531
O7	O	0.956647	-0.073498	-0.072129
O8	O	1.289980	0.259835	0.261204
O9	O	1.623313	0.593168	0.594537
O10	O	0.928529	0.160512	-0.072142
O11	O	1.261863	0.493846	0.261192
O12	O	1.595196	0.827179	0.594525
O13	O	0.949154	-0.066033	0.072132
O14	O	1.282487	0.267301	0.405466
O15	O	1.615820	0.600634	0.738799
O16	O	0.818089	0.065032	0.072126
O17	O	1.151423	0.398365	0.405459
O18	O	1.484756	0.731698	0.738793
O19	O	1.052101	0.036914	0.072127
O20	O	1.385434	0.370247	0.405460
O21	O	1.718767	0.703580	0.738793
Cu22	Cu	0.934411	0.051654	0.085299
Cu23	Cu	1.267744	0.384988	0.418632
Cu24	Cu	1.601078	0.718321	0.751965
Cu25	Cu	0.943272	0.042825	-0.085308
Cu26	Cu	1.276605	0.376159	0.248026
Cu27	Cu	1.609939	0.709492	0.581359
O28	O	0.921036	0.167978	0.072120
O29	O	1.254370	0.501311	0.405454
O30	O	1.587703	0.834645	0.738787
C31	C	0.792033	0.062739	-0.000005
C32	C	1.125366	0.396072	0.333328
C33	C	1.458700	0.729405	0.666662
C34	C	0.703230	0.067019	-0.000005
C35	C	1.036563	0.400353	0.333328
C36	C	1.369897	0.733686	0.666661
C37	C	0.675864	-0.004554	-0.000000
C38	C	1.009197	0.328780	0.333333
C39	C	1.342530	0.662113	0.666667
C40	C	0.592423	-0.000527	-0.000006
C41	C	0.925757	0.332806	0.333327
C42	C	1.259090	0.666140	0.666660
C43	C	0.536350	0.075074	-0.000012
C44	C	0.869684	0.408407	0.333321
C45	C	1.203017	0.741740	0.666655
C46	C	0.563722	0.146652	-0.000020
C47	C	0.897055	0.479985	0.333313
C48	C	1.230389	0.813319	0.666647
C49	C	0.647161	0.142624	-0.000020
C50	C	0.980495	0.475958	0.333314
C51	C	1.313828	0.809291	0.666647
C52	C	0.285264	0.095010	-0.000019
C53	C	0.618597	0.428344	0.333314
C54	C	0.951931	0.761677	0.666648
C55	C	0.201820	0.099033	-0.000017
C56	C	0.535153	0.432366	0.333317
C57	C	0.868487	0.765700	0.666650
C58	C	0.230527	-0.048147	-0.000005
C59	C	0.563860	0.285186	0.333329
C60	C	0.897194	0.618520	0.666662
C61	C	0.313966	-0.052168	0.000001
C62	C	0.647300	0.281166	0.333334
C63	C	0.980633	0.614499	0.666667
C64	C	0.341331	0.019410	-0.000012
C65	C	0.674664	0.352744	0.333321
C66	C	1.007998	0.686077	0.666655
N67	N	0.451061	0.079192	-0.000016
N68	N	0.784394	0.412525	0.333317
N69	N	1.117727	0.745858	0.666651
N70	N	0.426620	0.015291	-0.000014
N71	N	0.759953	0.348625	0.333319
N72	N	1.093286	0.681958	0.666652
C73	C	0.954340	-0.099568	0.000001
C74	C	1.287673	0.233765	0.333335
C75	C	1.621007	0.567098	0.666668
C76	C	0.958621	-0.188371	0.000001
C77	C	1.291954	0.144962	0.333334
C78	C	1.625288	0.478295	0.666667
C79	C	0.887048	-0.215738	-0.000004
C80	C	1.220381	0.117595	0.333330
C81	C	1.553714	0.450929	0.666663
C82	C	0.891075	-0.299178	-0.000001
C83	C	1.224408	0.034155	0.333332
C84	C	1.557741	0.367488	0.666665
C85	C	0.966676	-0.355251	-0.000001
C86	C	1.300009	-0.021918	0.333332
C87	C	1.633342	0.311415	0.666666
C88	C	1.038254	-0.327880	0.000006
C89	C	1.371587	0.005453	0.333339
C90	C	1.704921	0.338787	0.666672
C91	C	1.034226	-0.244441	0.000010
C92	C	1.367559	0.088893	0.333343
C93	C	1.700893	0.422226	0.666676
C94	C	0.986613	-0.606339	-0.000007
C95	C	1.319946	-0.273005	0.333327
C96	C	1.653280	0.060328	0.666660
C97	C	0.990636	-0.689783	-0.000013
C98	C	1.323969	-0.356450	0.333320
C99	C	1.657302	-0.023116	0.666654
C100	C	0.843456	-0.661075	-0.000018
C101	C	1.176789	-0.327742	0.333315
C102	C	1.510122	0.005591	0.666648
C103	C	0.839435	-0.577636	-0.000020
C104	C	1.172768	-0.244302	0.333314
C105	C	1.506101	0.089031	0.666647
C106	C	0.911013	-0.550271	-0.000008
C107	C	1.244346	-0.216938	0.333325
C108	C	1.577679	0.116395	0.666658
N109	N	0.970794	-0.440542	-0.000001
N110	N	1.304127	-0.107208	0.333332
N111	N	1.637460	0.226125	0.666665
N112	N	0.906893	-0.464982	-0.000002
N113	N	1.240227	-0.131649	0.333331
N114	N	1.573560	0.201684	0.666665
C115	C	1.085650	0.031741	-0.000006
C116	C	1.418984	0.365074	0.333327
C117	C	1.752317	0.698408	0.666661
C118	C	1.174453	0.027460	-0.000011
C119	C	1.507787	0.360793	0.333322
C120	C	1.841120	0.694127	0.666655
C121	C	0.923343	0.194048	-0.000012
C122	C	1.256676	0.527381	0.333321
C123	C	1.590010	0.860715	0.666654
C124	C	0.919063	0.282851	-0.000017
C125	C	1.252396	0.616184	0.333316
C126	C	1.585729	0.949517	0.666649
N127	N	0.928184	0.057864	0.205294
N128	N	1.261518	0.391197	0.538627
N129	N	1.594851	0.724530	0.871960
N130	N	0.949506	0.036609	-0.205303
N131	N	1.282839	0.369943	0.128030
N132	N	1.616172	0.703276	0.461364
C133	C	0.983882	0.002201	0.250691
C134	C	1.317215	0.335534	0.584024
C135	C	1.650548	0.668868	0.917357
C136	C	0.979180	0.006904	0.341498
C137	C	1.312513	0.340237	0.674832
C138	C	1.645846	0.673570	1.008165
C139	C	0.918783	0.067273	0.386907
C140	C	1.252116	0.400606	0.720241
C141	C	1.585450	0.733940	1.053574
C142	C	0.863080	0.122938	0.341504
C143	C	1.196413	0.456272	0.674837
C144	C	1.529746	0.789605	1.008171
C145	C	0.867779	0.118232	0.250698
C146	C	1.201112	0.451565	0.584031
C147	C	1.534446	0.784898	0.917365
C148	C	0.898501	0.087568	0.658488
C149	C	1.231835	0.420901	0.991821
C150	C	1.565168	0.754235	1.325155
C151	C	0.893808	0.092272	0.749300
C152	C	1.227141	0.425605	1.082634
C153	C	1.560475	0.758939	1.415967
C154	C	1.009908	-0.023764	0.749288
C155	C	1.343241	0.309569	1.082622
C156	C	1.676574	0.642902	1.415955
C157	C	1.014604	-0.028463	0.658480
C158	C	1.347938	0.304870	0.991814
C159	C	1.681271	0.638204	1.325147
C160	C	0.958898	0.027200	0.613085
C161	C	1.292232	0.360533	0.946418
C162	C	1.625565	0.693866	1.279752
N163	N	0.913977	0.072083	0.479727
N164	N	1.247310	0.405416	0.813061
N165	N	1.580644	0.738750	1.146394
N166	N	0.963702	0.022386	0.520267
N167	N	1.297035	0.355719	0.853600
N168	N	1.630368	0.689052	1.186933
H169	H	0.669440	0.200907	-0.000020
H170	H	1.002774	0.534240	0.333313
H171	H	1.336107	0.867574	0.666647
H172	H	0.777872	-0.531985	-0.000023
H173	H	1.111206	-0.198652	0.333311
H174	H	1.444539	0.134681	0.666644
H175	H	0.785181	-0.683365	-0.000026
H176	H	1.118514	-0.350032	0.333307
H177	H	1.451847	-0.016698	0.666641
H178	H	1.092508	-0.222161	0.000014
H179	H	1.425842	0.111172	0.333348
H180	H	1.759175	0.444505	0.666681
N181	N	1.039279	-0.053107	0.390463
N182	N	1.372612	0.280227	0.723797
N183	N	1.705946	0.613560	1.057130
H184	H	1.078265	-0.092052	0.347918
H185	H	1.411598	0.241281	0.681251
H186	H	1.744931	0.574615	1.014585
H187	H	1.070692	-0.022772	0.428108
H188	H	1.404025	0.310561	0.761442
H189	H	1.737359	0.643894	1.094775
H190	H	0.822423	0.163557	0.213737
H191	H	1.155756	0.496891	0.547070
H192	H	1.489090	0.830224	0.880403
N193	N	1.072181	-0.750266	-0.000019
N194	N	1.405514	-0.416932	0.333314
N195	N	1.738847	-0.083599	0.666647
H196	H	1.116915	-0.720270	-0.000012
H197	H	1.450248	-0.386937	0.333322
H198	H	1.783581	-0.053604	0.666655
H199	H	1.074277	-0.782752	0.053455
H200	H	1.407610	-0.449419	0.386788
H201	H	1.740944	-0.116085	0.720122
H202	H	1.033066	-0.046955	0.213725
H203	H	1.366400	0.286378	0.547058
H204	H	1.699733	0.619711	0.880391
H205	H	0.721514	-0.066116	0.000008
H206	H	1.054847	0.267217	0.333341
H207	H	1.388180	0.600551	0.666675
H208	H	0.570147	-0.058809	-0.000003
H209	H	0.903480	0.274524	0.333330
H210	H	1.236813	0.607857	0.666664
N211	N	0.201019	-0.125349	-0.000005
N212	N	0.534352	0.207985	0.333329
N213	N	0.867685	0.541318	0.666662
H214	H	0.219038	-0.155454	0.053475
H215	H	0.552371	0.177880	0.386808
H216	H	0.885704	0.511213	0.720141
H217	H	0.139656	-0.111269	-0.000040
H218	H	0.472989	0.222065	0.333293
H219	H	0.806322	0.555398	0.666627
H220	H	0.825485	-0.170088	-0.000008
H221	H	1.158819	0.163246	0.333325
H222	H	1.492152	0.496579	0.666659
H223	H	0.853145	0.132892	0.621534
H224	H	1.186478	0.466225	0.954867
H225	H	1.519811	0.799559	1.288201
H226	H	1.063784	-0.077621	0.621510
H227	H	1.397117	0.255713	0.954844
H228	H	1.730451	0.589046	1.288177
H229	H	0.832793	-0.321455	-0.000011
H230	H	1.166126	0.011878	0.333322
H231	H	1.499459	0.345211	0.666656
H232	H	1.055260	-0.069083	0.786257
H233	H	1.388593	0.264250	1.119591
H234	H	1.721927	0.597583	1.452924
H235	H	0.359617	-0.113730	0.000009
H236	H	0.692950	0.219604	0.333342
H237	H	1.026283	0.552937	0.666676
H238	H	1.044897	-0.584069	0.000000
H239	H	1.378230	-0.250736	0.333334
H240	H	1.711563	0.082597	0.666667
N241	N	0.797931	0.188047	0.390476
N242	N	1.131264	0.521381	0.723809
N243	N	1.464598	0.854714	1.057143
H244	H	0.803406	0.182585	0.454890
H245	H	1.136739	0.515919	0.788224
H246	H	1.470072	0.849252	1.121557
H247	H	0.804253	0.243436	0.374590
H248	H	1.137586	0.576770	0.707923
H249	H	1.470920	0.910103	1.041256
H250	H	1.099810	-0.373541	0.000012
H251	H	1.433143	-0.040208	0.333345
H252	H	1.766476	0.293125	0.666678
H253	H	0.844623	0.141436	0.786268
H254	H	1.177956	0.474769	1.119601
H255	H	1.511290	0.808102	1.452935
H256	H	0.307534	0.153294	-0.000035
H257	H	0.640867	0.486627	0.333298
H258	H	0.974200	0.819960	0.666632
N259	N	0.141339	0.180576	-0.000053
N260	N	0.474673	0.513909	0.333280
N261	N	0.808006	0.847242	0.666614
H262	H	0.171335	0.225309	-0.000073
H263	H	0.504669	0.558642	0.333260
H264	H	0.838002	0.891976	0.666594
H265	H	0.108887	0.182656	-0.053541
H266	H	0.442220	0.515990	0.279792
H267	H	0.775553	0.849323	0.613125
H268	H	0.518061	0.208208	-0.000030
H269	H	0.851394	0.541541	0.333303
H270	H	1.184728	0.874874	0.666636
