data_functionalizedCrystal
_audit_creation_method	'MofGen! by Chris Wilmer'
_symmetry_space_group_name_H-M	'P1'
_symmetry_Int_Tables_number	1
_symmetry_cell_setting	triclinic
loop_
_symmetry_equiv_pos_as_xyz
  x,y,z
_cell_length_a	15.995288
_cell_length_b	15.072220
_cell_length_c	15.995350
_cell_angle_alpha	90.007147
_cell_angle_beta	96.520422
_cell_angle_gamma	89.993785
loop_
_atom_site_label
_atom_site_type_symbol
_atom_site_fract_x
_atom_site_fract_y
_atom_site_fract_z
O1	O	-1.111017	0.073824	0.107683
O2	O	-0.861017	0.323824	0.357683
O3	O	-0.611017	0.573824	0.607683
O4	O	-0.361017	0.823824	0.857683
O5	O	-0.867234	0.073815	0.121065
O6	O	-0.617234	0.323815	0.371065
O7	O	-0.367234	0.573815	0.621065
O8	O	-0.117234	0.823815	0.871065
O9	O	-0.995790	0.073819	-0.007515
O10	O	-0.745790	0.323819	0.242485
O11	O	-0.495790	0.573819	0.492485
O12	O	-0.245790	0.823819	0.742485
O13	O	-0.982462	0.073821	0.236263
O14	O	-0.732462	0.323821	0.486263
O15	O	-0.482462	0.573821	0.736263
O16	O	-0.232462	0.823821	0.986263
O17	O	-0.995781	-0.073746	-0.007531
O18	O	-0.745781	0.176254	0.242469
O19	O	-0.495781	0.426254	0.492469
O20	O	-0.245781	0.676254	0.742469
O21	O	-0.867226	-0.073750	0.121049
O22	O	-0.617226	0.176250	0.371049
O23	O	-0.367226	0.426250	0.621049
O24	O	-0.117226	0.676250	0.871049
O25	O	-1.111008	-0.073741	0.107667
O26	O	-0.861008	0.176259	0.357667
O27	O	-0.611008	0.426259	0.607667
O28	O	-0.361008	0.676259	0.857667
Zn29	Zn	-0.989116	-0.097174	0.114356
Zn30	Zn	-0.739116	0.152826	0.364356
Zn31	Zn	-0.489116	0.402826	0.614356
Zn32	Zn	-0.239116	0.652826	0.864356
Zn33	Zn	-0.989127	0.097249	0.114376
Zn34	Zn	-0.739127	0.347249	0.364376
Zn35	Zn	-0.489127	0.597249	0.614376
Zn36	Zn	-0.239127	0.847249	0.864376
O37	O	-0.982453	-0.073745	0.236247
O38	O	-0.732453	0.176255	0.486247
O39	O	-0.482453	0.426255	0.736247
O40	O	-0.232453	0.676255	0.986247
C41	C	-0.836035	0.000032	0.120513
C42	C	-0.586035	0.250032	0.370513
C43	C	-0.336035	0.500032	0.620513
C44	C	-0.086035	0.750032	0.870513
C45	C	-0.743081	0.000029	0.118882
C46	C	-0.493081	0.250029	0.368882
C47	C	-0.243081	0.500029	0.618882
C48	C	0.006919	0.750029	0.868882
N49	N	-0.989114	-0.229863	0.114341
N50	N	-0.739114	0.020137	0.364341
N51	N	-0.489114	0.270137	0.614341
N52	N	-0.239114	0.520137	0.864341
C53	C	-0.572897	0.000033	0.115870
C54	C	-0.322897	0.250033	0.365870
C55	C	-0.072897	0.500033	0.615870
C56	C	0.177103	0.750033	0.865870
C57	C	-0.525431	0.000031	0.207420
C58	C	-0.275431	0.250031	0.457420
C59	C	-0.025431	0.500031	0.707420
C60	C	0.224569	0.750031	0.957420
C61	C	-0.428743	0.000367	0.205754
C62	C	-0.178743	0.250367	0.455754
C63	C	0.071257	0.500367	0.705754
C64	C	0.321257	0.750367	0.955754
C65	C	-0.405340	0.000037	0.112906
C66	C	-0.155340	0.250037	0.362906
C67	C	0.094660	0.500037	0.612906
C68	C	0.344660	0.750037	0.862906
C69	C	-0.446478	0.084138	0.067493
C70	C	-0.196478	0.334138	0.317493
C71	C	0.053522	0.584138	0.567493
C72	C	0.303522	0.834138	0.817493
C73	C	-0.543112	0.084207	0.069805
C74	C	-0.293112	0.334207	0.319805
C75	C	-0.043112	0.584207	0.569805
C76	C	0.206888	0.834207	0.819805
C77	C	-0.543381	-0.083608	0.068432
C78	C	-0.293381	0.166392	0.318432
C79	C	-0.043381	0.416392	0.568432
C80	C	0.206619	0.666392	0.818432
C81	C	-0.446436	-0.084712	0.068445
C82	C	-0.196436	0.165288	0.318445
C83	C	0.053564	0.415288	0.568445
C84	C	0.303564	0.665288	0.818445
C85	C	-0.310644	0.000042	0.111226
C86	C	-0.060644	0.250042	0.361226
C87	C	0.189356	0.500042	0.611226
C88	C	0.439356	0.750042	0.861226
C89	C	-0.667594	0.000034	0.117548
C90	C	-0.417594	0.250034	0.367548
C91	C	-0.167594	0.500034	0.617548
C92	C	0.082406	0.750034	0.867548
C93	C	-0.989128	-0.589065	0.114370
C94	C	-0.739128	-0.339065	0.364370
C95	C	-0.489128	-0.089065	0.614370
C96	C	-0.239128	0.160935	0.864370
C97	C	-1.058138	-0.551428	0.045799
C98	C	-0.808138	-0.301428	0.295799
C99	C	-0.558138	-0.051428	0.545799
C100	C	-0.308138	0.198572	0.795799
C101	C	-1.057958	-0.448602	0.045546
C102	C	-0.807958	-0.198602	0.295546
C103	C	-0.557958	0.051398	0.545546
C104	C	-0.307958	0.301398	0.795546
C105	C	-0.989122	-0.410861	0.114356
C106	C	-0.739122	-0.160861	0.364356
C107	C	-0.489122	0.089139	0.614356
C108	C	-0.239122	0.339139	0.864356
C109	C	-0.901762	-0.448207	0.095295
C110	C	-0.651762	-0.198207	0.345295
C111	C	-0.401762	0.051793	0.595295
C112	C	-0.151762	0.301793	0.845295
C113	C	-0.902171	-0.551065	0.094810
C114	C	-0.652171	-0.301065	0.344810
C115	C	-0.402171	-0.051065	0.594810
C116	C	-0.152171	0.198935	0.844810
C117	C	-1.006690	-0.551140	0.202204
C118	C	-0.756690	-0.301140	0.452204
C119	C	-0.506690	-0.051140	0.702204
C120	C	-0.256690	0.198860	0.952204
C121	C	-1.008673	-0.448276	0.201615
C122	C	-0.758673	-0.198276	0.451615
C123	C	-0.508673	0.051724	0.701615
C124	C	-0.258673	0.301724	0.951615
C125	C	-0.989113	-0.310147	0.114349
C126	C	-0.739113	-0.060147	0.364349
C127	C	-0.489113	0.189853	0.614349
C128	C	-0.239113	0.439853	0.864349
C129	C	-0.989131	-0.689778	0.114374
C130	C	-0.739131	-0.439778	0.364374
C131	C	-0.489131	-0.189778	0.614374
C132	C	-0.239131	0.060222	0.864374
C133	C	-0.142207	0.000042	0.108230
C134	C	0.107793	0.250042	0.358230
C135	C	0.357793	0.500042	0.608230
C136	C	0.607793	0.750042	0.858230
C137	C	-0.235156	0.000042	0.109894
C138	C	0.014844	0.250042	0.359894
C139	C	0.264844	0.500042	0.609894
C140	C	0.514844	0.750042	0.859894
C141	C	-0.995234	0.000038	-0.038718
C142	C	-0.745234	0.250038	0.211282
C143	C	-0.495234	0.500038	0.461282
C144	C	-0.245234	0.750038	0.711282
C145	C	-0.993583	0.000043	-0.131668
C146	C	-0.743583	0.250043	0.118332
C147	C	-0.493583	0.500043	0.368332
C148	C	-0.243583	0.750043	0.618332
N149	N	-0.989135	0.229938	0.114384
N150	N	-0.739135	0.479938	0.364384
N151	N	-0.489135	0.729938	0.614384
N152	N	-0.239135	0.979938	0.864384
C153	C	-0.987650	0.000040	-0.469414
C154	C	-0.737650	0.250040	-0.219414
C155	C	-0.487650	0.500040	0.030586
C156	C	-0.237650	0.750040	0.280586
C157	C	-0.896096	0.000368	-0.421959
C158	C	-0.646096	0.250368	-0.171959
C159	C	-0.396096	0.500368	0.078041
C160	C	-0.146096	0.750368	0.328041
C161	C	-0.897748	0.000035	-0.325269
C162	C	-0.647748	0.250035	-0.075269
C163	C	-0.397748	0.500035	0.174731
C164	C	-0.147748	0.750035	0.424731
C165	C	-0.990593	0.000042	-0.301854
C166	C	-0.740593	0.250042	-0.051854
C167	C	-0.490593	0.500042	0.198146
C168	C	-0.240593	0.750042	0.448146
C169	C	-1.035746	-0.084221	-0.342951
C170	C	-0.785746	0.165779	-0.092951
C171	C	-0.535746	0.415779	0.157049
C172	C	-0.285746	0.665779	0.407049
C173	C	-1.033446	-0.084292	-0.439586
C174	C	-0.783446	0.165708	-0.189586
C175	C	-0.533446	0.415708	0.060414
C176	C	-0.283446	0.665708	0.310414
C177	C	-1.035347	0.083517	-0.439927
C178	C	-0.785347	0.333517	-0.189927
C179	C	-0.535347	0.583517	0.060073
C180	C	-0.285347	0.833517	0.310073
C181	C	-1.035325	0.084631	-0.342981
C182	C	-0.785325	0.334631	-0.092981
C183	C	-0.535325	0.584631	0.157019
C184	C	-0.285325	0.834631	0.407019
C185	C	-0.992261	0.000041	-0.207157
C186	C	-0.742261	0.250041	0.042843
C187	C	-0.492261	0.500041	0.292843
C188	C	-0.242261	0.750041	0.542843
C189	C	-0.985985	0.000036	-0.564111
C190	C	-0.735985	0.250036	-0.314111
C191	C	-0.485985	0.500036	-0.064111
C192	C	-0.235985	0.750036	0.185889
C193	C	-0.983009	0.000038	0.267450
C194	C	-0.733009	0.250038	0.517450
C195	C	-0.483009	0.500038	0.767450
C196	C	-0.233009	0.750038	1.017450
C197	C	-0.984660	0.000039	0.360400
C198	C	-0.734660	0.250039	0.610400
C199	C	-0.484660	0.500039	0.860400
C200	C	-0.234660	0.750039	1.110400
H201	H	-0.400276	-0.059906	0.241439
H202	H	-0.150276	0.190094	0.491439
H203	H	0.099724	0.440094	0.741439
H204	H	0.349724	0.690094	0.991439
F205	F	-1.143305	-0.583741	0.060392
F206	F	-0.893305	-0.333741	0.310392
F207	F	-0.643305	-0.083741	0.560392
F208	F	-0.393305	0.166259	0.810392
F209	F	-0.426383	-0.091682	-0.020035
F210	F	-0.176383	0.158318	0.229965
F211	F	0.073617	0.408318	0.479965
F212	F	0.323617	0.658318	0.729965
F213	F	-0.947232	-0.414695	0.271436
F214	F	-0.697232	-0.164695	0.521436
F215	F	-0.447232	0.085305	0.771436
F216	F	-0.197232	0.335305	1.021436
H217	H	-0.956366	-0.575484	0.253233
H218	H	-0.706366	-0.325484	0.503233
H219	H	-0.456366	-0.075484	0.753233
H220	H	-0.206366	0.174516	1.003233
F221	F	-0.833020	-0.416256	0.158835
F222	F	-0.583020	-0.166256	0.408835
F223	F	-0.333020	0.083744	0.658835
F224	F	-0.083020	0.333744	0.908835
F225	F	-0.851355	0.078987	-0.288099
F226	F	-0.601355	0.328987	-0.038099
F227	F	-0.351355	0.578987	0.211901
F228	F	-0.101355	0.828987	0.461901
F229	F	-0.584933	-0.084676	-0.019788
F230	F	-0.334933	0.165324	0.230212
F231	F	-0.084933	0.415324	0.480212
F232	F	0.165067	0.665324	0.730212
H233	H	-0.545043	0.060250	0.243668
H234	H	-0.295043	0.310250	0.493668
H235	H	-0.045043	0.560250	0.743668
H236	H	0.204957	0.810250	0.993668
H237	H	-0.561434	0.147312	0.102545
H238	H	-0.311434	0.397312	0.352545
H239	H	-0.061434	0.647312	0.602545
H240	H	0.188566	0.897312	0.852545
F241	F	-1.123577	0.084266	-0.481461
F242	F	-0.873577	0.334266	-0.231461
F243	F	-0.623577	0.584266	0.018539
F244	F	-0.373577	0.834266	0.268539
H245	H	-0.543919	-0.060268	0.244204
H246	H	-0.293919	0.189732	0.494204
H247	H	-0.043919	0.439732	0.744204
H248	H	0.206081	0.689732	0.994204
H249	H	-1.002312	0.146967	-0.315719
H250	H	-0.752312	0.396967	-0.065719
H251	H	-0.502312	0.646967	0.184281
H252	H	-0.252312	0.896967	0.434281
F253	F	-1.142834	-0.415594	0.060388
F254	F	-0.892834	-0.165594	0.310388
F255	F	-0.642834	0.084406	0.560388
F256	F	-0.392834	0.334406	0.810388
H257	H	-0.400898	0.061005	0.241298
H258	H	-0.150898	0.311005	0.491298
H259	H	0.099102	0.561005	0.741298
H260	H	0.349102	0.811005	0.991298
H261	H	-0.418096	0.146961	0.098640
H262	H	-0.168096	0.396961	0.348640
H263	H	0.081904	0.646961	0.598640
H264	H	0.331904	0.896961	0.848640
F265	F	-0.585298	0.088899	-0.018062
F266	F	-0.335298	0.338899	0.231938
F267	F	-0.085298	0.588899	0.481938
F268	F	0.164702	0.838899	0.731938
F269	F	-0.848350	-0.077962	-0.447849
F270	F	-0.598350	0.172038	-0.197849
F271	F	-0.348350	0.422038	0.052151
F272	F	-0.098350	0.672038	0.302151
H273	H	-1.046737	-0.424006	-0.019638
H274	H	-0.796737	-0.174006	0.230362
H275	H	-0.546737	0.075994	0.480362
H276	H	-0.296737	0.325994	0.730362
H277	H	-0.432378	0.087029	-0.000730
H278	H	-0.182378	0.337029	0.249270
H279	H	0.067622	0.587029	0.499270
H280	H	0.317622	0.837029	0.749270
F281	F	-1.123822	0.091294	-0.322918
F282	F	-0.873822	0.341294	-0.072918
F283	F	-0.623822	0.591294	0.177082
F284	F	-0.373822	0.841294	0.427082
F285	F	-0.570171	-0.166952	0.107816
F286	F	-0.320171	0.083048	0.357816
F287	F	-0.070171	0.333048	0.607816
F288	F	0.179829	0.583048	0.857816
F289	F	-0.410696	-0.166039	0.111789
F290	F	-0.160696	0.083961	0.361789
F291	F	0.089304	0.333961	0.611789
F292	F	0.339304	0.583961	0.861789
F293	F	-0.881940	-0.582438	0.011084
F294	F	-0.631940	-0.332438	0.261084
F295	F	-0.381940	-0.082438	0.511084
F296	F	-0.131940	0.167562	0.761084
H297	H	-0.862009	-0.060474	-0.297403
H298	H	-0.612009	0.189526	-0.047403
H299	H	-0.362009	0.439526	0.202597
H300	H	-0.112009	0.689526	0.452597
F301	F	-0.881032	-0.414552	0.012521
F302	F	-0.631032	-0.164552	0.262521
F303	F	-0.381032	0.085448	0.512521
F304	F	-0.131032	0.335448	0.762521
H305	H	-1.047081	-0.577287	-0.019015
H306	H	-0.797081	-0.327287	0.230985
H307	H	-0.547081	-0.077287	0.480985
H308	H	-0.297081	0.172713	0.730985
F309	F	-0.848267	0.079351	-0.446160
F310	F	-0.598267	0.329351	-0.196160
F311	F	-0.348267	0.579351	0.053840
F312	F	-0.098267	0.829351	0.303840
H313	H	-1.004378	-0.146932	-0.314569
H314	H	-0.754378	0.103068	-0.064569
H315	H	-0.504378	0.353068	0.185431
H316	H	-0.254378	0.603068	0.435431
H317	H	-0.849276	-0.575963	0.142856
H318	H	-0.599276	-0.325963	0.392856
H319	H	-0.349276	-0.075963	0.642856
H320	H	-0.099276	0.174037	0.892856
F321	F	-1.088178	-0.585026	0.226153
F322	F	-0.838178	-0.335026	0.476153
F323	F	-0.588178	-0.085026	0.726153
F324	F	-0.338178	0.164974	0.976153
F325	F	-1.092668	-0.416365	0.220528
F326	F	-0.842668	-0.166365	0.470528
F327	F	-0.592668	0.083635	0.720528
F328	F	-0.342668	0.333635	0.970528
F329	F	-0.990397	-0.166626	-0.463508
F330	F	-0.740397	0.083374	-0.213508
F331	F	-0.490397	0.333374	0.036492
F332	F	-0.240397	0.583374	0.286492
H333	H	-1.100664	-0.088110	-0.471849
H334	H	-0.850664	0.161890	-0.221849
H335	H	-0.600664	0.411890	0.028151
H336	H	-0.350664	0.661890	0.278151
F337	F	-1.124903	-0.088314	-0.324509
F338	F	-0.874903	0.161686	-0.074509
F339	F	-0.624903	0.411686	0.175491
F340	F	-0.374903	0.661686	0.425491
H341	H	-1.005417	0.147384	-0.460453
H342	H	-0.755417	0.397384	-0.210453
H343	H	-0.505417	0.647384	0.039547
H344	H	-0.255417	0.897384	0.289547
