data_functionalizedCrystal
_audit_creation_method	'MofGen! by Chris Wilmer'
_symmetry_space_group_name_H-M	'P1'
_symmetry_Int_Tables_number	1
_symmetry_cell_setting	triclinic
loop_
_symmetry_equiv_pos_as_xyz
  x,y,z
_cell_length_a	10.723024
_cell_length_b	10.723024
_cell_length_c	9.798715
_cell_angle_alpha	90.003391
_cell_angle_beta	90.001978
_cell_angle_gamma	84.467869
loop_
_atom_site_label
_atom_site_type_symbol
_atom_site_fract_x
_atom_site_fract_y
_atom_site_fract_z
O1	O	-0.175024	-1.657187	-0.113478
O2	O	-0.191778	-1.294035	-0.113483
O3	O	-0.001825	-1.483988	-0.113475
O4	O	-0.364977	-1.467234	-0.113486
O5	O	-0.001824	-1.483974	0.113507
O6	O	-0.191777	-1.294021	0.113499
O7	O	-0.175024	-1.657173	0.113504
Zn8	Zn	-0.183401	-1.475595	0.149540
Zn9	Zn	-0.183401	-1.475613	-0.149519
O10	O	-0.364977	-1.467220	0.113496
C11	C	-0.190558	-1.247528	0.000008
C12	C	-0.186911	-1.108974	0.000006
C13	C	0.044675	-1.482762	0.000014
C14	C	0.183229	-1.479114	0.000009
C15	C	-0.176243	-1.703680	0.000010
C16	C	-0.179891	-1.842234	0.000003
C17	C	-0.411477	-1.468447	0.000004
C18	C	-0.550031	-1.472094	-0.000000
C19	C	0.258212	-1.585401	0.000009
C20	C	0.401415	-1.581634	0.000004
C21	C	-0.293198	-1.033991	0.000002
C22	C	-0.289431	-0.890788	0.000001
N23	N	-0.183399	-1.475591	0.353640
N24	N	-0.183393	-1.475627	-0.353619
C25	C	-0.103292	-1.555347	0.421420
C26	C	-0.103288	-1.555367	0.578582
H27	H	0.216390	-1.679187	0.000018
F28	F	-0.060950	-0.926441	-0.000003
H29	H	0.465848	-1.672624	0.000009
F30	F	0.365762	-1.353153	0.000010
F31	F	-0.273035	-1.386351	0.429865
F32	F	-0.064321	-1.054316	0.000019
F33	F	-0.408367	-0.806574	-0.000014
F34	F	0.237887	-1.356524	-0.000005
H35	H	-0.386984	-1.075814	0.000007
H36	H	-0.034707	-1.623611	0.363100
H37	H	-0.034709	-1.623654	0.636870
F38	F	-0.273048	-1.386376	0.570207
