data_functionalizedCrystal
_audit_creation_method	'MofGen! by Chris Wilmer'
_symmetry_space_group_name_H-M	'P1'
_symmetry_Int_Tables_number	1
_symmetry_cell_setting	triclinic
loop_
_symmetry_equiv_pos_as_xyz
  x,y,z
_cell_length_a	14.908571
_cell_length_b	14.908520
_cell_length_c	14.908308
_cell_angle_alpha	96.360765
_cell_angle_beta	89.824947
_cell_angle_gamma	89.794039
loop_
_atom_site_label
_atom_site_type_symbol
_atom_site_fract_x
_atom_site_fract_y
_atom_site_fract_z
Zn1	Zn	1.316651	0.470613	0.613065
Zn2	Zn	1.316549	0.613252	0.470429
Zn3	Zn	1.176020	0.453291	0.453125
Zn4	Zn	1.157642	0.612180	0.612023
O5	O	1.241715	0.537334	0.537161
O6	O	1.441995	0.497231	0.601822
O7	O	1.305556	0.585232	0.341941
O8	O	1.202409	0.329399	0.467536
O9	O	1.441920	0.602028	0.497029
O10	O	1.305730	0.342124	0.585043
O11	O	1.202310	0.467710	0.329228
O12	O	1.048225	0.466671	0.466525
O13	O	1.171086	0.600202	0.738354
O14	O	1.034722	0.583406	0.583267
O15	O	1.287909	0.496192	0.739120
O16	O	1.287736	0.739300	0.496018
O17	O	1.170987	0.738513	0.600046
C18	C	1.227379	0.771629	0.549818
C19	C	1.221326	0.871868	0.555268
C20	C	1.008970	0.523043	0.522906
C21	C	0.909397	0.516953	0.516830
C22	C	1.227459	0.550010	0.772372
C23	C	1.221383	0.555411	0.872606
C24	C	0.708277	0.627234	0.626831
C25	C	0.614720	0.621514	0.621125
C26	C	0.628723	0.499789	0.499719
C27	C	0.722281	0.505509	0.505424
C28	C	0.762054	0.569235	0.568981
C29	C	0.855613	0.574958	0.574682
C30	C	0.869615	0.453230	0.453280
C31	C	0.776058	0.447510	0.447575
C32	C	1.475370	0.551681	0.551472
C33	C	1.574939	0.557795	0.557571
C34	C	1.256131	0.302127	0.524476
C35	C	1.262274	0.201896	0.519070
C36	C	1.331634	1.060998	0.457284
C37	C	1.325950	1.155181	0.462402
C38	C	1.204279	1.154420	0.570626
C39	C	1.209963	1.060237	0.565508
C40	C	1.273642	1.013529	0.508834
C41	C	1.279321	0.919343	0.503712
C42	C	1.157655	0.918584	0.611940
C43	C	1.151970	1.012768	0.617058
C44	C	1.255972	0.524646	0.302864
C45	C	1.262236	0.519001	0.202628
C46	C	1.331614	0.457236	1.061752
C47	C	1.325908	0.462308	1.155930
C48	C	1.204264	0.570623	1.155141
C49	C	1.209969	0.565551	1.060963
C50	C	1.273647	0.508856	1.014272
C51	C	1.279356	0.503789	0.920093
C52	C	1.157708	0.612099	0.919305
C53	C	1.152002	0.617171	1.013483
H54	H	0.740661	0.679126	0.678577
O55	O	0.590136	0.437756	0.438080
C56	C	0.573591	0.280191	0.384503
C57	C	0.617322	0.350355	0.454375
H58	H	0.595568	0.209513	0.397641
H59	H	0.497478	0.285967	0.390354
H60	H	0.595402	0.293161	0.313739
H61	H	0.595582	0.337431	0.525170
H62	H	0.693428	0.344562	0.448445
O63	O	1.090031	0.672137	1.058788
C64	C	0.933230	0.708162	1.080594
C65	C	1.003315	0.645830	1.029240
H66	H	0.863106	0.686927	1.056711
H67	H	0.939027	0.702914	1.156068
H68	H	0.945683	0.780840	1.066978
H69	H	0.990907	0.573126	1.042783
H70	H	0.997501	0.651156	0.953782
O71	O	1.090231	1.058253	0.672163
C72	C	1.064277	1.170332	0.798969
C73	C	1.134293	1.118903	0.736617
H74	H	1.099875	1.219365	0.851107
H75	H	1.017331	1.209445	0.757109
H76	H	1.023785	1.120204	0.834888
H77	H	1.174848	1.168969	0.700684
H78	H	1.181178	1.079776	0.778524
O79	O	0.737519	0.385656	0.385722
C80	C	0.720782	0.331677	0.228267
C81	C	0.764501	0.401767	0.298223
H82	H	0.742565	0.344690	0.157508
H83	H	0.742675	0.260952	0.241334
H84	H	0.644679	0.337540	0.234175
H85	H	0.840608	0.395987	0.292355
H86	H	0.742536	0.472463	0.285135
H87	H	0.570938	0.668742	0.668234
O88	O	1.101437	0.662157	0.873040
C89	C	1.056358	0.702400	0.727610
C90	C	1.120119	0.645642	0.779890
H91	H	1.071452	0.689082	0.652291
H92	H	0.983955	0.683126	0.740778
H93	H	1.066506	0.777066	0.751073
H94	H	1.110052	0.570961	0.756460
H95	H	1.192499	0.664992	0.766721
O96	O	1.101220	0.872608	0.662048
C97	C	0.979965	0.881799	0.769962
C98	C	1.043811	0.933977	0.713257
H99	H	0.933547	0.931395	0.811393
H100	H	0.938266	0.832686	0.723294
H101	H	1.020868	0.842682	0.817230
H102	H	1.002978	0.973147	0.665984
H103	H	1.085513	0.983036	0.759978
H104	H	1.152420	0.616780	1.193173
H105	H	1.331169	0.881314	0.457563
O106	O	1.341233	0.448641	0.874871
C107	C	1.461315	0.341778	0.885602
C108	C	1.391268	0.404183	0.936923
H109	H	1.501800	0.305831	0.935750
H110	H	1.425789	0.289673	0.836472
H111	H	1.508258	0.383686	0.846587
H112	H	1.344306	0.362350	0.975991
H113	H	1.426854	0.456291	0.986000
O114	O	0.921987	0.396927	0.397175
C115	C	1.072322	0.351838	0.352109
C116	C	1.013118	0.415633	0.415719
H117	H	1.146014	0.366951	0.367066
H118	H	1.057475	0.278864	0.363011
H119	H	1.057298	0.362510	0.279104
H120	H	1.028108	0.405041	0.488747
H121	H	1.027976	0.488584	0.404738
O122	O	1.393495	0.402094	1.016528
C123	C	1.513593	0.295247	1.027252
C124	C	1.443540	0.357642	1.078577
H125	H	1.554086	0.259305	1.077398
H126	H	1.478072	0.243139	0.978122
H127	H	1.560527	0.337164	0.988236
H128	H	1.396586	0.315800	1.117645
H129	H	1.479119	0.409753	1.127654
O130	O	1.382093	0.412062	1.202079
C131	C	1.395154	0.296813	1.302614
C132	C	1.331423	0.353647	1.250383
H133	H	1.354212	0.249584	1.341696
H134	H	1.441627	0.255358	1.253097
H135	H	1.436810	0.343477	1.351771
H136	H	1.289709	0.307049	1.201226
H137	H	1.285010	0.395111	1.299953
H138	H	1.383478	1.022967	0.411132
H139	H	1.373175	1.193828	0.420427
O140	O	1.142546	1.199913	0.625733
C141	C	1.116615	1.312002	0.752535
C142	C	1.186620	1.260560	0.690180
H143	H	1.152224	1.361033	0.804668
H144	H	1.069672	1.351119	0.710677
H145	H	1.076119	1.261882	0.788461
H146	H	1.227180	1.310618	0.654241
H147	H	1.233503	1.221429	0.732086
H148	H	0.887995	0.626848	0.626432
