data_functionalizedCrystal
_audit_creation_method	'MofGen! by Chris Wilmer'
_symmetry_space_group_name_H-M	'P1'
_symmetry_Int_Tables_number	1
_symmetry_cell_setting	triclinic
loop_
_symmetry_equiv_pos_as_xyz
  x,y,z
_cell_length_a	18.050590
_cell_length_b	12.645330
_cell_length_c	12.645323
_cell_angle_alpha	89.972994
_cell_angle_beta	89.993192
_cell_angle_gamma	90.001812
loop_
_atom_site_label
_atom_site_type_symbol
_atom_site_fract_x
_atom_site_fract_y
_atom_site_fract_z
Zn1	Zn	1.135428	-0.422338	-0.598982
Zn2	Zn	1.635428	0.077662	-0.098982
Zn3	Zn	1.135356	-0.599626	-0.421715
Zn4	Zn	1.635356	-0.099626	0.078285
Zn5	Zn	1.011231	-0.422343	-0.421775
Zn6	Zn	1.511231	0.077657	0.078225
Zn7	Zn	1.011229	-0.599526	-0.598980
Zn8	Zn	1.511229	-0.099526	-0.098980
O9	O	1.073311	-0.510958	-0.510363
O10	O	1.573311	-0.010958	-0.010363
O11	O	1.239343	-0.445895	-0.575443
O12	O	1.739343	0.054105	-0.075443
O13	O	1.118862	-0.576153	-0.273376
O14	O	1.618862	-0.076153	0.226624
O15	O	1.027737	-0.273995	-0.445308
O16	O	1.527737	0.226005	0.054692
O17	O	1.239290	-0.576147	-0.445206
O18	O	1.739290	-0.076147	0.054794
O19	O	1.118984	-0.273991	-0.575501
O20	O	1.618984	0.226009	-0.075501
O21	O	1.027667	-0.445904	-0.273420
O22	O	1.527667	0.054096	0.226580
O23	O	0.907306	-0.445807	-0.445306
O24	O	1.407306	0.054193	0.054694
O25	O	1.027734	-0.575978	-0.747327
O26	O	1.527734	-0.075978	-0.247327
O27	O	0.907305	-0.575983	-0.575497
O28	O	1.407305	-0.075983	-0.075497
O29	O	1.118982	-0.445798	-0.747329
O30	O	1.618982	0.054202	-0.247329
O31	O	1.118860	-0.747960	-0.445204
O32	O	1.618860	-0.247960	0.054796
O33	O	1.027664	-0.747886	-0.575439
O34	O	1.527664	-0.247886	-0.075439
C35	C	1.073274	-0.786388	-0.510338
C36	C	1.573274	-0.286388	-0.010338
C37	C	1.073326	-0.904218	-0.510362
C38	C	1.573326	-0.404218	-0.010362
C39	C	0.880359	-0.510886	-0.510408
C40	C	1.380359	-0.010886	-0.010408
C41	C	0.797813	-0.510880	-0.510453
C42	C	1.297813	-0.010880	-0.010453
C43	C	1.130605	-1.071784	-0.428265
C44	C	1.630605	-0.571784	0.071735
C45	C	1.130792	-0.949223	-0.428466
C46	C	1.630792	-0.449223	0.071534
C47	C	1.094553	-0.948606	-0.622099
C48	C	1.594553	-0.448606	-0.122099
C49	C	1.095007	-1.071204	-0.621663
C50	C	1.595007	-0.571204	-0.121663
C51	C	0.994798	-1.071524	-0.481825
C52	C	1.494798	-0.571524	0.018175
C53	C	0.995174	-0.948920	-0.479318
C54	C	1.495174	-0.448920	0.020682
C55	C	0.598384	-0.581872	-0.581083
C56	C	1.098384	-0.081872	-0.081083
C57	C	0.548974	-0.485209	-0.607165
C58	C	1.048974	0.014791	-0.107165
C59	C	0.646683	-0.510939	-0.510401
C60	C	1.146683	-0.010939	-0.010401
C61	C	0.549010	-0.607658	-0.484318
C62	C	1.049010	-0.107658	0.015682
C63	C	0.500698	-0.511005	-0.510353
C64	C	1.000698	-0.011005	-0.010353
C65	C	0.598361	-0.414225	-0.536534
C66	C	1.098361	0.085775	-0.036534
C67	C	0.598401	-0.536739	-0.413642
C68	C	1.098401	-0.036739	0.086358
C69	C	0.549015	-0.440009	-0.439687
C70	C	1.049015	0.059991	0.060313
C71	C	0.730781	-0.510903	-0.510432
C72	C	1.230781	-0.010903	-0.010432
C73	C	0.416601	-0.511031	-0.510323
C74	C	0.916601	-0.011031	-0.010323
C75	C	1.267017	-0.511032	-0.510318
C76	C	1.767017	-0.011032	-0.010318
C77	C	1.349563	-0.511063	-0.510298
C78	C	1.849563	-0.011063	-0.010298
C79	C	1.073366	-0.510876	-0.786868
C80	C	1.573366	-0.010876	-0.286868
C81	C	1.073389	-0.510841	-0.904698
C82	C	1.573389	-0.010841	-0.404698
C83	C	1.073369	-0.234453	-0.510411
C84	C	1.573369	0.265547	-0.010411
C85	C	1.073393	-0.116623	-0.510432
C86	C	1.573393	0.383377	-0.010432
C87	C	1.015808	-0.592351	-1.072262
C88	C	1.515808	-0.092351	-0.572262
C89	C	1.015959	-0.592755	-0.949702
C90	C	1.515959	-0.092755	-0.449702
C91	C	1.151642	-0.541181	-0.949186
C92	C	1.651642	-0.041181	-0.449186
C93	C	1.151326	-0.541692	-1.071784
C94	C	1.651326	-0.041692	-0.571784
C95	C	1.053458	-0.398536	-1.071908
C96	C	1.553458	0.101464	-0.571908
C97	C	1.051712	-0.399208	-0.949302
C98	C	1.551712	0.100792	-0.449302
C99	C	1.073300	-0.510963	-0.234933
C100	C	1.573300	-0.010963	0.265067
C101	C	1.073420	-0.510700	-0.117103
C102	C	1.573420	-0.010700	0.382897
H103	H	1.117511	-0.919217	-0.345614
H104	H	1.617511	-0.419217	0.154386
Cl105	Cl	0.631923	-0.570422	-0.287354
Cl106	Cl	1.131923	-0.070422	0.212646
H107	H	0.994125	-0.376328	-0.920227
H108	H	1.494125	0.123672	-0.420227
H109	H	0.957932	-0.573767	-0.919623
H110	H	1.457932	-0.073767	-0.419623
H111	H	1.090608	-0.335155	-0.918668
H112	H	1.590608	0.164845	-0.418668
Cl113	Cl	1.032172	-0.903606	-0.719152
Cl114	Cl	1.532172	-0.403606	-0.219152
Cl115	Cl	0.515540	-0.733897	-0.450286
Cl116	Cl	1.015540	-0.233897	0.049714
Cl117	Cl	0.515754	-0.347337	-0.347370
Cl118	Cl	1.015754	0.152663	0.152630
Cl119	Cl	1.035911	-0.719914	-1.119907
Cl120	Cl	1.535911	-0.219914	-0.619907
H121	H	0.979169	-0.919919	-0.397090
H122	H	1.479169	-0.419919	0.102910
Cl123	Cl	0.631854	-0.674327	-0.673465
Cl124	Cl	1.131854	-0.174327	-0.173465
H125	H	1.151354	-0.917833	-0.646739
H126	H	1.651354	-0.417833	-0.146739
Cl127	Cl	1.177447	-0.668285	-1.115947
Cl128	Cl	1.677447	-0.168285	-0.615947
Cl129	Cl	0.925948	-0.563314	-1.117792
Cl130	Cl	1.425948	-0.063314	-0.617792
Cl131	Cl	0.966890	-0.355846	-1.119651
Cl132	Cl	1.466890	0.144154	-0.619651
Cl133	Cl	1.178215	-0.666448	-0.901795
Cl134	Cl	1.678215	-0.166448	-0.401795
H135	H	0.950247	-0.918293	-0.534779
H136	H	1.450247	-0.418293	-0.034779
Cl137	Cl	0.928983	-1.116294	-0.574217
Cl138	Cl	1.428983	-0.616294	-0.074217
H139	H	1.189005	-0.919831	-0.447385
H140	H	1.689005	-0.419831	0.052615
Cl141	Cl	0.964995	-1.119391	-0.358222
Cl142	Cl	1.464995	-0.619391	0.141778
H143	H	0.527264	-0.463409	-0.688972
H144	H	1.027264	0.036591	-0.188972
Cl145	Cl	1.118242	-0.304613	-1.116679
Cl146	Cl	1.618242	0.195387	-0.616679
H147	H	1.029137	-0.675906	-0.920379
H148	H	1.529137	-0.175906	-0.420379
Cl149	Cl	1.220002	-1.119245	-0.457146
Cl150	Cl	1.720002	-0.619245	0.042854
Cl151	Cl	0.631686	-0.287947	-0.570710
Cl152	Cl	1.131686	0.212053	-0.070710
H153	H	1.195708	-0.484804	-1.101448
H154	H	1.695708	0.015196	-0.601448
Cl155	Cl	1.219697	-0.452270	-0.904184
Cl156	Cl	1.719697	0.047730	-0.404184
Cl157	Cl	1.183705	-1.115254	-0.659077
Cl158	Cl	1.683705	-0.615254	-0.159077
H159	H	1.055162	-1.100861	-0.684991
H160	H	1.555162	-0.600861	-0.184991
Cl161	Cl	1.110364	-1.117411	-0.299970
Cl162	Cl	1.610364	-0.617411	0.200030
