data_functionalizedCrystal
_audit_creation_method	'MofGen! by Chris Wilmer'
_symmetry_space_group_name_H-M	'P1'
_symmetry_Int_Tables_number	1
_symmetry_cell_setting	triclinic
loop_
_symmetry_equiv_pos_as_xyz
  x,y,z
_cell_length_a	13.339070
_cell_length_b	10.654550
_cell_length_c	9.130313
_cell_angle_alpha	89.993688
_cell_angle_beta	90.004309
_cell_angle_gamma	79.942888
loop_
_atom_site_label
_atom_site_type_symbol
_atom_site_fract_x
_atom_site_fract_y
_atom_site_fract_z
O1	O	1.346711	-0.631125	0.121851
O2	O	1.051602	-0.548286	0.121843
O3	O	1.205941	-0.409257	0.121838
O4	O	1.192371	-0.770154	0.121856
O5	O	1.205928	-0.409241	-0.121761
O6	O	1.051589	-0.548270	-0.121756
O7	O	1.346697	-0.631108	-0.121748
Cu8	Cu	1.199142	-0.589687	-0.143994
Cu9	Cu	1.199158	-0.589707	0.144089
O10	O	1.192358	-0.770137	-0.121743
C11	C	1.013808	-0.534285	0.000042
C12	C	0.901214	-0.492575	0.000039
C13	C	1.204938	-0.362115	0.000039
C14	C	1.201957	-0.221665	0.000041
C15	C	1.193361	-0.817280	0.000059
C16	C	1.196342	-0.957730	0.000066
C17	C	0.538696	-0.816889	0.000078
C18	C	0.644484	-0.856082	0.000086
C19	C	0.708672	-0.765208	0.000074
C20	C	0.667061	-0.635136	0.000054
C21	C	0.561263	-0.595939	0.000058
C22	C	0.731238	-0.544259	0.000054
C23	C	0.689628	-0.414186	0.000034
C24	C	0.583840	-0.374996	0.000037
C25	C	0.519653	-0.465870	0.000049
C26	C	0.837036	-0.583455	0.000050
C27	C	0.859603	-0.362505	0.000030
C28	C	0.753816	-0.323313	0.000022
C29	C	1.384491	-0.645110	0.000056
C30	C	1.497086	-0.686819	0.000069
N31	N	1.199138	-0.589675	-0.346617
C32	C	1.292830	-0.172863	0.000045
C33	C	1.290023	-0.040894	0.000062
C34	C	1.105463	-0.006540	0.000068
C35	C	1.108271	-0.138506	0.000060
C36	C	1.137127	-0.491876	-0.576669
C37	C	1.137114	-0.491855	-0.423332
C38	C	1.261188	-0.687516	-0.423247
C39	C	1.261205	-0.687532	-0.576581
N40	N	1.199169	-0.589712	0.346712
H41	H	0.794808	-0.797127	0.000083
H42	H	1.029186	0.061184	0.000080
C43	C	0.850361	-0.783845	0.125291
C44	C	0.882762	-0.726425	0.000062
H45	H	0.878584	-0.872116	0.125289
H46	H	0.872353	-0.744888	0.210218
H47	H	0.778168	-0.773487	0.125279
H48	H	0.954955	-0.736774	0.000079
H49	H	0.860776	-0.765394	-0.084887
H50	H	1.369115	-0.240568	0.000032
H51	H	1.086594	-0.412186	-0.360956
C52	C	1.302471	-0.912305	-0.375979
C53	C	1.329367	-0.795045	-0.338927
H54	H	1.344567	-0.978690	-0.323931
H55	H	1.233257	-0.911457	-0.350868
H56	H	1.311365	-0.926299	-0.478268
H57	H	1.320465	-0.781047	-0.236639
H58	H	1.398598	-0.795891	-0.364028
H59	H	1.034267	-0.178239	0.000062
C60	C	0.750384	-1.028339	-0.125068
C61	C	0.690237	-0.999044	0.000136
H62	H	0.778638	-1.116601	-0.125020
H63	H	0.709580	-1.008492	-0.210012
H64	H	0.803735	-0.979804	-0.125069
H65	H	0.636881	-1.047573	0.000132
H66	H	0.731043	-1.018904	0.085102
C67	C	1.431430	-0.796297	-0.623707
C68	C	1.329408	-0.795084	-0.660807
H69	H	1.473533	-0.862696	-0.675699
H70	H	1.449664	-0.716750	-0.648853
H71	H	1.440282	-0.810290	-0.521406
H72	H	1.320554	-0.781082	-0.763107
H73	H	1.311167	-0.874650	-0.635671
H74	H	0.486426	-0.890864	0.000101
C75	C	1.393919	0.087614	-0.125146
C76	C	1.389910	0.012755	0.000065
H77	H	1.455586	0.120739	-0.125134
H78	H	1.391177	0.036862	-0.210085
H79	H	1.337719	0.156023	-0.125121
H80	H	1.446107	-0.055660	0.000035
H81	H	1.392662	0.063509	0.085026
C82	C	1.014495	-0.298464	-0.561349
C83	C	1.068949	-0.384346	-0.660988
H84	H	0.972411	-0.232073	-0.613405
H85	H	0.973338	-0.341881	-0.501552
H86	H	1.060809	-0.263178	-0.501533
H87	H	1.022634	-0.419639	-0.720798
H88	H	1.110109	-0.340923	-0.720811
C89	C	0.374256	-0.349588	0.125267
C90	C	0.403365	-0.422788	0.000047
H91	H	0.302464	-0.322991	0.125259
H92	H	0.394024	-0.399265	0.210200
H93	H	0.406527	-0.276852	0.125249
H94	H	0.371099	-0.495530	0.000070
H95	H	0.383586	-0.373110	-0.084908
H96	H	0.549965	-0.269083	0.000038
H97	H	0.719921	-0.217405	0.000019
C98	C	0.991681	-0.278411	0.125233
C99	C	0.930150	-0.262606	0.000015
H100	H	1.035241	-0.216747	0.125220
H101	H	0.949949	-0.267712	0.210167
H102	H	1.031596	-0.361489	0.125218
H103	H	0.890228	-0.179530	0.000035
H104	H	0.971886	-0.273294	-0.084942
