data_functionalizedCrystal
_audit_creation_method	'MofGen! by Chris Wilmer'
_symmetry_space_group_name_H-M	'P1'
_symmetry_Int_Tables_number	1
_symmetry_cell_setting	triclinic
loop_
_symmetry_equiv_pos_as_xyz
  x,y,z
_cell_length_a	21.295417
_cell_length_b	19.121141
_cell_length_c	19.121175
_cell_angle_alpha	94.788888
_cell_angle_beta	92.410242
_cell_angle_gamma	92.416218
loop_
_atom_site_label
_atom_site_type_symbol
_atom_site_fract_x
_atom_site_fract_y
_atom_site_fract_z
Zn1	Zn	-0.309440	-1.092590	-0.443682
Zn2	Zn	-0.059440	-0.842590	-0.193682
Zn3	Zn	0.190560	-0.592590	0.056318
Zn4	Zn	0.440560	-0.342590	0.306318
Zn5	Zn	-0.410016	-1.087480	-0.326007
Zn6	Zn	-0.160016	-0.837480	-0.076007
Zn7	Zn	0.089984	-0.587480	0.173993
Zn8	Zn	0.339984	-0.337480	0.423993
Zn9	Zn	-0.300069	-0.969916	-0.321016
Zn10	Zn	-0.050069	-0.719916	-0.071016
Zn11	Zn	0.199931	-0.469916	0.178984
Zn12	Zn	0.449931	-0.219916	0.428984
Zn13	Zn	-0.409972	-0.974880	-0.438615
Zn14	Zn	-0.159972	-0.724880	-0.188615
Zn15	Zn	0.090028	-0.474880	0.061385
Zn16	Zn	0.340028	-0.224880	0.311385
O17	O	-0.357374	-1.031216	-0.382330
O18	O	-0.107374	-0.781216	-0.132330
O19	O	0.142626	-0.531216	0.117670
O20	O	0.392626	-0.281216	0.367670
O21	O	-0.326722	-1.190375	-0.432281
O22	O	-0.076722	-0.940375	-0.182281
O23	O	0.173278	-0.690375	0.067719
O24	O	0.423278	-0.440375	0.317719
O25	O	-0.391527	-1.067669	-0.226882
O26	O	-0.141527	-0.817669	0.023118
O27	O	0.108473	-0.567669	0.273118
O28	O	0.358473	-0.317669	0.523118
O29	O	-0.213227	-0.986250	-0.337320
O30	O	0.036773	-0.736250	-0.087320
O31	O	0.286773	-0.486250	0.162680
O32	O	0.536773	-0.236250	0.412680
O33	O	-0.400614	-1.186621	-0.345826
O34	O	-0.150614	-0.936621	-0.095826
O35	O	0.099386	-0.686621	0.154174
O36	O	0.349386	-0.436621	0.404174
O37	O	-0.220111	-1.076378	-0.427442
O38	O	0.029889	-0.826378	-0.177442
O39	O	0.279889	-0.576378	0.072558
O40	O	0.529889	-0.326378	0.322558
O41	O	-0.310750	-0.981295	-0.223216
O42	O	-0.060750	-0.731295	0.026784
O43	O	0.189250	-0.481295	0.276784
O44	O	0.439250	-0.231295	0.526784
O45	O	-0.310708	-0.872111	-0.332407
O46	O	-0.060708	-0.622111	-0.082407
O47	O	0.189292	-0.372111	0.167593
O48	O	0.439292	-0.122111	0.417593
O49	O	-0.400540	-0.994710	-0.537750
O50	O	-0.150540	-0.744710	-0.287750
O51	O	0.099460	-0.494710	-0.037750
O52	O	0.349460	-0.244710	0.212250
O53	O	-0.391454	-0.875758	-0.418807
O54	O	-0.141454	-0.625758	-0.168807
O55	O	0.108546	-0.375758	0.081193
O56	O	0.358546	-0.125758	0.331193
O57	O	-0.326680	-1.081192	-0.541473
O58	O	-0.076680	-0.831192	-0.291473
O59	O	0.173320	-0.581192	-0.041473
O60	O	0.423320	-0.331192	0.208527
O61	O	-0.498096	-1.072482	-0.340913
O62	O	-0.248096	-0.822482	-0.090913
O63	O	0.001904	-0.572482	0.159087
O64	O	0.251904	-0.322482	0.409087
O65	O	-0.498064	-0.989755	-0.423646
O66	O	-0.248064	-0.739755	-0.173646
O67	O	0.001936	-0.489755	0.076354
O68	O	0.251936	-0.239755	0.326354
C69	C	-0.350060	-0.848404	-0.374516
C70	C	-0.100060	-0.598404	-0.124516
C71	C	0.149940	-0.348404	0.125484
C72	C	0.399940	-0.098404	0.375484
C73	C	-0.346947	-0.770197	-0.371190
C74	C	-0.096947	-0.520197	-0.121190
C75	C	0.153053	-0.270197	0.128810
C76	C	0.403053	-0.020197	0.378810
C77	C	-0.387582	-0.735369	-0.414540
C78	C	-0.137582	-0.485369	-0.164540
C79	C	0.112418	-0.235369	0.085460
C80	C	0.362418	0.014631	0.335460
C81	C	-0.384648	-0.661885	-0.411418
C82	C	-0.134648	-0.411885	-0.161418
C83	C	0.115352	-0.161885	0.088582
C84	C	0.365352	0.088115	0.338582
C85	C	-0.341082	-0.623230	-0.364942
C86	C	-0.091082	-0.373230	-0.114942
C87	C	0.158918	-0.123230	0.135058
C88	C	0.408918	0.126770	0.385058
C89	C	-0.300443	-0.658063	-0.321590
C90	C	-0.050443	-0.408063	-0.071590
C91	C	0.199557	-0.158063	0.178410
C92	C	0.449557	0.091937	0.428410
C93	C	-0.303374	-0.731546	-0.324716
C94	C	-0.053374	-0.481546	-0.074716
C95	C	0.196626	-0.231546	0.175284
C96	C	0.446626	0.018454	0.425284
C97	C	-0.330124	-0.401265	-0.353259
C98	C	-0.080124	-0.151265	-0.103259
C99	C	0.169876	0.098735	0.146741
C100	C	0.419876	0.348735	0.396741
C101	C	-0.327198	-0.327777	-0.350135
C102	C	-0.077198	-0.077777	-0.100135
C103	C	0.172802	0.172223	0.149865
C104	C	0.422802	0.422223	0.399865
C105	C	-0.411402	-0.331604	-0.439965
C106	C	-0.161402	-0.081604	-0.189965
C107	C	0.088598	0.168396	0.060035
C108	C	0.338598	0.418396	0.310035
C109	C	-0.414332	-0.405088	-0.443084
C110	C	-0.164332	-0.155088	-0.193084
C111	C	0.085668	0.094912	0.056916
C112	C	0.335668	0.344912	0.306916
C113	C	-0.373690	-0.439914	-0.399734
C114	C	-0.123690	-0.189914	-0.149734
C115	C	0.126310	0.060086	0.100266
C116	C	0.376310	0.310086	0.350266
C117	C	-0.338084	-0.548118	-0.361748
C118	C	-0.088084	-0.298118	-0.111748
C119	C	0.161916	-0.048118	0.138252
C120	C	0.411916	0.201882	0.388252
C121	C	-0.376686	-0.515026	-0.402932
C122	C	-0.126686	-0.265026	-0.152932
C123	C	0.123314	-0.015026	0.097068
C124	C	0.373314	0.234974	0.347068
C125	C	-0.520921	-1.031122	-0.382287
C126	C	-0.270921	-0.781122	-0.132287
C127	C	-0.020921	-0.531122	0.117713
C128	C	0.229079	-0.281122	0.367713
C129	C	-0.590890	-1.031148	-0.382295
C130	C	-0.340890	-0.781148	-0.132295
C131	C	-0.090890	-0.531148	0.117705
C132	C	0.159110	-0.281148	0.367705
C133	C	-0.623756	-1.074265	-0.339264
C134	C	-0.373756	-0.824265	-0.089264
C135	C	-0.123756	-0.574265	0.160736
C136	C	0.126244	-0.324265	0.410736
C137	C	-0.689500	-1.074299	-0.339281
C138	C	-0.439500	-0.824299	-0.089281
C139	C	-0.189500	-0.574299	0.160719
C140	C	0.060500	-0.324299	0.410719
C141	C	-0.722376	-1.031202	-0.382322
C142	C	-0.472376	-0.781202	-0.132322
C143	C	-0.222376	-0.531202	0.117678
C144	C	0.027624	-0.281202	0.367678
C145	C	-0.689502	-0.988081	-0.425362
C146	C	-0.439502	-0.738081	-0.175362
C147	C	-0.189502	-0.488081	0.074638
C148	C	0.060498	-0.238081	0.324638
C149	C	-0.623760	-0.988054	-0.425348
C150	C	-0.373760	-0.738054	-0.175348
C151	C	-0.123760	-0.488054	0.074652
C152	C	0.126240	-0.238054	0.324652
N153	N	-0.823397	-0.969878	-0.385055
N154	N	-0.573397	-0.719878	-0.135055
N155	N	-0.323397	-0.469878	0.114945
N156	N	-0.073397	-0.219878	0.364945
N157	N	-0.885850	-0.969906	-0.385063
N158	N	-0.635850	-0.719906	-0.135063
N159	N	-0.385850	-0.469906	0.114937
N160	N	-0.135850	-0.219906	0.364937
C161	C	-0.920455	-1.031283	-0.382366
C162	C	-0.670455	-0.781283	-0.132366
C163	C	-0.420455	-0.531283	0.117634
C164	C	-0.170455	-0.281283	0.367634
N165	N	-0.890248	-1.092632	-0.379645
N166	N	-0.640248	-0.842632	-0.129645
N167	N	-0.390248	-0.592632	0.120355
N168	N	-0.140248	-0.342632	0.370355
N169	N	-0.827790	-1.092603	-0.379633
N170	N	-0.577790	-0.842603	-0.129633
N171	N	-0.327790	-0.592603	0.120367
N172	N	-0.077790	-0.342603	0.370367
C173	C	-0.793663	-1.031227	-0.382341
C174	C	-0.543663	-0.781227	-0.132341
C175	C	-0.293663	-0.531227	0.117659
C176	C	-0.043663	-0.281227	0.367659
C177	C	-1.024609	-1.074441	-0.339351
C178	C	-0.774609	-0.824441	-0.089351
C179	C	-0.524609	-0.574441	0.160649
C180	C	-0.274609	-0.324441	0.410649
C181	C	-1.090354	-1.074476	-0.339373
C182	C	-0.840354	-0.824476	-0.089373
C183	C	-0.590354	-0.574476	0.160627
C184	C	-0.340354	-0.324476	0.410627
C185	C	-1.090355	-0.988252	-0.425449
C186	C	-0.840355	-0.738252	-0.175449
C187	C	-0.590355	-0.488252	0.074551
C188	C	-0.340355	-0.238252	0.324551
C189	C	-1.024611	-0.988223	-0.425431
C190	C	-0.774611	-0.738223	-0.175431
C191	C	-0.524611	-0.488223	0.074569
C192	C	-0.274611	-0.238223	0.324569
C193	C	-0.991741	-1.031316	-0.382378
C194	C	-0.741741	-0.781316	-0.132378
C195	C	-0.491741	-0.531316	0.117622
C196	C	-0.241741	-0.281316	0.367622
C197	C	-0.193191	-1.031330	-0.382390
C198	C	0.056809	-0.781330	-0.132390
C199	C	0.306809	-0.531330	0.117610
C200	C	0.556809	-0.281330	0.367610
C201	C	-0.123225	-1.031379	-0.382415
C202	C	0.126775	-0.781379	-0.132415
C203	C	0.376775	-0.531379	0.117585
C204	C	0.626775	-0.281379	0.367585
C205	C	-0.364651	-1.039075	-0.565856
C206	C	-0.114651	-0.789075	-0.315856
C207	C	0.135349	-0.539075	-0.065856
C208	C	0.385349	-0.289075	0.184144
C209	C	-0.367751	-1.042423	-0.644064
C210	C	-0.117751	-0.792423	-0.394064
C211	C	0.132249	-0.542423	-0.144064
C212	C	0.382249	-0.292423	0.105936
C213	C	-0.364714	-0.214742	-0.390167
C214	C	-0.114714	0.035258	-0.140167
C215	C	0.135286	0.285258	0.109833
C216	C	0.385286	0.535258	0.359833
C217	C	-0.367833	-0.292949	-0.393485
C218	C	-0.117833	-0.042949	-0.143485
C219	C	0.132167	0.207051	0.106515
C220	C	0.382167	0.457051	0.356515
C221	C	-0.327153	-0.999028	-0.678896
C222	C	-0.077153	-0.749028	-0.428896
C223	C	0.172847	-0.499028	-0.178896
C224	C	0.422847	-0.249028	0.071104
C225	C	-0.330071	-1.002172	-0.752381
C226	C	-0.080071	-0.752172	-0.502381
C227	C	0.169929	-0.502172	-0.252381
C228	C	0.419929	-0.252172	-0.002381
C229	C	-0.373586	-1.048715	-0.791031
C230	C	-0.123586	-0.798715	-0.541031
C231	C	0.126414	-0.548715	-0.291031
C232	C	0.376414	-0.298715	-0.041031
C233	C	-0.414189	-1.092112	-0.756193
C234	C	-0.164189	-0.842112	-0.506193
C235	C	0.085811	-0.592112	-0.256193
C236	C	0.335811	-0.342112	-0.006193
C237	C	-0.411273	-1.088964	-0.682710
C238	C	-0.161273	-0.838964	-0.432710
C239	C	0.088727	-0.588964	-0.182710
C240	C	0.338727	-0.338964	0.067290
C241	C	-0.384497	-1.060466	-1.012998
C242	C	-0.134497	-0.810466	-0.762998
C243	C	0.115503	-0.560466	-0.512998
C244	C	0.365503	-0.310466	-0.262998
C245	C	-0.387409	-1.063612	-1.086486
C246	C	-0.137409	-0.813612	-0.836486
C247	C	0.112591	-0.563612	-0.586486
C248	C	0.362591	-0.313612	-0.336486
C249	C	-0.303292	-0.973671	-1.082668
C250	C	-0.053292	-0.723671	-0.832668
C251	C	0.196708	-0.473671	-0.582668
C252	C	0.446708	-0.223671	-0.332668
C253	C	-0.300377	-0.970530	-1.009184
C254	C	-0.050377	-0.720530	-0.759184
C255	C	0.199623	-0.470530	-0.509184
C256	C	0.449623	-0.220530	-0.259184
C257	C	-0.340982	-1.013924	-0.974353
C258	C	-0.090982	-0.763924	-0.724353
C259	C	0.159018	-0.513924	-0.474353
C260	C	0.409018	-0.263924	-0.224353
C261	C	-0.376569	-1.051931	-0.866144
C262	C	-0.126569	-0.801931	-0.616144
C263	C	0.123431	-0.551931	-0.366144
C264	C	0.373431	-0.301931	-0.116144
C265	C	-0.338002	-1.010704	-0.899241
C266	C	-0.088002	-0.760704	-0.649241
C267	C	0.161998	-0.510704	-0.399241
C268	C	0.411998	-0.260704	-0.149241
C269	C	-0.350083	-1.023429	-0.199520
C270	C	-0.100083	-0.773429	0.050480
C271	C	0.149917	-0.523429	0.300480
C272	C	0.399917	-0.273429	0.550480
C273	C	-0.346810	-1.020217	-0.121319
C274	C	-0.096810	-0.770217	0.128681
C275	C	0.153190	-0.520217	0.378681
C276	C	0.403190	-0.270217	0.628681
H277	H	-0.297035	-0.429611	-0.317956
H278	H	-0.047035	-0.179611	-0.067956
H279	H	0.202965	0.070389	0.182044
H280	H	0.452965	0.320389	0.432044
H281	H	-0.716265	-1.109413	-0.304240
H282	H	-0.466265	-0.859413	-0.054240
H283	H	-0.216265	-0.609413	0.195760
H284	H	0.033735	-0.359413	0.445760
H285	H	-0.449809	-0.436556	-0.480928
H286	H	-0.199809	-0.186556	-0.230928
H287	H	0.050191	0.063444	0.019072
H288	H	0.300191	0.313444	0.269072
F289	F	-0.291691	-0.961172	-0.858105
F290	F	-0.041691	-0.711172	-0.608105
F291	F	0.208309	-0.461172	-0.358105
F292	F	0.458309	-0.211172	-0.108105
F293	F	-1.125333	-1.120375	-0.293576
F294	F	-0.875333	-0.870375	-0.043576
F295	F	-0.625333	-0.620375	0.206424
F296	F	-0.375333	-0.370375	0.456424
H297	H	-0.417567	-1.095793	-0.984647
H298	H	-0.167567	-0.845793	-0.734647
H299	H	0.082433	-0.595793	-0.484647
H300	H	0.332433	-0.345793	-0.234647
H301	H	-0.412155	-0.546502	-0.440776
H302	H	-0.162155	-0.296502	-0.190776
H303	H	0.087845	-0.046502	0.059224
H304	H	0.337845	0.203498	0.309224
F305	F	-0.254073	-0.616922	-0.272130
F306	F	-0.004073	-0.366922	-0.022130
F307	F	0.245927	-0.116922	0.227870
F308	F	0.495927	0.133078	0.477870
F309	F	-0.254062	-0.920994	-0.968055
F310	F	-0.004062	-0.670994	-0.718055
F311	F	0.245938	-0.420994	-0.468055
F312	F	0.495938	-0.170994	-0.218055
H313	H	-0.411999	-1.089826	-0.897621
H314	H	-0.161999	-0.839826	-0.647621
H315	H	0.088001	-0.589826	-0.397621
H316	H	0.338001	-0.339826	-0.147621
H317	H	-0.270281	-0.759902	-0.289419
H318	H	-0.020281	-0.509902	-0.039419
H319	H	0.229719	-0.259902	0.210581
H320	H	0.479719	-0.009902	0.460581
H321	H	-0.597000	-0.952942	-0.460390
H322	H	-0.347000	-0.702942	-0.210390
H323	H	-0.097000	-0.452942	0.039610
H324	H	0.153000	-0.202942	0.289610
H325	H	-0.716274	-0.952993	-0.460407
H326	H	-0.466274	-0.702993	-0.210407
H327	H	-0.216274	-0.452993	0.039593
H328	H	0.033726	-0.202993	0.289593
H329	H	-0.302614	-0.516637	-0.323905
H330	H	-0.052614	-0.266637	-0.073905
H331	H	0.197386	-0.016637	0.176095
H332	H	0.447386	0.233363	0.426095
H333	H	-0.997845	-1.109532	-0.304297
H334	H	-0.747845	-0.859532	-0.054297
H335	H	-0.497845	-0.609532	0.195703
H336	H	-0.247845	-0.359532	0.445703
F337	F	-0.427898	-0.624822	-0.457558
F338	F	-0.177898	-0.374822	-0.207558
F339	F	0.072102	-0.124822	0.042442
F340	F	0.322102	0.125178	0.292442
F341	F	-0.433954	-0.776502	-0.464003
F342	F	-0.183954	-0.526502	-0.214003
F343	F	0.066046	-0.276502	0.035997
F344	F	0.316046	-0.026502	0.285997
F345	F	-1.125339	-0.942388	-0.471261
F346	F	-0.875339	-0.692388	-0.221261
F347	F	-0.625339	-0.442388	0.028739
F348	F	-0.375339	-0.192388	0.278739
H349	H	-0.297014	-0.966833	-0.780738
H350	H	-0.047014	-0.716833	-0.530738
H351	H	0.202986	-0.466833	-0.280738
H352	H	0.452986	-0.216833	-0.030738
F353	F	-0.454654	-0.294534	-0.486095
F354	F	-0.204654	-0.044534	-0.236095
F355	F	0.045346	0.205466	0.013905
F356	F	0.295346	0.455466	0.263905
H357	H	-0.997849	-0.953109	-0.460468
H358	H	-0.747849	-0.703109	-0.210468
H359	H	-0.497849	-0.453109	0.039532
H360	H	-0.247849	-0.203109	0.289532
H361	H	-0.291715	-0.961132	-0.647432
H362	H	-0.041715	-0.711132	-0.397432
H363	H	0.208285	-0.461132	-0.147432
H364	H	0.458285	-0.211132	0.102568
H365	H	-0.291714	-0.296306	-0.312293
H366	H	-0.041714	-0.046306	-0.062293
H367	H	0.208286	0.203694	0.187707
H368	H	0.458286	0.453694	0.437707
H369	H	-0.270234	-0.938341	-1.111036
H370	H	-0.020234	-0.688341	-0.861036
H371	H	0.229766	-0.438341	-0.611036
H372	H	0.479766	-0.188341	-0.361036
F373	F	-0.433721	-1.113156	-1.127620
F374	F	-0.183721	-0.863156	-0.877620
F375	F	0.066279	-0.613156	-0.627620
F376	F	0.316279	-0.363156	-0.377620
H377	H	-0.449623	-1.130004	-0.787668
H378	H	-0.199623	-0.880004	-0.537668
H379	H	0.050377	-0.630004	-0.287668
H380	H	0.300377	-0.380004	-0.037668
H381	H	-0.444328	-1.124306	-0.654351
H382	H	-0.194328	-0.874306	-0.404351
H383	H	0.055672	-0.624306	-0.154351
H384	H	0.305672	-0.374306	0.095649
F385	F	-0.588778	-1.120138	-0.293451
F386	F	-0.338778	-0.870138	-0.043451
F387	F	-0.088778	-0.620138	0.206549
F388	F	0.161222	-0.370138	0.456549
