data_functionalizedCrystal
_audit_creation_method	'MofGen! by Chris Wilmer'
_symmetry_space_group_name_H-M	'P1'
_symmetry_Int_Tables_number	1
_symmetry_cell_setting	triclinic
loop_
_symmetry_equiv_pos_as_xyz
  x,y,z
_cell_length_a	17.699083
_cell_length_b	16.776229
_cell_length_c	17.699083
_cell_angle_alpha	89.995692
_cell_angle_beta	96.716985
_cell_angle_gamma	89.999727
loop_
_atom_site_label
_atom_site_type_symbol
_atom_site_fract_x
_atom_site_fract_y
_atom_site_fract_z
O1	O	1.004077	0.066178	-0.095710
O2	O	0.783699	0.066204	-0.108162
O3	O	0.900114	0.066183	0.008253
O4	O	0.887662	0.066199	-0.212125
O5	O	0.900101	-0.066393	0.008254
O6	O	0.783686	-0.066372	-0.108162
O7	O	1.004064	-0.066398	-0.095709
Zn8	Zn	0.893873	-0.087435	-0.101935
Zn9	Zn	0.893890	0.087241	-0.101936
O10	O	0.887649	-0.066378	-0.212125
C11	C	0.755495	-0.000081	-0.107716
C12	C	0.671477	-0.000071	-0.106377
N13	N	0.893867	-0.206646	-0.101935
C14	C	0.622856	-0.000066	-0.174710
C15	C	0.543913	-0.000077	-0.173448
C16	C	0.513592	-0.000086	-0.103852
C17	C	0.562219	-0.000093	-0.035513
C18	C	0.641161	-0.000088	-0.036776
C19	C	0.243856	-0.000113	-0.030418
C20	C	0.164908	-0.000115	-0.029160
C21	C	0.146608	-0.000101	-0.167090
C22	C	0.225550	-0.000097	-0.168353
C23	C	0.274170	-0.000108	-0.100015
C24	C	0.359769	-0.000098	-0.101384
C25	C	0.427995	-0.000090	-0.102481
C26	C	0.939682	-0.248362	-0.147783
C27	C	0.939690	-0.331814	-0.147781
C28	C	0.893879	-0.373549	-0.101933
C29	C	0.848062	-0.331827	-0.056079
C30	C	0.848058	-0.248376	-0.056078
C31	C	0.848077	-0.668374	-0.056080
C32	C	0.848083	-0.751831	-0.056085
C33	C	0.939709	-0.751812	-0.147782
C34	C	0.939705	-0.668361	-0.147781
C35	C	0.893892	-0.626647	-0.101925
C36	C	0.893884	-0.536158	-0.101927
C37	C	0.893882	-0.464036	-0.101933
C38	C	1.032268	-0.000112	-0.096156
C39	C	1.116286	-0.000116	-0.097494
C40	C	0.899662	-0.000105	0.036451
C41	C	0.898323	-0.000105	0.120469
N42	N	0.893903	0.206452	-0.101931
C43	C	0.888102	-0.000087	-0.240322
C44	C	0.889440	-0.000082	-0.324340
C45	C	0.966656	-0.000114	0.169090
C46	C	0.965394	-0.000107	0.248033
C47	C	0.895798	-0.000096	0.278354
C48	C	0.827459	-0.000085	0.229727
C49	C	0.828722	-0.000086	0.150785
C50	C	0.822364	-0.000078	0.548090
C51	C	0.821106	-0.000078	0.627038
C52	C	0.959036	-0.000099	0.645338
C53	C	0.960299	-0.000100	0.566396
C54	C	0.891961	-0.000084	0.517776
C55	C	0.893330	-0.000090	0.432177
C56	C	0.894427	-0.000096	0.363951
H57	H	0.647537	-0.000058	-0.231384
Br58	Br	1.001871	-0.388426	-0.210006
Br59	Br	0.477929	-0.000068	-0.266191
Br60	Br	1.001855	-0.191730	-0.210012
H61	H	0.107012	-0.000097	-0.222734
H62	H	0.764429	-0.000071	0.651721
H63	H	0.810776	-0.785809	-0.018748
Br64	Br	1.058137	-0.000120	0.314016
H65	H	0.810751	-0.214412	-0.018743
Br66	Br	0.266696	-0.000077	-0.262808
H67	H	0.140225	-0.000124	0.027517
Br68	Br	0.733005	-0.000057	0.270875
Br69	Br	0.309831	-0.000130	0.062327
Br70	Br	1.061114	-0.000140	0.127948
H71	H	1.016971	-0.000113	0.541714
H72	H	0.537526	-0.000112	0.021154
Br73	Br	0.707148	-0.000101	0.055966
Br74	Br	1.001867	-0.611725	-0.210018
Br75	Br	0.785870	-0.611772	0.006123
H76	H	0.977015	-0.785786	-0.185119
H77	H	0.766718	-0.000065	0.508512
Br78	Br	0.785892	-0.388466	0.006148
H79	H	1.014680	-0.000107	0.684934
H80	H	0.773078	-0.000078	0.111198
