data_functionalizedCrystal
_audit_creation_method	'MofGen! by Chris Wilmer'
_symmetry_space_group_name_H-M	'P1'
_symmetry_Int_Tables_number	1
_symmetry_cell_setting	triclinic
loop_
_symmetry_equiv_pos_as_xyz
  x,y,z
_cell_length_a	13.897447
_cell_length_b	18.215407
_cell_length_c	13.897441
_cell_angle_alpha	89.979341
_cell_angle_beta	90.028354
_cell_angle_gamma	89.980549
loop_
_atom_site_label
_atom_site_type_symbol
_atom_site_fract_x
_atom_site_fract_y
_atom_site_fract_z
Zn1	Zn	-0.383995	-1.125100	0.545443
Zn2	Zn	-0.545314	-1.125020	0.384148
Zn3	Zn	-0.384035	-1.002032	0.384155
Zn4	Zn	-0.545250	-1.002010	0.545395
O5	O	-0.464649	-1.063540	0.464785
O6	O	-0.405405	-1.228073	0.524064
O7	O	-0.523964	-1.108681	0.249167
O8	O	-0.249048	-1.018400	0.405574
O9	O	-0.523926	-1.228014	0.405561
O10	O	-0.249019	-1.108818	0.524071
O11	O	-0.405472	-1.018323	0.249173
O12	O	-0.405410	-0.899045	0.405527
O13	O	-0.523816	-1.018362	0.680383
O14	O	-0.523854	-0.899028	0.523989
O15	O	-0.405343	-1.108796	0.680418
O16	O	-0.680287	-1.108659	0.405514
O17	O	-0.680240	-1.018284	0.523981
C18	C	-0.464630	-0.872334	0.464754
C19	C	-0.464645	-0.790535	0.464764
C20	C	-0.715263	-1.063481	0.464763
C21	C	-0.822477	-1.063522	0.464785
C22	C	-0.526414	-0.602352	0.526366
C23	C	-0.526416	-0.525493	0.526377
C24	C	-0.402889	-0.525481	0.403208
C25	C	-0.402883	-0.602338	0.403203
C26	C	-0.464651	-0.640772	0.464780
C27	C	-0.464659	-0.487056	0.464796
C28	C	-0.464661	-0.403722	0.464807
C29	C	-0.464648	-0.724111	0.464771
C30	C	-0.909547	-1.063558	0.464807
C31	C	-1.018779	-1.063609	0.464832
C32	C	-0.213056	-1.063620	0.464829
C33	C	-0.105842	-1.063655	0.464847
C34	C	-0.464568	-1.063585	0.716378
C35	C	-0.464533	-1.063605	0.823592
C36	C	-0.464665	-0.255493	0.464812
C37	C	-0.464664	-0.337292	0.464813
C38	C	-0.464660	-1.063538	0.214171
C39	C	-0.464422	-1.063661	0.106957
C40	C	-0.464506	-1.063620	0.910662
C41	C	-0.464462	-1.063641	1.019895
H42	H	-0.576708	-0.494215	0.576527
N43	N	-0.589485	-0.641623	0.589271
N44	N	-0.589472	-0.710245	0.589262
H45	H	-0.634016	-0.737980	0.633692
N46	N	-0.339804	-0.486209	0.340317
N47	N	-0.339817	-0.417587	0.340329
H48	H	-0.295263	-0.389851	0.295910
H49	H	-0.352582	-0.633620	0.353052
