data_functionalizedCrystal
_audit_creation_method	'MofGen! by Chris Wilmer'
_symmetry_space_group_name_H-M	'P1'
_symmetry_Int_Tables_number	1
_symmetry_cell_setting	triclinic
loop_
_symmetry_equiv_pos_as_xyz
  x,y,z
_cell_length_a	9.065218
_cell_length_b	16.992695
_cell_length_c	8.140239
_cell_angle_alpha	89.996131
_cell_angle_beta	89.997198
_cell_angle_gamma	87.842054
loop_
_atom_site_label
_atom_site_type_symbol
_atom_site_fract_x
_atom_site_fract_y
_atom_site_fract_z
O1	O	1.971073	0.115065	-0.136620
O2	O	1.542664	0.124504	-0.136623
O3	O	1.755151	0.005630	-0.136608
O4	O	1.758586	0.233939	-0.136634
O5	O	1.755138	0.005628	0.136619
O6	O	1.542651	0.124502	0.136605
O7	O	1.971060	0.115064	0.136607
Zn8	Zn	1.756854	0.119783	0.179986
Zn9	Zn	1.756871	0.119785	-0.180002
O10	O	1.758573	0.233938	0.136593
C11	C	1.487587	0.123596	-0.000009
C12	C	1.323492	0.120884	-0.000010
C13	C	1.750726	-0.023615	0.000005
C14	C	1.737542	-0.110753	0.000005
C15	C	1.864748	-0.160090	0.000007
C16	C	1.852352	-0.241964	-0.000009
C17	C	1.712748	-0.274500	-0.000015
C18	C	1.585533	-0.225157	-0.000022
C19	C	1.597931	-0.143284	-0.000019
C20	C	1.661364	-0.518463	-0.000038
C21	C	1.648976	-0.600343	-0.000037
C22	C	1.915797	-0.617144	-0.000026
C23	C	1.928182	-0.535269	-0.000012
C24	C	1.800967	-0.485933	-0.000029
N25	N	1.700074	-0.358189	-0.000026
N26	N	1.813642	-0.402245	-0.000029
C27	C	2.026138	0.115972	-0.000010
C28	C	2.190232	0.118684	-0.000020
C29	C	1.762998	0.263183	-0.000024
C30	C	1.776182	0.350320	-0.000034
N31	N	1.756853	0.119781	0.425669
N32	N	1.756882	0.119780	-0.425685
H33	H	1.955937	-0.282132	-0.000003
C34	C	1.520512	-0.416646	0.140404
C35	C	1.521538	-0.464234	-0.000045
H36	H	1.434190	-0.383161	0.140390
H37	H	1.521208	-0.448936	0.235668
H38	H	1.605437	-0.385557	0.140386
H39	H	1.436618	-0.495328	-0.000021
H40	H	1.520828	-0.431940	-0.095334
C41	C	2.180777	-0.625527	-0.000020
C42	C	2.055627	-0.671375	-0.000026
H43	H	2.267105	-0.659008	-0.000015
H44	H	2.180063	-0.593241	-0.095292
H45	H	2.180049	-0.593246	0.095270
H46	H	2.056350	-0.703652	-0.095322
H47	H	2.056342	-0.703675	0.095256
C48	C	1.354278	-0.236037	0.140412
C49	C	1.432072	-0.260914	-0.000036
H50	H	1.259532	-0.258107	0.140397
H51	H	1.407048	-0.252916	0.235677
H52	H	1.343473	-0.180214	0.140394
H53	H	1.442887	-0.316737	-0.000011
H54	H	1.379289	-0.244039	-0.095325
C55	C	2.127240	-0.184930	-0.000012
C56	C	2.018207	-0.124331	0.000002
H57	H	2.221979	-0.162853	-0.000031
H58	H	2.116857	-0.216514	0.095264
H59	H	2.116839	-0.216512	-0.095297
H60	H	2.028601	-0.092752	0.095295
H61	H	2.028595	-0.092733	-0.095283
C62	C	2.096925	-0.452941	-0.140466
C63	C	2.081641	-0.499510	-0.000016
H64	H	2.191663	-0.430863	-0.140456
H65	H	2.086552	-0.484528	-0.235730
H66	H	2.022935	-0.411839	-0.140446
H67	H	2.155625	-0.540615	-0.000042
H68	H	2.092029	-0.467921	0.095272
C69	C	1.386467	-0.575515	-0.000098
C70	C	1.495512	-0.636107	-0.000070
H71	H	1.291732	-0.597597	-0.000130
H72	H	1.396825	-0.543935	0.095179
H73	H	1.396879	-0.543926	-0.095382
H74	H	1.485107	-0.667693	0.095221
H75	H	1.485149	-0.667700	-0.095357
C76	C	1.374336	-0.103750	-0.140476
C77	C	1.458101	-0.089050	-0.000019
H78	H	1.288005	-0.070271	-0.140474
H79	H	1.431191	-0.093778	-0.235735
H80	H	1.346984	-0.157168	-0.140457
H81	H	1.485463	-0.035632	-0.000044
H82	H	1.401236	-0.099015	0.095264
