data_functionalizedCrystal
_audit_creation_method	'MofGen! by Chris Wilmer'
_symmetry_space_group_name_H-M	'P1'
_symmetry_Int_Tables_number	1
_symmetry_cell_setting	triclinic
loop_
_symmetry_equiv_pos_as_xyz
  x,y,z
_cell_length_a	17.699077
_cell_length_b	8.597304
_cell_length_c	16.776229
_cell_angle_alpha	82.293521
_cell_angle_beta	89.993415
_cell_angle_gamma	84.313138
loop_
_atom_site_label
_atom_site_type_symbol
_atom_site_fract_x
_atom_site_fract_y
_atom_site_fract_z
O1	O	1.005727	0.198423	-0.079902
O2	O	1.505727	0.698423	0.420098
O3	O	0.785562	0.224253	-0.081679
O4	O	1.285562	0.724253	0.418321
O5	O	0.899976	-0.017147	-0.065097
O6	O	1.399976	0.482853	0.434903
O7	O	0.891313	0.439823	-0.096485
O8	O	1.391313	0.939823	0.403515
O9	O	0.899960	-0.017162	0.067481
O10	O	1.399960	0.482838	0.567481
O11	O	0.785546	0.224239	0.050898
O12	O	1.285546	0.724239	0.550898
O13	O	1.005711	0.198408	0.052676
O14	O	1.505711	0.698408	0.552676
Zn15	Zn	0.895626	0.211321	0.072836
Zn16	Zn	1.395626	0.711321	0.572836
Zn17	Zn	0.895647	0.211340	-0.101840
Zn18	Zn	1.395647	0.711340	0.398160
O19	O	0.891297	0.439808	0.036093
O20	O	1.391297	0.939808	0.536093
C21	C	0.757349	0.223322	-0.015328
C22	C	1.257349	0.723322	0.484672
C23	C	0.673308	0.220550	-0.015139
C24	C	1.173308	0.720550	0.484861
C25	C	0.633821	0.219236	0.057220
C26	C	1.133821	0.719236	0.557220
C27	C	0.554857	0.216606	0.057401
C28	C	1.054857	0.716606	0.557401
C29	C	0.515380	0.215302	-0.014777
C30	C	1.015380	0.715302	0.485223
C31	C	0.554873	0.216612	-0.087141
C32	C	1.054873	0.716612	0.412859
C33	C	0.633836	0.219230	-0.087321
C34	C	1.133836	0.719230	0.412679
C35	C	0.236422	0.206050	-0.086417
C36	C	0.736422	0.706050	0.413583
C37	C	0.157452	0.203437	-0.086232
C38	C	0.657452	0.703437	0.413768
C39	C	0.157443	0.203427	0.058305
C40	C	0.657443	0.703427	0.558305
C41	C	0.236406	0.206045	0.058125
C42	C	0.736406	0.706045	0.558125
C43	C	0.275892	0.207346	-0.014238
C44	C	0.775892	0.707346	0.485762
C45	C	0.361514	0.210194	-0.014433
C46	C	0.861514	0.710194	0.485567
C47	C	0.429759	0.212465	-0.014583
C48	C	0.929759	0.712465	0.485417
C49	C	0.899037	-0.075623	0.005206
C50	C	1.399037	0.424377	0.505206
C51	C	0.896254	-0.249840	0.017167
C52	C	1.396254	0.250160	0.517167
C53	C	1.033924	0.199339	-0.013678
C54	C	1.533924	0.699339	0.486322
C55	C	1.117965	0.202111	-0.013872
C56	C	1.617965	0.702111	0.486128
C57	C	0.892236	0.498284	-0.034212
C58	C	1.392236	0.998284	0.465788
C59	C	0.895019	0.672501	-0.046178
C60	C	1.395019	1.172501	0.453822
N61	N	0.895618	0.211307	0.192049
N62	N	1.395618	0.711307	0.692049
N63	N	0.895661	0.211342	-0.221052
N64	N	1.395661	0.711342	0.278948
C65	C	0.946296	0.104458	0.241105
C66	C	1.446296	0.604458	0.741105
C67	C	0.946301	0.104457	0.324558
C68	C	1.446301	0.604457	0.824558
C69	C	0.895629	0.211313	0.358951
C70	C	1.395629	0.711313	0.858951
C71	C	0.844945	0.318166	0.309888
C72	C	1.344945	0.818166	0.809888
C73	C	0.844938	0.318159	0.226438
C74	C	1.344938	0.818159	0.726438
C75	C	0.844973	0.318197	0.646433
C76	C	1.344973	0.818197	1.146433
C77	C	0.844986	0.318199	0.729889
C78	C	1.344986	0.818199	1.229889
C79	C	0.946335	0.104495	0.744553
C80	C	1.446335	0.604495	1.244553
C81	C	0.946328	0.104488	0.661103
C82	C	1.446328	0.604488	1.161103
C83	C	0.895642	0.211335	0.612047
C84	C	1.395642	0.711335	1.112047
C85	C	0.895637	0.211333	0.521559
C86	C	1.395637	0.711333	1.021559
C87	C	0.895637	0.211323	0.449437
C88	C	1.395637	0.711323	0.949437
H89	H	0.665985	0.220303	-0.146243
H90	H	1.165985	0.720303	0.353757
H91	H	0.895173	-0.316639	0.080560
H92	H	1.395173	0.183361	0.580560
C93	C	1.002085	-0.013054	0.798522
C94	C	1.502085	0.486946	1.298522
N95	N	1.044076	-0.101588	0.839171
N96	N	1.544076	0.398412	1.339171
C97	C	0.896474	-0.237268	-0.131815
C98	C	1.396474	0.262732	0.368185
N99	N	0.897573	-0.169296	-0.196319
N100	N	1.397573	0.330704	0.303681
H101	H	0.987562	0.017451	0.213108
H102	H	1.487562	0.517451	0.713108
H103	H	0.522712	0.215510	0.116325
H104	H	1.022712	0.715510	0.616325
H105	H	0.803720	0.405217	0.757890
H106	H	1.303720	0.905217	1.257890
C107	C	0.789199	0.435694	0.347725
C108	C	1.289199	0.935694	0.847725
N109	N	0.747209	0.524218	0.376222
N110	N	1.247209	1.024218	0.876222
C111	C	0.789194	0.435713	0.172474
C112	C	1.289194	0.935713	0.672474
N113	N	0.747206	0.524259	0.131830
N114	N	1.247206	1.024259	0.631830
H115	H	0.665957	0.220311	0.115995
H116	H	1.165957	0.720311	0.615995
H117	H	0.803704	0.405198	0.606498
H118	H	1.303704	0.905198	1.106498
C119	C	0.114030	0.201984	-0.165637
C120	C	0.614030	0.701984	0.334363
N121	N	0.081325	0.200888	-0.225442
N122	N	0.581325	0.700888	0.274558
C123	C	1.002033	-0.013122	0.378520
C124	C	1.502033	0.486878	0.878520
N125	N	1.044005	-0.101703	0.419165
N126	N	1.544005	0.398297	0.919165
H127	H	0.987592	0.017481	0.633103
H128	H	1.487592	0.517481	1.133103
H129	H	0.125284	0.202360	0.117227
H130	H	0.625284	0.702360	0.617227
C131	C	0.279847	0.207468	-0.166018
C132	C	0.779847	0.707468	0.333982
N133	N	0.312558	0.208530	-0.225976
N134	N	0.812558	0.708530	0.274024
C135	C	0.279826	0.207476	0.137527
C136	C	0.779826	0.707476	0.637527
N137	N	0.312530	0.208545	0.197336
N138	N	0.812530	0.708545	0.697336
C139	C	0.511445	0.215173	-0.166539
C140	C	1.011445	0.715173	0.333461
N141	N	0.478737	0.214094	-0.226343
N142	N	0.978737	0.714094	0.273657
