data_functionalizedCrystal
_audit_creation_method	'MofGen! by Chris Wilmer'
_symmetry_space_group_name_H-M	'P1'
_symmetry_Int_Tables_number	1
_symmetry_cell_setting	triclinic
loop_
_symmetry_equiv_pos_as_xyz
  x,y,z
_cell_length_a	29.839131
_cell_length_b	17.077404
_cell_length_c	17.077396
_cell_angle_alpha	89.980499
_cell_angle_beta	89.968087
_cell_angle_gamma	90.041645
loop_
_atom_site_label
_atom_site_type_symbol
_atom_site_fract_x
_atom_site_fract_y
_atom_site_fract_z
Zn1	Zn	-0.178851	1.199954	-0.443824
Zn2	Zn	0.321149	1.699954	0.056176
Zn3	Zn	-0.253981	1.199818	-0.312550
Zn4	Zn	0.246019	1.699818	0.187450
Zn5	Zn	-0.178866	1.068685	-0.312572
Zn6	Zn	0.321134	1.568685	0.187428
Zn7	Zn	-0.253955	1.068611	-0.443774
Zn8	Zn	0.246045	1.568611	0.056226
O9	O	-0.216413	1.134267	-0.378180
O10	O	0.283587	1.634267	0.121820
O11	O	-0.188821	1.309782	-0.426422
O12	O	0.311179	1.809782	0.073578
O13	O	-0.244035	1.182398	-0.202706
O14	O	0.255965	1.682398	0.297294
O15	O	-0.115997	1.086186	-0.330013
O16	O	0.384003	1.586186	0.169987
O17	O	-0.244020	1.309683	-0.329976
O18	O	0.255980	1.809683	0.170024
O19	O	-0.115986	1.182628	-0.426443
O20	O	0.384014	1.682628	0.073557
O21	O	-0.188848	1.086055	-0.202722
O22	O	0.311152	1.586055	0.297278
O23	O	-0.188822	0.958829	-0.329964
O24	O	0.311178	1.458829	0.170036
O25	O	-0.243974	1.086059	-0.553627
O26	O	0.256026	1.586059	-0.053627
O27	O	-0.243989	0.958774	-0.426358
O28	O	0.256011	1.458774	0.073642
O29	O	-0.188796	1.182556	-0.553664
O30	O	0.311204	1.682556	-0.053664
O31	O	-0.316845	1.182325	-0.329927
O32	O	0.183155	1.682325	0.170073
O33	O	-0.316825	1.085928	-0.426336
O34	O	0.183175	1.585928	0.073664
C35	C	-0.216405	0.930319	-0.378158
C36	C	0.283595	1.430319	0.121842
C37	C	-0.216412	0.843069	-0.378168
C38	C	0.283588	1.343069	0.121832
C39	C	-0.245181	0.802071	-0.428279
C40	C	0.254819	1.302071	0.071721
C41	C	-0.245182	0.720091	-0.428292
C42	C	0.254818	1.220091	0.071708
C43	C	-0.216416	0.679110	-0.378188
C44	C	0.283584	1.179110	0.121812
C45	C	-0.187644	0.720114	-0.328074
C46	C	0.312356	1.220114	0.171926
C47	C	-0.187641	0.802093	-0.328066
C48	C	0.312359	1.302093	0.171934
C49	C	-0.187653	0.549244	-0.328093
C50	C	0.312347	1.049244	0.171907
C51	C	-0.187657	0.467259	-0.328100
C52	C	0.312343	0.967259	0.171900
C53	C	-0.245194	0.467242	-0.428319
C54	C	0.254806	0.967242	0.071681
C55	C	-0.245191	0.549221	-0.428311
C56	C	0.254809	1.049221	0.071689
C57	C	-0.216420	0.590219	-0.378196
C58	C	0.283580	1.090219	0.121804
C59	C	-0.333136	1.134125	-0.378141
C60	C	0.166864	1.634125	0.121859
C61	C	-0.383070	1.134136	-0.378151
C62	C	0.116930	1.634136	0.121849
C63	C	-0.692711	1.184552	-0.328053
C64	C	-0.192711	1.684552	0.171947
C65	C	-0.880384	1.184649	-0.328083
C66	C	-0.380384	1.684649	0.171917
O67	O	-0.904647	1.227402	-0.285459
O68	O	-0.404647	1.727402	0.214541
N69	N	-0.903855	1.134430	-0.378239
N70	N	-0.403855	1.634430	0.121761
C71	C	-0.880405	1.084186	-0.428394
C72	C	-0.380405	1.584186	0.071606
O73	O	-0.904675	1.041479	-0.471061
O74	O	-0.404675	1.541479	0.028939
C75	C	-0.692733	1.084094	-0.428367
C76	C	-0.192733	1.584094	0.071633
C77	C	-0.669264	1.134311	-0.378203
C78	C	-0.169264	1.634311	0.121797
C79	C	-0.669242	1.234766	-0.277893
C80	C	-0.169242	1.734766	0.222107
C81	C	-0.622327	1.234738	-0.277883
C82	C	-0.122327	1.734738	0.222117
C83	C	-0.598880	1.184497	-0.328033
C84	C	-0.098880	1.684497	0.171967
C85	C	-0.622349	1.134283	-0.378193
C86	C	-0.122349	1.634283	0.121807
C87	C	-0.669284	1.033855	-0.478526
C88	C	-0.169284	1.533855	0.021474
C89	C	-0.622363	1.033837	-0.478516
C90	C	-0.122363	1.533837	0.021484
C91	C	-0.598894	1.084055	-0.428352
C92	C	-0.098894	1.584055	0.071648
C93	C	-0.551987	1.084014	-0.428332
C94	C	-0.051987	1.584014	0.071668
N95	N	-0.528516	1.134233	-0.378177
N96	N	-0.028516	1.634233	0.121823
C97	C	-0.551962	1.184475	-0.328027
C98	C	-0.051962	1.684475	0.171973
C99	C	-0.978936	1.084237	-0.428404
C100	C	-0.478936	1.584237	0.071596
C101	C	-1.025854	1.084259	-0.428410
C102	C	-0.525854	1.584259	0.071590
C103	C	-1.025829	1.184723	-0.328100
C104	C	-0.525829	1.684723	0.171900
C105	C	-0.978911	1.184697	-0.328090
C106	C	-0.478911	1.684697	0.171910
C107	C	-0.955465	1.134457	-0.378248
C108	C	-0.455465	1.634457	0.121752
C109	C	-0.453437	1.184412	-0.328009
C110	C	0.046563	1.684412	0.171991
C111	C	-0.406517	1.184378	-0.328001
C112	C	0.093483	1.684378	0.171999
C113	C	-0.406545	1.083917	-0.428314
C114	C	0.093455	1.583917	0.071686
C115	C	-0.453461	1.083948	-0.428319
C116	C	0.046539	1.583948	0.071681
C117	C	-0.476905	1.134202	-0.378164
C118	C	0.023095	1.634202	0.121836
O119	O	-0.527695	1.041290	-0.470941
O120	O	-0.027695	1.541290	0.029059
O121	O	-0.527685	1.227188	-0.285378
O122	O	-0.027685	1.727188	0.214622
C123	C	-0.739627	1.184580	-0.328063
C124	C	-0.239627	1.684580	0.171937
C125	C	-0.763095	1.134366	-0.378223
C126	C	-0.263095	1.634366	0.121777
C127	C	-0.739649	1.084125	-0.428373
C128	C	-0.239649	1.584125	0.071627
C129	C	-0.810013	1.134388	-0.378229
C130	C	-0.310013	1.634388	0.121771
C131	C	-0.833460	1.184630	-0.328079
C132	C	-0.333460	1.684630	0.171921
C133	C	-0.809989	1.234849	-0.277923
C134	C	-0.309989	1.734849	0.222077
C135	C	-0.763073	1.234822	-0.277913
C136	C	-0.263073	1.734822	0.222087
C137	C	-0.763120	1.033905	-0.478529
C138	C	-0.263120	1.533905	0.021471
C139	C	-0.810035	1.033937	-0.478534
C140	C	-0.310035	1.533937	0.021466
C141	C	-0.833482	1.084178	-0.428384
C142	C	-0.333482	1.584178	0.071616
C143	C	-0.099235	1.134431	-0.378236
C144	C	0.400765	1.634431	0.121764
C145	C	-0.049300	1.134500	-0.378260
C146	C	0.450700	1.634500	0.121740
C147	C	-0.216380	1.134314	-0.582924
C148	C	0.283620	1.634314	-0.082924
C149	C	-0.216366	1.134335	-0.670174
C150	C	0.283634	1.634335	-0.170174
C151	C	-0.216422	1.339011	-0.378202
C152	C	0.283578	1.839011	0.121798
C153	C	-0.216425	1.426261	-0.378212
C154	C	0.283575	1.926261	0.121788
C155	C	-0.187632	1.184582	-0.711185
C156	C	0.312368	1.684582	-0.211185
C157	C	-0.187617	1.184592	-0.793165
C158	C	0.312383	1.684592	-0.293165
C159	C	-0.216339	1.134357	-0.834134
C160	C	0.283661	1.634357	-0.334134
C161	C	-0.245074	1.084104	-0.793117
C162	C	0.254926	1.584104	-0.293117
C163	C	-0.245086	1.084091	-0.711138
C164	C	0.254914	1.584091	-0.211138
C165	C	-0.245047	1.084135	-0.963987
C166	C	0.254953	1.584135	-0.463987
C167	C	-0.245035	1.084149	-1.045972
C168	C	0.254965	1.584149	-0.545972
C169	C	-0.187578	1.184636	-1.046014
C170	C	0.312422	1.684636	-0.546014
C171	C	-0.187590	1.184624	-0.964035
C172	C	0.312410	1.684624	-0.464035
C173	C	-0.216326	1.134371	-0.923025
C174	C	0.283674	1.634371	-0.423025
C175	C	-0.216414	1.134265	-0.174232
C176	C	0.283586	1.634265	0.325768
C177	C	-0.216301	1.134397	-0.086983
C178	C	0.283699	1.634397	0.413017
H179	H	-0.268607	0.835432	-0.469077
H180	H	0.231393	1.335432	0.030923
H181	H	-0.268609	0.686714	-0.469097
H182	H	0.231391	1.186714	0.030903
C183	C	-1.051629	1.239994	-0.272939
C184	C	-0.551629	1.739994	0.227061
N185	N	-1.071064	1.281626	-0.231398
N186	N	-0.571064	1.781626	0.268602
H187	H	-0.164205	1.225534	-0.930681
H188	H	0.335795	1.725534	-0.430681
C189	C	-0.156000	0.675032	-0.272962
C190	C	0.344000	1.175032	0.227038
N191	N	-0.132166	0.641077	-0.231448
N192	N	0.367834	1.141077	0.268552
H193	H	-0.268440	1.043202	-0.930599
H194	H	0.231560	1.543202	-0.430599
C195	C	-0.155994	0.847190	-0.272938
C196	C	0.344006	1.347190	0.227062
N197	N	-0.132156	0.881157	-0.231415
N198	N	0.367844	1.381157	0.268585
C199	C	-0.276628	1.028883	-1.091036
C200	C	0.223372	1.528883	-0.591036
N201	N	-0.300423	0.987255	-1.124978
N202	N	0.199577	1.487255	-0.624978
C203	C	-0.276837	0.594298	-0.483423
C204	C	0.223163	1.094298	0.016577
N205	N	-0.300673	0.628250	-0.524935
N206	N	0.199327	1.128250	-0.024935
H207	H	-0.164227	0.433895	-0.287311
H208	H	0.335773	0.933895	0.212689
C209	C	-0.953100	1.239942	-0.272908
C210	C	-0.453100	1.739942	0.227092
N211	N	-0.933661	1.281556	-0.231344
N212	N	-0.433661	1.781556	0.268656
H213	H	-0.268619	0.433857	-0.469126
H214	H	0.231381	0.933857	0.030874
C215	C	-0.276664	1.028837	-0.838185
C216	C	0.223336	1.528837	-0.338185
N217	N	-0.300457	0.987209	-0.872130
N218	N	0.199543	1.487209	-0.372130
C219	C	-0.380704	1.239619	-0.272810
C220	C	0.119296	1.739619	0.227190
N221	N	-0.361264	1.281225	-0.231240
N222	N	0.138736	1.781225	0.268760
C223	C	-0.479219	1.239690	-0.272831
C224	C	0.020781	1.739690	0.227169
N225	N	-0.498638	1.281320	-0.231266
N226	N	0.001362	1.781320	0.268734
H227	H	-0.164220	0.582622	-0.287291
H228	H	0.335780	1.082622	0.212709
H229	H	-0.603222	1.275632	-0.237037
H230	H	-0.103222	1.775632	0.262963
C231	C	-0.156008	1.239870	-0.838273
C232	C	0.343992	1.739870	-0.338273
N233	N	-0.132199	1.281508	-0.872248
N234	N	0.367801	1.781508	-0.372248
C235	C	-0.695027	1.290036	-0.222715
C236	C	-0.195027	1.790036	0.277285
N237	N	-0.714444	1.331664	-0.181146
N238	N	-0.214444	1.831664	0.318854
H239	H	-0.268480	1.043166	-0.677748
H240	H	0.231520	1.543166	-0.177748
H241	H	-1.044958	1.043360	-0.469252
H242	H	-0.544958	1.543360	0.030748
H243	H	-0.959849	1.043323	-0.469250
H244	H	-0.459849	1.543323	0.030750
C245	C	-0.695089	0.978613	-0.533715
C246	C	-0.195089	1.478613	-0.033715
N247	N	-0.714524	0.937003	-0.575287
N248	N	-0.214524	1.437003	-0.075287
H249	H	-0.829087	1.275756	-0.237087
H250	H	-0.329087	1.775756	0.262913
C251	C	-0.596575	0.978568	-0.533696
C252	C	-0.096575	1.478568	-0.033696
N253	N	-0.577153	0.936937	-0.575256
N254	N	-0.077153	1.436937	-0.075256
C255	C	-0.479277	1.028704	-0.483499
C256	C	0.020723	1.528704	0.016501
N257	N	-0.498719	0.987099	-0.525069
N258	N	0.001281	1.487099	-0.025069
H259	H	-0.387448	1.043008	-0.469143
H260	H	0.112552	1.543008	0.030857
H261	H	-0.743969	1.275713	-0.237065
H262	H	-0.243969	1.775713	0.262935
H263	H	-0.829139	0.993037	-0.519383
H264	H	-0.329139	1.493037	-0.019383
H265	H	-0.744033	0.992994	-0.519368
H266	H	-0.244033	1.492994	-0.019368
H267	H	-0.164245	1.225492	-0.677834
H268	H	0.335755	1.725492	-0.177834
C269	C	-0.155968	1.239914	-1.091128
C270	C	0.344032	1.739914	-0.591128
N271	N	-0.132161	1.281550	-1.125111
N272	N	0.367839	1.781550	-0.625111
