data_functionalizedCrystal
_audit_creation_method	'MofGen! by Chris Wilmer'
_symmetry_space_group_name_H-M	'P1'
_symmetry_Int_Tables_number	1
_symmetry_cell_setting	triclinic
loop_
_symmetry_equiv_pos_as_xyz
  x,y,z
_cell_length_a	19.121102
_cell_length_b	25.639239
_cell_length_c	19.120904
_cell_angle_alpha	87.589896
_cell_angle_beta	89.911827
_cell_angle_gamma	87.592882
loop_
_atom_site_label
_atom_site_type_symbol
_atom_site_fract_x
_atom_site_fract_y
_atom_site_fract_z
Zn1	Zn	1.054765	-0.255751	0.442042
Zn2	Zn	1.059658	-0.339618	0.324799
Zn3	Zn	0.942536	-0.248315	0.319827
Zn4	Zn	0.937469	-0.339266	0.437001
O5	O	0.998607	-0.295738	0.380917
O6	O	1.153518	-0.270136	0.430680
O7	O	1.048290	-0.324541	0.226035
O8	O	0.957496	-0.176139	0.336067
O9	O	1.157113	-0.331752	0.344542
O10	O	1.039950	-0.181603	0.425859
O11	O	0.962241	-0.257461	0.222382
O12	O	0.843760	-0.257121	0.331180
O13	O	0.948861	-0.331153	0.535775
O14	O	0.840037	-0.323942	0.417267
O15	O	1.035037	-0.269795	0.539478
O16	O	1.043377	-0.412733	0.339654
O17	O	0.953605	-0.412475	0.422089
C18	C	0.816461	-0.289687	0.373137
C19	C	0.738537	-0.287111	0.369826
C20	C	0.998491	-0.431575	0.380880
C21	C	0.998504	-0.489690	0.380890
C22	C	0.700012	-0.320740	0.413021
C23	C	0.626794	-0.318313	0.409912
C24	C	0.592104	-0.282260	0.363605
C25	C	0.630634	-0.248627	0.320408
C26	C	0.703850	-0.251052	0.323520
C27	C	0.371134	-0.273194	0.351972
C28	C	0.297913	-0.270773	0.348862
C29	C	0.294078	-0.340458	0.438367
C30	C	0.367296	-0.342882	0.441472
C31	C	0.405820	-0.309247	0.398278
C32	C	0.517264	-0.279779	0.360425
C33	C	0.480658	-0.311726	0.401462
C34	C	1.045465	-0.850185	0.338075
C35	C	1.045491	-0.904791	0.338085
O36	O	1.085298	-0.933135	0.301642
N37	N	0.998728	-0.931982	0.380969
C38	C	0.951940	-0.904565	0.423850
O39	O	0.912167	-0.932708	0.460327
C40	C	0.951917	-0.849961	0.423843
C41	C	0.998679	-0.822772	0.380951
C42	C	1.092223	-0.822997	0.295188
C43	C	1.092195	-0.768395	0.295176
C44	C	1.045409	-0.740982	0.338052
C45	C	0.998651	-0.768171	0.380940
C46	C	0.905133	-0.822546	0.466727
C47	C	0.905115	-0.767938	0.466716
C48	C	0.951876	-0.740749	0.423825
C49	C	0.951837	-0.686156	0.423805
N50	N	0.998600	-0.658965	0.380921
C51	C	1.045386	-0.686378	0.338045
C52	C	0.951992	-1.019238	0.423863
C53	C	0.952011	-1.073841	0.423867
C54	C	1.045564	-1.074063	0.338103
C55	C	1.045541	-1.019459	0.338096
C56	C	0.998756	-0.992047	0.380980
C57	C	1.045324	-0.571710	0.338024
C58	C	1.045290	-0.517103	0.338014
C59	C	0.951740	-0.516886	0.423780
C60	C	0.951771	-0.571488	0.423788
C61	C	0.998569	-0.598899	0.380907
O62	O	0.912052	-0.657777	0.460232
O63	O	1.085159	-0.658229	0.301581
C64	C	1.181464	-0.301813	0.388728
C65	C	1.259387	-0.304401	0.392057
C66	C	0.990838	-0.301264	0.563775
C67	C	0.987527	-0.303619	0.641698
C68	C	0.998742	-0.159371	0.380971
C69	C	0.998800	-0.101259	0.380993
C70	C	1.006386	-0.290196	0.198772
C71	C	1.009833	-0.287698	0.120856
C72	C	1.030837	-0.272781	0.680236
C73	C	1.027718	-0.274992	0.753453
C74	C	0.981292	-0.308044	0.788130
C75	C	0.937977	-0.338883	0.749587
C76	C	0.941093	-0.336669	0.676372
C77	C	0.969635	-0.316324	1.009097
C78	C	0.966523	-0.318536	1.082318
C79	C	1.056263	-0.254644	1.086178
C80	C	1.059378	-0.252436	1.012961
C81	C	1.016061	-0.283273	0.974424
C82	C	0.978104	-0.310306	0.862970
C83	C	1.019246	-0.281008	0.899586
H84	H	0.728252	-0.350100	0.450727
O85	O	0.589479	-0.351040	0.451890
C86	C	0.635797	-0.383377	0.493435
H87	H	0.689202	-0.386007	0.466934
H88	H	0.614301	-0.424103	0.499899
H89	H	0.641344	-0.366171	0.547064
O90	O	1.090998	-0.992997	0.296534
C91	C	1.134552	-0.964088	0.338411
H92	H	1.107526	-0.956691	0.390460
H93	H	1.145173	-0.925142	0.310256
H94	H	1.186176	-0.987053	0.348379
O95	O	0.400881	-0.377919	0.486518
C96	C	0.351177	-0.407091	0.523964
H97	H	0.298898	-0.384026	0.524230
H98	H	0.369994	-0.415105	0.580085
H99	H	0.344445	-0.445731	0.497859
H100	H	0.913927	-1.095973	0.458787
H101	H	0.913888	-0.996922	0.458781
O102	O	1.098263	-0.224705	1.123718
C103	C	1.085573	-0.233754	1.195777
H104	H	1.031028	-0.249383	1.203456
H105	H	1.089180	-0.195590	1.223820
H106	H	1.126246	-0.263603	1.218323
O107	O	0.859685	-0.848869	0.508460
C108	C	0.818384	-0.812953	0.546286
H109	H	0.846983	-0.775035	0.549944
H110	H	0.808526	-0.830132	0.601202
H111	H	0.766248	-0.804650	0.518301
H112	H	0.867017	-0.745622	0.501639
H113	H	1.083369	-0.494968	0.303084
H114	H	0.913696	-0.593627	0.458716
O115	O	0.932911	-0.342355	0.896619
C116	C	0.863811	-0.328079	0.875731
H117	H	0.861166	-0.285587	0.855466
H118	H	0.827124	-0.332887	0.922398
H119	H	0.847268	-0.354219	0.832440
H120	H	1.062987	-0.249882	0.784827
O121	O	0.921359	-0.350655	1.115894
C122	C	0.883806	-0.377408	1.066182
H123	H	0.883617	-0.354335	1.013896
H124	H	0.827667	-0.381787	1.084977
H125	H	0.909768	-0.417733	1.059475
H126	H	0.913645	-0.494558	0.458687
H127	H	1.130325	-0.845310	0.260273
H128	H	0.934373	-0.341441	0.977730
O129	O	0.892779	-0.370930	0.783235
C130	C	0.823681	-0.356650	0.762347
H131	H	0.821039	-0.314156	0.742089
H132	H	0.786992	-0.361460	0.809012
H133	H	0.807137	-0.382785	0.719051
H134	H	1.097185	-0.225523	0.984732
H135	H	1.083662	-1.096393	0.303194
H136	H	0.602383	-0.219270	0.282707
H137	H	0.905819	-0.361775	0.644995
H138	H	0.262704	-0.367840	0.473534
H139	H	1.068644	-0.245869	0.652007
H140	H	0.269669	-0.241408	0.311157
H141	H	1.057043	-0.254095	0.871348
H142	H	0.402492	-0.245810	0.316795
H143	H	0.735217	-0.223665	0.288350
H144	H	0.508906	-0.341078	0.439168
O145	O	0.483639	-0.244786	0.315349
C146	C	0.504450	-0.254617	0.246202
H147	H	0.557660	-0.276423	0.246947
H148	H	0.508297	-0.215982	0.214964
H149	H	0.464221	-0.279394	0.220781
H150	H	1.130274	-0.746261	0.260252
O151	O	1.090805	-0.598249	0.296303
C152	C	1.132075	-0.562534	0.258464
H153	H	1.103440	-0.522609	0.254789
H154	H	1.141950	-0.576895	0.203555
H155	H	1.184204	-0.559219	0.286450
