data_functionalizedCrystal
_audit_creation_method	'MofGen! by Chris Wilmer'
_symmetry_space_group_name_H-M	'P1'
_symmetry_Int_Tables_number	1
_symmetry_cell_setting	triclinic
loop_
_symmetry_equiv_pos_as_xyz
  x,y,z
_cell_length_a	14.853577
_cell_length_b	16.992695
_cell_length_c	16.053802
_cell_angle_alpha	87.258926
_cell_angle_beta	87.415252
_cell_angle_gamma	92.846400
loop_
_atom_site_label
_atom_site_type_symbol
_atom_site_fract_x
_atom_site_fract_y
_atom_site_fract_z
O1	O	1.207156	-0.099119	-0.069426
O2	O	0.945559	-0.111307	-0.069429
O3	O	1.075308	0.008930	-0.069421
O4	O	1.077406	-0.219357	-0.069434
O5	O	1.068165	0.002340	0.069438
O6	O	0.938415	-0.117898	0.069430
O7	O	1.200012	-0.105710	0.069432
Zn8	Zn	1.068079	-0.112850	0.091478
Zn9	Zn	1.077492	-0.104167	-0.091474
O10	O	1.070263	-0.225947	0.069424
C11	C	0.908359	-0.114049	0.000000
C12	C	0.808159	-0.112390	-0.000001
C13	C	1.069038	0.034851	0.000008
C14	C	1.060988	0.121904	0.000008
C15	C	1.237212	-0.102968	0.000001
C16	C	1.337413	-0.104627	-0.000003
C17	C	1.764979	-0.108020	-0.075696
C18	C	1.757186	-0.115206	0.075693
C19	C	1.663042	-0.113655	0.075694
C20	C	1.619862	-0.109285	-0.000001
C21	C	1.670827	-0.106467	-0.075697
C22	C	1.612071	-0.116465	0.151389
C23	C	1.517921	-0.114913	0.151393
C24	C	1.474739	-0.110549	0.075696
C25	C	1.525709	-0.107732	-0.000003
C26	C	1.482530	-0.103362	-0.075698
C27	C	1.533498	-0.100550	-0.151398
C28	C	1.627645	-0.102103	-0.151393
C29	C	1.380592	-0.108997	0.075692
C30	C	1.388377	-0.101809	-0.075699
C31	C	1.076533	-0.251868	-0.000007
C32	C	1.084583	-0.338920	-0.000012
N33	N	1.061662	-0.118776	0.216338
C34	C	1.138663	0.172057	0.000010
C35	C	1.131094	0.253853	0.000002
C36	C	1.045849	0.285493	-0.000002
C37	C	0.968168	0.235333	-0.000006
C38	C	0.975738	0.153540	-0.000004
C39	C	1.014473	0.529126	-0.000014
C40	C	1.006908	0.610926	-0.000013
C41	C	1.169835	0.629440	-0.000007
C42	C	1.177398	0.547644	-0.000000
C43	C	1.099717	0.497492	-0.000009
N44	N	1.038110	0.369101	-0.000008
N45	N	1.107458	0.413886	-0.000009
N46	N	1.083915	-0.098234	-0.216334
C47	C	1.116894	-0.067633	0.260035
C48	C	1.112414	-0.071786	0.347441
C49	C	1.052707	-0.127086	0.391149
C50	C	0.997469	-0.178231	0.347446
C51	C	1.001945	-0.174074	0.260041
C52	C	1.033154	-0.145223	0.652557
C53	C	1.028684	-0.149377	0.739968
C54	C	1.143628	-0.042931	0.739958
C55	C	1.148103	-0.038782	0.652552
C56	C	1.092862	-0.089924	0.608856
N57	N	1.048128	-0.131334	0.480493
N58	N	1.097436	-0.085672	0.519514
H59	H	1.353227	-0.098255	-0.137340
H60	H	1.669152	-0.099812	-0.213024
H61	H	1.792349	-0.118757	0.137321
N62	N	0.933074	-0.237876	0.394591
H63	H	0.948242	-0.292824	0.379365
H64	H	0.869237	-0.227948	0.379380
N65	N	0.973578	-0.200394	0.605447
H66	H	1.012385	-0.233447	0.569168
H67	H	0.933359	-0.168591	0.569246
N68	N	0.942370	-0.229231	0.212906
H69	H	0.903866	-0.264895	0.253855
H70	H	0.981235	-0.262230	0.176624
H71	H	1.196721	0.006248	0.616967
N72	N	0.876223	0.269455	-0.000016
H73	H	0.883212	0.328881	-0.000014
H74	H	0.839325	0.248672	0.051460
N75	N	1.203203	0.012226	0.787090
H76	H	1.164395	0.045280	0.823368
H77	H	1.241697	0.047838	0.746086
N78	N	1.269348	0.513532	0.000002
H79	H	1.306290	0.534258	-0.051474
H80	H	1.262291	0.454110	0.000036
H81	H	1.806481	-0.105734	-0.137329
N82	N	1.181277	-0.007973	0.212899
H83	H	1.175731	-0.013095	0.150897
H84	H	1.245112	-0.017849	0.228157
N85	N	0.914959	0.645051	-0.000019
H86	H	0.883315	0.629215	-0.051498
H87	H	0.922029	0.704470	0.000017
H88	H	1.194346	0.294685	0.000005
H89	H	1.647235	-0.120015	0.213015
H90	H	1.498329	-0.096988	-0.213029
N91	N	0.964292	-0.209032	0.787113
H92	H	0.929977	-0.240802	0.746170
H93	H	0.920418	-0.180676	0.823400
H94	H	1.339098	-0.111294	0.137326
N95	N	1.253610	0.683538	0.000001
H96	H	1.256751	0.720326	-0.051475
H97	H	1.308714	0.651028	0.000035
H98	H	0.951219	0.488301	-0.000021
H99	H	1.208079	0.146302	0.000018
N100	N	1.462951	-0.117947	0.233035
H101	H	1.504633	-0.120403	0.280985
H102	H	1.420353	-0.166325	0.236580
H103	H	0.912486	0.112705	-0.000006
N104	N	1.172018	-0.016652	0.394573
H105	H	1.210536	0.018998	0.353622
H106	H	1.212165	-0.048495	0.430808
