data_functionalizedCrystal
_audit_creation_method	'MofGen! by Chris Wilmer'
_symmetry_space_group_name_H-M	'P1'
_symmetry_Int_Tables_number	1
_symmetry_cell_setting	triclinic
loop_
_symmetry_equiv_pos_as_xyz
  x,y,z
_cell_length_a	10.540539
_cell_length_b	10.540539
_cell_length_c	15.455313
_cell_angle_alpha	92.694186
_cell_angle_beta	87.293868
_cell_angle_gamma	84.525492
loop_
_atom_site_label
_atom_site_type_symbol
_atom_site_fract_x
_atom_site_fract_y
_atom_site_fract_z
O1	O	1.691398	0.173402	-0.072085
O2	O	1.321985	0.190257	-0.072096
O3	O	1.515119	-0.002877	-0.072089
O4	O	1.498264	0.366536	-0.072092
O5	O	1.504075	0.008121	0.072172
O6	O	1.310941	0.201255	0.072166
O7	O	1.680353	0.184400	0.072176
Cu8	Cu	1.494638	0.193832	0.085343
Cu9	Cu	1.507700	0.180825	-0.085263
O10	O	1.487219	0.377534	0.072170
C11	C	1.269160	0.194492	0.000034
C12	C	1.128212	0.190710	0.000030
C13	C	0.944760	0.045818	0.000367
C14	C	1.091404	0.049626	0.000033
C15	C	1.072847	0.252324	-0.082348
C16	C	0.926307	0.247505	-0.082408
C17	C	0.913258	0.262882	0.081644
C18	C	1.060158	0.264264	0.082724
C19	C	1.508333	-0.044681	0.000040
C20	C	1.504552	-0.185630	0.000035
C21	C	1.359660	-0.369081	-0.000293
C22	C	1.363468	-0.222438	0.000032
C23	C	1.566140	-0.241006	0.082418
C24	C	1.561320	-0.387546	0.082487
C25	C	1.576749	-0.400571	-0.081566
C26	C	1.578132	-0.253672	-0.082655
C27	C	1.733178	0.180165	0.000045
C28	C	1.874127	0.183947	0.000043
C29	C	1.494006	0.419338	0.000039
C30	C	1.497787	0.560286	0.000038
N31	N	1.485461	0.202979	0.205339
N32	N	1.516888	0.171667	-0.205258
C33	C	1.567540	0.120960	0.250735
C34	C	1.560611	0.127890	0.341543
C35	C	1.471608	0.216846	0.386952
C36	C	1.389521	0.298869	0.341549
C37	C	1.396444	0.291932	0.250743
C38	C	1.441723	0.246754	0.658533
C39	C	1.434808	0.253687	0.749345
C40	C	1.605898	0.082705	0.749333
C41	C	1.612819	0.075781	0.658525
C42	C	1.530727	0.157800	0.613130
N43	N	1.464527	0.223934	0.479772
N44	N	1.537803	0.150705	0.520311
H45	H	1.120129	0.200486	-0.143655
H46	H	0.876932	0.221985	0.144086
H47	H	1.514283	-0.193733	0.143721
Br48	Br	1.285037	0.403241	0.189133
Br49	Br	1.738438	-0.203366	0.087533
H50	H	0.919050	-0.014161	-0.058380
Br51	Br	1.508600	-0.461076	-0.185639
H52	H	1.084003	0.367502	0.087697
H53	H	0.865989	0.364828	0.082200
H54	H	1.533119	-0.217460	-0.143599
H55	H	1.672733	0.015928	0.786302
H56	H	1.681373	-0.229830	-0.087627
H57	H	0.902811	0.192629	-0.143986
H58	H	1.678695	-0.447839	-0.082117
Br59	Br	0.846825	0.416139	-0.088641
Br60	Br	1.110532	0.424608	-0.087482
Br61	Br	1.168506	-0.047173	-0.098731
Br62	Br	1.120475	0.189194	0.184301
Br63	Br	1.281962	-0.158927	-0.098397
H64	H	1.308451	-0.402186	-0.059371
Br65	Br	1.259402	-0.412593	0.097318
Br66	Br	1.688345	0.000237	0.189118
H67	H	1.317046	0.371295	0.378526
H68	H	0.911652	-0.005414	0.059445
H69	H	1.627446	0.061102	0.378505
Br70	Br	1.266245	-0.145313	0.098617
H71	H	1.506427	-0.411050	0.144067
H72	H	1.662499	-0.435229	0.086227
Br73	Br	1.733614	-0.044940	0.596897
H74	H	1.362328	0.326131	0.786313
Br75	Br	1.330318	0.358063	0.596930
H76	H	1.129496	0.000706	0.059086
