data_functionalizedCrystal
_audit_creation_method	'MofGen! by Chris Wilmer'
_symmetry_space_group_name_H-M	'P1'
_symmetry_Int_Tables_number	1
_symmetry_cell_setting	triclinic
loop_
_symmetry_equiv_pos_as_xyz
  x,y,z
_cell_length_a	6.817900
_cell_length_b	11.102233
_cell_length_c	10.773894
_cell_angle_alpha	95.424919
_cell_angle_beta	96.645922
_cell_angle_gamma	108.604751
loop_
_atom_site_label
_atom_site_type_symbol
_atom_site_fract_x
_atom_site_fract_y
_atom_site_fract_z
V1	V	-3.974357	-0.171170	-0.388950
O2	O	-3.936004	0.013031	-0.381540
O3	O	-3.952069	-0.344023	-0.386297
O4	O	-3.891314	-0.166428	-0.558582
O5	O	-3.997180	-0.165793	-0.208062
V6	V	-4.459091	-0.149386	-0.367314
O7	O	-4.232960	-0.218953	-0.436412
O8	O	-4.650685	-0.101603	-0.319852
O9	O	-4.258172	0.023467	-0.369968
O10	O	-4.614840	-0.333587	-0.374725
O11	O	-4.553664	-0.154763	-0.548203
O12	O	-4.318927	-0.154128	-0.197682
C13	C	-3.804543	-0.386226	-0.380162
C14	C	-3.867376	-0.527522	-0.379123
C15	C	-4.137750	-0.733064	-0.383869
C16	C	-4.078714	-0.600303	-0.384854
C17	C	-3.715062	-0.587508	-0.372395
C18	C	-3.774096	-0.720266	-0.371402
C19	C	-4.347703	-0.740451	-0.391068
C20	C	-4.288667	-0.607689	-0.392052
C21	C	-3.727043	-0.159685	-0.599928
C22	C	-3.740602	-0.156952	-0.738603
C23	C	-3.919392	-0.161689	-0.806466
C24	C	-3.933411	-0.158864	-0.949793
C25	C	-4.069042	0.065664	-0.376098
C26	C	-3.985446	0.206959	-0.377146
C27	C	-4.146543	-0.160875	-0.156330
C28	C	-4.112221	-0.163602	-0.017653
H29	H	-4.368544	-0.587385	-0.482779
Cl30	Cl	-4.139712	-0.171185	-0.732354
Cl31	Cl	-4.500675	-0.828111	-0.533792
H32	H	-3.790703	-0.152709	-0.997797
H33	H	-4.254929	-0.169753	-0.969651
H34	H	-3.597907	-0.150797	-0.786612
H35	H	-3.542980	-0.528238	-0.367718
Cl36	Cl	-4.473330	-0.780560	-0.259514
Cl37	Cl	-3.582610	-0.795656	-0.362908
H38	H	-4.319768	-0.555507	-0.304103
