data_functionalizedCrystal
_audit_creation_method	'MofGen! by Chris Wilmer'
_symmetry_space_group_name_H-M	'P1'
_symmetry_Int_Tables_number	1
_symmetry_cell_setting	triclinic
loop_
_symmetry_equiv_pos_as_xyz
  x,y,z
_cell_length_a	10.540510
_cell_length_b	10.540510
_cell_length_c	9.016244
_cell_angle_alpha	90.003508
_cell_angle_beta	90.003261
_cell_angle_gamma	84.513311
loop_
_atom_site_label
_atom_site_type_symbol
_atom_site_fract_x
_atom_site_fract_y
_atom_site_fract_z
O1	O	1.685887	0.178725	0.123341
O2	O	1.316468	0.195621	0.123341
O3	O	1.509625	0.002463	0.123340
O4	O	1.492730	0.371883	0.123341
O5	O	1.509614	0.002452	-0.123341
O6	O	1.316457	0.195610	-0.123340
O7	O	1.685876	0.178714	-0.123340
Cu8	Cu	1.501165	0.187161	-0.145864
Cu9	Cu	1.501178	0.187174	0.145865
O10	O	1.492719	0.371872	-0.123339
C11	C	1.269159	0.194356	0.000001
C12	C	1.128209	0.190589	0.000001
C13	C	0.910739	0.324775	0.000568
C14	C	1.057334	0.328793	0.000003
C15	C	1.083451	0.119836	-0.140863
C16	C	0.936690	0.116797	-0.140972
C17	C	0.936897	0.113931	0.139550
C18	C	1.083237	0.120487	0.141403
C19	C	1.508361	-0.044846	0.000003
C20	C	1.504594	-0.185795	0.000012
C21	C	1.638780	-0.403265	-0.000553
C22	C	1.642798	-0.256670	0.000010
C23	C	1.433853	-0.230540	0.140876
C24	C	1.430814	-0.377301	0.140986
C25	C	1.427923	-0.377122	-0.139536
C26	C	1.434478	-0.230781	-0.141390
C27	C	1.733185	0.179979	0.000004
C28	C	1.874135	0.183746	0.000013
C29	C	1.493983	0.419181	0.000001
C30	C	1.497750	0.560130	0.000002
N31	N	1.501166	0.187151	-0.351050
C32	C	1.604550	0.083836	-0.413975
C33	C	1.604935	0.084123	-0.585865
C34	C	1.530753	0.320050	-0.586519
C35	C	1.531483	0.319431	-0.414574
C36	C	1.367917	0.158783	-0.414439
C37	C	1.368795	0.155795	-0.586395
N38	N	1.501188	0.187174	0.351051
H39	H	0.894348	0.157519	0.246318
H40	H	0.913705	0.013428	-0.147371
C41	C	1.329749	0.030545	-0.355886
N42	N	1.301017	-0.066050	-0.311784
C43	C	1.717575	-0.217039	-0.136402
N44	N	1.773905	-0.187196	-0.239150
C45	C	1.581002	-0.049234	-0.642896
N46	N	1.562974	-0.149684	-0.685843
C47	C	1.149526	-0.015832	0.152887
N48	N	1.199452	-0.118514	0.161523
H49	H	1.698479	-0.228266	0.101161
C50	C	1.298162	-0.164487	-0.152880
N51	N	1.195482	-0.114554	-0.161523
H52	H	1.703808	0.102430	-0.626989
C53	C	1.486936	-0.434464	-0.283779
N54	N	1.531399	-0.477655	-0.392416
H55	H	1.692618	-0.445231	-0.101574
C56	C	1.503986	-0.192098	-0.282178
N57	N	1.556333	-0.162940	-0.388218
H58	H	1.288209	0.226044	-0.629332
H59	H	1.479167	-0.417516	0.246284
C60	C	1.711108	-0.462035	0.135152
N61	N	1.765582	-0.506302	0.237367
C62	C	1.291172	-0.408355	0.149652
N63	N	1.185996	-0.431739	0.156192
H64	H	1.332110	-0.183140	0.146114
H65	H	1.482989	-0.199684	0.245706
C66	C	1.662797	0.352841	-0.360376
N67	N	1.761707	0.378001	-0.319561
C68	C	1.263969	0.260533	-0.359451
N69	N	1.185684	0.337174	-0.318025
H70	H	1.702857	0.101873	-0.370735
H71	H	1.324159	-0.399261	-0.140485
C72	C	0.906979	-0.026247	0.140840
N73	N	0.884436	-0.131824	0.141802
C74	C	1.433675	0.426534	-0.358333
N75	N	1.360013	0.507207	-0.315978
C76	C	1.338493	0.023739	-0.641541
N77	N	1.315670	-0.075723	-0.683093
C78	C	1.431778	0.426522	-0.641721
N79	N	1.357229	0.506715	-0.683304
H80	H	0.868785	0.378622	0.101590
H81	H	1.114295	0.168963	-0.245693
H82	H	1.626848	0.345355	-0.629572
H83	H	0.867222	0.378303	-0.099880
H84	H	1.085728	0.384472	-0.101143
C85	C	1.096989	0.403505	0.136472
N86	N	1.126853	0.459758	0.239282
C87	C	0.882340	0.182131	-0.283208
N88	N	0.841409	0.231353	-0.390339
H89	H	1.130851	0.018093	-0.146102
H90	H	1.587143	-0.015207	-0.372610
C91	C	1.121908	0.190024	0.282190
N92	N	1.151048	0.242399	0.388229
