data_functionalizedCrystal
_audit_creation_method	'MofGen! by Chris Wilmer'
_symmetry_space_group_name_H-M	'P1'
_symmetry_Int_Tables_number	1
_symmetry_cell_setting	triclinic
loop_
_symmetry_equiv_pos_as_xyz
  x,y,z
_cell_length_a	18.215407
_cell_length_b	19.805405
_cell_length_c	18.215399
_cell_angle_alpha	89.972077
_cell_angle_beta	89.983101
_cell_angle_gamma	90.024185
loop_
_atom_site_label
_atom_site_type_symbol
_atom_site_fract_x
_atom_site_fract_y
_atom_site_fract_z
Zn1	Zn	1.125062	-0.269516	-0.416058
Zn2	Zn	1.124967	-0.382707	-0.292992
Zn3	Zn	1.001995	-0.269532	-0.293012
Zn4	Zn	1.001957	-0.382663	-0.416023
O5	O	1.063495	-0.326105	-0.354521
O6	O	1.228034	-0.284542	-0.399740
O7	O	1.108630	-0.367719	-0.190010
O8	O	1.018376	-0.174814	-0.309357
O9	O	1.227964	-0.367703	-0.309323
O10	O	1.108793	-0.174802	-0.399759
O11	O	1.018283	-0.284570	-0.190025
O12	O	0.899006	-0.284528	-0.309323
O13	O	1.018311	-0.367629	-0.519012
O14	O	0.898978	-0.367645	-0.399699
O15	O	1.108756	-0.284500	-0.519038
O16	O	1.108593	-0.477418	-0.309289
O17	O	1.018219	-0.477386	-0.399680
C18	C	0.872289	-0.326084	-0.354510
C19	C	0.790490	-0.326091	-0.354523
C20	C	0.525437	-0.369455	-0.401516
C21	C	0.602296	-0.369449	-0.401512
C22	C	0.602295	-0.282770	-0.307540
C23	C	0.525437	-0.282779	-0.307541
C24	C	0.487011	-0.326121	-0.354533
C25	C	0.640727	-0.326105	-0.354529
C26	C	0.724060	-0.326099	-0.354524
C27	C	0.403672	-0.326129	-0.354536
C28	C	1.063412	-0.501961	-0.354495
C29	C	1.063443	-0.577193	-0.354508
C30	C	1.110495	-0.612472	-0.401617
C31	C	1.110522	-0.683161	-0.401631
C32	C	1.063499	-0.718568	-0.354531
C33	C	1.016442	-0.683284	-0.307420
C34	C	1.016412	-0.612596	-0.307411
C35	C	1.016560	-0.968357	-0.307458
C36	C	1.016595	-1.039049	-0.307469
C37	C	1.110670	-1.038921	-0.401678
C38	C	1.110640	-0.968234	-0.401668
C39	C	1.063580	-0.932956	-0.354560
C40	C	1.063551	-0.856307	-0.354547
C41	C	1.063532	-0.795215	-0.354540
C42	C	1.255448	-0.326126	-0.354533
C43	C	1.337247	-0.326135	-0.354538
C44	C	1.063540	-0.326058	-0.546474
C45	C	1.063559	-0.326038	-0.628273
C46	C	1.063600	-0.149562	-0.354564
C47	C	1.063644	-0.074330	-0.354583
C48	C	1.110671	-0.282712	-0.816482
C49	C	1.110680	-0.282693	-0.893341
C50	C	1.016500	-0.369259	-0.893303
C51	C	1.016488	-0.369275	-0.816445
C52	C	1.063578	-0.326003	-0.778037
C53	C	1.063598	-0.325967	-0.931753
C54	C	1.063607	-0.325946	-1.015087
C55	C	1.063568	-0.326023	-0.694698
C56	C	1.063493	-0.326102	-0.163315
C57	C	1.063617	-0.325932	-0.081517
H58	H	1.148790	-0.583648	-0.439968
N59	N	0.643737	-0.416191	-0.452187
H60	H	0.630383	-0.405738	-0.504788
H61	H	0.698245	-0.409593	-0.444995
N62	N	0.965686	-0.415973	-0.774986
H63	H	0.995566	-0.447350	-0.743090
H64	H	0.931599	-0.388421	-0.743146
H65	H	0.494149	-0.247491	-0.269278
N66	N	0.643741	-0.236023	-0.256860
H67	H	0.698261	-0.242590	-0.263990
H68	H	0.630323	-0.187698	-0.268405
N69	N	1.161234	-0.721213	-0.452478
H70	H	1.191009	-0.688057	-0.482322
H71	H	1.195332	-0.750554	-0.422592
N72	N	0.965728	-0.721469	-0.256614
H73	H	0.913133	-0.709205	-0.267994
H74	H	0.972952	-0.771591	-0.263788
H75	H	0.978162	-0.404491	-0.924584
H76	H	1.148933	-0.939408	-0.440019
H77	H	1.149013	-0.247475	-0.785212
H78	H	0.494153	-0.404746	-0.439779
H79	H	1.148986	-1.067653	-0.440038
N80	N	1.161465	-0.235994	-0.934807
H81	H	1.191289	-0.208583	-0.898811
H82	H	1.195513	-0.263534	-0.966699
N83	N	0.965876	-1.077241	-0.256666
H84	H	0.936058	-1.044167	-0.226822
H85	H	0.931820	-1.106581	-0.286600
H86	H	0.978244	-0.939639	-0.269099
N87	N	0.965661	-0.574541	-0.256603
H88	H	0.935877	-0.607696	-0.226766
H89	H	0.995623	-0.545208	-0.222568
