data_functionalizedCrystal
_audit_creation_method	'MofGen! by Chris Wilmer'
_symmetry_space_group_name_H-M	'P1'
_symmetry_Int_Tables_number	1
_symmetry_cell_setting	triclinic
loop_
_symmetry_equiv_pos_as_xyz
  x,y,z
_cell_length_a	20.453700
_cell_length_b	23.752966
_cell_length_c	11.102315
_cell_angle_alpha	84.894068
_cell_angle_beta	108.606275
_cell_angle_gamma	79.933465
loop_
_atom_site_label
_atom_site_type_symbol
_atom_site_fract_x
_atom_site_fract_y
_atom_site_fract_z
V1	V	1.356252	-0.079163	0.396971
O2	O	1.357542	0.003801	0.388680
O3	O	1.334496	-0.156964	0.394962
O4	O	1.348733	-0.077947	0.569782
O5	O	1.343206	-0.075763	0.212651
V6	V	1.517074	-0.069239	0.374839
O7	O	1.444112	-0.100931	0.445520
O8	O	1.579280	-0.047471	0.326291
O9	O	1.464428	0.008562	0.376848
O10	O	1.554917	-0.152203	0.383130
O11	O	1.569252	-0.072639	0.559160
O12	O	1.450191	-0.070456	0.202029
V13	V	1.689586	-0.079163	0.396971
O14	O	1.690875	0.003801	0.388680
O15	O	1.667829	-0.156964	0.394962
O16	O	1.682066	-0.077947	0.569782
O17	O	1.676539	-0.075763	0.212651
V18	V	1.850407	-0.069239	0.374839
O19	O	1.777445	-0.100931	0.445520
O20	O	1.912614	-0.047471	0.326291
O21	O	1.797762	0.008562	0.376848
O22	O	1.888250	-0.152203	0.383130
O23	O	1.902586	-0.072639	0.559160
O24	O	1.783524	-0.070456	0.202029
V25	V	2.022919	-0.079163	0.396971
O26	O	2.024209	0.003801	0.388680
O27	O	2.001162	-0.156964	0.394962
O28	O	2.015400	-0.077947	0.569782
O29	O	2.009873	-0.075763	0.212651
V30	V	2.183741	-0.069239	0.374839
O31	O	2.110778	-0.100931	0.445520
O32	O	2.245947	-0.047471	0.326291
O33	O	2.131095	0.008562	0.376848
O34	O	2.221583	-0.152203	0.383130
O35	O	2.235919	-0.072639	0.559160
O36	O	2.116858	-0.070456	0.202029
C37	C	1.281183	-0.175930	0.388882
C38	C	1.290547	-0.239533	0.388392
C39	C	1.409524	-0.636867	0.391855
C40	C	1.418336	-0.696630	0.391414
O41	O	1.474617	-0.730021	0.396645
N42	N	1.361928	-0.723606	0.384817
C43	C	1.296706	-0.690816	0.378675
O44	O	1.249536	-0.719249	0.373025
C45	C	1.287897	-0.631054	0.379126
C46	C	1.344307	-0.604081	0.385710
C47	C	1.465930	-0.609893	0.398440
C48	C	1.457119	-0.550133	0.398879
C49	C	1.391901	-0.517347	0.392733
C50	C	1.335496	-0.544321	0.386149
C51	C	1.222677	-0.598266	0.372993
C52	C	1.213873	-0.538500	0.373445
C53	C	1.270284	-0.511526	0.380029
C54	C	1.261467	-0.451775	0.380442
N55	N	1.317875	-0.424799	0.387038
C56	C	1.383092	-0.457585	0.393184
C57	C	1.315211	-0.816321	0.377731
C58	C	1.324018	-0.876081	0.377271
C59	C	1.445647	-0.881891	0.390013
C60	C	1.436838	-0.822129	0.390463
C61	C	1.371619	-0.789345	0.384328
C62	C	1.364583	-0.332085	0.394104
C63	C	1.355764	-0.272319	0.394537
C64	C	1.234137	-0.266515	0.381803
C65	C	1.242953	-0.326274	0.381363
C66	C	1.308182	-0.359059	0.387519
O67	O	1.205208	-0.418348	0.375219
O68	O	1.430255	-0.429146	0.398850
C69	C	1.299343	-0.075135	0.611880
C70	C	1.320253	-0.074655	0.753159
C71	C	1.405522	0.027525	0.382925
C72	C	1.389237	0.091127	0.383424
C73	C	1.387361	-0.073269	0.159924
C74	C	1.359531	-0.073746	0.018644
C75	C	1.614516	-0.175930	0.388882
C76	C	1.623881	-0.239533	0.388392
C77	C	1.441908	-0.080373	0.766180
C78	C	1.512556	-0.083008	0.839063
C79	C	1.532198	-0.082557	0.971805
C80	C	1.481185	-0.079468	1.031666
C81	C	1.410537	-0.076833	0.958784
C82	C	1.390902	-0.077286	0.826040
C83	C	1.288883	-0.071111	0.945761
C84	C	1.269240	-0.071566	0.813020
C85	C	1.237870	-0.068022	1.005623
C86	C	1.167222	-0.065391	0.932742
C87	C	1.147581	-0.065843	0.799992
C88	C	1.198592	-0.068931	0.740138
C89	C	1.632677	-0.075135	0.611880
C90	C	1.653586	-0.074655	0.753159
C91	C	1.738855	0.027525	0.382925
C92	C	1.722570	0.091127	0.383424
C93	C	1.720694	-0.073269	0.159924
C94	C	1.692864	-0.073746	0.018644
C95	C	1.947849	-0.175930	0.388882
C96	C	1.957214	-0.239533	0.388392
C97	C	1.966010	-0.075135	0.611880
C98	C	1.986920	-0.074655	0.753159
C99	C	2.072188	0.027525	0.382925
C100	C	2.055904	0.091127	0.383424
C101	C	2.054028	-0.073269	0.159924
C102	C	2.026198	-0.073746	0.018644
C103	C	1.689098	-0.272319	0.394537
C104	C	1.697909	-0.332083	0.394096
C105	C	1.641501	-0.359059	0.387499
C106	C	1.576279	-0.326269	0.381357
C107	C	1.567470	-0.266507	0.381808
C108	C	1.772349	0.123913	0.377282
C109	C	1.757053	0.183676	0.377729
C110	C	1.691979	0.210652	0.384329
C111	C	1.642196	0.177862	0.390468
C112	C	1.657491	0.118101	0.390011
C113	C	2.022431	-0.272319	0.394537
C114	C	2.031242	-0.332083	0.394096
C115	C	1.974834	-0.359059	0.387499
C116	C	1.909613	-0.326269	0.381357
C117	C	1.900804	-0.266507	0.381808
C118	C	2.105683	0.123913	0.377282
C119	C	2.090386	0.183676	0.377729
C120	C	2.025312	0.210652	0.384329
C121	C	1.975529	0.177862	0.390468
C122	C	1.990824	0.118101	0.390011
C123	C	1.674819	-0.179448	0.790430
C124	C	1.695256	-0.231617	0.875437
C125	C	1.714902	-0.231163	1.008179
C126	C	1.714113	-0.178534	1.055915
C127	C	1.693676	-0.126366	0.970909
C128	C	1.674028	-0.126825	0.838166
C129	C	1.672449	-0.021574	0.933639
C130	C	1.652797	-0.022027	0.800896
C131	C	1.671660	0.031054	0.981376
C132	C	1.651218	0.083224	0.896368
C133	C	1.631570	0.082768	0.763619
C134	C	1.632360	0.030142	0.715889
C135	C	2.008152	-0.179448	0.790430
C136	C	2.028589	-0.231617	0.875437
C137	C	2.048236	-0.231163	1.008179
C138	C	2.047446	-0.178534	1.055915
C139	C	2.027010	-0.126366	0.970909
C140	C	2.007362	-0.126825	0.838166
C141	C	2.005782	-0.021574	0.933639
C142	C	1.986131	-0.022027	0.800896
C143	C	2.004993	0.031054	0.981376
C144	C	1.984551	0.083224	0.896368
C145	C	1.964903	0.082768	0.763619
C146	C	1.965694	0.030142	0.715889
H147	H	1.401703	-0.250360	0.399894
C148	C	1.609910	-0.085463	1.051981
H149	H	1.637480	-0.087372	0.997326
H150	H	1.613317	-0.051890	1.092130
H151	H	1.626881	-0.118931	1.115941
H152	H	1.948266	0.125250	0.694413
H153	H	1.616359	0.029766	0.607806
C154	C	2.070720	-0.288546	1.101688
H155	H	2.068375	-0.319955	1.054252
H156	H	2.117736	-0.292373	1.158401
H157	H	2.039909	-0.288716	1.150087
C158	C	1.602732	0.082040	0.396771
H159	H	1.621151	0.042584	0.395545
H160	H	1.592667	0.085416	0.473966
H161	H	1.560591	0.095870	0.324948
C162	C	1.986545	-0.179950	0.644419
H163	H	1.989947	-0.218763	0.628164
H164	H	1.939270	-0.158870	0.603343
H165	H	2.017102	-0.162535	0.611676
C166	C	1.675160	0.276389	0.384837
H167	H	1.629274	0.287764	0.389639
H168	H	1.708953	0.285751	0.457091
H169	H	1.676870	0.296207	0.308074
H170	H	1.589212	0.199835	0.395839
H171	H	1.530355	-0.348242	0.375986
H172	H	1.949692	0.029766	0.607806
C173	C	1.651195	-0.424796	0.386997
H174	H	1.608263	-0.436171	0.382195
H175	H	1.663761	-0.434159	0.314743
H176	H	1.687539	-0.444613	0.463760
H177	H	1.863689	-0.348242	0.375986
H178	H	2.068368	-0.250363	0.399901
C179	C	2.026592	0.031558	1.127385
H180	H	2.023196	0.070371	1.143638
H181	H	1.996038	0.014141	1.160124
H182	H	2.073871	0.010480	1.168470
H183	H	2.130930	0.210366	0.372732
C184	C	1.984532	-0.424796	0.387000
H185	H	2.031453	-0.440454	0.391595
H186	H	1.975956	-0.442472	0.459047
H187	H	1.952178	-0.432016	0.310030
H188	H	1.497183	-0.079093	1.139750
C189	C	1.259470	-0.067520	1.151633
H190	H	1.218971	-0.065298	1.176841
H191	H	1.293167	-0.101992	1.195991
H192	H	1.279587	-0.034950	1.172143
C193	C	1.843930	0.094252	0.370011
H194	H	1.871376	0.122345	0.366402
H195	H	1.868333	0.065832	0.444066
H196	H	1.836240	0.076290	0.295050
C197	C	1.495725	-0.230446	0.375024
H198	H	1.463395	-0.255074	0.371017
H199	H	1.501637	-0.212233	0.449432
H200	H	1.477871	-0.201791	0.300416
C201	C	1.811822	0.219734	0.370989
H202	H	1.852770	0.195104	0.367017
H203	H	1.792214	0.248394	0.296399
H204	H	1.824281	0.237939	0.445417
C205	C	1.568665	-0.086408	0.773214
H206	H	1.546853	-0.086305	0.683721
H207	H	1.590090	-0.053992	0.785727
H208	H	1.603664	-0.121034	0.809563
H209	H	1.498751	-0.908596	0.395007
C210	C	2.102985	-0.368140	0.400836
H211	H	2.135309	-0.343510	0.404805
H212	H	2.120850	-0.396800	0.475428
H213	H	2.097053	-0.386347	0.326409
H214	H	1.417697	-0.358771	0.399119
H215	H	1.847695	-0.239816	0.376796
H216	H	1.181036	-0.239809	0.376793
C217	C	1.693269	0.031554	1.127387
H218	H	1.705546	-0.007052	1.171178
H219	H	1.732704	0.049178	1.154696
H220	H	1.654874	0.052840	1.146368
C221	C	1.069870	-0.062946	0.719826
H222	H	1.065474	-0.063655	0.632194
H223	H	1.054885	-0.095214	0.750827
H224	H	1.041307	-0.028172	0.726987
C225	C	2.177263	0.094252	0.370011
H226	H	2.204709	0.122345	0.366402
H227	H	2.201666	0.065832	0.444066
H228	H	2.169573	0.076290	0.295050
C229	C	2.008498	0.276388	0.384842
H230	H	2.047472	0.292046	0.380252
H231	H	1.967791	0.294068	0.312799
H232	H	1.999875	0.283604	0.461816
C233	C	1.650351	0.141107	0.948881
H234	H	1.664978	0.133905	1.040111
H235	H	1.681677	0.160734	0.923622
H236	H	1.603852	0.164389	0.915323
C237	C	1.653211	-0.179950	0.644419
H238	H	1.656613	-0.218763	0.628164
H239	H	1.605937	-0.158870	0.603343
H240	H	1.683768	-0.162535	0.611676
C241	C	1.696119	-0.289503	0.822923
H242	H	1.681485	-0.282304	0.731692
H243	H	1.742610	-0.312790	0.856489
H244	H	1.664782	-0.309123	0.848179
H245	H	1.182607	-0.069303	0.632054
H246	H	1.730120	-0.178170	1.164004
C247	C	1.111118	-0.061995	0.998590
H248	H	1.132934	-0.062104	1.088084
H249	H	1.076113	-0.027376	0.962243
H250	H	1.089701	-0.094419	0.986088
H251	H	1.614933	0.125250	0.694413
C252	C	2.029452	-0.289503	0.822923
H253	H	2.014818	-0.282304	0.731692
H254	H	2.075943	-0.312790	0.856489
H255	H	1.998115	-0.309123	0.848179
H256	H	1.735034	-0.250363	0.399901
H257	H	1.751020	-0.358773	0.399094
H258	H	2.063453	-0.178170	1.164004
C259	C	1.737387	-0.288546	1.101688
H260	H	1.735042	-0.319955	1.054252
H261	H	1.784403	-0.292373	1.158401
H262	H	1.706575	-0.288716	1.150087
H263	H	1.922545	0.199835	0.395839
H264	H	1.278079	-0.898036	0.371893
C265	C	1.983709	0.141107	0.948877
H266	H	1.968732	0.172112	0.879244
H267	H	1.952033	0.145305	0.995753
H268	H	2.029858	0.141618	1.004021
C269	C	1.519172	-0.520468	0.406135
H270	H	1.504592	-0.480178	0.405512
H271	H	1.557490	-0.536685	0.483183
H272	H	1.533711	-0.526235	0.334166
C273	C	1.537672	-0.645948	0.405191
H274	H	1.569994	-0.621316	0.409166
H275	H	1.555538	-0.674610	0.479779
H276	H	1.531744	-0.664152	0.330761
C277	C	1.420307	-0.080879	0.620171
H278	H	1.460804	-0.083094	0.594958
H279	H	1.400187	-0.113444	0.599663
H280	H	1.386610	-0.046402	0.575812
H281	H	1.950287	0.091410	0.395024
H282	H	1.482773	-0.800171	0.395822
H283	H	1.197020	-0.348238	0.376010
H284	H	1.176739	-0.620216	0.367622
C285	C	1.243461	-0.780260	0.370954
H286	H	1.211132	-0.804889	0.366948
H287	H	1.249376	-0.762048	0.445363
H288	H	1.225606	-0.751604	0.296347
H289	H	1.160764	-0.511810	0.368455
