data_functionalizedCrystal
_audit_creation_method	'MofGen! by Chris Wilmer'
_symmetry_space_group_name_H-M	'P1'
_symmetry_Int_Tables_number	1
_symmetry_cell_setting	triclinic
loop_
_symmetry_equiv_pos_as_xyz
  x,y,z
_cell_length_a	15.995350
_cell_length_b	10.654550
_cell_length_c	9.730223
_cell_angle_alpha	90.004253
_cell_angle_beta	89.999643
_cell_angle_gamma	83.988653
loop_
_atom_site_label
_atom_site_type_symbol
_atom_site_fract_x
_atom_site_fract_y
_atom_site_fract_z
O1	O	-1.111924	-0.161873	-0.114173
O2	O	-0.868265	-0.181862	-0.114201
O3	O	-0.995697	0.010945	-0.114178
O4	O	-0.984492	-0.354680	-0.114196
O5	O	-0.995688	0.010950	0.114402
O6	O	-0.868257	-0.181857	0.114379
O7	O	-1.111916	-0.161867	0.114407
Zn8	Zn	-0.990085	-0.171861	0.150685
Zn9	Zn	-0.990096	-0.171868	-0.150479
O10	O	-0.984484	-0.354674	0.114384
C11	C	-0.837061	-0.181033	0.000085
C12	C	-0.744096	-0.178555	0.000075
C13	C	-0.994870	0.057735	0.000111
C14	C	-0.992409	0.197146	0.000109
C15	C	-1.143119	-0.162696	0.000118
C16	C	-1.236084	-0.165174	0.000119
C17	C	-0.406297	-0.169658	0.000104
C18	C	-0.452934	-0.032344	0.000621
C19	C	-0.549639	-0.034822	0.000096
C20	C	-0.573883	-0.174071	0.000090
C21	C	-0.533194	-0.241802	-0.130438
C22	C	-0.436539	-0.238352	-0.130538
C23	C	-0.436207	-0.241184	0.129400
C24	C	-0.533152	-0.241151	0.131116
C25	C	-0.668595	-0.176573	0.000078
C26	C	-0.311585	-0.167161	0.000107
C27	C	-0.985311	-0.401464	0.000091
C28	C	-0.987772	-0.540875	0.000085
N29	N	-0.990084	-0.171856	0.356221
C30	C	-1.067438	0.277612	0.000117
C31	C	-1.065121	0.408602	0.000100
C32	C	-0.912737	0.378649	0.000072
C33	C	-0.915055	0.247661	0.000080
N34	N	-0.990104	-0.171864	-0.356015
C35	C	-1.046530	-0.086517	0.428157
C36	C	-1.046538	-0.086517	0.572040
C37	C	-0.933651	-0.257207	0.572038
C38	C	-0.933640	-0.257199	0.428158
H39	H	-0.577755	0.018417	0.093664
C40	C	-1.146649	0.495816	-0.000101
C41	C	-1.193197	0.472946	-0.117668
C42	C	-1.268314	0.553250	-0.117893
H43	H	-1.134313	0.581107	-0.000184
H44	H	-1.178373	0.480493	0.079579
H45	H	-1.161479	0.488278	-0.197327
H46	H	-1.205555	0.387670	-0.117609
H47	H	-1.300038	0.537927	-0.038213
H48	H	-1.255970	0.638536	-0.117973
H49	H	-1.299909	0.537735	-0.197654
H50	H	-0.415407	-0.196290	0.228337
C51	C	-0.570830	-0.179082	-0.259849
C52	C	-0.657649	-0.186995	-0.261479
C53	C	-0.692349	-0.129208	-0.380655
H54	H	-0.545907	-0.220655	-0.338402
H55	H	-0.560411	-0.092924	-0.261019
H56	H	-0.668061	-0.273136	-0.260323
H57	H	-0.682594	-0.145416	-0.182954
H58	H	-0.681930	-0.043051	-0.381824
H59	H	-0.667420	-0.170787	-0.459198
H60	H	-0.751260	-0.134559	-0.381771
C61	C	-1.107706	0.006380	0.350163
C62	C	-1.093380	0.129777	0.385203
C63	C	-1.149711	0.215405	0.313388
H64	H	-1.163700	-0.007129	0.373682
H65	H	-1.099627	-0.005720	0.254149
H66	H	-1.101465	0.141873	0.481195
H67	H	-1.037396	0.143326	0.361680
H68	H	-1.141632	0.203305	0.217374
H69	H	-1.205702	0.201885	0.336913
H70	H	-1.139994	0.299140	0.337143
C71	C	-0.569023	-0.175108	0.259918
C72	C	-0.503903	-0.129742	0.335183
C73	C	-0.536924	-0.068880	0.453828
H74	H	-0.595723	-0.233112	0.314557
H75	H	-0.608891	-0.106570	0.234701
H76	H	-0.464050	-0.198272	0.360402
H77	H	-0.477197	-0.071723	0.280585
H78	H	-0.576792	-0.000342	0.428611
H79	H	-0.563623	-0.126891	0.508455
H80	H	-0.492747	-0.038081	0.504904
C81	C	-0.833654	0.160137	0.000283
C82	C	-0.830538	0.084047	0.117864
C83	C	-0.755574	0.003394	0.118082
H84	H	-0.787185	0.208821	0.000344
H85	H	-0.831395	0.108338	-0.079387
H86	H	-0.832789	0.135841	0.197514
H87	H	-0.876990	0.035337	0.117829
H88	H	-0.753315	-0.048405	0.038412
H89	H	-0.709111	0.052088	0.118139
H90	H	-0.753453	-0.048250	0.197852
C91	C	-0.411674	-0.172732	-0.260739
C92	C	-0.356216	-0.255698	-0.337400
C93	C	-0.333307	-0.195295	-0.457359
H94	H	-0.384936	-0.100203	-0.237073
H95	H	-0.460496	-0.148025	-0.313795
H96	H	-0.307402	-0.280387	-0.284355
H97	H	-0.382936	-0.328228	-0.361102
H98	H	-0.382129	-0.170588	-0.510414
H99	H	-0.306572	-0.122768	-0.433679
H100	H	-0.295682	-0.251582	-0.509394
C101	C	-0.586546	0.036625	-0.124772
C102	C	-0.673926	0.034598	-0.125548
C103	C	-0.707954	0.100414	-0.240554
H104	H	-0.563378	-0.002251	-0.206060
H105	H	-0.573533	0.121536	-0.120955
H106	H	-0.686932	-0.050297	-0.129377
H107	H	-0.697117	0.073482	-0.044286
H108	H	-0.694941	0.185325	-0.236737
H109	H	-0.684780	0.061532	-0.321833
H110	H	-0.767245	0.099057	-0.241089
H111	H	-1.092501	-0.017025	0.630607
C112	C	-0.828840	0.433740	0.000126
C113	C	-0.842866	0.565677	0.000162
C114	C	-0.765599	0.616466	0.000235
H115	H	-0.797852	0.406253	-0.079566
H116	H	-0.797904	0.406196	0.079866
H117	H	-0.873789	0.593210	-0.079569
H118	H	-0.873841	0.593199	0.079849
H119	H	-0.734663	0.588922	0.079975
H120	H	-0.734617	0.588970	-0.079458
H121	H	-0.775105	0.705989	0.000273
C122	C	-0.872337	-0.349668	0.650324
C123	C	-0.820722	-0.282727	0.732979
C124	C	-0.764237	-0.367863	0.805127
H125	H	-0.838634	-0.400528	0.587033
H126	H	-0.902741	-0.401957	0.706515
H127	H	-0.790321	-0.230460	0.676793
H128	H	-0.854402	-0.231871	0.796296
H129	H	-0.794641	-0.420153	0.861317
H130	H	-0.730540	-0.418719	0.741825
H131	H	-0.729215	-0.322457	0.861225
C132	C	-1.151359	0.222591	-0.000082
C133	C	-1.157136	0.148228	-0.117659
C134	C	-1.234428	0.097513	-0.117886
H135	H	-1.195786	0.289148	-0.000154
H136	H	-1.155438	0.172053	0.079591
H137	H	-1.153065	0.198763	-0.197311
H138	H	-1.112727	0.081652	-0.117613
H139	H	-1.238507	0.046975	-0.038213
H140	H	-1.278848	0.164077	-0.117954
H141	H	-1.238354	0.047043	-0.197653
C142	C	-0.872315	-0.350001	0.350293
C143	C	-0.822906	-0.424773	0.444084
C144	C	-0.766414	-0.510278	0.372405
H145	H	-0.837121	-0.304933	0.294176
H146	H	-0.902710	-0.402371	0.294178
H147	H	-0.792514	-0.372409	0.500175
H148	H	-0.858078	-0.469868	0.500204
H149	H	-0.796809	-0.562648	0.316290
H150	H	-0.731225	-0.465199	0.316290
H151	H	-0.732889	-0.561028	0.436030
C152	C	-0.394756	-0.376238	0.130792
C153	C	-0.421899	-0.438950	0.246362
C154	C	-0.383737	-0.563362	0.247668
H155	H	-0.335429	-0.375928	0.134220
H156	H	-0.409799	-0.418413	0.049855
H157	H	-0.406850	-0.396788	0.327278
H158	H	-0.481220	-0.439296	0.242958
H159	H	-0.398779	-0.605536	0.166731
H160	H	-0.324411	-0.563039	0.251093
H161	H	-0.402153	-0.605931	0.326073
H162	H	-0.433026	0.022288	-0.092465
C163	C	-0.427638	0.040870	0.125309
C164	C	-0.340795	0.048446	0.122399
C165	C	-0.317455	0.115895	0.237233
H166	H	-0.441932	-0.001147	0.206761
H167	H	-0.456413	0.123518	0.123714
H168	H	-0.312029	-0.034186	0.124007
H169	H	-0.326480	0.090474	0.040973
H170	H	-0.346231	0.198542	0.235638
H171	H	-0.331754	0.073871	0.318676
H172	H	-0.258532	0.121054	0.235267
C173	C	-0.394470	-0.372856	-0.138544
C174	C	-0.456114	-0.456866	-0.143264
C175	C	-0.417397	-0.580775	-0.150674
H176	H	-0.360059	-0.390361	-0.059870
H177	H	-0.360811	-0.382423	-0.219066
H178	H	-0.489758	-0.447305	-0.062751
H179	H	-0.490529	-0.439402	-0.221935
H180	H	-0.383738	-0.590342	-0.231196
H181	H	-0.382987	-0.598267	-0.071997
H182	H	-0.459216	-0.637790	-0.153890
H183	H	-0.549106	-0.342696	0.138996
H184	H	-0.547914	-0.344105	-0.135296
