data_functionalizedCrystal
_audit_creation_method	'MofGen! by Chris Wilmer'
_symmetry_space_group_name_H-M	'P1'
_symmetry_Int_Tables_number	1
_symmetry_cell_setting	triclinic
loop_
_symmetry_equiv_pos_as_xyz
  x,y,z
_cell_length_a	16.956995
_cell_length_b	15.944551
_cell_length_c	15.455313
_cell_angle_alpha	92.664316
_cell_angle_beta	87.515363
_cell_angle_gamma	79.776605
loop_
_atom_site_label
_atom_site_type_symbol
_atom_site_fract_x
_atom_site_fract_y
_atom_site_fract_z
O1	O	1.061537	0.030892	-0.072191
O2	O	0.829381	0.060381	-0.072180
O3	O	0.951798	-0.077078	-0.072178
O4	O	0.939119	0.168352	-0.072193
O5	O	0.944797	-0.069248	0.072084
O6	O	0.822380	0.068211	0.072082
O7	O	1.054536	0.038723	0.072071
Cu8	Cu	0.937819	0.054182	0.085249
Cu9	Cu	0.946098	0.044922	-0.085358
O10	O	0.932119	0.176182	0.072069
C11	C	0.796172	0.065806	-0.000048
C12	C	0.707652	0.070295	-0.000043
C13	C	0.947771	-0.104421	-0.000047
C14	C	0.946193	-0.197557	-0.000046
C15	C	0.208355	0.103873	-0.000078
C16	C	0.291530	0.099649	-0.000077
C17	C	0.342613	0.020359	-0.000065
C18	C	0.310519	-0.054712	-0.000064
C19	C	0.227345	-0.050487	-0.000071
C20	C	0.592384	-0.000552	-0.000049
C21	C	0.675562	-0.004770	-0.000039
C22	C	0.656568	0.149591	-0.000054
C23	C	0.573393	0.153809	-0.000056
C24	C	0.541306	0.078738	-0.000059
N25	N	0.427632	0.016040	-0.000062
N26	N	0.456290	0.083058	-0.000069
C27	C	0.866542	-0.406879	-0.000055
C28	C	0.900078	-0.466606	0.071073
C29	C	0.943339	-0.368085	-0.000053
C30	C	0.906998	-0.474311	-0.071158
C31	C	0.940576	-0.532806	-0.000063
C32	C	0.976893	-0.426582	0.071134
C33	C	0.983805	-0.434283	-0.071161
C34	C	1.017397	-0.493995	-0.000016
C35	C	0.944928	-0.273193	-0.000046
C36	C	0.938992	-0.627697	-0.000063
C37	C	1.087745	0.033297	-0.000064
C38	C	1.176265	0.028808	-0.000074
C39	C	0.936146	0.203524	-0.000064
C40	C	0.937724	0.296660	-0.000071
N41	N	0.932002	0.060694	0.205244
N42	N	0.951921	0.038402	-0.205353
C43	C	0.984027	0.002315	0.250639
C44	C	0.979635	0.007247	0.341447
C45	C	0.923222	0.070562	0.386858
C46	C	0.871191	0.128944	0.341457
C47	C	0.875579	0.124007	0.250650
C48	C	0.904279	0.091847	0.658439
C49	C	0.899896	0.096781	0.749252
C50	C	1.008340	-0.024917	0.749236
C51	C	1.012727	-0.029845	0.658428
C52	C	0.960693	0.028534	0.613034
N53	N	0.918733	0.075607	0.479678
N54	N	0.965179	0.023485	0.520216
H55	H	0.166767	0.168441	-0.000081
C56	C	0.867578	-0.502278	-0.151414
C57	C	0.843864	-0.431699	-0.200948
C58	C	0.807552	-0.457426	-0.274887
H59	H	0.821892	-0.525674	-0.134429
H60	H	0.904729	-0.544204	-0.184966
H61	H	0.806715	-0.389787	-0.167402
H62	H	0.889535	-0.408294	-0.217956
H63	H	0.844703	-0.499353	-0.308439
H64	H	0.761869	-0.480823	-0.257894
H65	H	0.791465	-0.409545	-0.308509
H66	H	1.050702	-0.072447	0.786203
H67	H	0.531806	0.218375	-0.000068
C68	C	1.036229	-0.056178	0.390576
C69	C	1.086594	-0.112661	0.331371
C70	C	1.138750	-0.171093	0.376597
H71	H	1.005938	-0.087339	0.426021
H72	H	1.067748	-0.026335	0.425962
H73	H	1.055078	-0.142502	0.296001
H74	H	1.116902	-0.081525	0.295924
H75	H	1.170269	-0.141249	0.411982
H76	H	1.108452	-0.202247	0.412040
H77	H	1.172933	-0.209418	0.336433
H78	H	0.853954	0.148344	0.786221
C79	C	1.016425	-0.398668	0.151333
C80	C	1.095135	-0.443920	0.151406
C81	C	1.131576	-0.418218	0.225265
H82	H	0.986976	-0.409940	0.201847
H83	H	1.017215	-0.339260	0.150861
H84	H	1.094341	-0.503314	0.151886
H85	H	1.124606	-0.432653	0.100909
H86	H	1.132366	-0.358810	0.224793
H87	H	1.102121	-0.429491	0.275773
H88	H	1.184987	-0.448911	0.225321
C89	C	0.809896	0.197560	0.390871
C90	C	0.758582	0.159008	0.443045
C91	C	0.702115	0.222192	0.488585
H92	H	0.779455	0.231657	0.350930
H93	H	0.836846	0.232470	0.426328
H94	H	0.731634	0.124113	0.407591
H95	H	0.788999	0.124917	0.483003
H96	H	0.729064	0.257102	0.524042
H97	H	0.671680	0.256285	0.448638
H98	H	0.667296	0.196044	0.523997
H99	H	1.029969	-0.049239	0.213671
H100	H	0.352118	-0.119272	-0.000060
H101	H	0.317653	0.160775	-0.000088
C102	C	0.852733	-0.485990	0.151184
C103	C	0.773806	-0.441372	0.150852
C104	C	0.730162	-0.459212	0.224626
H105	H	0.876949	-0.468822	0.201755
H106	H	0.852440	-0.545533	0.150871
H107	H	0.774102	-0.381843	0.151172
H108	H	0.749567	-0.458533	0.100297
H109	H	0.729869	-0.518754	0.224314
H110	H	0.754384	-0.442043	0.275192
H111	H	0.676603	-0.428948	0.224407
C112	C	1.102522	-0.543997	-0.000104
C113	C	1.146414	-0.526711	-0.073933
C114	C	1.224839	-0.572738	-0.074033
H115	H	1.101223	-0.603332	-0.000626
H116	H	1.127253	-0.527597	0.050432
H117	H	1.121689	-0.543117	-0.124455
H118	H	1.147736	-0.467385	-0.073426
H119	H	1.249571	-0.556337	-0.023498
H120	H	1.223532	-0.632070	-0.074553
H121	H	1.254632	-0.561010	-0.124120
H122	H	0.682703	0.210710	-0.000053
C123	C	0.730897	-0.090947	-0.000083
C124	C	0.684997	-0.155789	-0.000114
C125	C	0.735944	-0.235181	-0.000167
H126	H	0.761310	-0.093197	0.050213
H127	H	0.766173	-0.098572	-0.050408
H128	H	0.649735	-0.148167	0.050206
H129	H	0.654585	-0.153567	-0.050407
H130	H	0.771220	-0.242806	-0.050493
H131	H	0.766354	-0.237423	0.050129
H132	H	0.704809	-0.279186	-0.000197
C133	C	0.557521	-0.082040	-0.000226
C134	C	0.513959	-0.088175	-0.074464
C135	C	0.481840	-0.163240	-0.074663
H136	H	0.522969	-0.080956	0.050017
H137	H	0.599841	-0.129887	-0.000263
H138	H	0.471644	-0.040339	-0.074419
H139	H	0.548494	-0.089273	-0.124719
H140	H	0.524161	-0.211088	-0.074699
H141	H	0.447291	-0.162150	-0.024416
H142	H	0.452286	-0.167417	-0.125036
H143	H	1.058663	-0.081401	0.621456
C144	C	0.192350	-0.131894	-0.000108
C145	C	0.108578	-0.111226	-0.000142
C146	C	0.076315	-0.186198	-0.000192
H147	H	0.207345	-0.161625	0.050190
H148	H	0.212286	-0.167036	-0.050431
H149	H	0.088650	-0.076098	0.050176
H150	H	0.093561	-0.081506	-0.050436
H151	H	0.096252	-0.221340	-0.050516
H152	H	0.091316	-0.215924	0.050106
H153	H	0.019474	-0.172186	-0.000223
H154	H	0.861912	0.139383	0.621487
H155	H	0.802793	-0.369138	0.000019
C156	C	1.030977	-0.414624	-0.151271
C157	C	1.032442	-0.327047	-0.149756
C158	C	1.075890	-0.308904	-0.223540
H159	H	1.006127	-0.430732	-0.201824
H160	H	1.084317	-0.445608	-0.151786
H161	H	0.979112	-0.296073	-0.149249
H162	H	1.057298	-0.310918	-0.099219
H163	H	1.129230	-0.339888	-0.224056
H164	H	1.051036	-0.325016	-0.274088
H165	H	1.076896	-0.249484	-0.222518
C166	C	0.819053	0.187498	0.201518
C167	C	0.768723	0.244019	0.260720
C168	C	0.716645	0.302524	0.215492
H169	H	0.787497	0.157743	0.166107
H170	H	0.849427	0.218613	0.166097
H171	H	0.738352	0.212907	0.296126
H172	H	0.800257	0.273794	0.296132
H173	H	0.747019	0.333639	0.180071
H174	H	0.685094	0.272761	0.180083
H175	H	0.682495	0.340885	0.255654
