data_functionalizedCrystal
_audit_creation_method	'MofGen! by Chris Wilmer'
_symmetry_space_group_name_H-M	'P1'
_symmetry_Int_Tables_number	1
_symmetry_cell_setting	triclinic
loop_
_symmetry_equiv_pos_as_xyz
  x,y,z
_cell_length_a	27.732048
_cell_length_b	10.654550
_cell_length_c	9.730223
_cell_angle_alpha	90.003749
_cell_angle_beta	89.993758
_cell_angle_gamma	96.436222
loop_
_atom_site_label
_atom_site_type_symbol
_atom_site_fract_x
_atom_site_fract_y
_atom_site_fract_z
O1	O	0.067884	-1.664980	-0.114419
O2	O	0.074351	-1.299230	-0.114399
O3	O	0.000792	-1.493465	-0.114384
O4	O	0.141444	-1.470746	-0.114435
O5	O	0.000793	-1.493462	0.114196
O6	O	0.074353	-1.299228	0.114181
O7	O	0.067886	-1.664978	0.114161
Zn8	Zn	0.071120	-1.482102	0.150463
Zn9	Zn	0.071117	-1.482105	-0.150701
O10	O	0.141445	-1.470743	0.114145
C11	C	-0.017217	-1.492987	-0.000090
C12	C	-0.070881	-1.491551	-0.000078
C13	C	0.073878	-1.252451	-0.000106
C14	C	0.072457	-1.113067	-0.000097
C15	C	0.068360	-1.711757	-0.000135
C16	C	0.069780	-1.851141	-0.000153
C17	C	-0.409038	-1.597290	-0.000155
C18	C	-0.610731	-1.591962	-0.000174
O19	O	-0.641384	-1.688653	-0.000239
N20	N	-0.630572	-1.476789	-0.000166
C21	C	-0.599986	-1.362940	-0.000163
O22	O	-0.621490	-1.264856	-0.000171
C23	C	-0.398294	-1.368269	-0.000154
C24	C	-0.378456	-1.483449	-0.000147
C25	C	-0.389199	-1.712461	-0.000150
C26	C	-0.338779	-1.713792	-0.000138
C27	C	-0.308197	-1.599951	-0.000131
C28	C	-0.328036	-1.484780	-0.000135
C29	C	-0.367709	-1.254421	-0.000160
C30	C	-0.317284	-1.255764	-0.000161
C31	C	-0.297446	-1.370944	-0.000155
C32	C	-0.247034	-1.372271	-0.000115
N33	N	-0.227193	-1.487444	-0.000123
C34	C	-0.257775	-1.601284	-0.000131
C35	C	-0.705877	-1.360150	-0.000165
C36	C	-0.756300	-1.358817	-0.000164
C37	C	-0.767041	-1.587840	-0.000178
C38	C	-0.716618	-1.589171	-0.000169
C39	C	-0.686036	-1.475323	-0.000172
C40	C	-0.151888	-1.604070	-0.000104
C41	C	-0.101463	-1.605391	-0.000086
C42	C	-0.090726	-1.376369	-0.000080
C43	C	-0.141147	-1.375047	-0.000090
C44	C	-0.171727	-1.488908	-0.000107
O45	O	-0.216352	-1.275631	-0.000065
O46	O	-0.236261	-1.699354	-0.000153
C47	C	-0.459458	-1.595959	-0.000167
C48	C	-0.479296	-1.480788	-0.000172
C49	C	-0.448715	-1.366948	-0.000164
C50	C	-0.529719	-1.479455	-0.000172
C51	C	-0.560301	-1.593296	-0.000179
C52	C	-0.540460	-1.708469	-0.000187
C53	C	-0.490040	-1.709800	-0.000175
C54	C	-0.468556	-1.251774	-0.000157
C55	C	-0.518976	-1.250453	-0.000167
C56	C	-0.549558	-1.364293	-0.000175
C57	C	0.159454	-1.471221	-0.000152
C58	C	0.213118	-1.472657	-0.000172
N59	N	0.071121	-1.482110	0.355999
C60	C	0.115768	-1.031761	-0.000133
C61	C	0.114430	-0.900796	-0.000156
C62	C	0.026466	-0.932457	-0.000114
C63	C	0.027805	-1.063419	-0.000080
C64	C	0.160420	-1.081409	-0.000149
C65	C	0.203734	-1.000101	-0.000187
C66	C	0.202396	-0.869136	-0.000210
C67	C	0.157744	-0.819479	-0.000196
N68	N	0.071112	-1.482108	-0.356238
C69	C	0.038560	-1.568138	0.427932
C70	C	0.038554	-1.568135	0.571815
C71	C	0.103675	-1.396071	0.571820
C72	C	0.103678	-1.396069	0.427939
C73	C	0.006003	-1.654179	0.355992
C74	C	-0.026560	-1.740215	0.427925
C75	C	-0.026566	-1.740212	0.571808
C76	C	0.005991	-1.654173	0.643758
H77	H	-0.085314	-1.699189	-0.000077
N78	N	-0.061685	-1.833008	0.649392
H79	H	-0.056749	-1.819956	0.751456
H80	H	-0.096025	-1.819183	0.624244
N81	N	0.156304	-0.678223	-0.000216
H82	H	0.138713	-0.652909	-0.084950
H83	H	0.138726	-0.652970	0.084576
H84	H	0.161514	-1.188045	-0.000137
H85	H	0.130192	-1.326015	0.369371
N86	N	0.249103	-0.781411	-0.000236
H87	H	0.250502	-0.726357	0.084492
H88	H	0.277572	-0.832801	-0.000289
N89	N	-0.422179	-1.835257	-0.000157
H90	H	-0.401953	-1.908407	-0.000153
H91	H	-0.443335	-1.839694	0.084585
N92	N	0.251893	-1.053650	-0.000186
H93	H	0.246169	-1.148952	-0.000168
H94	H	0.270863	-1.023864	-0.084935
H95	H	0.130182	-1.326022	0.630411
N96	N	-0.435575	-1.128983	-0.000150
H97	H	-0.455800	-1.055829	-0.000146
H98	H	-0.414427	-1.124543	0.084595
N99	N	-0.018907	-1.151127	-0.000051
H100	H	-0.020309	-1.206142	0.084701
H101	H	-0.047370	-1.099718	-0.000108
H102	H	-0.473893	-1.803591	-0.000170
N103	N	0.006012	-1.654173	0.200806
H104	H	0.013354	-1.739346	0.166143
H105	H	-0.026898	-1.636503	0.166256
H106	H	-0.009888	-0.892016	-0.000125
N107	N	-0.284300	-1.132967	-0.000172
H108	H	-0.304522	-1.059808	-0.000177
H109	H	-0.263150	-1.128521	0.084569
N110	N	-0.695225	-1.713403	-0.000166
H111	H	-0.674541	-1.719073	-0.084900
H112	H	-0.674573	-1.718985	0.084625
N113	N	-0.061685	-1.832984	0.350332
H114	H	-0.056743	-1.819930	0.248269
H115	H	-0.055790	-1.921960	0.375468
N116	N	0.005988	-1.654152	0.798946
H117	H	-0.026918	-1.636527	0.833606
H118	H	0.013344	-1.739340	0.833495
N119	N	-0.540365	-1.126207	-0.000157
H120	H	-0.529232	-1.076386	-0.084890
H121	H	-0.576945	-1.142720	-0.000113
H122	H	-0.680982	-1.267435	-0.000167
H123	H	-0.176781	-1.696787	-0.000123
H124	H	-0.791950	-1.680533	-0.000184
N125	N	-0.317386	-1.838023	-0.000136
H126	H	-0.344416	-1.909928	-0.000146
H127	H	-0.296696	-1.843570	-0.084874
H128	H	-0.772447	-1.265026	-0.000146
H129	H	-0.157300	-1.281258	-0.000057
N130	N	-0.389098	-1.130189	-0.000149
H131	H	-0.362067	-1.058287	-0.000147
H132	H	-0.409781	-1.124637	-0.084886
H133	H	-0.065818	-1.283683	-0.000069
H134	H	-0.565369	-1.801162	-0.000187
