data_functionalizedCrystal
_audit_creation_method	'MofGen! by Chris Wilmer'
_symmetry_space_group_name_H-M	'P1'
_symmetry_Int_Tables_number	1
_symmetry_cell_setting	triclinic
loop_
_symmetry_equiv_pos_as_xyz
  x,y,z
_cell_length_a	10.967926
_cell_length_b	11.026607
_cell_length_c	7.681481
_cell_angle_alpha	82.996689
_cell_angle_beta	107.828676
_cell_angle_gamma	96.380754
loop_
_atom_site_label
_atom_site_type_symbol
_atom_site_fract_x
_atom_site_fract_y
_atom_site_fract_z
O1	O	1.717590	0.141297	0.374774
O2	O	1.350952	0.166293	0.263516
O3	O	1.503885	-0.022388	0.309931
O4	O	1.564657	0.329978	0.328359
O5	O	1.522697	-0.045663	0.608498
O6	O	1.369764	0.143018	0.562083
O7	O	1.736402	0.118022	0.673341
Zn8	Zn	1.556070	0.126825	0.665116
Zn9	Zn	1.531285	0.157491	0.271741
O10	O	1.583469	0.306703	0.626926
C11	C	1.312691	0.154596	0.398335
C12	C	1.170655	0.154402	0.355233
C13	C	1.117075	0.142259	0.490683
C14	C	0.970273	0.142059	0.446139
C15	C	1.502079	-0.079062	0.455810
C16	C	1.468657	-0.213258	0.445661
C17	C	1.560941	-0.288493	0.473663
C18	C	1.526399	-0.427192	0.463174
C19	C	1.774663	0.129720	0.538519
C20	C	1.916698	0.129914	0.581609
C21	C	1.585275	0.363378	0.481043
C22	C	1.618696	0.497574	0.491180
N23	N	1.572994	0.105895	0.933587
N24	N	1.514368	0.178411	0.003273
H25	H	1.107844	0.164647	0.206291
C26	C	1.201928	0.128466	0.691903
N27	N	1.265840	0.118097	0.843467
H28	H	1.364076	-0.251528	0.413914
C29	C	1.385107	-0.478882	0.420301
N30	N	1.278687	-0.517818	0.388014
C31	C	1.653857	0.005899	1.059724
N32	N	1.714760	-0.069418	1.154731
H33	H	1.454522	0.252427	0.909913
C34	C	0.885429	0.155904	0.244910
N35	N	0.821523	0.166334	0.093348
C36	C	1.001539	0.116055	0.782838
N37	N	1.065441	0.105615	0.934402
H38	H	1.665521	-0.250223	0.505409
H39	H	1.723275	-0.464152	0.522783
