data_functionalizedCrystal
_audit_creation_method	'MofGen! by Chris Wilmer'
_symmetry_space_group_name_H-M	'P1'
_symmetry_Int_Tables_number	1
_symmetry_cell_setting	triclinic
loop_
_symmetry_equiv_pos_as_xyz
  x,y,z
_cell_length_a	19.077105
_cell_length_b	12.759394
_cell_length_c	19.076919
_cell_angle_alpha	87.724147
_cell_angle_beta	89.923776
_cell_angle_gamma	87.710378
loop_
_atom_site_label
_atom_site_type_symbol
_atom_site_fract_x
_atom_site_fract_y
_atom_site_fract_z
Zn1	Zn	1.058332	-0.508277	0.440442
Zn2	Zn	1.062993	-0.677204	0.322943
Zn3	Zn	0.945548	-0.494202	0.318235
Zn4	Zn	0.940815	-0.676570	0.435696
O5	O	1.001922	-0.589063	0.379329
O6	O	1.157283	-0.536841	0.428812
O7	O	1.051345	-0.647303	0.223987
O8	O	0.960540	-0.349051	0.334462
O9	O	1.160707	-0.660951	0.342487
O10	O	1.043402	-0.359391	0.424247
O11	O	0.965059	-0.512853	0.220528
O12	O	0.846588	-0.512239	0.329859
O13	O	0.952472	-0.659871	0.534657
O14	O	0.843110	-0.646224	0.416158
O15	O	1.038812	-0.536226	0.538144
O16	O	1.046755	-0.824138	0.337884
O17	O	0.956991	-0.823673	0.420723
C18	C	0.819352	-0.577636	0.371983
C19	C	0.741248	-0.572773	0.368857
C20	C	1.001883	-0.862028	0.379316
C21	C	1.001930	-0.978809	0.379336
C22	C	0.702764	-0.640345	0.412248
C23	C	0.629376	-0.635763	0.409315
C24	C	0.594473	-0.563613	0.362985
C25	C	0.632962	-0.496034	0.319592
C26	C	0.706348	-0.500612	0.322530
C27	C	0.375184	-0.542425	0.349391
C28	C	0.301792	-0.537854	0.346455
C29	C	0.298211	-0.677582	0.436180
C30	C	0.371600	-0.682158	0.439110
C31	C	0.410082	-0.614575	0.395720
N32	N	0.519459	-0.558929	0.359984
N33	N	0.485094	-0.619254	0.398725
C34	C	1.088144	-0.989417	0.472894
C35	C	1.131273	-1.049584	0.519679
C36	C	1.131314	-1.159309	0.519696
C37	C	1.088220	-1.208870	0.472924
C38	C	1.045091	-1.148703	0.426139
C39	C	1.045057	-1.038976	0.426126
C40	C	0.958875	-1.138094	0.332586
C41	C	0.958836	-1.028369	0.332564
C42	C	0.915781	-1.187654	0.285814
C43	C	0.872655	-1.127487	0.239024
C44	C	0.872616	-1.017755	0.239009
C45	C	0.915707	-0.968202	0.285779
C46	C	1.185205	-0.600536	0.386704
C47	C	1.263309	-0.605426	0.389847
C48	C	0.994594	-0.599548	0.562610
C49	C	0.991471	-0.604016	0.640713
C50	C	1.001979	-0.315035	0.379358
C51	C	1.002004	-0.198261	0.379371
C52	C	1.009262	-0.578546	0.196763
C53	C	1.012521	-0.573791	0.118665
C54	C	1.034954	-0.541743	0.679223
C55	C	1.032011	-0.545936	0.752609
C56	C	0.985589	-0.612409	0.787484
C57	C	0.942101	-0.674685	0.748969
C58	C	0.945040	-0.670485	0.675584
C59	C	0.971973	-0.631867	1.006766
C60	C	0.969038	-0.636064	1.080156
C61	C	1.058948	-0.507314	1.083791
C62	C	1.061887	-0.503125	1.010404
C63	C	1.018396	-0.565396	0.971896
N64	N	0.982581	-0.616699	0.862496
N65	N	1.021401	-0.561099	0.896885
H66	H	0.731177	-0.699101	0.449973
Br67	Br	1.117966	-0.422805	1.136056
H68	H	0.266872	-0.732602	0.471507
H69	H	0.837567	-1.167848	0.200949
H70	H	0.936570	-0.682589	0.975421
Br71	Br	0.879093	-0.764892	0.796298
Br72	Br	0.254424	-0.439941	0.283568
H73	H	0.909625	-0.721183	0.644230
Br74	Br	1.091060	-0.461469	0.804871
H75	H	0.931233	-0.690197	1.108549
H76	H	0.598046	-0.690788	0.444648
H77	H	1.099691	-0.448998	0.982014
H78	H	1.166359	-1.009223	0.557762
H79	H	0.400012	-0.740912	0.476835
Br80	Br	0.915647	-0.819289	0.285772
H81	H	0.406507	-0.487402	0.314054
H82	H	0.737681	-0.445583	0.287199
Br83	Br	0.585594	-0.398105	0.256722
H84	H	1.166426	-1.208298	0.557800
Br85	Br	1.088082	-0.840504	0.472883
H86	H	1.088252	-1.298214	0.472948
Br87	Br	0.814075	-0.936109	0.175516
Br88	Br	0.915945	-1.336568	0.285734
H89	H	1.072759	-0.487616	0.650833
