data_functionalizedCrystal
_audit_creation_method	'MofGen! by Chris Wilmer'
_symmetry_space_group_name_H-M	'P1'
_symmetry_Int_Tables_number	1
_symmetry_cell_setting	triclinic
loop_
_symmetry_equiv_pos_as_xyz
  x,y,z
_cell_length_a	19.805407
_cell_length_b	18.050588
_cell_length_c	19.805399
_cell_angle_alpha	90.025240
_cell_angle_beta	90.020409
_cell_angle_gamma	90.031501
loop_
_atom_site_label
_atom_site_type_symbol
_atom_site_fract_x
_atom_site_fract_y
_atom_site_fract_z
Zn1	Zn	1.034721	-0.295638	0.382746
Zn2	Zn	1.034629	-0.419830	0.269562
Zn3	Zn	0.921536	-0.295663	0.269569
Zn4	Zn	0.921493	-0.419795	0.382707
O5	O	0.978095	-0.357732	0.326146
O6	O	1.129425	-0.312117	0.367745
O7	O	1.019607	-0.403384	0.174846
O8	O	0.936606	-0.191735	0.284601
O9	O	1.129358	-0.403360	0.284590
O10	O	1.019763	-0.191717	0.367751
O11	O	0.936517	-0.312159	0.174851
O12	O	0.826813	-0.312125	0.284563
O13	O	0.936533	-0.403300	0.477429
O14	O	0.826782	-0.403324	0.367686
O15	O	1.019721	-0.312083	0.477457
O16	O	1.019566	-0.523750	0.284552
O17	O	0.936445	-0.523724	0.367679
C18	C	0.802239	-0.357724	0.326122
C19	C	0.727007	-0.357739	0.326127
C20	C	0.265254	-0.310310	0.369538
C21	C	0.335943	-0.310311	0.369533
C22	C	0.371245	-0.357743	0.326168
C23	C	0.335855	-0.405182	0.282810
C24	C	0.265168	-0.405183	0.282819
C25	C	0.620929	-0.405176	0.282774
C26	C	0.691621	-0.405169	0.282767
C27	C	0.691703	-0.310304	0.369488
C28	C	0.621016	-0.310306	0.369497
C29	C	0.585632	-0.357747	0.326142
C30	C	0.508984	-0.357746	0.326148
C31	C	0.447892	-0.357741	0.326157
C32	C	0.978009	-0.550684	0.326126
C33	C	0.978034	-0.633230	0.326140
C34	C	0.932904	-0.882068	0.371345
C35	C	0.994622	-0.832596	0.387956
C36	C	0.978175	-0.930350	0.326177
C37	C	0.916391	-0.832740	0.309579
C38	C	0.978102	-0.784365	0.326160
C39	C	1.039925	-0.881965	0.342821
C40	C	0.961653	-0.882114	0.264415
C41	C	1.023413	-0.832664	0.281003
C42	C	0.978215	-1.014448	0.326189
C43	C	0.978068	-0.700268	0.326149
C44	C	1.154637	-0.357740	0.326171
C45	C	1.229869	-0.357743	0.326182
C46	C	0.978133	-0.357685	0.502689
C47	C	0.978149	-0.357665	0.577921
C48	C	0.978199	-0.164026	0.326181
C49	C	0.978244	-0.081480	0.326196
C50	C	0.978096	-0.357725	0.150290
C51	C	0.978211	-0.357535	0.075058
C52	C	1.021466	-0.310166	0.613281
C53	C	1.021473	-0.310144	0.683969
C54	C	0.978166	-0.357626	0.719296
C55	C	0.934844	-0.405128	0.683931
C56	C	0.934834	-0.405145	0.613244
C57	C	0.934882	-0.405058	0.969005
C58	C	0.934897	-0.405039	1.039697
C59	C	1.021521	-0.310058	1.039730
C60	C	1.021511	-0.310075	0.969043
C61	C	0.978187	-0.357573	0.933684
C62	C	0.978179	-0.357595	0.857035
C63	C	0.978176	-0.357609	0.795944
H64	H	0.720521	-0.271677	0.404792
H65	H	0.899615	-0.443745	0.940224
F66	F	0.848138	-0.804473	0.291238
H67	H	0.236359	-0.443810	0.247515
H68	H	1.008569	-0.810847	0.440180
F69	F	1.067564	-0.259632	0.575689
F70	F	0.888728	-0.455698	0.575612
H71	H	1.056795	-0.271380	1.068527
F72	F	0.373429	-0.455665	0.236661
F73	F	0.729191	-0.455654	0.236610
H74	H	0.899580	-0.443786	0.712701
H75	H	0.364750	-0.271689	0.404840
H76	H	0.592276	-0.271679	0.404806
H77	H	0.894698	-0.903758	0.409577
F78	F	0.943399	-0.910565	0.196174
H79	H	0.899628	-0.443706	1.068459
H80	H	0.592128	-0.443803	0.247470
F81	F	1.108200	-0.910108	0.361240
H82	H	1.061710	-0.811109	0.242800
F83	F	0.227689	-0.259822	0.415690
F84	F	1.067600	-0.259614	0.721599
H85	H	1.056779	-0.271413	0.940283
