data_functionalizedCrystal
_audit_creation_method	'MofGen! by Chris Wilmer'
_symmetry_space_group_name_H-M	'P1'
_symmetry_Int_Tables_number	1
_symmetry_cell_setting	triclinic
loop_
_symmetry_equiv_pos_as_xyz
  x,y,z
_cell_length_a	6.817900
_cell_length_b	9.514088
_cell_length_c	9.170630
_cell_angle_alpha	80.289607
_cell_angle_beta	112.460426
_cell_angle_gamma	118.843545
loop_
_atom_site_label
_atom_site_type_symbol
_atom_site_fract_x
_atom_site_fract_y
_atom_site_fract_z
V1	V	-4.242804	-0.469797	-0.218418
O2	O	-4.200475	-0.492295	0.007652
O3	O	-4.217589	-0.436344	-0.430351
O4	O	-4.277337	-0.688487	-0.216306
O5	O	-4.140314	-0.238407	-0.207875
V6	V	-4.712681	-0.445794	-0.191230
O7	O	-4.533995	-0.522448	-0.278057
O8	O	-4.871687	-0.393142	-0.131591
O9	O	-4.514689	-0.479246	0.020703
O10	O	-4.872407	-0.423296	-0.417300
O11	O	-4.932568	-0.677184	-0.201773
O12	O	-4.454942	-0.227103	-0.193342
C13	C	-4.065547	-0.421130	-0.481977
C14	C	-4.126771	-0.395237	-0.655243
C15	C	-4.141759	-0.742762	-0.208939
C16	C	-4.251430	-0.921344	-0.208614
C17	C	-4.330073	-0.494455	0.072321
C18	C	-4.248091	-0.520358	0.245586
C19	C	-4.253859	-0.172820	-0.200714
C20	C	-4.123425	0.005763	-0.201030
H21	H	-4.305114	-0.647302	-0.706758
H22	H	-3.929938	-0.920024	-0.194800
Cl23	Cl	-4.038696	-0.199250	-0.728802
Cl24	Cl	-4.550192	-1.035926	-0.218259
