data_functionalizedCrystal
_audit_creation_method	'MofGen! by Chris Wilmer'
_symmetry_space_group_name_H-M	'P1'
_symmetry_Int_Tables_number	1
_symmetry_cell_setting	triclinic
loop_
_symmetry_equiv_pos_as_xyz
  x,y,z
_cell_length_a	15.944545
_cell_length_b	27.731996
_cell_length_c	14.421503
_cell_angle_alpha	89.998301
_cell_angle_beta	89.995153
_cell_angle_gamma	83.058780
loop_
_atom_site_label
_atom_site_type_symbol
_atom_site_fract_x
_atom_site_fract_y
_atom_site_fract_z
O1	O	1.113697	0.062321	-0.077064
O2	O	1.613697	0.562321	0.422936
O3	O	0.869044	0.070010	-0.077081
O4	O	1.369044	0.570010	0.422919
O5	O	0.998992	-0.004200	-0.077052
O6	O	1.498992	0.495800	0.422948
O7	O	0.983749	0.136531	-0.077093
O8	O	1.483749	0.636531	0.422907
O9	O	0.998970	-0.004189	0.077172
O10	O	1.498970	0.495811	0.577172
O11	O	0.869022	0.070021	0.077143
O12	O	1.369022	0.570021	0.577143
O13	O	1.113676	0.062332	0.077159
O14	O	1.613676	0.562332	0.577159
Cu15	Cu	0.991347	0.066177	0.091233
Cu16	Cu	1.491347	0.566177	0.591233
Cu17	Cu	0.991373	0.066164	-0.091154
Cu18	Cu	1.491373	0.566164	0.408846
O19	O	0.983728	0.136542	0.077130
O20	O	1.483728	0.636542	0.577130
C21	C	0.837743	0.069697	0.000029
C22	C	1.337743	0.569697	0.500029
C23	C	0.744510	0.068742	0.000024
C24	C	1.244510	0.568742	0.500024
C25	C	0.474532	0.019888	0.000048
C26	C	0.974532	0.519888	0.500048
C27	C	0.524787	0.043447	0.076083
C28	C	1.024787	0.543447	0.576083
C29	C	0.408912	0.065334	0.000041
C30	C	0.908912	0.565334	0.500041
C31	C	0.524789	0.043448	-0.075969
C32	C	1.024789	0.543448	0.424031
C33	C	0.573803	0.067006	0.000031
C34	C	1.073803	0.567006	0.500031
C35	C	0.457939	0.088881	0.076139
C36	C	0.957939	0.588881	0.576139
C37	C	0.457937	0.088876	-0.075981
C38	C	0.957937	0.588876	0.424019
C39	C	0.508159	0.112468	0.000073
C40	C	1.008159	0.612468	0.500073
C41	C	0.313922	0.064370	0.000047
C42	C	0.813922	0.564370	0.500047
C43	C	0.668789	0.067974	0.000031
C44	C	1.168789	0.567974	0.500031
C45	C	0.998668	-0.022203	0.000063
C46	C	1.498668	0.477797	0.500063
C47	C	0.997725	-0.075864	0.000072
C48	C	1.497725	0.424136	0.500072
C49	C	0.991803	-0.408612	-0.084040
C50	C	1.491803	0.091388	0.415960
C51	C	0.988222	-0.610285	-0.084057
C52	C	1.488222	-0.110285	0.415943
O53	O	0.987732	-0.636363	-0.155554
O54	O	1.487732	-0.136363	0.344446
N55	N	0.987765	-0.635498	0.000009
N56	N	1.487765	-0.135498	0.500009
C57	C	0.988198	-0.610290	0.084086
C58	C	1.488198	-0.110290	0.584086
O59	O	0.987719	-0.636362	0.155589
O60	O	1.487719	-0.136362	0.655589
C61	C	0.991774	-0.408616	0.084101
C62	C	1.491774	0.091384	0.584101
C63	C	0.992239	-0.383407	0.000030
C64	C	1.492239	0.116593	0.500030
C65	C	0.992267	-0.383402	-0.168105
C66	C	1.492267	0.116598	0.331895
C67	C	0.993167	-0.332987	-0.168100
C68	C	1.493167	0.167013	0.331900
C69	C	0.993603	-0.307782	-0.084030
C70	C	1.493603	0.192218	0.415970
C71	C	0.993139	-0.332991	0.000035
C72	C	1.493139	0.167009	0.500035
C73	C	0.992201	-0.383408	0.168177
C74	C	1.492201	0.116592	0.668177
C75	C	0.993093	-0.332986	0.168173
C76	C	1.493093	0.167014	0.668173
C77	C	0.993558	-0.307776	0.084101
C78	C	1.493558	0.192224	0.584101
C79	C	0.994474	-0.257371	0.084110
C80	C	1.494474	0.242629	0.584110
N81	N	0.994931	-0.232158	0.000043
N82	N	1.494931	0.267842	0.500043
C83	C	0.994495	-0.257363	-0.084027
C84	C	1.494495	0.242637	0.415973
C85	C	0.986323	-0.716171	0.084072
C86	C	1.486323	-0.216171	0.584072
C87	C	0.985431	-0.766589	0.084068
C88	C	1.485431	-0.266589	0.584068
C89	C	0.985452	-0.766581	-0.084075
C90	C	1.485452	-0.266581	0.415925
C91	C	0.986351	-0.716163	-0.084071
C92	C	1.486351	-0.216163	0.415929
C93	C	0.986779	-0.690958	0.000005
C94	C	1.486779	-0.190958	0.500005
C95	C	0.996386	-0.151488	-0.084010
C96	C	1.496386	0.348512	0.415990
C97	C	0.997289	-0.101069	-0.083998
C98	C	1.497289	0.398931	0.416002
C99	C	0.997263	-0.101081	0.084145
C100	C	1.497263	0.398919	0.584145
C101	C	0.996364	-0.151496	0.084133
C102	C	1.496364	0.348504	0.584133
C103	C	0.995922	-0.176698	0.000048
C104	C	1.495922	0.323302	0.500048
O105	O	0.994954	-0.231262	0.155569
O106	O	1.494954	0.268738	0.655569
O107	O	0.994956	-0.231281	-0.155519
O108	O	1.494956	0.268719	0.344481
C109	C	0.990903	-0.459027	-0.084045
C110	C	1.490903	0.040973	0.415955
C111	C	0.990439	-0.484237	0.000020
C112	C	1.490439	0.015763	0.500020
C113	C	0.990875	-0.459031	0.084090
C114	C	1.490875	0.040969	0.584090
C115	C	0.989547	-0.534655	0.000016
C116	C	1.489547	-0.034655	0.500016
C117	C	0.989111	-0.559860	-0.084054
C118	C	1.489111	-0.059860	0.415946
C119	C	0.989567	-0.534647	-0.168120
C120	C	1.489567	-0.034647	0.331880
C121	C	0.990467	-0.484232	-0.168115
C122	C	1.490467	0.015768	0.331885
C123	C	0.990418	-0.484245	0.168156
C124	C	1.490418	0.015755	0.668156
C125	C	0.989519	-0.534660	0.168144
C126	C	1.489519	-0.034660	0.668144
C127	C	0.989083	-0.559865	0.084074
C128	C	1.489083	-0.059865	0.584074
C129	C	1.144976	0.062645	0.000047
C130	C	1.644976	0.562645	0.500047
C131	C	1.238210	0.063600	0.000047
C132	C	1.738210	0.563600	0.500047
C133	C	0.984052	0.154545	0.000014
C134	C	1.484052	0.654545	0.500014
C135	C	0.984995	0.208206	-0.000002
C136	C	1.484995	0.708206	0.499998
N137	N	0.991335	0.066186	0.219514
N138	N	1.491335	0.566186	0.719514
N139	N	0.991391	0.066152	-0.219435
N140	N	1.491391	0.566152	0.280565
C141	C	0.931237	0.100486	0.469154
C142	C	1.431237	0.600486	0.969154
C143	C	1.007012	0.109869	0.530959
C144	C	1.507012	0.609869	1.030959
C145	C	0.991356	0.066175	0.408676
C146	C	1.491356	0.566175	0.908676
C147	C	0.915601	0.056803	0.530965
C148	C	1.415601	0.556803	1.030965
C149	C	0.991369	0.066165	0.591397
C150	C	1.491369	0.566165	1.091397
C151	C	1.067168	0.075580	0.469119
C152	C	1.567168	0.575580	0.969119
C153	C	0.975708	0.022495	0.469120
C154	C	1.475708	0.522495	0.969120
C155	C	1.051538	0.031859	0.530896
C156	C	1.551538	0.531859	1.030896
C157	C	0.991347	0.066182	0.303414
C158	C	1.491347	0.566182	0.803414
C159	C	0.991386	0.066157	0.696656
C160	C	1.491386	0.566157	1.196656
H161	H	0.553966	0.024258	0.140377
H162	H	1.053966	0.524258	0.640377
F163	F	0.454755	-0.031269	0.000157
F164	F	0.954755	0.468731	0.500157
H165	H	0.428863	0.108065	0.140490
H166	H	0.928863	0.608065	0.640490
F167	F	0.989108	-0.561481	-0.257594
F168	F	1.489108	-0.061481	0.242406
F169	F	1.024328	0.158145	0.566464
F170	F	1.524328	0.658145	1.066464
F171	F	0.527721	0.163665	0.000111
F172	F	1.027721	0.663665	0.500111
H173	H	0.995993	-0.172023	0.152591
H174	H	1.495993	0.327977	0.652591
F175	F	0.993548	-0.306164	0.257661
F176	F	1.493548	0.193836	0.757661
F177	F	0.995916	-0.178303	-0.173503
F178	F	1.495916	0.321697	0.326497
H179	H	0.993542	-0.312465	-0.236561
H180	H	1.493542	0.187535	0.263439
F181	F	0.990961	-0.457408	-0.257597
F182	F	1.490961	0.042592	0.242403
F183	F	0.997728	-0.074247	0.173614
F184	F	1.497728	0.425753	0.673614
H185	H	0.986728	-0.695640	-0.152529
H186	H	1.486728	-0.195640	0.347471
F187	F	1.118067	-0.006074	0.566113
F188	F	1.618067	0.493926	1.066113
F189	F	0.958362	-0.025767	0.433586
F190	F	1.458362	0.474233	0.933586
H191	H	0.851531	0.048880	0.558133
H192	H	1.351531	0.548880	1.058133
H193	H	0.990774	-0.463728	0.236617
H194	H	1.490774	0.036272	0.736617
H195	H	0.428743	0.108048	-0.140277
H196	H	0.928743	0.608048	0.359723
F197	F	0.562935	0.018346	-0.159985
F198	F	1.062935	0.518346	0.340015
F199	F	0.997786	-0.074242	-0.173482
F200	F	1.497786	0.425758	0.326518
H201	H	0.985098	-0.787112	-0.152528
H202	H	1.485098	-0.287112	0.347472
F203	F	0.991803	-0.410219	-0.257592
F204	F	1.491803	0.089781	0.242408
H205	H	0.880448	0.129525	0.442045
H206	H	1.380448	0.629525	0.942045
F207	F	0.984951	-0.793415	0.173549
F208	F	1.484951	-0.293415	0.673549
H209	H	0.986676	-0.695654	0.152540
H210	H	1.486676	-0.195654	0.652540
F211	F	0.991702	-0.410227	0.257659
F212	F	1.491702	0.089773	0.757659
F213	F	0.989030	-0.561485	0.257632
F214	F	1.489030	-0.061485	0.757632
H215	H	1.131252	0.083547	0.442067
H216	H	1.631252	0.583547	0.942067
