data_functionalizedCrystal
_audit_creation_method	'MofGen! by Chris Wilmer'
_symmetry_space_group_name_H-M	'P1'
_symmetry_Int_Tables_number	1
_symmetry_cell_setting	triclinic
loop_
_symmetry_equiv_pos_as_xyz
  x,y,z
_cell_length_a	14.044220
_cell_length_b	12.837943
_cell_length_c	11.892095
_cell_angle_alpha	85.689438
_cell_angle_beta	94.243827
_cell_angle_gamma	94.008909
loop_
_atom_site_label
_atom_site_type_symbol
_atom_site_fract_x
_atom_site_fract_y
_atom_site_fract_z
O1	O	0.242985	1.404549	-0.093990
O2	O	0.742985	1.904549	0.406010
O3	O	0.230709	1.101609	-0.093996
O4	O	0.730709	1.601609	0.406004
O5	O	0.098452	1.248531	-0.093982
O6	O	0.598452	1.748531	0.406018
O7	O	0.375241	1.257627	-0.094004
O8	O	0.875241	1.757627	0.405996
O9	O	0.109461	1.236280	0.094025
O10	O	0.609461	1.736280	0.594025
O11	O	0.241718	1.089357	0.094010
O12	O	0.741718	1.589357	0.594010
O13	O	0.253993	1.392297	0.094017
O14	O	0.753993	1.892297	0.594017
Zn15	Zn	0.249603	1.238882	0.123864
Zn16	Zn	0.749603	1.738882	0.623864
Zn17	Zn	0.235099	1.255024	-0.123843
Zn18	Zn	0.735099	1.755024	0.376157
O19	O	0.386250	1.245375	0.094002
O20	O	0.886250	1.745375	0.594002
C21	C	0.232067	1.056479	0.000007
C22	C	0.732067	1.556479	0.500007
C23	C	0.219699	0.940259	0.000005
C24	C	0.719699	1.440259	0.500005
C25	C	0.068282	1.238425	0.000022
C26	C	0.568282	1.738425	0.500022
C27	C	-0.038016	1.226550	0.000023
C28	C	0.461984	1.726550	0.500023
C29	C	0.368378	0.713048	0.000009
C30	C	0.868378	1.213048	0.500009
C31	C	0.356763	0.603848	0.000008
C32	C	0.856763	1.103848	0.500008
C33	C	0.184853	0.612657	0.000009
C34	C	0.684853	1.112657	0.500009
C35	C	0.196469	0.721856	0.000011
C36	C	0.696469	1.221856	0.500011
C37	C	0.288234	0.772048	0.000008
C38	C	0.788234	1.272048	0.500008
C39	C	0.299849	0.881251	0.000001
C40	C	0.799849	1.381251	0.500001
C41	C	0.127940	0.890056	0.000011
C42	C	0.627940	1.390056	0.500011
C43	C	0.116324	0.780857	0.000010
C44	C	0.616324	1.280857	0.500010
C45	C	-0.232639	1.204843	0.000006
C46	C	0.267361	1.704843	0.500006
C47	C	-0.282665	1.289060	0.000005
C48	C	0.217335	1.789060	0.500005
C49	C	-0.390960	1.276982	-0.000005
C50	C	0.109040	1.776982	0.499995
C51	C	-0.124334	1.216919	0.000016
C52	C	0.375666	1.716919	0.500016
C53	C	0.416420	1.255482	-0.000004
C54	C	0.916420	1.755482	0.499996
C55	C	0.522717	1.267357	-0.000012
C56	C	1.022717	1.767357	0.499988
C57	C	0.252635	1.437428	0.000012
C58	C	0.752635	1.937428	0.500012
C59	C	0.265002	1.553649	0.000006
C60	C	0.765002	2.053649	0.500006
N61	N	0.259502	1.227873	0.292917
N62	N	0.759502	1.727873	0.792917
N63	N	0.225193	1.266041	-0.292896
N64	N	0.725193	1.766041	0.207104
C65	C	0.156258	1.342643	0.529576
C66	C	0.656258	1.842643	1.029576
C67	C	0.163185	1.334956	0.647917
C68	C	0.663185	1.834956	1.147917
C69	C	0.280277	1.204807	0.647942
C70	C	0.780277	1.704807	1.147942
C71	C	0.273350	1.212494	0.529601
C72	C	0.773350	1.712494	1.029601
C73	C	0.211340	1.281415	0.470422
C74	C	0.711340	1.781415	0.970422
C75	C	0.204418	1.289107	0.352079
C76	C	0.704418	1.789107	0.852079
C77	C	0.321505	1.158954	0.352106
C78	C	0.821505	1.658954	0.852106
C79	C	0.328432	1.151267	0.470447
C80	C	0.828432	1.651267	0.970447
H81	H	0.374569	0.922115	0.000002
H82	H	0.874569	1.422115	0.500002
H83	H	-0.244167	1.370237	-0.000070
H84	H	0.255833	1.870237	0.499930
N85	N	-0.283630	1.097325	0.000003
N86	N	0.216370	1.597325	0.500003
H87	H	-0.354885	1.103830	0.000000
H88	H	0.145115	1.603830	0.500000
H89	H	-0.260939	1.053576	0.069704
H90	H	0.239061	1.553576	0.569704
H91	H	0.118331	1.384812	0.696076
H92	H	0.618331	1.884812	1.196076
N93	N	0.137544	1.363443	0.288245
N94	N	0.637544	1.863443	0.788245
H95	H	0.103699	1.401061	0.343681
H96	H	0.603699	1.901061	0.843681
H97	H	0.088779	1.322704	0.239154
H98	H	0.588779	1.822704	0.739154
N99	N	0.395306	1.076928	0.534279
N100	N	0.895306	1.576928	1.034279
H101	H	0.391336	1.081346	0.618224
H102	H	0.891336	1.581346	1.118224
H103	H	0.463002	1.096621	0.513590
H104	H	0.963002	1.596621	1.013590
H105	H	0.443098	0.753915	0.000005
H106	H	0.943098	1.253915	0.500005
N107	N	0.089391	1.416985	0.465737
N108	N	0.589391	1.916985	0.965737
H109	H	0.055551	1.454612	0.521170
H110	H	0.555551	1.954612	1.021170
H111	H	0.040623	1.376251	0.416647
H112	H	0.540623	1.876251	0.916647
N113	N	0.347142	1.130463	0.711780
N114	N	0.847142	1.630463	1.211780
H115	H	0.343164	1.134882	0.795724
H116	H	0.843164	1.634882	1.295724
H117	H	0.414842	1.150146	0.691101
H118	H	0.914842	1.650146	1.191101
N119	N	0.380927	1.092917	0.288306
N120	N	0.880927	1.592917	0.788306
H121	H	0.367134	1.108246	0.204357
H122	H	0.867134	1.608246	0.704357
H123	H	0.364366	1.016392	0.309004
H124	H	0.864366	1.516392	0.809004
H125	H	0.422025	0.555814	0.000011
H126	H	0.922025	1.055814	0.500011
H127	H	0.062681	0.938107	0.000003
H128	H	0.562681	1.438107	0.500003
N129	N	0.085886	0.558510	0.000044
N130	N	0.585886	1.058510	0.500044
H131	H	0.090694	0.480379	0.000054
H132	H	0.590694	0.980379	0.500054
H133	H	0.046289	0.584047	-0.069646
H134	H	0.546289	1.084047	0.430354
N135	N	0.017358	0.726706	0.000008
N136	N	0.517358	1.226706	0.500008
H137	H	-0.022274	0.752173	-0.069688
H138	H	0.477726	1.252173	0.430312
H139	H	-0.014045	0.743108	0.069746
H140	H	0.485955	1.243108	0.569746
