data_functionalizedCrystal
_audit_creation_method	'MofGen! by Chris Wilmer'
_symmetry_space_group_name_H-M	'P1'
_symmetry_Int_Tables_number	1
_symmetry_cell_setting	triclinic
loop_
_symmetry_equiv_pos_as_xyz
  x,y,z
_cell_length_a	19.805407
_cell_length_b	19.076808
_cell_length_c	19.805399
_cell_angle_alpha	87.672943
_cell_angle_beta	89.980427
_cell_angle_gamma	92.323385
loop_
_atom_site_label
_atom_site_type_symbol
_atom_site_fract_x
_atom_site_fract_y
_atom_site_fract_z
Zn1	Zn	1.023914	-0.280233	-0.371886
Zn2	Zn	1.019283	-0.397938	-0.254147
Zn3	Zn	0.910727	-0.280252	-0.258710
Zn4	Zn	0.906148	-0.397901	-0.367295
O5	O	0.965018	-0.339081	-0.313009
O6	O	1.118016	-0.295854	-0.356279
O7	O	1.004861	-0.382351	-0.160035
O8	O	0.929597	-0.181753	-0.277553
O9	O	1.114613	-0.382332	-0.269777
O10	O	1.012754	-0.181739	-0.360703
O11	O	0.925106	-0.295887	-0.163387
O12	O	0.815404	-0.295851	-0.273102
O13	O	0.921791	-0.382268	-0.462622
O14	O	0.812039	-0.382287	-0.352879
O15	O	1.008313	-0.295818	-0.465994
O16	O	1.000421	-0.496429	-0.265326
O17	O	0.917301	-0.496402	-0.348455
C18	C	0.789162	-0.339067	-0.312988
C19	C	0.713930	-0.339079	-0.312994
C20	C	0.676849	-0.384154	-0.354462
C21	C	0.606160	-0.384155	-0.354471
C22	C	0.572554	-0.339084	-0.313009
C23	C	0.609640	-0.294004	-0.271540
C24	C	0.680328	-0.294000	-0.271535
C25	C	0.324567	-0.294020	-0.271562
C26	C	0.253874	-0.294029	-0.271569
C27	C	0.250399	-0.384175	-0.354498
C28	C	0.321086	-0.384170	-0.354493
C29	C	0.358167	-0.339088	-0.313027
C30	C	0.434815	-0.339086	-0.313018
C31	C	0.495907	-0.339089	-0.313014
C32	C	0.957879	-0.521955	-0.305912
C33	C	0.954888	-0.600189	-0.302898
C34	C	0.996745	-0.636876	-0.344809
C35	C	0.993931	-0.710385	-0.341979
C36	C	0.949263	-0.747206	-0.297233
C37	C	0.907400	-0.710515	-0.255321
C38	C	0.910211	-0.637007	-0.258155
C39	C	0.936213	-0.967059	-0.284114
C40	C	0.933407	-1.040572	-0.281281
C41	C	1.019937	-1.040437	-0.367940
C42	C	1.022747	-0.966928	-0.370768
C43	C	0.980882	-0.930243	-0.328858
N44	N	0.946387	-0.822345	-0.294338
N45	N	0.983755	-0.855106	-0.331757
C46	C	1.141560	-0.339095	-0.313031
C47	C	1.216792	-0.339101	-0.313041
C48	C	0.965058	-0.339037	-0.489554
C49	C	0.965074	-0.339018	-0.564787
C50	C	0.972203	-0.155493	-0.320149
C51	C	0.975264	-0.077259	-0.323192
C52	C	1.010128	-0.294001	-0.601888
C53	C	1.010135	-0.293980	-0.672577
C54	C	0.965093	-0.338981	-0.706164
C55	C	0.920035	-0.384000	-0.669057
C56	C	0.920024	-0.384016	-0.598369
C57	C	0.920075	-0.383934	-0.954133
C58	C	0.920091	-0.383916	-1.024826
C59	C	1.010187	-0.293899	-1.028341
C60	C	1.010176	-0.293915	-0.957653
C61	C	0.965116	-0.338931	-0.920553
C62	C	0.965107	-0.338951	-0.843904
C63	C	0.965104	-0.338964	-0.782812
C64	C	0.965019	-0.339074	-0.137154
C65	C	0.965141	-0.338895	-0.061929
H66	H	0.710519	-0.257292	-0.237771
C67	C	0.407739	-0.199320	-0.265976
C68	C	0.365322	-0.244472	-0.225980
H69	H	0.432899	-0.168728	-0.237833
H70	H	0.437866	-0.226160	-0.290663
H71	H	0.381216	-0.172440	-0.296551
H72	H	0.391846	-0.271355	-0.195409
H73	H	0.335191	-0.217629	-0.201281
C74	C	1.056524	-0.944195	-0.486288
C75	C	1.071849	-0.926459	-0.419954
H76	H	1.086839	-0.919208	-0.516651
H77	H	1.060840	-0.993219	-0.490594
H78	H	1.011501	-0.932175	-0.496610
H79	H	1.116871	-0.938484	-0.409631
H80	H	1.067539	-0.877424	-0.415646
H81	H	0.575972	-0.420860	-0.388237
H82	H	0.876126	-0.607137	-0.224028
H83	H	0.883331	-0.420666	-0.568162
H84	H	0.704206	-0.420858	-0.388223
H85	H	1.046824	-0.257325	-0.702782
C86	C	1.099231	-0.204925	-0.968230
C87	C	1.059686	-0.244447	-0.920736
H88	H	1.129792	-0.174381	-0.945439
H89	H	1.123927	-0.235586	-0.994610
H90	H	1.070791	-0.177996	-0.996846
H91	H	1.088126	-0.271380	-0.892124
H92	H	1.034988	-0.213782	-0.894345
C93	C	1.101547	-0.284242	-0.522793
C94	C	1.059639	-0.244533	-0.564973
H95	H	1.132114	-0.253699	-0.500008
H96	H	1.074715	-0.311049	-0.490582
H97	H	1.126241	-0.314901	-0.549188
H98	H	1.034941	-0.213878	-0.538577
H99	H	1.086474	-0.217714	-0.597188
H100	H	0.348445	-0.420874	-0.388253
H101	H	0.902127	-0.937196	-0.249987
H102	H	0.220200	-0.420880	-0.388265
C103	C	1.050208	-0.253886	-1.138263
C104	C	1.059711	-0.244406	-1.069125
H105	H	1.080780	-0.223329	-1.163438
H106	H	1.058266	-0.301169	-1.148009
H107	H	1.005134	-0.243576	-1.150231
H108	H	1.104784	-0.254721	-1.057155
H109	H	1.051658	-0.197112	-1.059374
H110	H	0.883409	-0.420562	-1.052170
H111	H	0.883394	-0.420599	-0.923934
H112	H	1.054020	-1.070315	-0.402062
H113	H	0.226514	-0.257323	-0.237806
C114	C	0.502826	-0.253981	-0.234725
C115	C	0.572702	-0.244458	-0.225966
H116	H	0.480025	-0.223396	-0.206586
H117	H	0.491665	-0.243745	-0.280612
H118	H	0.489400	-0.301262	-0.222906
H119	H	0.586129	-0.197179	-0.237790
H120	H	0.583869	-0.254690	-0.180070
H121	H	1.033122	-0.606900	-0.381243
C122	C	0.817938	-1.063348	-0.247333
C123	C	0.884302	-1.081053	-0.232098
H124	H	0.787627	-1.088344	-0.216973
H125	H	0.813618	-1.014326	-0.243017
H126	H	0.807559	-1.075377	-0.292341
H127	H	0.894682	-1.069018	-0.187092
H128	H	0.888624	-1.130085	-0.236409
C129	C	1.079768	-0.702868	-0.427896
C130	C	1.039957	-0.750711	-0.388034
H131	H	1.108190	-0.727765	-0.456323
H132	H	1.051365	-0.674215	-0.454875
H133	H	1.106758	-0.674186	-0.399521
H134	H	1.012964	-0.779390	-0.416409
H135	H	1.068364	-0.779376	-0.361053
C136	C	0.864676	-0.823255	-0.212491
C137	C	0.858302	-0.750987	-0.206133
H138	H	0.834368	-0.848239	-0.182118
H139	H	0.854280	-0.835281	-0.257488
H140	H	0.909703	-0.835258	-0.202165
H141	H	0.813276	-0.738983	-0.216464
H142	H	0.868693	-0.738956	-0.161125
C143	C	0.880047	-0.423949	-0.775854
C144	C	0.870522	-0.433466	-0.705974
H145	H	0.849482	-0.454493	-0.798642
H146	H	0.871993	-0.376660	-0.789274
H147	H	0.925125	-0.434254	-0.787039
H148	H	0.825446	-0.423156	-0.694789
H149	H	0.878571	-0.480766	-0.692549
