data_functionalizedCrystal
_audit_creation_method	'MofGen! by Chris Wilmer'
_symmetry_space_group_name_H-M	'P1'
_symmetry_Int_Tables_number	1
_symmetry_cell_setting	triclinic
loop_
_symmetry_equiv_pos_as_xyz
  x,y,z
_cell_length_a	19.188905
_cell_length_b	18.266242
_cell_length_c	16.992695
_cell_angle_alpha	89.993686
_cell_angle_beta	93.098611
_cell_angle_gamma	90.016163
loop_
_atom_site_label
_atom_site_type_symbol
_atom_site_fract_x
_atom_site_fract_y
_atom_site_fract_z
O1	O	0.931882	0.061003	-0.097780
O2	O	1.181882	0.311003	0.152220
O3	O	1.431882	0.561003	0.402220
O4	O	1.681882	0.811003	0.652220
O5	O	0.729341	0.060978	-0.110976
O6	O	0.979341	0.310978	0.139024
O7	O	1.229341	0.560978	0.389024
O8	O	1.479341	0.810978	0.639024
O9	O	0.829799	0.060985	0.009762
O10	O	1.079799	0.310985	0.259762
O11	O	1.329799	0.560985	0.509762
O12	O	1.579799	0.810985	0.759762
O13	O	0.831423	0.060997	-0.218517
O14	O	1.081423	0.310997	0.031483
O15	O	1.331423	0.560997	0.281483
O16	O	1.581423	0.810997	0.531483
O17	O	0.829781	-0.060777	0.009768
O18	O	1.079781	0.189223	0.259768
O19	O	1.329781	0.439223	0.509768
O20	O	1.579781	0.689223	0.759768
O21	O	0.729322	-0.060784	-0.110969
O22	O	0.979322	0.189216	0.139031
O23	O	1.229322	0.439216	0.389031
O24	O	1.479322	0.689216	0.639031
O25	O	0.931864	-0.060759	-0.097774
O26	O	1.181864	0.189241	0.152226
O27	O	1.431864	0.439241	0.402226
O28	O	1.681864	0.689241	0.652226
Zn29	Zn	0.830590	-0.080104	-0.104371
Zn30	Zn	1.080590	0.169896	0.145629
Zn31	Zn	1.330590	0.419896	0.395629
Zn32	Zn	1.580590	0.669896	0.645629
Zn33	Zn	0.830614	0.080323	-0.104379
Zn34	Zn	1.080614	0.330323	0.145621
Zn35	Zn	1.330614	0.580323	0.395621
Zn36	Zn	1.580614	0.830323	0.645621
O37	O	0.831405	-0.060765	-0.218511
O38	O	1.081405	0.189235	0.031489
O39	O	1.331405	0.439235	0.281489
O40	O	1.581405	0.689235	0.531489
C41	C	0.703295	0.000094	-0.110548
C42	C	0.953295	0.250094	0.139452
C43	C	1.203295	0.500094	0.389452
C44	C	1.453295	0.750094	0.639452
C45	C	0.625715	0.000084	-0.109275
C46	C	0.875715	0.250084	0.140725
C47	C	1.125715	0.500084	0.390725
C48	C	1.375715	0.750084	0.640725
C49	C	0.589298	0.066459	-0.108667
C50	C	0.839298	0.316459	0.141333
C51	C	1.089298	0.566459	0.391333
C52	C	1.339298	0.816459	0.641333
C53	C	0.516404	0.066468	-0.107463
C54	C	0.766404	0.316468	0.142537
C55	C	1.016404	0.566468	0.392537
C56	C	1.266404	0.816468	0.642537
C57	C	0.479931	0.000099	-0.106850
C58	C	0.729931	0.250099	0.143150
C59	C	0.979931	0.500099	0.393150
C60	C	1.229931	0.750099	0.643150
C61	C	0.516357	-0.066284	-0.107463
C62	C	0.766357	0.183716	0.142537
C63	C	1.016357	0.433716	0.392537
C64	C	1.266357	0.683716	0.642537
C65	C	0.589249	-0.066292	-0.108675
C66	C	0.839249	0.183708	0.141325
C67	C	1.089249	0.433708	0.391325
C68	C	1.339249	0.683708	0.641325
N69	N	0.368181	-0.049296	-0.060332
N70	N	0.618181	0.200704	0.189668
N71	N	0.868181	0.450704	0.439668
N72	N	1.118181	0.700704	0.689668
N73	N	0.298937	-0.049284	-0.059178
N74	N	0.548937	0.200716	0.190822
N75	N	0.798937	0.450716	0.440822
N76	N	1.048937	0.700716	0.690822
C77	C	0.260310	0.000116	-0.103198
C78	C	0.510310	0.250116	0.146802
C79	C	0.760310	0.500116	0.396802
C80	C	1.010310	0.750116	0.646802
N81	N	0.293545	0.049516	-0.148406
N82	N	0.543545	0.299516	0.101594
N83	N	0.793545	0.549516	0.351594
N84	N	1.043545	0.799516	0.601594
N85	N	0.362796	0.049507	-0.149556
N86	N	0.612796	0.299507	0.100444
N87	N	0.862796	0.549507	0.350444
N88	N	1.112796	0.799507	0.600444
C89	C	0.400891	0.000099	-0.105536
C90	C	0.650891	0.250099	0.144464
C91	C	0.900891	0.500099	0.394464
C92	C	1.150891	0.750099	0.644464
C93	C	0.144853	0.066505	-0.101285
C94	C	0.394853	0.316505	0.148715
C95	C	0.644853	0.566505	0.398715
C96	C	0.894853	0.816505	0.648715
C97	C	0.071957	0.066511	-0.100085
C98	C	0.321957	0.316511	0.149915
C99	C	0.571957	0.566511	0.399915
C100	C	0.821957	0.816511	0.649915
C101	C	0.071912	-0.066243	-0.100077
C102	C	0.321912	0.183757	0.149923
C103	C	0.571912	0.433757	0.399923
C104	C	0.821912	0.683757	0.649923
C105	C	0.144806	-0.066247	-0.101285
C106	C	0.394806	0.183753	0.148715
C107	C	0.644806	0.433753	0.398715
C108	C	0.894806	0.683753	0.648715
C109	C	0.181272	0.000129	-0.101885
C110	C	0.431272	0.250129	0.148115
C111	C	0.681272	0.500129	0.398115
C112	C	0.931272	0.750129	0.648115
N113	N	0.830578	-0.189591	-0.104365
N114	N	1.080578	0.060409	0.145635
N115	N	1.330578	0.310409	0.395635
N116	N	1.580578	0.560409	0.645635
C117	C	0.875079	-0.227896	-0.050928
C118	C	1.125079	0.022104	0.199072
C119	C	1.375079	0.272104	0.449072
C120	C	1.625079	0.522104	0.699072
C121	C	0.875083	-0.304541	-0.050924
C122	C	1.125083	-0.054541	0.199076
C123	C	1.375083	0.195459	0.449076
C124	C	1.625083	0.445459	0.699076
C125	C	0.830594	-0.342877	-0.104371
C126	C	1.080594	-0.092877	0.145629
C127	C	1.330594	0.157123	0.395629
C128	C	1.580594	0.407123	0.645629
C129	C	0.786085	-0.304562	-0.157811
C130	C	1.036085	-0.054562	0.092189
C131	C	1.286085	0.195438	0.342189
C132	C	1.536085	0.445438	0.592189
C133	C	0.786077	-0.227919	-0.157808
C134	C	1.036077	0.022081	0.092192
C135	C	1.286077	0.272081	0.342192
C136	C	1.536077	0.522081	0.592192
N137	N	0.825580	-0.463207	-0.173769
N138	N	1.075580	-0.213207	0.076231
N139	N	1.325580	0.036793	0.326231
N140	N	1.575580	0.286793	0.576231
N141	N	0.825591	-0.536015	-0.173770
N142	N	1.075591	-0.286015	0.076230
N143	N	1.325591	-0.036015	0.326230
N144	N	1.575591	0.213985	0.576230
C145	C	0.830614	-0.573800	-0.104382
C146	C	1.080614	-0.323800	0.145618
C147	C	1.330614	-0.073800	0.395618
C148	C	1.580614	0.176200	0.645618
N149	N	0.835639	-0.536026	-0.034992
N150	N	1.085639	-0.286026	0.215008
N151	N	1.335639	-0.036026	0.465008
N152	N	1.585639	0.213974	0.715008
N153	N	0.835631	-0.463211	-0.034992
N154	N	1.085631	-0.213211	0.215008
N155	N	1.335631	0.036789	0.465008
N156	N	1.585631	0.286789	0.715008
C157	C	0.830598	-0.425984	-0.104380
C158	C	1.080598	-0.175984	0.145620
C159	C	1.330598	0.074016	0.395620
C160	C	1.580598	0.324016	0.645620
C161	C	0.875122	-0.695213	-0.050937
C162	C	1.125122	-0.445213	0.199063
C163	C	1.375122	-0.195213	0.449063
C164	C	1.625122	0.054787	0.699063
C165	C	0.875121	-0.771859	-0.050932
C166	C	1.125121	-0.521859	0.199068
C167	C	1.375121	-0.271859	0.449068
C168	C	1.625121	-0.021859	0.699068
C169	C	0.786127	-0.771879	-0.157826
C170	C	1.036127	-0.521879	0.092174
C171	C	1.286127	-0.271879	0.342174
C172	C	1.536127	-0.021879	0.592174
C173	C	0.786124	-0.695234	-0.157824
C174	C	1.036124	-0.445234	0.092176
C175	C	1.286124	-0.195234	0.342176
C176	C	1.536124	0.054766	0.592176
C177	C	0.830625	-0.656906	-0.104380
C178	C	1.080625	-0.406906	0.145620
C179	C	1.330625	-0.156906	0.395620
C180	C	1.580625	0.093094	0.645620
C181	C	0.957909	0.000127	-0.098201
C182	C	1.207909	0.250127	0.151799
C183	C	1.457909	0.500127	0.401799
C184	C	1.707909	0.750127	0.651799
C185	C	1.035489	0.000141	-0.099474
C186	C	1.285489	0.250141	0.150526
C187	C	1.535489	0.500141	0.400526
C188	C	1.785489	0.750141	0.650526
C189	C	0.827701	0.000104	0.038970
C190	C	1.077701	0.250104	0.288970
C191	C	1.327701	0.500104	0.538970
C192	C	1.577701	0.750104	0.788970
C193	C	0.821468	0.000103	0.125993
C194	C	1.071468	0.250103	0.375993
C195	C	1.321468	0.500103	0.625993
C196	C	1.571468	0.750103	0.875993
N197	N	0.830631	0.189810	-0.104378
N198	N	1.080631	0.439810	0.145622
N199	N	1.330631	0.689810	0.395622
N200	N	1.580631	0.939810	0.645622
C201	C	0.833503	0.000117	-0.247720
C202	C	1.083503	0.250117	0.002280
C203	C	1.333503	0.500117	0.252280
C204	C	1.583503	0.750117	0.502280
C205	C	0.839736	0.000123	-0.334742
C206	C	1.089736	0.250123	-0.084742
C207	C	1.339736	0.500123	0.165258
C208	C	1.589736	0.750123	0.415258
C209	C	0.881608	0.000110	0.176445
C210	C	1.131608	0.250110	0.426445
C211	C	1.381608	0.500110	0.676445
C212	C	1.631608	0.750110	0.926445
C213	C	0.875747	0.000116	0.258211
C214	C	1.125747	0.250116	0.508211
C215	C	1.375747	0.500116	0.758211
C216	C	1.625747	0.750116	1.008211
C217	C	0.809746	0.000110	0.289523
C218	C	1.059746	0.250110	0.539523
C219	C	1.309746	0.500110	0.789523
C220	C	1.559746	0.750110	1.039523
C221	C	0.749602	0.000106	0.239064
C222	C	0.999602	0.250106	0.489064
C223	C	1.249602	0.500106	0.739064
C224	C	1.499602	0.750106	0.989064
C225	C	0.755463	0.000105	0.157299
C226	C	1.005463	0.250105	0.407299
C227	C	1.255463	0.500105	0.657299
C228	C	1.505463	0.750105	0.907299
C229	C	0.785453	0.000117	0.533035
C230	C	1.035453	0.250117	0.783035
C231	C	1.285453	0.500117	1.033035
C232	C	1.535453	0.750117	1.283035
C233	C	0.779596	0.000116	0.614806
C234	C	1.029596	0.250116	0.864806
C235	C	1.279596	0.500116	1.114806
C236	C	1.529596	0.750116	1.364806
C237	C	0.905743	0.000128	0.633948
C238	C	1.155743	0.250128	0.883948
C239	C	1.405743	0.500128	1.133948
C240	C	1.655743	0.750128	1.383948
C241	C	0.911598	0.000122	0.552181
C242	C	1.161598	0.250122	0.802181
C243	C	1.411598	0.500122	1.052181
C244	C	1.661598	0.750122	1.302181
C245	C	0.851454	0.000122	0.501729
C246	C	1.101454	0.250122	0.751729
C247	C	1.351454	0.500122	1.001729
C248	C	1.601454	0.750122	1.251729
N249	N	0.803754	0.000114	0.373100
N250	N	1.053754	0.250114	0.623100
N251	N	1.303754	0.500114	0.873100
N252	N	1.553754	0.750114	1.123100
N253	N	0.857446	0.000123	0.418153
N254	N	1.107446	0.250123	0.668153
N255	N	1.357446	0.500123	0.918153
N256	N	1.607446	0.750123	1.168153
H257	H	0.618900	-0.120343	-0.109171
H258	H	0.868900	0.129657	0.140829
H259	H	1.118900	0.379657	0.390829
H260	H	1.368900	0.629657	0.640829
H261	H	0.486656	-0.120323	-0.106966
H262	H	0.736656	0.129677	0.143034
H263	H	0.986656	0.379677	0.393034
H264	H	1.236656	0.629677	0.643034
H265	H	0.935353	0.000110	0.150958
H266	H	1.185353	0.250110	0.400958
H267	H	1.435353	0.500110	0.650958
H268	H	1.685353	0.750110	0.900958
H269	H	0.911321	-0.335736	-0.007408
H270	H	1.161321	-0.085736	0.242592
H271	H	1.411321	0.164264	0.492592
H272	H	1.661321	0.414264	0.742592
H273	H	0.042216	-0.120282	-0.099583
H274	H	0.292216	0.129718	0.150417
H275	H	0.542216	0.379718	0.400417
H276	H	0.792216	0.629718	0.650417
H277	H	0.924720	0.000120	0.299287
H278	H	1.174720	0.250120	0.549287
H279	H	1.424720	0.500120	0.799287
H280	H	1.674720	0.750120	1.049287
H281	H	0.174458	-0.120297	-0.101775
H282	H	0.424458	0.129703	0.148225
H283	H	0.674458	0.379703	0.398225
H284	H	0.924458	0.629703	0.648225
H285	H	0.749901	-0.803091	-0.201340
H286	H	0.999901	-0.553091	0.048660
H287	H	1.249901	-0.303091	0.298660
H288	H	1.499901	-0.053091	0.548660
H289	H	0.749891	-0.664043	-0.201340
H290	H	0.999891	-0.414043	0.048660
H291	H	1.249891	-0.164043	0.298660
H292	H	1.499891	0.085957	0.548660
H293	H	0.749839	-0.196729	-0.201323
H294	H	0.999839	0.053271	0.048677
H295	H	1.249839	0.303271	0.298677
H296	H	1.499839	0.553271	0.548677
H297	H	0.725847	0.000100	0.640295
H298	H	0.975847	0.250100	0.890295
H299	H	1.225847	0.500100	1.140295
H300	H	1.475847	0.750100	1.390295
H301	H	0.911355	-0.664005	-0.007418
H302	H	1.161355	-0.414005	0.242582
H303	H	1.411355	-0.164005	0.492582
H304	H	1.661355	0.085995	0.742582
H305	H	0.749861	-0.335779	-0.201327
H306	H	0.999861	-0.085779	0.048673
H307	H	1.249861	0.164221	0.298673
H308	H	1.499861	0.414221	0.548673
H309	H	0.965343	0.000127	0.526694
H310	H	1.215343	0.250127	0.776694
H311	H	1.465343	0.500127	1.026694
H312	H	1.715343	0.750127	1.276694
H313	H	0.954708	0.000129	0.675034
H314	H	1.204708	0.250129	0.925034
H315	H	1.454708	0.500129	1.175034
H316	H	1.704708	0.750129	1.425034
H317	H	0.486747	0.120519	-0.106969
H318	H	0.736747	0.370519	0.143031
H319	H	0.986747	0.620519	0.393031
H320	H	1.236747	0.870519	0.643031
H321	H	0.736479	0.000117	0.491966
H322	H	0.986479	0.250117	0.741966
H323	H	1.236479	0.500117	0.991966
H324	H	1.486479	0.750117	1.241966
H325	H	0.911312	-0.196692	-0.007409
H326	H	1.161312	0.053308	0.242591
H327	H	1.411312	0.303308	0.492591
H328	H	1.661312	0.553308	0.742591
H329	H	0.174545	0.120552	-0.101782
H330	H	0.424545	0.370552	0.148218
H331	H	0.674545	0.620552	0.398218
H332	H	0.924545	0.870552	0.648218
H333	H	0.695862	0.000106	0.264564
H334	H	0.945862	0.250106	0.514564
H335	H	1.195862	0.500106	0.764564
H336	H	1.445862	0.750106	1.014564
H337	H	0.911356	-0.803049	-0.007414
H338	H	1.161356	-0.553049	0.242586
H339	H	1.411356	-0.303049	0.492586
H340	H	1.661356	-0.053049	0.742586
H341	H	0.706491	0.000100	0.116221
H342	H	0.956491	0.250100	0.366221
H343	H	1.206491	0.500100	0.616221
H344	H	1.456491	0.750100	0.866221
H345	H	0.618984	0.120507	-0.109156
H346	H	0.868984	0.370507	0.140844
H347	H	1.118984	0.620507	0.390844
H348	H	1.368984	0.870507	0.640844
H349	H	0.042307	0.120563	-0.099594
H350	H	0.292307	0.370563	0.150406
H351	H	0.542307	0.620563	0.400406
H352	H	0.792307	0.870563	0.650406
