data_functionalizedCrystal
_audit_creation_method	'MofGen! by Chris Wilmer'
_symmetry_space_group_name_H-M	'P1'
_symmetry_Int_Tables_number	1
_symmetry_cell_setting	triclinic
loop_
_symmetry_equiv_pos_as_xyz
  x,y,z
_cell_length_a	16.974829
_cell_length_b	14.519709
_cell_length_c	16.053802
_cell_angle_alpha	92.580010
_cell_angle_beta	91.075512
_cell_angle_gamma	83.538807
loop_
_atom_site_label
_atom_site_type_symbol
_atom_site_fract_x
_atom_site_fract_y
_atom_site_fract_z
O1	O	1.042589	0.125406	0.139875
O2	O	1.542589	0.625406	0.639875
O3	O	0.813149	0.139502	0.124374
O4	O	1.313149	0.639502	0.624374
O5	O	0.933953	-0.001781	0.132528
O6	O	1.433953	0.498219	0.632528
O7	O	0.921785	0.266689	0.131721
O8	O	1.421785	0.766689	0.631721
O9	O	0.940595	-0.009534	-0.005883
O10	O	1.440595	0.490466	0.494117
O11	O	0.819791	0.131749	-0.014036
O12	O	1.319791	0.631749	0.485964
O13	O	1.049231	0.117653	0.001464
O14	O	1.549231	0.617653	0.501464
Zn15	Zn	0.935566	0.123470	-0.028262
Zn16	Zn	1.435566	0.623470	0.471738
Zn17	Zn	0.926814	0.133685	0.154100
Zn18	Zn	1.426814	0.633685	0.654100
O19	O	0.928427	0.258936	-0.006690
O20	O	1.428427	0.758936	0.493310
C21	C	0.787106	0.134944	0.053185
C22	C	1.287106	0.634944	0.553185
C23	C	0.699611	0.132903	0.047274
C24	C	1.199611	0.632903	0.547274
C25	C	0.936707	-0.040017	0.063284
C26	C	1.436707	0.459983	0.563284
C27	C	0.935007	-0.142400	0.063169
C28	C	1.435007	0.357600	0.563169
C29	C	0.207493	0.120987	0.005901
C30	C	0.707493	0.620987	0.505901
C31	C	0.289703	0.122905	0.011457
C32	C	0.789703	0.622905	0.511457
C33	C	0.327189	0.128084	0.089684
C34	C	0.827189	0.628084	0.589684
C35	C	0.282458	0.131353	0.162360
C36	C	0.782458	0.631353	0.662360
C37	C	0.200248	0.129442	0.156803
C38	C	0.700248	0.629442	0.656803
C39	C	0.572671	0.134260	0.114393
C40	C	1.072671	0.634260	0.614393
C41	C	0.654887	0.136169	0.119944
C42	C	1.154887	0.636169	0.619944
C43	C	0.662126	0.127723	-0.030959
C44	C	1.162126	0.627723	0.469041
C45	C	0.579915	0.125806	-0.036509
C46	C	1.079915	0.625806	0.463491
C47	C	0.535191	0.129080	0.036167
C48	C	1.035191	0.629080	0.536167
N49	N	0.411222	0.130042	0.095365
N50	N	0.911222	0.630042	0.595365
N51	N	0.451159	0.127129	0.030485
N52	N	0.951159	0.627129	0.530485
C53	C	0.928751	-0.517298	0.062768
C54	C	1.428751	-0.017298	0.562768
C55	C	0.930489	-0.412990	0.062879
C56	C	1.430489	0.087010	0.562879
C57	C	0.931879	-0.329852	0.062968
C58	C	1.431879	0.170148	0.562968
C59	C	0.933617	-0.225537	0.063080
C60	C	1.433617	0.274463	0.563080
C61	C	1.075274	0.122211	0.072655
C62	C	1.575274	0.622211	0.572655
C63	C	1.162768	0.124253	0.078572
C64	C	1.662768	0.624253	0.578572
C65	C	0.925673	0.297173	0.062556
C66	C	1.425673	0.797173	0.562556
C67	C	0.927372	0.399556	0.062677
C68	C	1.427372	0.899556	0.562677
N69	N	0.920842	0.140650	0.278557
N70	N	1.420842	0.640650	0.778557
N71	N	0.941544	0.116498	-0.152719
N72	N	1.441544	0.616498	0.347281
C73	C	0.972343	0.080649	0.325727
C74	C	1.472343	0.580649	0.825727
C75	C	0.968164	0.085519	0.412852
C76	C	1.468164	0.585519	0.912852
C77	C	0.912480	0.150386	0.452805
C78	C	1.412480	0.650386	0.952805
C79	C	0.860976	0.210393	0.405628
C80	C	1.360976	0.710393	0.905628
C81	C	0.865160	0.205527	0.318506
C82	C	1.365160	0.705527	0.818506
C83	C	0.894224	0.171639	0.712982
C84	C	1.394224	0.671639	1.212982
C85	C	0.890043	0.176499	0.800111
C86	C	1.390043	0.676499	1.300111
C87	C	0.997232	0.051625	0.807329
C88	C	1.497232	0.551625	1.307329
C89	C	1.001408	0.046761	0.720204
C90	C	1.501408	0.546761	1.220204
C91	C	0.949907	0.106772	0.673035
C92	C	1.449907	0.606772	1.173035
N93	N	0.908205	0.155364	0.541860
N94	N	1.408205	0.655364	1.041860
N95	N	0.954186	0.101798	0.583982
N96	N	1.454186	0.601798	1.083982
H97	H	0.326115	0.120243	-0.047719
H98	H	0.826115	0.620243	0.452281
N99	N	0.800914	0.280360	0.448712
N100	N	1.300914	0.780360	0.948712
H101	H	0.829274	0.323385	0.486905
H102	H	1.329274	0.823385	0.986905
H103	H	0.764315	0.246868	0.482444
H104	H	1.264315	0.746868	0.982444
N105	N	0.829980	0.246465	0.843206
N106	N	1.329980	0.746465	1.343206
H107	H	0.797990	0.283745	0.800106
H108	H	1.297990	0.783745	1.300106
H109	H	0.858402	0.289421	0.881404
H110	H	1.358402	0.789421	1.381404
H111	H	0.823223	0.254387	0.280100
H112	H	1.323223	0.754387	0.780100
H113	H	0.312985	0.135576	0.226054
H114	H	0.812985	0.635576	0.726054
H115	H	0.549402	0.121569	-0.100209
H116	H	1.049402	0.621569	0.399791
N117	N	0.152005	0.132969	0.235182
N118	N	0.652005	0.632969	0.735182
H119	H	0.188226	0.136538	0.285583
H120	H	0.688226	0.636538	0.785583
H121	H	0.124041	0.075242	0.236585
H122	H	0.624041	0.575242	0.736585
N123	N	1.032406	0.010690	0.282637
N124	N	1.532406	0.510690	0.782637
H125	H	1.022627	-0.053984	0.297175
H126	H	1.522627	0.446016	0.797175
H127	H	1.087568	0.022554	0.301602
H128	H	1.587568	0.522554	0.801602
H129	H	0.852289	0.220500	0.674584
H130	H	1.352289	0.720500	1.174584
N131	N	0.710362	0.124197	-0.109341
N132	N	1.210362	0.624197	0.390659
H133	H	0.768130	0.126195	-0.093955
H134	H	1.268130	0.626195	0.406045
H135	H	0.691266	0.179140	-0.143676
H136	H	1.191266	0.679140	0.356324
H137	H	0.176978	0.116774	-0.057800
H138	H	0.676978	0.616774	0.442200
H139	H	0.536267	0.136924	0.173571
H140	H	1.036267	0.636924	0.673571
N141	N	0.695321	0.141754	0.204321
N142	N	1.195321	0.641754	0.704321
H143	H	0.654514	0.143541	0.249519
H144	H	1.154514	0.643541	0.749519
H145	H	0.722971	0.199848	0.209487
H146	H	1.222971	0.699848	0.709487
N147	N	1.023712	0.020806	0.463729
N148	N	1.523712	0.520806	0.963729
H149	H	1.059620	-0.021029	0.425199
H150	H	1.559620	0.478971	0.925199
H151	H	0.991821	-0.018116	0.497833
H152	H	1.491821	0.481884	0.997833
H153	H	1.046750	-0.006059	0.687676
H154	H	1.546750	0.493941	1.187676
H155	H	1.039162	0.002769	0.845741
H156	H	1.539162	0.502769	1.345741
