data_functionalizedCrystal
_audit_creation_method	'MofGen! by Chris Wilmer'
_symmetry_space_group_name_H-M	'P1'
_symmetry_Int_Tables_number	1
_symmetry_cell_setting	triclinic
loop_
_symmetry_equiv_pos_as_xyz
  x,y,z
_cell_length_a	11.792241
_cell_length_b	27.732025
_cell_length_c	10.268362
_cell_angle_alpha	90.009256
_cell_angle_beta	89.999626
_cell_angle_gamma	83.413442
loop_
_atom_site_label
_atom_site_type_symbol
_atom_site_fract_x
_atom_site_fract_y
_atom_site_fract_z
O1	O	1.504777	0.066249	-0.108128
O2	O	2.004777	0.566249	0.391872
O3	O	1.174216	0.073077	-0.108154
O4	O	1.674216	0.573077	0.391846
O5	O	1.349776	-0.000675	-0.108180
O6	O	1.849776	0.499325	0.391820
O7	O	1.329217	0.140001	-0.108102
O8	O	1.829217	0.640001	0.391898
O9	O	1.349761	-0.000678	0.108421
O10	O	1.849761	0.499322	0.608421
O11	O	1.174201	0.073073	0.108446
O12	O	1.674201	0.573073	0.608446
O13	O	1.504762	0.066246	0.108472
O14	O	2.004762	0.566246	0.608472
Cu15	Cu	1.339480	0.069659	0.128237
Cu16	Cu	1.839480	0.569659	0.628237
Cu17	Cu	1.339498	0.069663	-0.127919
Cu18	Cu	1.839498	0.569663	0.372081
O19	O	1.329202	0.139998	0.108498
O20	O	1.829202	0.639998	0.608498
C21	C	1.131932	0.072646	0.000142
C22	C	1.631932	0.572646	0.500142
C23	C	1.005959	0.071362	0.000130
C24	C	1.505959	0.571362	0.500130
C25	C	0.775323	0.069002	0.000166
C26	C	1.275323	0.569002	0.500166
C27	C	0.903666	0.070314	0.000146
C28	C	1.403666	0.570314	0.500146
C29	C	1.349341	-0.018686	0.000107
C30	C	1.849341	0.481314	0.500107
C31	C	1.348054	-0.072349	0.000069
C32	C	1.848054	0.427651	0.500069
C33	C	1.338913	-0.455566	-0.117925
C34	C	1.838913	0.044434	0.382075
C35	C	1.343732	-0.253879	-0.117967
C36	C	1.843732	0.246121	0.382033
O37	O	1.344408	-0.227806	-0.218383
O38	O	1.844408	0.272194	0.281617
N39	N	1.344326	-0.228656	0.000099
N40	N	1.844326	0.271344	0.500099
C41	C	1.343723	-0.253858	0.118183
C42	C	1.843723	0.246142	0.618183
O43	O	1.344351	-0.227777	0.218604
O44	O	1.844351	0.272223	0.718604
C45	C	1.338912	-0.455545	0.118223
C46	C	1.838912	0.044455	0.618223
C47	C	1.338307	-0.480765	0.000150
C48	C	1.838307	0.019235	0.500150
C49	C	1.338309	-0.480786	-0.235989
C50	C	1.838309	0.019214	0.264011
C51	C	1.337098	-0.531205	-0.235977
C52	C	1.837098	-0.031205	0.264023
C53	C	1.336491	-0.556403	-0.117902
C54	C	1.836491	-0.056403	0.382098
C55	C	1.337096	-0.531183	0.000161
C56	C	1.837096	-0.031183	0.500161
C57	C	1.338317	-0.480747	0.236306
C58	C	1.838317	0.019253	0.736306
C59	C	1.337118	-0.531172	0.236306
C60	C	1.837118	-0.031172	0.736306
C61	C	1.336512	-0.556392	0.118232
C62	C	1.836512	-0.056392	0.618232
C63	C	1.335278	-0.606800	0.118248
C64	C	1.835278	-0.106800	0.618248
N65	N	1.334684	-0.632023	0.000183
N66	N	1.834684	-0.132023	0.500183
C67	C	1.335291	-0.606825	-0.117893
C68	C	1.835291	-0.106825	0.382107
C69	C	1.346247	-0.147969	0.118154
C70	C	1.846247	0.352031	0.618154
C71	C	1.347447	-0.097548	0.118144
C72	C	1.847447	0.402452	0.618144
C73	C	1.347458	-0.097572	-0.118007
C74	C	1.847458	0.402428	0.381993
C75	C	1.346249	-0.147994	-0.117996
C76	C	1.846249	0.352006	0.382004
C77	C	1.345652	-0.173192	0.000088
C78	C	1.845652	0.326808	0.500088
C79	C	1.332747	-0.712707	-0.117859
C80	C	1.832747	-0.212707	0.382141
C81	C	1.331531	-0.763130	-0.117837
C82	C	1.831531	-0.263130	0.382163
C83	C	1.331526	-0.763101	0.118312
C84	C	1.831526	-0.263101	0.618312
C85	C	1.332736	-0.712683	0.118291
C86	C	1.832736	-0.212683	0.618291
C87	C	1.333350	-0.687487	0.000195
C88	C	1.833350	-0.187487	0.500195
O89	O	1.334615	-0.632905	0.218612
O90	O	1.834615	-0.132905	0.718612
O91	O	1.334688	-0.632916	-0.218299
O92	O	1.834688	-0.132916	0.281701
C93	C	1.340124	-0.405148	-0.117937
C94	C	1.840124	0.094852	0.382063
C95	C	1.340728	-0.379928	0.000127
C96	C	1.840728	0.120072	0.500127
C97	C	1.340122	-0.405126	0.118202
C98	C	1.840122	0.094874	0.618202
C99	C	1.341929	-0.329506	0.000117
C100	C	1.841929	0.170494	0.500117
C101	C	1.342535	-0.304308	-0.117958
C102	C	1.842535	0.195692	0.382042
C103	C	1.341941	-0.329531	-0.236024
C104	C	1.841941	0.170469	0.263976
C105	C	1.340730	-0.379949	-0.236012
C106	C	1.840730	0.120051	0.263988
C107	C	1.340716	-0.379903	0.236267
C108	C	1.840716	0.120097	0.736267
C109	C	1.341926	-0.329485	0.236246
C110	C	1.841926	0.170515	0.736246
C111	C	1.342532	-0.304286	0.118171
C112	C	1.842532	0.195714	0.618171
C113	C	1.547047	0.066676	0.000173
C114	C	2.047047	0.566676	0.500173
C115	C	1.673019	0.067960	0.000177
C116	C	2.173019	0.567960	0.500177
C117	C	1.329637	0.158009	0.000208
C118	C	1.829637	0.658009	0.500208
C119	C	1.330925	0.211672	0.000238
C120	C	1.830925	0.711672	0.500238
N121	N	1.339476	0.069657	0.308403
N122	N	1.839476	0.569657	0.808403
N123	N	1.339511	0.069662	-0.308085
N124	N	1.839511	0.569662	0.191915
C125	C	1.339492	0.069662	0.574073
C126	C	1.839492	0.569662	1.074073
C127	C	1.339479	0.069660	0.426235
C128	C	1.839479	0.569660	0.926235
H129	H	1.331033	-0.783661	-0.213991
H130	H	1.831033	-0.283661	0.286009
H131	H	1.333248	-0.692199	-0.214025
H132	H	1.833248	-0.192199	0.285975
H133	H	1.338823	-0.460222	0.332454
H134	H	1.838823	0.039778	0.832454
H135	H	1.336632	-0.551686	0.332466
H136	H	1.836632	-0.051686	0.832466
H137	H	1.338806	-0.460275	-0.332145
H138	H	1.838806	0.039725	0.167855
H139	H	1.340225	-0.400415	0.332421
H140	H	1.840225	0.099585	0.832421
H141	H	1.345761	-0.168481	0.214317
H142	H	1.845761	0.331519	0.714317
H143	H	1.333184	-0.692145	0.214436
H144	H	1.833184	-0.192145	0.714436
H145	H	1.345754	-0.168525	-0.214141
H146	H	1.845754	0.331475	0.285859
H147	H	1.331028	-0.783627	0.214446
H148	H	1.831028	-0.283627	0.714446
H149	H	1.340237	-0.400479	-0.332160
H150	H	1.840237	0.099521	0.167840
H151	H	1.342427	-0.309005	-0.332165
H152	H	1.842427	0.190995	0.167835
H153	H	1.342408	-0.308954	0.332403
H154	H	1.842408	0.191046	0.832403
H155	H	1.347944	-0.077046	-0.214148
H156	H	1.847944	0.422954	0.285852
H157	H	1.336612	-0.551734	-0.332125
H158	H	1.836612	-0.051734	0.167875
H159	H	1.347919	-0.077017	0.214291
H160	H	1.847919	0.422983	0.714291
