data_functionalizedCrystal
_audit_creation_method	'MofGen! by Chris Wilmer'
_symmetry_space_group_name_H-M	'P1'
_symmetry_Int_Tables_number	1
_symmetry_cell_setting	triclinic
loop_
_symmetry_equiv_pos_as_xyz
  x,y,z
_cell_length_a	19.288864
_cell_length_b	19.188924
_cell_length_c	18.366186
_cell_angle_alpha	89.991683
_cell_angle_beta	89.977106
_cell_angle_gamma	83.139105
loop_
_atom_site_label
_atom_site_type_symbol
_atom_site_fract_x
_atom_site_fract_y
_atom_site_fract_z
O1	O	0.921357	0.087099	-0.060786
O2	O	0.719097	0.098849	-0.060737
O3	O	0.826066	-0.008682	-0.060755
O4	O	0.814388	0.194631	-0.060769
O5	O	0.826048	-0.008687	0.060345
O6	O	0.719079	0.098844	0.060362
O7	O	0.921339	0.087094	0.060313
Zn8	Zn	0.820206	0.092968	0.079565
Zn9	Zn	0.820230	0.092975	-0.079989
O10	O	0.814370	0.194625	0.060330
C11	C	0.693212	0.098468	-0.000181
C12	C	0.616108	0.097333	-0.000162
C13	C	0.571415	0.160428	-0.000178
C14	C	0.498968	0.159362	-0.000186
C15	C	0.471217	0.095197	-0.000192
C16	C	0.515920	0.032095	-0.000172
C17	C	0.588365	0.033163	-0.000157
C18	C	0.362959	0.044759	-0.042640
C19	C	0.290514	0.043694	-0.042660
C20	C	0.247771	0.091901	-0.000236
C21	C	0.277480	0.141185	0.042198
C22	C	0.349925	0.142253	0.042213
C23	C	0.392663	0.094032	-0.000208
C24	C	0.124522	0.153843	-0.000260
C25	C	0.052074	0.152775	-0.000263
C26	C	0.069028	0.025506	-0.000257
C27	C	0.141474	0.026576	-0.000246
C28	C	0.169217	0.090747	-0.000251
C29	C	0.825680	-0.034696	-0.000204
C30	C	0.824547	-0.112201	-0.000202
C31	C	0.824028	-0.148597	-0.066213
C32	C	0.822954	-0.221419	-0.066218
C33	C	0.822412	-0.257845	-0.000209
C34	C	0.822927	-0.221440	0.065811
C35	C	0.823995	-0.148617	0.065815
N36	N	0.860256	-0.377513	0.048912
N37	N	0.859244	-0.446691	0.048904
C38	C	0.819195	-0.477254	-0.000215
N39	N	0.780206	-0.436026	-0.049337
N40	N	0.781222	-0.366842	-0.049331
C41	C	0.821255	-0.336808	-0.000205
C42	C	0.817510	-0.592612	-0.066236
C43	C	0.816432	-0.665436	-0.066239
C44	C	0.816412	-0.665456	0.065793
C45	C	0.817484	-0.592633	0.065793
C46	C	0.818036	-0.556216	-0.000223
C47	C	0.947225	0.087475	-0.000245
C48	C	1.024328	0.088610	-0.000269
C49	C	0.814756	0.220639	-0.000222
C50	C	0.815889	0.298144	-0.000229
N51	N	0.820195	0.092963	0.188456
N52	N	0.820247	0.092975	-0.188880
C53	C	0.867576	0.045371	0.226549
C54	C	0.867581	0.045368	0.302776
C55	C	0.820210	0.092969	0.340909
C56	C	0.772820	0.140564	0.302807
C57	C	0.772812	0.140561	0.226580
C58	C	0.810915	0.156586	0.461666
C59	C	0.810928	0.156590	0.537891
C60	C	0.820230	0.092977	0.576016
C61	C	0.829534	0.029359	0.537907
C62	C	0.829527	0.029356	0.461681
C63	C	0.820213	0.092977	0.423563
C64	C	0.867619	0.045379	0.696764
C65	C	0.867618	0.045375	0.772993
C66	C	0.772861	0.140576	0.773022
C67	C	0.772858	0.140574	0.696794
C68	C	0.820241	0.092976	0.658670
H69	H	0.242680	0.180439	0.076743
H70	H	0.837109	-0.022440	0.568947
C71	C	0.815814	-0.705511	0.138404
H72	H	0.816273	-0.673402	0.177720
H73	H	0.855890	-0.739375	0.141140
H74	H	0.774894	-0.728462	0.141155
H75	H	0.906156	0.006613	0.195510
C76	C	0.839750	-0.040617	0.419761
H77	H	0.845387	-0.078503	0.453377
H78	H	0.880135	-0.042093	0.389921
H79	H	0.800021	-0.044428	0.390130
C80	C	0.822331	-0.261501	0.138422
H81	H	0.822787	-0.229392	0.177738
H82	H	0.862409	-0.295363	0.141159
H83	H	0.781413	-0.284455	0.141171
H84	H	0.816006	-0.695068	-0.119996
C85	C	0.449793	0.228766	-0.000207
H86	H	0.402674	0.218938	-0.000211
H87	H	0.458207	0.255086	-0.042437
H88	H	0.458156	0.255088	0.042028
C89	C	0.720752	0.192937	0.654887
H90	H	0.727530	0.186117	0.604028
H91	H	0.728157	0.239514	0.667370
H92	H	0.674417	0.185475	0.667401
C93	C	0.257841	-0.010518	-0.089331
H94	H	0.293672	-0.039085	-0.114583
H95	H	0.226384	0.013198	-0.123457
H96	H	0.233319	-0.039125	-0.058738
H97	H	0.734249	0.179320	0.333858
H98	H	0.824414	-0.118984	0.119571
C99	C	0.382604	0.196455	0.088892
H100	H	0.346778	0.225011	0.114162
H101	H	0.407130	0.225064	0.058312
H102	H	0.414060	0.172722	0.123016
H103	H	0.803356	0.208392	0.568913
C104	C	0.155042	0.224427	-0.000257
H105	H	0.118045	0.261852	-0.000258
H106	H	0.182972	0.227491	-0.042483
H107	H	0.182929	0.227485	0.041982
C108	C	0.818110	-0.552550	-0.138850
H109	H	0.817636	-0.584657	-0.178166
H110	H	0.859023	-0.529596	-0.141604
H111	H	0.778027	-0.518687	-0.141582
C112	C	0.800687	0.226564	0.419735
H113	H	0.795159	0.264451	0.453347
H114	H	0.760239	0.228084	0.390018
H115	H	0.840366	0.230330	0.389981
C116	C	0.720754	0.192936	0.814958
H117	H	0.727546	0.186124	0.865812
H118	H	0.674422	0.185472	0.802491
H119	H	0.728156	0.239517	0.802453
C120	C	0.409969	-0.008267	-0.089315
H121	H	0.381900	-0.037762	-0.114598
H122	H	0.441972	-0.036047	-0.058728
H123	H	0.435028	0.016301	-0.123427
C124	C	0.919704	-0.006980	0.344691
H125	H	0.912918	-0.000162	0.395548
H126	H	0.966032	0.000488	0.332172
H127	H	0.912306	-0.053565	0.332215
C128	C	0.919729	-0.006983	0.654824
H129	H	0.947942	-0.035336	0.688431
H130	H	0.948562	0.018057	0.625068
H131	H	0.894826	-0.035985	0.625107
C132	C	0.919742	-0.006978	0.814895
H133	H	0.947963	-0.035319	0.781269
H134	H	0.894856	-0.035982	0.844650
H135	H	0.948577	0.018075	0.844610
C136	C	0.818066	-0.552597	0.138407
H137	H	0.817596	-0.584719	0.177720
H138	H	0.777989	-0.518734	0.141165
H139	H	0.858985	-0.529646	0.141139
H140	H	0.734228	0.179316	0.195565
H141	H	0.593998	0.212681	-0.000183
H142	H	0.015685	0.204156	-0.000272
H143	H	0.046434	-0.026738	-0.000308
C144	C	0.190642	-0.042826	-0.000240
H145	H	0.237762	-0.033001	-0.000225
H146	H	0.182275	-0.069145	-0.042471
H147	H	0.182229	-0.069148	0.041995
C148	C	0.485397	-0.038484	-0.000184
H149	H	0.435850	-0.030084	-0.000204
H150	H	0.500726	-0.064458	0.042049
H151	H	0.500778	-0.064449	-0.042416
C152	C	0.637533	-0.036242	-0.000145
H153	H	0.684652	-0.026416	-0.000133
H154	H	0.629165	-0.062562	-0.042374
H155	H	0.629122	-0.062563	0.042091
C156	C	0.824623	-0.108540	-0.138828
H157	H	0.824153	-0.140650	-0.178143
H158	H	0.865533	-0.085581	-0.141585
H159	H	0.784537	-0.074682	-0.141560
H160	H	0.822527	-0.251058	-0.119975
