data_functionalizedCrystal
_audit_creation_method	'MofGen! by Chris Wilmer'
_symmetry_space_group_name_H-M	'P1'
_symmetry_Int_Tables_number	1
_symmetry_cell_setting	triclinic
loop_
_symmetry_equiv_pos_as_xyz
  x,y,z
_cell_length_a	11.169417
_cell_length_b	13.897448
_cell_length_c	11.169417
_cell_angle_alpha	90.008681
_cell_angle_beta	90.003712
_cell_angle_gamma	90.018571
loop_
_atom_site_label
_atom_site_type_symbol
_atom_site_fract_x
_atom_site_fract_y
_atom_site_fract_z
Zn1	Zn	1.834710	-0.384170	0.678515
Zn2	Zn	2.168043	-0.050837	1.011848
Zn3	Zn	2.501377	0.282496	1.345182
Zn4	Zn	1.834630	-0.545430	0.477821
Zn5	Zn	2.167964	-0.212097	0.811154
Zn6	Zn	2.501297	0.121236	1.144488
Zn7	Zn	1.634052	-0.384153	0.477850
Zn8	Zn	1.967386	-0.050820	0.811183
Zn9	Zn	2.300719	0.282513	1.144516
Zn10	Zn	1.633978	-0.545427	0.678466
Zn11	Zn	1.967311	-0.212094	1.011799
Zn12	Zn	2.300644	0.121239	1.345132
O13	O	1.734343	-0.464795	0.578163
O14	O	2.067676	-0.131462	0.911496
O15	O	2.401009	0.201871	1.244829
O16	O	2.002649	-0.405570	0.651901
O17	O	2.335982	-0.072237	0.985235
O18	O	2.669316	0.261097	1.318568
O19	O	1.808021	-0.524031	0.309875
O20	O	2.141354	-0.190697	0.643208
O21	O	2.474688	0.142636	0.976542
O22	O	1.660735	-0.249174	0.504501
O23	O	1.994068	0.084159	0.837834
O24	O	2.327401	0.417493	1.171168
O25	O	2.002590	-0.524047	0.504452
O26	O	2.335924	-0.190714	0.837785
O27	O	2.669257	0.142620	1.171119
O28	O	1.808157	-0.249186	0.651929
O29	O	2.141490	0.084147	0.985263
O30	O	2.474824	0.417480	1.318596
O31	O	1.660657	-0.405541	0.309896
O32	O	1.993991	-0.072208	0.643229
O33	O	2.327324	0.261126	0.976563
O34	O	1.466093	-0.405538	0.504453
O35	O	1.799426	-0.072205	0.837786
O36	O	2.132760	0.261128	1.171120
O37	O	1.660607	-0.524042	0.846422
O38	O	1.993941	-0.190709	1.179755
O39	O	2.327274	0.142624	1.513088
O40	O	1.466038	-0.524026	0.651845
O41	O	1.799371	-0.190692	0.985178
O42	O	2.132705	0.142641	1.318511
O43	O	1.808085	-0.405567	0.846458
O44	O	2.141418	-0.072234	1.179792
O45	O	2.474751	0.261099	1.513125
O46	O	1.807948	-0.680411	0.504404
O47	O	2.141282	-0.347078	0.837737
O48	O	2.474615	-0.013745	1.171071
O49	O	1.660530	-0.680409	0.651817
O50	O	1.993863	-0.347076	0.985150
O51	O	2.327197	-0.013743	1.318483
C52	C	1.422518	-0.464781	0.578147
C53	C	1.755851	-0.131447	0.911481
C54	C	2.089185	0.201886	1.244814
C55	C	1.289118	-0.464798	0.578169
C56	C	1.622451	-0.131464	0.911503
C57	C	1.955785	0.201869	1.244836
C58	C	1.734255	-0.715410	0.578128
C59	C	2.067588	-0.382076	0.911461
C60	C	2.400922	-0.048743	1.244795
C61	C	1.734327	-0.822624	0.578153
C62	C	2.067661	-0.489290	0.911487
C63	C	2.400994	-0.155957	1.244820
C64	C	1.734453	-1.018919	0.578229
C65	C	2.067787	-0.685585	0.911562
C66	C	2.401120	-0.352252	1.244895
C67	C	1.734380	-0.909686	0.578190
C68	C	2.067713	-0.576353	0.911524
C69	C	2.401047	-0.243019	1.244857
C70	C	2.047385	-0.464811	0.578179
C71	C	2.380718	-0.131477	0.911512
C72	C	2.714052	0.201856	1.244846
C73	C	2.180785	-0.464817	0.578186
C74	C	2.514118	-0.131484	0.911519
C75	C	2.847452	0.201849	1.244853
C76	C	1.734347	-0.464806	0.891205
C77	C	2.067680	-0.131473	1.224538
C78	C	2.401013	0.201860	1.557872
C79	C	1.734348	-0.464811	1.024605
C80	C	2.067682	-0.131478	1.357938
C81	C	2.401015	0.201856	1.691272
C82	C	1.734463	-0.213202	0.578224
C83	C	2.067797	0.120131	0.911557
C84	C	2.401130	0.453464	1.244891
C85	C	1.734515	-0.105988	0.578250
C86	C	2.067848	0.227345	0.911583
C87	C	2.401181	0.560678	1.244917
C88	C	1.734334	-0.464809	1.266338
C89	C	2.067667	-0.131476	1.599671
C90	C	2.401000	0.201857	1.933005
C91	C	1.734344	-0.464815	1.132938
C92	C	2.067677	-0.131481	1.466271
C93	C	2.401011	0.201852	1.799605
