data_functionalizedCrystal
_audit_creation_method	'MofGen! by Chris Wilmer'
_symmetry_space_group_name_H-M	'P1'
_symmetry_Int_Tables_number	1
_symmetry_cell_setting	triclinic
loop_
_symmetry_equiv_pos_as_xyz
  x,y,z
_cell_length_a	14.519709
_cell_length_b	10.654550
_cell_length_c	9.730223
_cell_angle_alpha	89.996251
_cell_angle_beta	89.995143
_cell_angle_gamma	95.917476
loop_
_atom_site_label
_atom_site_type_symbol
_atom_site_fract_x
_atom_site_fract_y
_atom_site_fract_z
O1	O	-0.129528	1.666589	-0.114382
O2	O	0.370472	2.166589	0.385618
O3	O	-0.141869	1.300991	-0.114358
O4	O	0.358131	1.800991	0.385642
O5	O	-0.001510	1.493483	-0.114383
O6	O	0.498490	1.993483	0.385617
O7	O	-0.269887	1.474097	-0.114357
O8	O	0.230113	1.974097	0.385643
O9	O	-0.001514	1.493481	0.114197
O10	O	0.498486	1.993481	0.614197
O11	O	-0.141873	1.300989	0.114222
O12	O	0.358127	1.800989	0.614222
O13	O	-0.129532	1.666586	0.114198
O14	O	0.370468	2.166586	0.614198
Zn15	Zn	-0.135703	1.483787	0.150502
Zn16	Zn	0.364297	1.983787	0.650502
Zn17	Zn	-0.135698	1.483790	-0.150662
Zn18	Zn	0.364302	1.983790	0.349338
O19	O	-0.269890	1.474094	0.114223
O20	O	0.230110	1.974094	0.614223
C21	C	-0.140965	1.254201	-0.000065
C22	C	0.359035	1.754201	0.499935
C23	C	-0.138254	1.114784	-0.000057
C24	C	0.361746	1.614784	0.499943
C25	C	-0.220895	1.034504	-0.000069
C26	C	0.279105	1.534504	0.499931
C27	C	-0.218342	0.903507	-0.000093
C28	C	0.281658	1.403507	0.499907
C29	C	-0.050500	0.933085	-0.000099
C30	C	0.449500	1.433085	0.499901
C31	C	-0.053054	1.064078	-0.000065
C32	C	0.446946	1.564078	0.499935
C33	C	-0.317797	1.017426	-0.000072
C34	C	0.182203	1.517426	0.499928
C35	C	-0.315244	0.886430	-0.000096
C36	C	0.184756	1.386430	0.499904
C37	C	-0.304253	1.474999	-0.000064
C38	C	0.195747	1.974999	0.499936
C39	C	-0.406648	1.477707	-0.000055
C40	C	0.093352	1.977707	0.499945
C41	C	-0.781596	1.487674	-0.000110
C42	C	-0.281596	1.987674	0.499890
C43	C	-0.677274	1.484906	-0.000094
C44	C	-0.177274	1.984906	0.499906
C45	C	-0.594125	1.482690	-0.000081
C46	C	-0.094125	1.982690	0.499919
C47	C	-0.489797	1.479922	-0.000068
C48	C	0.010203	1.979922	0.499932
C49	C	0.032852	1.492579	-0.000099
C50	C	0.532852	1.992579	0.499901
C51	C	0.135247	1.489871	-0.000117
C52	C	0.635247	1.989871	0.499883
C53	C	-0.130436	1.713377	-0.000098
C54	C	0.369564	2.213377	0.499902
C55	C	-0.133147	1.852794	-0.000115
C56	C	0.366853	2.352794	0.499885
N57	N	-0.135705	1.483795	0.356038
N58	N	0.364295	1.983795	0.856038
N59	N	-0.135688	1.483793	-0.356198
N60	N	0.364312	1.983793	0.143802
C61	C	-0.073576	1.569052	0.427953
C62	C	0.426424	2.069052	0.927953
C63	C	-0.073565	1.569048	0.571836
C64	C	0.426435	2.069048	1.071836
C65	C	-0.197821	1.398527	0.571877
C66	C	0.302179	1.898527	1.071877
C67	C	-0.197827	1.398525	0.427996
C68	C	0.302173	1.898525	0.927996
C69	C	-0.001840	1.667505	0.427931
C70	C	0.498160	2.167505	0.927931
C71	C	-0.001829	1.667502	0.571814
C72	C	0.498171	2.167502	1.071814
H73	H	0.014241	1.129439	-0.000036
H74	H	0.514241	1.629439	0.499964
H75	H	0.065157	1.637633	0.616425
H76	H	0.565157	2.137633	1.116425
H77	H	0.018867	0.891784	-0.000127
H78	H	0.518867	1.391784	0.499873
H79	H	-0.344531	0.840476	0.098591
H80	H	0.155469	1.340476	0.598591
H81	H	-0.248409	1.329091	0.369444
H82	H	0.251591	1.829091	0.869444
H83	H	-0.024302	1.758473	0.383301
H84	H	0.475698	2.258473	0.883301
H85	H	-0.017630	1.763861	0.610860
H86	H	0.482370	2.263861	1.110860
H87	H	-0.355697	1.046392	0.095598
H88	H	0.144303	1.546392	0.595598
H89	H	-0.348651	1.052786	-0.098756
H90	H	0.151349	1.552786	0.401244
H91	H	-0.248398	1.329102	0.630480
H92	H	0.251602	1.829102	1.130480
H93	H	-0.351754	0.844347	-0.095760
H94	H	0.148246	1.344347	0.404240
H95	H	0.069045	1.646743	0.388872
H96	H	0.569045	2.146743	0.888872
