data_functionalizedCrystal
_audit_creation_method	'MofGen! by Chris Wilmer'
_symmetry_space_group_name_H-M	'P1'
_symmetry_Int_Tables_number	1
_symmetry_cell_setting	triclinic
loop_
_symmetry_equiv_pos_as_xyz
  x,y,z
_cell_length_a	14.519731
_cell_length_b	9.065215
_cell_length_c	7.540329
_cell_angle_alpha	89.997574
_cell_angle_beta	89.995423
_cell_angle_gamma	84.351775
loop_
_atom_site_label
_atom_site_type_symbol
_atom_site_fract_x
_atom_site_fract_y
_atom_site_fract_z
O1	O	0.135211	1.957883	-0.147467
O2	O	0.635211	2.457883	0.352533
O3	O	0.146306	1.528392	-0.147475
O4	O	0.646306	2.028392	0.352525
O5	O	0.006605	1.754508	-0.147454
O6	O	0.506605	2.254508	0.352546
O7	O	0.274913	1.731766	-0.147487
O8	O	0.774913	2.231766	0.352513
O9	O	0.006603	1.754495	0.147511
O10	O	0.506603	2.254495	0.647511
O11	O	0.146304	1.528378	0.147490
O12	O	0.646304	2.028378	0.647490
O13	O	0.135209	1.957870	0.147498
O14	O	0.635209	2.457870	0.647498
Cu15	Cu	0.140757	1.743123	0.174427
Cu16	Cu	0.640757	2.243123	0.674427
Cu17	Cu	0.140759	1.743139	-0.174403
Cu18	Cu	0.640759	2.243139	0.325597
O19	O	0.274911	1.731753	0.147478
O20	O	0.774911	2.231753	0.647478
C21	C	0.145239	1.473418	0.000007
C22	C	0.645239	1.973418	0.500007
C23	C	0.142053	1.309634	0.000004
C24	C	0.642053	1.809634	0.500004
C25	C	-0.027764	1.753436	0.000028
C26	C	0.472236	2.253436	0.500028
C27	C	-0.130167	1.750243	0.000029
C28	C	0.369833	2.250243	0.500029
C29	C	-0.213330	1.747648	0.000025
C30	C	0.286670	2.247648	0.500025
C31	C	-0.317663	1.744406	0.000012
C32	C	0.182337	2.244406	0.500012
C33	C	-0.400821	1.741833	0.000000
C34	C	0.099179	2.241833	0.500000
C35	C	-0.505160	1.738592	-0.000010
C36	C	-0.005160	2.238592	0.499990
C37	C	0.309279	1.732825	-0.000009
C38	C	0.809279	2.232825	0.499991
C39	C	0.411682	1.736018	-0.000022
C40	C	0.911682	2.236018	0.499978
C41	C	0.136276	2.012844	0.000013
C42	C	0.636276	2.512844	0.500013
C43	C	0.139462	2.176627	0.000004
C44	C	0.639462	2.676627	0.500004
N45	N	0.140755	1.743122	0.419775
N46	N	0.640755	2.243122	0.919775
N47	N	0.140754	1.743151	-0.419752
N48	N	0.640754	2.243151	0.080248
