data_functionalizedCrystal
_audit_creation_method	'MofGen! by Chris Wilmer'
_symmetry_space_group_name_H-M	'P1'
_symmetry_Int_Tables_number	1
_symmetry_cell_setting	triclinic
loop_
_symmetry_equiv_pos_as_xyz
  x,y,z
_cell_length_a	14.971482
_cell_length_b	19.188924
_cell_length_c	13.448316
_cell_angle_alpha	89.991325
_cell_angle_beta	89.993798
_cell_angle_gamma	83.377286
loop_
_atom_site_label
_atom_site_type_symbol
_atom_site_fract_x
_atom_site_fract_y
_atom_site_fract_z
O1	O	1.186466	0.090976	-0.082684
O2	O	0.926007	0.101875	-0.082689
O3	O	1.063756	-0.005207	-0.082674
O4	O	1.048717	0.198057	-0.082698
O5	O	1.063739	-0.005213	0.082709
O6	O	0.925990	0.101868	0.082695
O7	O	1.186449	0.090969	0.082700
Cu8	Cu	1.056218	0.096418	0.097798
Cu9	Cu	1.056238	0.096426	-0.097787
O10	O	1.048700	0.198051	0.082686
C11	C	0.892677	0.101384	0.000002
C12	C	0.793387	0.099925	0.000001
C13	C	0.746737	0.099234	0.090153
C14	C	0.653446	0.097852	0.090154
C15	C	0.606806	0.097166	0.000002
C16	C	0.653463	0.097855	-0.090157
C17	C	0.746753	0.099232	-0.090157
C18	C	0.459016	0.094986	-0.090150
C19	C	0.365719	0.093610	-0.090150
C20	C	0.365709	0.093606	0.090161
C21	C	0.458999	0.094983	0.090161
C22	C	0.505650	0.095673	0.000001
C23	C	1.063262	-0.031223	0.000018
C24	C	1.061803	-0.108732	0.000021
C25	C	1.061131	-0.145129	-0.090130
C26	C	1.059748	-0.217957	-0.090138
C27	C	1.059054	-0.254385	0.000011
C28	C	1.059720	-0.217979	0.090174
C29	C	1.061095	-0.145152	0.090179
N30	N	1.107789	-0.373895	0.067107
N31	N	1.106485	-0.443077	0.067096
C32	C	1.054911	-0.473808	0.000001
N33	N	1.004700	-0.432743	-0.067098
N34	N	1.006008	-0.363555	-0.067090
C35	C	1.057563	-0.333354	0.000016
C36	C	1.052738	-0.589173	-0.090164
C37	C	1.051349	-0.662001	-0.090168
C38	C	1.051330	-0.662022	0.090146
C39	C	1.052711	-0.589195	0.090147
C40	C	1.053418	-0.552775	-0.000011
C41	C	1.219780	0.091460	0.000007
C42	C	1.319069	0.092919	0.000002
C43	C	1.049195	0.224067	-0.000009
C44	C	1.050653	0.301576	-0.000019
N45	N	1.056210	0.096412	0.235363
N46	N	1.056253	0.096426	-0.235351
C47	C	1.117224	0.049016	0.287409
C48	C	1.117230	0.049016	0.391513
C49	C	1.056225	0.096415	0.443567
C50	C	0.995204	0.143813	0.391513
C51	C	0.995195	0.143810	0.287412
C52	C	0.995229	0.143818	0.608493
C53	C	0.995239	0.143822	0.712602
C54	C	1.117264	0.049024	0.712594
C55	C	1.117254	0.049020	0.608493
C56	C	1.056235	0.096420	0.556446
H57	H	0.615482	0.097291	-0.163560
C58	C	0.798032	0.099989	0.189328
N59	N	0.836666	0.100554	0.264031
H60	H	0.327748	0.093051	-0.163560
H61	H	1.166911	0.010422	0.433889
C62	C	1.061839	-0.105114	0.189356
N63	N	1.062402	-0.074957	0.264058
C64	C	1.058955	-0.258051	0.189337
N65	N	1.058375	-0.288234	0.264031
H66	H	1.166905	0.010421	0.245033
H67	H	1.166933	0.010428	0.566110
C68	C	1.061902	-0.105071	-0.189307
N69	N	1.062479	-0.074898	-0.264007
C70	C	0.510301	0.095739	0.189332
N71	N	0.548942	0.096306	0.264029
C72	C	1.059004	-0.258001	-0.189315
N73	N	1.058442	-0.288161	-0.264015
C74	C	1.184383	-0.003119	0.769848
N75	N	1.234936	-0.042390	0.812976
H76	H	0.945529	0.182404	0.433902
C77	C	0.928126	0.195960	0.769860
N78	N	0.877574	0.235230	0.812986
H79	H	0.945538	0.182413	0.566120
C80	C	1.053459	-0.549157	0.189322
N81	N	1.054021	-0.519000	0.264025
C82	C	0.314392	0.092842	0.189337
N83	N	0.275736	0.092268	0.264034
H84	H	0.945511	0.182404	0.245036
H85	H	1.050759	-0.691681	0.163547
C86	C	0.798068	0.099993	-0.189331
N87	N	0.836717	0.100565	-0.264032
C88	C	0.510329	0.095748	-0.189330
N89	N	0.548977	0.096328	-0.264032
H90	H	1.050798	-0.691634	-0.163583
C91	C	1.053503	-0.549107	-0.189338
N92	N	1.054077	-0.518931	-0.264038
H93	H	0.615469	0.097278	0.163565
