data_functionalizedCrystal
_audit_creation_method	'MofGen! by Chris Wilmer'
_symmetry_space_group_name_H-M	'P1'
_symmetry_Int_Tables_number	1
_symmetry_cell_setting	triclinic
loop_
_symmetry_equiv_pos_as_xyz
  x,y,z
_cell_length_a	14.446369
_cell_length_b	20.875492
_cell_length_c	20.875625
_cell_angle_alpha	60.168684
_cell_angle_beta	92.969883
_cell_angle_gamma	58.318373
loop_
_atom_site_label
_atom_site_type_symbol
_atom_site_fract_x
_atom_site_fract_y
_atom_site_fract_z
Zr1	Zr	0.827028	0.740674	-0.122785
O2	O	0.660427	0.881831	-0.232553
O3	O	0.885816	0.599513	-0.084037
O4	O	0.864663	0.740677	-0.225209
O5	O	0.689488	0.740665	0.014179
O6	O	1.016991	0.740683	-0.225215
O7	O	0.681580	0.740667	-0.091381
O8	O	1.054830	0.488166	0.027316
O9	O	0.651649	0.993182	-0.238353
O10	O	1.015247	0.657580	-0.073675
O11	O	0.907468	0.657574	0.005108
O12	O	0.882563	0.823777	-0.161105
O13	O	0.774785	0.823771	-0.082322
Zr14	Zr	1.082586	0.740681	0.045562
Zr15	Zr	1.069973	0.740683	-0.122794
Zr16	Zr	0.839641	0.740671	0.045572
Zr17	Zr	0.813029	0.918265	-0.132034
Zr18	Zr	1.096585	0.563089	0.054811
O19	O	1.023798	0.881841	0.006814
O20	O	1.005864	0.881845	-0.232567
O21	O	0.678361	0.881827	0.006828
O22	O	1.249187	0.599523	0.155331
O23	O	1.231253	0.599527	-0.084050
O24	O	0.903750	0.599509	0.155344
O25	O	1.220126	0.740689	-0.091402
O26	O	1.044951	0.740677	0.147987
O27	O	0.892623	0.740671	0.147993
O28	O	1.228034	0.740687	0.014158
O29	O	0.844758	0.993190	-0.238360
O30	O	1.064856	0.488164	0.161137
O31	O	1.257965	0.488172	0.161130
O32	O	1.247939	0.488174	0.027309
O33	O	0.661675	0.993180	-0.104532
O34	O	0.854784	0.993188	-0.104539
O35	O	1.027051	0.657578	0.083882
O36	O	1.134829	0.657583	0.005099
O37	O	1.002146	0.823780	-0.082331
O38	O	0.894367	0.823774	-0.003548
C39	C	0.972318	0.518537	-0.027043
C40	C	0.978261	0.443144	-0.023116
C41	C	0.887936	0.469088	-0.082631
C42	C	0.893520	0.398262	-0.078970
C43	C	0.989426	0.301493	-0.015790
C44	C	1.079760	0.275549	0.043727
C45	C	1.074179	0.346375	0.040062
C46	C	1.016106	0.083092	0.001746
C47	C	1.021678	0.012266	0.005408
C48	C	0.835439	0.134984	-0.117290
C49	C	0.829863	0.205805	-0.120947
C50	C	0.920200	0.179856	-0.061432
N51	N	0.995134	0.229096	-0.012045
N52	N	0.914495	0.252252	-0.065181
C53	C	0.650919	0.740665	-0.038600
C54	C	0.547783	0.740661	-0.038595
C55	C	0.484765	0.635852	0.016288
C56	C	0.592120	0.635781	0.016575
C57	C	0.471834	0.792725	-0.005065
C58	C	0.365054	0.792059	-0.004673
C59	C	0.354145	0.794220	-0.127131
C60	C	0.462983	0.792244	-0.126888
C61	C	1.258695	0.740689	-0.038623
C62	C	1.361831	0.740693	-0.038627
C63	C	0.939030	0.740680	-0.249200
C64	C	0.933675	0.740682	-0.320671
C65	C	0.937296	0.962817	-0.050180
C66	C	0.931353	1.038210	-0.054107
C67	C	1.015078	0.740686	-0.354252
C68	C	1.010051	0.740679	-0.421403
C69	C	0.923614	0.740674	-0.454975
C70	C	0.842208	0.740666	-0.421388
C71	C	0.847242	0.740666	-0.354235
C72	C	0.899566	0.740665	-0.655811
C73	C	0.894536	0.740668	-0.722971
C74	C	1.062381	0.740679	-0.722980
C75	C	1.067402	0.740685	-0.655828
C76	C	0.986000	0.740673	-0.622244
N77	N	0.918471	0.740669	-0.523616
N78	N	0.991150	0.740670	-0.553602
C79	C	0.970584	0.740674	0.171977
C80	C	0.975939	0.740673	0.243448
C81	C	1.276205	0.518549	-0.027054
C82	C	1.385285	0.443161	-0.023132
C83	C	0.988095	0.518533	0.183546
C84	C	0.999392	0.443140	0.258944
C85	C	1.291982	0.518546	0.183534
C86	C	1.406417	0.443156	0.258928
C87	C	0.617632	0.962809	-0.260757
C88	C	0.503198	1.038198	-0.336151
C89	C	0.633409	0.962805	-0.050168
C90	C	0.524329	1.038194	-0.054091
C91	C	0.921519	0.962821	-0.260769
C92	C	0.910222	1.038214	-0.336167
C93	C	1.374088	0.407756	-0.062416
C94	C	1.476569	0.336930	-0.058747
C95	C	1.590246	0.301506	-0.015788
C96	C	1.601440	0.336918	0.023497
C97	C	1.498959	0.407747	0.019822
C98	C	1.067119	0.407736	0.335478
C99	C	1.077730	0.336906	0.406328
C100	C	1.020620	0.301476	0.400643
C101	C	0.952884	0.336886	0.324101
C102	C	0.942268	0.407720	0.253252
C103	C	1.516426	0.407755	0.253210
C104	C	1.623957	0.336929	0.324044
C105	C	1.621477	0.301500	0.400595
C106	C	1.511455	0.336907	0.406311
C107	C	1.403927	0.407737	0.335478
C108	C	0.393188	1.073607	-0.330433
C109	C	0.285655	1.144456	-0.401268
C110	C	0.288135	1.179889	-0.477819
C111	C	0.398156	1.144477	-0.483535
C112	C	0.505686	1.073634	-0.412701
C113	C	0.535524	1.073606	-0.014814
C114	C	0.433041	1.144451	-0.018503
C115	C	0.319364	1.179877	-0.061464
C116	C	0.308171	1.144462	-0.100746
C117	C	0.410652	1.073623	-0.097061
C118	C	0.967347	1.073622	-0.330455
C119	C	0.956755	1.144453	-0.401293
C120	C	0.889031	1.179880	-0.477841
C121	C	0.831904	1.144465	-0.483551
C122	C	0.842503	1.073631	-0.412714
H123	H	0.751781	0.284597	-0.172405
C124	C	1.519183	0.446720	0.169010
N125	N	1.521269	0.476068	0.105592
C126	C	1.744967	0.297985	0.317738
N127	N	1.836109	0.268652	0.312986
H128	H	1.467432	0.308107	-0.090738
H129	H	0.819967	0.419395	-0.127432
H130	H	0.771834	0.740656	-0.448724
C131	C	0.799449	0.740658	-0.759897
N132	N	0.727832	0.740651	-0.787710
H133	H	0.401521	1.044793	-0.129043
C134	C	1.162495	0.740684	-0.618900
N135	N	1.234119	0.740684	-0.591086
H136	H	0.215601	1.173318	-0.135724
C137	C	0.757459	1.183411	-0.567760
N138	N	0.701401	1.212738	-0.631189
C139	C	1.129944	0.446701	0.341751
N140	N	1.177262	0.476050	0.346483
C141	C	1.508748	0.297917	0.490526
N142	N	1.506713	0.268541	0.553959
H143	H	0.780957	0.740661	-0.326893
C144	C	1.702967	0.223585	-0.011748
N145	N	1.787866	0.164892	-0.008704
C146	C	0.390430	1.034650	-0.246234
N147	N	0.388343	1.005317	-0.182817
H148	H	0.833283	0.740657	-0.628474
H149	H	0.653970	0.594553	0.081961
C150	C	1.099628	0.740650	-0.458321
N151	N	1.167112	0.740615	-0.486120
H152	H	0.435956	0.869839	-0.043365
H153	H	1.132890	0.308082	0.468645
H154	H	0.196083	1.173276	-0.396598
H155	H	1.029274	0.243798	0.458339
H156	H	0.795979	1.044810	-0.417376
H157	H	1.281535	0.436597	-0.097408
H158	H	0.515369	0.754283	-0.151986
C159	C	0.236509	0.898559	-0.182579
N160	N	0.147903	0.977144	-0.224335
H161	H	0.887122	0.436537	0.190938
C162	C	0.416319	0.895614	-0.186240
N163	N	0.381174	0.973475	-0.230942
C164	C	1.726497	0.297934	0.070756
N165	N	1.820694	0.268563	0.106357
H166	H	0.200568	1.237573	-0.535490
C167	C	0.247295	0.895973	-0.055592
N168	N	0.158605	0.974240	-0.093937
C169	C	0.400864	1.183455	-0.567750
N170	N	0.402901	1.212809	-0.631182
C171	C	0.445382	1.183387	0.024720
N172	N	0.454680	1.212709	0.057278
H173	H	1.508093	0.436565	0.051818
H174	H	0.906389	0.308029	0.319484
H175	H	1.003275	1.173280	-0.396628
C176	C	0.626694	1.034681	-0.419004
N177	N	0.717836	1.005343	-0.423757
C178	C	0.660559	1.034654	0.032445
N179	N	0.754732	1.005325	0.068038
C180	C	0.736082	0.163518	-0.182757
N181	N	0.661245	0.185013	-0.232072
C182	C	1.041860	1.034661	-0.246258
N183	N	1.097993	1.005314	-0.182843
H184	H	1.709042	0.243825	0.458265
C185	C	0.206642	1.257798	-0.065505
N186	N	0.121745	1.316486	-0.068542
H187	H	0.880409	1.237558	-0.535515
H188	H	0.809827	0.547880	-0.134070
H189	H	1.099779	-0.066532	0.056860
H190	H	1.089665	0.061951	0.050207
H191	H	1.157853	0.196753	0.095166
H192	H	0.530968	0.756561	0.059298
C193	C	1.151926	0.740682	-0.759921
N194	N	1.219380	0.740678	-0.787743
H195	H	0.647781	0.594947	-0.005619
C196	C	1.173542	0.317831	0.105534
N197	N	1.248387	0.296329	0.154849
H198	H	0.488531	0.594702	-0.005753
C199	C	0.497122	0.580665	0.104162
N200	N	0.506512	0.539150	0.170379
H201	H	0.372966	0.755058	0.060329
H202	H	0.350401	0.760672	-0.155661
H203	H	1.085459	0.740697	-0.326925
H204	H	1.314358	0.436551	0.340145
