data_functionalizedCrystal
_audit_creation_method	'MofGen! by Chris Wilmer'
_symmetry_space_group_name_H-M	'P1'
_symmetry_Int_Tables_number	1
_symmetry_cell_setting	triclinic
loop_
_symmetry_equiv_pos_as_xyz
  x,y,z
_cell_length_a	15.944551
_cell_length_b	15.944551
_cell_length_c	13.101039
_cell_angle_alpha	93.361595
_cell_angle_beta	86.646591
_cell_angle_gamma	83.498738
loop_
_atom_site_label
_atom_site_type_symbol
_atom_site_fract_x
_atom_site_fract_y
_atom_site_fract_z
O1	O	1.119139	0.103702	-0.085109
O2	O	0.874591	0.117057	-0.085135
O3	O	1.003542	-0.011895	-0.085112
O4	O	0.990187	0.232654	-0.085132
O5	O	0.994290	-0.002627	0.085316
O6	O	0.865339	0.126324	0.085293
O7	O	1.109887	0.112969	0.085319
Zn8	Zn	0.986144	0.121118	0.112365
Zn9	Zn	0.998334	0.108908	-0.112181
O10	O	0.980935	0.241921	0.085296
C11	C	0.838671	0.121136	0.000076
C12	C	0.745425	0.119473	0.000066
C13	C	0.998362	-0.038555	0.000102
C14	C	0.996700	-0.131801	0.000102
C15	C	0.530567	0.035570	0.000093
C16	C	0.474109	0.069963	-0.083940
C17	C	0.574699	0.116467	0.000079
C18	C	0.465009	0.079119	0.084088
C19	C	0.409785	0.113557	0.000095
C20	C	0.519473	0.150878	-0.084024
C21	C	0.510375	0.160027	0.084080
C22	C	0.453936	0.194477	0.000026
C23	C	0.669702	0.118140	0.000068
C24	C	0.314784	0.111889	0.000098
C25	C	0.912796	-0.346659	0.000079
C26	C	0.947197	-0.403107	0.084115
C27	C	0.993693	-0.302527	0.000094
C28	C	0.956338	-0.412227	-0.083914
C29	C	0.990783	-0.467441	0.000082
C30	C	1.028112	-0.357743	0.084199
C31	C	1.037245	-0.366861	-0.083905
C32	C	1.071703	-0.423290	0.000151
C33	C	0.995367	-0.207525	0.000102
C34	C	0.989114	-0.562442	0.000081
C35	C	1.145807	0.108890	0.000106
C36	C	1.239053	0.110553	0.000108
C37	C	0.986116	0.268581	0.000080
C38	C	0.987778	0.361827	0.000072
N39	N	0.977830	0.129451	0.265612
N40	N	1.006654	0.100569	-0.265428
C41	C	0.966520	0.140796	0.474653
C42	C	1.017962	0.089227	0.525538
C43	C	1.011668	0.095539	0.641855
C44	C	0.972812	0.134484	0.358325
H45	H	0.563905	-0.031573	-0.000006
C46	C	1.083854	0.023188	0.466377
N47	N	1.133486	-0.026547	0.421813
C48	C	0.900641	0.206838	0.533813
N49	N	0.851021	0.256582	0.578384
C50	C	0.452144	0.018519	-0.179906
N51	N	0.435601	-0.020234	-0.252183
C52	C	0.409136	0.285264	-0.000045
N53	N	0.375390	0.353643	-0.000105
C54	C	0.551689	0.191835	-0.180112
N55	N	0.575958	0.222680	-0.252486
H56	H	0.526650	0.198078	0.155122
C57	C	0.432665	0.038095	0.180064
N58	N	0.408307	0.007190	0.252348
H59	H	0.845644	-0.313347	0.000156
H60	H	0.909124	-0.419352	0.155153
H61	H	1.138907	-0.456446	0.000205
C62	C	1.069078	-0.325514	0.180287
N63	N	1.099929	-0.301237	0.252662
H64	H	1.075289	-0.350594	-0.154947
C65	C	0.915306	-0.444581	-0.179891
N66	N	0.884395	-0.468946	-0.252178
