data_functionalizedCrystal
_audit_creation_method	'MofGen! by Chris Wilmer'
_symmetry_space_group_name_H-M	'P1'
_symmetry_Int_Tables_number	1
_symmetry_cell_setting	triclinic
loop_
_symmetry_equiv_pos_as_xyz
  x,y,z
_cell_length_a	12.837943
_cell_length_b	12.811415
_cell_length_c	16.176319
_cell_angle_alpha	84.562354
_cell_angle_beta	89.993965
_cell_angle_gamma	89.411917
loop_
_atom_site_label
_atom_site_type_symbol
_atom_site_fract_x
_atom_site_fract_y
_atom_site_fract_z
O1	O	1.376637	0.272982	-0.089194
O2	O	1.074774	0.259497	-0.088188
O3	O	1.233299	0.114206	-0.077290
O4	O	1.218112	0.418273	-0.100093
O5	O	1.233277	0.114193	0.060205
O6	O	1.074752	0.259485	0.049306
O7	O	1.376616	0.272969	0.048300
Cu8	Cu	1.225682	0.266226	0.061357
Cu9	Cu	1.225708	0.266241	-0.101245
O10	O	1.218090	0.418261	0.037401
C11	C	1.036122	0.254936	-0.019100
C12	C	0.920987	0.241349	-0.018084
C13	C	1.232436	0.075010	-0.005605
C14	C	1.229887	-0.041764	0.003147
C15	C	0.680734	0.404680	-0.030321
C16	C	0.572553	0.391920	-0.029365
C17	C	0.596442	0.203069	-0.015211
C18	C	0.704623	0.215829	-0.016167
C19	C	0.746764	0.316638	-0.023723
C20	C	0.854948	0.329398	-0.024684
C21	C	0.878834	0.140548	-0.010524
C22	C	0.770653	0.127787	-0.009569
C23	C	1.225101	-0.261170	-0.130321
C24	C	1.222705	-0.370890	-0.122102
C25	C	1.222692	-0.370923	0.027804
C26	C	1.225088	-0.261204	0.019584
C27	C	1.226294	-0.206331	-0.059480
C28	C	1.228697	-0.096610	-0.067699
C29	C	1.228676	-0.096646	0.082205
C30	C	1.226281	-0.206365	0.090425
C31	C	1.415267	0.277531	-0.020790
C32	C	1.530403	0.291117	-0.021812
C33	C	1.218953	0.457456	-0.034285
C34	C	1.221503	0.574230	-0.043042
N35	N	1.225671	0.266216	0.175723
N36	N	1.225726	0.266243	-0.215611
C37	C	1.295887	0.201912	0.223811
C38	C	1.295892	0.201911	0.310358
C39	C	1.225686	0.266221	0.348816
C40	C	1.155462	0.330527	0.300722
C41	C	1.155452	0.330521	0.214176
C42	C	1.155497	0.330550	0.649748
C43	C	1.155514	0.330553	0.736299
C44	C	1.295937	0.201940	0.745930
C45	C	1.295928	0.201935	0.659385
C46	C	1.225701	0.266236	0.611299
C47	C	1.225695	0.266235	0.517455
C48	C	1.225696	0.266229	0.442658
H49	H	0.715046	0.486763	-0.036474
H50	H	1.098318	0.382909	0.610603
C51	C	1.140377	-0.060007	0.207249
C52	C	1.229996	-0.036372	0.160085
H53	H	1.141203	-0.022802	0.255329
H54	H	1.080377	-0.040041	0.174967
H55	H	1.138783	-0.133209	0.223447
H56	H	1.231586	0.036829	0.143881
H57	H	1.290011	-0.056332	0.192372
H58	H	1.226092	-0.216493	-0.194698
H59	H	1.098340	0.382923	0.767609
H60	H	1.221702	-0.415619	0.092174
C61	C	1.317573	0.061100	0.572803
C62	C	1.373004	0.131050	0.617208
H63	H	1.365130	0.017283	0.546792
H64	H	1.274156	0.019171	0.609779
H65	H	1.275852	0.099409	0.531715
H66	H	1.414720	0.092740	0.658301
H67	H	1.416439	0.172983	0.580229
H68	H	0.562110	0.120994	-0.008991
C69	C	1.132923	-0.401747	-0.247547
C70	C	1.221386	-0.431174	-0.199969
H71	H	1.132109	-0.438962	-0.295622
H72	H	1.072139	-0.417773	-0.215543
H73	H	1.134536	-0.328548	-0.263754
H74	H	1.219769	-0.504372	-0.183756
H75	H	1.282185	-0.415156	-0.231979
C76	C	0.805133	-0.057602	0.004320
C77	C	0.724326	0.016981	-0.001267
H78	H	0.776531	-0.126009	0.009448
H79	H	0.846833	-0.048684	-0.044292
H80	H	0.846826	-0.048701	0.051604
H81	H	0.682637	0.008086	-0.048554
H82	H	0.682607	0.008060	0.047350
H83	H	1.353062	0.149549	0.192505
C84	C	1.320414	0.023921	-0.163706
C85	C	1.230001	-0.036282	-0.154601
H86	H	1.321212	0.061161	-0.217358
H87	H	1.321468	0.072276	-0.122693
H88	H	1.379882	-0.020849	-0.157254
H89	H	1.170533	0.008490	-0.161048
H90	H	1.228938	-0.084642	-0.195626
H91	H	1.225295	-0.251057	0.154797
C92	C	1.093130	0.387654	0.429110
C93	C	1.078290	0.401221	0.342992
H94	H	1.045492	0.431306	0.455202
H95	H	1.081566	0.316449	0.448640
H96	H	1.162394	0.406024	0.441893
H97	H	1.009028	0.382843	0.330209
H98	H	1.089846	0.472441	0.323455
H99	H	0.932609	0.068857	-0.005158
H100	H	1.353067	0.149550	0.349511
C101	C	1.016656	0.457664	0.213343
C102	C	1.078273	0.401211	0.161314
H103	H	0.969010	0.501308	0.180707
H104	H	0.979172	0.410204	0.250667
H105	H	1.059998	0.499780	0.243932
H106	H	1.034931	0.359089	0.130731
H107	H	1.115759	0.448677	0.123976
H108	H	0.889257	0.411482	-0.030835
H109	H	0.518794	0.463613	-0.034735
H110	H	1.353117	0.149578	0.785091
