data_functionalizedCrystal
_audit_creation_method	'MofGen! by Chris Wilmer'
_symmetry_space_group_name_H-M	'P1'
_symmetry_Int_Tables_number	1
_symmetry_cell_setting	triclinic
loop_
_symmetry_equiv_pos_as_xyz
  x,y,z
_cell_length_a	15.944551
_cell_length_b	10.654550
_cell_length_c	9.730223
_cell_angle_alpha	90.003749
_cell_angle_beta	89.997716
_cell_angle_gamma	96.008180
loop_
_atom_site_label
_atom_site_type_symbol
_atom_site_fract_x
_atom_site_fract_y
_atom_site_fract_z
O1	O	0.117973	-1.666308	-0.114406
O2	O	0.129213	-1.300684	-0.114384
O3	O	0.001376	-1.493480	-0.114384
O4	O	0.245810	-1.473511	-0.114407
O5	O	0.001379	-1.493478	0.114196
O6	O	0.129216	-1.300681	0.114196
O7	O	0.117976	-1.666305	0.114174
Zn8	Zn	0.123597	-1.483493	0.150477
Zn9	Zn	0.123592	-1.483496	-0.150687
O10	O	0.245813	-1.473509	0.114173
C11	C	0.128389	-1.253895	-0.000092
C12	C	0.125920	-1.114484	-0.000083
C13	C	-0.029921	-1.492650	-0.000093
C14	C	-0.123182	-1.490165	-0.000092
C15	C	0.118800	-1.713094	-0.000122
C16	C	0.121269	-1.852505	-0.000140
C17	C	-0.338765	-1.364720	-0.000104
C18	C	-0.399443	-1.422971	0.112596
C19	C	-0.293934	-1.485668	-0.000103
C20	C	-0.399430	-1.423002	-0.112765
C21	C	-0.458872	-1.481317	-0.000119
C22	C	-0.353384	-1.543953	0.112691
C23	C	-0.353364	-1.543967	-0.112772
C24	C	-0.414024	-1.602306	-0.000045
C25	C	-0.198917	-1.488172	-0.000092
C26	C	-0.553887	-1.478822	-0.000119
C27	C	0.277110	-1.474339	-0.000120
C28	C	0.370371	-1.476824	-0.000130
N29	N	0.123599	-1.483500	0.356013
C30	C	0.201188	-1.034024	-0.000110
C31	C	0.198863	-0.903034	-0.000134
C32	C	0.045995	-0.932975	-0.000108
C33	C	0.048321	-1.063963	-0.000075
C34	C	0.278788	-1.084545	-0.000118
C35	C	0.354062	-1.004084	-0.000147
C36	C	0.351737	-0.873094	-0.000170
C37	C	0.274137	-0.822564	-0.000165
N38	N	0.123583	-1.483499	-0.356224
C39	C	0.067012	-1.568892	0.427939
C40	C	0.067002	-1.568889	0.571822
C41	C	0.180173	-1.398098	0.571840
C42	C	0.180178	-1.398096	0.427959
C43	C	0.010433	-1.654296	0.355993
C44	C	-0.046158	-1.739696	0.427920
C45	C	-0.046168	-1.739693	0.571803
C46	C	0.010412	-1.654290	0.643759
H47	H	-0.306038	-1.264327	0.000015
H48	H	-0.092229	-1.809222	0.369325
H49	H	0.272250	-0.715901	-0.000163
H50	H	-0.419846	-1.371814	0.207881
H51	H	-0.446602	-1.702787	0.000013
H52	H	0.010393	-1.654286	0.760918
H53	H	0.226256	-1.328561	0.369396
H54	H	-0.333096	-1.595065	0.208074
H55	H	-0.092252	-1.809220	0.630364
H56	H	0.417241	-1.045235	-0.000140
H57	H	0.413029	-0.807585	-0.000180
H58	H	-0.012970	-1.129476	-0.000056
H59	H	-0.332939	-1.595080	-0.208062
H60	H	0.010437	-1.654309	0.238836
H61	H	0.226239	-1.328567	0.630436
H62	H	0.280689	-1.191203	-0.000105
H63	H	-0.419804	-1.371831	-0.208051
H64	H	-0.017184	-0.891822	-0.000127
