data_functionalizedCrystal
_audit_creation_method	'MofGen! by Chris Wilmer'
_symmetry_space_group_name_H-M	'P1'
_symmetry_Int_Tables_number	1
_symmetry_cell_setting	triclinic
loop_
_symmetry_equiv_pos_as_xyz
  x,y,z
_cell_length_a	14.908795
_cell_length_b	29.839131
_cell_length_c	14.908308
_cell_angle_alpha	93.253999
_cell_angle_beta	89.788666
_cell_angle_gamma	93.324927
loop_
_atom_site_label
_atom_site_type_symbol
_atom_site_fract_x
_atom_site_fract_y
_atom_site_fract_z
Zn1	Zn	1.345235	-0.157137	-0.587763
Zn2	Zn	1.353781	-0.227703	-0.437373
Zn3	Zn	1.203549	-0.156651	-0.428735
Zn4	Zn	1.194802	-0.236305	-0.578991
O5	O	1.274342	-0.194449	-0.508215
O6	O	1.472198	-0.163102	-0.575100
O7	O	1.341089	-0.214474	-0.310405
O8	O	1.222428	-0.093847	-0.449887
O9	O	1.478477	-0.214946	-0.464609
O10	O	1.326524	-0.094205	-0.566724
O11	O	1.230714	-0.162272	-0.304059
O12	O	1.076559	-0.170613	-0.441380
O13	O	1.207521	-0.229607	-0.705976
O14	O	1.070133	-0.229135	-0.551772
O15	O	1.318043	-0.171443	-0.712421
O16	O	1.332608	-0.291712	-0.456102
O17	O	1.215807	-0.298032	-0.560148
C18	C	1.040720	-0.200755	-0.494687
C19	C	0.940775	-0.203464	-0.488921
C20	C	0.803181	-0.234225	-0.423179
C21	C	0.897089	-0.231681	-0.428596
C22	C	0.890546	-0.177788	-0.543831
C23	C	0.796638	-0.180332	-0.538414
C24	C	0.752959	-0.208552	-0.478087
C25	C	0.659049	-0.211097	-0.472674
C26	C	0.652507	-0.157202	-0.587905
C27	C	0.746415	-0.154659	-0.593322
C28	C	1.274209	-0.311173	-0.508132
C29	C	1.274233	-0.361107	-0.508131
C30	C	1.328528	-0.670904	-0.569134
C31	C	1.328622	-0.858576	-0.569194
O32	O	1.374654	-0.882973	-0.620997
N33	N	1.274489	-0.881890	-0.508324
C34	C	1.220324	-0.858284	-0.447439
O35	O	1.174275	-0.882421	-0.395673
C36	C	1.220225	-0.670613	-0.447384
C37	C	1.274369	-0.647301	-0.508252
C38	C	1.382666	-0.647591	-0.629997
C39	C	1.382645	-0.600676	-0.629979
C40	C	1.328487	-0.577073	-0.569096
C41	C	1.274348	-0.600385	-0.508233
C42	C	1.166056	-0.647008	-0.386504
C43	C	1.166034	-0.600087	-0.386498
C44	C	1.220178	-0.576775	-0.447365
C45	C	1.220169	-0.529867	-0.447332
N46	N	1.274302	-0.506552	-0.508202
C47	C	1.328461	-0.530155	-0.569084
C48	C	1.220381	-0.956814	-0.447471
C49	C	1.220406	-1.003731	-0.447483
C50	C	1.328704	-1.004020	-0.569239
C51	C	1.328682	-0.957101	-0.569222
C52	C	1.274514	-0.933499	-0.508341
C53	C	1.328414	-0.431630	-0.569039
C54	C	1.328392	-0.384710	-0.569013
C55	C	1.220091	-0.384425	-0.447260
C56	C	1.220117	-0.431341	-0.447283
C57	C	1.274281	-0.454942	-0.508180
O58	O	1.174153	-0.505441	-0.395563
O59	O	1.374487	-0.506011	-0.620855
C60	C	1.328548	-0.717819	-0.569153
C61	C	1.274410	-0.741131	-0.508290
C62	C	1.220251	-0.717528	-0.447407
C63	C	1.274435	-0.788049	-0.508302
C64	C	1.328594	-0.811652	-0.569184
C65	C	1.382727	-0.788338	-0.630054
C66	C	1.382707	-0.741422	-0.630035
C67	C	1.166118	-0.740843	-0.386538
C68	C	1.166143	-0.787758	-0.386561
C69	C	1.220302	-0.811361	-0.447443
C70	C	1.508876	-0.188119	-0.521797
C71	C	1.608820	-0.185421	-0.527585
C72	C	1.260853	-0.201539	-0.742735
C73	C	1.255105	-0.204560	-0.842673
C74	C	1.274498	-0.077269	-0.508321
C75	C	1.274565	-0.027334	-0.508365
C76	C	1.359388	-0.149660	-1.037181
C77	C	1.353990	-0.152497	-1.131082
C78	C	1.238907	-0.213069	-1.124378
C79	C	1.244305	-0.210232	-1.030477
C80	C	1.304548	-0.178527	-0.986882
C81	C	1.309950	-0.175692	-0.892979
C82	C	1.194863	-0.236261	-0.886277
C83	C	1.189465	-0.239098	-0.980178
C84	C	1.287830	-0.187353	-0.274611
C85	C	1.293752	-0.184201	-0.174684
H86	H	1.372485	-0.365730	-0.618579
H87	H	1.140415	-0.264910	-1.015685
Cl88	Cl	1.163173	-0.252919	-1.179198
H89	H	1.408445	-0.123847	-1.001685
Cl90	Cl	1.152009	-0.354744	-0.370727
H91	H	1.122014	-0.721629	-0.336961
H92	H	1.176036	-0.450322	-0.397713
Cl93	Cl	1.422933	-0.116206	-1.194313
H94	H	0.926125	-0.154810	-0.592942
H95	H	1.150211	-0.259768	-0.845313
H96	H	1.176269	-0.937600	-0.397892
Cl97	Cl	0.604139	-0.246575	-0.396840
H98	H	0.767617	-0.257206	-0.374065
H99	H	0.937977	-0.252586	-0.383884
H100	H	0.781992	-0.131682	-0.642436
H101	H	0.611606	-0.136298	-0.632616
Cl102	Cl	1.097981	-0.676303	-0.309983
Cl103	Cl	1.396510	-0.461292	-0.645594
H104	H	1.372770	-0.938123	-0.618786
H105	H	1.426731	-0.581698	-0.679545
H106	H	1.359005	-0.149877	-0.857486
H107	H	1.372803	-1.023245	-0.618811
Cl108	Cl	1.450758	-0.677256	-0.706548
Cl109	Cl	1.152350	-1.033031	-0.370949
H110	H	1.121921	-0.580873	-0.336921
H111	H	1.426829	-0.807563	-0.679623
Cl112	Cl	1.450775	-0.712122	-0.706560
H113	H	1.122055	-0.806735	-0.336987
