data_functionalizedCrystal
_audit_creation_method	'MofGen! by Chris Wilmer'
_symmetry_space_group_name_H-M	'P1'
_symmetry_Int_Tables_number	1
_symmetry_cell_setting	triclinic
loop_
_symmetry_equiv_pos_as_xyz
  x,y,z
_cell_length_a	12.594517
_cell_length_b	12.759394
_cell_length_c	12.759387
_cell_angle_alpha	89.968340
_cell_angle_beta	90.023209
_cell_angle_gamma	89.985363
loop_
_atom_site_label
_atom_site_type_symbol
_atom_site_fract_x
_atom_site_fract_y
_atom_site_fract_z
Zn1	Zn	1.627296	0.418217	0.594074
Zn2	Zn	1.627184	0.593934	0.418392
Zn3	Zn	1.449294	0.418269	0.418403
Zn4	Zn	1.449286	0.593854	0.594023
O5	O	1.538265	0.506068	0.506223
O6	O	1.776227	0.441538	0.570787
O7	O	1.603544	0.570687	0.271373
O8	O	1.472956	0.271241	0.441732
O9	O	1.776145	0.570636	0.441714
O10	O	1.603733	0.271202	0.570797
O11	O	1.472848	0.441626	0.271380
O12	O	1.300347	0.441549	0.441682
O13	O	1.472942	0.570500	0.741051
O14	O	1.300341	0.570550	0.570710
O15	O	1.603725	0.441460	0.741089
O16	O	1.603536	0.740944	0.441664
O17	O	1.472834	0.740885	0.570699
C18	C	1.538201	0.779036	0.506198
C19	C	1.538271	0.895812	0.506222
C20	C	1.261724	0.506047	0.506192
C21	C	1.143418	0.506063	0.506204
C22	C	1.538345	0.505965	0.780257
C23	C	1.538380	0.505921	0.897034
C24	C	1.074138	0.435804	0.436160
C25	C	1.003328	0.531639	0.410316
C26	C	1.003429	0.410275	0.532065
C27	C	1.074167	0.601949	0.480310
C28	C	1.074274	0.480521	0.602104
C29	C	1.003497	0.576422	0.576297
C30	C	1.815886	0.506090	0.506255
C31	C	1.934191	0.506099	0.506268
C32	C	1.538358	0.232035	0.506272
C33	C	1.538398	0.115258	0.506292
C34	C	1.674473	0.895820	0.371958
C35	C	1.742601	0.950685	0.304839
C36	C	1.742664	1.060406	0.304867
C37	C	1.674592	1.115266	0.372025
C38	C	1.606464	1.060401	0.439144
C39	C	1.606407	0.950677	0.439106
C40	C	1.470269	1.060393	0.573412
C41	C	1.470200	0.950672	0.573380
C42	C	1.402198	1.115253	0.640569
C43	C	1.334062	1.060388	0.707685
C44	C	1.334002	0.950660	0.707653
C45	C	1.402071	0.895807	0.640499
C46	C	1.538246	0.506095	0.233256
C47	C	1.538418	0.505843	0.116480
C48	C	1.674573	0.371561	0.897093
C49	C	1.742685	0.304365	0.951983
C50	C	1.742711	0.304327	1.061705
C51	C	1.674616	0.371489	1.116539
C52	C	1.606504	0.438685	1.061648
C53	C	1.606488	0.438719	0.951924
C54	C	1.470306	0.573039	1.061589
C55	C	1.470284	0.573084	0.951867
C56	C	1.402211	0.640201	1.116423
C57	C	1.334103	0.707404	1.061533
C58	C	1.334080	0.707440	0.951804
C59	C	1.402172	0.640280	0.896977
H60	H	1.105155	0.376445	0.376853
H61	H	1.278528	0.905995	0.762314
H62	H	0.972674	0.635922	0.635558
H63	H	1.402022	0.806466	0.640460
H64	H	1.674569	0.371595	0.807752
H65	H	1.402258	1.204594	0.640592
H66	H	0.972167	0.553266	0.329243
H67	H	1.798125	0.249681	0.907325
H68	H	1.402165	0.640307	0.807636
H69	H	1.278649	1.105063	0.762364
H70	H	1.798167	0.249604	1.106396
H71	H	1.105461	0.458864	0.683153
H72	H	1.105109	0.682995	0.458374
H73	H	1.402233	0.640161	1.205764
H74	H	0.972301	0.329264	0.553876
H75	H	1.674634	0.371443	1.205880
H76	H	1.674415	0.806479	0.371915
H77	H	1.798027	0.906009	0.250162
H78	H	1.798145	1.105077	0.250218
H79	H	1.278659	0.762077	1.106187
H80	H	1.278604	0.762148	0.907119
H81	H	1.674659	1.204607	0.372051
