data_functionalizedCrystal
_audit_creation_method	'MofGen! by Chris Wilmer'
_symmetry_space_group_name_H-M	'P1'
_symmetry_Int_Tables_number	1
_symmetry_cell_setting	triclinic
loop_
_symmetry_equiv_pos_as_xyz
  x,y,z
_cell_length_a	15.995292
_cell_length_b	15.995292
_cell_length_c	10.868271
_cell_angle_alpha	89.998057
_cell_angle_beta	89.994509
_cell_angle_gamma	83.468616
loop_
_atom_site_label
_atom_site_type_symbol
_atom_site_fract_x
_atom_site_fract_y
_atom_site_fract_z
O1	O	1.110993	0.107698	-0.102347
O2	O	1.444326	0.441032	0.230987
O3	O	1.777660	0.774365	0.564320
O4	O	0.867208	0.121077	-0.102341
O5	O	1.200542	0.454410	0.230993
O6	O	1.533875	0.787744	0.564326
O7	O	0.995790	-0.007505	-0.102346
O8	O	1.329123	0.325829	0.230988
O9	O	1.662457	0.659162	0.564321
O10	O	0.982411	0.236280	-0.102342
O11	O	1.315745	0.569613	0.230992
O12	O	1.649078	0.902947	0.564325
O13	O	0.995780	-0.007510	0.102299
O14	O	1.329113	0.325824	0.435632
O15	O	1.662446	0.659157	0.768966
O16	O	0.867198	0.121072	0.102304
O17	O	1.200531	0.454405	0.435637
O18	O	1.533865	0.787739	0.768971
O19	O	1.110983	0.107693	0.102298
O20	O	1.444316	0.441027	0.435631
O21	O	1.777649	0.774360	0.768965
Zn22	Zn	0.989089	0.114382	0.134793
Zn23	Zn	1.322422	0.447715	0.468126
Zn24	Zn	1.655755	0.781048	0.801459
Zn25	Zn	0.989102	0.114388	-0.134836
Zn26	Zn	1.322436	0.447722	0.198498
Zn27	Zn	1.655769	0.781055	0.531831
O28	O	0.982401	0.236275	0.102303
O29	O	1.315734	0.569608	0.435636
O30	O	1.649068	0.902942	0.768970
C31	C	0.836008	0.120530	-0.000018
C32	C	1.169341	0.453863	0.333315
C33	C	1.502674	0.787197	0.666649
C34	C	0.743055	0.118898	-0.000016
C35	C	1.076388	0.452231	0.333317
C36	C	1.409722	0.785564	0.666651
C37	C	0.405318	0.112896	-0.000030
C38	C	0.738651	0.446229	0.333303
C39	C	1.071985	0.779563	0.666637
C40	C	0.428611	0.205703	-0.000485
C41	C	0.761944	0.539036	0.332848
C42	C	1.095278	0.872370	0.666181
C43	C	0.525286	0.207467	-0.000019
C44	C	0.858619	0.540800	0.333315
C45	C	1.191953	0.874134	0.666648
C46	C	0.572873	0.115874	-0.000024
C47	C	0.906207	0.449207	0.333310
C48	C	1.239540	0.782541	0.666643
C49	C	0.543775	0.069472	0.116834
C50	C	0.877108	0.402806	0.450167
C51	C	1.210442	0.736139	0.783500
C52	C	0.446985	0.068355	0.116926
C53	C	0.780318	0.401688	0.450260
C54	C	1.113651	0.735022	0.783593
C55	C	0.447142	0.066465	-0.115793
C56	C	0.780475	0.399799	0.217540
C57	C	1.113808	0.733132	0.550873
C58	C	0.543634	0.069905	-0.117332
C59	C	0.876967	0.403238	0.216001
C60	C	1.210300	0.736571	0.549334
C61	C	0.667569	0.117552	-0.000016
C62	C	1.000902	0.450885	0.333317
C63	C	1.334236	0.784219	0.666651
C64	C	0.310622	0.111215	-0.000029
C65	C	0.643956	0.444549	0.333304
C66	C	0.977289	0.777882	0.666637
C67	C	0.995240	-0.038703	-0.000027
C68	C	1.328574	0.294631	0.333307
C69	C	1.661907	0.627964	0.666640
C70	C	0.993608	-0.131655	-0.000036
C71	C	1.326941	0.201678	0.333298
C72	C	1.660275	0.535011	0.666631
C73	C	0.987607	-0.469393	-0.000024
C74	C	1.320940	-0.136059	0.333309
C75	C	1.654273	0.197274	0.666642
C76	C	1.080413	-0.446100	0.000431
C77	C	1.413747	-0.112766	0.333764
C78	C	1.747080	0.220567	0.667097
C79	C	1.082177	-0.349424	-0.000035
C80	C	1.415511	-0.016091	0.333298
C81	C	1.748844	0.317242	0.666632
C82	C	0.990584	-0.301837	-0.000029
C83	C	1.323918	0.031496	0.333304
C84	C	1.657251	0.364829	0.666637
C85	C	0.944191	-0.330926	-0.116886
C86	C	1.277525	0.002408	0.216447
C87	C	1.610858	0.335741	0.549780
C88	C	0.943074	-0.427716	-0.116980
C89	C	1.276408	-0.094383	0.216353
C90	C	1.609741	0.238951	0.549687
C91	C	0.941167	-0.427578	0.115739
C92	C	1.274500	-0.094245	0.449073
C93	C	1.607834	0.239088	0.782406
C94	C	0.944606	-0.331087	0.117279
C95	C	1.277940	0.002247	0.450613
C96	C	1.611273	0.335580	0.783946
C97	C	0.992263	-0.207141	-0.000036
C98	C	1.325596	0.126192	0.333297
C99	C	1.658929	0.459525	0.666630
C100	C	0.985926	-0.564088	-0.000026
C101	C	1.319259	-0.230755	0.333308
C102	C	1.652592	0.102579	0.666641
C103	C	1.142183	0.108240	-0.000028
C104	C	1.475517	0.441574	0.333306
C105	C	1.808850	0.774907	0.666639
C106	C	1.235136	0.109873	-0.000038
C107	C	1.568469	0.443206	0.333296
C108	C	1.901803	0.776539	0.666629
C109	C	0.982951	0.267473	-0.000019
C110	C	1.316284	0.600806	0.333314
C111	C	1.649617	0.934140	0.666648
C112	C	0.984583	0.360426	-0.000018
C113	C	1.317916	0.693759	0.333315
C114	C	1.651250	1.027092	0.666649
N115	N	0.989085	0.114377	0.318807
N116	N	1.322419	0.447710	0.652140
N117	N	1.655752	0.781043	0.985473
N118	N	0.989112	0.114387	-0.318850
N119	N	1.322446	0.447720	0.014484
N120	N	1.655779	0.781053	0.347817
C121	C	0.989098	0.114387	0.569813
C122	C	1.322431	0.447720	0.903146
C123	C	1.655765	0.781053	1.236479
C124	C	0.989088	0.114384	0.430135
C125	C	1.322422	0.447717	0.763469
C126	C	1.655755	0.781050	1.096802
H127	H	0.399580	0.241274	0.082849
H128	H	0.732914	0.574608	0.416182
H129	H	1.066247	0.907941	0.749515
H130	H	1.118734	-0.331025	-0.083951
H131	H	1.452068	0.002308	0.249382
H132	H	1.785401	0.335641	0.582716
Cl133	Cl	1.135347	-0.490906	-0.128231
Cl134	Cl	1.468680	-0.157572	0.205102
Cl135	Cl	1.802013	0.175761	0.538435
H136	H	0.400612	0.241477	-0.084289
H137	H	0.733945	0.574810	0.249044
H138	H	1.067278	0.908144	0.582377
H139	H	0.420156	0.100487	0.204283
H140	H	0.753490	0.433820	0.537616
H141	H	1.086823	0.767154	0.870949
Cl142	Cl	1.135642	-0.489339	0.129818
Cl143	Cl	1.468975	-0.156005	0.463151
Cl144	Cl	1.802308	0.177328	0.796484
Cl145	Cl	0.838020	-0.450163	-0.125172
Cl146	Cl	1.171353	-0.116830	0.208161
Cl147	Cl	1.504686	0.216504	0.541495
H148	H	0.975213	-0.454537	-0.204337
H149	H	1.308546	-0.121204	0.128996
H150	H	1.641879	0.212130	0.462330
H151	H	0.876791	-0.299044	-0.121227
H152	H	1.210125	0.034289	0.212106
H153	H	1.543458	0.367623	0.545440
Cl154	Cl	0.993945	-0.299968	-0.251163
Cl155	Cl	1.327278	0.033365	0.082170
Cl156	Cl	1.660612	0.366698	0.415504
H157	H	0.562201	0.103690	-0.203783
H158	H	0.895534	0.437023	0.129551
H159	H	1.228867	0.770357	0.462884
H160	H	0.544309	0.243802	-0.083790
H161	H	0.877643	0.577135	0.249544
H162	H	1.210976	0.910469	0.582877
Cl163	Cl	0.594551	-0.033317	-0.128233
Cl164	Cl	0.927884	0.300016	0.205101
Cl165	Cl	1.261217	0.633350	0.538434
Cl166	Cl	0.425565	-0.039004	-0.117016
Cl167	Cl	0.758898	0.294330	0.216317
Cl168	Cl	1.092231	0.627663	0.549650
H169	H	0.970389	-0.455675	0.204317
H170	H	1.303723	-0.122342	0.537650
H171	H	1.637056	0.210991	0.870984
H172	H	0.575657	0.002072	0.121175
H173	H	0.908990	0.335405	0.454509
H174	H	1.242324	0.668739	0.787842
Cl175	Cl	0.574723	0.119215	0.251110
Cl176	Cl	0.908056	0.452548	0.584443
Cl177	Cl	1.241389	0.785881	0.917777
H178	H	0.872854	-0.441555	0.116531
H179	H	1.206187	-0.108221	0.449864
H180	H	1.539521	0.225112	0.783198
Cl181	Cl	1.138254	-0.320059	0.129312
Cl182	Cl	1.471587	0.013274	0.462645
Cl183	Cl	1.804921	0.346607	0.795978
H184	H	0.543677	0.244022	0.083893
H185	H	0.877011	0.577355	0.417226
H186	H	1.210344	0.910689	0.750560
H187	H	0.418813	0.095476	-0.204365
H188	H	0.752146	0.428809	0.128969
H189	H	1.085480	0.762142	0.462302
Cl190	Cl	0.996753	-0.302429	0.250756
Cl191	Cl	1.330087	0.030904	0.584090
Cl192	Cl	1.663420	0.364237	0.917423
Cl193	Cl	0.424537	-0.036698	0.125189
Cl194	Cl	0.757870	0.296636	0.458523
Cl195	Cl	1.091203	0.629969	0.791856
H196	H	0.877752	-0.298103	0.124341
H197	H	1.211085	0.035230	0.457674
H198	H	1.544419	0.368563	0.791008
