data_functionalizedCrystal
_audit_creation_method	'MofGen! by Chris Wilmer'
_symmetry_space_group_name_H-M	'P1'
_symmetry_Int_Tables_number	1
_symmetry_cell_setting	triclinic
loop_
_symmetry_equiv_pos_as_xyz
  x,y,z
_cell_length_a	17.699083
_cell_length_b	11.792254
_cell_length_c	16.776229
_cell_angle_alpha	89.993192
_cell_angle_beta	89.998886
_cell_angle_gamma	83.740806
loop_
_atom_site_label
_atom_site_type_symbol
_atom_site_fract_x
_atom_site_fract_y
_atom_site_fract_z
O1	O	1.004848	0.143526	-0.066177
O2	O	0.784570	0.162199	-0.066203
O3	O	0.900049	-0.012371	-0.066184
O4	O	0.889368	0.318096	-0.066196
O5	O	0.900034	-0.012382	0.066393
O6	O	0.784554	0.162188	0.066374
O7	O	1.004832	0.143515	0.066400
Zn8	Zn	0.894691	0.152850	0.087436
Zn9	Zn	0.894711	0.152864	-0.087239
O10	O	0.889353	0.318085	0.066380
C11	C	0.756361	0.161524	0.000082
C12	C	0.672332	0.159517	0.000072
C13	C	0.624261	0.261986	0.000069
C14	C	0.545307	0.260093	0.000079
C15	C	0.514427	0.155730	0.000087
C16	C	0.562505	0.053253	0.000093
C17	C	0.641457	0.055147	0.000089
C18	C	0.244101	0.045613	0.000113
C19	C	0.165143	0.043727	0.000116
C20	C	0.147951	0.250559	0.000104
C21	C	0.226903	0.252453	0.000099
C22	C	0.274974	0.149977	0.000109
C23	C	0.360584	0.152030	0.000099
C24	C	0.428818	0.153675	0.000091
C25	C	0.899369	-0.054659	0.000104
C26	C	0.897355	-0.180648	0.000103
C27	C	0.895718	-0.282965	0.000100
C28	C	0.893672	-0.411327	0.000093
C29	C	1.033041	0.144190	0.000113
C30	C	1.117070	0.146197	0.000118
C31	C	0.890033	0.360373	0.000091
C32	C	0.892047	0.486362	0.000086
N33	N	0.894682	0.152840	0.206647
N34	N	0.894725	0.152865	-0.206450
C35	C	0.945833	0.075572	0.248373
C36	C	0.945837	0.075571	0.331825
C37	C	0.894694	0.152844	0.373550
C38	C	0.843538	0.230116	0.331819
C39	C	0.843531	0.230110	0.248368
C40	C	0.843566	0.230138	0.668366
C41	C	0.843578	0.230140	0.751822
C42	C	0.945871	0.075598	0.751823
C43	C	0.945864	0.075593	0.668372
C44	C	0.894706	0.152860	0.626648
C45	C	0.894701	0.152859	0.536160
C46	C	0.894702	0.152852	0.464037
H47	H	0.680597	-0.028293	0.000091
C48	C	0.492432	0.372815	0.000075
C49	C	0.496190	0.458395	-0.068775
C50	C	0.443316	0.571123	-0.068776
C51	C	0.386683	0.598271	0.000074
C52	C	0.382922	0.512689	0.068930
C53	C	0.435796	0.399960	0.068931
H54	H	0.538115	0.438301	-0.119747
H55	H	0.446100	0.634477	-0.119748
H56	H	0.347543	0.681719	0.000074
H57	H	0.340997	0.532783	0.119902
H58	H	0.433012	0.336607	0.119903
H59	H	0.987512	0.012674	0.634402
H60	H	0.987525	0.012679	0.785804
H61	H	0.801878	0.293028	0.214396
C62	C	1.002092	-0.009432	0.202480
C63	C	1.058352	-0.094430	0.248382
C64	C	1.114612	-0.179440	0.202492
C65	C	1.114610	-0.179452	0.110699
C66	C	1.058348	-0.094451	0.064792
C67	C	1.002088	-0.009441	0.110682
H68	H	1.058355	-0.094424	0.316337
H69	H	1.156261	-0.242363	0.236476
H70	H	1.156257	-0.242381	0.076728
H71	H	1.058345	-0.094457	-0.003163
H72	H	0.960439	0.053482	0.076698
C73	C	0.787313	0.315139	0.797722
C74	C	0.787327	0.315145	0.889515
C75	C	0.731066	0.400140	0.935415
C76	C	0.674791	0.485128	0.889523
C77	C	0.674775	0.485125	0.797725
C78	C	0.731036	0.400131	0.751825
H79	H	0.828987	0.252229	0.923491
H80	H	0.731078	0.400142	1.003370
H81	H	0.633143	0.548047	0.923501
H82	H	0.633115	0.548042	0.763749
H83	H	0.731023	0.400129	0.683870
C84	C	0.787279	0.315120	0.377712
C85	C	0.787319	0.315189	0.469504
C86	C	0.731060	0.400199	0.515395
C87	C	0.674760	0.485139	0.469492
C88	C	0.674718	0.485073	0.377695
C89	C	0.730977	0.400063	0.331805
H90	H	0.828997	0.252309	0.503488
H91	H	0.731091	0.400248	0.583349
H92	H	0.633114	0.548069	0.503463
H93	H	0.633040	0.547953	0.343711
H94	H	0.730946	0.400015	0.263850
H95	H	0.649397	0.346971	0.000061
H96	H	0.252041	0.337436	0.000089
C97	C	0.095071	0.363287	0.000101
C98	C	0.098829	0.448865	-0.068751
C99	C	0.045952	0.561589	-0.068757
C100	C	-0.010685	0.588737	0.000090
C101	C	-0.014446	0.503157	0.068948
C102	C	0.038432	0.390432	0.068953
H103	H	0.140757	0.428771	-0.119720
H104	H	0.048736	0.624941	-0.119730
H105	H	-0.049828	0.672182	0.000086
H106	H	-0.056374	0.523251	0.119917
H107	H	0.035648	0.327081	0.119927
C108	C	0.296969	-0.067111	0.000113
C109	C	0.293201	-0.152702	0.068956
C110	C	0.346071	-0.265434	0.068953
C111	C	0.402710	-0.292575	0.000107
C112	C	0.406480	-0.206982	-0.068741
C113	C	0.353610	-0.094250	-0.068738
H114	H	0.251271	-0.132612	0.119924
H115	H	0.343280	-0.328795	0.119919
H116	H	0.441848	-0.376026	0.000105
H117	H	0.448410	-0.227072	-0.119709
H118	H	0.356401	-0.030889	-0.119704
H119	H	0.140004	-0.041263	0.000123
H120	H	0.537356	-0.031721	0.000112
H121	H	0.987487	0.012653	0.365798
H122	H	0.801912	0.293054	0.634401
