data_functionalizedCrystal
_audit_creation_method	'MofGen! by Chris Wilmer'
_symmetry_space_group_name_H-M	'P1'
_symmetry_Int_Tables_number	1
_symmetry_cell_setting	triclinic
loop_
_symmetry_equiv_pos_as_xyz
  x,y,z
_cell_length_a	14.908571
_cell_length_b	14.909351
_cell_length_c	19.076919
_cell_angle_alpha	95.699232
_cell_angle_beta	89.119671
_cell_angle_gamma	83.622639
loop_
_atom_site_label
_atom_site_type_symbol
_atom_site_fract_x
_atom_site_fract_y
_atom_site_fract_z
Zn1	Zn	1.381182	-0.463728	-0.480925
Zn2	Zn	1.395200	-0.609701	-0.370443
Zn3	Zn	1.235902	-0.448928	-0.356048
Zn4	Zn	1.238514	-0.606286	-0.480903
O5	O	1.312699	-0.532161	-0.422080
O6	O	1.509416	-0.490715	-0.472302
O7	O	1.378842	-0.583610	-0.270044
O8	O	1.248213	-0.323946	-0.366598
O9	O	1.519715	-0.597961	-0.391132
O10	O	1.354950	-0.334820	-0.458344
O11	O	1.261806	-0.465490	-0.259468
O12	O	1.109874	-0.462178	-0.366577
O13	O	1.252666	-0.592140	-0.579396
O14	O	1.111794	-0.577788	-0.458308
O15	O	1.357484	-0.487404	-0.579411
O16	O	1.381376	-0.736193	-0.391111
O17	O	1.266259	-0.733684	-0.472266
C18	C	1.078066	-0.518007	-0.410879
C19	C	0.977690	-0.511975	-0.406104
C20	C	0.791134	-0.621199	-0.492540
C21	C	0.696822	-0.615534	-0.488057
C22	C	0.694749	-0.494976	-0.392659
C23	C	0.789062	-0.500641	-0.397142
C24	C	0.837251	-0.563755	-0.447084
C25	C	0.931566	-0.569424	-0.451563
C26	C	0.929492	-0.448863	-0.356169
C27	C	0.835179	-0.443198	-0.351685
C28	C	1.325646	-0.767856	-0.433265
C29	C	1.331266	-0.868694	-0.438077
C30	C	1.394697	-1.016406	-0.492652
C31	C	1.389423	-0.921661	-0.488134
C32	C	1.278381	-0.910479	-0.392534
C33	C	1.283655	-1.005224	-0.397051
C34	C	1.341814	-1.058185	-0.447113
C35	C	1.347083	-1.152932	-0.451633
C36	C	1.236047	-1.141748	-0.356030
C37	C	1.230772	-1.047002	-0.351513
C38	C	1.548249	-0.546370	-0.433325
C39	C	1.648626	-0.552426	-0.438117
C40	C	1.303803	-0.541042	-0.605655
C41	C	1.300011	-0.544826	-0.683883
C42	C	1.299727	-0.295547	-0.410868
C43	C	1.294198	-0.194716	-0.406090
C44	C	1.352800	-0.492076	-0.720645
C45	C	1.349226	-0.495628	-0.794148
C46	C	1.292868	-0.551935	-0.830889
C47	C	1.240073	-0.604688	-0.794123
C48	C	1.243643	-0.601130	-0.720620
C49	C	1.276337	-0.568417	-1.050717
C50	C	1.272773	-0.571973	-1.124225
C51	C	1.381926	-0.462911	-1.124245
C52	C	1.385494	-0.459363	-1.050742
C53	C	1.332696	-0.512112	-1.013981
N54	N	1.289216	-0.555570	-0.906022
N55	N	1.336344	-0.508472	-0.938849
C56	C	1.321610	-0.523252	-0.239218
C57	C	1.325562	-0.519222	-0.160986
H58	H	0.655497	-0.443586	-0.352003
N59	N	1.446457	-0.876607	-0.537258
H60	H	1.405954	-0.836677	-0.566223
H61	H	1.487529	-0.838465	-0.508762
N62	N	1.179290	-0.665413	-0.833760
H63	H	1.197484	-0.730458	-0.824712
H64	H	1.114633	-0.646734	-0.817204
N65	N	1.179006	-1.186802	-0.306903
H66	H	1.113028	-1.166994	-0.313929
H67	H	1.191241	-1.254849	-0.317383
N68	N	1.211949	-0.632673	-1.163850
H69	H	1.217696	-0.626914	-1.215991
H70	H	1.230147	-0.697697	-1.154753
H71	H	0.795930	-0.391810	-0.311026
N72	N	0.979220	-0.386895	-0.307132
H73	H	1.021948	-0.424466	-0.278075
H74	H	1.014607	-0.348654	-0.335697
N75	N	1.413593	-0.431350	-0.681020
H76	H	1.446491	-0.398472	-0.715464
H77	H	1.376014	-0.385675	-0.646776
N78	N	0.983546	-0.637497	-0.505422
H79	H	0.940016	-0.673026	-0.533539
H80	H	1.019078	-0.604563	-0.538148
N81	N	1.457413	-1.073528	-0.546651
H82	H	1.521558	-1.060356	-0.538060
H83	H	1.452655	-1.139867	-0.542579
N84	N	0.843118	-0.689276	-0.546394
H85	H	0.799591	-0.724812	-0.574509
H86	H	0.878650	-0.656346	-0.579123
H87	H	0.659276	-0.662308	-0.525074
H88	H	1.392215	-0.452676	-0.824076
H89	H	1.200647	-0.644075	-0.690689
N90	N	1.219362	-0.625276	-1.011071
H91	H	1.183111	-0.661477	-1.045501
H92	H	1.259871	-0.668008	-0.984303
N93	N	1.446282	-0.398618	-1.011131
H94	H	1.428073	-0.333580	-1.020189
H95	H	1.440520	-0.404433	-0.959001
N96	N	1.409803	-1.210046	-0.505635
H97	H	1.473946	-1.196873	-0.497039
H98	H	1.405047	-1.276387	-0.501570
H99	H	1.183423	-1.003871	-0.310752
H100	H	1.231036	-0.867346	-0.351770
H101	H	1.424910	-0.419965	-1.154183
