data_functionalizedCrystal
_audit_creation_method	'MofGen! by Chris Wilmer'
_symmetry_space_group_name_H-M	'P1'
_symmetry_Int_Tables_number	1
_symmetry_cell_setting	triclinic
loop_
_symmetry_equiv_pos_as_xyz
  x,y,z
_cell_length_a	12.777687
_cell_length_b	15.624803
_cell_length_c	15.625186
_cell_angle_alpha	140.979503
_cell_angle_beta	97.076983
_cell_angle_gamma	97.079781
loop_
_atom_site_label
_atom_site_type_symbol
_atom_site_fract_x
_atom_site_fract_y
_atom_site_fract_z
O1	O	-0.351550	0.482388	-0.711765
O2	O	-0.328314	0.351032	-0.580387
O3	O	-0.188466	0.421461	-0.650832
O4	O	-0.491398	0.411959	-0.641320
O5	O	-0.119364	0.650751	-0.421554
O6	O	-0.259212	0.580322	-0.351109
O7	O	-0.282448	0.711679	-0.482487
Zn8	Zn	-0.259858	0.682405	-0.380395
Zn9	Zn	-0.350903	0.380305	-0.682479
O10	O	-0.422296	0.641250	-0.412042
C11	C	-0.287965	0.448889	-0.448958
C12	C	-0.270677	0.398868	-0.398929
C13	C	0.004021	0.536122	-0.536186
C14	C	-0.114780	0.536117	-0.536184
C15	C	-0.614774	0.526619	-0.526658
C16	C	-0.495975	0.526615	-0.526669
C17	C	-0.402142	-0.390622	-0.859426
C18	C	-0.385877	-0.437621	-0.812415
C19	C	-0.310541	-0.187670	-0.562453
C20	C	-0.326795	-0.140647	-0.609444
C21	C	-0.372597	-0.242133	-0.757932
C22	C	-0.297250	0.007842	-0.507949
C23	C	-0.313508	0.054859	-0.554937
C24	C	-0.359312	-0.046614	-0.703418
C25	C	-0.388855	-0.195116	-0.804919
C26	C	-0.251455	0.109325	-0.359462
C27	C	-0.221910	0.257814	-0.257968
C28	C	-0.238161	0.304834	-0.304954
C29	C	-0.283964	0.203361	-0.453436
C30	C	-0.208617	0.453336	-0.203454
C31	C	-0.224875	0.500353	-0.250441
C32	C	-0.300223	0.250378	-0.500423
O33	O	0.311544	0.411977	-0.641306
O34	O	0.008608	0.421471	-0.650828
O35	O	0.148449	0.351034	-0.580389
O36	O	0.171703	0.482414	-0.711744
O37	O	0.217543	0.580320	-0.351106
O38	O	0.077701	0.650757	-0.421545
O39	O	0.380638	0.641263	-0.412023
Zn40	Zn	0.240140	0.682414	-0.380380
Zn41	Zn	0.149106	0.380320	-0.682470
O42	O	0.240796	0.711700	-0.482461
C43	C	-0.322797	0.613818	-0.613919
C44	C	-0.340088	0.663831	-0.663957
C45	C	0.177200	0.448898	-0.448949
C46	C	0.159915	0.398901	-0.398896
C47	C	0.212049	0.613846	-0.613891
C48	C	0.229342	0.663872	-0.663916
C49	C	0.291379	0.859360	0.390551
C50	C	0.275121	0.812336	0.437540
C51	C	0.199796	0.562372	0.187590
C52	C	0.216043	0.609375	0.140579
C53	C	0.261836	0.757871	0.242068
C54	C	0.186499	0.507886	-0.007904
C55	C	0.202750	0.554886	-0.054911
C56	C	0.248544	0.703375	0.046566
C57	C	0.278086	0.804871	0.195062
C58	C	0.140714	0.359391	-0.109391
C59	C	0.111171	0.257902	-0.257874
C60	C	0.127414	0.304901	-0.304883
C61	C	0.173208	0.453390	-0.203406
C62	C	0.097872	0.203406	-0.453379
C63	C	0.114123	0.250405	-0.500385
C64	C	0.189459	0.500390	-0.250413
N65	N	-0.197723	0.888584	-0.174234
N66	N	-0.413031	0.174130	-0.888644
N67	N	0.302278	0.888585	-0.174212
N68	N	0.086977	0.174144	-0.888634
C69	C	-0.114081	0.991907	-0.133317
C70	C	-0.070565	1.136248	0.010995
C71	C	-0.110697	1.177264	0.114387
C72	C	-0.194344	1.073927	0.073463
C73	C	-0.237854	0.929587	-0.070845
C74	C	-0.372995	0.133252	-0.992020
C75	C	-0.416473	-0.011068	-1.136353
C76	C	-0.499981	-0.114510	-1.177304
C77	C	-0.540021	-0.073623	-1.073917
C78	C	-0.496549	0.070697	-0.929589
C79	C	0.396068	0.987500	-0.128880
C80	C	0.439611	1.131826	0.015447
C81	C	0.389357	1.177236	0.114438
C82	C	0.295560	1.078309	0.069099
C83	C	0.252024	0.933983	-0.075223
C84	C	-0.006519	0.075080	-0.933820
C85	C	-0.050013	-0.069269	-1.078124
C86	C	-0.000015	-0.114549	-1.177242
C87	C	0.093492	-0.015473	-1.132047
C88	C	0.136990	0.128870	-0.987743
H89	H	-0.372555	-0.008324	-0.741672
O90	O	-0.150875	-0.176110	-1.126859
H91	H	-0.178342	-0.120356	-1.033693
H92	H	-0.426149	-0.277757	-0.925832
O93	O	0.450330	0.938559	-0.235593
H94	H	0.480109	0.850709	-0.279257
O95	O	-0.046936	-0.270238	-1.332882
H96	H	-0.073851	-0.273441	-1.405874
H97	H	-0.529153	0.103966	-0.845423
O98	O	-0.172647	0.367536	-0.097730
H99	H	-0.228034	0.431757	-0.042599
H100	H	-0.409943	-0.558542	-0.895075
H101	H	-0.238225	0.071032	-0.321209
H102	H	0.424811	1.294763	0.231946
H103	H	0.213120	0.209522	-0.950969
H104	H	0.073891	0.136996	-0.340494
O105	O	0.019645	1.247692	0.055116
H106	H	-0.011346	1.335016	0.099299
O107	O	-0.063771	1.332956	0.270025
H108	H	-0.025228	1.337524	0.341664
O109	O	-0.237639	1.118177	0.184979
H110	H	-0.193336	1.235910	0.292188
H111	H	0.134187	-0.052360	-1.212773
H112	H	-0.337516	0.167737	-0.621337
H113	H	-0.171334	0.535951	-0.082554
H114	H	0.175652	0.853455	-0.112118
O115	O	-0.451542	-0.500069	-1.019582
H116	H	-0.469361	-0.611229	-1.082272
H117	H	0.127473	0.321129	-0.071108
H118	H	0.515986	1.212355	0.052338
H119	H	-0.273252	-0.105052	-0.441553
H120	H	-0.200822	0.621264	-0.167793
O121	O	-0.060466	0.123890	-0.826938
H122	H	0.002338	0.165124	-0.736596
O123	O	-0.328084	0.818153	-0.114977
H124	H	-0.348682	0.870940	-0.018833
O125	O	0.306942	0.921849	0.597707
H126	H	0.231155	0.910954	0.620491
H127	H	0.226734	0.621310	-0.167769
H128	H	0.261774	0.741640	0.008285
H129	H	0.060598	0.082500	-0.535997
O130	O	-0.282939	0.244814	-0.947872
H131	H	-0.262429	0.192125	-1.044025
H132	H	0.315361	0.925791	0.277705
H133	H	-0.535371	-0.232020	-1.294830
H134	H	0.090056	0.167763	-0.621292
O135	O	-0.373268	-0.055157	-1.247845
H136	H	-0.307880	0.041019	-1.195104
H137	H	0.328654	0.980281	0.473195
O138	O	0.150400	0.402214	0.078131
H139	H	0.144055	0.386579	0.135759
O140	O	-0.070778	0.947681	-0.244816
H141	H	-0.005294	1.043790	-0.192093
H142	H	-0.608018	-0.157863	-1.107278
H143	H	0.254643	1.115309	0.149714
