data_functionalizedCrystal
_audit_creation_method	'MofGen! by Chris Wilmer'
_symmetry_space_group_name_H-M	'P1'
_symmetry_Int_Tables_number	1
_symmetry_cell_setting	triclinic
loop_
_symmetry_equiv_pos_as_xyz
  x,y,z
_cell_length_a	17.699083
_cell_length_b	9.016244
_cell_length_c	17.699083
_cell_angle_alpha	89.996867
_cell_angle_beta	96.716985
_cell_angle_gamma	90.001304
loop_
_atom_site_label
_atom_site_type_symbol
_atom_site_fract_x
_atom_site_fract_y
_atom_site_fract_z
O1	O	1.004079	0.123135	-0.095708
O2	O	1.504079	0.623135	0.404292
O3	O	0.783701	0.123184	-0.108161
O4	O	1.283701	0.623184	0.391839
O5	O	0.900116	0.123145	0.008255
O6	O	1.400116	0.623145	0.508255
O7	O	0.887664	0.123174	-0.212123
O8	O	1.387664	0.623174	0.287877
O9	O	0.900099	-0.123535	0.008252
O10	O	1.400099	0.376465	0.508252
O11	O	0.783684	-0.123496	-0.108163
O12	O	1.283684	0.376504	0.391837
O13	O	1.004062	-0.123545	-0.095711
O14	O	1.504062	0.376455	0.404289
Cu15	Cu	0.893872	-0.146045	-0.101937
Cu16	Cu	1.393872	0.353955	0.398063
Cu17	Cu	0.893892	0.145684	-0.101934
Cu18	Cu	1.393892	0.645684	0.398066
O19	O	0.887647	-0.123506	-0.212126
O20	O	1.387647	0.376494	0.287874
C21	C	0.755495	-0.000150	-0.107716
C22	C	1.255495	0.499850	0.392284
C23	C	0.671477	-0.000132	-0.106377
C24	C	1.171477	0.499868	0.393623
N25	N	0.893863	-0.351231	-0.101939
N26	N	1.393863	0.148769	0.398061
C27	C	0.622856	-0.000123	-0.174710
C28	C	1.122856	0.499877	0.325290
C29	C	0.543913	-0.000143	-0.173448
C30	C	1.043913	0.499857	0.326552
C31	C	0.513592	-0.000160	-0.103852
C32	C	1.013592	0.499840	0.396148
C33	C	0.562219	-0.000173	-0.035513
C34	C	1.062219	0.499827	0.464487
C35	C	0.641161	-0.000164	-0.036776
C36	C	1.141161	0.499836	0.463224
C37	C	0.243856	-0.000210	-0.030418
C38	C	0.743856	0.499790	0.469582
C39	C	0.164908	-0.000214	-0.029160
C40	C	0.664908	0.499786	0.470840
C41	C	0.146608	-0.000189	-0.167090
C42	C	0.646608	0.499811	0.332910
C43	C	0.225550	-0.000180	-0.168353
C44	C	0.725550	0.499820	0.331647
C45	C	0.274170	-0.000201	-0.100015
C46	C	0.774170	0.499799	0.399985
C47	C	0.359769	-0.000182	-0.101384
C48	C	0.859769	0.499818	0.398616
C49	C	0.427995	-0.000167	-0.102481
C50	C	0.927995	0.499833	0.397519
C51	C	0.831402	-0.586243	-0.164009
C52	C	1.331402	-0.086243	0.335991
C53	C	0.831536	-0.414352	-0.164237
C54	C	1.331536	0.085648	0.335763
C55	C	0.972805	-0.413584	-0.119044
C56	C	1.472805	0.086416	0.380956
C57	C	0.972463	-0.585529	-0.119482
C58	C	1.472463	-0.085529	0.380518
C59	C	0.878170	-0.585781	-0.022555
C60	C	1.378170	-0.085781	0.477445
C61	C	0.876349	-0.413826	-0.023090
C62	C	1.376349	0.086174	0.476910
C63	C	1.032268	-0.000208	-0.096156
C64	C	1.532268	0.499792	0.403844
C65	C	1.116286	-0.000216	-0.097494
C66	C	1.616286	0.499784	0.402506
C67	C	0.899662	-0.000195	0.036451
C68	C	1.399662	0.499805	0.536451
C69	C	0.898323	-0.000195	0.120469
C70	C	1.398323	0.499805	0.620469
N71	N	0.893906	0.350870	-0.101926
N72	N	1.393906	0.850870	0.398074
C73	C	0.888102	-0.000163	-0.240322
C74	C	1.388102	0.499837	0.259678
C75	C	0.889440	-0.000153	-0.324340
C76	C	1.389440	0.499847	0.175660
C77	C	0.966656	-0.000213	0.169090
C78	C	1.466656	0.499787	0.669090
C79	C	0.965394	-0.000199	0.248033
C80	C	1.465394	0.499801	0.748033
C81	C	0.895798	-0.000179	0.278354
C82	C	1.395798	0.499821	0.778354
C83	C	0.827459	-0.000158	0.229727
C84	C	1.327459	0.499842	0.729727
C85	C	0.828722	-0.000160	0.150785
C86	C	1.328722	0.499840	0.650785
C87	C	0.822364	-0.000144	0.548090
C88	C	1.322364	0.499856	1.048090
C89	C	0.821106	-0.000146	0.627038
C90	C	1.321106	0.499854	1.127038
C91	C	0.959036	-0.000183	0.645338
C92	C	1.459036	0.499817	1.145338
C93	C	0.960299	-0.000186	0.566396
C94	C	1.460299	0.499814	1.066396
C95	C	0.891961	-0.000157	0.517776
C96	C	1.391961	0.499843	1.017776
C97	C	0.893330	-0.000168	0.432177
C98	C	1.393330	0.499832	0.932177
C99	C	0.894427	-0.000178	0.363951
C100	C	1.394427	0.499822	0.863951
H101	H	0.647537	-0.000108	-0.231384
H102	H	1.147537	0.499892	0.268616
H103	H	0.250232	-0.000159	-0.225025
H104	H	0.750232	0.499841	0.274975
H105	H	0.772852	-0.372196	-0.154068
H106	H	1.272852	0.127804	0.345932
F107	F	0.492170	-0.000127	-0.246178
F108	F	0.992170	0.499873	0.253822
F109	F	0.094857	-0.000172	-0.239822
F110	F	0.594857	0.499828	0.260178
H111	H	0.923753	-0.626448	0.023644
H112	H	1.423753	-0.126448	0.523644
H113	H	0.772532	-0.627625	-0.154007
H114	H	1.272532	-0.127625	0.345993
H115	H	1.020419	-0.627127	-0.076039
H116	H	1.520419	-0.127127	0.423961
F117	F	0.755992	-0.000137	0.099039
F118	F	1.255992	0.499863	0.599039
H119	H	0.764429	-0.000133	0.651721
H120	H	1.264429	0.499867	1.151721
F121	F	1.035040	-0.360147	-0.061507
F122	F	1.535040	0.139853	0.438493
H123	H	0.140225	-0.000230	0.027517
H124	H	0.640225	0.499770	0.527517
F125	F	1.038124	-0.000220	0.299776
F126	F	1.538124	0.499780	0.799776
F127	F	0.295592	-0.000232	0.042314
F128	F	0.795592	0.499768	0.542314
H129	H	0.537526	-0.000208	0.021154
H130	H	1.037526	0.499792	0.521154
F131	F	1.034373	-0.000206	0.534131
F132	F	1.534373	0.499794	1.034131
F133	F	0.753389	-0.000119	0.261998
F134	F	1.253389	0.499881	0.761998
F135	F	0.692907	-0.000178	0.035954
F136	F	1.192907	0.499822	0.535954
H137	H	0.841296	-0.629431	-0.222581
H138	H	1.341296	-0.129431	0.277419
H139	H	0.841565	-0.373200	-0.223142
H140	H	1.341565	0.126800	0.276858
H141	H	0.986352	-0.625614	-0.177363
H142	H	1.486352	-0.125614	0.322637
H143	H	0.987025	-0.370503	-0.176265
H144	H	1.487025	0.129497	0.323735
F145	F	0.804566	-0.642513	-0.001020
F146	F	1.304566	-0.142513	0.498980
F147	F	0.749632	-0.000109	0.496354
F148	F	1.249632	0.499891	0.996354
H149	H	0.818279	-0.373073	-0.010106
H150	H	1.318279	0.126927	0.489894
F151	F	0.932002	-0.357689	0.040110
F152	F	1.432002	0.142311	0.540110
F153	F	1.040732	-0.000248	0.136828
F154	F	1.540732	0.499752	0.636828
F155	F	1.031768	-0.000210	0.697089
F156	F	1.531768	0.499790	1.197089
