data_functionalizedCrystal
_audit_creation_method	'MofGen! by Chris Wilmer'
_symmetry_space_group_name_H-M	'P1'
_symmetry_Int_Tables_number	1
_symmetry_cell_setting	triclinic
loop_
_symmetry_equiv_pos_as_xyz
  x,y,z
_cell_length_a	21.395362
_cell_length_b	16.959454
_cell_length_c	21.395356
_cell_angle_alpha	89.977834
_cell_angle_beta	89.957023
_cell_angle_gamma	90.035955
loop_
_atom_site_label
_atom_site_type_symbol
_atom_site_fract_x
_atom_site_fract_y
_atom_site_fract_z
Zn1	Zn	0.957900	-0.314366	-0.354610
Zn2	Zn	1.291233	0.018967	-0.021276
Zn3	Zn	1.624566	0.352300	0.312057
Zn4	Zn	0.957824	-0.446548	-0.249842
Zn5	Zn	1.291157	-0.113215	0.083491
Zn6	Zn	1.624490	0.220118	0.416824
Zn7	Zn	0.853117	-0.314424	-0.249811
Zn8	Zn	1.186450	0.018909	0.083522
Zn9	Zn	1.519783	0.352242	0.416856
Zn10	Zn	0.853103	-0.446544	-0.354547
Zn11	Zn	1.186437	-0.113210	-0.021214
Zn12	Zn	1.519770	0.220123	0.312120
O13	O	0.905486	-0.380471	-0.302202
O14	O	1.238819	-0.047137	0.031131
O15	O	1.572152	0.286196	0.364464
O16	O	1.045568	-0.331878	-0.340751
O17	O	1.378901	0.001455	-0.007418
O18	O	1.712234	0.334788	0.325915
O19	O	0.943907	-0.429048	-0.162160
O20	O	1.277241	-0.095715	0.171173
O21	O	1.610574	0.237618	0.504507
O22	O	0.867054	-0.203806	-0.263726
O23	O	1.200387	0.129527	0.069608
O24	O	1.533720	0.462861	0.402941
O25	O	1.045512	-0.428992	-0.263779
O26	O	1.378845	-0.095659	0.069554
O27	O	1.712178	0.237675	0.402887
O28	O	0.944038	-0.203763	-0.340721
O29	O	1.277371	0.129570	-0.007388
O30	O	1.610704	0.462903	0.325946
O31	O	0.866980	-0.331977	-0.162137
O32	O	1.200313	0.001356	0.171196
O33	O	1.533646	0.334689	0.504530
O34	O	0.765437	-0.331973	-0.263665
O35	O	1.098770	0.001361	0.069668
O36	O	1.432104	0.334694	0.403002
O37	O	0.867031	-0.428984	-0.442233
O38	O	1.200365	-0.095650	-0.108900
O39	O	1.533698	0.237683	0.224433
O40	O	0.765427	-0.429040	-0.340614
O41	O	1.098761	-0.095707	-0.007281
O42	O	1.432094	0.237627	0.326052
O43	O	0.944025	-0.331874	-0.442279
O44	O	1.277358	0.001460	-0.108946
O45	O	1.610691	0.334793	0.224387
O46	O	0.943895	-0.557159	-0.263718
O47	O	1.277228	-0.223825	0.069615
O48	O	1.610561	0.109508	0.402948
O49	O	0.866957	-0.557155	-0.340645
O50	O	1.200291	-0.223822	-0.007311
O51	O	1.533624	0.109512	0.326022
C52	C	0.742698	-0.380513	-0.302130
C53	C	1.076031	-0.047179	0.031204
C54	C	1.409365	0.286154	0.364537
C55	C	0.673057	-0.380549	-0.302114
C56	C	1.006390	-0.047216	0.031220
C57	C	1.339724	0.286117	0.364553
C58	C	0.905433	-0.585837	-0.302192
C59	C	1.238767	-0.252504	0.031142
C60	C	1.572100	0.080830	0.364475
C61	C	0.905468	-0.673694	-0.302208
C62	C	1.238802	-0.340360	0.031125
C63	C	1.572135	-0.007027	0.364458
C64	C	0.640355	-0.431159	-0.342121
C65	C	0.973688	-0.097826	-0.008788
C66	C	1.307022	0.235507	0.324546
C67	C	0.574920	-0.431140	-0.342149
C68	C	0.908253	-0.097807	-0.008816
C69	C	1.241586	0.235527	0.324518
C70	C	0.542189	-0.380519	-0.302158
C71	C	0.875522	-0.047186	0.031175
C72	C	1.208855	0.286148	0.364509
C73	C	0.574898	-0.329899	-0.262148
C74	C	0.908232	0.003434	0.071185
C75	C	1.241565	0.336767	0.404519
C76	C	0.640332	-0.329914	-0.262126
C77	C	0.973666	0.003419	0.071208
C78	C	1.306999	0.336752	0.404541
C79	C	0.438464	-0.374163	-0.245752
C80	C	0.771797	-0.040829	0.087581
C81	C	1.105131	0.292504	0.420914
C82	C	0.373031	-0.374153	-0.245774
C83	C	0.706364	-0.040820	0.087560
C84	C	1.039698	0.292514	0.420893
C85	C	0.340368	-0.380467	-0.302227
C86	C	0.673701	-0.047134	0.031106
C87	C	1.007035	0.286199	0.364439
C88	C	0.373146	-0.386808	-0.358661
C89	C	0.706479	-0.053475	-0.025328
C90	C	1.039813	0.279859	0.308005
C91	C	0.438580	-0.386823	-0.358639
C92	C	0.771913	-0.053490	-0.025306
C93	C	1.105247	0.279843	0.308028
C94	C	0.471236	-0.380496	-0.302178
C95	C	0.804570	-0.047163	0.031155
C96	C	1.137903	0.286170	0.364488
C97	C	0.236714	-0.431059	-0.342268
C98	C	0.570047	-0.097726	-0.008935
C99	C	0.903380	0.235608	0.324398
C100	C	0.171277	-0.431034	-0.342297
C101	C	0.504610	-0.097701	-0.008964
C102	C	0.837944	0.235633	0.324369
C103	C	0.171257	-0.329797	-0.262291
C104	C	0.504590	0.003536	0.071042
C105	C	0.837923	0.336869	0.404376
C106	C	0.236692	-0.329818	-0.262267
C107	C	0.570025	0.003515	0.071066
C108	C	0.903359	0.336848	0.404399
C109	C	0.269417	-0.380453	-0.302255
C110	C	0.602750	-0.047120	0.031078
C111	C	0.936083	0.286213	0.364411
C112	C	0.865483	-1.045197	-0.342254
C113	C	1.198816	-0.711864	-0.008920
C114	C	1.532149	-0.378531	0.324413
C115	C	0.945664	-1.045141	-0.262215
C116	C	1.278997	-0.711808	0.071118
C117	C	1.612330	-0.378474	0.404452
C118	C	0.945642	-0.962595	-0.262209
C119	C	1.278975	-0.629262	0.071124
C120	C	1.612308	-0.295928	0.404457
C121	C	0.905539	-0.921346	-0.302226
C122	C	1.238872	-0.588013	0.031108
C123	C	1.572206	-0.254680	0.364441
C124	C	0.865458	-0.962644	-0.342248
C125	C	1.198792	-0.629310	-0.008914
C126	C	1.532125	-0.295977	0.324419
C127	C	0.985717	-0.921292	-0.222184
C128	C	1.319051	-0.587958	0.111150
C129	C	1.652384	-0.254625	0.444483
C130	C	0.985696	-0.838741	-0.222176
C131	C	1.319030	-0.505407	0.111158
C132	C	1.652363	-0.172074	0.444491
C133	C	0.945596	-0.797491	-0.262196
C134	C	1.278930	-0.464157	0.071138
C135	C	1.612263	-0.130824	0.404471
C136	C	0.905515	-0.838793	-0.302220
C137	C	1.238848	-0.505460	0.031114
C138	C	1.572181	-0.172126	0.364447
C139	C	0.865412	-0.797544	-0.342236
C140	C	1.198745	-0.464211	-0.008903
C141	C	1.532079	-0.130878	0.324431
C142	C	0.825333	-0.838845	-0.382264
C143	C	1.158666	-0.505512	-0.048931
C144	C	1.491999	-0.172178	0.284403
C145	C	0.825358	-0.921394	-0.382268
C146	C	1.158692	-0.588060	-0.048934
C147	C	1.492025	-0.254727	0.284399
C148	C	0.945571	-0.714942	-0.262192
C149	C	1.278904	-0.381609	0.071141
C150	C	1.612238	-0.048276	0.404475
C151	C	0.865387	-0.714991	-0.342230
C152	C	1.198721	-0.381657	-0.008897
C153	C	1.532054	-0.048324	0.324436
C154	C	1.068909	-0.380429	-0.302276
C155	C	1.402242	-0.047096	0.031058
C156	C	1.735576	0.286237	0.364391
C157	C	1.138550	-0.380412	-0.302307
C158	C	1.471884	-0.047078	0.031026
C159	C	1.805217	0.286255	0.364360
C160	C	0.905535	-0.380422	-0.465626
C161	C	1.238868	-0.047088	-0.132292
C162	C	1.572202	0.286245	0.201041
C163	C	0.905556	-0.380401	-0.535267
C164	C	1.238889	-0.047067	-0.201934
C165	C	1.572223	0.286266	0.131400
C166	C	0.905556	-0.174302	-0.302227
C167	C	1.238889	0.159031	0.031106
C168	C	1.572222	0.492364	0.364440
C169	C	0.905585	-0.086446	-0.302237
C170	C	1.238919	0.246887	0.031096
C171	C	1.572252	0.580221	0.364429
C172	C	0.865511	-0.329850	-0.567958
C173	C	1.198844	0.003483	-0.234625
C174	C	1.532177	0.336816	0.098708
C175	C	0.865508	-0.329836	-0.633394
C176	C	1.198842	0.003498	-0.300060
C177	C	1.532175	0.336831	0.033273
C178	C	0.905563	-0.380363	-0.666135
C179	C	1.238896	-0.047030	-0.332802
C180	C	1.572230	0.286303	0.000531
C181	C	0.945611	-0.430924	-0.633436
C182	C	1.278945	-0.097590	-0.300103
C183	C	1.612278	0.235743	0.033230
C184	C	0.945608	-0.430942	-0.568002
C185	C	1.278941	-0.097609	-0.234669
C186	C	1.612275	0.235724	0.098665
C187	C	0.962016	-0.386558	-0.769841
C188	C	1.295349	-0.053225	-0.436508
C189	C	1.628683	0.280109	-0.103175
C190	C	0.962020	-0.386533	-0.835274
C191	C	1.295354	-0.053200	-0.501941
C192	C	1.628687	0.280133	-0.168608
C193	C	0.905573	-0.380310	-0.867956
C194	C	1.238907	-0.046977	-0.534623
C195	C	1.572240	0.286357	-0.201290
C196	C	0.849120	-0.374094	-0.835197
C197	C	1.182453	-0.040761	-0.501864
C198	C	1.515787	0.292573	-0.168531
C199	C	0.849117	-0.374113	-0.769763
C200	C	1.182450	-0.040779	-0.436430
C201	C	1.515783	0.292554	-0.103096
C202	C	0.905571	-0.380349	-0.737088
C203	C	1.238904	-0.047015	-0.403755
C204	C	1.572238	0.286318	-0.070421
C205	C	0.865522	-0.329741	-0.971600
C206	C	1.198855	0.003593	-0.638267
C207	C	1.532189	0.336926	-0.304934
C208	C	0.865519	-0.329732	-1.037037
C209	C	1.198852	0.003602	-0.703704
C210	C	1.532186	0.336935	-0.370370
C211	C	0.945627	-0.430815	-1.037078
C212	C	1.278961	-0.097482	-0.703745
C213	C	1.612294	0.235851	-0.370411
C214	C	0.945625	-0.430829	-0.971643
C215	C	1.278958	-0.097495	-0.638309
C216	C	1.612292	0.235838	-0.304976
C217	C	0.905573	-0.380287	-0.938908
C218	C	1.238907	-0.046954	-0.605574
C219	C	1.572240	0.286380	-0.272241
C220	C	0.905473	-0.380462	-0.139415
C221	C	1.238806	-0.047129	0.193918
C222	C	1.572139	0.286204	0.527252
C223	C	0.905573	-0.380261	-0.069774
C224	C	1.238907	-0.046927	0.263559
C225	C	1.572240	0.286406	0.596893
H226	H	0.666995	-0.472389	-0.374683
H227	H	1.000329	-0.139056	-0.041350
H228	H	1.333662	0.194277	0.291984
N229	N	0.539598	-0.275311	-0.219007
N230	N	0.872931	0.058022	0.114326
N231	N	1.206265	0.391356	0.447659
H232	H	0.512494	-0.238718	-0.244523
H233	H	0.845827	0.094615	0.088811
H234	H	1.179161	0.427948	0.422144
H235	H	0.512439	-0.307447	-0.189949
H236	H	0.845773	0.025886	0.143384
H237	H	1.179106	0.359219	0.476718
H238	H	0.792727	-0.955028	-0.414855
H239	H	1.126061	-0.621695	-0.081522
H240	H	1.459394	-0.288361	0.251811
N241	N	0.822308	-0.275323	-0.668667
N242	N	1.155642	0.058010	-0.335334
N243	N	1.488975	0.391344	-0.002001
H244	H	0.847782	-0.238684	-0.695844
H245	H	1.181116	0.094650	-0.362511
H246	H	1.514449	0.427983	-0.029178
H247	H	0.793277	-0.307516	-0.695751
H248	H	1.126611	0.025818	-0.362417
H249	H	1.459944	0.359151	-0.029084
H250	H	0.978221	-0.472106	-0.541385
H251	H	1.311554	-0.138773	-0.208052
H252	H	1.644887	0.194561	0.125281
H253	H	0.832853	-1.078828	-0.374845
H254	H	1.166186	-0.745495	-0.041512
H255	H	1.499520	-0.412161	0.291822
H256	H	0.548289	-0.472352	-0.374730
H257	H	0.881622	-0.139019	-0.041397
H258	H	1.214955	0.194314	0.291937
N259	N	0.822136	-0.670503	-0.385394
N260	N	1.155469	-0.337170	-0.052061
N261	N	1.488803	-0.003836	0.281273
H262	H	0.796752	-0.709194	-0.410750
H263	H	1.130086	-0.375861	-0.077416
H264	H	1.463419	-0.042528	0.255917
H265	H	0.793141	-0.636308	-0.359851
H266	H	1.126475	-0.302974	-0.026518
H267	H	1.459808	0.030359	0.306816
H268	H	0.263359	-0.472285	-0.374832
H269	H	0.596693	-0.138952	-0.041499
H270	H	0.930026	0.194382	0.291835
H271	H	0.465053	-0.369017	-0.199778
H272	H	0.798386	-0.035684	0.133555
H273	H	1.131719	0.297649	0.466889
H274	H	0.792678	-0.805251	-0.414843
H275	H	1.126011	-0.471918	-0.081509
H276	H	1.459345	-0.138584	0.251824
N277	N	1.028963	-0.965792	-0.179029
N278	N	1.362296	-0.632458	0.154304
N279	N	1.695630	-0.299125	0.487638
H280	H	1.073722	-0.951367	-0.188811
H281	H	1.407056	-0.618033	0.144523
H282	H	1.740389	-0.284700	0.477856
H283	H	1.019196	-0.951457	-0.134264
H284	H	1.352529	-0.618124	0.199069
H285	H	1.685863	-0.284790	0.532402
N286	N	0.988905	-1.089626	-0.219046
N287	N	1.322238	-0.756292	0.114287
N288	N	1.655572	-0.422959	0.447620
H289	H	0.982835	-1.148187	-0.225120
H290	H	1.316168	-0.814854	0.108214
H291	H	1.649502	-0.481520	0.441547
H292	H	1.033646	-1.075142	-0.228848
H293	H	1.366979	-0.741809	0.104485
H294	H	1.700313	-0.408476	0.437818
H295	H	0.666958	-0.288699	-0.229547
H296	H	1.000291	0.044634	0.103787
H297	H	1.333624	0.377967	0.437120
H298	H	0.263318	-0.288610	-0.229686
H299	H	0.596652	0.044723	0.103647
H300	H	0.929985	0.378057	0.436981
H301	H	0.978224	-0.472064	-0.660099
H302	H	1.311557	-0.138730	-0.326765
H303	H	1.644891	0.194603	0.006568
N304	N	1.028928	-0.794198	-0.179012
N305	N	1.362261	-0.460864	0.154321
N306	N	1.695594	-0.127531	0.487655
H307	H	1.054337	-0.832856	-0.153665
H308	H	1.387670	-0.499522	0.179669
H309	H	1.721004	-0.166189	0.513002
H310	H	1.057899	-0.759903	-0.204557
H311	H	1.391232	-0.426569	0.128776
H312	H	1.724566	-0.093236	0.462109
H313	H	1.007986	-0.391619	-0.743237
H314	H	1.341319	-0.058286	-0.409904
H315	H	1.674652	0.275047	-0.076570
H316	H	0.978200	-0.681319	-0.229599
H317	H	1.311533	-0.347986	0.103734
H318	H	1.644866	-0.014652	0.437068
H319	H	0.465265	-0.391984	-0.404590
H320	H	0.798598	-0.058651	-0.071256
H321	H	1.131932	0.274683	0.262077
H322	H	0.803150	-0.369053	-0.743093
H323	H	1.136484	-0.035720	-0.409760
H324	H	1.469817	0.297614	-0.076427
N325	N	0.822320	-0.275213	-1.072300
N326	N	1.155653	0.058121	-0.738967
N327	N	1.488987	0.391454	-0.405634
H328	H	0.796949	-0.243200	-1.041631
H329	H	1.130283	0.090134	-0.708298
H330	H	1.463616	0.423467	-0.374964
H331	H	0.847838	-0.238623	-1.099475
H332	H	1.181172	0.094710	-0.766142
H333	H	1.514505	0.428043	-0.432808
N334	N	0.337927	-0.393624	-0.419556
N335	N	0.671261	-0.060290	-0.086223
N336	N	1.004594	0.273043	0.247110
H337	H	0.291502	-0.392648	-0.411010
H338	H	0.624835	-0.059315	-0.077677
H339	H	0.958168	0.274018	0.255656
H340	H	0.349428	-0.347964	-0.447626
H341	H	0.682762	-0.014631	-0.114292
H342	H	1.016095	0.318702	0.219041
H343	H	0.144652	-0.472245	-0.374880
H344	H	0.477986	-0.138912	-0.041547
H345	H	0.811319	0.194421	0.291787
N346	N	0.988826	-0.485321	-1.072383
N347	N	1.322159	-0.151988	-0.739049
N348	N	1.655492	0.181346	-0.405716
H349	H	0.982750	-0.477641	-1.118796
H350	H	1.316084	-0.144308	-0.785463
H351	H	1.649417	0.189025	-0.452129
H352	H	1.033578	-0.473012	-1.060979
H353	H	1.366911	-0.139679	-0.727646
H354	H	1.700244	0.193654	-0.394313
N355	N	0.788232	-0.367391	-0.870438
N356	N	1.121566	-0.034057	-0.537105
N357	N	1.454899	0.299276	-0.203772
H358	H	0.752472	-0.363457	-0.839757
H359	H	1.085805	-0.030124	-0.506424
H360	H	1.419138	0.303209	-0.173091
H361	H	0.789148	-0.318683	-0.897598
H362	H	1.122482	0.014651	-0.564265
H363	H	1.455815	0.347984	-0.230931
H364	H	0.832895	-0.288698	-0.541310
H365	H	1.166228	0.044635	-0.207976
H366	H	1.499561	0.377968	0.125357
H367	H	0.832909	-0.288587	-0.944946
H368	H	1.166242	0.044746	-0.611613
H369	H	1.499576	0.378079	-0.278279
H370	H	0.978236	-0.471991	-0.945025
H371	H	1.311569	-0.138657	-0.611692
H372	H	1.644903	0.194676	-0.278358
N373	N	1.022904	-0.393240	-0.870606
N374	N	1.356238	-0.059906	-0.537273
N375	N	1.689571	0.273427	-0.203939
H376	H	1.050965	-0.347537	-0.859242
H377	H	1.384298	-0.014204	-0.525909
H378	H	1.717632	0.319130	-0.192576
H379	H	1.044147	-0.444424	-0.859213
H380	H	1.377481	-0.111091	-0.525880
H381	H	1.710814	0.222243	-0.192546
N382	N	0.135964	-0.275192	-0.219161
N383	N	0.469297	0.058142	0.114172
N384	N	0.802630	0.391475	0.447505
H385	H	0.089549	-0.282859	-0.225247
H386	H	0.422882	0.050475	0.108086
H387	H	0.756215	0.383808	0.441420
H388	H	0.147343	-0.287421	-0.174393
H389	H	0.480676	0.045912	0.158941
H390	H	0.814010	0.379245	0.492274
H391	H	0.346348	-0.368995	-0.199822
H392	H	0.679681	-0.035662	0.133512
H393	H	1.013015	0.297672	0.466845
