data_functionalizedCrystal
_audit_creation_method	'MofGen! by Chris Wilmer'
_symmetry_space_group_name_H-M	'P1'
_symmetry_Int_Tables_number	1
_symmetry_cell_setting	triclinic
loop_
_symmetry_equiv_pos_as_xyz
  x,y,z
_cell_length_a	11.792241
_cell_length_b	9.198806
_cell_length_c	10.723024
_cell_angle_alpha	89.996352
_cell_angle_beta	84.330643
_cell_angle_gamma	89.996670
loop_
_atom_site_label
_atom_site_type_symbol
_atom_site_fract_x
_atom_site_fract_y
_atom_site_fract_z
O1	O	0.159192	-0.120884	1.656767
O2	O	0.659192	0.379116	2.156767
O3	O	0.174430	-0.120889	1.293574
O4	O	0.674430	0.379111	1.793574
O5	O	0.001660	-0.120876	1.483984
O6	O	0.501660	0.379124	1.983984
O7	O	0.331962	-0.120897	1.466357
O8	O	0.831962	0.379103	1.966357
O9	O	0.001659	0.120909	1.483969
O10	O	0.501659	0.620909	1.983969
O11	O	0.174430	0.120896	1.293559
O12	O	0.674430	0.620896	1.793559
O13	O	0.159192	0.120901	1.656751
O14	O	0.659192	0.620901	2.156751
Cu15	Cu	0.166811	0.142976	1.475154
Cu16	Cu	0.666811	0.642976	1.975154
Cu17	Cu	0.166811	-0.142963	1.475172
Cu18	Cu	0.666811	0.357037	1.975172
O19	O	0.331962	0.120889	1.466341
O20	O	0.831962	0.620889	1.966341
C21	C	-0.040634	0.000016	1.482869
C22	C	0.459366	0.500016	1.982869
C23	C	-0.166655	0.000015	1.479555
C24	C	0.333345	0.500015	1.979555
C25	C	0.173321	0.000003	1.247070
C26	C	0.673321	0.500003	1.747070
C27	C	0.170003	0.000002	1.108524
C28	C	0.670003	0.500002	1.608524
N29	N	0.166810	0.344090	1.475150
N30	N	0.666810	0.844090	1.975150
C31	C	-0.397380	-0.000010	1.473461
C32	C	0.102620	0.499990	1.973461
C33	C	-0.268988	0.000004	1.476847
C34	C	0.231012	0.500004	1.976847
C35	C	0.374255	-0.000007	1.467456
C36	C	0.874255	0.499993	1.967456
C37	C	0.500276	-0.000015	1.470770
C38	C	1.000276	0.499985	1.970770
N39	N	0.166803	-0.344077	1.475185
N40	N	0.666803	0.155923	1.975185
C41	C	0.093948	0.416292	1.555099
C42	C	0.593948	0.916292	2.055099
C43	C	0.093944	0.583704	1.555118
C44	C	0.593944	1.083704	2.055118
C45	C	0.266676	-0.000005	1.033286
C46	C	0.766676	0.499995	1.533286
C47	C	0.263249	-0.000007	0.890091
C48	C	0.763249	0.499993	1.390091
C49	C	0.160301	0.000006	1.703256
C50	C	0.660301	0.500006	2.203256
C51	C	0.163619	-0.000002	1.841801
C52	C	0.663619	0.499998	2.341801
H53	H	0.031567	0.354171	1.623528
H54	H	0.531567	0.854171	2.123528
C55	C	0.051805	0.000010	0.929132
C56	C	0.551805	0.500010	1.429132
N57	N	-0.032414	0.000023	0.994919
N58	N	0.467586	0.500023	1.494919
H59	H	0.031569	0.645795	1.623570
H60	H	0.531569	1.145795	2.123570
H61	H	0.229190	0.593841	1.406739
H62	H	0.729190	1.093841	1.906739
H63	H	0.351978	-0.000002	1.074882
H64	H	0.851978	0.499998	1.574882
H65	H	0.229182	0.406213	1.406713
H66	H	0.729182	0.906213	1.906713
C67	C	0.375059	-0.000014	0.802753
C68	C	0.875059	0.499986	1.302753
N69	N	0.459277	-0.000016	0.736966
N70	N	0.959277	0.499984	1.236966
H71	H	0.084701	-0.000030	1.066928
H72	H	0.584701	0.499970	1.566928
