data_functionalizedCrystal
_audit_creation_method	'MofGen! by Chris Wilmer'
_symmetry_space_group_name_H-M	'P1'
_symmetry_Int_Tables_number	1
_symmetry_cell_setting	triclinic
loop_
_symmetry_equiv_pos_as_xyz
  x,y,z
_cell_length_a	10.654541
_cell_length_b	19.288864
_cell_length_c	18.366186
_cell_angle_alpha	90.022894
_cell_angle_beta	89.994034
_cell_angle_gamma	96.189913
loop_
_atom_site_label
_atom_site_type_symbol
_atom_site_fract_x
_atom_site_fract_y
_atom_site_fract_z
O1	O	0.156657	-0.922378	-0.060783
O2	O	0.177790	-0.720255	-0.060733
O3	O	-0.015616	-0.825965	-0.060755
O4	O	0.350062	-0.816669	-0.060761
O5	O	-0.015625	-0.825946	0.060344
O6	O	0.177780	-0.720237	0.060366
O7	O	0.156647	-0.922360	0.060316
Zn8	Zn	0.167212	-0.821296	0.079568
Zn9	Zn	0.167225	-0.821319	-0.079985
O10	O	0.350053	-0.816650	0.060338
C11	C	0.177105	-0.694365	-0.000177
C12	C	0.175064	-0.617248	-0.000158
C13	C	-0.062404	-0.825273	-0.000205
C14	C	-0.201804	-0.823232	-0.000206
N15	N	0.167203	-0.821284	0.188459
C16	C	-0.232480	-0.949636	-0.000228
C17	C	-0.313307	-1.011877	-0.000237
C18	C	-0.444284	-1.009955	-0.000239
C19	C	-0.494436	-0.945785	-0.000234
C20	C	-0.413609	-0.883545	-0.000225
C21	C	-0.282631	-0.885474	-0.000221
C22	C	-0.382933	-0.757142	-0.000208
C23	C	-0.251955	-0.759063	-0.000201
C24	C	-0.433084	-0.692973	-0.000203
C25	C	-0.352257	-0.630732	-0.000188
C26	C	-0.221273	-0.632656	-0.000186
C27	C	-0.171129	-0.696823	-0.000192
C28	C	0.396841	-0.817342	-0.000213
C29	C	0.536241	-0.819383	-0.000217
C30	C	0.157332	-0.948250	-0.000241
C31	C	0.159373	-1.025367	-0.000265
C32	C	0.288545	-0.573295	-0.000172
C33	C	0.286627	-0.500835	-0.000180
C34	C	0.171222	-0.472332	-0.000189
C35	C	0.057725	-0.516296	-0.000171
C36	C	0.059646	-0.588754	-0.000156
C37	C	0.080504	-0.363483	-0.042638
C38	C	0.078587	-0.291026	-0.042658
C39	C	0.165292	-0.248848	-0.000233
C40	C	0.253935	-0.279134	0.042203
C41	C	0.255856	-0.351592	0.042218
C42	C	0.169126	-0.393765	-0.000205
C43	C	0.276702	-0.126325	-0.000254
C44	C	0.274780	-0.053864	-0.000257
C45	C	0.045875	-0.069327	-0.000256
C46	C	0.047800	-0.141786	-0.000245
C47	C	0.163218	-0.170280	-0.000248
N48	N	0.167224	-0.821336	-0.188876
C49	C	0.081605	-0.868108	0.226550
C50	C	0.081599	-0.868112	0.302778
C51	C	0.167213	-0.821300	0.340912
C52	C	0.252818	-0.774467	0.302812
C53	C	0.252813	-0.774459	0.226586
C54	C	0.281635	-0.812750	0.461672
C55	C	0.281642	-0.812763	0.537897
C56	C	0.167229	-0.821320	0.576020
C57	C	0.052805	-0.829878	0.537908
C58	C	0.052799	-0.829871	0.461682
C59	C	0.167228	-0.821303	0.423567
C60	C	0.081618	-0.868151	0.696765
C61	C	0.081611	-0.868150	0.772995
C62	C	0.252840	-0.774508	0.773027
C63	C	0.252836	-0.774505	0.696800
C64	C	0.167227	-0.821330	0.658673
H65	H	-0.125834	-0.951208	-0.000217
H66	H	-0.155470	-0.581972	-0.000181
Cl67	Cl	0.362944	-0.226118	0.095541
Cl68	Cl	-0.545898	-1.088200	-0.000257
Cl69	Cl	0.425486	-0.802057	0.413754
Cl70	Cl	-0.659094	-0.943371	-0.000286
Cl71	Cl	-0.250253	-1.092542	-0.000248
Cl72	Cl	-0.026022	-0.926968	0.178621
H73	H	-0.393102	-0.578490	-0.000189
H74	H	-0.064483	-0.698396	-0.000185
Cl75	Cl	-0.083028	-0.644013	-0.000140
Cl76	Cl	-0.597742	-0.690557	-0.000251
H77	H	0.370682	-0.149526	-0.000245
Cl78	Cl	0.417456	0.001394	-0.000271
Cl79	Cl	0.360457	-0.715642	0.648909
Cl80	Cl	0.367281	-0.389665	0.095566
Cl81	Cl	0.429301	-0.445568	-0.000195
Cl82	Cl	-0.091039	-0.840642	0.585825
Cl83	Cl	0.433641	-0.609113	-0.000171
H84	H	-0.048091	-0.046121	-0.000309
H85	H	0.322524	-0.736350	0.333865
H86	H	-0.044609	-0.177574	-0.000238
H87	H	0.011893	-0.906243	0.333797
Cl88	Cl	-0.032836	-0.252958	-0.096012
H89	H	0.009895	-0.397820	-0.077190
H90	H	0.011905	-0.906276	0.665722
Cl91	Cl	-0.087356	-0.480465	-0.000178
H92	H	-0.040369	-0.836838	0.430655
H93	H	0.011900	-0.906278	0.804009
H94	H	0.374813	-0.805798	0.568921
Cl95	Cl	0.360460	-0.715653	0.820962
Cl96	Cl	0.360432	-0.715591	0.178697
