data_functionalizedCrystal
_audit_creation_method	'MofGen! by Chris Wilmer'
_symmetry_space_group_name_H-M	'P1'
_symmetry_Int_Tables_number	1
_symmetry_cell_setting	triclinic
loop_
_symmetry_equiv_pos_as_xyz
  x,y,z
_cell_length_a	10.686285
_cell_length_b	12.759401
_cell_length_c	12.759393
_cell_angle_alpha	90.020938
_cell_angle_beta	85.602987
_cell_angle_gamma	94.366763
loop_
_atom_site_label
_atom_site_type_symbol
_atom_site_fract_x
_atom_site_fract_y
_atom_site_fract_z
Zn1	Zn	-0.502237	-1.638400	-0.562006
Zn2	Zn	-0.002237	-1.138400	-0.062006
Zn3	Zn	-0.713276	-1.651794	-0.372873
Zn4	Zn	-0.213276	-1.151794	0.127127
Zn5	Zn	-0.502304	-1.462703	-0.386337
Zn6	Zn	-0.002304	-0.962703	0.113663
Zn7	Zn	-0.713187	-1.476188	-0.548516
Zn8	Zn	-0.213187	-0.976188	-0.048516
O9	O	-0.607751	-1.557272	-0.467433
O10	O	-0.107751	-1.057272	0.032567
O11	O	-0.530240	-1.787199	-0.536928
O12	O	-0.030240	-1.287199	-0.036928
O13	O	-0.685355	-1.626673	-0.227634
O14	O	-0.185355	-1.126673	0.272366
O15	O	-0.325719	-1.474761	-0.420919
O16	O	0.174281	-0.974761	0.079081
O17	O	-0.685290	-1.797039	-0.397973
O18	O	-0.185290	-1.297039	0.102027
O19	O	-0.325669	-1.603845	-0.549983
O20	O	0.174331	-1.103845	-0.049983
O21	O	-0.530355	-1.487749	-0.237525
O22	O	-0.030355	-0.987749	0.262475
O23	O	-0.530269	-1.317471	-0.407839
O24	O	-0.030269	-0.817471	0.092161
O25	O	-0.685139	-1.497744	-0.697331
O26	O	-0.185139	-0.997744	-0.197331
O27	O	-0.685204	-1.327378	-0.526992
O28	O	-0.185204	-0.827378	-0.026992
O29	O	-0.530155	-1.616921	-0.707241
O30	O	-0.030155	-1.116921	-0.207241
O31	O	-0.889840	-1.639748	-0.384893
O32	O	-0.389840	-1.139748	0.115107
O33	O	-0.889775	-1.510731	-0.513937
O34	O	-0.389775	-1.010731	-0.013937
C35	C	-0.607735	-1.284303	-0.467413
C36	C	-0.107735	-0.784303	0.032587
C37	C	-0.607759	-1.167528	-0.467427
C38	C	-0.107759	-0.667528	0.032573
C39	C	-0.935592	-1.578185	-0.446513
C40	C	-0.435592	-1.078185	0.053487
C41	C	-1.075844	-1.587228	-0.437599
C42	C	-0.575844	-1.087228	0.062401
C43	C	-0.607630	-1.557342	-0.741474
C44	C	-0.107630	-1.057342	-0.241474
C45	C	-0.607578	-1.557373	-0.858254
C46	C	-0.107578	-1.057373	-0.358254
C47	C	-0.278630	-1.536305	-0.488457
C48	C	0.221370	-1.036305	0.011543
C49	C	-0.138378	-1.527370	-0.497417
C50	C	0.361622	-1.027370	0.002583
C51	C	-0.607767	-1.831306	-0.467453
C52	C	-0.107767	-1.331306	0.032547
C53	C	-0.607774	-1.948083	-0.467462
C54	C	-0.107774	-1.448083	0.032538
C55	C	-0.688557	-1.117860	-0.529357
C56	C	-0.188557	-0.617860	-0.029357
C57	C	-0.688562	-1.008136	-0.529377
C58	C	-0.188562	-0.508136	-0.029377
C59	C	-0.526968	-0.997758	-0.405531
C60	C	-0.026968	-0.497758	0.094469
C61	C	-0.526957	-1.107479	-0.405516
C62	C	-0.026957	-0.607479	0.094484
C63	C	-0.526865	-1.619432	-0.918279
C64	C	-0.026865	-1.119432	-0.418279
C65	C	-0.526810	-1.619446	-1.028007
C66	C	-0.026810	-1.119446	-0.528007
C67	C	-0.688194	-1.495340	-1.017674
C68	C	-0.188194	-0.995340	-0.517674
C69	C	-0.688241	-1.495320	-0.907949
C70	C	-0.188241	-0.995320	-0.407949
C71	C	-0.607780	-1.557256	-0.194464
C72	C	-0.107780	-1.057256	0.305536
C73	C	-0.607477	-1.557406	-0.077707
C74	C	-0.107477	-1.057406	0.422293
H75	H	-1.084620	-1.469206	-0.555451
H76	H	-0.584620	-0.969206	-0.055451
H77	H	-0.461184	-0.948853	-0.355123
H78	H	0.038816	-0.448853	0.144877
H79	H	-1.129609	-1.645389	-0.379554
H80	H	-0.629609	-1.145389	0.120446
C81	C	-0.776927	-1.427095	-1.072336
C82	C	-0.276927	-0.927095	-0.572336
H83	H	-0.824996	-1.390124	-1.020870
H84	H	-0.324996	-0.890124	-0.520870
H85	H	-0.831891	-1.470794	-1.111633
H86	H	-0.331891	-0.970794	-0.611633
H87	H	-0.728630	-1.378246	-1.118217
H88	H	-0.228630	-0.878246	-0.618217
C89	C	-0.438077	-1.162118	-0.337389
C90	C	0.061923	-0.662118	0.162611
H91	H	-0.389969	-1.110643	-0.300508
H92	H	0.110031	-0.610643	0.199492
H93	H	-0.383155	-1.201437	-0.381155
H94	H	0.116845	-0.701437	0.118845
H95	H	-0.486286	-1.207973	-0.288462
H96	H	0.013714	-0.707973	0.211538
H97	H	-0.461180	-1.669956	-0.877821
H98	H	0.038820	-1.169956	-0.377821
H99	H	-0.461083	-1.669980	-1.076875
H100	H	0.038917	-1.169980	-0.576875
H101	H	-0.754353	-0.967702	-0.579808
H102	H	-0.254353	-0.467702	-0.079808
C103	C	-0.777038	-1.427059	-0.841916
C104	C	-0.277038	-0.927059	-0.341916
H105	H	-0.825085	-1.390119	-0.887225
H106	H	-0.325085	-0.890119	-0.387225
H107	H	-0.728788	-1.378201	-0.802186
H108	H	-0.228788	-0.878201	-0.302186
H109	H	-0.832040	-1.470756	-0.795610
H110	H	-0.332040	-0.970756	-0.295610
H111	H	-0.754348	-1.166749	-0.579772
H112	H	-0.254348	-0.666749	-0.079772
