data_functionalizedCrystal
_audit_creation_method	'MofGen! by Chris Wilmer'
_symmetry_space_group_name_H-M	'P1'
_symmetry_Int_Tables_number	1
_symmetry_cell_setting	triclinic
loop_
_symmetry_equiv_pos_as_xyz
  x,y,z
_cell_length_a	14.971486
_cell_length_b	14.044220
_cell_length_c	14.048226
_cell_angle_alpha	89.992807
_cell_angle_beta	89.998499
_cell_angle_gamma	88.401503
loop_
_atom_site_label
_atom_site_type_symbol
_atom_site_fract_x
_atom_site_fract_y
_atom_site_fract_z
O1	O	1.196679	0.123538	-0.079053
O2	O	1.696679	0.623538	0.420947
O3	O	0.937444	0.138332	-0.079079
O4	O	1.437444	0.638332	0.420921
O5	O	1.063171	-0.007054	-0.079057
O6	O	1.563171	0.492946	0.420943
O7	O	1.070953	0.268924	-0.079075
O8	O	1.570953	0.768924	0.420925
O9	O	1.063153	-0.007063	0.079264
O10	O	1.563153	0.492937	0.579264
O11	O	0.937427	0.138323	0.079242
O12	O	1.437427	0.638323	0.579242
O13	O	1.196662	0.123529	0.079268
O14	O	1.696662	0.623529	0.579268
Zn15	Zn	1.067042	0.130925	0.104392
Zn16	Zn	1.567042	0.630925	0.604392
Zn17	Zn	1.067064	0.130936	-0.104203
Zn18	Zn	1.567064	0.630936	0.395797
O19	O	1.070936	0.268915	0.079246
O20	O	1.570936	0.768915	0.579246
C21	C	0.904059	0.137666	0.000078
C22	C	1.404059	0.637666	0.500078
C23	C	0.804606	0.135683	0.000069
C24	C	1.304606	0.635683	0.500069
C25	C	0.754109	0.221093	0.000064
C26	C	1.254109	0.721093	0.500064
C27	C	0.660662	0.219225	0.000079
C28	C	1.160662	0.719225	0.500079
C29	C	0.617714	0.131945	0.000090
C30	C	1.117714	0.631945	0.500090
C31	C	0.668218	0.046528	0.000097
C32	C	1.168218	0.546528	0.500097
C33	C	0.761663	0.048398	0.000090
C34	C	1.261663	0.548398	0.500090
C35	C	0.473449	0.042638	0.000111
C36	C	0.973449	0.542638	0.500111
C37	C	0.379997	0.040767	0.000117
C38	C	0.879997	0.540767	0.500117
C39	C	0.372448	0.213465	0.000100
C40	C	0.872448	0.713465	0.500100
C41	C	0.465893	0.215334	0.000092
C42	C	0.965893	0.715334	0.500092
C43	C	0.516390	0.129917	0.000097
C44	C	1.016390	0.629917	0.500097
C45	C	1.059755	-0.042377	0.000104
C46	C	1.559755	0.457623	0.500104
C47	C	1.049594	-0.147614	0.000104
C48	C	1.549594	0.352386	0.500104
C49	C	1.031018	-0.340297	0.000088
C50	C	1.531018	0.159703	0.500088
C51	C	1.103085	-0.397848	0.000093
C52	C	1.603085	0.102152	0.500093
C53	C	1.092748	-0.505063	0.000084
C54	C	1.592748	-0.005063	0.500084
C55	C	1.041353	-0.233071	0.000097
C56	C	1.541353	0.266929	0.500097
C57	C	1.230047	0.124195	0.000109
C58	C	1.730047	0.624195	0.500109
C59	C	1.329501	0.126178	0.000112
C60	C	1.829501	0.626178	0.500112
C61	C	1.074351	0.304238	0.000083
C62	C	1.574351	0.804238	0.500083
C63	C	1.084512	0.409475	0.000077
C64	C	1.584512	0.909475	0.500077
N65	N	1.067033	0.130916	0.246753
N66	N	1.567033	0.630916	0.746753
N67	N	1.067080	0.130937	-0.246564
N68	N	1.567080	0.630937	0.253436
C69	C	1.122726	0.066566	0.296581
C70	C	1.622726	0.566566	0.796581
C71	C	1.122732	0.066566	0.396238
C72	C	1.622732	0.566566	0.896238
C73	C	1.067049	0.130921	0.446066
C74	C	1.567049	0.630921	0.946066
C75	C	1.011350	0.195274	0.396232
C76	C	1.511350	0.695274	0.896232
C77	C	1.011340	0.195269	0.296576
C78	C	1.511340	0.695269	0.796576
C79	C	1.011376	0.195281	0.603946
C80	C	1.511376	0.695281	1.103946
C81	C	1.011387	0.195287	0.703609
C82	C	1.511387	0.695287	1.203609
C83	C	1.122768	0.066577	0.703608
C84	C	1.622768	0.566577	1.203608
C85	C	1.122758	0.066573	0.603953
C86	C	1.622758	0.566573	1.103953
C87	C	1.067060	0.130927	0.554125
C88	C	1.567060	0.630927	1.054125
H89	H	0.619551	0.288775	0.000074
H90	H	1.119551	0.788775	0.500074
H91	H	0.966018	0.247683	0.563379
H92	H	1.466018	0.747683	1.063379
O93	O	0.816127	-0.043727	0.000100
O94	O	1.316127	0.456273	0.500100
H95	H	0.888320	-0.027765	0.000106
H96	H	1.388320	0.472235	0.500106
O97	O	0.621896	-0.047610	0.000112
O98	O	1.121896	0.452390	0.500112
H99	H	0.641639	-0.088652	0.064649
H100	H	1.141639	0.411348	0.564649
H101	H	1.172546	-0.366598	0.000036
H102	H	1.672546	0.133402	0.500036
O103	O	0.333669	-0.053367	0.000142
O104	O	0.833669	0.446633	0.500142
H105	H	0.384479	-0.112449	0.000161
H106	H	0.884479	0.387551	0.500161
O107	O	0.527910	-0.049494	0.000116
O108	O	1.027910	0.450506	0.500116
H109	H	0.570660	-0.052782	0.064647
H110	H	1.070660	0.447218	0.564647
H111	H	0.961562	-0.371545	0.000079
H112	H	1.461562	0.128455	0.500079
O113	O	1.182780	-0.002849	0.242838
O114	O	1.682780	0.497151	0.742838
H115	H	1.221500	-0.047603	0.294234
H116	H	1.721500	0.452397	0.794234
H117	H	1.168080	0.014166	0.436808
H118	H	1.668080	0.514166	0.936808
O119	O	0.951297	0.264696	0.449968
O120	O	1.451297	0.764696	0.949968
H121	H	0.904646	0.224724	0.495396
H122	H	1.404646	0.724724	0.995396
H123	H	1.168104	0.014175	0.563383
H124	H	1.668104	0.514175	1.063383
O125	O	1.182838	-0.002844	0.757342
O126	O	1.682838	0.497156	1.257342
H127	H	1.173484	0.007959	0.835010
H128	H	1.673484	0.507959	1.335010
H129	H	0.965988	0.247669	0.256007
H130	H	1.465988	0.747669	0.756007
O131	O	0.800431	0.315232	0.000061
O132	O	1.300431	0.815232	0.500061
H133	H	0.749614	0.374308	0.000073
H134	H	1.249614	0.874308	0.500073
O135	O	0.512222	0.309468	0.000092
O136	O	1.012222	0.809468	0.500092
H137	H	0.461411	0.368551	0.000103
H138	H	0.961411	0.868551	0.500103
O139	O	0.951312	0.264677	0.757358
O140	O	1.451312	0.764677	1.257358
H141	H	0.912564	0.309411	0.705969
H142	H	1.412564	0.809411	1.205969
H143	H	0.331329	0.283015	0.000099
H144	H	0.831329	0.783015	0.500099
