data_functionalizedCrystal
_audit_creation_method	'MofGen! by Chris Wilmer'
_symmetry_space_group_name_H-M	'P1'
_symmetry_Int_Tables_number	1
_symmetry_cell_setting	triclinic
loop_
_symmetry_equiv_pos_as_xyz
  x,y,z
_cell_length_a	15.944551
_cell_length_b	23.532407
_cell_length_c	15.021413
_cell_angle_alpha	89.999348
_cell_angle_beta	89.997174
_cell_angle_gamma	83.173708
loop_
_atom_site_label
_atom_site_type_symbol
_atom_site_fract_x
_atom_site_fract_y
_atom_site_fract_z
O1	O	1.113910	0.073442	-0.073949
O2	O	1.447243	0.406776	0.259385
O3	O	1.780577	0.740109	0.592718
O4	O	0.869284	0.082498	-0.073972
O5	O	1.202617	0.415831	0.259361
O6	O	1.535951	0.749164	0.592695
O7	O	0.998974	-0.004933	-0.073943
O8	O	1.332307	0.328400	0.259390
O9	O	1.665640	0.661734	0.592723
O10	O	0.984220	0.160873	-0.073977
O11	O	1.317554	0.494206	0.259356
O12	O	1.650887	0.827540	0.592689
O13	O	0.998953	-0.004921	0.074121
O14	O	1.332286	0.328413	0.407454
O15	O	1.665620	0.661746	0.740788
O16	O	0.869263	0.082510	0.074092
O17	O	1.202597	0.415844	0.407426
O18	O	1.535930	0.749177	0.740759
O19	O	1.113889	0.073455	0.074116
O20	O	1.447223	0.406788	0.407449
O21	O	1.780556	0.740121	0.740782
Zn22	Zn	0.991573	0.077985	0.097612
Zn23	Zn	1.324906	0.411318	0.430946
Zn24	Zn	1.658240	0.744651	0.764279
Zn25	Zn	0.991600	0.077968	-0.097469
Zn26	Zn	1.324934	0.411301	0.235865
Zn27	Zn	1.658267	0.744635	0.569198
O28	O	0.984200	0.160886	0.074087
O29	O	1.317533	0.494219	0.407420
O30	O	1.650866	0.827552	0.740754
C31	C	0.837983	0.082128	0.000057
C32	C	1.171316	0.415461	0.333391
C33	C	1.504650	0.748795	0.666724
C34	C	0.744746	0.081001	0.000049
C35	C	1.078080	0.414334	0.333383
C36	C	1.411413	0.747668	0.666716
C37	C	0.998588	-0.026144	0.000091
C38	C	1.331921	0.307189	0.333424
C39	C	1.665254	0.640522	0.666758
C40	C	0.997458	-0.089366	0.000098
C41	C	1.330791	0.243968	0.333431
C42	C	1.664125	0.577301	0.666765
C43	C	0.530369	0.024113	0.000078
C44	C	0.863702	0.357447	0.333412
C45	C	1.197036	0.690780	0.666745
C46	C	0.469137	0.050524	-0.072931
C47	C	0.802470	0.383857	0.260403
C48	C	1.135803	0.717191	0.593736
C49	C	0.574038	0.078962	0.000060
C50	C	0.907371	0.412295	0.333394
C51	C	1.240704	0.745629	0.666727
C52	C	0.469138	0.050549	0.073049
C53	C	0.802472	0.383883	0.406382
C54	C	1.135805	0.717216	0.739716
C55	C	0.409142	0.076989	0.000075
C56	C	0.742475	0.410322	0.333408
C57	C	1.075808	0.743655	0.666741
C58	C	0.514033	0.105388	-0.073009
C59	C	0.847367	0.438721	0.260324
C60	C	1.180700	0.772054	0.593658
C61	C	0.514041	0.105405	0.073036
C62	C	0.847375	0.438739	0.406370
C63	C	1.180708	0.772072	0.739703
C64	C	0.452826	0.131856	0.000010
C65	C	0.786159	0.465189	0.333343
C66	C	1.119493	0.798523	0.666676
C67	C	0.669030	0.080097	0.000051
C68	C	1.002364	0.413431	0.333384
C69	C	1.335697	0.746764	0.666718
C70	C	0.314150	0.075858	0.000077
C71	C	0.647483	0.409191	0.333411
C72	C	0.980817	0.742524	0.666744
C73	C	1.067121	-0.488199	0.000056
C74	C	1.400454	-0.154866	0.333389
C75	C	1.733788	0.178468	0.666722
C76	C	1.066072	-0.547603	0.000049
C77	C	1.399405	-0.214270	0.333382
C78	C	1.732738	0.119063	0.666716
O79	O	1.130650	-0.584098	0.000022
O80	O	1.463983	-0.250764	0.333355
O81	O	1.797317	0.082569	0.666689
N82	N	0.988971	-0.570528	0.000042
N83	N	1.322305	-0.237195	0.333375
N84	N	1.655638	0.096139	0.666709
C85	C	0.912915	-0.534045	0.000033
C86	C	1.246249	-0.200712	0.333367
C87	C	1.579582	0.132622	0.666700
O88	O	0.847239	-0.558999	0.000026
O89	O	1.180572	-0.225666	0.333359
O90	O	1.513906	0.107667	0.666693
C91	C	0.913965	-0.474642	0.000034
C92	C	1.247299	-0.141309	0.333367
C93	C	1.580632	0.192025	0.666700
C94	C	0.991071	-0.451721	0.000049
C95	C	1.324404	-0.118387	0.333383
C96	C	1.657737	0.214946	0.666716
C97	C	1.144220	-0.465277	0.000070
C98	C	1.477554	-0.131944	0.333404
C99	C	1.810887	0.201390	0.666737
C100	C	1.145269	-0.405877	0.000079
C101	C	1.478603	-0.072543	0.333412
C102	C	1.811936	0.260790	0.666746
C103	C	1.069219	-0.369399	0.000073
C104	C	1.402552	-0.036065	0.333406
C105	C	1.735886	0.297268	0.666739
C106	C	0.992120	-0.392320	0.000058
C107	C	1.325453	-0.058987	0.333391
C108	C	1.658786	0.274346	0.666725
C109	C	0.837910	-0.438160	0.000018
C110	C	1.171243	-0.104827	0.333352
C111	C	1.504577	0.228507	0.666685
C112	C	0.838967	-0.378754	0.000018
C113	C	1.172300	-0.045420	0.333352
C114	C	1.505634	0.287913	0.666685
C115	C	0.916072	-0.355832	0.000034
C116	C	1.249406	-0.022499	0.333367
C117	C	1.582739	0.310834	0.666701
C118	C	0.917118	-0.296442	0.000060
C119	C	1.250452	0.036891	0.333394
C120	C	1.583785	0.370225	0.666727
N121	N	0.994219	-0.273517	0.000067
N122	N	1.327552	0.059816	0.333400
N123	N	1.660886	0.393150	0.666734
C124	C	1.070269	-0.309995	0.000073
C125	C	1.403602	0.023338	0.333407
C126	C	1.736936	0.356671	0.666740
C127	C	0.910716	-0.658796	0.000031
C128	C	1.244049	-0.325463	0.333364
C129	C	1.577382	0.007870	0.666697
C130	C	0.909664	-0.718198	0.000037
C131	C	1.242998	-0.384865	0.333370
C132	C	1.576331	-0.051531	0.666703
C133	C	1.062821	-0.731752	0.000050
C134	C	1.396155	-0.398419	0.333384
C135	C	1.729488	-0.065086	0.666717
C136	C	1.063872	-0.672349	0.000051
C137	C	1.397205	-0.339016	0.333384
C138	C	1.730538	-0.005682	0.666718
C139	C	0.987816	-0.635871	0.000037
C140	C	1.321149	-0.302538	0.333371
C141	C	1.654483	0.030795	0.666704
C142	C	1.072466	-0.185250	0.000092
C143	C	1.405800	0.148083	0.333425
C144	C	1.739133	0.481417	0.666759
C145	C	1.073508	-0.125844	0.000104
C146	C	1.406842	0.207489	0.333437
C147	C	1.740175	0.540823	0.666771
C148	C	0.920352	-0.112295	0.000085
C149	C	1.253685	0.221038	0.333419
C150	C	1.587019	0.554371	0.666752
C151	C	0.919309	-0.171696	0.000078
C152	C	1.252643	0.161637	0.333411
C153	C	1.585976	0.494971	0.666745
C154	C	0.995373	-0.208173	0.000078
C155	C	1.328707	0.125161	0.333411
C156	C	1.662040	0.458494	0.666745
O157	O	0.852574	-0.259913	0.000083
O158	O	1.185907	0.073421	0.333417
O159	O	1.519241	0.406754	0.666750
O160	O	1.135935	-0.285033	0.000069
O161	O	1.469268	0.048300	0.333402
O162	O	1.802601	0.381634	0.666735
C163	C	1.145190	0.073824	0.000084
C164	C	1.478524	0.407158	0.333418
C165	C	1.811857	0.740491	0.666751
C166	C	1.238427	0.074951	0.000087
C167	C	1.571760	0.408285	0.333420
C168	C	1.905094	0.741618	0.666753
C169	C	0.984586	0.182097	0.000051
C170	C	1.317919	0.515430	0.333384
C171	C	1.651252	0.848764	0.666717
C172	C	0.985715	0.245318	0.000038
C173	C	1.319049	0.578652	0.333371
C174	C	1.652382	0.911985	0.666705
N175	N	0.991561	0.077995	0.230750
N176	N	1.324894	0.411329	0.564083
N177	N	1.658227	0.744662	0.897417
N178	N	0.991619	0.077953	-0.230606
N179	N	1.324953	0.411286	0.102727
N180	N	1.658286	0.744619	0.436060
C181	C	0.931583	0.118404	0.470420
C182	C	1.264917	0.451738	0.803753
C183	C	1.598250	0.785071	1.137087
C184	C	1.007390	0.129461	0.529759
C185	C	1.340724	0.462794	0.863092
C186	C	1.674057	0.796127	1.196426
C187	C	0.991582	0.077981	0.412357
C188	C	1.324916	0.411314	0.745690
C189	C	1.658249	0.744648	1.079024
C190	C	0.915796	0.066938	0.529760
C191	C	1.249129	0.400271	0.863093
C192	C	1.582462	0.733604	1.196426
C193	C	0.991596	0.077969	0.587781
C194	C	1.324930	0.411302	0.921114
C195	C	1.658263	0.744635	1.254448
C196	C	1.067428	0.089063	0.470389
C197	C	1.400761	0.422396	0.803723
C198	C	1.734094	0.755730	1.137056
C199	C	0.975783	0.026518	0.470385
C200	C	1.309116	0.359851	0.803718
C201	C	1.642450	0.693184	1.137051
C202	C	1.051645	0.037552	0.529697
C203	C	1.384979	0.370885	0.863030
C204	C	1.718312	0.704219	1.196364
C205	C	0.991573	0.077990	0.311300
C206	C	1.324906	0.411323	0.644633
C207	C	1.658240	0.744656	0.977966
C208	C	0.991614	0.077960	0.688836
C209	C	1.324948	0.411293	1.022170
C210	C	1.658281	0.744626	1.355503
H211	H	0.564086	-0.021407	-0.000003
H212	H	0.897419	0.311927	0.333331
H213	H	1.230752	0.645260	0.666664
H214	H	0.419284	0.177423	-0.000040
H215	H	0.752617	0.510756	0.333293
H216	H	1.085950	0.844089	0.666626
Br217	Br	0.817146	-0.062778	0.000077
Br218	Br	1.150479	0.270555	0.333411
Br219	Br	1.483813	0.603889	0.666744
Br220	Br	0.735742	-0.329251	-0.000004
Br221	Br	1.069076	0.004082	0.333329
Br222	Br	1.402409	0.337416	0.666662
Br223	Br	0.547029	0.144018	-0.175999
Br224	Br	0.880362	0.477351	0.157335
Br225	Br	1.213696	0.810684	0.490668
Br226	Br	0.435961	0.011853	-0.175796
Br227	Br	0.769294	0.345186	0.157537
Br228	Br	1.102628	0.678519	0.490870
Br229	Br	1.029688	0.201989	0.573227
Br230	Br	1.363022	0.535322	0.906560
Br231	Br	1.696355	0.868656	1.239894
Br232	Br	0.435971	0.011877	0.175923
Br233	Br	0.769304	0.345210	0.509256
Br234	Br	1.102637	0.678544	0.842589
Br235	Br	0.733260	-0.469252	-0.000006
Br236	Br	1.066594	-0.135919	0.333327
Br237	Br	1.399927	0.197415	0.666660
Br238	Br	0.953451	-0.045991	0.426879
Br239	Br	1.286784	0.287343	0.760212
Br240	Br	1.620117	0.620676	1.093546
H241	H	1.131539	0.098450	0.444420
H242	H	1.464872	0.431784	0.777754
H243	H	1.798205	0.765117	1.111087
Br244	Br	1.166034	-0.781270	0.000055
Br245	Br	1.499367	-0.447937	0.333389
Br246	Br	1.832700	-0.114603	0.666722
H247	H	1.102446	0.003360	0.555561
H248	H	1.435779	0.336693	0.888894
H249	H	1.769112	0.670027	1.222227
H250	H	0.851698	0.057603	0.555841
H251	H	1.185032	0.390936	0.889174
H252	H	1.518365	0.724269	1.222507
H253	H	1.136300	-0.107185	0.000119
H254	H	1.469633	0.226148	0.333453
H255	H	1.802966	0.559481	0.666786
Br256	Br	1.175697	-0.234745	0.000091
Br257	Br	1.509030	0.098588	0.333424
Br258	Br	1.842363	0.431922	0.666758
Br259	Br	0.547258	0.144050	0.175904
Br260	Br	0.880592	0.477383	0.509237
Br261	Br	1.213925	0.810717	0.842570
H262	H	1.206153	-0.494973	0.000072
H263	H	1.539487	-0.161639	0.333406
H264	H	1.872820	0.171694	0.666739
Br265	Br	1.249918	-0.374779	0.000075
Br266	Br	1.583251	-0.041446	0.333409
Br267	Br	1.916585	0.291888	0.666742
H268	H	1.126658	-0.653691	0.000063
H269	H	1.459991	-0.320358	0.333396
H270	H	1.793324	0.012976	0.666730
H271	H	0.880895	0.152617	0.444393
H272	H	1.214228	0.485950	0.777727
H273	H	1.547561	0.819283	1.111060
Br274	Br	0.814666	-0.202805	0.000077
Br275	Br	1.147999	0.130528	0.333410
Br276	Br	1.481332	0.463862	0.666744
H277	H	0.846878	-0.736855	0.000039
H278	H	1.180211	-0.403522	0.333372
H279	H	1.513544	-0.070188	0.666706
Br280	Br	0.807487	-0.609296	0.000020
Br281	Br	1.140820	-0.275962	0.333353
Br282	Br	1.474154	0.057371	0.666686
