data_functionalizedCrystal
_audit_creation_method	'MofGen! by Chris Wilmer'
_symmetry_space_group_name_H-M	'P1'
_symmetry_Int_Tables_number	1
_symmetry_cell_setting	triclinic
loop_
_symmetry_equiv_pos_as_xyz
  x,y,z
_cell_length_a	10.540539
_cell_length_b	14.044191
_cell_length_c	13.101018
_cell_angle_alpha	93.666878
_cell_angle_beta	86.605148
_cell_angle_gamma	88.858634
loop_
_atom_site_label
_atom_site_type_symbol
_atom_site_fract_x
_atom_site_fract_y
_atom_site_fract_z
O1	O	0.299894	1.264955	0.085156
O2	O	0.633227	1.598289	0.418489
O3	O	0.966561	1.931622	0.751823
O4	O	0.288832	0.988912	0.085169
O5	O	0.622166	1.322245	0.418503
O6	O	0.955499	1.655578	0.751836
O7	O	0.110294	1.133231	0.085161
O8	O	0.443627	1.466565	0.418494
O9	O	0.776960	1.799898	0.751828
O10	O	0.478433	1.120636	0.085164
O11	O	0.811766	1.453969	0.418498
O12	O	1.145099	1.787303	0.751831
O13	O	0.123115	1.122865	-0.085269
O14	O	0.456448	1.456198	0.248065
O15	O	0.789781	1.789531	0.581398
O16	O	0.301653	0.978545	-0.085261
O17	O	0.634986	1.311878	0.248073
O18	O	0.968320	1.645212	0.581406
O19	O	0.312715	1.254589	-0.085274
O20	O	0.646048	1.587922	0.248060
O21	O	0.979382	1.921255	0.581393
Zn22	Zn	0.309220	1.114921	-0.112327
Zn23	Zn	0.642553	1.448254	0.221007
Zn24	Zn	0.975886	1.781588	0.554340
Zn25	Zn	0.292328	1.128579	0.112222
Zn26	Zn	0.625661	1.461913	0.445555
Zn27	Zn	0.958994	1.795246	0.778889
O28	O	0.491254	1.110269	-0.085266
O29	O	0.824587	1.443602	0.248068
O30	O	1.157920	1.776936	0.581401
C31	C	0.290404	0.948381	-0.000044
C32	C	0.623737	1.281715	0.333289
C33	C	0.957070	1.615048	0.666623
C34	C	0.275970	0.843058	-0.000039
C35	C	0.609303	1.176391	0.333295
C36	C	0.942637	1.509725	0.666628
C37	C	0.351949	0.593285	-0.000048
C38	C	0.685282	0.926619	0.333285
C39	C	1.018615	1.259952	0.666618
C40	C	0.249604	0.650221	-0.000047
C41	C	0.582937	0.983555	0.333286
C42	C	0.916270	1.316888	0.666619
C43	C	0.264277	0.757525	-0.000043
C44	C	0.597611	1.090859	0.333291
C45	C	0.930944	1.424192	0.666624
C46	C	0.337277	0.485971	-0.000053
C47	C	0.670610	0.819305	0.333280
C48	C	1.003943	1.152638	0.666614
C49	C	0.069305	1.127103	-0.000052
C50	C	0.402639	1.460437	0.333281
C51	C	0.735972	1.793770	0.666615
C52	C	-0.071929	1.124278	-0.000046
C53	C	0.261405	1.457611	0.333287
C54	C	0.594738	1.790944	0.666620
C55	C	-0.266336	1.016012	0.000341
C56	C	0.066997	1.349345	0.333675
C57	C	0.400330	1.682678	0.667008
C58	C	-0.119400	1.018853	-0.000042
C59	C	0.213934	1.352187	0.333291
C60	C	0.547267	1.685520	0.666624
C61	C	-0.121134	1.169093	-0.097373
C62	C	0.212199	1.502426	0.235961
C63	C	0.545533	1.835759	0.569294
C64	C	-0.268036	1.165490	-0.097454
C65	C	0.065297	1.498823	0.235879
C66	C	0.398630	1.832156	0.569212
C67	C	-0.282917	1.179423	0.096356
C68	C	0.050416	1.512756	0.429689
C69	C	0.383749	1.846090	0.763023
C70	C	-0.135934	1.180472	0.097643
C71	C	0.197399	1.513805	0.430976
C72	C	0.530733	1.847139	0.764309
C73	C	0.532242	1.116397	-0.000050
C74	C	0.865575	1.449730	0.333283
C75	C	1.198908	1.783064	0.666616
C76	C	0.673475	1.119223	-0.000049
C77	C	1.006809	1.452557	0.333284
C78	C	1.340142	1.785890	0.666617
C79	C	0.311143	1.295119	-0.000058
C80	C	0.644477	1.628453	0.333275
C81	C	0.977810	1.961786	0.666608
C82	C	0.325577	1.400443	-0.000057
C83	C	0.658910	1.733776	0.333276
C84	C	0.992243	2.067110	0.666610
N85	N	0.320748	1.105606	-0.265575
N86	N	0.654081	1.438940	0.067758
N87	N	0.987415	1.772273	0.401092
C88	C	0.265100	1.150570	-0.525487
C89	C	0.598433	1.483903	-0.192154
C90	C	0.931766	1.817236	0.141180
C91	C	0.336434	1.092941	-0.474611
C92	C	0.669768	1.426275	-0.141278
C93	C	1.003101	1.759608	0.192056
C94	C	0.327704	1.099990	-0.358293
C95	C	0.661037	1.433323	-0.024959
C96	C	0.994371	1.766657	0.308374
C97	C	0.273829	1.143522	-0.641816
C98	C	0.607162	1.476856	-0.308483
C99	C	0.940495	1.810189	0.024851
N100	N	0.280790	1.137902	0.265470
N101	N	0.614123	1.471235	0.598804
N102	N	0.947457	1.804568	0.932137
H103	H	-0.086082	0.983176	0.069725
H104	H	0.247251	1.316509	0.403058
H105	H	0.580585	1.649843	0.736392
Cl106	Cl	-0.074115	1.288285	-0.102972
Cl107	Cl	0.259219	1.621618	0.230362
Cl108	Cl	0.592552	1.954952	0.563695
Cl109	Cl	-0.345508	1.133661	0.210248
Cl110	Cl	-0.012175	1.466995	0.543581
Cl111	Cl	0.321158	1.800328	0.876914
Cl112	Cl	0.504233	0.642447	-0.000034
Cl113	Cl	0.837566	0.975780	0.333299
Cl114	Cl	1.170899	1.309113	0.666632
H115	H	0.404063	1.038311	-0.518413
H116	H	0.737397	1.371644	-0.185080
H117	H	1.070730	1.704978	0.148254
H118	H	-0.076651	1.129444	-0.169796
H119	H	0.256683	1.462778	0.163537
H120	H	0.590016	1.796111	0.496871
Cl121	Cl	-0.329749	1.282130	-0.104292
Cl122	Cl	0.003584	1.615463	0.229042
Cl123	Cl	0.336917	1.948797	0.562375
Cl124	Cl	0.097309	0.601062	-0.000048
Cl125	Cl	0.430642	0.934396	0.333286
Cl126	Cl	0.763975	1.267729	0.666619
H127	H	0.197477	1.205198	-0.481690
H128	H	0.530811	1.538531	-0.148357
H129	H	0.864144	1.871864	0.184976
H130	H	-0.304398	0.978612	0.070136
H131	H	0.028935	1.311945	0.403469
H132	H	0.362268	1.645279	0.736803
H133	H	-0.295518	0.970315	-0.069058
H134	H	0.037816	1.303648	0.264275
H135	H	0.371149	1.636981	0.597609
H136	H	-0.294555	1.123569	-0.170204
H137	H	0.038778	1.456902	0.163129
H138	H	0.372112	1.790236	0.496463
Cl139	Cl	-0.086215	1.130400	0.208823
Cl140	Cl	0.247118	1.463734	0.542156
Cl141	Cl	0.580452	1.797067	0.875490
Cl142	Cl	-0.053083	0.950221	-0.107930
Cl143	Cl	0.280251	1.283554	0.225403
Cl144	Cl	0.613584	1.616887	0.558737
Cl145	Cl	-0.087215	1.299695	0.106719
Cl146	Cl	0.246118	1.633028	0.440052
Cl147	Cl	0.579451	1.966362	0.773385
H148	H	-0.322491	1.255610	0.097007
H149	H	0.010842	1.588944	0.430340
H150	H	0.344175	1.922277	0.763674
