data_functionalizedCrystal
_audit_creation_method	'MofGen! by Chris Wilmer'
_symmetry_space_group_name_H-M	'P1'
_symmetry_Int_Tables_number	1
_symmetry_cell_setting	triclinic
loop_
_symmetry_equiv_pos_as_xyz
  x,y,z
_cell_length_a	8.559649
_cell_length_b	15.944551
_cell_length_c	7.088929
_cell_angle_alpha	83.774879
_cell_angle_beta	95.325015
_cell_angle_gamma	76.638701
loop_
_atom_site_label
_atom_site_type_symbol
_atom_site_fract_x
_atom_site_fract_y
_atom_site_fract_z
O1	O	2.103727	-0.018804	-0.158956
O2	O	1.638526	0.024575	-0.158968
O3	O	1.883832	-0.120210	-0.158944
O4	O	1.858421	0.125981	-0.158979
O5	O	1.916614	-0.139599	0.159034
O6	O	1.671309	0.005187	0.159010
O7	O	2.136509	-0.038193	0.159023
Cu8	Cu	1.906902	-0.018273	0.188050
Cu9	Cu	1.868133	0.004656	-0.187996
O10	O	1.891203	0.106593	0.158999
C11	C	1.595388	0.018169	0.000020
C12	C	1.418008	0.027954	0.000015
C13	C	1.899168	-0.161130	0.000045
C14	C	1.896006	-0.254172	0.000046
C15	C	1.736394	-0.458727	0.000015
C16	C	1.826675	-0.534087	0.156800
C17	C	1.890284	-0.424528	0.000031
C18	C	1.794391	-0.514957	-0.156702
C19	C	1.884745	-0.589082	0.000009
C20	C	1.980621	-0.498671	0.156945
C21	C	1.948300	-0.479525	-0.156697
C22	C	2.038697	-0.554877	0.000126
C23	C	1.893471	-0.329732	0.000046
C24	C	1.881571	-0.683878	0.000008
C25	C	2.179647	-0.031786	0.000031
C26	C	2.357025	-0.041571	0.000022
C27	C	1.875866	0.147513	0.000005
C28	C	1.879027	0.240556	-0.000008
N29	N	1.934182	-0.034401	0.452541
N30	N	1.840866	0.020776	-0.452487
H31	H	1.440515	-0.108579	0.000023
C32	C	1.710202	0.098023	0.437214
C33	C	1.530973	0.106610	0.464077
C34	C	1.400306	0.183858	0.353764
C35	C	1.448869	0.252518	0.216587
C36	C	1.628106	0.243933	0.189717
C37	C	1.758773	0.166685	0.300030
H38	H	1.495016	0.055782	0.565630
H39	H	1.267622	0.190213	0.373655
H40	H	1.352141	0.309702	0.134926
H41	H	1.664063	0.294761	0.088164
H42	H	1.891457	0.160330	0.280139
H43	H	1.334507	0.094969	-0.000005
C44	C	2.017697	-0.447074	-0.335760
C45	C	2.172339	-0.413431	-0.314417
C46	C	2.241720	-0.380975	-0.493498
C47	C	2.156459	-0.382163	-0.693922
C48	C	2.001808	-0.415808	-0.715274
C49	C	1.932427	-0.448263	-0.536193
H50	H	2.235462	-0.412550	-0.166044
H51	H	2.356203	-0.356069	-0.477691
H52	H	2.207819	-0.358138	-0.826489
H53	H	1.938685	-0.416688	-0.863647
H54	H	1.817944	-0.473169	-0.551999
H55	H	1.608676	-0.417185	0.000169
C56	C	1.687975	-0.525501	-0.335765
C57	C	1.507505	-0.477773	-0.370166
C58	C	1.401078	-0.488313	-0.549218
C59	C	1.475122	-0.546580	-0.693869
C60	C	1.655602	-0.594311	-0.659473
C61	C	1.762028	-0.583772	-0.480421
H62	H	1.452684	-0.434637	-0.263083
H63	H	1.267474	-0.452979	-0.574680
H64	H	1.396338	-0.554382	-0.826414
H65	H	1.710422	-0.637448	-0.766556
H66	H	1.895632	-0.619106	-0.454959
H67	H	2.166552	-0.596292	0.000218
H68	H	2.030912	-0.091580	0.534206
H69	H	1.775252	-0.558076	0.289345
H70	H	2.059335	-0.490968	0.289640
