data_functionalizedCrystal
_audit_creation_method	'MofGen! by Chris Wilmer'
_symmetry_space_group_name_H-M	'P1'
_symmetry_Int_Tables_number	1
_symmetry_cell_setting	triclinic
loop_
_symmetry_equiv_pos_as_xyz
  x,y,z
_cell_length_a	13.033293
_cell_length_b	21.295417
_cell_length_c	13.032268
_cell_angle_alpha	97.141788
_cell_angle_beta	89.079182
_cell_angle_gamma	97.198682
loop_
_atom_site_label
_atom_site_type_symbol
_atom_site_fract_x
_atom_site_fract_y
_atom_site_fract_z
Zn1	Zn	1.498398	-0.195847	-0.781445
Zn2	Zn	1.998398	0.304153	-0.281445
Zn3	Zn	1.520112	-0.286310	-0.609455
Zn4	Zn	2.020112	0.213690	-0.109455
Zn5	Zn	1.348260	-0.192522	-0.587621
Zn6	Zn	1.848260	0.307478	-0.087621
Zn7	Zn	1.326354	-0.312551	-0.759490
Zn8	Zn	1.826354	0.187449	-0.259490
O9	O	1.423281	-0.246808	-0.684503
O10	O	1.923281	0.253192	-0.184503
O11	O	1.645201	-0.198256	-0.776956
O12	O	2.145201	0.301744	-0.276956
O13	O	1.515570	-0.261495	-0.462652
O14	O	2.015570	0.238505	0.037348
O15	O	1.368256	-0.104872	-0.613383
O16	O	1.868256	0.395128	-0.113383
O17	O	1.661153	-0.264718	-0.650595
O18	O	2.161153	0.235282	-0.150595
O19	O	1.478563	-0.107314	-0.755785
O20	O	1.978563	0.392686	-0.255785
O21	O	1.389311	-0.192590	-0.446611
O22	O	1.889311	0.307410	0.053389
O23	O	1.201432	-0.218036	-0.592094
O24	O	1.701432	0.281964	-0.092094
O25	O	1.330921	-0.309444	-0.906308
O26	O	1.830921	0.190556	-0.406308
O27	O	1.185338	-0.306220	-0.718365
O28	O	1.685338	0.193780	-0.218365
O29	O	1.457322	-0.223701	-0.922439
O30	O	1.957322	0.276299	-0.422439
O31	O	1.494329	-0.377882	-0.629306
O32	O	1.994329	0.122118	-0.129306
O33	O	1.351976	-0.397162	-0.739536
O34	O	1.851976	0.102838	-0.239536
C35	C	1.156068	-0.264615	-0.650479
C36	C	1.656068	0.235385	-0.150479
C37	C	1.041749	-0.272251	-0.635948
C38	C	1.541749	0.227749	-0.135948
C39	C	0.982877	-0.242838	-0.692086
C40	C	1.482877	0.257162	-0.192086
C41	C	0.864723	-0.250729	-0.677069
C42	C	1.364723	0.249271	-0.177069
C43	C	1.423156	-0.410363	-0.684434
C44	C	1.923156	0.089637	-0.184434
C45	C	1.423193	-0.480330	-0.684451
C46	C	1.923193	0.019670	-0.184451
C47	C	1.480586	-0.514418	-0.758642
C48	C	1.980586	-0.014418	-0.258642
C49	C	1.480619	-0.580160	-0.758672
C50	C	1.980619	-0.080160	-0.258672
C51	C	1.423272	-0.611810	-0.684494
C52	C	1.923272	-0.111810	-0.184494
C53	C	1.365867	-0.577715	-0.610297
C54	C	1.865867	-0.077715	-0.110297
C55	C	1.365828	-0.511975	-0.610276
C56	C	1.865828	-0.011975	-0.110276
N57	N	1.426941	-0.707836	-0.593510
N58	N	1.926941	-0.207836	-0.093510
N59	N	1.426984	-0.770286	-0.593534
N60	N	1.926984	-0.270286	-0.093534
C61	C	1.423386	-0.809880	-0.684556
C62	C	1.923386	-0.309880	-0.184556
N63	N	1.419763	-0.784665	-0.775557
N64	N	1.919763	-0.284665	-0.275557
N65	N	1.419726	-0.722208	-0.775532
N66	N	1.919726	-0.222208	-0.275532
C67	C	1.423308	-0.683094	-0.684509
C68	C	1.923308	-0.183094	-0.184509
C69	C	1.480818	-0.915254	-0.758785
C70	C	1.980818	-0.415254	-0.258785
C71	C	1.480844	-0.980998	-0.758816
C72	C	1.980844	-0.480998	-0.258816
C73	C	1.366099	-0.978550	-0.610433
C74	C	1.866099	-0.478550	-0.110433
C75	C	1.366066	-0.912808	-0.610410
C76	C	1.866066	-0.412808	-0.110410
C77	C	1.423432	-0.881164	-0.684586
C78	C	1.923432	-0.381164	-0.184586
C79	C	1.691538	-0.228931	-0.718660
C80	C	2.191538	0.271069	-0.218660
C81	C	1.805853	-0.221313	-0.733216
C82	C	2.305853	0.278687	-0.233216
C83	C	1.389256	-0.269871	-0.952730
C84	C	1.889256	0.230129	-0.452730
C85	C	1.374756	-0.279699	-1.067032
C86	C	1.874756	0.220301	-0.567032
C87	C	1.423431	-0.082613	-0.684598
C88	C	1.923431	0.417387	-0.184598
C89	C	1.423495	-0.012643	-0.684638
C90	C	1.923495	0.487357	-0.184638
C91	C	1.430832	-0.241657	-1.125973
C92	C	1.930832	0.258343	-0.625973
C93	C	1.415848	-0.251814	-1.244111
C94	C	1.915848	0.248186	-0.744111
C95	C	1.457233	-0.223785	-0.417326
C96	C	1.957233	0.276215	0.082674
C97	C	1.471932	-0.213766	-0.303050
C98	C	1.971932	0.286234	0.196950
H99	H	1.527293	-0.488655	-0.819042
H100	H	2.027293	0.011345	-0.319042
H101	H	1.319090	-0.484220	-0.549859
H102	H	1.819090	0.015780	-0.049859
H103	H	1.315647	-0.319784	-1.104031
H104	H	1.815647	0.180216	-0.604031
H105	H	1.019948	-0.211813	-0.751263
H106	H	1.519948	0.288187	-0.251263
H107	H	1.531033	-0.173671	-1.266056
H108	H	2.031033	0.326329	-0.766056
O109	O	1.501217	-0.193800	-1.081710
O110	O	2.001217	0.306200	-0.581710
C111	C	1.450524	-0.151730	-1.012159
C112	C	1.950524	0.348270	-0.512159
H113	H	1.374572	-0.177760	-0.986238
H114	H	1.874572	0.322240	-0.486238
H115	H	1.501940	-0.134055	-0.941915
H116	H	2.001940	0.365945	-0.441915
H117	H	1.434068	-0.109359	-1.052081
H118	H	1.934068	0.390641	-0.552081
H119	H	1.319173	-0.603488	-0.549903
H120	H	1.819173	-0.103488	-0.049903
O121	O	1.310344	-0.879599	-0.538434
O122	O	1.810344	-0.379599	-0.038434
C123	C	1.322627	-0.814787	-0.554304
C124	C	1.822627	-0.314787	-0.054304
H125	H	1.346170	-0.810353	-0.637971
H126	H	1.846170	-0.310353	-0.137971
H127	H	1.246474	-0.794378	-0.537449
H128	H	1.746474	-0.294378	-0.037449
H129	H	1.385168	-0.787220	-0.500325
H130	H	1.885168	-0.287220	-0.000325
H131	H	1.527525	-0.889488	-0.819186
H132	H	2.027525	-0.389488	-0.319186
H133	H	1.319398	-1.004319	-0.550041
H134	H	1.819398	-0.504319	-0.050041
O135	O	1.345193	-0.299583	-1.288174
O136	O	1.845193	0.200417	-0.788174
C137	C	1.245999	-0.290434	-1.248939
C138	C	1.745999	0.209566	-0.748939
H139	H	1.244575	-0.237964	-1.218706
H140	H	1.744575	0.262036	-0.718706
H141	H	1.186283	-0.305276	-1.313159
H142	H	1.686283	0.194724	-0.813159
H143	H	1.226926	-0.320663	-1.183227
H144	H	1.726926	0.179337	-0.683227
H145	H	0.827658	-0.281753	-0.617883
H146	H	1.327658	0.218247	-0.117883
H147	H	0.842917	-0.190283	-0.792396
H148	H	1.342917	0.309717	-0.292396
H149	H	1.004680	-0.303273	-0.576765
H150	H	1.504680	0.196727	-0.076765
H151	H	1.527345	-0.607921	-0.819097
H152	H	2.027345	-0.107921	-0.319097
H153	H	1.527579	-1.008751	-0.819235
H154	H	2.027579	-0.508751	-0.319235
