data_functionalizedCrystal
_audit_creation_method	'MofGen! by Chris Wilmer'
_symmetry_space_group_name_H-M	'P1'
_symmetry_Int_Tables_number	1
_symmetry_cell_setting	triclinic
loop_
_symmetry_equiv_pos_as_xyz
  x,y,z
_cell_length_a	16.992694
_cell_length_b	16.109301
_cell_length_c	15.186229
_cell_angle_alpha	89.999641
_cell_angle_beta	89.998303
_cell_angle_gamma	87.064851
loop_
_atom_site_label
_atom_site_type_symbol
_atom_site_fract_x
_atom_site_fract_y
_atom_site_fract_z
O1	O	1.040346	0.176289	0.073103
O2	O	1.540346	0.676289	0.573103
O3	O	0.812061	0.174355	0.073129
O4	O	1.312061	0.674355	0.573129
O5	O	0.932474	0.054709	0.073120
O6	O	1.432474	0.554709	0.573120
O7	O	0.919932	0.295934	0.073113
O8	O	1.419932	0.795934	0.573113
O9	O	0.932465	0.054706	-0.073337
O10	O	1.432465	0.554706	0.426663
O11	O	0.812052	0.174351	-0.073328
O12	O	1.312052	0.674351	0.426672
O13	O	1.040336	0.176285	-0.073354
O14	O	1.540336	0.676285	0.426646
Zn15	Zn	0.926193	0.175317	-0.096594
Zn16	Zn	1.426193	0.675317	0.403406
Zn17	Zn	0.926205	0.175322	0.096370
Zn18	Zn	1.426205	0.675322	0.596370
O19	O	0.919923	0.295931	-0.073345
O20	O	1.419923	0.795931	0.426655
C21	C	0.782844	0.171865	-0.000096
C22	C	1.282844	0.671865	0.499904
C23	C	0.695802	0.164441	-0.000085
C24	C	1.195802	0.664441	0.499915
C25	C	0.645543	0.236067	-0.000088
C26	C	1.145543	0.736067	0.499912
C27	C	0.563758	0.229087	-0.000100
C28	C	1.063758	0.729087	0.499900
C29	C	0.532234	0.150481	-0.000103
C30	C	1.032234	0.650481	0.499897
C31	C	0.582499	0.078849	-0.000103
C32	C	1.082499	0.578849	0.499897
C33	C	0.664282	0.085830	-0.000097
C34	C	1.164282	0.585830	0.499903
C35	C	0.288644	0.121548	-0.000125
C36	C	0.788644	0.621548	0.499875
C37	C	0.206854	0.114572	-0.000128
C38	C	0.706854	0.614572	0.499872
C39	C	0.188119	0.264811	-0.000128
C40	C	0.688119	0.764811	0.499872
C41	C	0.269904	0.271785	-0.000117
C42	C	0.769904	0.771785	0.499883
C43	C	0.320163	0.200154	-0.000121
C44	C	0.820163	0.700154	0.499879
N45	N	0.448637	0.143344	-0.000112
N46	N	0.948637	0.643344	0.499888
N47	N	0.403758	0.207291	-0.000118
N48	N	0.903758	0.707291	0.499882
C49	C	0.931962	0.023699	-0.000105
C50	C	1.431962	0.523699	0.499895
C51	C	0.930439	-0.068698	-0.000096
C52	C	1.430439	0.431302	0.499904
C53	C	1.069553	0.178775	-0.000127
C54	C	1.569553	0.678775	0.499873
C55	C	1.156595	0.186198	-0.000131
C56	C	1.656595	0.686198	0.499869
N57	N	0.926190	0.175314	-0.228287
N58	N	1.426190	0.675314	0.271713
C59	C	0.920435	0.326941	-0.000117
C60	C	1.420435	0.826941	0.499883
C61	C	0.921959	0.419338	-0.000121
C62	C	1.421959	0.919338	0.499879
C63	C	0.854049	0.637079	-0.000100
C64	C	1.354049	1.137079	0.499900
C65	C	0.855487	0.723895	-0.000094
C66	C	1.355487	1.223895	0.499906
C67	C	0.998353	0.713554	-0.000114
C68	C	1.498353	1.213554	0.499886
C69	C	0.996915	0.626740	-0.000114
C70	C	1.496915	1.126740	0.499886
C71	C	0.924761	0.588504	-0.000112
C72	C	1.424761	1.088504	0.499888
C73	C	0.927636	0.762135	-0.000105
C74	C	1.427636	1.262135	0.499895
C75	C	0.929195	0.856265	-0.000098
C76	C	1.429195	1.356265	0.499902
C77	C	0.923202	0.494368	-0.000117
C78	C	1.423202	0.994368	0.499883
C79	C	0.979531	0.122355	-0.546209
C80	C	1.479531	0.622355	-0.046209
C81	C	0.979528	0.122356	-0.454020
C82	C	1.479528	0.622356	0.045980
C83	C	0.872870	0.228284	-0.454022
C84	C	1.372870	0.728284	0.045978
C85	C	0.872877	0.228287	-0.546210
C86	C	1.372877	0.728287	-0.046210
C87	C	0.926206	0.175318	-0.592301
C88	C	1.426206	0.675318	-0.092301
C89	C	0.926197	0.175315	-0.407923
C90	C	1.426197	0.675315	0.092077
C91	C	0.926195	0.175316	-0.307967
C92	C	1.426195	0.675316	0.192033
C93	C	0.926210	0.175319	-0.692264
C94	C	1.426210	0.675319	-0.192264
N95	N	0.926214	0.175319	0.228062
N96	N	1.426214	0.675319	0.728062
H97	H	0.147190	0.323129	-0.000126
H98	H	0.647190	0.823129	0.499874
Br99	Br	0.759517	0.789815	-0.000070
Br100	Br	1.259517	1.289815	0.499930
H101	H	1.022956	0.079226	-0.583735
H102	H	1.522956	0.579226	-0.083735
Br103	Br	1.051904	0.050479	-0.391468
Br104	Br	1.551904	0.550479	0.108532
H105	H	0.556826	0.014846	-0.000117
H106	H	1.056826	0.514846	0.499883
Br107	Br	1.096272	0.765450	-0.000119
Br108	Br	1.596272	1.265450	0.499881
Br109	Br	0.164072	0.007884	-0.000151
Br110	Br	0.664072	0.507884	0.499849
H111	H	1.054501	0.587188	-0.000120
H112	H	1.554501	1.087188	0.499880
Br113	Br	0.800496	0.300166	-0.391466
Br114	Br	1.300496	0.800166	0.108534
H115	H	0.829453	0.271420	-0.583740
H116	H	1.329453	0.771420	-0.083740
Br117	Br	0.756127	0.585190	-0.000095
Br118	Br	1.256127	1.085190	0.499905
H119	H	0.671204	0.300077	-0.000085
H120	H	1.171204	0.800077	0.499915
Br121	Br	0.495552	0.326299	-0.000101
Br122	Br	0.995552	0.826299	0.499899
H123	H	0.329554	0.063220	-0.000130
H124	H	0.829554	0.563220	0.499870
H125	H	0.705203	0.027504	-0.000094
H126	H	1.205203	0.527504	0.499906
H127	H	0.295565	0.335795	-0.000105
H128	H	0.795565	0.835795	0.499895
