data_functionalizedCrystal
_audit_creation_method	'MofGen! by Chris Wilmer'
_symmetry_space_group_name_H-M	'P1'
_symmetry_Int_Tables_number	1
_symmetry_cell_setting	triclinic
loop_
_symmetry_equiv_pos_as_xyz
  x,y,z
_cell_length_a	15.944551
_cell_length_b	15.944499
_cell_length_c	11.804366
_cell_angle_alpha	78.182121
_cell_angle_beta	101.866981
_cell_angle_gamma	83.488174
loop_
_atom_site_label
_atom_site_type_symbol
_atom_site_fract_x
_atom_site_fract_y
_atom_site_fract_z
O1	O	-1.097529	-0.125253	0.098897
O2	O	-0.852972	-0.138614	0.098925
O3	O	-0.981951	-0.009656	0.098912
O4	O	-0.968550	-0.254211	0.098910
O5	O	-1.015936	0.024230	-0.099147
O6	O	-0.886957	-0.104728	-0.099134
O7	O	-1.131514	-0.091367	-0.099163
Cu8	Cu	-1.012338	-0.094954	-0.117233
Cu9	Cu	-0.972147	-0.135028	0.116995
O10	O	-1.002535	-0.220325	-0.099150
C11	C	-0.838670	-0.121118	-0.000101
C12	C	-0.745422	-0.119457	-0.000089
C13	C	-0.998394	0.038581	-0.000114
C14	C	-0.996748	0.131828	-0.000105
C15	C	-1.145815	-0.108864	-0.000134
C16	C	-1.239062	-0.110526	-0.000138
C17	C	-0.530585	-0.035547	-0.000112
C18	C	-0.452801	-0.091218	0.097542
C19	C	-0.574699	-0.116447	-0.000103
C20	C	-0.486330	-0.057828	-0.097729
C21	C	-0.409790	-0.113533	-0.000122
C22	C	-0.498130	-0.172154	0.097631
C23	C	-0.531680	-0.138738	-0.097728
C24	C	-0.453910	-0.194472	-0.000051
C25	C	-0.669699	-0.118124	-0.000092
C26	C	-0.314790	-0.111864	-0.000125
C27	C	-0.986091	-0.268563	-0.000120
C28	C	-0.987736	-0.361811	-0.000122
C29	C	-1.071683	0.423366	-0.000120
C30	C	-1.049487	0.379049	-0.097774
C31	C	-0.990774	0.467467	-0.000118
C32	C	-1.015959	0.345646	0.097497
C33	C	-0.993713	0.302556	-0.000110
C34	C	-0.968570	0.424391	-0.097852
C35	C	-0.935038	0.390979	0.097506
C36	C	-0.912788	0.346683	-0.000171
C37	C	-0.989083	0.562468	-0.000124
C38	C	-0.995399	0.207558	-0.000112
N39	N	-0.943880	-0.163208	0.281739
N40	N	-1.040612	-0.066767	-0.281976
C41	C	-0.875953	-0.230848	0.344092
C42	C	-0.854540	-0.252140	0.468755
C43	C	-0.901057	-0.205799	0.531079
C44	C	-0.968989	-0.138161	0.468726
C45	C	-0.990399	-0.116862	0.344050
C46	C	-1.015503	-0.091813	0.531037
C47	C	-1.083435	-0.024176	0.468684
C48	C	-1.104843	-0.002881	0.344020
C49	C	-1.058326	-0.049222	0.281697
C50	C	-0.994093	-0.113112	0.655713
C51	C	-1.108539	0.000873	0.655671
C52	C	-1.129952	0.022165	0.531007
H53	H	-0.563909	0.031572	0.000010
H54	H	-0.418531	-0.071126	0.180101
H55	H	-0.503930	-0.220486	0.180279
C56	C	-0.822015	0.301856	-0.000243
N57	N	-0.753649	0.268089	-0.000306
H58	H	-1.146416	0.038610	0.706414
C59	C	-1.043070	0.299442	0.209024
N60	N	-1.063496	0.264646	0.293022
C61	C	-1.204672	0.096571	0.462403
N62	N	-1.260949	0.152614	0.410729
C63	C	-0.824782	-0.281803	0.275528
N64	N	-0.786232	-0.320183	0.223885
C65	C	-0.869711	0.399080	0.209053
N66	N	-0.820513	0.405185	0.293080
H67	H	-1.138846	0.456714	-0.000222
C68	C	-0.409077	-0.285278	0.000023
N69	N	-0.375304	-0.353672	0.000085
C70	C	-0.478342	0.007498	-0.209260
N71	N	-0.472328	0.056706	-0.293260
C72	C	-0.578016	-0.165838	-0.209269
N73	N	-0.612921	-0.186241	-0.293291
H74	H	-0.938782	-0.168182	0.706470
H75	H	-0.883619	-0.223138	0.632586
H76	H	-1.097876	0.373084	-0.180338
C77	C	-0.779917	-0.326639	0.537334
N78	N	-0.723744	-0.382791	0.588989
C79	C	-0.941540	0.470486	-0.209508
N80	N	-0.921187	0.505208	-0.293608
C81	C	-1.081876	-0.025802	0.144558
N82	N	-1.099610	-0.008162	0.041264
H83	H	-1.160151	0.052200	0.293252
