data_functionalizedCrystal
_audit_creation_method	'MofGen! by Chris Wilmer'
_symmetry_space_group_name_H-M	'P1'
_symmetry_Int_Tables_number	1
_symmetry_cell_setting	triclinic
loop_
_symmetry_equiv_pos_as_xyz
  x,y,z
_cell_length_a	19.188930
_cell_length_b	17.699077
_cell_length_c	16.176319
_cell_angle_alpha	89.993140
_cell_angle_beta	89.988074
_cell_angle_gamma	83.212679
loop_
_atom_site_label
_atom_site_type_symbol
_atom_site_fract_x
_atom_site_fract_y
_atom_site_fract_z
O1	O	0.088275	1.003965	-0.068745
O2	O	0.421608	1.337299	0.264588
O3	O	0.754941	1.670632	0.597922
O4	O	0.099766	0.783571	-0.068750
O5	O	0.433100	1.116905	0.264583
O6	O	0.766433	1.450238	0.597916
O7	O	-0.007628	0.900128	-0.068731
O8	O	0.325705	1.233462	0.264602
O9	O	0.659038	1.566795	0.597935
O10	O	0.195669	0.887408	-0.068764
O11	O	0.529002	1.220742	0.264569
O12	O	0.862336	1.554075	0.597903
O13	O	-0.007635	0.900112	0.068762
O14	O	0.325698	1.233446	0.402095
O15	O	0.659032	1.566779	0.735429
O16	O	0.099759	0.783555	0.068743
O17	O	0.433093	1.116889	0.402076
O18	O	0.766426	1.450222	0.735410
O19	O	0.088268	1.003949	0.068748
O20	O	0.421601	1.337283	0.402082
O21	O	0.754934	1.670616	0.735415
Cu22	Cu	0.094013	0.893751	0.081300
Cu23	Cu	0.427346	1.227084	0.414633
Cu24	Cu	0.760680	1.560418	0.747967
Cu25	Cu	0.094021	0.893770	-0.081302
Cu26	Cu	0.427354	1.227103	0.252032
Cu27	Cu	0.760688	1.560436	0.585365
O28	O	0.195662	0.887392	0.068729
O29	O	0.528996	1.220726	0.402063
O30	O	0.862329	1.554059	0.735396
C31	C	0.099352	0.755367	-0.000004
C32	C	0.432685	1.088700	0.333329
C33	C	0.766018	1.422033	0.666663
C34	C	0.098119	0.671350	-0.000005
C35	C	0.431452	1.004683	0.333328
C36	C	0.764785	1.338017	0.666661
C37	C	0.097534	0.631875	0.074943
C38	C	0.430867	0.965208	0.408277
C39	C	0.764200	1.298541	0.741610
C40	C	0.096364	0.552934	0.074944
C41	C	0.429697	0.886267	0.408278
C42	C	0.763031	1.219600	0.741611
C43	C	0.095784	0.513469	-0.000004
C44	C	0.429117	0.846802	0.333329
C45	C	0.762451	1.180135	0.666663
C46	C	0.096367	0.552950	-0.074958
C47	C	0.429700	0.886283	0.258375
C48	C	0.763033	1.219617	0.591708
C49	C	0.097532	0.631890	-0.074959
C50	C	0.430865	0.965224	0.258375
C51	C	0.764198	1.298557	0.591708
C52	C	0.091668	0.234593	-0.074959
C53	C	0.425001	0.567926	0.258374
C54	C	0.758335	0.901259	0.591707
C55	C	0.090505	0.155647	-0.074953
C56	C	0.423839	0.488980	0.258380
C57	C	0.757172	0.822313	0.591713
C58	C	0.090501	0.155636	0.074944
C59	C	0.423834	0.488970	0.408277
C60	C	0.757167	0.822303	0.741610
C61	C	0.091665	0.234577	0.074943
C62	C	0.424999	0.567910	0.408277
C63	C	0.758332	0.901243	0.741610
C64	C	0.092244	0.274051	-0.000010
C65	C	0.425578	0.607385	0.333323
C66	C	0.758911	0.940718	0.666656
C67	C	0.093512	0.359648	-0.000011
C68	C	0.426845	0.692982	0.333323
C69	C	0.760178	1.026315	0.666656
C70	C	0.094522	0.427872	-0.000005
C71	C	0.427855	0.761206	0.333329
C72	C	0.761188	1.094539	0.666662
C73	C	-0.033643	0.899708	0.000018
C74	C	0.299690	1.233042	0.333351
C75	C	0.633024	1.566375	0.666684
C76	C	-0.111149	0.898472	0.000025
C77	C	0.222184	1.231805	0.333358
C78	C	0.555518	1.565139	0.666691
C79	C	-0.155998	0.966864	0.000030
C80	C	0.177336	1.300197	0.333364
C81	C	0.510669	1.633531	0.666697
C82	C	-0.228823	0.965702	0.000017
C83	C	0.104511	1.299036	0.333350
C84	C	0.437844	1.632369	0.666684
C85	C	-0.256796	0.896145	0.000015
C86	C	0.076537	1.229478	0.333348
C87	C	0.409871	1.562811	0.666682
C88	C	-0.211937	0.827744	0.000005
C89	C	0.121396	1.161077	0.333338
C90	C	0.454729	1.494410	0.666671
C91	C	-0.139114	0.828907	0.000010
C92	C	0.194219	1.162241	0.333343
C93	C	0.527553	1.495574	0.666676
N94	N	-0.364862	0.842971	0.046805
N95	N	-0.031528	1.176304	0.380138
N96	N	0.301805	1.509637	0.713472
N97	N	-0.434041	0.841870	0.046802
N98	N	-0.100708	1.175203	0.380135
N99	N	0.232625	1.508537	0.713469
C100	C	-0.476208	0.892634	-0.000002
C101	C	-0.142875	1.225968	0.333331
C102	C	0.190458	1.559301	0.666665
N103	N	-0.446583	0.944553	-0.046793
N104	N	-0.113250	1.277886	0.286541
N105	N	0.220083	1.611219	0.619874
N106	N	-0.377397	0.945656	-0.046786
N107	N	-0.044064	1.278989	0.286547
N108	N	0.289269	1.612322	0.619881
C109	C	-0.335760	0.894875	0.000009
C110	C	-0.002426	1.228208	0.333342
C111	C	0.330907	1.561542	0.666676
C112	C	-0.600023	0.959771	-0.000012
C113	C	-0.266689	1.293105	0.333321
C114	C	0.066644	1.626438	0.666655
C115	C	-0.672849	0.958607	-0.000030
C116	C	-0.339516	1.291940	0.333303
C117	C	-0.006182	1.625274	0.666636
C118	C	-0.655962	0.820646	-0.000035
C119	C	-0.322629	1.153980	0.333299
C120	C	0.010705	1.487313	0.666632
C121	C	-0.583137	0.821813	-0.000024
C122	C	-0.249804	1.155146	0.333309
C123	C	0.083529	1.488480	0.666642
C124	C	-0.555173	0.891378	-0.000009
C125	C	-0.221839	1.224711	0.333324
C126	C	0.111494	1.558044	0.666657
C127	C	0.221677	0.887812	-0.000021
C128	C	0.555010	1.221145	0.333312
C129	C	0.888344	1.554479	0.666645
C130	C	0.299183	0.889049	-0.000034
C131	C	0.632516	1.222382	0.333299
C132	C	0.965850	1.555715	0.666633
C133	C	0.088682	1.032154	0.000000
C134	C	0.422016	1.365487	0.333334
C135	C	0.755349	1.698821	0.666667
C136	C	0.089915	1.116171	-0.000004
C137	C	0.423249	1.449504	0.333330
C138	C	0.756582	1.782837	0.666663
N139	N	0.094007	0.893743	0.195665
N140	N	0.427340	1.227076	0.528998
N141	N	0.760674	1.560410	0.862332
N142	N	0.094022	0.893784	-0.195667
N143	N	0.427355	1.227117	0.137666
N144	N	0.760688	1.560450	0.471000
C145	C	0.046472	0.945370	0.238938
C146	C	0.379805	1.278703	0.572271
C147	C	0.713139	1.612037	0.905604
C148	C	0.046471	0.945374	0.325485
C149	C	0.379805	1.278707	0.658818
C150	C	0.713138	1.612041	0.992151
C151	C	0.094009	0.893754	0.368758
C152	C	0.427343	1.227087	0.702091
C153	C	0.760676	1.560420	1.035424
C154	C	0.141546	0.842121	0.325479
C155	C	0.474880	1.175455	0.658812
C156	C	0.808213	1.508788	0.992146
C157	C	0.141543	0.842115	0.238934
C158	C	0.474877	1.175448	0.572267
C159	C	0.808210	1.508781	0.905600
C160	C	0.141560	0.842147	0.674507
C161	C	0.474893	1.175481	1.007841
C162	C	0.808226	1.508814	1.341174
C163	C	0.141560	0.842160	0.761059
C164	C	0.474894	1.175493	1.094392
C165	C	0.808227	1.508826	1.427726
C166	C	0.046488	0.945407	0.761058
C167	C	0.379821	1.278740	1.094392
C168	C	0.713154	1.612073	1.427725
C169	C	0.046484	0.945400	0.674513
C170	C	0.379818	1.278733	1.007846
C171	C	0.713151	1.612066	1.341180
C172	C	0.094019	0.893765	0.631242
C173	C	0.427352	1.227098	0.964575
C174	C	0.760685	1.560432	1.297909
C175	C	0.094018	0.893761	0.537398
C176	C	0.427351	1.227094	0.870731
C177	C	0.760685	1.560427	1.204064
C178	C	0.094014	0.893761	0.462600
C179	C	0.427347	1.227095	0.795934
C180	C	0.760680	1.560428	1.129267
H181	H	0.092141	0.266705	0.135974
H182	H	0.425474	0.600038	0.469307
H183	H	0.758808	0.933371	0.802641
H184	H	-0.133234	1.023509	0.000040
H185	H	0.200100	1.356842	0.333373
H186	H	0.533433	1.690175	0.666707
C187	C	0.193838	0.785342	0.373077
C188	C	0.527172	1.118675	0.706410
C189	C	0.860505	1.452008	1.039744
H190	H	0.187038	0.792744	0.430818
H191	H	0.520372	1.126078	0.764152
H192	H	0.853705	1.459411	1.097485
H193	H	0.186316	0.734855	0.358910
H194	H	0.519650	1.068188	0.692243
H195	H	0.852983	1.401522	1.025577
H196	H	0.240428	0.793409	0.358874
H197	H	0.573762	1.126742	0.692208
H198	H	0.907095	1.460076	1.025541
H199	H	0.007780	0.987448	0.796299
H200	H	0.341113	1.320782	1.129632
H201	H	0.674447	1.654115	1.462966
H202	H	-0.546620	0.766121	-0.000024
H203	H	-0.213287	1.099454	0.333309
H204	H	0.120046	1.432787	0.666642
C205	C	0.098173	0.675283	0.157385
C206	C	0.431506	1.008616	0.490719
C207	C	0.764840	1.341949	0.824052
H208	H	0.098957	0.727950	0.146654
H209	H	0.432291	1.061283	0.479987
H210	H	0.765624	1.394617	0.813320
H211	H	0.057282	0.668252	0.188189
H212	H	0.390615	1.001585	0.521522
H213	H	0.723948	1.334919	0.854855
H214	H	0.138686	0.656430	0.188172
H215	H	0.472019	0.989764	0.521505
H216	H	0.805353	1.323097	0.854839
C217	C	0.193834	0.785328	0.191334
C218	C	0.527168	1.118661	0.524667
C219	C	0.860501	1.451995	0.858000
H220	H	0.222152	0.754590	0.229499
H221	H	0.555485	1.087924	0.562833
H222	H	0.888818	1.421257	0.896166
H223	H	0.168754	0.753906	0.157587
H224	H	0.502087	1.087239	0.490920
H225	H	0.835421	1.420572	0.824253
H226	H	0.222868	0.812457	0.157558
H227	H	0.556202	1.145791	0.490892
H228	H	0.889535	1.479124	0.824225
H229	H	-0.265345	1.021397	0.000018
H230	H	0.067988	1.354730	0.333352
H231	H	0.401321	1.688064	0.666685
H232	H	-0.709365	1.014302	-0.000030
H233	H	-0.376031	1.347636	0.333303
H234	H	-0.042698	1.680969	0.666636
H235	H	0.090032	0.123517	-0.135989
H236	H	0.423366	0.456850	0.197344
H237	H	0.756699	0.790183	0.530678
C238	C	0.095726	0.509513	0.157388
C239	C	0.429060	0.842846	0.490721
C240	C	0.762393	1.176180	0.824054
H241	H	0.096248	0.544322	0.202023
H242	H	0.429582	0.877655	0.535357
H243	H	0.762915	1.210988	0.868690
H244	H	0.054573	0.484628	0.160517
H245	H	0.387906	0.817961	0.493851
H246	H	0.721239	1.151295	0.827184
H247	H	0.135977	0.472809	0.160492
H248	H	0.469310	0.806142	0.493825
H249	H	0.802643	1.139475	0.827158
C250	C	-0.242701	0.751231	-0.000001
C251	C	0.090632	1.084564	0.333332
C252	C	0.423965	1.417897	0.666666
H253	H	-0.205558	0.710664	-0.000011
H254	H	0.127775	1.043997	0.333322
H255	H	0.461109	1.377330	0.666656
H256	H	-0.270769	0.747899	0.047943
H257	H	0.062564	1.081232	0.381276
H258	H	0.395897	1.414566	0.714609
H259	H	-0.270748	0.747920	-0.047957
H260	H	0.062585	1.081253	0.285376
H261	H	0.395919	1.414586	0.618710
H262	H	-0.102597	0.773213	0.000005
H263	H	0.230736	1.106546	0.333339
H264	H	0.564069	1.439879	0.666672
C265	C	-0.686720	0.744132	-0.000040
C266	C	-0.353387	1.077466	0.333293
C267	C	-0.020054	1.410799	0.666626
H268	H	-0.649576	0.703566	-0.000046
H269	H	-0.316243	1.036899	0.333288
H270	H	0.017090	1.370232	0.666621
H271	H	-0.714790	0.740803	0.047902
H272	H	-0.381457	1.074136	0.381235
H273	H	-0.048124	1.407469	0.714569
H274	H	-0.714764	0.740819	-0.047998
H275	H	-0.381431	1.074152	0.285336
H276	H	-0.048098	1.407485	0.618669
H277	H	0.007764	0.987408	0.203710
H278	H	0.341097	1.320742	0.537044
H279	H	0.674431	1.654075	0.870377
C280	C	0.089916	0.112205	0.157393
C281	C	0.423249	0.445538	0.490726
C282	C	0.756582	0.778871	0.824059
H283	H	0.089150	0.059537	0.146663
H284	H	0.422483	0.392870	0.479996
H285	H	0.755816	0.726203	0.813330
H286	H	0.130825	0.119250	0.188134
H287	H	0.464158	0.452583	0.521467
H288	H	0.797491	0.785917	0.854800
H289	H	0.049420	0.131025	0.188240
H290	H	0.382753	0.464358	0.521574
H291	H	0.716086	0.797692	0.854907
C292	C	0.092313	0.278004	-0.157405
C293	C	0.425646	0.611337	0.175929
C294	C	0.758980	0.944671	0.509262
H295	H	0.091809	0.243191	-0.202038
H296	H	0.425142	0.576524	0.131295
H297	H	0.758476	0.909858	0.464628
H298	H	0.052068	0.314709	-0.160519
H299	H	0.385401	0.648042	0.172814
H300	H	0.718735	0.981375	0.506147
H301	H	0.133472	0.302888	-0.160527
H302	H	0.466806	0.636221	0.172806
H303	H	0.800139	0.969554	0.506140
C304	C	0.098176	0.675316	-0.157400
C305	C	0.431510	1.008650	0.175934
C306	C	0.764843	1.341983	0.509267
H307	H	0.098946	0.727983	-0.146666
H308	H	0.432279	1.061316	0.186667
H309	H	0.765613	1.394650	0.520000
H310	H	0.138685	0.656475	-0.188205
H311	H	0.472018	0.989808	0.145128
H312	H	0.805352	1.323141	0.478462
H313	H	0.057281	0.668292	-0.188185
H314	H	0.390614	1.001625	0.145149
H315	H	0.723948	1.334958	0.478482
H316	H	0.007764	0.987412	0.360717
H317	H	0.341098	1.320745	0.694050
H318	H	0.674431	1.654079	1.027384
H319	H	0.095889	0.520812	-0.135983
H320	H	0.429223	0.854145	0.197351
H321	H	0.762556	1.187479	0.530684
H322	H	0.007777	0.987436	0.639283
H323	H	0.341110	1.320769	0.972616
H324	H	0.674444	1.654103	1.305950
H325	H	-0.577253	1.016415	-0.000003
H326	H	-0.243919	1.349748	0.333330
H327	H	0.089414	1.683082	0.666663
H328	H	0.180273	0.800121	0.796290
H329	H	0.513606	1.133455	1.129624
H330	H	0.846940	1.466788	1.462957
H331	H	0.180265	0.800106	0.639283
H332	H	0.513598	1.133439	0.972616
H333	H	0.846932	1.466772	1.305949
