data_functionalizedCrystal
_audit_creation_method	'MofGen! by Chris Wilmer'
_symmetry_space_group_name_H-M	'P1'
_symmetry_Int_Tables_number	1
_symmetry_cell_setting	triclinic
loop_
_symmetry_equiv_pos_as_xyz
  x,y,z
_cell_length_a	10.654550
_cell_length_b	15.995350
_cell_length_c	9.730223
_cell_angle_alpha	89.997832
_cell_angle_beta	89.999957
_cell_angle_gamma	83.988653
loop_
_atom_site_label
_atom_site_type_symbol
_atom_site_fract_x
_atom_site_fract_y
_atom_site_fract_z
O1	O	1.666303	0.117602	-0.114180
O2	O	1.300678	0.128807	-0.114204
O3	O	1.493485	0.001375	-0.114190
O4	O	1.473496	0.245034	-0.114194
O5	O	1.493473	0.001371	0.114390
O6	O	1.300666	0.128803	0.114375
O7	O	1.666290	0.117599	0.114400
Zn8	Zn	1.483476	0.123201	0.150680
Zn9	Zn	1.483492	0.123205	-0.150484
O10	O	1.473483	0.245031	0.114386
C11	C	1.253884	0.127982	0.000082
C12	C	1.114473	0.125521	0.000073
C13	C	1.034008	0.200551	0.000075
C14	C	0.903017	0.198233	0.000099
C15	C	0.932971	0.045849	0.000112
C16	C	1.063959	0.048168	0.000098
C17	C	1.492652	-0.029826	0.000097
C18	C	1.490175	-0.122791	0.000089
C19	C	1.481277	-0.460590	0.000093
C20	C	1.343964	-0.413954	-0.000429
C21	C	1.346442	-0.317249	0.000087
C22	C	1.485691	-0.293004	0.000090
C23	C	1.553412	-0.333690	0.130623
C24	C	1.549962	-0.430346	0.130732
C25	C	1.552813	-0.430684	-0.129206
C26	C	1.552780	-0.333739	-0.130931
C27	C	1.488192	-0.198292	0.000093
C28	C	1.478780	-0.555303	0.000099
C29	C	1.713084	0.118423	0.000110
C30	C	1.852495	0.120885	0.000111
C31	C	1.474316	0.276232	0.000095
C32	C	1.476793	0.369197	0.000094
N33	N	1.483474	0.123197	0.356216
N34	N	1.483504	0.123202	-0.356021
C35	C	1.568878	0.066794	0.428148
C36	C	1.568890	0.066794	0.572031
C37	C	1.398091	0.179608	0.572037
C38	C	1.398074	0.179603	0.428157
H39	H	1.075132	0.263537	0.000065
C40	C	1.689872	-0.314191	0.137323
C41	C	1.747304	-0.351421	0.254846
C42	C	1.873014	-0.333485	0.261051
H43	H	1.692435	-0.255058	0.141311
H44	H	1.733633	-0.335918	0.057825
H45	H	1.703555	-0.329690	0.334324
H46	H	1.744775	-0.410554	0.250884
H47	H	1.916775	-0.355212	0.181553
H48	H	1.875564	-0.274352	0.265035
H49	H	1.912001	-0.358749	0.340782
H50	H	0.837506	0.259330	0.000104
C51	C	1.493178	-0.458371	-0.261283
C52	C	1.559100	-0.430754	-0.374190
C53	C	1.504198	-0.456253	-0.495872
H54	H	1.407638	-0.434820	-0.265490
H55	H	1.496779	-0.517960	-0.263040
H56	H	1.555487	-0.371176	-0.372435
H57	H	1.644638	-0.454302	-0.370029
H58	H	1.507798	-0.515842	-0.497628
H59	H	1.418659	-0.432700	-0.500064
H60	H	1.548924	-0.437525	-0.572493
C61	C	1.487099	-0.297690	-0.259816
C62	C	1.573027	-0.258399	-0.339868
C63	C	1.512570	-0.225183	-0.458610
H64	H	1.418626	-0.257750	-0.234743
H65	H	1.456292	-0.341759	-0.311150
H66	H	1.603816	-0.214335	-0.288543
H67	H	1.641503	-0.298322	-0.364977
H68	H	1.481762	-0.269252	-0.509945
H69	H	1.444098	-0.185247	-0.433524
H70	H	1.570865	-0.198527	-0.512946
H71	H	0.891826	-0.017129	0.000141
H72	H	1.328562	0.225533	0.630626
H73	H	1.129478	-0.012934	0.000100
H74	H	1.328522	0.225533	0.369586
H75	H	1.506366	-0.305584	0.227758
C76	C	1.688252	-0.312625	-0.141582
C77	C	1.770201	-0.387001	-0.140006
C78	C	1.895003	-0.367576	-0.149857
H79	H	1.706701	-0.278377	-0.065992
H80	H	1.698876	-0.283254	-0.224946
H81	H	1.759582	-0.416359	-0.056651
H82	H	1.751792	-0.421259	-0.215591
H83	H	1.905627	-0.338205	-0.233221
H84	H	1.913439	-0.333327	-0.074265
H85	H	1.950619	-0.418037	-0.148802
C86	C	1.661642	0.005456	0.350288
C87	C	1.736413	-0.043954	0.444087
C88	C	1.821869	-0.100479	0.372418
H89	H	1.714028	0.035800	0.294142
H90	H	1.616496	-0.029728	0.294204
H91	H	1.781556	-0.008775	0.500148
H92	H	1.684061	-0.074316	0.500237
H93	H	1.776723	-0.135663	0.316333
H94	H	1.874246	-0.070128	0.316274
H95	H	1.872603	-0.134016	0.436049
H96	H	1.293208	-0.289135	-0.093484
H97	H	1.289086	-0.432803	-0.094036
C98	C	1.661417	0.005461	0.650202
C99	C	1.594544	-0.046228	0.732790
C100	C	1.679739	-0.102750	0.804805
H101	H	1.713725	0.035809	0.706433
H102	H	1.712254	-0.028180	0.586788
H103	H	1.543729	-0.012592	0.796196
H104	H	1.542241	-0.076595	0.676593
H105	H	1.730576	-0.136390	0.741392
H106	H	1.732042	-0.072395	0.861028
H107	H	1.634378	-0.137833	0.860840
H108	H	1.292840	-0.289697	0.093810
C109	C	1.271187	-0.440669	0.123632
C110	C	1.264592	-0.527583	0.118797
C111	C	1.197580	-0.552227	0.233070
H112	H	1.188286	-0.412293	0.122662
H113	H	1.313123	-0.426815	0.205406
H114	H	1.222653	-0.541429	0.037044
H115	H	1.347473	-0.555979	0.119786
H116	H	1.239517	-0.538373	0.314844
H117	H	1.114684	-0.523846	0.232091
H118	H	1.193107	-0.611201	0.229811
C119	C	1.684305	-0.472679	0.138875
C120	C	1.697962	-0.522273	0.257582
C121	C	1.821693	-0.561285	0.265133
H122	H	1.741611	-0.431052	0.142138
H123	H	1.701660	-0.507143	0.060213
H124	H	1.680621	-0.487812	0.336225
H125	H	1.640685	-0.563914	0.254346
H126	H	1.839047	-0.595749	0.186470
H127	H	1.878988	-0.519653	0.268392
H128	H	1.830972	-0.594945	0.345668
H129	H	1.500570	-0.448936	0.228304
H130	H	1.654054	-0.461857	-0.130081
