data_functionalizedCrystal
_audit_creation_method	'MofGen! by Chris Wilmer'
_symmetry_space_group_name_H-M	'P1'
_symmetry_Int_Tables_number	1
_symmetry_cell_setting	triclinic
loop_
_symmetry_equiv_pos_as_xyz
  x,y,z
_cell_length_a	16.109301
_cell_length_b	11.026607
_cell_length_c	14.586319
_cell_angle_alpha	89.998207
_cell_angle_beta	89.999213
_cell_angle_gamma	96.023749
loop_
_atom_site_label
_atom_site_type_symbol
_atom_site_fract_x
_atom_site_fract_y
_atom_site_fract_z
O1	O	1.126503	0.155971	-0.076179
O2	O	0.887350	0.175382	-0.076193
O3	O	0.987106	-0.010969	-0.076183
O4	O	1.026747	0.342322	-0.076188
O5	O	0.987097	-0.010971	0.076297
O6	O	0.887341	0.175379	0.076288
O7	O	1.126494	0.155969	0.076302
Cu8	Cu	1.006916	0.165674	0.090218
Cu9	Cu	1.006927	0.165677	-0.090108
O10	O	1.026738	0.342319	0.076293
C11	C	0.856253	0.174594	0.000046
C12	C	0.763604	0.172237	0.000040
C13	C	0.979788	-0.056178	0.000055
C14	C	0.957987	-0.190883	0.000051
C15	C	0.557080	0.277333	0.000050
C16	C	0.470027	0.275108	0.000056
C17	C	0.456769	0.054010	0.000055
C18	C	0.543821	0.056235	0.000055
C19	C	0.593975	0.167900	0.000048
C20	C	0.419869	0.163450	0.000053
C21	C	0.325481	0.161038	0.000060
C22	C	0.688369	0.170314	0.000043
C23	C	1.018183	-0.264713	0.000053
C24	C	0.995652	-0.403938	0.000048
C25	C	1.157591	0.156756	0.000062
C26	C	1.250240	0.159114	0.000061
C27	C	1.034056	0.387529	0.000052
C28	C	1.055857	0.522234	0.000051
N29	N	1.006915	0.165671	0.217050
N30	N	1.006934	0.165670	-0.216940
C31	C	1.051109	0.083182	0.452060
C32	C	1.051111	0.083179	0.548041
C33	C	0.962734	0.248163	0.548043
C34	C	0.962728	0.248159	0.452063
C35	C	1.006920	0.165670	0.404074
C36	C	1.006929	0.165671	0.596035
C37	C	1.006930	0.165668	0.700102
C38	C	1.006918	0.165671	0.300001
H39	H	0.439992	0.364219	0.000059
H40	H	0.889771	-0.230748	0.000041
H41	H	1.087092	0.016013	0.412990
H42	H	1.087093	0.016009	0.587109
C43	C	0.945339	0.458210	0.577578
C44	C	0.914161	0.338839	0.600790
H45	H	0.915347	0.514190	0.610136
H46	H	1.002792	0.471408	0.593309
H47	H	0.939009	0.469993	0.513545
H48	H	0.920497	0.327053	0.664821
H49	H	0.856694	0.325635	0.585065
C50	C	0.969395	0.413292	0.344112
C51	C	0.914155	0.338840	0.399309
H52	H	0.939406	0.469265	0.311541
H53	H	1.010528	0.456955	0.381550
H54	H	0.995703	0.364146	0.301801
H55	H	0.887851	0.387986	0.441625
H56	H	0.873006	0.295174	0.361868
C57	C	0.317437	-0.047575	0.000043
C58	C	0.401637	-0.068728	0.000050
H59	H	0.283404	-0.123352	0.000033
H60	H	0.305895	-0.002533	0.053215
H61	H	0.305906	-0.002511	-0.053133
H62	H	0.413170	-0.113785	0.053230
H63	H	0.413184	-0.113790	-0.053126
H64	H	1.086399	-0.224848	0.000063
C65	C	0.595176	0.466483	-0.078328
C66	C	0.612207	0.400075	0.000052
H67	H	0.629204	0.542264	-0.078320
H68	H	0.606727	0.421434	-0.131493
H69	H	0.538047	0.480804	-0.078317
H70	H	0.669335	0.385746	0.000037
H71	H	0.600663	0.445133	0.053231
C72	C	0.521979	-0.162544	0.000043
C73	C	0.584382	-0.064062	0.000049
H74	H	0.547022	-0.236805	0.000037
H75	H	0.488302	-0.158821	0.053213
H76	H	0.488302	-0.158804	-0.053134
H77	H	0.618056	-0.067798	0.053231
H78	H	0.618074	-0.067787	-0.053126
H79	H	0.927432	-0.443797	0.000038
H80	H	1.124077	-0.437909	-0.000014
