data_functionalizedCrystal
_audit_creation_method	'MofGen! by Chris Wilmer'
_symmetry_space_group_name_H-M	'P1'
_symmetry_Int_Tables_number	1
_symmetry_cell_setting	triclinic
loop_
_symmetry_equiv_pos_as_xyz
  x,y,z
_cell_length_a	16.120530
_cell_length_b	12.594516
_cell_length_c	16.120297
_cell_angle_alpha	87.123691
_cell_angle_beta	89.871860
_cell_angle_gamma	87.107535
loop_
_atom_site_label
_atom_site_type_symbol
_atom_site_fract_x
_atom_site_fract_y
_atom_site_fract_z
Zn1	Zn	1.247525	-0.539250	0.534592
Zn2	Zn	1.580858	-0.205917	0.867925
Zn3	Zn	1.914192	0.127416	1.201259
Zn4	Zn	1.254502	-0.708694	0.395543
Zn5	Zn	1.587836	-0.375361	0.728876
Zn6	Zn	1.921169	-0.042027	1.062210
Zn7	Zn	1.115513	-0.521264	0.388509
Zn8	Zn	1.448846	-0.187931	0.721842
Zn9	Zn	1.782179	0.145403	1.055176
Zn10	Zn	1.108459	-0.707714	0.527512
Zn11	Zn	1.441792	-0.374380	0.860846
Zn12	Zn	1.775125	-0.041047	1.194179
O13	O	1.181500	-0.619231	0.461539
O14	O	1.514833	-0.285897	0.794872
O15	O	1.848166	0.047436	1.128206
O16	O	1.364818	-0.569665	0.522053
O17	O	1.698151	-0.236332	0.855387
O18	O	2.031485	0.097002	1.188720
O19	O	1.241937	-0.676714	0.278244
O20	O	1.575271	-0.343381	0.611577
O21	O	1.908604	-0.010047	0.944911
O22	O	1.133056	-0.374708	0.407906
O23	O	1.466390	-0.041374	0.741240
O24	O	1.799723	0.291959	1.074573
O25	O	1.369944	-0.694154	0.419895
O26	O	1.703278	-0.360821	0.753228
O27	O	2.036611	-0.027488	1.086561
O28	O	1.230045	-0.387922	0.515233
O29	O	1.563379	-0.054589	0.848566
O30	O	1.896712	0.278745	1.181900
O31	O	1.139822	-0.539010	0.273076
O32	O	1.473155	-0.205677	0.606410
O33	O	1.806489	0.127657	0.939743
O34	O	0.998209	-0.538060	0.401042
O35	O	1.331543	-0.204726	0.734375
O36	O	1.664876	0.128607	1.067708
O37	O	1.121034	-0.692484	0.644817
O38	O	1.454367	-0.359150	0.978150
O39	O	1.787701	-0.025817	1.311484
O40	O	0.993027	-0.675043	0.503166
O41	O	1.326360	-0.341710	0.836500
O42	O	1.659694	-0.008377	1.169833
O43	O	1.223205	-0.568715	0.650019
O44	O	1.556539	-0.235381	0.983352
O45	O	1.889872	0.097952	1.316685
O46	O	1.235097	-0.857506	0.413030
O47	O	1.568431	-0.524173	0.746363
O48	O	1.901764	-0.190840	1.079696
O49	O	1.127800	-0.856786	0.509987
O50	O	1.461133	-0.523453	0.843320
O51	O	1.794466	-0.190120	1.176654
C52	C	0.965445	-0.604494	0.450573
C53	C	1.298779	-0.271161	0.783906
C54	C	1.632112	0.062173	1.117240
C55	C	0.873015	-0.598217	0.445901
C56	C	1.206349	-0.264883	0.779235
C57	C	1.539682	0.068450	1.112568
C58	C	1.181462	-0.895768	0.461523
C59	C	1.514795	-0.562435	0.794856
C60	C	1.848129	-0.229101	1.128189
C61	C	1.181520	-1.014079	0.461547
C62	C	1.514854	-0.680745	0.794881
C63	C	1.848187	-0.347412	1.128214
C64	C	0.703784	-0.586731	0.437379
C65	C	1.037117	-0.253398	0.770713
C66	C	1.370451	0.079936	1.104046
C67	C	0.660053	-0.651812	0.485759
C68	C	0.993386	-0.318479	0.819093
C69	C	1.326720	0.014855	1.152426
C70	C	0.565887	-0.645422	0.481018
C71	C	0.899220	-0.312088	0.814351
C72	C	1.232553	0.021245	1.147684
C73	C	0.797959	-0.593120	0.442120
C74	C	1.131292	-0.259787	0.775453
C75	C	1.464625	0.073546	1.108787
C76	C	1.239941	-1.083693	0.408875
C77	C	1.573274	-0.750360	0.742208
C78	C	1.906608	-0.417026	1.075541
C79	C	1.256413	-1.160447	0.485802
C80	C	1.589746	-0.827114	0.819135
C81	C	1.923080	-0.493780	1.152469
C82	C	1.165150	-1.148134	0.384674
C83	C	1.498483	-0.814801	0.718007
C84	C	1.831817	-0.481467	1.051340
C85	C	1.198029	-1.089279	0.538516
C86	C	1.531363	-0.755946	0.871850
C87	C	1.864696	-0.422613	1.205183
C88	C	1.106733	-1.076955	0.437335
C89	C	1.440067	-0.743621	0.770668
C90	C	1.773400	-0.410288	1.104001
C91	C	1.123174	-1.153678	0.514313
C92	C	1.456507	-0.820345	0.847646
C93	C	1.789841	-0.487011	1.180980
C94	C	1.398398	-0.634025	0.472548
C95	C	1.731731	-0.300692	0.805882
C96	C	2.065064	0.032641	1.139215
C97	C	1.490827	-0.640330	0.477240
C98	C	1.824160	-0.306997	0.810573
C99	C	2.157493	0.026337	1.143907
C100	C	1.170555	-0.632496	0.678434
C101	C	1.503888	-0.299163	1.011767
C102	C	1.837221	0.034171	1.345101
C103	C	1.165890	-0.638149	0.770862
C104	C	1.499224	-0.304816	1.104195
C105	C	1.832557	0.028518	1.437528
C106	C	1.181559	-0.341616	0.461575
C107	C	1.514893	-0.008283	0.794908
C108	C	1.848226	0.325051	1.128242
C109	C	1.181585	-0.223313	0.461590
C110	C	1.514918	0.110020	0.794923
C111	C	1.848251	0.443354	1.128257
C112	C	1.192450	-0.605943	0.245490
C113	C	1.525783	-0.272610	0.578824
C114	C	1.859117	0.060724	0.912157
C115	C	1.197275	-0.600001	0.153071
C116	C	1.530609	-0.266668	0.486405
C117	C	1.863942	0.066665	0.819738
C118	C	1.157344	-0.648444	0.940087
C119	C	1.490678	-0.315111	1.273420
C120	C	1.824011	0.018222	1.606753
C121	C	1.205819	-0.589709	0.983851
C122	C	1.539152	-0.256376	1.317185
C123	C	1.872485	0.076958	1.650518
C124	C	1.201064	-0.595437	1.078014
C125	C	1.534397	-0.262104	1.411347
C126	C	1.867730	0.071229	1.744681
C127	C	1.162098	-0.642717	0.845915
C128	C	1.495432	-0.309384	1.179249
C129	C	1.828765	0.023949	1.512582
H130	H	0.693335	-0.712328	0.530741
H131	H	1.026668	-0.378995	0.864074
H132	H	1.360001	-0.045661	1.197408
H133	H	1.151277	-1.174187	0.319645
H134	H	1.484610	-0.840853	0.652978
H135	H	1.817944	-0.507520	0.986311
H136	H	1.250889	-0.535121	0.950601
H137	H	1.584223	-0.201788	1.283935
H138	H	1.917556	0.131546	1.617268
C139	C	1.096457	-0.722183	0.985004
C140	C	1.429791	-0.388849	1.318338
C141	C	1.763124	-0.055516	1.651671
N142	N	1.050598	-0.777722	1.018846
N143	N	1.383932	-0.444389	1.352179
N144	N	1.717265	-0.111055	1.685513
H145	H	0.670504	-0.526220	0.392402
H146	H	1.003838	-0.192886	0.725735
H147	H	1.337171	0.140447	1.059069
H148	H	1.289351	-1.052958	0.364374
H149	H	1.622684	-0.719625	0.697707
H150	H	1.956018	-0.386292	1.031041
H151	H	1.319686	-1.196913	0.506304
H152	H	1.653019	-0.863579	0.839638
H153	H	1.986353	-0.530246	1.172971
H154	H	1.211836	-1.063357	0.603597
H155	H	1.545169	-0.730024	0.936931
H156	H	1.878503	-0.396691	1.270264
H157	H	1.073794	-1.184225	0.558929
H158	H	1.407128	-0.850892	0.892262
H159	H	1.740461	-0.517558	1.225596
H160	H	1.043480	-1.040466	0.416811
H161	H	1.376813	-0.707133	0.750144
H162	H	1.710147	-0.373799	1.083477
