data_functionalizedCrystal
_audit_creation_method	'MofGen! by Chris Wilmer'
_symmetry_space_group_name_H-M	'P1'
_symmetry_Int_Tables_number	1
_symmetry_cell_setting	triclinic
loop_
_symmetry_equiv_pos_as_xyz
  x,y,z
_cell_length_a	19.288840
_cell_length_b	14.853567
_cell_length_c	18.366186
_cell_angle_alpha	89.997562
_cell_angle_beta	89.983729
_cell_angle_gamma	83.380474
loop_
_atom_site_label
_atom_site_type_symbol
_atom_site_fract_x
_atom_site_fract_y
_atom_site_fract_z
O1	O	0.921743	0.112357	-0.060665
O2	O	0.719531	0.127551	-0.060639
O3	O	0.826039	-0.011307	-0.060655
O4	O	0.815236	0.251215	-0.060649
O5	O	0.826020	-0.011314	0.060444
O6	O	0.719513	0.127545	0.060460
O7	O	0.921725	0.112350	0.060434
Zn8	Zn	0.820616	0.119946	0.079674
Zn9	Zn	0.820640	0.119955	-0.079879
O10	O	0.815218	0.251208	0.060450
C11	C	0.693644	0.127063	-0.000086
C12	C	0.616534	0.125607	-0.000077
C13	C	0.580338	0.124911	-0.066090
C14	C	0.507887	0.123532	-0.066099
C15	C	0.471636	0.122831	-0.000091
C16	C	0.507840	0.123533	0.065931
C17	C	0.580289	0.124920	0.065938
C18	C	0.362115	0.067825	0.050469
C19	C	0.289668	0.066432	0.050459
C20	C	0.248178	0.118556	-0.000110
C21	C	0.279145	0.172062	-0.050682
C22	C	0.351595	0.173449	-0.050675
C23	C	0.393077	0.121328	-0.000091
C24	C	0.133421	0.116367	-0.066137
C25	C	0.060968	0.114994	-0.066144
C26	C	0.060924	0.114985	0.065888
C27	C	0.133375	0.116367	0.065893
C28	C	0.169620	0.117054	-0.000122
C29	C	0.825540	-0.044896	-0.000108
C30	C	0.824073	-0.144971	-0.000114
C31	C	0.754605	-0.557102	-0.000091
C32	C	0.881138	-0.579117	-0.000107
C33	C	0.882517	-0.485092	-0.000112
C34	C	0.819939	-0.427067	-0.000105
C35	C	0.755982	-0.463067	-0.000093
C36	C	0.946473	-0.449084	-0.000116
C37	C	0.947855	-0.355053	-0.000119
C38	C	0.885276	-0.297026	-0.000118
C39	C	0.821317	-0.333032	-0.000107
C40	C	0.758739	-0.275007	-0.000100
C41	C	0.694778	-0.311011	-0.000094
C42	C	0.693404	-0.405041	-0.000091
C43	C	0.886651	-0.202996	-0.000121
C44	C	0.760116	-0.180972	-0.000102
C45	C	0.947612	0.112838	-0.000120
C46	C	1.024722	0.114295	-0.000135
C47	C	0.815716	0.284798	-0.000099
C48	C	0.817183	0.384873	-0.000098
N49	N	0.820605	0.119940	0.188565
N50	N	0.820657	0.119955	-0.188771
C51	C	0.867782	0.058483	0.226659
C52	C	0.867786	0.058479	0.302887
C53	C	0.820620	0.119947	0.341018
C54	C	0.773435	0.181408	0.302916
C55	C	0.773427	0.181404	0.226689
C56	C	0.811599	0.202091	0.461781
C57	C	0.811612	0.202096	0.538006
C58	C	0.820640	0.119958	0.576126
C59	C	0.829671	0.037812	0.538011
C60	C	0.829663	0.037808	0.461785
C61	C	0.820623	0.119957	0.423673
C62	C	0.867824	0.058492	0.696874
C63	C	0.867824	0.058487	0.773103
C64	C	0.773476	0.181424	0.773131
C65	C	0.773473	0.181421	0.696903
C66	C	0.820651	0.119957	0.658779
H67	H	0.478410	0.122967	-0.119856
C68	C	0.691274	-0.117151	-0.000097
N69	N	0.639421	-0.069082	-0.000092
H70	H	0.609760	0.125488	0.119696
C71	C	0.623054	-0.444653	-0.000070
N72	N	0.570066	-0.474493	-0.000048
H73	H	0.702530	-0.586421	-0.000089
C74	C	0.385652	0.232352	-0.106270
N75	N	0.411301	0.276737	-0.148133
C76	C	0.021153	0.114224	-0.138767
N77	N	-0.008836	0.113641	-0.193469
C78	C	0.949970	-0.642947	-0.000111
N79	N	1.001817	-0.691028	-0.000116
C80	C	0.957003	-0.163396	-0.000127
N81	N	1.009996	-0.133570	-0.000133
C82	C	0.919694	-0.009122	0.344798
N83	N	0.958793	-0.060035	0.376363
H84	H	0.245365	0.214510	-0.091858
C85	C	0.625945	-0.247172	-0.000087
N86	N	0.574101	-0.199085	-0.000082
H87	H	0.162933	0.116935	-0.119890
C88	C	0.021051	0.114216	0.138498
N89	N	-0.008984	0.113638	0.193190
C90	C	0.919713	-0.009139	0.815006
N91	N	0.958795	-0.060080	0.846567
H92	H	0.162846	0.116928	0.119648
C93	C	1.015304	-0.512916	-0.000118
N94	N	1.067150	-0.560999	-0.000121
H95	H	0.264460	0.022860	0.091634
H96	H	0.999935	-0.325747	-0.000125
C97	C	0.407747	0.010478	0.106101
N98	N	0.442117	-0.032715	0.148002
C99	C	0.467963	0.122761	0.138540
N100	N	0.437927	0.122181	0.193231
H101	H	0.906195	0.008433	0.195620
H102	H	0.837014	-0.029079	0.430755
H103	H	0.837022	-0.029073	0.569046
C104	C	0.919714	-0.009128	0.654935
N105	N	0.958797	-0.060062	0.623349
C106	C	0.721593	0.249041	0.815071
N107	N	0.682513	0.299971	0.846664
C108	C	0.721624	0.249094	0.654999
N109	N	0.682584	0.300089	0.623437
C110	C	0.801671	0.292458	0.579925
N111	N	0.794180	0.360522	0.611496
H112	H	0.804235	0.268983	0.430750
C113	C	0.721556	0.249053	0.184785
N114	N	0.682498	0.300022	0.153222
C115	C	0.620204	0.125664	-0.138708
N116	N	0.650232	0.126230	-0.193405
C117	C	0.721549	0.249019	0.344862
N118	N	0.682464	0.299943	0.376456
