data_functionalizedCrystal
_audit_creation_method	'MofGen! by Chris Wilmer'
_symmetry_space_group_name_H-M	'P1'
_symmetry_Int_Tables_number	1
_symmetry_cell_setting	triclinic
loop_
_symmetry_equiv_pos_as_xyz
  x,y,z
_cell_length_a	19.188933
_cell_length_b	19.188924
_cell_length_c	8.965430
_cell_angle_alpha	89.998356
_cell_angle_beta	89.997623
_cell_angle_gamma	83.143767
loop_
_atom_site_label
_atom_site_type_symbol
_atom_site_fract_x
_atom_site_fract_y
_atom_site_fract_z
O1	O	0.926142	0.087169	-0.123996
O2	O	1.426142	0.587169	0.376004
O3	O	0.722830	0.098902	-0.124011
O4	O	1.222830	0.598902	0.375989
O5	O	0.830356	-0.008620	-0.123986
O6	O	1.330356	0.491380	0.376014
O7	O	0.818616	0.194691	-0.124022
O8	O	1.318616	0.694691	0.375978
O9	O	0.830347	-0.008613	0.124093
O10	O	1.330347	0.491387	0.624093
O11	O	0.722821	0.098909	0.124068
O12	O	1.222821	0.598909	0.624068
O13	O	0.926133	0.087176	0.124082
O14	O	1.426133	0.587176	0.624082
Cu15	Cu	0.824476	0.093043	0.146727
Cu16	Cu	1.324476	0.593043	0.646727
Cu17	Cu	0.824487	0.093035	-0.146655
Cu18	Cu	1.324487	0.593035	0.353345
O19	O	0.818607	0.194699	0.124057
O20	O	1.318607	0.694699	0.624057
C21	C	0.696815	0.098525	0.000027
C22	C	1.196815	0.598525	0.500027
C23	C	0.619310	0.097384	0.000022
C24	C	1.119310	0.597384	0.500022
C25	C	0.829972	-0.034628	0.000055
C26	C	1.329972	0.465372	0.500055
C27	C	0.828833	-0.112133	0.000059
C28	C	1.328833	0.387867	0.500059
C29	C	0.066060	0.089235	-0.135189
C30	C	0.566060	0.589235	0.364811
C31	C	0.138884	0.090303	-0.135195
C32	C	0.638884	0.590303	0.364805
C33	C	0.175296	0.090844	0.000033
C34	C	0.675296	0.590844	0.500033
C35	C	0.138881	0.090299	0.135276
C36	C	0.638881	0.590299	0.635276
C37	C	0.066059	0.089224	0.135278
C38	C	0.566059	0.589224	0.635278
N39	N	0.284312	0.132266	0.100681
N40	N	0.784312	0.632266	0.600681
N41	N	0.353489	0.133289	0.100670
N42	N	0.853489	0.633289	0.600670
C43	C	0.394705	0.094082	0.000034
C44	C	0.894705	0.594082	0.500034
N45	N	0.364129	0.053823	-0.100612
N46	N	0.864129	0.553823	0.399388
N47	N	0.294944	0.052803	-0.100605
N48	N	0.794944	0.552803	0.399395
C49	C	0.254260	0.092010	0.000045
C50	C	0.754260	0.592010	0.500045
C51	C	0.510077	0.095780	-0.135207
C52	C	1.010077	0.595780	0.364793
C53	C	0.582903	0.096844	-0.135207
C54	C	1.082903	0.596844	0.364793
C55	C	0.582897	0.096847	0.135267
C56	C	1.082897	0.596847	0.635267
C57	C	0.510073	0.095777	0.135264
C58	C	1.010073	0.595777	0.635264
C59	C	0.473667	0.095246	0.000023
C60	C	0.973667	0.595246	0.500023
C61	C	0.828306	-0.148535	-0.135169
C62	C	1.328306	0.351465	0.364831
C63	C	0.827226	-0.221358	-0.135181
C64	C	1.327226	0.278642	0.364819
C65	C	0.826687	-0.257777	0.000044
C66	C	1.326687	0.242223	0.500044
C67	C	0.827210	-0.221365	0.135290
C68	C	1.327210	0.278635	0.635290
C69	C	0.828283	-0.148543	0.135297
C70	C	1.328283	0.351457	0.635297
N71	N	0.864731	-0.377437	0.100691
N72	N	1.364731	0.122563	0.600691
N73	N	0.863714	-0.446616	0.100675
N74	N	1.363714	0.053384	0.600675
C75	C	0.823453	-0.477186	0.000029
C76	C	1.323453	0.022814	0.500029
N77	N	0.784258	-0.435967	-0.100622
N78	N	1.284258	0.064033	0.399378
N79	N	0.785279	-0.366782	-0.100610
N80	N	1.285279	0.133218	0.399390
C81	C	0.825523	-0.336741	0.000051
C82	C	1.325523	0.163259	0.500051
C83	C	0.821755	-0.592552	-0.135221
C84	C	1.321755	-0.092552	0.364779
C85	C	0.820670	-0.665375	-0.135226
C86	C	1.320670	-0.165375	0.364774
C87	C	0.820661	-0.665382	0.135248
C88	C	1.320661	-0.165382	0.635248
C89	C	0.821738	-0.592559	0.135250
C90	C	1.321738	-0.092559	0.635250
C91	C	0.822288	-0.556149	0.000011
C92	C	1.322288	-0.056149	0.500011
C93	C	0.952148	0.087553	0.000041
C94	C	1.452148	0.587553	0.500041
C95	C	1.029653	0.088694	0.000037
C96	C	1.529653	0.588694	0.500037
C97	C	0.818991	0.220706	0.000013
C98	C	1.318991	0.720706	0.500013
C99	C	0.820130	0.298211	-0.000001
C100	C	1.320130	0.798211	0.499999
N101	N	0.824474	0.093049	0.353076
N102	N	1.324474	0.593049	0.853076
N103	N	0.824495	0.093024	-0.353004
N104	N	1.324495	0.593024	0.146996
C105	C	0.774732	0.142758	0.450370
C106	C	1.274732	0.642758	0.950370
C107	C	0.837783	0.156114	0.549785
C108	C	1.337783	0.656114	1.049785
C109	C	0.761449	0.079699	0.549788
C110	C	1.261449	0.579699	1.049788
C111	C	0.887557	0.106436	0.450302
C112	C	1.387557	0.606436	0.950302
C113	C	0.811181	0.029993	0.450296
C114	C	1.311181	0.529993	0.950296
C115	C	0.874278	0.043322	0.549667
C116	C	1.374278	0.543322	1.049667
H117	H	0.036423	0.088800	-0.245313
H118	H	0.536423	0.588800	0.254687
H119	H	0.612543	0.097285	0.245372
H120	H	1.112543	0.597285	0.745372
H121	H	0.849040	0.209428	0.593485
H122	H	1.349040	0.709428	1.093485
H123	H	0.036416	0.088786	0.245398
H124	H	0.536416	0.588786	0.745398
Cl125	Cl	0.822441	-0.546775	-0.305231
Cl126	Cl	1.322441	-0.046775	0.194769
H127	H	0.480429	0.095339	0.245379
H128	H	0.980429	0.595339	0.745379
H129	H	0.828752	-0.118895	-0.245291
H130	H	1.328752	0.381105	0.254709
Cl131	Cl	0.939305	-0.021600	0.616571
Cl132	Cl	1.439305	0.478400	1.116571
Cl133	Cl	0.628674	0.097517	-0.305221
Cl134	Cl	1.128674	0.597517	0.194779
H135	H	0.820216	-0.695033	0.245350
H136	H	1.320216	-0.195033	0.745350
Cl137	Cl	0.709846	0.207716	0.383045
Cl138	Cl	1.209846	0.707716	0.883045
H139	H	0.480434	0.095346	-0.245328
H140	H	0.980434	0.595346	0.254672
H141	H	0.826793	-0.251003	-0.245303
H142	H	1.326793	0.248997	0.254697
H143	H	0.826769	-0.251022	0.245390
H144	H	1.326769	0.248978	0.745390
Cl145	Cl	0.828944	-0.102777	0.305313
Cl146	Cl	1.328944	0.397223	0.805313
H147	H	0.799904	-0.023303	0.406561
H148	H	1.299904	0.476697	0.906561
H149	H	0.708141	0.068418	0.593491
H150	H	1.208141	0.568418	1.093491
H151	H	0.822173	-0.562920	0.245367
H152	H	1.322173	-0.062920	0.745367
Cl153	Cl	0.184663	0.090985	-0.305205
Cl154	Cl	0.684663	0.590985	0.194795
H155	H	0.168532	0.090739	0.245379
H156	H	0.668532	0.590739	0.745379
Cl157	Cl	0.820003	-0.711139	-0.305244
Cl158	Cl	1.320003	-0.211139	0.194756
Cl159	Cl	0.969879	0.123950	0.383127
Cl160	Cl	1.469879	0.623950	0.883127
