data_functionalizedCrystal
_audit_creation_method	'MofGen! by Chris Wilmer'
_symmetry_space_group_name_H-M	'P1'
_symmetry_Int_Tables_number	1
_symmetry_cell_setting	triclinic
loop_
_symmetry_equiv_pos_as_xyz
  x,y,z
_cell_length_a	19.121063
_cell_length_b	18.050590
_cell_length_c	18.050583
_cell_angle_alpha	89.997484
_cell_angle_beta	92.401387
_cell_angle_gamma	87.544963
loop_
_atom_site_label
_atom_site_type_symbol
_atom_site_fract_x
_atom_site_fract_y
_atom_site_fract_z
Zn1	Zn	-0.279806	-1.122681	-0.432152
Zn2	Zn	0.053527	-0.789348	-0.098819
Zn3	Zn	0.386860	-0.456015	0.234515
Zn4	Zn	-0.397277	-1.117292	-0.313255
Zn5	Zn	-0.063943	-0.783958	0.020078
Zn6	Zn	0.269390	-0.450625	0.353412
Zn7	Zn	-0.279818	-0.998498	-0.308017
Zn8	Zn	0.053515	-0.665164	0.025316
Zn9	Zn	0.386848	-0.331831	0.358650
Zn10	Zn	-0.397192	-0.993154	-0.437440
Zn11	Zn	-0.063859	-0.659821	-0.104106
Zn12	Zn	0.269474	-0.326488	0.229227
O13	O	-0.338523	-1.057906	-0.372716
O14	O	-0.005190	-0.724573	-0.039383
O15	O	0.328143	-0.391239	0.293951
O16	O	-0.295419	-1.225889	-0.416359
O17	O	0.037914	-0.892556	-0.083026
O18	O	0.371247	-0.559223	0.250307
O19	O	-0.381736	-1.101514	-0.208637
O20	O	-0.048402	-0.768181	0.124696
O21	O	0.284931	-0.434847	0.458029
O22	O	-0.181534	-1.019462	-0.320079
O23	O	0.151800	-0.686129	0.013255
O24	O	0.485133	-0.352796	0.346588
O25	O	-0.381724	-1.221930	-0.329006
O26	O	-0.048391	-0.888596	0.004327
O27	O	0.284943	-0.555263	0.337661
O28	O	-0.181525	-1.110700	-0.411280
O29	O	0.151808	-0.777366	-0.077947
O30	O	0.485142	-0.444033	0.255386
O31	O	-0.295440	-1.014236	-0.204789
O32	O	0.037894	-0.680903	0.128544
O33	O	0.371227	-0.347570	0.461878
O34	O	-0.295358	-0.893866	-0.325206
O35	O	0.037975	-0.560532	0.008127
O36	O	0.371308	-0.227199	0.341461
O37	O	-0.381581	-1.010356	-0.540661
O38	O	-0.048247	-0.677022	-0.207328
O39	O	0.285086	-0.343689	0.126005
O40	O	-0.381592	-0.889940	-0.420292
O41	O	-0.048259	-0.556607	-0.086959
O42	O	0.285074	-0.223273	0.246374
O43	O	-0.295338	-1.105519	-0.536776
O44	O	0.037996	-0.772185	-0.203443
O45	O	0.371329	-0.438852	0.129890
O46	O	-0.495548	-1.096333	-0.334133
O47	O	-0.162215	-0.762999	-0.000800
O48	O	0.171118	-0.429666	0.332533
O49	O	-0.495487	-1.005130	-0.425371
O50	O	-0.162153	-0.671796	-0.092038
O51	O	0.171180	-0.338463	0.241295
C52	C	-0.338468	-0.864957	-0.372755
C53	C	-0.005135	-0.531623	-0.039422
C54	C	0.328199	-0.198290	0.293912
C55	C	-0.338461	-0.782411	-0.372790
C56	C	-0.005128	-0.449078	-0.039457
C57	C	0.328205	-0.115744	0.293877
C58	C	-0.385482	-0.580841	-0.424396
C59	C	-0.052149	-0.247508	-0.091063
C60	C	0.281185	0.085825	0.242271
C61	C	-0.321437	-0.534337	-0.439788
C62	C	0.011896	-0.201004	-0.106455
C63	C	0.345230	0.132329	0.226879
C64	C	-0.338495	-0.631279	-0.372763
C65	C	-0.005161	-0.297946	-0.039430
C66	C	0.328172	0.035387	0.293904
C67	C	-0.402571	-0.530700	-0.357379
C68	C	-0.069237	-0.197367	-0.024046
C69	C	0.264096	0.135966	0.309288
C70	C	-0.338533	-0.485292	-0.372738
C71	C	-0.005199	-0.151959	-0.039405
C72	C	0.328134	0.181374	0.293928
C73	C	-0.274415	-0.585864	-0.388189
C74	C	0.058918	-0.252530	-0.054855
C75	C	0.392251	0.080803	0.278478
C76	C	-0.355593	-0.582229	-0.305750
C77	C	-0.022259	-0.248896	0.027583
C78	C	0.311074	0.084437	0.360917
C79	C	-0.291503	-0.535749	-0.321114
C80	C	0.041830	-0.202416	0.012219
C81	C	0.375164	0.130917	0.345552
C82	C	-0.338474	-0.715378	-0.372779
C83	C	-0.005140	-0.382045	-0.039446
C84	C	0.328193	-0.048712	0.293888
C85	C	-0.338546	-0.401195	-0.372722
C86	C	-0.005213	-0.067862	-0.039388
C87	C	0.328120	0.265471	0.293945
C88	C	-0.521001	-1.049587	-0.380911
C89	C	-0.187668	-0.716253	-0.047577
C90	C	0.145665	-0.382920	0.285756
C91	C	-0.599066	-1.046096	-0.384441
C92	C	-0.265733	-0.712762	-0.051108
C93	C	0.067601	-0.379429	0.282225
C94	C	-0.635750	-1.091977	-0.338636
C95	C	-0.302417	-0.758644	-0.005303
C96	C	0.030917	-0.425310	0.328030
C97	C	-0.709100	-1.088698	-0.341961
C98	C	-0.375767	-0.755365	-0.008628
C99	C	-0.042433	-0.422031	0.324705
C100	C	-0.745765	-1.039533	-0.391088
C101	C	-0.412432	-0.706200	-0.057754
C102	C	-0.079098	-0.372867	0.275579
C103	C	-0.709076	-0.993650	-0.436897
C104	C	-0.375743	-0.660317	-0.103564
C105	C	-0.042409	-0.326983	0.229769
C106	C	-0.635727	-0.996933	-0.433576
C107	C	-0.302394	-0.663600	-0.100243
C108	C	0.030939	-0.330267	0.233091
C109	C	-0.967231	-1.027246	-0.403495
C110	C	-0.633897	-0.693913	-0.070161
C111	C	-0.300564	-0.360579	0.263172
C112	C	-1.040585	-1.023965	-0.406811
C113	C	-0.707251	-0.690631	-0.073478
C114	C	-0.373918	-0.357298	0.259855
C115	C	-1.040603	-1.119014	-0.311876
C116	C	-0.707270	-0.785681	0.021458
C117	C	-0.373937	-0.452347	0.354791
C118	C	-0.967253	-1.122290	-0.308555
C119	C	-0.633920	-0.788956	0.024778
C120	C	-0.300587	-0.455623	0.358111
C121	C	-0.930571	-1.076409	-0.354368
C122	C	-0.597237	-0.743076	-0.021035
C123	C	-0.263904	-0.409743	0.312299
C124	C	-0.820741	-1.036179	-0.394486
C125	C	-0.487407	-0.702846	-0.061152
C126	C	-0.154074	-0.369512	0.272181
C127	C	-0.855596	-1.079768	-0.350973
C128	C	-0.522263	-0.746435	-0.017640
C129	C	-0.188930	-0.413101	0.315694
C130	C	-0.155333	-1.066278	-0.364505
C131	C	0.178000	-0.732945	-0.031172
C132	C	0.511334	-0.399612	0.302161
C133	C	-0.077268	-1.069846	-0.361007
C134	C	0.256065	-0.736513	-0.027673
C135	C	0.589398	-0.403179	0.305660
C136	C	-0.338449	-1.057942	-0.566418
C137	C	-0.005115	-0.724609	-0.233085
C138	C	0.328218	-0.391276	0.100248
C139	C	-0.338417	-1.057958	-0.648963
C140	C	-0.005083	-0.724624	-0.315629
C141	C	0.328250	-0.391291	0.017704
C142	C	-0.338570	-0.251610	-0.372689
C143	C	-0.005237	0.081724	-0.039356
C144	C	0.328097	0.415057	0.293977
C145	C	-0.338565	-0.334156	-0.372709
C146	C	-0.005232	-0.000822	-0.039375
C147	C	0.328102	0.332511	0.293958
C148	C	-0.291495	-1.109758	-0.846300
C149	C	0.041838	-0.776425	-0.512966
C150	C	0.375172	-0.443091	-0.179633
C151	C	-0.274291	-1.042800	-0.894941
C152	C	0.059043	-0.709467	-0.561608
C153	C	0.392376	-0.376134	-0.228275
C154	C	-0.338405	-1.057988	-0.800093
C155	C	-0.005071	-0.724655	-0.466759
C156	C	0.328262	-0.391321	-0.133426
C157	C	-0.355564	-1.124975	-0.898531
C158	C	-0.022231	-0.791642	-0.565197
C159	C	0.311102	-0.458308	-0.231864
C160	C	-0.338392	-1.058023	-0.946077
C161	C	-0.005058	-0.724690	-0.612744
C162	C	0.328275	-0.391357	-0.279410
C163	C	-0.321167	-0.990996	-0.847645
C164	C	0.012166	-0.657663	-0.514312
C165	C	0.345500	-0.324329	-0.180979
C166	C	-0.402471	-1.073215	-0.851232
C167	C	-0.069137	-0.739882	-0.517898
C168	C	0.264196	-0.406548	-0.184565
C169	C	-0.385291	-1.006210	-0.899852
C170	C	-0.051957	-0.672876	-0.566519
C171	C	0.281376	-0.339543	-0.233185
C172	C	-0.338410	-1.057969	-0.715994
C173	C	-0.005077	-0.724636	-0.382661
C174	C	0.328256	-0.391302	-0.049328
C175	C	-0.338386	-1.058035	-1.030173
C176	C	-0.005053	-0.724702	-0.696840
C177	C	0.328281	-0.391368	-0.363507
C178	C	-0.338547	-1.057915	-0.179765
C179	C	-0.005214	-0.724582	0.153568
C180	C	0.328119	-0.391248	0.486902
C181	C	-0.338382	-1.058053	-0.097212
C182	C	-0.005048	-0.724719	0.236121
C183	C	0.328285	-0.391386	0.569455
H184	H	-0.605902	-1.132009	-0.298629
H185	H	-0.272569	-0.798675	0.034704
H186	H	0.060765	-0.465342	0.368037
F187	F	-0.203587	-0.617289	-0.405268
F188	F	0.129746	-0.283956	-0.071934
F189	F	0.463080	0.049377	0.261399
H190	H	-0.220106	-1.029932	-0.914236
H191	H	0.113227	-0.696598	-0.580903
H192	H	0.446561	-0.363265	-0.247570
F193	F	-0.302548	-0.506808	-0.513846
F194	F	0.030785	-0.173474	-0.180513
F195	F	0.364118	0.159859	0.152820
H196	H	-0.370062	-0.603306	-0.249107
H197	H	-0.036728	-0.269973	0.084226
H198	H	0.296605	0.063360	0.417560
F199	F	-1.079649	-1.167843	-0.263126
F200	F	-0.746315	-0.834510	0.070208
F201	F	-0.412982	-0.501176	0.403541
F202	F	-0.816574	-1.132094	-0.298694
F203	F	-0.483240	-0.798761	0.034639
F204	F	-0.149907	-0.465427	0.367973
H205	H	-0.251800	-1.153471	-0.822851
H206	H	0.081533	-0.820137	-0.489517
H207	H	0.414867	-0.486804	-0.156184
H208	H	-0.425150	-0.600715	-0.468101
H209	H	-0.091817	-0.267382	-0.134768
H210	H	0.241516	0.065952	0.198566
H211	H	-0.456743	-0.506562	-0.344379
H212	H	-0.123409	-0.173228	-0.011046
H213	H	0.209924	0.160105	0.322288
H214	H	-0.251738	-0.516019	-0.277438
H215	H	0.081595	-0.182686	0.055896
H216	H	0.414929	0.150648	0.389229
H217	H	-0.850601	-0.996147	-0.434483
H218	H	-0.517268	-0.662814	-0.101150
H219	H	-0.183935	-0.329481	0.232184
H220	H	-0.738965	-1.126059	-0.304662
H221	H	-0.405631	-0.792726	0.028672
H222	H	-0.072298	-0.459392	0.362005
H223	H	-0.937402	-1.162323	-0.268553
H224	H	-0.604069	-0.828990	0.064781
H225	H	-0.270735	-0.495657	0.398114
F226	F	-1.079605	-0.971627	-0.459093
F227	F	-0.746271	-0.638293	-0.125760
F228	F	-0.412938	-0.304960	0.207573
H229	H	-0.937369	-0.989887	-0.440796
H230	H	-0.604036	-0.656554	-0.107463
H231	H	-0.270703	-0.323220	0.225871
H232	H	-0.738934	-0.953622	-0.476901
H233	H	-0.405601	-0.620289	-0.143567
H234	H	-0.072268	-0.286956	0.189766
F235	F	-0.596686	-0.948102	-0.482330
F236	F	-0.263353	-0.614769	-0.148996
F237	F	0.069981	-0.281435	0.184337
F238	F	-0.302115	-0.916949	-0.818582
F239	F	0.031218	-0.583615	-0.485249
F240	F	0.364552	-0.250282	-0.151915
H241	H	-0.370082	-1.181610	-0.920859
H242	H	-0.036749	-0.848277	-0.587526
H243	H	0.296584	-0.514943	-0.254193
F244	F	-0.437129	-0.948943	-0.930331
F245	F	-0.103796	-0.615610	-0.596997
F246	F	0.229538	-0.282276	-0.263664
F247	F	-0.473274	-1.090063	-0.825989
F248	F	-0.139941	-0.756730	-0.492655
F249	F	0.193393	-0.423396	-0.159322
