data_functionalizedCrystal
_audit_creation_method	'MofGen! by Chris Wilmer'
_symmetry_space_group_name_H-M	'P1'
_symmetry_Int_Tables_number	1
_symmetry_cell_setting	triclinic
loop_
_symmetry_equiv_pos_as_xyz
  x,y,z
_cell_length_a	17.699083
_cell_length_b	14.421503
_cell_length_c	15.944499
_cell_angle_alpha	90.007537
_cell_angle_beta	83.380312
_cell_angle_gamma	89.998846
loop_
_atom_site_label
_atom_site_type_symbol
_atom_site_fract_x
_atom_site_fract_y
_atom_site_fract_z
O1	O	-1.004244	0.076966	-0.106211
O2	O	-0.783887	0.076997	-0.120031
O3	O	-0.900103	0.076982	0.009170
O4	O	-0.888028	0.076981	-0.235411
O5	O	-0.900084	-0.077241	0.009150
O6	O	-0.783868	-0.077226	-0.120050
O7	O	-1.004225	-0.077258	-0.106230
Cu8	Cu	-0.894044	-0.091324	-0.113142
Cu9	Cu	-0.894067	0.091063	-0.113119
O10	O	-0.888008	-0.077243	-0.235431
C11	C	-0.755680	-0.000110	-0.119545
C12	C	-0.671659	-0.000098	-0.118060
C13	C	-0.623155	-0.000098	-0.193898
C14	C	-0.544210	-0.000110	-0.192497
C15	C	-0.513770	-0.000114	-0.115257
C16	C	-0.562280	-0.000116	-0.039413
C17	C	-0.641224	-0.000112	-0.040815
C18	C	-0.243908	-0.000136	-0.033758
C19	C	-0.164958	-0.000138	-0.032362
C20	C	-0.146894	-0.000134	-0.185440
C21	C	-0.225838	-0.000129	-0.186842
C22	C	-0.274341	-0.000137	-0.110999
C23	C	-0.359943	-0.000126	-0.112519
C24	C	-0.428170	-0.000118	-0.113736
N25	N	-0.894034	-0.219605	-0.113157
C26	C	-0.840286	-0.469252	-0.172873
C27	C	-0.908674	-0.531064	-0.189037
C28	C	-0.894052	-0.408766	-0.113137
C29	C	-0.825682	-0.531047	-0.096993
C30	C	-0.894064	-0.591488	-0.113120
C31	C	-0.962475	-0.469218	-0.129339
C32	C	-0.879438	-0.469196	-0.037262
C33	C	-0.947875	-0.530981	-0.053394
C34	C	-0.894045	-0.303505	-0.113150
C35	C	-0.894080	-0.696747	-0.113107
C36	C	-0.032432	-0.000146	-0.106716
C37	C	-0.116453	-0.000145	-0.108201
C38	C	-0.899599	-0.000127	0.040454
C39	C	-0.898117	-0.000120	0.133699
N40	N	-0.894084	0.219345	-0.113097
C41	C	-0.888512	-0.000131	-0.266715
C42	C	-0.889995	-0.000132	-0.359960
C43	C	-0.965636	-0.000135	0.425377
C44	C	-0.930528	-0.076173	0.364268
C45	C	-0.892732	-0.000130	0.469324
C46	C	-0.930528	0.075879	0.364293
C47	C	-0.895382	-0.000123	0.304421
C48	C	-0.857604	-0.076231	0.409444
C49	C	-0.857614	0.075889	0.409475
C50	C	-0.822454	-0.000168	0.348384
C51	C	-0.891208	-0.000134	0.564321
C52	C	-0.896901	-0.000125	0.209425
H53	H	-0.537490	-0.000133	0.023477
C54	C	-0.093538	-0.000136	-0.268871
C55	C	-0.096937	0.079954	-0.332194
C56	C	-0.043584	0.079955	-0.415622
C57	C	0.013169	-0.000134	-0.435728
C58	C	0.016571	-0.080230	-0.372404
C59	C	-0.036782	-0.080231	-0.288976
H60	H	-0.138951	0.139246	-0.317311
H61	H	-0.046102	0.139248	-0.462498
H62	H	0.052665	-0.000132	-0.497487
H63	H	0.058585	-0.139522	-0.387286
H64	H	-0.034264	-0.139524	-0.242099
C65	C	-0.747568	-0.567733	-0.078540
C66	C	-0.733474	-0.672915	-0.074388
C67	C	-0.655358	-0.709595	-0.055940
C68	C	-0.591337	-0.641093	-0.041645
C69	C	-0.605430	-0.535904	-0.045798
C70	C	-0.683545	-0.499224	-0.064245
H71	H	-0.780867	-0.723631	-0.084970
H72	H	-0.644927	-0.787463	-0.052866
H73	H	-0.533512	-0.668245	-0.027989
H74	H	-0.558036	-0.485188	-0.035215
H75	H	-0.693977	-0.421355	-0.067319
H76	H	-0.961357	-0.140465	0.344234
H77	H	-1.026139	-0.000216	0.458834
C78	C	-0.815973	-0.163170	0.436333
C79	C	-0.732397	-0.180330	0.401253
C80	C	-0.690768	-0.267268	0.428145
C81	C	-0.732717	-0.337047	0.490117
C82	C	-0.816298	-0.319889	0.525200
C83	C	-0.857926	-0.232951	0.498308
H84	H	-0.701340	-0.128674	0.355375
H85	H	-0.628896	-0.279969	0.402174
H86	H	-0.701901	-0.401403	0.510024
H87	H	-0.847354	-0.371545	0.571078
H88	H	-0.919799	-0.220250	0.524279
C89	C	-0.694583	-0.000109	0.042608
C90	C	-0.691181	-0.080195	0.105934
C91	C	-0.744539	-0.080198	0.189359
C92	C	-0.801299	-0.000115	0.209458
C93	C	-0.804703	0.079977	0.146130
C94	C	-0.751345	0.079980	0.062705
H95	H	-0.649161	-0.139483	0.091057
H96	H	-0.742019	-0.139488	0.236238
H97	H	-0.840798	-0.000117	0.271214
H98	H	-0.846722	0.139265	0.161006
H99	H	-0.753865	0.139270	0.015825
C100	C	-0.925379	-0.567806	-0.275703
C101	C	-0.995787	-0.628886	-0.282455
C102	C	-1.012481	-0.665633	-0.369121
C103	C	-0.958766	-0.641300	-0.449035
C104	C	-0.888352	-0.580217	-0.442286
C105	C	-0.871659	-0.543470	-0.355620
H106	H	-1.035554	-0.646901	-0.223295
H107	H	-1.064605	-0.710851	-0.374117
H108	H	-0.971123	-0.668503	-0.513191
H109	H	-0.848585	-0.562202	-0.501446
H110	H	-0.819534	-0.498252	-0.350624
C111	C	-1.040611	-0.432694	-0.147884
C112	C	-1.088006	-0.370930	-0.082854
C113	C	-1.166139	-0.334405	-0.101402
C114	C	-1.196876	-0.359643	-0.184982
C115	C	-1.149480	-0.421410	-0.250019
C116	C	-1.071347	-0.457936	-0.231470
H117	H	-1.065253	-0.352244	-0.020978
H118	H	-1.201225	-0.288681	-0.053258
H119	H	-1.254715	-0.332605	-0.198713
H120	H	-1.172233	-0.440096	-0.311894
H121	H	-1.036262	-0.503660	-0.279614
C122	C	-0.490855	-0.000101	-0.275920
C123	C	-0.404019	-0.000110	-0.274385
C124	C	-0.350664	-0.000100	-0.357813
C125	C	-0.384145	-0.000083	-0.442775
C126	C	-0.470985	-0.000075	-0.444313
C127	C	-0.524340	-0.000084	-0.360885
H128	H	-0.379230	-0.000122	-0.211489
H129	H	-0.286378	-0.000107	-0.356674
H130	H	-0.344648	-0.000076	-0.504533
H131	H	-0.495774	-0.000062	-0.507210
H132	H	-0.588626	-0.000078	-0.362024
C133	C	-1.009369	-0.567377	0.014865
C134	C	-1.093530	-0.542733	0.010827
C135	C	-1.155025	-0.579131	0.079082
C136	C	-1.132358	-0.640172	0.151375
C137	C	-1.048193	-0.664819	0.155415
C138	C	-0.986698	-0.628421	0.087161
H139	H	-1.110313	-0.497544	-0.042690
H140	H	-1.217330	-0.560886	0.076091
H141	H	-1.177881	-0.667116	0.201901
H142	H	-1.031410	-0.710008	0.208933
H143	H	-0.924393	-0.646666	0.090152
C144	C	-0.778925	-0.432624	-0.241166
C145	C	-0.801642	-0.370213	-0.312508
C146	C	-0.740286	-0.333583	-0.380802
C147	C	-0.656214	-0.359364	-0.377754
C148	C	-0.633494	-0.421778	-0.306409
C149	C	-0.694849	-0.458408	-0.238115
H150	H	-0.863880	-0.351125	-0.314767
H151	H	-0.757105	-0.287380	-0.433617
H152	H	-0.610795	-0.332249	-0.428310
H153	H	-0.571255	-0.440866	-0.304151
H154	H	-0.678030	-0.504611	-0.185301
C155	C	-0.862697	-0.432444	0.049382
C156	C	-0.787052	-0.456788	0.083127
C157	C	-0.770301	-0.420033	0.169770
C158	C	-0.829195	-0.358935	0.222668
C159	C	-0.904846	-0.334589	0.188924
C160	C	-0.921597	-0.371343	0.102281
H161	H	-0.743450	-0.502019	0.043967
H162	H	-0.714299	-0.438057	0.194749
H163	H	-0.816795	-0.331728	0.286807
H164	H	-0.948447	-0.289357	0.228084
H165	H	-0.977598	-0.353320	0.077302
C166	C	-0.816001	0.162744	0.436579
C167	C	-0.846615	0.259947	0.419084
C168	C	-0.805009	0.346811	0.446191
C169	C	-0.732790	0.336471	0.490792
C170	C	-0.702172	0.239264	0.508288
C171	C	-0.743778	0.152401	0.481182
H172	H	-0.900080	0.267605	0.386066
H173	H	-0.827675	0.418770	0.433238
H174	H	-0.701991	0.400773	0.510858
H175	H	-0.648708	0.231607	0.541307
H176	H	-0.721113	0.080442	0.494134
H177	H	-0.961384	0.140158	0.344286
H178	H	-0.250617	-0.000122	-0.249738
H179	H	-0.140178	-0.000143	0.030539
C180	C	-0.656636	-0.000093	-0.278864
C181	C	-0.638330	-0.080180	-0.341825
C182	C	-0.671808	-0.080178	-0.426793
C183	C	-0.723592	-0.000089	-0.448800
C184	C	-0.741901	0.080003	-0.385838
C185	C	-0.708423	0.080001	-0.300870
H186	H	-0.599994	-0.139471	-0.325535
H187	H	-0.658255	-0.139468	-0.473402
H188	H	-0.748375	-0.000088	-0.511699
H189	H	-0.780237	0.139295	-0.402128
H190	H	-0.721976	0.139291	-0.254261
H191	H	-0.283391	-0.000143	0.027998
H192	H	-0.761898	-0.000203	0.315074
