data_functionalizedCrystal
_audit_creation_method	'MofGen! by Chris Wilmer'
_symmetry_space_group_name_H-M	'P1'
_symmetry_Int_Tables_number	1
_symmetry_cell_setting	triclinic
loop_
_symmetry_equiv_pos_as_xyz
  x,y,z
_cell_length_a	18.050591
_cell_length_b	18.050589
_cell_length_c	11.169417
_cell_angle_alpha	90.008127
_cell_angle_beta	89.999841
_cell_angle_gamma	90.027061
loop_
_atom_site_label
_atom_site_type_symbol
_atom_site_fract_x
_atom_site_fract_y
_atom_site_fract_z
Zn1	Zn	1.135214	-0.295804	0.678505
Zn2	Zn	1.135148	-0.419965	0.477820
Zn3	Zn	1.011056	-0.295791	0.477843
Zn4	Zn	1.010981	-0.419954	0.678469
O5	O	1.073100	-0.357878	0.578159
O6	O	1.239130	-0.312284	0.651890
O7	O	1.118691	-0.403492	0.309874
O8	O	1.027585	-0.191868	0.504486
O9	O	1.239081	-0.403505	0.504447
O10	O	1.118803	-0.191877	0.651912
O11	O	1.027521	-0.312262	0.309891
O12	O	0.907122	-0.312251	0.504451
O13	O	1.027457	-0.403486	0.846423
O14	O	0.907067	-0.403473	0.651850
O15	O	1.118730	-0.312273	0.846450
O16	O	1.118618	-0.523888	0.504412
O17	O	1.027393	-0.523880	0.651827
C18	C	0.880148	-0.357860	0.578149
C19	C	0.797602	-0.357870	0.578174
C20	C	0.548768	-0.407579	0.658220
C21	C	0.598151	-0.425638	0.548675
C22	C	0.500482	-0.357894	0.578172
C23	C	0.598181	-0.339858	0.687711
C24	C	0.646467	-0.357884	0.578178
C25	C	0.548777	-0.375988	0.468569
C26	C	0.548803	-0.290176	0.607679
C27	C	0.598163	-0.308209	0.498058
C28	C	0.416383	-0.357901	0.578169
C29	C	0.730563	-0.357876	0.578168
C30	C	1.073010	-0.550830	0.578139
C31	C	1.073040	-0.633376	0.578171
C32	C	1.023481	-0.832849	0.658307
C33	C	1.005395	-0.882271	0.548793
C34	C	1.073113	-0.784507	0.578187
C35	C	1.091234	-0.882167	0.687714
C36	C	1.073182	-0.930492	0.578211
C37	C	1.054992	-0.832841	0.468614
C38	C	1.140863	-0.832732	0.607609
C39	C	1.122803	-0.882132	0.498019
C40	C	1.073071	-0.700408	0.578174
C41	C	1.073224	-1.014588	0.578212
C42	C	1.266805	-0.357897	0.578170
C43	C	1.349351	-0.357905	0.578174
C44	C	1.073093	-0.357879	0.891202
C45	C	1.073090	-0.357880	1.024602
C46	C	1.073210	-0.164173	0.578206
C47	C	1.073257	-0.081627	0.578225
C48	C	1.073098	-0.357891	1.266335
C49	C	1.073092	-0.357881	1.132935
H50	H	0.527080	-0.449633	0.725826
O51	O	0.623979	-0.493996	0.519087
C52	C	0.598800	-0.546223	0.603681
H53	H	0.584954	-0.516775	0.691154
H54	H	0.547114	-0.575017	0.567908
C55	C	0.676824	-0.640326	0.518815
C56	C	0.659825	-0.604158	0.626254
H57	H	0.714465	-0.676065	0.532735
H58	H	0.693787	-0.605141	0.461819
H59	H	0.633748	-0.664315	0.489015
H60	H	0.702898	-0.580162	0.656044
H61	H	0.642871	-0.639340	0.683255
O62	O	1.209181	-0.806716	0.637115
C63	C	1.237296	-0.763741	0.541996
H64	H	1.208909	-0.780656	0.455008
H65	H	1.226191	-0.702619	0.560376
C66	C	1.356220	-0.755737	0.637610
C67	C	1.321359	-0.776517	0.530768
H68	H	1.408074	-0.763615	0.630687
H69	H	1.337278	-0.784688	0.701697
H70	H	1.346958	-0.704804	0.652915
H71	H	1.330613	-0.827452	0.515473
H72	H	1.340304	-0.747575	0.466679
O73	O	0.522879	-0.394288	0.358111
C74	C	0.444773	-0.394086	0.359447
H75	H	0.424324	-0.402435	0.455065
H76	H	0.423650	-0.338781	0.323944
C77	C	0.440730	-0.447044	0.162262
C78	C	0.415614	-0.457303	0.279701
H79	H	0.422742	-0.486036	0.113067
H80	H	0.493351	-0.447177	0.161359
H81	H	0.423125	-0.400954	0.132693
H82	H	0.433227	-0.503388	0.309274
H83	H	0.362995	-0.457179	0.280607
H84	H	1.164805	-0.903635	0.430196
O85	O	0.624195	-0.321699	0.798159
C86	C	0.702296	-0.321270	0.796346
H87	H	0.722850	-0.357643	0.719810
H88	H	0.722941	-0.262161	0.782837
C89	C	0.706712	-0.306841	1.010006
C90	C	0.731957	-0.351520	0.916009
H91	H	0.725010	-0.325497	1.083821
H92	H	0.654094	-0.307127	1.011228
H93	H	0.723919	-0.257587	0.998733
H94	H	0.714743	-0.400771	0.927276
H95	H	0.784573	-0.351243	0.914793
H96	H	0.948134	-0.904047	0.523930
H97	H	1.106534	-0.903833	0.780330
O98	O	1.036637	-0.806983	0.358177
C99	C	1.036809	-0.728877	0.359502
H100	H	1.028490	-0.708425	0.455128
H101	H	1.092092	-0.707684	0.323927
C102	C	0.983774	-0.724931	0.162383
C103	C	0.973550	-0.699812	0.279831
H104	H	0.944755	-0.707001	0.113234
H105	H	0.983660	-0.777552	0.161487
H106	H	1.029845	-0.707268	0.132753
H107	H	0.927484	-0.717482	0.309464
H108	H	0.973654	-0.647193	0.280730
H109	H	0.619714	-0.266187	0.430288
H110	H	0.527110	-0.232929	0.632673
O111	O	0.973238	-0.807061	0.738890
C112	C	0.901920	-0.832322	0.707441
H113	H	0.900578	-0.846192	0.607890
H114	H	0.887990	-0.884010	0.761608
C115	C	0.846294	-0.754322	0.856664
C116	C	0.844644	-0.771351	0.734391
H117	H	0.810963	-0.716714	0.873292
H118	H	0.894342	-0.737304	0.877855
H119	H	0.834688	-0.797400	0.901788
H120	H	0.856259	-0.728276	0.689269
H121	H	0.796597	-0.788360	0.713192
