data_functionalizedCrystal
_audit_creation_method	'MofGen! by Chris Wilmer'
_symmetry_space_group_name_H-M	'P1'
_symmetry_Int_Tables_number	1
_symmetry_cell_setting	triclinic
loop_
_symmetry_equiv_pos_as_xyz
  x,y,z
_cell_length_a	18.215405
_cell_length_b	18.215407
_cell_length_c	18.215399
_cell_angle_alpha	90.020112
_cell_angle_beta	89.972040
_cell_angle_gamma	89.977347
loop_
_atom_site_label
_atom_site_type_symbol
_atom_site_fract_x
_atom_site_fract_y
_atom_site_fract_z
Zn1	Zn	-0.292990	-1.125079	-0.416133
Zn2	Zn	0.207010	-0.625079	0.083867
Zn3	Zn	-0.416062	-1.124994	-0.293068
Zn4	Zn	0.083938	-0.624994	0.206932
Zn5	Zn	-0.293014	-1.002013	-0.293079
Zn6	Zn	0.206986	-0.502013	0.206921
Zn7	Zn	-0.416019	-1.001983	-0.416091
Zn8	Zn	0.083981	-0.501983	0.083909
O9	O	-0.354522	-1.063517	-0.354592
O10	O	0.145478	-0.563517	0.145408
O11	O	-0.309324	-1.228052	-0.399821
O12	O	0.190676	-0.728052	0.100179
O13	O	-0.399768	-1.108657	-0.190085
O14	O	0.100232	-0.608657	0.309915
O15	O	-0.190027	-1.018387	-0.309424
O16	O	0.309973	-0.518387	0.190576
O17	O	-0.399745	-1.227989	-0.309405
O18	O	0.100255	-0.727989	0.190595
O19	O	-0.190009	-1.108803	-0.399832
O20	O	0.309991	-0.608803	0.100168
O21	O	-0.309365	-1.018303	-0.190093
O22	O	0.190635	-0.518303	0.309907
O23	O	-0.309323	-0.899025	-0.309384
O24	O	0.190677	-0.399025	0.190616
O25	O	-0.399671	-1.018335	-0.519081
O26	O	0.100329	-0.518335	-0.019081
O27	O	-0.399695	-0.899002	-0.399760
O28	O	0.100305	-0.399002	0.100240
O29	O	-0.309282	-1.108774	-0.519112
O30	O	0.190718	-0.608774	-0.019112
O31	O	-0.519041	-1.108627	-0.309365
O32	O	-0.019041	-0.608627	0.190635
O33	O	-0.519009	-1.018251	-0.399749
O34	O	-0.019009	-0.518251	0.100251
C35	C	-0.354507	-0.872311	-0.354569
C36	C	0.145493	-0.372311	0.145431
C37	C	-0.354519	-0.790512	-0.354576
C38	C	0.145481	-0.290512	0.145424
C39	C	-0.545728	-1.063447	-0.354567
C40	C	-0.045728	-0.563447	0.145433
C41	C	-0.627527	-1.063484	-0.354581
C42	C	-0.127527	-0.563484	0.145419
C43	C	-0.401648	-0.602326	-0.401574
C44	C	0.098352	-0.102326	0.098426
C45	C	-0.401649	-0.525467	-0.401582
C46	C	0.098351	-0.025467	0.098418
C47	C	-0.307400	-0.525461	-0.307614
C48	C	0.192600	-0.025461	0.192386
C49	C	-0.307395	-0.602318	-0.307610
C50	C	0.192605	-0.102318	0.192390
C51	C	-0.354523	-0.640748	-0.354589
C52	C	0.145477	-0.140748	0.145411
C53	C	-0.354529	-0.487032	-0.354601
C54	C	0.145471	0.012968	0.145399
C55	C	-0.354531	-0.403699	-0.354609
C56	C	0.145469	0.096301	0.145391
C57	C	-0.354521	-0.724087	-0.354582
C58	C	0.145479	-0.224087	0.145418
C59	C	-0.815651	-1.110586	-0.401720
C60	C	-0.315651	-0.610586	0.098280
C61	C	-0.892509	-1.110613	-0.401734
C62	C	-0.392509	-0.610613	0.098266
C63	C	-0.892641	-1.016539	-0.307511
C64	C	-0.392641	-0.516539	0.192489
C65	C	-0.815783	-1.016509	-0.307501
C66	C	-0.315783	-0.516509	0.192499
C67	C	-0.777290	-1.063537	-0.354605
C68	C	-0.277290	-0.563537	0.145395
C69	C	-0.931006	-1.063594	-0.354628
C70	C	-0.431006	-0.563594	0.145372
C71	C	-1.014340	-1.063622	-0.354643
C72	C	-0.514340	-0.563622	0.145357
C73	C	-0.693951	-1.063508	-0.354591
C74	C	-0.193951	-0.563508	0.145409
C75	C	-0.162569	-1.063608	-0.354634
C76	C	0.337431	-0.563608	0.145366
C77	C	-0.080770	-1.063647	-0.354652
C78	C	0.419230	-0.563647	0.145348
C79	C	-0.354469	-1.063560	-0.546545
C80	C	0.145531	-0.563560	-0.046545
C81	C	-0.354447	-1.063579	-0.628344
C82	C	0.145553	-0.563579	-0.128344
C83	C	-0.354534	-0.255470	-0.354613
C84	C	0.145466	0.244530	0.145387
C85	C	-0.354534	-0.337269	-0.354614
C86	C	0.145466	0.162731	0.145386
C87	C	-0.307318	-1.110697	-0.893419
C88	C	0.192682	-0.610697	-0.393419
C89	C	-0.307338	-1.110689	-0.816561
C90	C	0.192662	-0.610689	-0.316561
C91	C	-0.401470	-1.016520	-0.816518
C92	C	0.098530	-0.516520	-0.316518
C93	C	-0.401453	-1.016533	-0.893375
C94	C	0.098547	-0.516533	-0.393375
C95	C	-0.354373	-1.063621	-0.931824
C96	C	0.145627	-0.563621	-0.431824
C97	C	-0.354410	-1.063599	-0.778108
C98	C	0.145590	-0.563599	-0.278108
C99	C	-0.354432	-1.063589	-0.694774
C100	C	0.145568	-0.563589	-0.194774
C101	C	-0.354352	-1.063631	-1.015163
C102	C	0.145648	-0.563631	-0.515163
C103	C	-0.354520	-1.063516	-0.163386
C104	C	0.145480	-0.563516	0.336614
C105	C	-0.354335	-1.063641	-0.081588
C106	C	0.145665	-0.563641	0.418412
H107	H	-0.440022	-0.494186	-0.439843
H108	H	0.059978	0.005814	0.060157
C109	C	-0.453481	-0.644600	-0.453254
C110	C	0.046519	-0.144600	0.046746
C111	C	-0.537136	-0.634000	-0.447110
C112	C	-0.037136	-0.134000	0.052890
C113	C	-0.588969	-0.676273	-0.498794
C114	C	-0.088969	-0.176273	0.001206
C115	C	-0.557147	-0.729146	-0.556622
C116	C	-0.057147	-0.229146	-0.056622
C117	C	-0.473487	-0.739748	-0.562769
C118	C	0.026513	-0.239748	-0.062769
C119	C	-0.421654	-0.697475	-0.511085
C120	C	0.078346	-0.197475	-0.011085
H121	H	-0.560696	-0.594859	-0.404299
H122	H	-0.060696	-0.094859	0.095701
H123	H	-0.650899	-0.668424	-0.494243
H124	H	-0.150899	-0.168424	0.005757
H125	H	-0.595516	-0.760438	-0.594882
H126	H	-0.095516	-0.260438	-0.094882
H127	H	-0.449927	-0.778890	-0.605579
H128	H	0.050073	-0.278890	-0.105579
H129	H	-0.359724	-0.705324	-0.515636
H130	H	0.140276	-0.205324	-0.015636
C131	C	-0.255559	-0.644589	-0.255920
C132	C	0.244441	-0.144589	0.244080
C133	C	-0.203728	-0.602321	-0.204236
C134	C	0.296272	-0.102321	0.295764
C135	C	-0.151894	-0.644592	-0.152549
C136	C	0.348106	-0.144592	0.347451
C137	C	-0.151889	-0.729132	-0.152546
C138	C	0.348111	-0.229132	0.347454
C139	C	-0.203722	-0.771406	-0.204231
C140	C	0.296278	-0.271406	0.295769
C141	C	-0.255556	-0.729134	-0.255918
C142	C	0.244444	-0.229134	0.244082
H143	H	-0.203730	-0.539735	-0.204236
H144	H	0.296270	-0.039735	0.295764
H145	H	-0.113524	-0.613298	-0.114288
H146	H	0.386476	-0.113298	0.385712
H147	H	-0.113518	-0.760424	-0.114284
H148	H	0.386482	-0.260424	0.385716
H149	H	-0.203720	-0.833991	-0.204231
H150	H	0.296280	-0.333991	0.295769
H151	H	-0.293926	-0.760428	-0.294180
H152	H	0.206074	-0.260428	0.205820
H153	H	-0.269031	-0.494161	-0.269365
H154	H	0.230969	0.005839	0.230635
H155	H	-0.784548	-0.978193	-0.269134
H156	H	-0.284548	-0.478193	0.230866
H157	H	-0.784311	-1.148878	-0.440075
H158	H	-0.284311	-0.648878	0.059925
H159	H	-0.439799	-0.978182	-0.785204
H160	H	0.060201	-0.478182	-0.285204
H161	H	-0.923739	-1.148923	-0.440101
H162	H	-0.423739	-0.648923	0.059899
H163	H	-0.923991	-0.978252	-0.269160
H164	H	-0.423991	-0.478252	0.230840
H165	H	-0.268982	-1.149039	-0.924722
H166	H	0.231018	-0.649039	-0.424722
C167	C	-0.255575	-1.162473	-0.774315
C168	C	0.244425	-0.662473	-0.274315
C169	C	-0.203793	-1.214266	-0.816611
C170	C	0.296207	-0.714266	-0.316611
C171	C	-0.152028	-1.266053	-0.774366
C172	C	0.347972	-0.766053	-0.274366
C173	C	-0.152046	-1.266047	-0.689826
C174	C	0.347954	-0.766047	-0.189826
C175	C	-0.203831	-1.214252	-0.647526
C176	C	0.296169	-0.714252	-0.147526
C177	C	-0.255595	-1.162465	-0.689771
C178	C	0.244405	-0.662465	-0.189771
H179	H	-0.203778	-1.214272	-0.879196
H180	H	0.296222	-0.714272	-0.379196
H181	H	-0.113694	-1.304395	-0.805679
H182	H	0.386306	-0.804395	-0.305679
H183	H	-0.113727	-1.304383	-0.658553
H184	H	0.386273	-0.804383	-0.158553
H185	H	-0.203846	-1.214246	-0.584940
H186	H	0.296154	-0.714246	-0.084940
H187	H	-0.293929	-1.124123	-0.658457
H188	H	0.206071	-0.624123	-0.158457
C189	C	-0.453210	-0.964738	-0.935627
C190	C	0.046790	-0.464738	-0.435627
C191	C	-0.504985	-0.912932	-0.893338
C192	C	-0.004985	-0.412932	-0.393338
C193	C	-0.556738	-0.861139	-0.935590
C194	C	-0.056738	-0.361139	-0.435590
C195	C	-0.556717	-0.861153	-1.020130
C196	C	-0.056717	-0.361153	-0.520130
C197	C	-0.504940	-0.912960	-1.062423
C198	C	-0.004940	-0.412960	-0.562423
C199	C	-0.453186	-0.964753	-1.020172
C200	C	0.046814	-0.464753	-0.520172
H201	H	-0.505002	-0.912921	-0.830752
H202	H	-0.005002	-0.412921	-0.330752
H203	H	-0.595067	-0.822788	-0.904281
H204	H	-0.095067	-0.322788	-0.404281
H205	H	-0.595028	-0.822812	-1.051407
H206	H	-0.095028	-0.322812	-0.551407
H207	H	-0.504922	-0.912972	-1.125009
H208	H	-0.004922	-0.412972	-0.625009
H209	H	-0.414858	-1.003105	-1.051480
H210	H	0.085142	-0.503105	-0.551480
