data_functionalizedCrystal
_audit_creation_method	'MofGen! by Chris Wilmer'
_symmetry_space_group_name_H-M	'P1'
_symmetry_Int_Tables_number	1
_symmetry_cell_setting	triclinic
loop_
_symmetry_equiv_pos_as_xyz
  x,y,z
_cell_length_a	8.497374
_cell_length_b	12.759401
_cell_length_c	12.759400
_cell_angle_alpha	89.985155
_cell_angle_beta	89.991978
_cell_angle_gamma	90.000368
loop_
_atom_site_label
_atom_site_type_symbol
_atom_site_fract_x
_atom_site_fract_y
_atom_site_fract_z
Zn1	Zn	0.891904	1.606068	0.418444
Zn2	Zn	0.628108	1.606017	0.594091
Zn3	Zn	0.628137	1.430425	0.418427
Zn4	Zn	0.891846	1.430358	0.594082
O5	O	0.759999	1.518217	0.506261
O6	O	0.856923	1.753082	0.441755
O7	O	0.407350	1.582732	0.570785
O8	O	0.663163	1.453773	0.271408
O9	O	0.663113	1.753045	0.570802
O10	O	0.856951	1.582817	0.271421
O11	O	0.407371	1.453725	0.441725
O12	O	0.663107	1.283395	0.441717
O13	O	1.112616	1.453659	0.570787
O14	O	0.856853	1.283346	0.570770
O15	O	1.112658	1.582752	0.441746
O16	O	0.663058	1.582667	0.741110
O17	O	0.856824	1.453611	0.741104
C18	C	0.759978	1.245250	0.506241
C19	C	0.760006	1.128473	0.506258
C20	C	0.860722	1.073613	0.573564
C21	C	0.860739	0.963889	0.573577
C22	C	0.659310	0.963895	0.438977
C23	C	0.659302	1.073617	0.438959
C24	C	0.977011	1.073609	0.651278
C25	C	0.977028	0.963885	0.651291
C26	C	0.759966	1.518155	0.779228
C27	C	0.760005	1.518224	0.896005
C28	C	1.171479	1.518209	0.506262
C29	C	1.350123	1.518212	0.506274
C30	C	0.760021	1.792250	0.506281
C31	C	0.760031	1.909027	0.506290
C32	C	0.760066	1.518308	0.232228
C33	C	0.760095	1.518347	0.115451
C34	C	0.659222	1.585498	0.950835
C35	C	0.659270	1.585563	1.060559
C36	C	0.860889	1.451070	1.060613
C37	C	0.860847	1.451012	0.950891
C38	C	0.542814	1.663143	0.950805
C39	C	0.542862	1.663208	1.060529
H40	H	0.577322	0.919217	0.384183
C41	C	0.586467	1.771533	0.910787
C42	C	0.586265	1.771196	0.801055
C43	C	0.626449	1.871025	0.764154
H44	H	0.688320	1.789767	0.935445
H45	H	0.511983	1.821247	0.935523
H46	H	0.660745	1.721498	0.776331
H47	H	0.484426	1.752981	0.776370
H48	H	0.551965	1.920740	0.788890
H49	H	0.728301	1.889251	0.788819
H50	H	0.626303	1.870813	0.689698
C51	C	1.140077	1.113126	0.622314
C52	C	1.239834	1.027604	0.604616
C53	C	1.390050	1.063967	0.577919
H54	H	1.180729	1.154458	0.677986
H55	H	1.133656	1.154461	0.560520
H56	H	1.246261	0.986286	0.666403
H57	H	1.199233	0.986263	0.548940
H58	H	1.383628	1.105302	0.516125
H59	H	1.430686	1.105299	0.633595
H60	H	1.457749	1.005947	0.565898
C61	C	0.380019	1.634328	1.100520
C62	C	0.380482	1.634500	1.210252
C63	C	0.230501	1.607916	1.247128
H64	H	0.352480	1.566518	1.075888
H65	H	0.305503	1.684006	1.075743
H66	H	0.454974	1.584824	1.235019
H67	H	0.407993	1.702300	1.234913
H68	H	0.155985	1.657594	1.222351
H69	H	0.202975	1.540108	1.222489
H70	H	0.230791	1.608039	1.321584
H71	H	0.942993	1.396349	1.105314
H72	H	0.577299	1.118280	0.384145
C73	C	0.388144	1.624153	0.905430
C74	C	0.416073	1.535295	0.843811
C75	C	0.273629	1.499337	0.802007
H76	H	0.342411	1.677548	0.863425
H77	H	0.318309	1.606624	0.960884
H78	H	0.485883	1.552828	0.788365
H79	H	0.461783	1.481879	0.885793
H80	H	0.203793	1.481808	0.857461
H81	H	0.227907	1.552739	0.760006
H82	H	0.292557	1.439038	0.760202
H83	H	0.944096	0.934096	0.732632
H84	H	0.933039	1.107632	0.728518
H85	H	0.942927	1.396242	0.906249
C86	C	0.601646	1.766167	1.105874
C87	C	0.735007	1.747440	1.167531
C88	C	0.789219	1.842257	1.209307
H89	H	0.521531	1.796724	1.147848
H90	H	0.628100	1.812629	1.050406
H91	H	0.708548	1.700995	1.222991
H92	H	0.815153	1.716898	1.125580
H93	H	0.815673	1.888720	1.153839
H94	H	0.709095	1.872807	1.251276
H95	H	0.879718	1.829565	1.251138
H96	H	1.093178	0.929862	0.622279
