data_functionalizedCrystal
_audit_creation_method	'MofGen! by Chris Wilmer'
_symmetry_space_group_name_H-M	'P1'
_symmetry_Int_Tables_number	1
_symmetry_cell_setting	triclinic
loop_
_symmetry_equiv_pos_as_xyz
  x,y,z
_cell_length_a	16.176319
_cell_length_b	17.699083
_cell_length_c	17.699083
_cell_angle_alpha	96.716985
_cell_angle_beta	89.992304
_cell_angle_gamma	90.001389
loop_
_atom_site_label
_atom_site_type_symbol
_atom_site_fract_x
_atom_site_fract_y
_atom_site_fract_z
O1	O	-0.068632	-1.004079	0.095713
O2	O	0.431368	-0.504079	0.595713
O3	O	-0.068660	-0.783700	0.108166
O4	O	0.431340	-0.283700	0.608166
O5	O	-0.068638	-0.900116	-0.008250
O6	O	0.431362	-0.400116	0.491750
O7	O	-0.068654	-0.887663	0.212129
O8	O	0.431346	-0.387663	0.712129
O9	O	0.068855	-0.900100	-0.008257
O10	O	0.568855	-0.400100	0.491743
O11	O	0.068834	-0.783684	0.108158
O12	O	0.568834	-0.283684	0.608158
O13	O	0.068861	-1.004063	0.095706
O14	O	0.568861	-0.504063	0.595706
Cu15	Cu	0.081401	-0.893872	0.101931
Cu16	Cu	0.581401	-0.393872	0.601931
Cu17	Cu	-0.081200	-0.893891	0.101940
Cu18	Cu	0.418800	-0.393891	0.601940
O19	O	0.068839	-0.887647	0.212121
O20	O	0.568839	-0.387647	0.712121
C21	C	0.000084	-0.755495	0.107716
C22	C	0.500084	-0.255495	0.607716
C23	C	0.000073	-0.671477	0.106377
C24	C	0.500073	-0.171477	0.606377
N25	N	0.195767	-0.893864	0.101925
N26	N	0.695767	-0.393864	0.601925
C27	C	0.000109	-0.899662	-0.036451
C28	C	0.500109	-0.399662	0.463549
C29	C	0.000109	-0.898323	-0.120469
C30	C	0.500109	-0.398323	0.379531
N31	N	-0.195565	-0.893905	0.101941
N32	N	0.304435	-0.393905	0.601941
C33	C	0.239040	-0.945429	0.050397
C34	C	0.739040	-0.445429	0.550397
C35	C	0.325588	-0.945432	0.050396
C36	C	0.825588	-0.445432	0.550396
C37	C	0.368859	-0.893875	0.101927
C38	C	0.868859	-0.393875	0.601927
C39	C	0.325579	-0.842305	0.153457
C40	C	0.825579	-0.342305	0.653457
C41	C	0.239034	-0.842299	0.153454
C42	C	0.739034	-0.342299	0.653454
C43	C	0.674608	-0.842331	0.153472
C44	C	1.174608	-0.342331	0.653472
C45	C	0.761159	-0.842344	0.153473
C46	C	1.261159	-0.342344	0.653473
C47	C	0.761161	-0.945465	0.050414
C48	C	1.261161	-0.445465	0.550414
C49	C	0.674616	-0.945458	0.050410
C50	C	1.174616	-0.445458	0.550410
C51	C	0.631344	-0.893886	0.101937
C52	C	1.131344	-0.393886	0.601937
C53	C	0.537499	-0.893882	0.101937
C54	C	1.037499	-0.393882	0.601937
C55	C	0.462702	-0.893883	0.101932
C56	C	0.962702	-0.393883	0.601932
C57	C	0.000116	-1.032268	0.096156
C58	C	0.500116	-0.532268	0.596156
C59	C	0.000121	-1.116286	0.097494
C60	C	0.500121	-0.616286	0.597494
C61	C	0.000069	-0.622856	0.174710
C62	C	0.500069	-0.122856	0.674710
C63	C	0.000079	-0.543913	0.173448
C64	C	0.500079	-0.043913	0.673448
C65	C	0.000089	-0.513592	0.103852
C66	C	0.500089	-0.013592	0.603852
C67	C	0.000096	-0.562219	0.035513
C68	C	0.500096	-0.062219	0.535513
C69	C	0.000091	-0.641161	0.036776
C70	C	0.500091	-0.141161	0.536776
C71	C	0.000117	-0.243856	0.030418
C72	C	0.500117	0.256144	0.530418
C73	C	0.000120	-0.164908	0.029160
C74	C	0.500120	0.335092	0.529160
C75	C	0.000105	-0.146608	0.167090
C76	C	0.500105	0.353392	0.667090
C77	C	0.000100	-0.225550	0.168353
C78	C	0.500100	0.274450	0.668353
C79	C	0.000112	-0.274170	0.100015
C80	C	0.500112	0.225830	0.600015
C81	C	0.000102	-0.359769	0.101384
C82	C	0.500102	0.140231	0.601384
C83	C	0.000093	-0.427995	0.102481
C84	C	0.500093	0.072005	0.602481
C85	C	0.000119	-0.966656	-0.169090
C86	C	0.500119	-0.466656	0.330910
C87	C	0.000111	-0.965394	-0.248033
C88	C	0.500111	-0.465394	0.251967
C89	C	0.000100	-0.895798	-0.278354
C90	C	0.500100	-0.395798	0.221646
C91	C	0.000088	-0.827459	-0.229727
C92	C	0.500088	-0.327459	0.270273
C93	C	0.000089	-0.828722	-0.150785
C94	C	0.500089	-0.328722	0.349215
C95	C	0.000080	-0.822364	-0.548090
C96	C	0.500080	-0.322364	-0.048090
C97	C	0.000081	-0.821106	-0.627038
C98	C	0.500081	-0.321106	-0.127038
C99	C	0.000102	-0.959036	-0.645338
C100	C	0.500102	-0.459036	-0.145338
C101	C	0.000104	-0.960299	-0.566396
C102	C	0.500104	-0.460299	-0.066396
C103	C	0.000087	-0.891961	-0.517776
C104	C	0.500087	-0.391961	-0.017776
C105	C	0.000094	-0.893330	-0.432177
C106	C	0.500094	-0.393330	0.067823
C107	C	0.000099	-0.894427	-0.363951
C108	C	0.500099	-0.394427	0.136049
C109	C	0.000091	-0.888102	0.240322
C110	C	0.500091	-0.388102	0.740322
C111	C	0.000085	-0.889440	0.324340
C112	C	0.500085	-0.389440	0.824340
H113	H	0.360821	-0.987419	0.008438
H114	H	0.860821	-0.487419	0.508438
O115	O	0.000185	-0.759804	-0.259087
O116	O	0.500185	-0.259804	0.240913
C117	C	0.071397	-0.718155	-0.234250
C118	C	0.571397	-0.218155	0.265750
H119	H	0.095141	-0.738680	-0.179539
H120	H	0.595141	-0.238680	0.320461
H121	H	0.055370	-0.655109	-0.223172
H122	H	0.555370	-0.155109	0.276828
H123	H	0.121261	-0.726995	-0.279954
H124	H	0.621261	-0.226995	0.220046
H125	H	0.639387	-0.987444	0.008451
H126	H	1.139387	-0.487444	0.508451
O127	O	0.000077	-1.027971	-0.537069
O128	O	0.500077	-0.527971	-0.037069
C129	C	0.000104	-1.088015	-0.596913
C130	C	0.500104	-0.588015	-0.096913
H131	H	-0.025929	-1.066901	-0.650500
H132	H	0.474071	-0.566901	-0.150500
H133	H	-0.039809	-1.136618	-0.580499
H134	H	0.460191	-0.636618	-0.080499
H135	H	0.066068	-1.109081	-0.608129
H136	H	0.566068	-0.609081	-0.108129
O137	O	-0.000055	-0.688364	-0.029623
O138	O	0.499945	-0.188364	0.470377
C139	C	-0.071249	-0.674628	-0.071893
C140	C	0.428751	-0.174628	0.428107
H141	H	-0.121022	-0.647570	-0.031886
H142	H	0.378978	-0.147570	0.468114
H143	H	-0.095150	-0.730695	-0.102343
H144	H	0.404850	-0.230695	0.397657
H145	H	-0.055143	-0.634515	-0.115631
H146	H	0.444857	-0.134515	0.384369
H147	H	0.000128	-0.140225	-0.027517
H148	H	0.500128	0.359775	0.472483
H149	H	0.000067	-0.766718	-0.508512
H150	H	0.500067	-0.266718	-0.008512
H151	H	0.000075	-0.504328	0.229092
H152	H	0.500075	-0.004328	0.729092
H153	H	0.796403	-0.987456	0.008455
H154	H	1.296403	-0.487456	0.508455
O155	O	0.000138	-0.099269	0.233406
O156	O	0.500138	0.400731	0.733406
C157	C	0.000127	-0.023090	0.217374
C158	C	0.500127	0.476910	0.717374
H159	H	0.026168	-0.020172	0.157931
H160	H	0.526168	0.479828	0.657931
H161	H	0.040041	0.012753	0.260941
H162	H	0.540041	0.512753	0.760941
H163	H	-0.065834	-0.000251	0.220285
H164	H	0.434166	0.499749	0.720285
O165	O	0.000046	-0.762413	-0.103444
O166	O	0.500046	-0.262413	0.396556
C167	C	0.000069	-0.778450	-0.027267
C168	C	0.500069	-0.278450	0.472733
H169	H	-0.025952	-0.837897	-0.024349
H170	H	0.474048	-0.337897	0.475651
H171	H	-0.039857	-0.734891	0.008585
H172	H	0.460143	-0.234891	0.508585
H173	H	0.066030	-0.775530	-0.004437
H174	H	0.566030	-0.275530	0.495563
H175	H	0.796390	-0.800357	0.195437
H176	H	1.296390	-0.300357	0.695437
H177	H	0.000133	-1.023330	-0.144409
H178	H	0.500133	-0.523330	0.355591
H179	H	0.639382	-0.800341	0.195428
H180	H	1.139382	-0.300341	0.695428
O181	O	0.000163	-1.031843	-0.295155
O182	O	0.500163	-0.531843	0.204845
C183	C	0.000160	-1.093541	-0.251465
C184	C	0.500160	-0.593541	0.248535
H185	H	0.026187	-1.074216	-0.192513
H186	H	0.526187	-0.574216	0.307487
H187	H	0.040089	-1.141403	-0.280680
H188	H	0.540089	-0.641403	0.219320
H189	H	-0.065797	-1.114895	-0.245875
H190	H	0.434203	-0.614895	0.254125
H191	H	0.000127	-0.283434	-0.025228
H192	H	0.500127	0.216566	0.474772
O193	O	0.367739	-0.792295	0.203487
O194	O	0.867739	-0.292295	0.703487
C195	C	0.453406	-0.803346	0.192431
C196	C	0.953406	-0.303346	0.692431
H197	H	0.465224	-0.863571	0.164068
H198	H	0.965224	-0.363571	0.664068
H199	H	0.486286	-0.794820	0.249762
H200	H	0.986286	-0.294820	0.749762
H201	H	0.477982	-0.760583	0.154525
H202	H	0.977982	-0.260583	0.654525
O203	O	0.197123	-0.792182	0.203583
O204	O	0.697123	-0.292182	0.703583
C205	C	0.253872	-0.746665	0.249055
C206	C	0.753872	-0.246665	0.749055
H207	H	0.315560	-0.777698	0.249876
H208	H	0.815560	-0.277698	0.749876
H209	H	0.228854	-0.735001	0.309513
H210	H	0.728854	-0.235001	0.809513
H211	H	0.263089	-0.690492	0.224549
H212	H	0.763089	-0.190492	0.724549
H213	H	0.000116	-0.537526	-0.021154
H214	H	0.500116	-0.037526	0.478846
H215	H	0.000074	-0.764429	-0.651721
H216	H	0.500074	-0.264429	-0.151721
O217	O	0.197138	-0.995541	0.000266
O218	O	0.697138	-0.495541	0.500266
C219	C	0.253896	-1.041065	-0.045202
C220	C	0.753896	-0.541065	0.454798
H221	H	0.315592	-1.010041	-0.046014
H222	H	0.815592	-0.510041	0.453986
H223	H	0.228902	-1.052724	-0.105662
H224	H	0.728902	-0.552724	0.394338
H225	H	0.263089	-1.097241	-0.020696
H226	H	0.763089	-0.597241	0.479304
O227	O	0.000095	-0.652181	0.242384
O228	O	0.500095	-0.152181	0.742384
C229	C	0.000074	-0.592334	0.302425
C230	C	0.500074	-0.092334	0.802425
H231	H	0.026109	-0.538747	0.281304
H232	H	0.526109	-0.038747	0.781304
H233	H	0.039986	-0.608742	0.351023
H234	H	0.539986	-0.108742	0.851023
H235	H	-0.065890	-0.581121	0.323500
H236	H	0.434110	-0.081121	0.823500
O237	O	0.000128	-0.254877	0.236025
O238	O	0.500128	0.245123	0.736025
C239	C	0.000107	-0.195033	0.296069
C240	C	0.500107	0.304967	0.796069
H241	H	0.026141	-0.141444	0.274950
H242	H	0.526141	0.358556	0.774950
H243	H	0.040022	-0.211443	0.344665
H244	H	0.540022	0.288557	0.844665
H245	H	-0.065856	-0.183823	0.317146
H246	H	0.434144	0.316177	0.817146
H247	H	0.000111	-1.014680	-0.684934
H248	H	0.500111	-0.514680	-0.184934
