data_functionalizedCrystal
_audit_creation_method	'MofGen! by Chris Wilmer'
_symmetry_space_group_name_H-M	'P1'
_symmetry_Int_Tables_number	1
_symmetry_cell_setting	triclinic
loop_
_symmetry_equiv_pos_as_xyz
  x,y,z
_cell_length_a	15.297475
_cell_length_b	18.050589
_cell_length_c	15.297738
_cell_angle_alpha	99.659269
_cell_angle_beta	72.640597
_cell_angle_gamma	80.331321
loop_
_atom_site_label
_atom_site_type_symbol
_atom_site_fract_x
_atom_site_fract_y
_atom_site_fract_z
Zn1	Zn	1.512611	-0.621396	-0.771452
Zn2	Zn	2.012611	-0.121396	-0.271452
Zn3	Zn	1.485589	-0.719579	-0.615933
Zn4	Zn	1.985589	-0.219579	-0.115933
Zn5	Zn	1.330203	-0.569413	-0.589093
Zn6	Zn	1.830203	-0.069413	-0.089093
Zn7	Zn	1.357040	-0.719517	-0.744535
Zn8	Zn	1.857040	-0.219517	-0.244535
O9	O	1.421361	-0.657476	-0.680253
O10	O	1.921361	-0.157476	-0.180253
O11	O	1.639163	-0.656201	-0.773319
O12	O	2.139163	-0.156201	-0.273319
O13	O	1.442437	-0.677930	-0.482235
O14	O	1.942437	-0.177930	0.017765
O15	O	1.354477	-0.472399	-0.613316
O16	O	1.854477	0.027601	-0.113316
O17	O	1.619310	-0.728336	-0.659060
O18	O	2.119310	-0.228336	-0.159060
O19	O	1.488492	-0.510591	-0.747294
O20	O	1.988492	-0.010591	-0.247294
O21	O	1.328276	-0.567603	-0.462516
O22	O	1.828276	-0.067603	0.037484
O23	O	1.203626	-0.567543	-0.587216
O24	O	1.703626	-0.067543	-0.087216
O25	O	1.400217	-0.728230	-0.878244
O26	O	1.900217	-0.228230	-0.378244
O27	O	1.223343	-0.677824	-0.701418
O28	O	1.723343	-0.177824	-0.201418
O29	O	1.514514	-0.656141	-0.898019
O30	O	2.014514	-0.156141	-0.398019
O31	O	1.468460	-0.823480	-0.632961
O32	O	1.968460	-0.323480	-0.132961
O33	O	1.374015	-0.823434	-0.727444
O34	O	1.874015	-0.323434	-0.227444
C35	C	1.179742	-0.617037	-0.638484
C36	C	1.679742	-0.117037	-0.138484
C37	C	1.076380	-0.599758	-0.620637
C38	C	1.576380	-0.099758	-0.120637
C39	C	1.421246	-0.850407	-0.680219
C40	C	1.921246	-0.350407	-0.180219
C41	C	1.421287	-0.932963	-0.680249
C42	C	1.921287	-0.432963	-0.180249
C43	C	0.826121	-0.780975	-0.807811
C44	C	1.326121	-0.280975	-0.307811
C45	C	0.923234	-0.797214	-0.824576
C46	C	1.423234	-0.297214	-0.324576
C47	C	0.961525	-0.747851	-0.773593
C48	C	1.461525	-0.247851	-0.273593
C49	C	0.902694	-0.682247	-0.705841
C50	C	1.402694	-0.182247	-0.205841
C51	C	0.805570	-0.666009	-0.689069
C52	C	1.305570	-0.166009	-0.189069
C53	C	0.940975	-0.632886	-0.654851
C54	C	1.440975	-0.132886	-0.154851
C55	C	0.882144	-0.567281	-0.587099
C56	C	1.382144	-0.067281	-0.087099
C57	C	0.785030	-0.551046	-0.570331
C58	C	1.285030	-0.051046	-0.070331
C59	C	0.746738	-0.600409	-0.621314
C60	C	1.246738	-0.100409	-0.121314
C61	C	1.038099	-0.649123	-0.671624
C62	C	1.538099	-0.149123	-0.171624
C63	C	1.017548	-0.534158	-0.552882
C64	C	1.517548	-0.034158	-0.052882
C65	C	0.920435	-0.517919	-0.536116
C66	C	1.420435	-0.017919	-0.036116
C67	C	1.369985	-1.132422	-0.731618
C68	C	1.869985	-0.632422	-0.231618
C69	C	1.332638	-1.163886	-0.642845
C70	C	1.832638	-0.663886	-0.142845
C71	C	1.421381	-1.084111	-0.680277
C72	C	1.921381	-0.584111	-0.180277
C73	C	1.458775	-1.199737	-0.769069
C74	C	1.958775	-0.699737	-0.269069
C75	C	1.421470	-1.230113	-0.680311
C76	C	1.921470	-0.730113	-0.180311
C77	C	1.383981	-1.114473	-0.591451
C78	C	1.883981	-0.614473	-0.091451
C79	C	1.510167	-1.150335	-0.717739
C80	C	2.010167	-0.650335	-0.217739
C81	C	1.472842	-1.181773	-0.628913
C82	C	1.972842	-0.681773	-0.128913
C83	C	1.421327	-1.000002	-0.680259
C84	C	1.921327	-0.500002	-0.180259
C85	C	1.421523	-1.314219	-0.680321
C86	C	1.921523	-0.814219	-0.180321
C87	C	1.663923	-0.698074	-0.722186
C88	C	2.163923	-0.198074	-0.222186
C89	C	1.767289	-0.715375	-0.740056
C90	C	2.267289	-0.215375	-0.240056
C91	C	1.463373	-0.697977	-0.922818
C92	C	1.963373	-0.197977	-0.422818
C93	C	1.481276	-0.715236	-1.026185
C94	C	1.981276	-0.215236	-0.526185
C95	C	1.421505	-0.463799	-0.680313
C96	C	1.921505	0.036201	-0.180313
C97	C	1.421567	-0.381266	-0.680339
C98	C	1.921567	0.118734	-0.180339
C99	C	1.549125	-0.780787	-1.085015
C100	C	2.049125	-0.280787	-0.585015
C101	C	1.565951	-0.796997	-1.182134
C102	C	2.065951	-0.296997	-0.682134
C103	C	1.514925	-0.747662	-1.220432
C104	C	2.014925	-0.247662	-0.720432
C105	C	1.447071	-0.682113	-1.161601
C106	C	1.947071	-0.182113	-0.661601
C107	C	1.430248	-0.665898	-1.064473
C108	C	1.930248	-0.165898	-0.564473
C109	C	1.396048	-0.632773	-1.199890
C110	C	1.896048	-0.132773	-0.699890
C111	C	1.328194	-0.567224	-1.141060
C112	C	1.828194	-0.067224	-0.641060
C113	C	1.311373	-0.551012	-1.043941
C114	C	1.811373	-0.051012	-0.543941
C115	C	1.362399	-0.600347	-1.005644
C116	C	1.862399	-0.100347	-0.505644
C117	C	1.412871	-0.648988	-1.297018
C118	C	1.912871	-0.148988	-0.797018
C119	C	1.293994	-0.534099	-1.276477
C120	C	1.793994	-0.034099	-0.776477
C121	C	1.277168	-0.517889	-1.179357
C122	C	1.777168	-0.017889	-0.679357
C123	C	1.379566	-0.617088	-0.438641
C124	C	1.879566	-0.117088	0.061359
C125	C	1.361843	-0.599650	-0.335306
C126	C	1.861843	-0.099650	0.164694
H127	H	1.085990	-0.702539	-0.726789
H128	H	1.585990	-0.202539	-0.226789
H129	H	1.585199	-1.143777	-0.749436
H130	H	2.085199	-0.643777	-0.249436
C131	C	1.311147	-1.103109	-0.790151
C132	C	1.811147	-0.603109	-0.290151
N133	N	1.266827	-1.081026	-0.834231
N134	N	1.766827	-0.581026	-0.334231
H135	H	1.048724	-0.493963	-0.511366
H136	H	1.548724	0.006037	-0.011366
H137	H	1.528630	-0.760865	-1.299511
H138	H	2.028630	-0.260865	-0.799511
H139	H	1.468120	-0.702359	-1.344909
H140	H	1.968120	-0.202359	-0.844909
H141	H	1.257597	-1.170451	-0.611186
H142	H	1.757597	-0.670451	-0.111186
C143	C	0.987941	-0.869378	-0.899099
C144	C	1.487941	-0.369378	-0.399099
N145	N	1.036679	-0.923736	-0.955234
N146	N	1.536679	-0.423736	-0.455234
H147	H	1.490366	-1.236591	-0.844145
H148	H	1.990366	-0.736591	-0.344145
H149	H	1.352304	-1.077691	-0.516340
H150	H	1.852304	-0.577691	-0.016340
H151	H	1.621199	-0.850367	-1.230027
H152	H	2.121199	-0.350367	-0.730027
H153	H	1.516333	-1.203300	-0.585449
H154	H	2.016333	-0.703300	-0.085449
C155	C	1.605247	-0.835046	-1.042880
C156	C	2.105247	-0.335046	-0.542880
N157	N	1.647522	-0.875917	-1.011143
N158	N	2.147522	-0.375917	-0.511143
H159	H	1.348703	-0.587152	-0.926562
H160	H	1.848703	-0.087152	-0.426562
C161	C	1.236737	-0.478902	-0.979231
C162	C	1.736737	0.021098	-0.479231
N163	N	1.180520	-0.424589	-0.930492
N164	N	1.680520	0.075411	-0.430492
C165	C	1.202540	-0.445779	-1.114634
C166	C	1.702540	0.054221	-0.614634
N167	N	1.146334	-0.391465	-1.065883
N168	N	1.646334	0.108535	-0.565883
C169	C	1.237860	-0.479828	-1.318599
C170	C	1.737860	0.020172	-0.818599
N171	N	1.195585	-0.438954	-1.350333
N172	N	1.695585	0.061046	-0.850333
H173	H	1.040600	-0.761077	-0.787248
H174	H	1.540600	-0.261077	-0.287248
C175	C	0.783992	-0.835268	-0.863880
C176	C	1.283992	-0.335268	-0.363880
N177	N	0.752260	-0.876165	-0.906116
N178	N	1.252260	-0.376165	-0.406116
H179	H	0.667662	-0.587189	-0.607669
H180	H	1.167662	-0.087189	-0.107669
H181	H	0.737129	-0.497633	-0.515153
H182	H	1.237129	0.002367	-0.015153
C183	C	0.855708	-0.445757	-0.461587
C184	C	1.355708	0.054243	0.038413
N185	N	0.806954	-0.391406	-0.405451
N186	N	1.306954	0.108594	0.094549
