data_functionalizedCrystal
_audit_creation_method	'MofGen! by Chris Wilmer'
_symmetry_space_group_name_H-M	'P1'
_symmetry_Int_Tables_number	1
_symmetry_cell_setting	triclinic
loop_
_symmetry_equiv_pos_as_xyz
  x,y,z
_cell_length_a	15.297475
_cell_length_b	25.639239
_cell_length_c	15.296720
_cell_angle_alpha	80.361144
_cell_angle_beta	88.382886
_cell_angle_gamma	80.340538
loop_
_atom_site_label
_atom_site_type_symbol
_atom_site_fract_x
_atom_site_fract_y
_atom_site_fract_z
Zn1	Zn	1.253213	-0.406888	0.726521
Zn2	Zn	1.278441	-0.482170	0.580022
Zn3	Zn	1.132104	-0.377518	0.554767
Zn4	Zn	1.106670	-0.477031	0.701152
O5	O	1.192607	-0.435902	0.640616
O6	O	1.379131	-0.431317	0.728274
O7	O	1.280232	-0.458147	0.454100
O8	O	1.148256	-0.308262	0.577599
O9	O	1.397666	-0.486626	0.620642
O10	O	1.237234	-0.329841	0.703785
O11	O	1.172719	-0.381260	0.435545
O12	O	1.006159	-0.376276	0.552999
O13	O	1.104906	-0.477867	0.827090
O14	O	0.987472	-0.449388	0.660547
O15	O	1.212571	-0.426334	0.845728
O16	O	1.255568	-0.554640	0.596043
O17	O	1.129369	-0.550864	0.685036
C18	C	0.965034	-0.409088	0.601280
C19	C	0.867674	-0.397631	0.584473
C20	C	1.192467	-0.571724	0.640550
C21	C	1.192482	-0.629841	0.640565
C22	C	0.554472	-0.517789	0.760740
C23	C	0.645948	-0.528557	0.776529
C24	C	0.701384	-0.495826	0.728517
C25	C	0.665336	-0.452326	0.664713
C26	C	0.573852	-0.441560	0.648918
C27	C	0.720763	-0.419597	0.616694
C28	C	0.684715	-0.376097	0.552890
C29	C	0.593241	-0.365332	0.537098
C30	C	0.537805	-0.398063	0.585110
C31	C	0.812247	-0.430363	0.632489
C32	C	0.831627	-0.354134	0.520666
C33	C	0.740151	-0.343366	0.504877
C34	C	1.258449	-0.992200	0.594398
C35	C	1.258481	-1.046809	0.594415
O36	O	1.314423	-1.076721	0.555091
N37	N	1.192751	-1.072164	0.640700
C38	C	1.126990	-1.042907	0.686978
O39	O	1.071085	-1.069488	0.726350
C40	C	1.126963	-0.988300	0.686965
C41	C	1.192692	-0.962947	0.640670
C42	C	1.324173	-0.966847	0.548107
C43	C	1.324140	-0.912241	0.548088
C44	C	1.258383	-0.882988	0.594360
C45	C	1.192658	-0.908341	0.640651
C46	C	1.061206	-0.959045	0.733248
C47	C	1.061185	-0.904435	0.733232
C48	C	1.126914	-0.879082	0.686936
C49	C	1.126868	-0.824483	0.686905
N50	N	1.192598	-0.799128	0.640619
C51	C	1.258355	-0.828381	0.594347
C52	C	1.127054	-1.157587	0.687003
C53	C	1.127077	-1.212192	0.687011
C54	C	1.258569	-1.216091	0.594449
C55	C	1.258541	-1.161483	0.594437
C56	C	1.192784	-1.132232	0.640718
C57	C	1.258280	-0.713705	0.594311
C58	C	1.258239	-0.659094	0.594293
C59	C	1.126750	-0.655201	0.686858
C60	C	1.126788	-0.709806	0.686873
C61	C	1.192561	-0.739058	0.640597
O62	O	1.070956	-0.794537	0.726211
O63	O	1.314257	-0.801795	0.554992
C64	C	1.421068	-0.462821	0.680105
C65	C	1.518425	-0.474292	0.696933
C66	C	1.153088	-0.454803	0.869079
C67	C	1.136247	-0.462858	0.966437
C68	C	1.192768	-0.299554	0.640705
C69	C	1.192837	-0.241450	0.640743
C70	C	1.232023	-0.417042	0.413049
C71	C	1.249034	-0.408860	0.315722
C72	C	1.313004	-0.378246	1.279690
C73	C	1.328832	-0.370679	1.188219
C74	C	1.280687	-0.393723	1.132769
C75	C	1.216711	-0.424335	1.168799
C76	C	1.200886	-0.431905	1.260281
C77	C	1.168569	-0.447383	1.113359
C78	C	1.104593	-0.477995	1.149390
C79	C	1.088771	-0.485564	1.240862
C80	C	1.136916	-0.462520	1.296312
C81	C	1.184394	-0.439812	1.021878
C82	C	1.072276	-0.493472	1.002468
C83	C	1.056448	-0.501039	1.093940
H84	H	0.841588	-0.465781	0.684439
H85	H	1.033074	-0.512238	0.957321
O86	O	1.121547	-0.469966	1.385171
C87	C	1.138717	-0.525244	1.419597
H88	H	1.132834	-0.549232	1.364279
H89	H	1.208585	-0.536257	1.448388
C90	C	1.078263	-0.508883	1.560980
C91	C	1.071030	-0.538346	1.493038
H92	H	1.036514	-0.516965	1.606284
H93	H	1.066698	-0.471641	1.537788
H94	H	1.136490	-0.518063	1.584962
H95	H	1.012808	-0.529160	1.469050
H96	H	1.082584	-0.575586	1.516228
H97	H	1.007679	-0.979677	0.770942
O98	O	1.322378	-1.244490	0.549391
C99	C	1.318465	-1.221734	0.458764
H100	H	1.249281	-1.198137	0.442142
H101	H	1.369414	-1.193678	0.444005
C102	C	1.423797	-1.295634	0.422574
C103	C	1.338821	-1.266655	0.402157
H104	H	1.436357	-1.323343	0.387655
H105	H	1.426436	-1.310964	0.483631
H106	H	1.466244	-1.272248	0.410274
H107	H	1.296375	-1.290040	0.414467
H108	H	1.336175	-1.251330	0.341100
H109	H	1.380924	-0.345757	1.158890
H110	H	1.377725	-0.990660	0.510427
H111	H	0.876763	-0.327483	0.481569
O112	O	0.994250	-0.530773	1.128796
C113	C	0.955162	-0.549504	1.060251
H114	H	0.963431	-0.522341	0.994532
H115	H	0.988872	-0.592180	1.056041
C116	C	0.845599	-0.582369	1.160556
C117	C	0.855749	-0.549004	1.079840
H118	H	0.784278	-0.582063	1.172640
H119	H	0.871935	-0.569752	1.206738
H120	H	0.873696	-0.617929	1.157038
H121	H	0.827662	-0.513444	1.083363
H122	H	0.829406	-0.561615	1.033659
H123	H	0.775866	-0.504596	0.741376
O124	O	0.705270	-0.301078	0.442891
C125	C	0.773810	-0.274503	0.403879
H126	H	0.832823	-0.283368	0.451017
H127	H	0.795022	-0.289220	0.338970
C128	C	0.667823	-0.202732	0.327375
C129	C	0.740302	-0.213616	0.385274
H130	H	0.647154	-0.165174	0.315894
H131	H	0.621646	-0.220636	0.353655
H132	H	0.685510	-0.214999	0.273290
H133	H	0.722611	-0.201355	0.439360
H134	H	0.786475	-0.195708	0.359002
H135	H	1.312064	-1.140844	0.556739
O136	O	1.026691	-0.515374	1.275770
C137	C	1.049653	-0.567882	1.256701
H138	H	1.094815	-0.567434	1.196105
H139	H	1.085757	-0.595058	1.315955
C140	C	0.909491	-0.589686	1.312108
C141	C	0.964954	-0.589135	1.237678
H142	H	0.857245	-0.602798	1.300378
H143	H	0.894022	-0.554312	1.324959
H144	H	0.939588	-0.612332	1.361480
H145	H	0.934861	-0.566484	1.188311
H146	H	0.980417	-0.624506	1.224819
H147	H	0.675291	-0.563976	0.828477
H148	H	1.352202	-0.359490	1.324846
H149	H	1.236483	-0.414888	0.992551
H150	H	1.293579	-0.387561	1.058289
H151	H	1.073547	-1.232828	0.724700
H152	H	0.509330	-0.544436	0.799820
O153	O	0.558358	-0.323107	0.474999
C154	C	0.595795	-0.329873	0.391529
H155	H	0.662512	-0.357636	0.401138
H156	H	0.549400	-0.348213	0.353042
C157	C	0.527296	-0.240884	0.327556
C158	C	0.609242	-0.274981	0.339358
H159	H	0.535588	-0.207025	0.295372
H160	H	0.502071	-0.236326	0.383791
H161	H	0.488642	-0.256174	0.295487
H162	H	0.647891	-0.259694	0.371436
H163	H	0.634474	-0.279535	0.283127
O164	O	0.448973	-0.387588	0.569598
C165	C	0.432922	-0.390402	0.480331
H166	H	0.494368	-0.383460	0.439016
H167	H	0.416988	-0.431701	0.475531
C168	C	0.278439	-0.355591	0.495856
C169	C	0.353906	-0.347060	0.445112
H170	H	0.229696	-0.328858	0.474132
H171	H	0.289252	-0.353697	0.555998
H172	H	0.265173	-0.390009	0.491852
H173	H	0.367177	-0.312646	0.449126
H174	H	0.343093	-0.348947	0.384970
H175	H	1.007637	-0.880621	0.770923
H176	H	1.073499	-1.133772	0.724687
O177	O	1.062896	-0.734360	0.731917
C178	C	1.004836	-0.696823	0.772732
H179	H	1.040155	-0.662349	0.781971
H180	H	0.943890	-0.680580	0.729109
C181	C	0.932653	-0.766675	0.852416
C182	C	0.976035	-0.724335	0.863770
H183	H	0.914883	-0.783646	0.908571
H184	H	0.971767	-0.791964	0.824916
H185	H	0.881870	-0.753133	0.816061
H186	H	1.026823	-0.737879	0.900116
H187	H	0.936929	-0.699049	0.891279
O188	O	1.387887	-0.887574	0.503008
C189	C	1.347856	-0.845469	0.437780
H190	H	1.279825	-0.853383	0.420391
H191	H	1.340123	-0.805959	0.464316
C192	C	1.490031	-0.832434	0.375530
C193	C	1.406477	-0.842157	0.354167
H194	H	1.526193	-0.830389	0.323954
H195	H	1.517002	-0.860800	0.419477
H196	H	1.483575	-0.799510	0.397644
H197	H	1.412934	-0.875084	0.332064
H198	H	1.379509	-0.813797	0.310214
O199	O	1.062990	-0.626777	0.731923
C200	C	1.103024	-0.605689	0.797114
H201	H	1.171066	-0.630686	0.814501
H202	H	1.110734	-0.562427	0.770540
C203	C	0.960855	-0.576628	0.859380
C204	C	1.044422	-0.607332	0.880740
H205	H	0.924706	-0.577639	0.910964
H206	H	0.933882	-0.590833	0.815458
H207	H	0.967293	-0.540579	0.837234
H208	H	1.037984	-0.643381	0.902875
H209	H	1.071392	-0.593133	0.924669
H210	H	1.311840	-0.737515	0.556631
H211	H	1.311764	-0.638453	0.556590
