data_functionalizedCrystal
_audit_creation_method	'MofGen! by Chris Wilmer'
_symmetry_space_group_name_H-M	'P1'
_symmetry_Int_Tables_number	1
_symmetry_cell_setting	triclinic
loop_
_symmetry_equiv_pos_as_xyz
  x,y,z
_cell_length_a	21.295418
_cell_length_b	21.295417
_cell_length_c	21.295411
_cell_angle_alpha	89.979403
_cell_angle_beta	89.956262
_cell_angle_gamma	90.045515
loop_
_atom_site_label
_atom_site_type_symbol
_atom_site_fract_x
_atom_site_fract_y
_atom_site_fract_z
Zn1	Zn	0.962359	-0.250415	-0.356238
Zn2	Zn	1.462359	0.249585	0.143762
Zn3	Zn	0.962263	-0.355667	-0.250965
Zn4	Zn	1.462263	0.144333	0.249035
Zn5	Zn	0.857082	-0.250445	-0.250948
Zn6	Zn	1.357082	0.249555	0.249052
Zn7	Zn	0.857053	-0.355680	-0.356162
Zn8	Zn	1.357053	0.144320	0.143838
O9	O	0.909690	-0.303052	-0.303578
O10	O	1.409690	0.196948	0.196422
O11	O	1.050436	-0.264360	-0.342313
O12	O	1.550436	0.235640	0.157687
O13	O	0.948283	-0.341716	-0.162874
O14	O	1.448283	0.158284	0.337126
O15	O	0.871100	-0.162351	-0.264940
O16	O	1.371100	0.337649	0.235060
O17	O	1.050365	-0.341688	-0.264969
O18	O	1.550365	0.158312	0.235031
O19	O	0.948447	-0.162330	-0.342296
O20	O	1.448447	0.337670	0.157704
O21	O	0.871007	-0.264410	-0.162861
O22	O	1.371007	0.235590	0.337139
O23	O	0.768989	-0.264422	-0.264866
O24	O	1.268989	0.235578	0.235134
O25	O	0.871050	-0.341709	-0.444262
O26	O	1.371050	0.158291	0.055738
O27	O	0.768968	-0.341738	-0.342166
O28	O	1.268968	0.158262	0.157834
O29	O	0.948418	-0.264372	-0.444318
O30	O	1.448418	0.235628	0.055682
O31	O	0.948254	-0.443758	-0.264895
O32	O	1.448254	0.056242	0.235105
O33	O	0.870957	-0.443767	-0.342183
O34	O	1.370957	0.056233	0.157817
C35	C	0.746138	-0.303085	-0.303506
C36	C	1.246138	0.196915	0.196494
C37	C	0.676170	-0.303114	-0.303490
C38	C	1.176170	0.196886	0.196510
C39	C	0.909609	-0.466603	-0.303547
C40	C	1.409609	0.033397	0.196453
C41	C	0.909633	-0.536571	-0.303554
C42	C	1.409633	-0.036571	0.196446
C43	C	0.643308	-0.343426	-0.343680
C44	C	1.143308	0.156574	0.156320
C45	C	0.577566	-0.343410	-0.343708
C46	C	1.077566	0.156590	0.156292
C47	C	0.544687	-0.303090	-0.303535
C48	C	1.044687	0.196910	0.196465
C49	C	0.577557	-0.262770	-0.263342
C50	C	1.077557	0.237230	0.236658
C51	C	0.643298	-0.262783	-0.263320
C52	C	1.143298	0.237217	0.236680
N53	N	0.441411	-0.298163	-0.248477
N54	N	0.941411	0.201837	0.251523
N55	N	0.378960	-0.298155	-0.248501
N56	N	0.878960	0.201845	0.251499
C57	C	0.346613	-0.303050	-0.303602
C58	C	0.846613	0.196950	0.196398
N59	N	0.379076	-0.307965	-0.358680
N60	N	0.879076	0.192035	0.141320
N61	N	0.441533	-0.307976	-0.358656
N62	N	0.941533	0.192024	0.141344
C63	C	0.473402	-0.303072	-0.303556
C64	C	0.973402	0.196928	0.196444
C65	C	0.242466	-0.343346	-0.343826
C66	C	0.742466	0.156654	0.156174
C67	C	0.176722	-0.343326	-0.343855
C68	C	0.676722	0.156674	0.156145
C69	C	0.176714	-0.262690	-0.263484
C70	C	0.676714	0.237310	0.236516
C71	C	0.242456	-0.262707	-0.263460
C72	C	0.742456	0.237293	0.236540
C73	C	0.275328	-0.303038	-0.303630
C74	C	0.775328	0.196962	0.196370
C75	C	0.949884	-0.569370	-0.343862
C76	C	1.449884	-0.069370	0.156138
C77	C	0.949906	-0.635112	-0.343878
C78	C	1.449906	-0.135112	0.156122
C79	C	0.909684	-0.668054	-0.303574
C80	C	1.409684	-0.168054	0.196426
C81	C	0.869425	-0.635248	-0.263263
C82	C	1.369425	-0.135248	0.236737
C83	C	0.869399	-0.569507	-0.263253
C84	C	1.369399	-0.069507	0.236747
N85	N	0.904924	-0.771307	-0.248481
N86	N	1.404924	-0.271307	0.251519
N87	N	0.904952	-0.833759	-0.248492
N88	N	1.404952	-0.333759	0.251508
C89	C	0.909757	-0.866129	-0.303602
C90	C	1.409757	-0.366129	0.196398
N91	N	0.914546	-0.833687	-0.358702
N92	N	1.414546	-0.333687	0.141298
N93	N	0.914521	-0.771230	-0.358690
N94	N	1.414521	-0.271230	0.141310
C95	C	0.909707	-0.739339	-0.303580
C96	C	1.409707	-0.239339	0.196420
C97	C	0.950035	-0.970212	-0.343931
C98	C	1.450035	-0.470212	0.156069
C99	C	0.950052	-1.035956	-0.343947
C100	C	1.450052	-0.535956	0.156053
C101	C	0.869574	-1.036090	-0.263327
C102	C	1.369574	-0.536090	0.236673
C103	C	0.869553	-0.970348	-0.263316
C104	C	1.369553	-0.470348	0.236684
C105	C	0.909787	-0.937413	-0.303617
C106	C	1.409787	-0.437413	0.196383
C107	C	1.073880	-0.303019	-0.303652
C108	C	1.573880	0.196981	0.196348
C109	C	1.143848	-0.303005	-0.303683
C110	C	1.643848	0.196995	0.196317
C111	C	0.909742	-0.303038	-0.467769
C112	C	1.409742	0.196962	0.032231
C113	C	0.909764	-0.303033	-0.537737
C114	C	1.409764	0.196967	-0.037737
C115	C	0.909787	-0.138861	-0.303624
C116	C	1.409787	0.361139	0.196376
C117	C	0.909829	-0.068893	-0.303644
C118	C	1.409829	0.431107	0.196356
C119	C	0.950048	-0.262761	-0.570634
C120	C	1.450048	0.237239	-0.070634
C121	C	0.950047	-0.262734	-0.636376
C122	C	1.450047	0.237266	-0.136376
C123	C	0.909769	-0.302989	-0.669219
C124	C	1.409769	0.197011	-0.169219
C125	C	0.869477	-0.343263	-0.636315
C126	C	1.369477	0.156737	-0.136315
C127	C	0.869475	-0.343285	-0.570573
C128	C	1.369475	0.156715	-0.070573
N129	N	0.904913	-0.358058	-0.772434
N130	N	1.404913	0.141942	-0.272434
N131	N	0.904919	-0.358036	-0.834886
N132	N	1.404919	0.141964	-0.334886
C133	C	0.909773	-0.302926	-0.867294
C134	C	1.409773	0.197074	-0.367294
N135	N	0.914633	-0.247837	-0.834892
N136	N	1.414633	0.252163	-0.334892
N137	N	0.914630	-0.247860	-0.772435
N138	N	1.414630	0.252140	-0.272435
C139	C	0.909767	-0.302970	-0.740505
C140	C	1.409767	0.197030	-0.240505
C141	C	0.950058	-0.262621	-0.971477
C142	C	1.450058	0.237379	-0.471477
C143	C	0.950053	-0.262593	-1.037220
C144	C	1.450053	0.237407	-0.537220
C145	C	0.869486	-0.343128	-1.037158
C146	C	1.369486	0.156872	-0.537158
C147	C	0.869488	-0.343151	-0.971415
C148	C	1.369488	0.156849	-0.471415
C149	C	0.909777	-0.302898	-0.938579
C150	C	1.409777	0.197102	-0.438579
C151	C	0.909674	-0.303019	-0.140027
C152	C	1.409674	0.196981	0.359973
C153	C	0.909774	-0.302848	-0.070059
C154	C	1.409774	0.197152	0.429941
H155	H	0.670069	-0.376266	-0.376391
H156	H	1.170069	0.123734	0.123609
C157	C	0.789844	-0.422891	-0.577116
C158	C	1.289844	0.077109	-0.077116
C159	C	0.825199	-0.387562	-0.534409
C160	C	1.325199	0.112438	-0.034409
H161	H	0.762514	-0.450230	-0.554788
H162	H	1.262514	0.049770	-0.054788
H163	H	0.765779	-0.395461	-0.602735
H164	H	1.265779	0.104539	-0.102735
H165	H	0.817263	-0.446952	-0.602782
H166	H	1.317263	0.053048	-0.102782
H167	H	0.797780	-0.363498	-0.508746
H168	H	1.297780	0.136502	-0.008746
H169	H	0.849265	-0.414995	-0.508779
H170	H	1.349265	0.085005	-0.008779
H171	H	0.550805	-0.376236	-0.376438
H172	H	1.050805	0.123764	0.123562
C173	C	1.034712	-0.253995	-0.496747
C174	C	1.534712	0.246005	0.003253
C175	C	0.994310	-0.218501	-0.534531
C176	C	1.494310	0.281499	-0.034531
H177	H	1.062033	-0.226666	-0.474459
H178	H	1.562033	0.273334	0.025541
H179	H	1.010720	-0.277986	-0.467753
H180	H	1.510720	0.222014	0.032247
H181	H	1.058791	-0.281399	-0.522409
H182	H	1.558791	0.218601	-0.022409
H183	H	0.970227	-0.191101	-0.508869
H184	H	1.470227	0.308899	-0.008869
H185	H	1.018304	-0.194499	-0.563528
H186	H	1.518304	0.305501	-0.063528
H187	H	0.836674	-0.662073	-0.230449
H188	H	1.336674	-0.162073	0.269551
H189	H	0.982830	-1.062659	-0.376774
H190	H	1.482830	-0.562659	0.123226
H191	H	0.836820	-1.062911	-0.230515
H192	H	1.336820	-0.562911	0.269485
H193	H	0.982860	-0.229842	-0.944740
H194	H	1.482860	0.270158	-0.444740
H195	H	0.836779	-0.943642	-0.230490
H196	H	1.336779	-0.443642	0.269510
C197	C	0.235873	-0.423042	-0.423280
C198	C	0.735873	0.076958	0.076720
C199	C	0.278604	-0.387668	-0.387989
C200	C	0.778604	0.112332	0.112011
H201	H	0.258183	-0.450400	-0.450547
H202	H	0.758183	0.049600	0.049453
H203	H	0.210179	-0.447077	-0.395821
H204	H	0.710179	0.052923	0.104179
H205	H	0.210285	-0.395636	-0.447414
H206	H	0.710285	0.104364	0.052586
H207	H	0.304189	-0.415074	-0.363851
H208	H	0.804189	0.084926	0.136149
H209	H	0.304309	-0.363632	-0.415451
H210	H	0.804309	0.136368	0.084549
C211	C	1.029696	-0.183144	-0.629842
C212	C	1.529696	0.316856	-0.129842
C213	C	0.994334	-0.218469	-0.672547
C214	C	1.494334	0.281531	-0.172547
H215	H	1.057039	-0.155820	-0.652172
H216	H	1.557039	0.344180	-0.152172
H217	H	1.002286	-0.159074	-0.604184
H218	H	1.502286	0.340926	-0.104184
H219	H	1.053752	-0.210582	-0.604213
H220	H	1.553752	0.289418	-0.104213
H221	H	0.970274	-0.191030	-0.698172
H222	H	1.470274	0.308970	-0.198172
H223	H	1.021746	-0.242541	-0.698215
H224	H	1.521746	0.257459	-0.198215
C225	C	1.029699	-0.183003	-1.030675
C226	C	1.529699	0.316997	-0.530675
C227	C	0.994337	-0.218324	-1.073383
C228	C	1.494337	0.281676	-0.573383
H229	H	1.057042	-0.155676	-1.053002
H230	H	1.557042	0.344324	-0.553002
H231	H	1.002290	-0.158936	-1.005014
H232	H	1.502290	0.341064	-0.505014
H233	H	1.053757	-0.210444	-1.005050
H234	H	1.553757	0.289556	-0.505050
H235	H	0.970276	-0.190883	-1.099005
H236	H	1.470276	0.309117	-0.599005
H237	H	1.021750	-0.242392	-1.099055
H238	H	1.521750	0.257608	-0.599055
C239	C	0.980524	-0.655274	-0.450511
C240	C	1.480524	-0.155274	0.049489
C241	C	0.994147	-0.671179	-0.388190
C242	C	1.494147	-0.171179	0.111810
H243	H	1.007837	-0.677538	-0.477867
H244	H	1.507837	-0.177538	0.022133
H245	H	0.938231	-0.666091	-0.459665
H246	H	1.438231	-0.166091	0.040335
H247	H	0.986274	-0.611408	-0.456269
H248	H	1.486274	-0.111408	0.043731
H249	H	0.988392	-0.715045	-0.382431
H250	H	1.488392	-0.215045	0.117569
H251	H	1.036450	-0.660367	-0.379033
H252	H	1.536450	-0.160367	0.120967
H253	H	0.836621	-0.542802	-0.230429
H254	H	1.336621	-0.042802	0.269571
H255	H	0.670053	-0.229954	-0.230592
H256	H	1.170053	0.270046	0.269408
H257	H	0.836685	-0.375898	-1.063898
H258	H	1.336685	0.124102	-0.563898
C259	C	0.789857	-0.422753	-0.977959
C260	C	1.289857	0.077247	-0.477959
C261	C	0.825211	-0.387424	-0.935251
C262	C	1.325211	0.112576	-0.435251
H263	H	0.762523	-0.450087	-0.955631
H264	H	1.262523	0.049913	-0.455631
H265	H	0.765798	-0.395323	-1.003582
H266	H	1.265798	0.104677	-0.503582
H267	H	0.817277	-0.446818	-1.003620
H268	H	1.317277	0.053182	-0.503620
H269	H	0.797792	-0.363355	-0.909592
H270	H	1.297792	0.136645	-0.409592
H271	H	0.849273	-0.414858	-0.909616
H272	H	1.349273	0.085142	-0.409616
H273	H	0.982793	-0.943395	-0.376748
H274	H	1.482793	-0.443395	0.123252
H275	H	0.550783	-0.229940	-0.230634
H276	H	1.050783	0.270060	0.269366
C277	C	0.075952	-0.379107	-0.379581
C278	C	0.575952	0.120893	0.120419
C279	C	0.140597	-0.387638	-0.388038
C280	C	0.640597	0.112362	0.111962
H281	H	0.053651	-0.406462	-0.406861
H282	H	0.553651	0.093538	0.093139
H283	H	0.065123	-0.388254	-0.337278
H284	H	0.565123	0.111746	0.162722
H285	H	0.065239	-0.336822	-0.388880
H286	H	0.565239	0.163178	0.111120
H287	H	0.151311	-0.429923	-0.378735
H288	H	0.651311	0.070077	0.121265
H289	H	0.151430	-0.378496	-0.430351
H290	H	0.651430	0.121504	0.069649
C291	C	0.075937	-0.226897	-0.227802
C292	C	0.575937	0.273103	0.272198
C293	C	0.140581	-0.218388	-0.219304
C294	C	0.640581	0.281612	0.280696
H295	H	0.053630	-0.199552	-0.200519
H296	H	0.553630	0.300448	0.299481
H297	H	0.065214	-0.217724	-0.270106
H298	H	0.565214	0.282276	0.229894
H299	H	0.065127	-0.269185	-0.218533
H300	H	0.565127	0.230815	0.281467
H301	H	0.151392	-0.176101	-0.228578
H302	H	0.651392	0.323899	0.271422
H303	H	0.151309	-0.227556	-0.176991
H304	H	0.651309	0.272444	0.323009
C305	C	0.262611	-0.231897	-0.156915
C306	C	0.762611	0.268103	0.343085
C307	C	0.278583	-0.218401	-0.219275
C308	C	0.778583	0.281599	0.280725
H309	H	0.284917	-0.204544	-0.129638
H310	H	0.784917	0.295456	0.370362
H311	H	0.218758	-0.226116	-0.151184
H312	H	0.718758	0.273884	0.348816
H313	H	0.273336	-0.274182	-0.147630
H314	H	0.773336	0.225818	0.352370
H315	H	0.267853	-0.176117	-0.228561
H316	H	0.767853	0.323883	0.271439
H317	H	0.322445	-0.224177	-0.225009
H318	H	0.822445	0.275823	0.274991
C319	C	0.958563	-0.495391	-0.428540
C320	C	1.458563	0.004609	0.071460
C321	C	0.994102	-0.533168	-0.388166
C322	C	1.494102	-0.033168	0.111834
H323	H	0.985862	-0.473039	-0.455889
H324	H	1.485862	0.026961	0.044111
H325	H	0.931140	-0.521059	-0.452585
H326	H	1.431140	-0.021059	0.047415
H327	H	0.934591	-0.466446	-0.404525
H328	H	1.434591	0.033554	0.095475
H329	H	1.018071	-0.562116	-0.412181
H330	H	1.518071	-0.062116	0.087819
H331	H	1.021536	-0.507498	-0.364119
H332	H	1.521536	-0.007498	0.135881
H333	H	0.836681	-0.376038	-0.663060
H334	H	1.336681	0.123962	-0.163060
