data_functionalizedCrystal
_audit_creation_method	'MofGen! by Chris Wilmer'
_symmetry_space_group_name_H-M	'P1'
_symmetry_Int_Tables_number	1
_symmetry_cell_setting	triclinic
loop_
_symmetry_equiv_pos_as_xyz
  x,y,z
_cell_length_a	12.837943
_cell_length_b	14.044190
_cell_length_c	11.295483
_cell_angle_alpha	94.464886
_cell_angle_beta	85.461227
_cell_angle_gamma	94.010359
loop_
_atom_site_label
_atom_site_type_symbol
_atom_site_fract_x
_atom_site_fract_y
_atom_site_fract_z
O1	O	1.404885	0.242690	-0.099031
O2	O	1.101944	0.230415	-0.099036
O3	O	1.248862	0.098158	-0.099010
O4	O	1.257967	0.374947	-0.099057
O5	O	1.235956	0.109755	0.099038
O6	O	1.089038	0.242011	0.099012
O7	O	1.391979	0.254287	0.099018
Cu8	Cu	1.239330	0.249208	0.117098
Cu9	Cu	1.254593	0.235494	-0.117117
O10	O	1.245061	0.386544	0.098991
C11	C	1.056487	0.232066	-0.000013
C12	C	0.940266	0.219699	-0.000014
C13	C	1.238427	0.068282	0.000017
C14	C	1.226549	-0.038016	0.000027
C15	C	0.713060	0.368378	-0.000022
C16	C	0.603860	0.356762	-0.000022
C17	C	0.612663	0.184852	-0.000006
C18	C	0.721863	0.196468	-0.000005
C19	C	0.772058	0.288234	-0.000015
C20	C	0.881261	0.299849	-0.000024
C21	C	0.890061	0.127940	0.000001
C22	C	0.780860	0.116324	0.000001
C23	C	1.289074	-0.282658	-0.000018
C24	C	1.204854	-0.232635	-0.000011
C25	C	1.216928	-0.124339	0.000010
C26	C	1.277002	-0.390964	-0.000040
C27	C	1.437436	0.252635	-0.000009
C28	C	1.553657	0.265002	-0.000016
C29	C	1.255496	0.416419	-0.000039
C30	C	1.267374	0.522717	-0.000057
N31	N	1.228603	0.258854	0.281833
N32	N	1.265328	0.225841	-0.281851
C33	C	1.342545	0.156350	0.531142
C34	C	1.334446	0.163647	0.655805
C35	C	1.204301	0.280739	0.655822
C36	C	1.212400	0.273442	0.531159
C37	C	1.281525	0.211247	0.468824
C38	C	1.289629	0.203956	0.344160
C39	C	1.159479	0.321042	0.344179
C40	C	1.151380	0.328339	0.468841
H41	H	0.922127	0.374569	-0.000030
H42	H	1.123683	-0.271143	-0.000020
C43	C	1.397207	-0.231141	0.000068
C44	C	1.387830	-0.132410	0.000121
C45	C	1.487417	-0.084909	0.000222
H46	H	1.438711	-0.252507	-0.068974
H47	H	1.429613	-0.244514	0.069163
H48	H	1.355439	-0.119043	-0.068966
H49	H	1.346345	-0.111016	0.069158
H50	H	1.519823	-0.098282	0.069317
H51	H	1.528913	-0.106282	-0.068821
H52	H	1.481067	-0.017915	0.000269
H53	H	1.345917	0.153316	0.293407
C54	C	1.076231	0.395879	0.536310
C55	C	1.024508	0.442376	0.455047
C56	C	0.955262	0.504592	0.517151
H57	H	1.114240	0.442009	0.584935
H58	H	1.026320	0.360403	0.584925
H59	H	1.074412	0.477850	0.406452
H60	H	0.986479	0.396270	0.406419
H61	H	0.905350	0.469117	0.565767
H62	H	0.993279	0.550716	0.565775
H63	H	0.920152	0.536142	0.462025
C64	C	1.417619	0.088742	0.463671
C65	C	1.469312	0.042213	0.544931
C66	C	1.538469	-0.020084	0.482822
H67	H	1.467560	0.124132	0.415020
H68	H	1.379515	0.042640	0.415081
H69	H	1.507414	0.088309	0.593500
H70	H	1.419397	0.006805	0.593584
H71	H	1.500365	-0.066186	0.434232
H72	H	1.588403	0.015314	0.434173
H73	H	1.573544	-0.051668	0.537947
H74	H	1.384133	0.118944	0.706541
H75	H	0.753930	0.443097	-0.000032
H76	H	0.555828	0.422024	-0.000024
H77	H	0.571768	0.110147	0.000101
H78	H	1.148014	0.331370	0.706591
H79	H	0.739976	0.041612	0.000023
H80	H	0.938109	0.062680	-0.000002
H81	H	1.109796	0.365745	0.293425
