data_functionalizedCrystal
_audit_creation_method	'MofGen! by Chris Wilmer'
_symmetry_space_group_name_H-M	'P1'
_symmetry_Int_Tables_number	1
_symmetry_cell_setting	triclinic
loop_
_symmetry_equiv_pos_as_xyz
  x,y,z
_cell_length_a	10.540535
_cell_length_b	9.616153
_cell_length_c	10.723024
_cell_angle_alpha	89.994646
_cell_angle_beta	95.504244
_cell_angle_gamma	89.999812
loop_
_atom_site_label
_atom_site_type_symbol
_atom_site_fract_x
_atom_site_fract_y
_atom_site_fract_z
O1	O	1.685796	0.115566	-0.175841
O2	O	1.316373	0.115585	-0.192417
O3	O	1.509606	0.115570	-0.002557
O4	O	1.492563	0.115581	-0.365701
O5	O	1.509598	-0.115722	-0.002544
O6	O	1.316366	-0.115707	-0.192404
O7	O	1.685788	-0.115726	-0.175828
Zn8	Zn	1.501076	-0.152439	-0.184114
Zn9	Zn	1.501086	0.152298	-0.184131
O10	O	1.492556	-0.115711	-0.365688
C11	C	1.269067	-0.000058	-0.191168
C12	C	1.128121	-0.000051	-0.187453
C13	C	1.091521	-0.000061	-0.048832
C14	C	0.944923	-0.000600	-0.044922
C15	C	0.918748	-0.131887	-0.250723
C16	C	1.065512	-0.131984	-0.253673
C17	C	1.065403	0.131046	-0.255705
C18	C	0.919060	0.132765	-0.249294
N19	N	1.501078	-0.360413	-0.184101
C20	C	1.604831	-0.580748	-0.082889
C21	C	1.604551	-0.419581	-0.082503
C22	C	1.368388	-0.418938	-0.154483
C23	C	1.369005	-0.580156	-0.153774
C24	C	1.528854	-0.580285	-0.315284
C25	C	1.531848	-0.419057	-0.314427
C26	C	1.733094	-0.000079	-0.177076
C27	C	1.874041	-0.000078	-0.180792
C28	C	1.508362	-0.000074	0.043950
C29	C	1.504651	-0.000069	0.182506
N30	N	1.501093	0.360272	-0.184134
C31	C	1.493800	-0.000063	-0.412195
C32	C	1.497510	-0.000059	-0.550751
C33	C	1.389388	-0.000056	0.374319
C34	C	1.393220	-0.000061	0.231113
H35	H	0.915616	0.093868	0.009769
F36	F	1.652708	-0.633408	-0.352110
H37	H	1.453219	-0.618433	-0.390642
H38	H	1.592915	-0.000016	0.407381
H39	H	1.133521	0.094449	0.004394
F40	F	1.148350	-0.123433	0.019591
H41	H	1.629466	-0.380806	-0.336874
F42	F	0.854896	0.143704	-0.378913
H43	H	1.461272	-0.378778	-0.393385
F44	F	1.120931	0.261680	-0.199174
F45	F	1.581198	-0.369184	0.044681
H46	H	0.916495	-0.095648	0.009512
H47	H	0.887867	-0.230362	-0.202734
F48	F	0.881749	0.260227	-0.182756
F49	F	1.094286	0.132688	-0.389027
H50	H	1.293982	-0.000041	0.416187
F51	F	1.581825	-0.633716	0.043574
H52	H	1.597218	-0.000079	0.246887
H53	H	1.105704	-0.230895	-0.206434
H54	H	1.300659	-0.000067	0.166725
F55	F	1.264999	-0.631158	-0.246410
F56	F	1.095551	-0.139328	-0.386495
H57	H	1.703149	-0.380010	-0.100313
H58	H	1.703758	-0.619513	-0.100433
F59	F	1.337252	-0.629331	-0.028710
F60	F	1.264989	-0.368847	-0.248230
F61	F	0.856785	-0.137810	-0.381482
H62	H	1.343525	-0.378576	-0.059879
