data_functionalizedCrystal
_audit_creation_method	'MofGen! by Chris Wilmer'
_symmetry_space_group_name_H-M	'P1'
_symmetry_Int_Tables_number	1
_symmetry_cell_setting	triclinic
loop_
_symmetry_equiv_pos_as_xyz
  x,y,z
_cell_length_a	12.594516
_cell_length_b	16.625548
_cell_length_c	16.625539
_cell_angle_alpha	90.020568
_cell_angle_beta	89.976673
_cell_angle_gamma	89.982879
loop_
_atom_site_label
_atom_site_type_symbol
_atom_site_fract_x
_atom_site_fract_y
_atom_site_fract_z
Zn1	Zn	-0.423710	-1.232716	-0.455937
Zn2	Zn	-0.601711	-1.232635	-0.321116
Zn3	Zn	-0.423750	-1.097878	-0.321118
Zn4	Zn	-0.601650	-1.097864	-0.455906
O5	O	-0.512705	-1.165273	-0.388519
O6	O	-0.447331	-1.345538	-0.438065
O7	O	-0.578147	-1.214731	-0.208284
O8	O	-0.274799	-1.115805	-0.339016
O9	O	-0.578108	-1.345478	-0.339013
O10	O	-0.274769	-1.214870	-0.438067
O11	O	-0.447400	-1.115726	-0.208285
O12	O	-0.447341	-0.985044	-0.338985
O13	O	-0.578003	-1.115780	-0.568743
O14	O	-0.578043	-0.985033	-0.438014
O15	O	-0.447271	-1.214856	-0.568766
O16	O	-0.750649	-1.214717	-0.338983
O17	O	-0.750604	-1.115701	-0.438012
C18	C	-0.512690	-0.955782	-0.388497
C19	C	-0.512709	-0.866161	-0.388506
C20	C	-0.789246	-1.165220	-0.388511
C21	C	-0.907552	-1.165272	-0.388535
C22	C	-0.512626	-1.165326	-0.598828
C23	C	-0.512592	-1.165348	-0.688449
C24	C	-0.976819	-1.111412	-0.442359
C25	C	-1.047680	-1.091767	-0.368785
C26	C	-1.047490	-1.184990	-0.462122
C27	C	-0.976855	-1.145588	-0.314921
C28	C	-0.976658	-1.238845	-0.408308
C29	C	-1.047487	-1.219228	-0.334683
C30	C	-0.235085	-1.165348	-0.388545
C31	C	-0.116779	-1.165380	-0.388556
C32	C	-0.512721	-1.375582	-0.388542
C33	C	-0.512728	-1.465203	-0.388552
C34	C	-0.512716	-0.537986	-0.388541
C35	C	-0.512711	-0.629294	-0.388529
C36	C	-0.512713	-0.702071	-0.388523
C37	C	-0.512707	-0.793385	-0.388512
C38	C	-0.512473	-1.165385	-1.016625
C39	C	-0.512510	-1.165373	-0.925317
C40	C	-0.512534	-1.165367	-0.852540
C41	C	-0.512568	-1.165354	-0.761226
C42	C	-0.512708	-1.165267	-0.179028
C43	C	-0.512442	-1.165401	-0.089408
H44	H	-0.945789	-1.065783	-0.487811
H45	H	-1.078321	-1.264822	-0.289122
H46	H	-1.078517	-1.201624	-0.524346
C47	C	-1.089825	-1.007775	-0.346196
N48	N	-1.121566	-0.944510	-0.329188
C49	C	-0.935115	-1.123014	-0.230838
N50	N	-0.903674	-1.106009	-0.167508
C51	C	-0.934463	-1.322807	-0.430935
N52	N	-0.902674	-1.386046	-0.447988
