data_functionalizedCrystal
_audit_creation_method	'MofGen! by Chris Wilmer'
_symmetry_space_group_name_H-M	'P1'
_symmetry_Int_Tables_number	1
_symmetry_cell_setting	triclinic
loop_
_symmetry_equiv_pos_as_xyz
  x,y,z
_cell_length_a	14.044220
_cell_length_b	9.065218
_cell_length_c	8.140239
_cell_angle_alpha	89.997972
_cell_angle_beta	90.002157
_cell_angle_gamma	89.102381
loop_
_atom_site_label
_atom_site_type_symbol
_atom_site_fract_x
_atom_site_fract_y
_atom_site_fract_z
O1	O	1.260761	0.356074	-0.136429
O2	O	1.594095	0.689408	0.196905
O3	O	1.927428	1.022741	0.530238
O4	O	0.984682	0.343225	-0.136471
O5	O	1.318015	0.676558	0.196863
O6	O	1.651349	1.009892	0.530196
O7	O	1.128428	0.135640	-0.136444
O8	O	1.461761	0.468973	0.196889
O9	O	1.795095	0.802306	0.530223
O10	O	1.117015	0.563660	-0.136455
O11	O	1.450348	0.896993	0.196878
O12	O	1.783682	1.230326	0.530211
O13	O	1.128420	0.135636	0.136783
O14	O	1.461753	0.468969	0.470116
O15	O	1.795087	0.802303	0.803450
O16	O	0.984674	0.343222	0.136757
O17	O	1.318007	0.676555	0.470090
O18	O	1.651340	1.009888	0.803423
O19	O	1.260753	0.356071	0.136798
O20	O	1.594087	0.689404	0.470132
O21	O	1.927420	1.022737	0.803465
Zn22	Zn	1.122712	0.349646	0.180158
Zn23	Zn	1.456046	0.682979	0.513491
Zn24	Zn	1.789379	1.016312	0.846825
Zn25	Zn	1.122723	0.349650	-0.179830
Zn26	Zn	1.456056	0.682984	0.153503
Zn27	Zn	1.789390	1.016317	0.486836
O28	O	1.117007	0.563656	0.136772
O29	O	1.450340	0.896989	0.470105
O30	O	1.783674	1.230323	0.803439
C31	C	0.949315	0.337599	0.000138
C32	C	1.282648	0.670932	0.333471
C33	C	1.615982	1.004266	0.666804
C34	C	0.843945	0.320822	0.000121
C35	C	1.177279	0.654155	0.333455
C36	C	1.510612	0.987489	0.666788
C37	C	0.651021	0.290150	0.000155
C38	C	0.984354	0.623483	0.333488
C39	C	1.317687	0.956817	0.666821
C40	C	0.594409	0.409139	0.000159
C41	C	0.927742	0.742472	0.333492
C42	C	1.261076	1.075806	0.666825
C43	C	0.487059	0.392073	0.000177
C44	C	0.820392	0.725406	0.333511
C45	C	1.153726	1.058740	0.666844
C46	C	0.758381	0.307214	0.000136
C47	C	1.091714	0.640547	0.333470
C48	C	1.425047	0.973881	0.666803
C49	C	1.127327	0.080530	0.000167
C50	C	1.460661	0.413863	0.333500
C51	C	1.793994	0.747196	0.666834
C52	C	1.124048	-0.083677	0.000160
C53	C	1.457381	0.249657	0.333493
C54	C	1.790714	0.582990	0.666827
C55	C	1.296120	0.361697	0.000187
C56	C	1.629453	0.695030	0.333520
C57	C	1.962787	1.028364	0.666853
C58	C	1.401490	0.378474	0.000192
C59	C	1.734823	0.711807	0.333525
C60	C	2.068157	1.045141	0.666859
C61	C	1.118108	0.618766	0.000157
C62	C	1.451441	0.952099	0.333490
C63	C	1.784775	1.285433	0.666824
C64	C	1.121388	0.782972	0.000154
C65	C	1.454721	1.116306	0.333487
C66	C	1.788054	1.449639	0.666820
N67	N	1.122712	0.349642	0.425841
N68	N	1.456045	0.682976	0.759174
N69	N	1.789379	1.016309	1.092507
N70	N	1.122731	0.349643	-0.425513
N71	N	1.456064	0.682976	-0.092180
N72	N	1.789397	1.016309	0.241154
H73	H	0.618867	0.175472	0.000167
H74	H	0.952200	0.508806	0.333500
H75	H	1.285533	0.842139	0.666833
H76	H	0.626565	0.523826	0.000148
H77	H	0.959898	0.857159	0.333481
H78	H	1.293231	1.190493	0.666814
