data_functionalizedCrystal
_audit_creation_method	'MofGen! by Chris Wilmer'
_symmetry_space_group_name_H-M	'P1'
_symmetry_Int_Tables_number	1
_symmetry_cell_setting	triclinic
loop_
_symmetry_equiv_pos_as_xyz
  x,y,z
_cell_length_a	10.685980
_cell_length_b	16.625545
_cell_length_c	10.686551
_cell_angle_alpha	94.407339
_cell_angle_beta	98.408259
_cell_angle_gamma	94.392107
loop_
_atom_site_label
_atom_site_type_symbol
_atom_site_fract_x
_atom_site_fract_y
_atom_site_fract_z
Zn1	Zn	1.995734	-0.180728	0.866688
Zn2	Zn	2.329068	0.152605	1.200022
Zn3	Zn	2.662401	0.485938	1.533355
Zn4	Zn	1.979269	-0.326801	0.654412
Zn5	Zn	2.312602	0.006532	0.987746
Zn6	Zn	2.645935	0.339866	1.321079
Zn7	Zn	1.767155	-0.203170	0.638151
Zn8	Zn	2.100488	0.130163	0.971484
Zn9	Zn	2.433822	0.463497	1.304818
Zn10	Zn	1.783392	-0.326723	0.850323
Zn11	Zn	2.116726	0.006611	1.183656
Zn12	Zn	2.450059	0.339944	1.516989
O13	O	1.881388	-0.259356	0.752394
O14	O	2.214721	0.073978	1.085727
O15	O	2.548054	0.407311	1.419060
O16	O	2.171187	-0.190746	0.852184
O17	O	2.504520	0.142587	1.185517
O18	O	2.837853	0.475921	1.518851
O19	O	1.937445	-0.319826	0.474623
O20	O	2.270778	0.013507	0.807956
O21	O	2.604111	0.346841	1.141289
O22	O	1.797572	-0.087354	0.668511
O23	O	2.130905	0.245979	1.001844
O24	O	2.464239	0.579313	1.335177
O25	O	2.159089	-0.298065	0.696226
O26	O	2.492422	0.035268	1.029559
O27	O	2.825756	0.368602	1.362893
O28	O	1.965509	-0.070866	0.836416
O29	O	2.298842	0.262467	1.169749
O30	O	2.632175	0.595801	1.503083
O31	O	1.781606	-0.228995	0.462675
O32	O	2.114939	0.104338	0.796009
O33	O	2.448272	0.437672	1.129342
O34	O	1.591673	-0.228919	0.652641
O35	O	1.925006	0.104414	0.985975
O36	O	2.258339	0.437748	1.319308
O37	O	1.825246	-0.297931	1.030127
O38	O	2.158580	0.035402	1.363460
O39	O	2.491913	0.368735	1.696793
O40	O	1.603602	-0.319692	0.808523
O41	O	1.936935	0.013641	1.141857
O42	O	2.270269	0.346974	1.475190
O43	O	1.981253	-0.190670	1.042150
O44	O	2.314587	0.142663	1.375484
O45	O	2.647920	0.475997	1.708817
O46	O	1.953190	-0.439630	0.680357
O47	O	2.286523	-0.106297	1.013690
O48	O	2.619856	0.227037	1.347024
O49	O	1.809280	-0.439572	0.824291
O50	O	2.142613	-0.106239	1.157625
O51	O	2.475947	0.227094	1.490958
C52	C	1.551578	-0.276733	0.727043
C53	C	1.884912	0.056600	1.060376
C54	C	2.218245	0.389934	1.393709
C55	C	1.410487	-0.284185	0.716227
C56	C	1.743820	0.049148	1.049561
C57	C	2.077153	0.382482	1.382894
C58	C	1.881247	-0.468856	0.752343
C59	C	2.214580	-0.135523	1.085676
C60	C	2.547913	0.197811	1.419010
C61	C	1.881306	-0.558473	0.752373
C62	C	2.214639	-0.225139	1.085706
C63	C	2.547972	0.108194	1.419040
C64	C	1.881357	-0.631251	0.752402
C65	C	2.214690	-0.297918	1.085735
C66	C	2.548024	0.035416	1.419069
C67	C	1.881433	-0.722554	0.752436
C68	C	2.214766	-0.389221	1.085769
C69	C	2.548100	-0.055887	1.419102
C70	C	1.881500	-0.795326	0.752457
C71	C	2.214833	-0.461993	1.085790
C72	C	2.548167	-0.128660	1.419123
C73	C	1.881575	-0.886635	0.752488
C74	C	2.214908	-0.553302	1.085822
C75	C	2.548241	-0.219969	1.419155
C76	C	2.212485	-0.241911	0.777844
C77	C	2.545818	0.091422	1.111178
C78	C	2.879151	0.424756	1.444511
C79	C	2.353579	-0.234477	0.788690
C80	C	2.686912	0.098856	1.122023
C81	C	3.020245	0.432190	1.455357
C82	C	1.906898	-0.241789	1.083485
C83	C	2.240231	0.091545	1.416818
C84	C	2.573564	0.424878	1.750151
C85	C	1.917769	-0.234303	1.224576
C86	C	2.251102	0.099031	1.557909
C87	C	2.584435	0.432364	1.891242
C88	C	1.881566	-0.049034	0.752475
C89	C	2.214899	0.284299	1.085808
C90	C	2.548232	0.617633	1.419142
C91	C	1.881642	0.040593	0.752509
C92	C	2.214975	0.373926	1.085843
C93	C	2.548308	0.707259	1.419176
C94	C	1.856050	-0.276792	0.422597
C95	C	2.189383	0.056541	0.755930
C96	C	2.522716	0.389875	1.089263
C97	C	1.845425	-0.284038	0.281525
C98	C	2.178758	0.049295	0.614858
C99	C	2.512091	0.382629	0.948192
H100	H	1.412796	-0.186214	0.859000
H101	H	1.746130	0.147119	1.192334
H102	H	2.079463	0.480452	1.525667
N103	N	2.010831	-0.170300	1.302954
N104	N	2.344164	0.163033	1.636288
N105	N	2.677497	0.496367	1.969621
H106	H	2.099766	-0.179248	1.286913
H107	H	2.433100	0.154085	1.620246
H108	H	2.766433	0.487419	1.953580
H109	H	2.005564	-0.173869	1.395986
H110	H	2.338897	0.159464	1.729319
H111	H	2.672230	0.492798	2.062653
N112	N	1.332051	-0.348110	0.623066
N113	N	1.665384	-0.014777	0.956399
N114	N	1.998718	0.318556	1.289732
H115	H	1.238996	-0.344553	0.628275
H116	H	1.572329	-0.011220	0.961608
H117	H	1.905662	0.322113	1.294942
H118	H	1.356643	-0.403471	0.644410
H119	H	1.689977	-0.070138	0.977743
H120	H	2.023310	0.263195	1.311077
N121	N	1.752368	-0.348034	1.203144
N122	N	2.085701	-0.014700	1.536477
N123	N	2.419034	0.318633	1.869811
H124	H	1.757532	-0.344491	1.110083
H125	H	2.090865	-0.011158	1.443417
H126	H	2.424198	0.322175	1.776750
H127	H	1.663478	-0.339049	1.219286
H128	H	1.996811	-0.005715	1.552619
H129	H	2.330145	0.327618	1.885952
