data_functionalizedCrystal
_audit_creation_method	'MofGen! by Chris Wilmer'
_symmetry_space_group_name_H-M	'P1'
_symmetry_Int_Tables_number	1
_symmetry_cell_setting	triclinic
loop_
_symmetry_equiv_pos_as_xyz
  x,y,z
_cell_length_a	23.532407
_cell_length_b	23.532357
_cell_length_c	12.503572
_cell_angle_alpha	93.494896
_cell_angle_beta	86.506620
_cell_angle_gamma	82.838519
loop_
_atom_site_label
_atom_site_type_symbol
_atom_site_fract_x
_atom_site_fract_y
_atom_site_fract_z
O1	O	0.758548	0.065826	-0.089265
O2	O	1.258548	0.565826	0.410735
O3	O	0.592684	0.075828	-0.089284
O4	O	1.092684	0.575828	0.410716
O5	O	0.680632	-0.012106	-0.089252
O6	O	1.180632	0.487894	0.410748
O7	O	0.670601	0.153760	-0.089297
O8	O	1.170601	0.653760	0.410703
O9	O	0.674018	-0.005482	0.089388
O10	O	1.174018	0.494518	0.589388
O11	O	0.586070	0.082452	0.089356
O12	O	1.086070	0.582452	0.589356
O13	O	0.751934	0.072450	0.089375
O14	O	1.251934	0.572450	0.589375
Cu15	Cu	0.668398	0.078056	0.105677
Cu16	Cu	1.168398	0.578056	0.605677
Cu17	Cu	0.676220	0.070222	-0.105585
Cu18	Cu	1.176220	0.570222	0.394415
O19	O	0.663986	0.160384	0.089343
O20	O	1.163986	0.660384	0.589343
C21	C	0.568161	0.078885	0.000034
C22	C	1.068161	0.578885	0.500034
C23	C	0.504944	0.078119	0.000028
C24	C	1.004944	0.578119	0.500028
C25	C	0.238785	0.022924	0.000072
C26	C	0.738785	0.522924	0.500072
C27	C	0.298185	0.023636	0.000072
C28	C	0.798185	0.523636	0.500072
O29	O	0.334936	-0.020149	0.000121
O30	O	0.834936	0.479851	0.500121
N31	N	0.320803	0.075912	0.000050
N32	N	0.820803	0.575912	0.500050
C33	C	0.284016	0.127482	0.000040
C34	C	0.784016	0.627482	0.500040
O35	O	0.308709	0.172012	0.000023
O36	O	0.808709	0.672012	0.500023
C37	C	0.224617	0.126770	0.000048
C38	C	0.724617	0.626770	0.500048
C39	C	0.202003	0.074489	0.000059
C40	C	0.702003	0.574489	0.500059
C41	C	0.216171	-0.029352	0.000084
C42	C	0.716171	0.470648	0.500084
C43	C	0.156775	-0.030063	0.000083
C44	C	0.656775	0.469937	0.500083
C45	C	0.119993	0.021502	0.000069
C46	C	0.619993	0.521502	0.500069
C47	C	0.142607	0.073778	0.000057
C48	C	0.642607	0.573778	0.500057
C49	C	0.187832	0.178339	0.000046
C50	C	0.687832	0.678339	0.500046
C51	C	0.128429	0.177622	0.000055
C52	C	0.628429	0.677622	0.500055
C53	C	0.105815	0.125342	0.000065
C54	C	0.605815	0.625342	0.500065
C55	C	0.046430	0.124632	0.000042
C56	C	0.546430	0.624632	0.500042
N57	N	0.023812	0.072355	0.000064
N58	N	0.523812	0.572355	0.500064
C59	C	0.060594	0.020790	0.000077
C60	C	0.560594	0.520790	0.500077
C61	C	0.408759	0.128972	0.000025
C62	C	0.908759	0.628972	0.500025
C63	C	0.468158	0.129684	0.000009
C64	C	0.968158	0.629684	0.500009
C65	C	0.482322	0.025838	0.000043
C66	C	0.982322	0.525838	0.500043
C67	C	0.422923	0.025127	0.000051
C68	C	0.922923	0.525127	0.500051
C69	C	0.386142	0.076696	0.000046
C70	C	0.886142	0.576696	0.500046
C71	C	-0.064143	0.019300	0.000073
C72	C	0.435857	0.519300	0.500073
C73	C	-0.123544	0.018593	0.000067
C74	C	0.376456	0.518593	0.500067
C75	C	-0.137704	0.122439	0.000039
C76	C	0.362296	0.622439	0.500039
C77	C	-0.078307	0.123146	0.000039
C78	C	0.421693	0.623146	0.500039
C79	C	-0.041527	0.071572	0.000060
C80	C	0.458473	0.571572	0.500060
O81	O	0.009644	0.168394	-0.000002
O82	O	0.509644	0.668394	0.499998
O83	O	0.035893	-0.023733	0.000109
O84	O	0.535893	0.476267	0.500109
C85	C	0.677074	-0.030010	0.000072
C86	C	1.177074	0.469990	0.500072
C87	C	0.676319	-0.093229	0.000082
C88	C	1.176319	0.406771	0.500082
C89	C	0.675190	-0.488853	-0.097353
C90	C	1.175190	0.011147	0.402647
C91	C	0.674473	-0.548252	-0.097360
C92	C	1.174473	-0.048252	0.402640
O93	O	0.677149	-0.582040	-0.180174
O94	O	1.177149	-0.082040	0.319826
N95	N	0.670512	-0.574353	0.000015
N96	N	1.170512	-0.074353	0.500015
C97	C	0.667261	-0.541050	0.097403
C98	C	1.167261	-0.041050	0.597403
O99	O	0.663826	-0.568704	0.180228
O100	O	1.163826	-0.068704	0.680228
C101	C	0.667974	-0.481651	0.097408
C102	C	1.167974	0.018349	0.597408
C103	C	0.671941	-0.455554	0.000027
C104	C	1.171941	0.044446	0.500027
C105	C	0.679156	-0.462756	-0.194727
C106	C	1.179156	0.037244	0.305273
C107	C	0.679874	-0.403361	-0.194720
C108	C	1.179874	0.096639	0.305280
C109	C	0.676626	-0.370062	-0.097340
C110	C	1.176626	0.129938	0.402660
C111	C	0.672659	-0.396159	0.000033
C112	C	1.172659	0.103841	0.500033
C113	C	0.664720	-0.448348	0.194795
C114	C	1.164720	0.051652	0.694795
C115	C	0.665433	-0.388945	0.194791
C116	C	1.165433	0.111055	0.694791
C117	C	0.669400	-0.362849	0.097410
C118	C	1.169400	0.137151	0.597410
C119	C	0.670129	-0.303465	0.097420
C120	C	1.170129	0.196535	0.597420
N121	N	0.674090	-0.277364	0.000045
N122	N	1.174090	0.222636	0.500045
C123	C	0.677339	-0.310663	-0.097335
C124	C	1.177339	0.189337	0.402665
C125	C	0.665763	-0.665792	0.097385
C126	C	1.165763	-0.165792	0.597385
C127	C	0.665055	-0.725190	0.097381
C128	C	1.165055	-0.225190	0.597381
C129	C	0.672265	-0.732389	-0.097382
C130	C	1.172265	-0.232389	0.402618
C131	C	0.672978	-0.672990	-0.097377
C132	C	1.172978	-0.172990	0.402623
C133	C	0.669725	-0.639691	0.000010
C134	C	1.169725	-0.139691	0.500010
C135	C	0.678847	-0.185928	-0.097314
C136	C	1.178847	0.314072	0.402686
C137	C	0.679567	-0.126527	-0.097298
C138	C	1.179567	0.373473	0.402702
C139	C	0.672354	-0.119333	0.097464
C140	C	1.172354	0.380667	0.597464
C141	C	0.671637	-0.178729	0.097449
C142	C	1.171637	0.321271	0.597449
C143	C	0.674881	-0.212025	0.000052
C144	C	1.174881	0.287975	0.500052
O145	O	0.667453	-0.269641	0.180193
O146	O	1.167453	0.230359	0.680193
O147	O	0.680766	-0.282999	-0.180146
O148	O	1.180766	0.217001	0.319854
C149	C	0.776457	0.069392	0.000055
C150	C	1.276457	0.569392	0.500055
C151	C	0.839674	0.070158	0.000054
C152	C	1.339674	0.570158	0.500054
C153	C	0.667544	0.178288	0.000017
C154	C	1.167544	0.678288	0.500017
C155	C	0.668300	0.241506	0.000000
C156	C	1.168300	0.741506	0.500000
N157	N	0.662900	0.083565	0.254267
N158	N	1.162900	0.583565	0.754267
N159	N	0.681722	0.064708	-0.254176
N160	N	1.181722	0.564708	0.245824
C161	C	0.654813	0.091675	0.473379
C162	C	1.154813	0.591675	0.973379
C163	C	0.689807	0.056601	0.526719
C164	C	1.189807	0.556601	1.026719
C165	C	0.685308	0.061113	0.648641
C166	C	1.185308	0.561113	1.148641
C167	C	0.659312	0.087163	0.351447
C168	C	1.159312	0.587163	0.851447
H169	H	-0.059894	0.165717	0.000030
H170	H	0.440106	0.665717	0.500030
H171	H	0.674908	-0.759512	-0.176674
H172	H	1.174908	-0.259512	0.323326
H173	H	0.206233	0.220911	0.000032
H174	H	0.706233	0.720911	0.500032
H175	H	0.621477	0.125089	0.519274
H176	H	1.121477	0.625089	1.019274
H177	H	0.512281	-0.016149	0.000054
H178	H	1.012281	0.483851	0.500054
N179	N	0.088766	0.233250	0.000048
N180	N	0.588766	0.733250	0.500048
H181	H	0.066254	0.232821	-0.066173
H182	H	0.566254	0.732821	0.433827
H183	H	0.061392	0.237697	0.066314
H184	H	0.561392	0.737697	0.566314
H185	H	0.681799	-0.489862	-0.274030
H186	H	1.181799	0.010138	0.225970
H187	H	-0.167662	0.164422	0.000023
H188	H	0.332338	0.664422	0.500023
N189	N	0.668854	-0.083408	0.202486
N190	N	1.168854	0.416592	0.702486
H191	H	0.633681	-0.053784	0.206811
H192	H	1.133681	0.446216	0.706811
H193	H	0.666256	-0.108988	0.264122
H194	H	1.166256	0.391012	0.764122
N195	N	0.733970	0.012338	0.465922
N196	N	1.233970	0.512338	0.965922
H197	H	0.760793	0.032230	0.419257
H198	H	1.260793	0.532230	0.919257
H199	H	0.756658	-0.010429	0.518574
H200	H	1.256658	0.489571	1.018574
N201	N	0.398540	-0.031263	0.000079
N202	N	0.898540	0.468737	0.500079
H203	H	0.371766	-0.031419	0.066308
H204	H	0.871766	0.468581	0.566308
H205	H	0.376688	-0.036303	-0.066180
H206	H	0.876688	0.463697	0.433820
H207	H	0.682799	-0.105283	-0.176602
H208	H	1.182799	0.394717	0.323398
N209	N	0.677256	-0.644845	-0.202408
N210	N	1.177256	-0.144845	0.297592
H211	H	0.679207	-0.674958	-0.264093
H212	H	1.179207	-0.174958	0.235907
H213	H	0.642399	-0.615540	-0.206660
H214	H	1.142399	-0.115540	0.293340
H215	H	0.681486	-0.213030	-0.176624
H216	H	1.181486	0.286970	0.323376
N217	N	0.662265	-0.629877	0.202427
N218	N	1.162265	-0.129877	0.702427
H219	H	0.625257	-0.633823	0.244998
H220	H	1.125257	-0.133823	0.744998
H221	H	0.695902	-0.643482	0.244909
H222	H	1.195902	-0.143482	0.744909
H223	H	-0.034203	-0.022697	0.000090
H224	H	0.465797	0.477303	0.500090
N225	N	-0.147934	-0.037797	0.000076
N226	N	0.352066	0.462203	0.500076
H227	H	-0.115617	-0.070354	0.000089
H228	H	0.384383	0.429646	0.500089
H229	H	-0.174721	-0.037899	0.066300
H230	H	0.325279	0.462101	0.566300
N231	N	0.684149	-0.375218	-0.299753
N232	N	1.184149	0.124782	0.200247
H233	H	0.686096	-0.405332	-0.361435
H234	H	1.186096	0.094668	0.138565
H235	H	0.649292	-0.345911	-0.304001
H236	H	1.149292	0.154089	0.195999
H237	H	0.661491	-0.469585	0.274093
H238	H	1.161491	0.030415	0.774093
N239	N	0.132388	-0.086451	0.000104
N240	N	0.632388	0.413549	0.500104
H241	H	0.164709	-0.119005	0.000117
H242	H	0.664709	0.380995	0.500117
H243	H	0.105605	-0.086553	0.066334
H244	H	0.605605	0.413447	0.566334
H245	H	0.246113	-0.071345	0.000099
H246	H	0.746113	0.428655	0.500099
H247	H	0.378814	0.170968	0.000013
H248	H	0.878814	0.670968	0.500013
N249	N	0.492546	0.186071	-0.000031
N250	N	0.992546	0.686071	0.499969
H251	H	0.460227	0.218626	-0.000043
H252	H	0.960227	0.718626	0.499957
H253	H	0.514433	0.191091	0.066190
H254	H	1.014433	0.691091	0.566190
H255	H	0.661833	-0.746434	0.176679
H256	H	1.161833	-0.246434	0.676679
N257	N	0.661926	-0.353027	0.299828
N258	N	1.161926	0.146973	0.799828
H259	H	0.624916	-0.356970	0.342393
H260	H	1.124916	0.143030	0.842393
H261	H	0.695560	-0.366630	0.342321
H262	H	1.195560	0.133370	0.842321
N263	N	0.667368	-0.206882	0.202478
N264	N	1.167368	0.293118	0.702478
H265	H	0.665422	-0.176772	0.264168
H266	H	1.165422	0.323228	0.764168
H267	H	0.631601	-0.226545	0.206715
H268	H	1.131601	0.273455	0.706715
