data_functionalizedCrystal
_audit_creation_method	'MofGen! by Chris Wilmer'
_symmetry_space_group_name_H-M	'P1'
_symmetry_Int_Tables_number	1
_symmetry_cell_setting	triclinic
loop_
_symmetry_equiv_pos_as_xyz
  x,y,z
_cell_length_a	10.540539
_cell_length_b	16.109301
_cell_length_c	14.586319
_cell_angle_alpha	89.994786
_cell_angle_beta	89.998549
_cell_angle_gamma	83.993486
loop_
_atom_site_label
_atom_site_type_symbol
_atom_site_fract_x
_atom_site_fract_y
_atom_site_fract_z
O1	O	1.684215	0.117165	-0.076200
O2	O	2.184215	0.617165	0.423800
O3	O	1.314645	0.128205	-0.076212
O4	O	1.814645	0.628205	0.423788
O5	O	1.509583	0.001716	-0.076197
O6	O	2.009583	0.501716	0.423803
O7	O	1.489278	0.243654	-0.076216
O8	O	1.989278	0.743654	0.423784
O9	O	1.509569	0.001714	0.076284
O10	O	2.009569	0.501714	0.576284
O11	O	1.314631	0.128203	0.076269
O12	O	1.814631	0.628203	0.576269
O13	O	1.684202	0.117163	0.076280
O14	O	2.184202	0.617163	0.576280
Cu15	Cu	1.499415	0.122683	0.090197
Cu16	Cu	1.999415	0.622683	0.590197
Cu17	Cu	1.499431	0.122685	-0.090129
Cu18	Cu	1.999431	0.622685	0.409871
O19	O	1.489264	0.243652	0.076265
O20	O	1.989264	0.743652	0.576265
C21	C	1.508753	-0.029265	0.000044
C22	C	2.008753	0.470735	0.500044
C23	C	1.506287	-0.121575	0.000046
C24	C	2.006287	0.378425	0.500046
C25	C	1.267347	0.127376	0.000027
C26	C	1.767347	0.627376	0.500027
C27	C	1.126434	0.124899	0.000023
C28	C	1.626434	0.624899	0.500023
C29	C	1.616226	-0.343175	0.000034
C30	C	2.116226	0.156825	0.500034
C31	C	1.613899	-0.429910	0.000027
C32	C	2.113899	0.070090	0.500027
C33	C	1.382612	-0.411450	0.000023
C34	C	1.882612	0.088550	0.500023
C35	C	1.384940	-0.324717	0.000024
C36	C	1.884940	0.175283	0.500024
C37	C	1.501751	-0.290582	0.000034
C38	C	2.001751	0.209418	0.500034
C39	C	1.497096	-0.464050	0.000026
C40	C	1.997096	0.035950	0.500026
C41	C	1.494572	-0.558091	0.000018
C42	C	1.994572	-0.058091	0.500018
C43	C	1.504275	-0.196535	0.000041
C44	C	2.004275	0.303465	0.500041
C45	C	0.944360	0.029989	0.000386
C46	C	1.444360	0.529989	0.500386
C47	C	1.090943	0.032500	0.000033
C48	C	1.590943	0.532500	0.500033
C49	C	1.064135	0.169366	-0.087051
C50	C	1.564135	0.669366	0.412949
C51	C	0.917636	0.166213	-0.087115
C52	C	1.417636	0.666213	0.412885
C53	C	0.917105	0.168090	0.086285
C54	C	1.417105	0.668090	0.586285
C55	C	1.064075	0.168941	0.087426
C56	C	1.564075	0.668941	0.587426
C57	C	1.731500	0.117992	0.000039
C58	C	2.231500	0.617992	0.500039
C59	C	1.872413	0.120469	0.000037
C60	C	2.372413	0.620469	0.500037
C61	C	1.490093	0.274633	0.000022
C62	C	1.990093	0.774633	0.500022
C63	C	1.492559	0.366943	0.000015
C64	C	1.992559	0.866943	0.500015
N65	N	1.499413	0.122681	0.217029
N66	N	1.999413	0.622681	0.717029
N67	N	1.499443	0.122681	-0.216961
N68	N	1.999443	0.622681	0.283039
C69	C	1.585760	0.066691	0.452042
C70	C	2.085760	0.566691	0.952042
C71	C	1.585764	0.066689	0.548024
C72	C	2.085764	0.566689	1.048024
C73	C	1.413087	0.178673	0.548019
C74	C	1.913087	0.678673	1.048019
C75	C	1.413079	0.178671	0.452040
C76	C	1.913079	0.678671	0.952040
C77	C	1.499422	0.122680	0.404054
C78	C	1.999422	0.622680	0.904054
C79	C	1.499435	0.122681	0.596015
C80	C	1.999435	0.622681	1.096015
C81	C	1.499438	0.122679	0.700082
C82	C	1.999438	0.622679	1.200082
C83	C	1.499418	0.122681	0.299980
C84	C	1.999418	0.622681	0.799980
H85	H	1.711340	-0.315386	0.000041
H86	H	2.211340	0.184614	0.500041
Br87	Br	0.836098	0.276967	-0.093710
Br88	Br	1.336098	0.776967	0.406290
Br89	Br	1.702935	-0.009304	0.613149
Br90	Br	2.202935	0.490696	1.113149
Br91	Br	1.295913	0.254659	0.613146
Br92	Br	1.795913	0.754659	1.113146
H93	H	1.342766	0.224265	0.412965
H94	H	1.842766	0.724265	0.912965
H95	H	1.287509	-0.439253	0.000017
H96	H	1.787509	0.060747	0.500017
Br97	Br	1.769265	-0.501284	0.000021
Br98	Br	2.269265	-0.001284	0.500021
H99	H	1.134050	-0.002489	0.062452
H100	H	1.634050	0.497511	0.562452
Br101	Br	1.229570	-0.253334	0.000012
Br102	Br	1.729570	0.246666	0.500012
Br103	Br	0.897570	-0.030855	0.104470
Br104	Br	1.397570	0.469145	0.604470
H105	H	0.914677	-0.006358	-0.061706
H106	H	1.414677	0.493642	0.438294
Br107	Br	1.161326	-0.025963	-0.104354
Br108	Br	1.661326	0.474037	0.395646
H109	H	0.885979	0.138187	0.152286
H110	H	1.385979	0.638187	0.652286
H111	H	0.889900	0.133349	-0.152198
H112	H	1.389900	0.633349	0.347802
H113	H	1.085521	0.237222	-0.090296
H114	H	1.585521	0.737222	0.409704
Br115	Br	1.132933	0.114703	0.194793
Br116	Br	1.632933	0.614703	0.694793
H117	H	1.107170	0.138478	-0.151849
H118	H	1.607170	0.638478	0.348151
H119	H	1.087341	0.236306	0.092678
H120	H	1.587341	0.736306	0.592678
H121	H	0.868927	0.234830	0.086867
H122	H	1.368927	0.734830	0.586867
Br123	Br	1.702938	-0.009298	0.386922
Br124	Br	2.202938	0.490702	0.886922
