data_functionalizedCrystal
_audit_creation_method	'MofGen! by Chris Wilmer'
_symmetry_space_group_name_H-M	'P1'
_symmetry_Int_Tables_number	1
_symmetry_cell_setting	triclinic
loop_
_symmetry_equiv_pos_as_xyz
  x,y,z
_cell_length_a	10.540539
_cell_length_b	15.995350
_cell_length_c	9.016244
_cell_angle_alpha	89.999993
_cell_angle_beta	89.994699
_cell_angle_gamma	84.008933
loop_
_atom_site_label
_atom_site_type_symbol
_atom_site_fract_x
_atom_site_fract_y
_atom_site_fract_z
O1	O	1.684271	0.117994	-0.123262
O2	O	1.314706	0.129112	-0.123280
O3	O	1.509591	0.001726	-0.123269
O4	O	1.489386	0.245380	-0.123273
O5	O	1.509562	0.001729	0.123411
O6	O	1.314677	0.129115	0.123401
O7	O	1.684243	0.117997	0.123418
Cu8	Cu	1.499457	0.123556	0.145934
Cu9	Cu	1.499491	0.123553	-0.145795
O10	O	1.489358	0.245383	0.123408
C11	C	1.267400	0.128280	0.000058
C12	C	1.126486	0.125785	0.000051
C13	C	0.944373	0.030202	0.000629
C14	C	1.090956	0.032730	0.000057
C15	C	1.064214	0.170565	-0.140811
C16	C	0.917713	0.167389	-0.140913
C17	C	0.917166	0.169286	0.139609
C18	C	1.064137	0.170143	0.141455
C19	C	1.508741	-0.029472	0.000068
C20	C	1.506237	-0.122438	0.000060
C21	C	1.497244	-0.460239	0.000064
C22	C	1.358450	-0.413635	-0.000496
C23	C	1.360955	-0.316930	0.000061
C24	C	1.501705	-0.292652	0.000061
C25	C	1.570146	-0.333318	0.140929
C26	C	1.566660	-0.429975	0.141046
C27	C	1.569559	-0.430319	-0.139476
C28	C	1.569527	-0.333374	-0.141337
C29	C	1.504233	-0.197939	0.000064
C30	C	1.494719	-0.554952	0.000071
C31	C	1.731549	0.118829	0.000077
C32	C	1.872462	0.121324	0.000074
C33	C	1.490207	0.276581	0.000067
C34	C	1.492711	0.369547	0.000066
N35	N	1.499443	0.123558	0.351120
N36	N	1.499516	0.123544	-0.350981
C37	C	1.394878	0.191473	0.586147
C38	C	1.395104	0.191727	0.414256
C39	C	1.631893	0.143433	0.413464
C40	C	1.631320	0.143914	0.585409
C41	C	1.472879	0.035546	0.585663
C42	C	1.469826	0.036116	0.413709
H43	H	1.134043	-0.002504	0.101034
H44	H	1.306769	-0.289388	0.101207
H45	H	1.655918	0.206909	0.370387
N46	N	1.121175	0.129357	-0.279687
H47	H	1.162673	0.172099	-0.340331
H48	H	1.187255	0.081687	-0.251565
N49	N	0.880959	0.123533	-0.280371
H50	H	0.785617	0.121032	-0.281831
H51	H	0.906970	0.155649	-0.369900
H52	H	1.302987	-0.432500	-0.101514
N53	N	1.289698	-0.279709	-0.133703
H54	H	1.349157	-0.249277	-0.197100
H55	H	1.256385	-0.326166	-0.193435
H56	H	0.869016	0.236498	0.140559
H57	H	1.085628	0.238902	-0.146053
H58	H	1.671891	-0.461468	-0.140422
N59	N	1.564216	-0.034063	0.356814
H60	H	1.627800	-0.010062	0.289360
H61	H	1.610582	-0.063427	0.443325
H62	H	0.886022	0.139172	0.246381
N63	N	1.118966	0.126816	0.279501
H64	H	1.183922	0.078655	0.250581
H65	H	1.161409	0.168312	0.341975
N66	N	1.340770	0.016128	0.359783
H67	H	1.283362	0.009215	0.447664
H68	H	1.301711	0.063527	0.295034
N69	N	1.509469	-0.457882	-0.280906
H70	H	1.557336	-0.438027	-0.369028
H71	H	1.513281	-0.521227	-0.282742
N72	N	1.507174	-0.296094	0.279794
H73	H	1.434324	-0.252900	0.251776
H74	H	1.473473	-0.342156	0.340176
H75	H	0.914680	-0.006406	-0.099828
H76	H	1.549185	-0.015013	0.626319
H77	H	0.916281	-0.006559	0.101649
H78	H	1.087429	0.237986	0.149959
N79	N	1.285268	-0.440017	0.132559
H80	H	1.341630	-0.482026	0.193197
H81	H	1.257583	-0.389072	0.195348
N82	N	1.500517	-0.454613	0.280524
H83	H	1.410712	-0.425606	0.282902
H84	H	1.497685	-0.517526	0.281917
N85	N	1.503322	-0.297613	-0.279375
H86	H	1.506914	-0.234781	-0.282189
H87	H	1.547397	-0.324097	-0.369880
H88	H	1.668559	-0.461614	0.147438
H89	H	1.673551	-0.318574	0.146168
H90	H	1.133201	-0.002755	-0.101093
H91	H	1.296652	0.179768	0.372107
N92	N	1.264050	0.175885	0.640973
H93	H	1.207462	0.166236	0.553557
H94	H	1.271450	0.124652	0.707122
N95	N	1.662392	0.228960	0.638508
H96	H	1.589269	0.256111	0.699999
H97	H	1.742419	0.221906	0.700809
N98	N	1.705490	-0.312220	-0.152614
H99	H	1.725139	-0.275779	-0.065834
H100	H	1.765365	-0.365800	-0.151405
N101	N	1.417129	0.277473	0.643283
H102	H	1.494689	0.272622	0.709725
H103	H	1.431431	0.315513	0.556805
H104	H	0.868825	0.234313	-0.147308
H105	H	1.412106	0.257014	0.373109
H106	H	1.711615	0.096432	0.626996
H107	H	1.711609	0.095309	0.372564
N108	N	1.347712	0.010502	0.643162
H109	H	1.276066	0.053790	0.611892
H110	H	1.332623	-0.046142	0.601117
