data_functionalizedCrystal
_audit_creation_method	'MofGen! by Chris Wilmer'
_symmetry_space_group_name_H-M	'P1'
_symmetry_Int_Tables_number	1
_symmetry_cell_setting	triclinic
loop_
_symmetry_equiv_pos_as_xyz
  x,y,z
_cell_length_a	10.967819
_cell_length_b	13.596369
_cell_length_c	11.026607
_cell_angle_alpha	89.997861
_cell_angle_beta	96.381100
_cell_angle_gamma	102.135272
loop_
_atom_site_label
_atom_site_type_symbol
_atom_site_fract_x
_atom_site_fract_y
_atom_site_fract_z
O1	O	1.694042	0.368924	0.170518
O2	O	2.027376	0.702258	0.503851
O3	O	2.360709	1.035591	0.837184
O4	O	1.334403	0.307968	0.186839
O5	O	1.667736	0.641301	0.520172
O6	O	2.001069	0.974635	0.853505
O7	O	1.484416	0.333391	0.001777
O8	O	1.817749	0.666724	0.335110
O9	O	2.151083	1.000057	0.668444
O10	O	1.544029	0.343502	0.355580
O11	O	1.877362	0.676835	0.688913
O12	O	2.210696	1.010168	1.022246
O13	O	1.484395	0.169804	0.001787
O14	O	1.817728	0.503137	0.335120
O15	O	2.151061	0.836471	0.668454
O16	O	1.334382	0.144381	0.186849
O17	O	1.667715	0.477715	0.520182
O18	O	2.001048	0.811048	0.853516
O19	O	1.694021	0.205338	0.170528
O20	O	2.027354	0.538671	0.503861
O21	O	2.360688	0.872004	0.837195
Zn22	Zn	1.514198	0.148887	0.178690
Zn23	Zn	1.847531	0.482220	0.512023
Zn24	Zn	2.180864	0.815553	0.845357
Zn25	Zn	1.514226	0.364419	0.178677
Zn26	Zn	1.847559	0.697752	0.512010
Zn27	Zn	2.180893	1.031086	0.845343
O28	O	1.544008	0.179915	0.355590
O29	O	1.877341	0.513248	0.688923
O30	O	2.210674	0.846582	1.022256
C31	C	1.287635	0.218250	0.185656
C32	C	1.620968	0.551583	0.518989
C33	C	1.954302	0.884916	0.852323
C34	C	1.148310	0.194635	0.182102
C35	C	1.481643	0.527968	0.515435
C36	C	1.814976	0.861302	0.848768
N37	N	1.514188	0.001793	0.178699
N38	N	1.847521	0.335126	0.512032
N39	N	2.180854	0.668460	0.845365
C40	C	0.942214	0.244462	0.176851
C41	C	1.275547	0.577795	0.510184
C42	C	1.608881	0.911129	0.843518
C43	C	1.086213	0.268863	0.180516
C44	C	1.419546	0.602196	0.513849
C45	C	1.752880	0.935529	0.847182
C46	C	1.514195	-0.087204	0.178701
C47	C	1.847528	0.246130	0.512035
C48	C	2.180861	0.579463	0.845368
C49	C	1.514205	-0.198853	0.178693
C50	C	1.847538	0.134480	0.512026
C51	C	2.180871	0.467813	0.845360
C52	C	1.514218	-0.287842	0.178679
C53	C	1.847551	0.045492	0.512013
C54	C	2.180885	0.378825	0.845346
C55	C	1.514231	-0.399498	0.178672
C56	C	1.847564	-0.066165	0.512006
C57	C	2.180897	0.267169	0.845339
C58	C	1.740789	0.295058	0.171711
C59	C	2.074122	0.628391	0.505044
C60	C	2.407455	0.961725	0.838377
C61	C	1.880114	0.318679	0.175265
C62	C	2.213447	0.652012	0.508598
C63	C	2.546781	0.985346	0.841932
C64	C	1.473408	0.249734	-0.043520
C65	C	1.806741	0.583068	0.289813
C66	C	2.140074	0.916401	0.623146
C67	C	1.440624	0.244181	-0.178507
C68	C	1.773957	0.577515	0.154826
C69	C	2.107290	0.910848	0.488159
N70	N	1.514244	0.511514	0.178659
N71	N	1.847577	0.844847	0.511992
N72	N	2.180910	1.178180	0.845325
C73	C	1.531146	0.259526	-0.251559
C74	C	1.864479	0.592859	0.081774
C75	C	2.197813	0.926192	0.415107
C76	C	1.497264	0.253786	-0.391076
C77	C	1.830598	0.587120	-0.057742
C78	C	2.163931	0.920453	0.275591
C79	C	1.555016	0.263573	0.400887
C80	C	1.888349	0.596907	0.734220
C81	C	2.221683	0.930240	1.067554
C82	C	1.587800	0.269133	0.535874
C83	C	1.921133	0.602466	0.869207
C84	C	2.254467	0.935800	1.202541
H85	H	0.888774	0.162858	0.175502
H86	H	1.222107	0.496191	0.508836
H87	H	1.555441	0.829524	0.842169
F88	F	1.306537	0.221464	-0.231758
F89	F	1.639870	0.554797	0.101575
F90	F	1.973203	0.888130	0.434909
F91	F	1.721894	0.291866	-0.410884
F92	F	2.055228	0.625199	-0.077550
F93	F	2.388561	0.958532	0.255783
F94	F	1.078474	0.087964	0.180338
F95	F	1.411807	0.421297	0.513672
F96	F	1.745140	0.754630	0.847005
F97	F	1.156053	0.375534	0.182296
F98	F	1.489386	0.708867	0.515629
F99	F	1.822720	1.042201	0.848962
H100	H	1.633729	0.276907	-0.210814
H101	H	1.967063	0.610240	0.122520
H102	H	2.300396	0.943573	0.455853
F103	F	0.949959	0.425345	0.177045
F104	F	1.283292	0.758678	0.510378
F105	F	1.616625	1.092011	0.843712
F106	F	1.363171	0.231068	-0.444321
F107	F	1.696504	0.564401	-0.110987
F108	F	2.029838	0.897734	0.222346
