data_functionalizedCrystal
_audit_creation_method	'MofGen! by Chris Wilmer'
_symmetry_space_group_name_H-M	'P1'
_symmetry_Int_Tables_number	1
_symmetry_cell_setting	triclinic
loop_
_symmetry_equiv_pos_as_xyz
  x,y,z
_cell_length_a	16.625548
_cell_length_b	29.839131
_cell_length_c	16.625539
_cell_angle_alpha	90.032094
_cell_angle_beta	90.020568
_cell_angle_gamma	90.042488
loop_
_atom_site_label
_atom_site_type_symbol
_atom_site_fract_x
_atom_site_fract_y
_atom_site_fract_z
Zn1	Zn	1.232574	-0.178840	0.455888
Zn2	Zn	1.232433	-0.253971	0.321046
Zn3	Zn	1.097736	-0.178857	0.321069
Zn4	Zn	1.097662	-0.253945	0.455836
O5	O	1.165101	-0.216403	0.388460
O6	O	1.345388	-0.188810	0.438013
O7	O	1.214537	-0.244025	0.208217
O8	O	1.115713	-0.115987	0.338984
O9	O	1.345284	-0.244008	0.338946
O10	O	1.214778	-0.115975	0.438035
O11	O	1.115576	-0.188839	0.208233
O12	O	0.984894	-0.188814	0.338933
O13	O	1.115586	-0.243964	0.568676
O14	O	0.984839	-0.243981	0.437947
O15	O	1.214706	-0.188785	0.568714
O16	O	1.214465	-0.316834	0.338896
O17	O	1.115449	-0.316815	0.437925
C18	C	0.955610	-0.216397	0.388437
C19	C	0.865989	-0.216405	0.388447
C20	C	0.537814	-0.216408	0.388481
C21	C	0.629122	-0.216406	0.388469
C22	C	0.701899	-0.216406	0.388463
C23	C	0.793213	-0.216404	0.388452
C24	C	1.164956	-0.333126	0.388420
C25	C	1.164967	-0.383060	0.388430
C26	C	1.216752	-0.692701	0.336971
C27	C	1.216852	-0.880374	0.337002
O28	O	1.260766	-0.904636	0.293219
N29	N	1.165268	-0.903845	0.388521
C30	C	1.113660	-0.880395	0.440039
O31	O	1.069793	-0.904665	0.483866
C32	C	1.113565	-0.692723	0.440011
C33	C	1.165146	-0.669254	0.388483
C34	C	1.268330	-0.669232	0.285447
C35	C	1.268302	-0.622316	0.285437
C36	C	1.216695	-0.598870	0.336950
C37	C	1.165118	-0.622339	0.388473
C38	C	1.061962	-0.669274	0.491533
C39	C	1.061944	-0.622353	0.491523
C40	C	1.113525	-0.598884	0.439995
C41	C	1.113483	-0.551977	0.439975
N42	N	1.165067	-0.528505	0.388456
C43	C	1.216673	-0.551952	0.336944
C44	C	1.113712	-0.978926	0.440049
C45	C	1.113735	-1.025844	0.440055
C46	C	1.216928	-1.025819	0.337019
C47	C	1.216901	-0.978900	0.337009
C48	C	1.165296	-0.955455	0.388530
C49	C	1.216609	-0.453426	0.336925
C50	C	1.216573	-0.406506	0.336917
C51	C	1.113383	-0.406535	0.439956
C52	C	1.113416	-0.453451	0.439962
C53	C	1.165035	-0.476895	0.388443
O54	O	1.069599	-0.527685	0.483742
O55	O	1.260546	-0.527674	0.293136
C56	C	1.216781	-0.739616	0.336981
C57	C	1.165203	-0.763085	0.388504
C58	C	1.113597	-0.739639	0.440017
C59	C	1.165226	-0.810003	0.388510
C60	C	1.216832	-0.833449	0.336997
C61	C	1.268416	-0.809978	0.285479
C62	C	1.268387	-0.763062	0.285468
C63	C	1.062014	-0.763110	0.491536
C64	C	1.062046	-0.810026	0.491541
C65	C	1.113652	-0.833472	0.440028
C66	C	1.375410	-0.216410	0.388483
C67	C	1.465031	-0.216413	0.388493
C68	C	1.165154	-0.216370	0.598769
C69	C	1.165176	-0.216355	0.688390
C70	C	1.165269	-0.099225	0.388518
C71	C	1.165341	-0.049290	0.388542
C72	C	1.165095	-0.216404	0.178969
C73	C	1.165229	-0.216292	0.089348
C74	C	1.165213	-0.216305	1.016566
C75	C	1.165201	-0.216320	0.925257
C76	C	1.165195	-0.216330	0.852481
C77	C	1.165182	-0.216345	0.761167
H78	H	1.258644	-0.472509	0.294976
H79	H	1.071417	-0.472560	0.481922
H80	H	1.310306	-0.603210	0.243481
C81	C	1.057695	-1.051240	0.496082
C82	C	1.012516	-1.020659	0.541206
C83	C	0.960893	-1.044036	0.592839
H84	H	1.022515	-1.069576	0.465303
H85	H	1.088509	-1.069502	0.531291
H86	H	0.981704	-1.002404	0.506002
H87	H	1.047675	-1.002322	0.572001
H88	H	0.991708	-1.062298	0.628048
H89	H	0.925718	-1.062371	0.562053
H90	H	0.930238	-1.023290	0.623467
H91	H	1.071364	-0.387438	0.481895
C92	C	1.324483	-0.737667	0.229496
C93	C	1.369693	-0.768250	0.184407
C94	C	1.421388	-0.744876	0.132843
H95	H	1.293745	-0.719393	0.194257
H96	H	1.359635	-0.719343	0.260349
H97	H	1.334545	-0.786566	0.153556
H98	H	1.400447	-0.786525	0.219625
H99	H	1.456540	-0.726552	0.163696
H100	H	1.390644	-0.726603	0.097609
H101	H	1.452074	-0.765623	0.102250
H102	H	1.258903	-0.959794	0.295051
C103	C	1.272986	-1.051361	0.281236
C104	C	1.261999	-1.097472	0.292316
C105	C	1.313659	-1.121017	0.240983
H106	H	1.261327	-1.043772	0.226993
H107	H	1.327149	-1.043648	0.293153
H108	H	1.207849	-1.105182	0.280393
H109	H	1.273664	-1.105074	0.346548
H110	H	1.367822	-1.113304	0.252901
H111	H	1.301996	-1.113424	0.186744
H112	H	1.306216	-1.152306	0.248500
H113	H	1.019922	-0.603266	0.533480
H114	H	1.310433	-0.829076	0.243533
C115	C	1.006008	-0.835422	0.547579
C116	C	0.960828	-0.804841	0.592701
C117	C	0.909213	-0.828217	0.644343
H118	H	0.970828	-0.853761	0.516805
H119	H	1.036828	-0.853681	0.582788
H120	H	0.930010	-0.786589	0.557497
H121	H	0.995986	-0.786501	0.623491
H122	H	0.940033	-0.846476	0.679552
H123	H	0.874039	-0.846555	0.613563
H124	H	0.878558	-0.807472	0.674970
C125	C	1.005930	-0.737600	0.547333
C126	C	0.954272	-0.710706	0.501625
C127	C	0.902597	-0.687197	0.552997
H128	H	0.975140	-0.758250	0.578032
H129	H	1.036715	-0.719239	0.582481
H130	H	0.923491	-0.729066	0.466490
H131	H	0.985041	-0.690048	0.470927
H132	H	0.933382	-0.668836	0.588146
H133	H	0.871812	-0.707850	0.583694
H134	H	0.867546	-0.668944	0.521992
C135	C	1.272669	-0.381107	0.280940
C136	C	1.317884	-0.411687	0.235849
C137	C	1.369573	-0.388308	0.184286
H138	H	1.241926	-0.362835	0.245703
H139	H	1.307817	-0.362782	0.311794
H140	H	1.282740	-0.430005	0.204997
H141	H	1.348643	-0.429960	0.271065
H142	H	1.404722	-0.369982	0.215139
H143	H	1.338824	-0.370036	0.149053
H144	H	1.400263	-0.409052	0.153690
C145	C	1.057808	-0.953452	0.496086
C146	C	1.103408	-0.926481	0.547829
C147	C	1.051934	-0.903015	0.599465
H148	H	1.022665	-0.935144	0.465303
H149	H	1.027107	-0.974140	0.526810
H150	H	1.134095	-0.905794	0.517108
H151	H	1.138548	-0.944777	0.578629
H152	H	1.021233	-0.923703	0.630188
H153	H	1.016794	-0.884709	0.568675
H154	H	1.082866	-0.884715	0.634583
H155	H	1.310358	-0.688317	0.243499
H156	H	1.019955	-0.688375	0.533489
