data_functionalizedCrystal
_audit_creation_method	'MofGen! by Chris Wilmer'
_symmetry_space_group_name_H-M	'P1'
_symmetry_Int_Tables_number	1
_symmetry_cell_setting	triclinic
loop_
_symmetry_equiv_pos_as_xyz
  x,y,z
_cell_length_a	18.215407
_cell_length_b	19.805405
_cell_length_c	18.215399
_cell_angle_alpha	89.969390
_cell_angle_beta	89.980167
_cell_angle_gamma	90.026858
loop_
_atom_site_label
_atom_site_type_symbol
_atom_site_fract_x
_atom_site_fract_y
_atom_site_fract_z
Zn1	Zn	1.125064	-0.269462	-0.416102
Zn2	Zn	1.124969	-0.382653	-0.293030
Zn3	Zn	1.001997	-0.269484	-0.293050
Zn4	Zn	1.001959	-0.382615	-0.416055
O5	O	1.063497	-0.326054	-0.354559
O6	O	1.228036	-0.284484	-0.399788
O7	O	1.108633	-0.367666	-0.190049
O8	O	1.018377	-0.174765	-0.309401
O9	O	1.227966	-0.367644	-0.309368
O10	O	1.108794	-0.174748	-0.399807
O11	O	1.018285	-0.284521	-0.190063
O12	O	0.899008	-0.284485	-0.309355
O13	O	1.018313	-0.367580	-0.519046
O14	O	0.898980	-0.367602	-0.399727
O15	O	1.108758	-0.284447	-0.519080
O16	O	1.108596	-0.477365	-0.309322
O17	O	1.018221	-0.477337	-0.399708
C18	C	0.872291	-0.326042	-0.354538
C19	C	0.790492	-0.326053	-0.354547
C20	C	1.063415	-0.501910	-0.354524
C21	C	1.063446	-0.577142	-0.354533
C22	C	0.602303	-0.369400	-0.401544
C23	C	0.525444	-0.369403	-0.401553
C24	C	0.525444	-0.282719	-0.307591
C25	C	0.602301	-0.282714	-0.307586
C26	C	0.640729	-0.326059	-0.354561
C27	C	0.487013	-0.326066	-0.354575
C28	C	0.403679	-0.326068	-0.354585
C29	C	0.724068	-0.326056	-0.354553
C30	C	1.110550	-0.612478	-0.307518
C31	C	1.110582	-0.683166	-0.307535
C32	C	1.063505	-0.718517	-0.354562
C33	C	1.016399	-0.683176	-0.401582
C34	C	1.016372	-0.612489	-0.401569
C35	C	1.016507	-0.968249	-0.401637
C36	C	1.016536	-1.038941	-0.401645
C37	C	1.110717	-1.038927	-0.307602
C38	C	1.110690	-0.968239	-0.307589
C39	C	1.063587	-0.932905	-0.354611
C40	C	1.063555	-0.856256	-0.354594
C41	C	1.063533	-0.795164	-0.354577
C42	C	1.255450	-0.326066	-0.354581
C43	C	1.337249	-0.326071	-0.354590
C44	C	1.063542	-0.326007	-0.546512
C45	C	1.063561	-0.325987	-0.628311
C46	C	1.063601	-0.149511	-0.354611
C47	C	1.063645	-0.074279	-0.354633
C48	C	1.110673	-0.282659	-0.816524
C49	C	1.110682	-0.282639	-0.893383
C50	C	1.016502	-0.369210	-0.893336
C51	C	1.016490	-0.369226	-0.816479
C52	C	1.063580	-0.325952	-0.778075
C53	C	1.063600	-0.325916	-0.931791
C54	C	1.063609	-0.325895	-1.015125
C55	C	1.063570	-0.325972	-0.694736
C56	C	1.063495	-0.326051	-0.163353
C57	C	1.063619	-0.325880	-0.081555
H58	H	0.633589	-0.404693	-0.439797
H59	H	0.494146	-0.247431	-0.269344
H60	H	1.149073	-1.067705	-0.269317
H61	H	0.978071	-0.711965	-0.439876
H62	H	1.149028	-0.247385	-0.924686
C63	C	0.980593	-0.483816	-0.916950
C64	C	0.964748	-0.416782	-0.935551
H65	H	0.948639	-0.513184	-0.943009
H66	H	1.030030	-0.493715	-0.929555
H67	H	0.973843	-0.490011	-0.865673
H68	H	0.971503	-0.410585	-0.986828
H69	H	0.915299	-0.406879	-0.922952
H70	H	1.148938	-0.711934	-0.269250
H71	H	0.978136	-0.404480	-0.785172
C72	C	0.533171	-0.455090	-0.494422
C73	C	0.483207	-0.417049	-0.453195
H74	H	0.507094	-0.484508	-0.526301
H75	H	0.563172	-0.425632	-0.522626
H76	H	0.563123	-0.480939	-0.462295
H77	H	0.453258	-0.391196	-0.485322
H78	H	0.453194	-0.446510	-0.424988
H79	H	0.978016	-0.583719	-0.439854
C80	C	0.594586	-0.197034	-0.214698
C81	C	0.644544	-0.235071	-0.255936
H82	H	0.620667	-0.167625	-0.182812
H83	H	0.564635	-0.171182	-0.246812
H84	H	0.564583	-0.226500	-0.186493
H85	H	0.674544	-0.205605	-0.284145
H86	H	0.674508	-0.260925	-0.223817
C87	C	1.146571	-0.168052	-0.792908
C88	C	1.162425	-0.235085	-0.774310
H89	H	1.178518	-0.138681	-0.766844
H90	H	1.153319	-0.161853	-0.844178
H91	H	1.097126	-0.158159	-0.780301
H92	H	1.211869	-0.244980	-0.786922
H93	H	1.155683	-0.241287	-0.723028
H94	H	1.148883	-0.583700	-0.269220
H95	H	0.978153	-0.939485	-0.439923
C96	C	1.203797	-0.975327	-0.214637
C97	C	1.162441	-0.929382	-0.255898
H98	H	1.235750	-0.951337	-0.182729
H99	H	1.171761	-1.002937	-0.186460
H100	H	1.231935	-1.002858	-0.246740
H101	H	1.134298	-0.901854	-0.223794
H102	H	1.194481	-0.901761	-0.284077
C103	C	0.923446	-1.031860	-0.494623
C104	C	0.964792	-1.077801	-0.453348
H105	H	0.891507	-1.055852	-0.526543
H106	H	0.895299	-1.004332	-0.462534
H107	H	0.955494	-1.004246	-0.522794
H108	H	0.932744	-1.105412	-0.425173
H109	H	0.992941	-1.105340	-0.485441
