data_functionalizedCrystal
_audit_creation_method	'MofGen! by Chris Wilmer'
_symmetry_space_group_name_H-M	'P1'
_symmetry_Int_Tables_number	1
_symmetry_cell_setting	triclinic
loop_
_symmetry_equiv_pos_as_xyz
  x,y,z
_cell_length_a	23.532407
_cell_length_b	11.026607
_cell_length_c	10.065918
_cell_angle_alpha	82.346549
_cell_angle_beta	80.095314
_cell_angle_gamma	95.717347
loop_
_atom_site_label
_atom_site_type_symbol
_atom_site_fract_x
_atom_site_fract_y
_atom_site_fract_z
O1	O	-0.779805	-0.162829	0.113315
O2	O	-0.616184	-0.184122	0.113354
O3	O	-0.684433	0.003014	0.113333
O4	O	-0.711555	-0.349965	0.113337
O5	O	-0.666255	0.034471	-0.113652
O6	O	-0.598005	-0.152666	-0.113631
O7	O	-0.761627	-0.131373	-0.113670
Zn8	Zn	-0.676930	-0.137025	-0.149689
Zn9	Zn	-0.700881	-0.178470	0.149374
O10	O	-0.693377	-0.318509	-0.113648
C11	C	-0.670341	0.063893	-0.000156
C12	C	-0.655426	0.198426	-0.000148
C13	C	-0.585822	-0.167853	-0.000133
C14	C	-0.522435	-0.166225	-0.000118
C15	C	-0.791989	-0.147642	-0.000179
C16	C	-0.855377	-0.149271	-0.000185
C17	C	-0.133899	-0.266736	-0.000179
C18	C	-0.074339	-0.265220	-0.000187
O19	O	-0.047391	-0.358396	-0.000236
N20	N	-0.040012	-0.153970	-0.000186
C21	C	-0.065246	-0.044225	-0.000190
O22	O	-0.030579	0.050542	-0.000191
C23	C	-0.124805	-0.045740	-0.000192
C24	C	-0.159130	-0.157000	-0.000179
C25	C	-0.168224	-0.377986	-0.000167
C26	C	-0.227780	-0.379501	-0.000157
C27	C	-0.253011	-0.269766	-0.000157
C28	C	-0.218686	-0.158515	-0.000168
C29	C	-0.150038	0.064004	-0.000206
C30	C	-0.209600	0.062480	-0.000208
C31	C	-0.243926	-0.048780	-0.000195
C32	C	-0.303474	-0.050295	-0.000157
N33	N	-0.337801	-0.161545	-0.000158
C34	C	-0.312570	-0.271281	-0.000158
C35	C	0.059830	-0.041051	-0.000190
C36	C	0.119386	-0.039536	-0.000178
C37	C	0.110290	-0.260532	-0.000178
C38	C	0.050732	-0.262047	-0.000179
C39	C	0.025503	-0.152302	-0.000191
C40	C	-0.437642	-0.274454	-0.000134
C41	C	-0.497203	-0.275961	-0.000118
C42	C	-0.488101	-0.054965	-0.000125
C43	C	-0.428546	-0.053459	-0.000135
C44	C	-0.403317	-0.163213	-0.000144
O45	O	-0.330461	0.042833	-0.000114
O46	O	-0.347242	-0.366030	-0.000175
C47	C	-0.707470	-0.379388	-0.000156
C48	C	-0.722386	-0.513922	-0.000155
N49	N	-0.660588	-0.108739	-0.353791
C50	C	-0.696610	0.272729	-0.000156
C51	C	-0.681195	0.411776	-0.000147
C52	C	-0.695191	-0.168629	-0.421577
C53	C	-0.682618	-0.146848	-0.578742
N54	N	-0.717226	-0.206746	0.353476
H55	H	-0.417108	-0.363826	-0.000146
N56	N	-0.755161	0.223430	-0.000193
N57	N	-0.793888	0.293217	-0.000210
H58	H	-0.835242	0.258405	-0.000239
N59	N	-0.622646	0.461110	-0.000116
N60	N	-0.610208	0.573992	-0.000103
H61	H	-0.568859	0.608838	-0.000079
N62	N	-0.766062	-0.291328	-0.573380
N63	N	-0.769708	-0.402173	-0.589229
H64	H	-0.804197	-0.461912	-0.537569
N65	N	0.136080	-0.372615	-0.000192
N66	N	0.189259	-0.371231	-0.000207
H67	H	0.207476	-0.450383	-0.000221
H68	H	-0.769068	0.446744	-0.000064
N69	N	-0.611751	-0.024181	-0.426959
N70	N	-0.601607	-0.006604	-0.554526
H71	H	-0.567115	0.053118	-0.606201
H72	H	-0.643683	-0.079441	-0.637056
H73	H	-0.147687	-0.467351	-0.000172
N74	N	-0.596877	0.247772	-0.000146
N75	N	-0.570205	0.328257	-0.095820
H76	H	-0.528854	0.363108	-0.095820
N77	N	-0.262830	-0.493163	-0.000142
N78	N	-0.240284	-0.591123	-0.000143
H79	H	-0.265034	-0.671403	-0.000134
N80	N	0.015680	-0.375706	-0.000165
N81	N	0.038222	-0.473671	-0.000158
H82	H	0.013470	-0.553948	-0.000150
N83	N	0.154436	0.074125	-0.000191
N84	N	0.158476	0.161196	-0.095872
H85	H	0.183228	0.241477	-0.095889
H86	H	-0.525149	-0.366566	-0.000106
H87	H	0.039292	0.048320	-0.000187
N88	N	-0.744035	-0.253168	-0.348409
N89	N	-0.754181	-0.270737	-0.220842
H90	H	-0.788679	-0.330444	-0.169167
N91	N	-0.114994	0.177673	-0.000244
N92	N	-0.110958	0.264730	-0.095939
H93	H	-0.086209	0.345018	-0.095971
N94	N	-0.235379	0.174575	-0.000229
N95	N	-0.259943	0.211638	-0.095907
H96	H	-0.278150	0.290804	-0.095921
N97	N	-0.393487	0.060197	-0.000152
N98	N	-0.389444	0.147268	-0.095834
H99	H	-0.364686	0.227542	-0.095859
N100	N	-0.513891	0.057109	-0.000113
N101	N	-0.567069	0.055727	-0.000108
H102	H	-0.585285	0.134881	-0.000106
