data_functionalizedCrystal
_audit_creation_method	'MofGen! by Chris Wilmer'
_symmetry_space_group_name_H-M	'P1'
_symmetry_Int_Tables_number	1
_symmetry_cell_setting	triclinic
loop_
_symmetry_equiv_pos_as_xyz
  x,y,z
_cell_length_a	19.805407
_cell_length_b	12.594516
_cell_length_c	19.805399
_cell_angle_alpha	89.977527
_cell_angle_beta	89.975799
_cell_angle_gamma	90.011063
loop_
_atom_site_label
_atom_site_type_symbol
_atom_site_fract_x
_atom_site_fract_y
_atom_site_fract_z
Zn1	Zn	1.034804	-0.423788	-0.382827
Zn2	Zn	1.534804	0.076212	0.117173
Zn3	Zn	1.034748	-0.601782	-0.269649
Zn4	Zn	1.534748	-0.101782	0.230351
Zn5	Zn	0.921619	-0.423815	-0.269643
Zn6	Zn	1.421619	0.076185	0.230357
Zn7	Zn	0.921611	-0.601723	-0.382787
Zn8	Zn	1.421611	-0.101723	0.117213
O9	O	0.978196	-0.512777	-0.326226
O10	O	1.478196	-0.012777	0.173774
O11	O	1.129513	-0.447413	-0.367834
O12	O	1.629513	0.052587	0.132166
O13	O	1.019721	-0.578210	-0.174932
O14	O	1.519721	-0.078210	0.325068
O15	O	0.936660	-0.274866	-0.284671
O16	O	1.436660	0.225134	0.215329
O17	O	1.129472	-0.578184	-0.284682
O18	O	1.629472	-0.078184	0.215318
O19	O	1.019817	-0.274846	-0.367827
O20	O	1.519817	0.225154	0.132173
O21	O	0.936605	-0.447459	-0.174927
O22	O	1.436605	0.052541	0.325073
O23	O	0.826901	-0.447402	-0.284632
O24	O	1.326901	0.052598	0.215368
O25	O	0.936647	-0.578083	-0.477509
O26	O	1.436647	-0.078083	0.022491
O27	O	0.826896	-0.578109	-0.367758
O28	O	1.326896	-0.078109	0.132242
O29	O	1.019809	-0.447356	-0.477538
O30	O	1.519809	0.052644	0.022462
O31	O	1.019713	-0.750719	-0.284643
O32	O	1.519713	-0.250719	0.215357
O33	O	0.936592	-0.750676	-0.367764
O34	O	1.436592	-0.250676	0.132236
C35	C	0.802340	-0.512753	-0.326190
C36	C	1.302340	-0.012753	0.173810
C37	C	0.727108	-0.512768	-0.326191
C38	C	1.227108	-0.012768	0.173809
C39	C	0.265331	-0.580964	-0.369486
C40	C	0.765331	-0.080964	0.130514
C41	C	0.336020	-0.580963	-0.369471
C42	C	0.836020	-0.080963	0.130529
C43	C	0.371346	-0.512803	-0.326253
C44	C	0.871346	-0.012803	0.173747
C45	C	0.335980	-0.444647	-0.283041
C46	C	0.835980	0.055353	0.216959
C47	C	0.265293	-0.444655	-0.283052
C48	C	0.765293	0.055345	0.216948
C49	C	0.621053	-0.444615	-0.282993
C50	C	1.121053	0.055385	0.217007
C51	C	0.691745	-0.444610	-0.282987
C52	C	1.191745	0.055390	0.217013
C53	C	0.691780	-0.580922	-0.369412
C54	C	1.191780	-0.080922	0.130588
C55	C	0.621093	-0.580930	-0.369424
C56	C	1.121093	-0.080930	0.130576
C57	C	0.585733	-0.512779	-0.326210
C58	C	1.085733	-0.012779	0.173790
C59	C	0.509085	-0.512784	-0.326225
C60	C	1.009085	-0.012784	0.173775
C61	C	0.447993	-0.512792	-0.326241
C62	C	0.947993	-0.012792	0.173759
C63	C	0.978164	-0.789318	-0.326215
C64	C	1.478164	-0.289318	0.173785
C65	C	0.978213	-0.907623	-0.326232
C66	C	1.478213	-0.407623	0.173768
C67	C	1.023475	-0.976861	-0.281071
C68	C	1.523475	-0.476861	0.218929
C69	C	1.040013	-1.047567	-0.342851
C70	C	1.540013	-0.547567	0.157149
C71	C	0.961760	-1.047716	-0.264492
C72	C	1.461760	-0.547716	0.235508
C73	C	0.994782	-0.976771	-0.388045
C74	C	1.494782	-0.476771	0.111955
C75	C	0.916500	-0.976914	-0.309644
C76	C	1.416500	-0.476914	0.190356
C77	C	0.933015	-1.047588	-0.371467
C78	C	1.433015	-0.547588	0.128533
C79	C	1.154738	-0.512802	-0.326263
C80	C	1.654738	-0.012802	0.173737
C81	C	1.229970	-0.512812	-0.326279
C82	C	1.729970	-0.012812	0.173721
C83	C	0.978234	-0.512710	-0.502769
C84	C	1.478234	-0.012710	-0.002769
C85	C	0.978250	-0.512681	-0.578001
C86	C	1.478250	-0.012681	-0.078001
C87	C	0.978246	-0.235156	-0.326253
C88	C	1.478246	0.264844	0.173747
C89	C	0.978267	-0.116851	-0.326264
C90	C	1.478267	0.383149	0.173736
C91	C	1.021553	-0.444608	-0.613362
C92	C	1.521553	0.055392	-0.113362
C93	C	1.021560	-0.444577	-0.684051
C94	C	1.521560	0.055423	-0.184051
C95	C	0.978267	-0.512626	-0.719377
C96	C	1.478267	-0.012626	-0.219377
C97	C	0.934958	-0.580702	-0.684011
C98	C	1.434958	-0.080702	-0.184011
C99	C	0.934948	-0.580727	-0.613324
C100	C	1.434948	-0.080727	-0.113324
C101	C	0.934996	-0.580603	-0.969085
C102	C	1.434996	-0.080603	-0.469085
C103	C	0.935011	-0.580575	-1.039777
C104	C	1.435011	-0.080575	-0.539777
C105	C	1.021608	-0.444453	-1.039811
C106	C	1.521608	0.055547	-0.539811
C107	C	1.021599	-0.444478	-0.969124
C108	C	1.521599	0.055522	-0.469124
C109	C	0.978288	-0.512550	-0.933764
C110	C	1.478288	-0.012550	-0.433764
C111	C	0.978280	-0.512581	-0.857116
C112	C	1.478280	-0.012581	-0.357116
C113	C	0.978277	-0.512601	-0.796024
C114	C	1.478277	-0.012601	-0.296024
C115	C	0.978197	-0.512767	-0.150370
C116	C	1.478197	-0.012767	0.349630
C117	C	0.978312	-0.512496	-0.075139
C118	C	1.478312	-0.012496	0.424861
H119	H	0.592272	-0.389126	-0.247803
H120	H	1.092272	0.110874	0.252197
C121	C	0.730086	-0.655098	-0.416289
C122	C	1.230086	-0.155098	0.083711
C123	C	0.712857	-0.760379	-0.401455
C124	C	1.212857	-0.260379	0.098545
C125	C	0.748122	-0.828732	-0.444630
C126	C	1.248122	-0.328732	0.055370
H127	H	0.777254	-0.645483	-0.410136
H128	H	1.277254	-0.145483	0.089864
H129	H	0.718514	-0.639673	-0.461795
H130	H	1.218514	-0.139673	0.038205
H131	H	0.724434	-0.775799	-0.355960
H132	H	1.224434	-0.275799	0.144040
H133	H	0.665695	-0.770027	-0.407612
H134	H	1.165695	-0.270027	0.092388
H135	H	0.736550	-0.813307	-0.490136
H136	H	1.236550	-0.313307	0.009864
H137	H	0.795289	-0.819107	-0.438474
H138	H	1.295289	-0.319107	0.061526
H139	H	0.736433	-0.900172	-0.434576
H140	H	1.236433	-0.400172	0.065424
H141	H	1.008669	-0.945741	-0.440316
H142	H	1.508669	-0.445741	0.059684
H143	H	0.364748	-0.389155	-0.247849
H144	H	0.864748	0.110845	0.252151
C145	C	0.882096	-1.088686	-0.422572
C146	C	1.382096	-0.588686	0.077428
C147	C	0.899664	-1.052562	-0.487098
C148	C	1.399664	-0.552562	0.012902
C149	C	0.852782	-1.090414	-0.534195
C150	C	1.352782	-0.590414	-0.034195
H151	H	0.838344	-1.063446	-0.411241
H152	H	1.338344	-0.563446	0.088759
H153	H	0.882140	-1.164117	-0.422088
H154	H	1.382140	-0.664117	0.077912
H155	H	0.899614	-0.977147	-0.487580
H156	H	1.399614	-0.477147	0.012420
H157	H	0.943409	-1.077799	-0.498450
H158	H	1.443409	-0.577799	0.001550
H159	H	0.852826	-1.165845	-0.533711
H160	H	1.352826	-0.665845	-0.033711
H161	H	0.809033	-1.065172	-0.522857
H162	H	1.309033	-0.565172	-0.022857
H163	H	0.864699	-1.065918	-0.577981
H164	H	1.364699	-0.565918	-0.077981
C165	C	0.846926	-0.935544	-0.290751
C166	C	1.346926	-0.435544	0.209249
C167	C	0.829930	-0.971408	-0.226014
C168	C	1.329930	-0.471408	0.273986
C169	C	0.765848	-0.933306	-0.208575
C170	C	1.265848	-0.433306	0.291425
H171	H	0.814611	-0.960789	-0.322330
H172	H	1.314611	-0.460789	0.177670
H173	H	0.847304	-0.860116	-0.291245
H174	H	1.347304	-0.360116	0.208755
H175	H	0.829547	-1.046821	-0.225524
H176	H	1.329547	-0.546821	0.274476
H177	H	0.862228	-0.946166	-0.194420
H178	H	1.362228	-0.446166	0.305580
H179	H	0.766226	-0.857878	-0.209070
H180	H	1.266226	-0.357878	0.290930
H181	H	0.733538	-0.958554	-0.240158
H182	H	1.233538	-0.458554	0.259842
H183	H	0.754311	-0.957626	-0.164647
H184	H	1.254311	-0.457626	0.335353
H185	H	0.899740	-0.636047	-0.940303
H186	H	1.399740	-0.136047	-0.440303
H187	H	0.947821	-1.078878	-0.212265
H188	H	1.447821	-0.578878	0.287735
C189	C	0.226859	-0.654853	-0.416385
C190	C	0.726859	-0.154853	0.083615
C191	C	0.157385	-0.640256	-0.407162
C192	C	0.657385	-0.140256	0.092838
C193	C	0.121925	-0.708298	-0.450360
C194	C	0.621925	-0.208298	0.049640
H195	H	0.238351	-0.726389	-0.406442
H196	H	0.738351	-0.226389	0.093558
H197	H	0.238433	-0.639358	-0.461891
H198	H	0.738433	-0.139358	0.038109
H199	H	0.145815	-0.655759	-0.361666
H200	H	0.645815	-0.155759	0.138334
H201	H	0.145873	-0.568734	-0.417110
H202	H	0.645873	-0.068734	0.082890
H203	H	0.133499	-0.692803	-0.495867
H204	H	0.633499	-0.192803	0.004133
H205	H	0.133422	-0.779830	-0.440413
H206	H	0.633422	-0.279830	0.059587
H207	H	0.074783	-0.698397	-0.444113
H208	H	0.574783	-0.198397	0.055887
C209	C	1.068585	-0.370608	-0.575133
C210	C	1.568585	0.129392	-0.075133
C211	C	1.106496	-0.310965	-0.621234
C212	C	1.606496	0.189035	-0.121234
C213	C	1.149822	-0.242771	-0.586044
C214	C	1.649822	0.257229	-0.086044
H215	H	1.098126	-0.411216	-0.547559
H216	H	1.598126	0.088784	-0.047559
H217	H	1.042713	-0.324180	-0.547570
H218	H	1.542713	0.175820	-0.047570
H219	H	1.132367	-0.357386	-0.648785
H220	H	1.632367	0.142614	-0.148785
H221	H	1.076973	-0.270335	-0.648809
H222	H	1.576973	0.229665	-0.148809
H223	H	1.123949	-0.196343	-0.558482
H224	H	1.623949	0.303657	-0.058482
H225	H	1.179358	-0.283388	-0.558472
H226	H	1.679358	0.216612	-0.058472
H227	H	1.175545	-0.202288	-0.617318
H228	H	1.675545	0.297712	-0.117318
H229	H	1.056824	-0.389147	-0.712838
H230	H	1.556824	0.110853	-0.212838
H231	H	1.056855	-0.389069	-0.940365
H232	H	1.556855	0.110931	-0.440365
H233	H	1.056872	-0.389022	-1.068609
H234	H	1.556872	0.110978	-0.568609
H235	H	1.092225	-1.078605	-0.356899
H236	H	1.592225	-0.578605	0.143101
H237	H	0.899753	-0.635990	-1.068538
H238	H	1.399753	-0.135990	-0.568538
H239	H	1.061758	-0.945805	-0.242913
H240	H	1.561758	-0.445805	0.257087
C241	C	0.888025	-0.654542	-0.722485
C242	C	1.388025	-0.154542	-0.222485
C243	C	0.897314	-0.639974	-0.791959
C244	C	1.397314	-0.139974	-0.291959
C245	C	0.854097	-0.707990	-0.827421
C246	C	1.354097	-0.207990	-0.327421
H247	H	0.842521	-0.639029	-0.710972
H248	H	1.342521	-0.139029	-0.210972
H249	H	0.897922	-0.726086	-0.710934
H250	H	1.397922	-0.226086	-0.210934
H251	H	0.887413	-0.568447	-0.803506
H252	H	1.387413	-0.068447	-0.303506
H253	H	0.942809	-0.655496	-0.803493
H254	H	1.442809	-0.155496	-0.303493
H255	H	0.863994	-0.779534	-0.815869
H256	H	1.363994	-0.279534	-0.315869
H257	H	0.808597	-0.692471	-0.815902
H258	H	1.308597	-0.192471	-0.315902
H259	H	0.860399	-0.698122	-0.874562
H260	H	1.360399	-0.198122	-0.374562
C261	C	0.887917	-0.654768	-0.575052
C262	C	1.387917	-0.154768	-0.075052
C263	C	0.850020	-0.714385	-0.621117
C264	C	1.350020	-0.214385	-0.121117
C265	C	0.806695	-0.782617	-0.585886
C266	C	1.306695	-0.282617	-0.085886
H267	H	0.858366	-0.614188	-0.547466
H268	H	1.358366	-0.114188	-0.047466
H269	H	0.913789	-0.701210	-0.547497
H270	H	1.413789	-0.201210	-0.047497
H271	H	0.824150	-0.667948	-0.648659
H272	H	1.324150	-0.167948	-0.148659
H273	H	0.879553	-0.754987	-0.648704
H274	H	1.379553	-0.254987	-0.148704
H275	H	0.832567	-0.829059	-0.558332
H276	H	1.332567	-0.329059	-0.058332
H277	H	0.777149	-0.742028	-0.558301
H278	H	1.277149	-0.242028	-0.058301
H279	H	0.780982	-0.823082	-0.617135
H280	H	1.280982	-0.323082	-0.117135
H281	H	0.364808	-0.636461	-0.404653
H282	H	0.864808	-0.136461	0.095347
H283	H	0.592334	-0.636429	-0.404619
H284	H	1.092334	-0.136429	0.095381
H285	H	0.236503	-0.389156	-0.247871
H286	H	0.736503	0.110844	0.252129
C287	C	0.729979	-0.370571	-0.235981
C288	C	1.229979	0.129429	0.264019
C289	C	0.683884	-0.310911	-0.198123
C290	C	1.183884	0.189089	0.301877
C291	C	0.719080	-0.242711	-0.154812
C292	C	1.219080	0.257289	0.345188
H293	H	0.757575	-0.324147	-0.261841
H294	H	1.257575	0.175853	0.238159
H295	H	0.757520	-0.411210	-0.206411
H296	H	1.257520	0.088790	0.293589
H297	H	0.656355	-0.270276	-0.227690
H298	H	1.156355	0.229724	0.272310
H299	H	0.656286	-0.357307	-0.172250
H300	H	1.156286	0.142693	0.327750
H301	H	0.746620	-0.283350	-0.125241
H302	H	1.246620	0.216650	0.374759
H303	H	0.746675	-0.196294	-0.180676
H304	H	1.246675	0.303706	0.319324
H305	H	0.687810	-0.202231	-0.129115
H306	H	1.187810	0.297769	0.370885
