data_functionalizedCrystal
_audit_creation_method	'MofGen! by Chris Wilmer'
_symmetry_space_group_name_H-M	'P1'
_symmetry_Int_Tables_number	1
_symmetry_cell_setting	triclinic
loop_
_symmetry_equiv_pos_as_xyz
  x,y,z
_cell_length_a	19.288864
_cell_length_b	23.532357
_cell_length_c	18.366186
_cell_angle_alpha	89.988209
_cell_angle_beta	89.977106
_cell_angle_gamma	82.982267
loop_
_atom_site_label
_atom_site_type_symbol
_atom_site_fract_x
_atom_site_fract_y
_atom_site_fract_z
O1	O	0.921118	0.071047	-0.060792
O2	O	0.718826	0.080631	-0.060743
O3	O	0.826090	-0.007082	-0.060754
O4	O	0.813854	0.158760	-0.060781
O5	O	0.826072	-0.007086	0.060345
O6	O	0.718808	0.080627	0.060356
O7	O	0.921100	0.071043	0.060308
Zn8	Zn	0.819951	0.075834	0.079559
Zn9	Zn	0.819975	0.075840	-0.079995
O10	O	0.813836	0.158756	0.060318
C11	C	0.692941	0.080320	-0.000187
C12	C	0.615841	0.079395	-0.000168
C13	C	0.570975	0.130861	-0.000188
C14	C	0.498530	0.129991	-0.000196
C15	C	0.470956	0.077652	-0.000198
C16	C	0.515832	0.026180	-0.000174
C17	C	0.588274	0.027051	-0.000159
C18	C	0.362836	0.036510	-0.042643
C19	C	0.290394	0.035641	-0.042662
C20	C	0.247519	0.074963	-0.000242
C21	C	0.277093	0.115164	0.042189
C22	C	0.349535	0.116036	0.042204
C23	C	0.392405	0.076702	-0.000214
C24	C	0.124100	0.125490	-0.000269
C25	C	0.051655	0.124618	-0.000273
C26	C	0.068958	0.020805	-0.000259
C27	C	0.141401	0.021678	-0.000248
C28	C	0.168968	0.074022	-0.000257
C29	C	0.825775	-0.028301	-0.000202
C30	C	0.824855	-0.091522	-0.000195
C31	C	0.819088	-0.483543	-0.066244
C32	C	0.818213	-0.542944	-0.066248
O33	O	0.817745	-0.573659	-0.122388
N34	N	0.817769	-0.572659	-0.000238
C35	C	0.818193	-0.542968	0.065781
O36	O	0.817735	-0.573697	0.121928
C37	C	0.819063	-0.483567	0.065784
C38	C	0.819514	-0.453857	-0.000230
C39	C	0.819538	-0.453832	-0.132254
C40	C	0.820414	-0.394435	-0.132249
C41	C	0.820840	-0.364749	-0.066236
C42	C	0.820390	-0.394460	-0.000226
C43	C	0.819482	-0.453877	0.131802
C44	C	0.820351	-0.394472	0.131800
C45	C	0.820802	-0.364762	0.065785
C46	C	0.821692	-0.305376	0.065792
N47	N	0.822136	-0.275662	-0.000219
C48	C	0.821710	-0.305348	-0.066233
C49	C	0.816366	-0.667713	0.065769
C50	C	0.815501	-0.727113	0.065767
C51	C	0.815519	-0.727085	-0.066262
C52	C	0.816389	-0.667685	-0.066259
C53	C	0.816809	-0.637999	-0.000241
C54	C	0.823550	-0.180610	-0.066219
C55	C	0.824429	-0.121208	-0.066209
C56	C	0.824407	-0.121241	0.065820
C57	C	0.823531	-0.180638	0.065811
C58	C	0.823101	-0.210321	-0.000215
O59	O	0.822157	-0.274623	0.121903
O60	O	0.822159	-0.274611	-0.122370
C61	C	0.946985	0.071353	-0.000250
C62	C	1.024085	0.072279	-0.000274
C63	C	0.814151	0.179975	-0.000235
C64	C	0.815071	0.243196	-0.000247
N65	N	0.819940	0.075830	0.188450
N66	N	0.819992	0.075839	-0.188886
C67	C	0.867452	0.037009	0.226546
C68	C	0.867456	0.037007	0.302774
C69	C	0.819955	0.075834	0.340903
C70	C	0.772434	0.114658	0.302798
C71	C	0.772427	0.114655	0.226572
C72	C	0.810486	0.127727	0.461656
C73	C	0.810498	0.127730	0.537881
C74	C	0.819975	0.075842	0.576010
C75	C	0.829454	0.023948	0.537905
C76	C	0.829446	0.023946	0.461679
C77	C	0.819958	0.075841	0.423558
C78	C	0.867494	0.037015	0.696761
C79	C	0.867494	0.037012	0.772990
C80	C	0.772475	0.114668	0.773013
C81	C	0.772472	0.114666	0.696785
C82	C	0.819986	0.075841	0.658664
H83	H	0.461993	0.171902	-0.000210
N84	N	0.839114	-0.029058	0.576848
N85	N	0.792801	-0.041742	0.619401
H86	H	0.799620	-0.079177	0.646906
H87	H	0.823196	-0.204771	-0.119983
N88	N	0.820871	-0.364100	-0.199689
N89	N	0.820488	-0.390622	-0.258620
H90	H	0.820809	-0.369201	-0.306253
N91	N	0.152276	0.178950	-0.000261
N92	N	0.216957	0.179721	-0.000250
H93	H	0.236856	0.217478	-0.000243
N94	N	0.839125	-0.029053	0.422744
N95	N	0.889653	-0.039518	0.380181
H96	H	0.896487	-0.076948	0.352682
H97	H	0.816755	-0.643498	-0.120014
H98	H	0.733736	0.146268	0.195554
N99	N	0.800823	0.180737	0.422718
N100	N	0.842911	0.216584	0.431200
H101	H	0.836091	0.254021	0.403699
H102	H	0.824757	-0.097060	0.119567
H103	H	0.733796	0.146280	0.804058
H104	H	0.819188	-0.477996	-0.186013
H105	H	0.816710	-0.643547	0.119533
H106	H	0.177933	-0.020231	-0.000236
H107	H	0.733757	0.146271	0.333847
N108	N	0.815065	-0.757417	-0.133694
N109	N	0.766197	-0.745402	-0.177880
H110	H	0.765875	-0.766826	-0.225500
H111	H	0.802784	0.169985	0.568900
H112	H	0.397740	0.004488	-0.077191
N113	N	0.815056	-0.757451	0.133206
N114	N	0.815440	-0.730932	0.192139
H115	H	0.815123	-0.752355	0.239771
H116	H	0.373611	0.148767	0.076755
N117	N	0.915943	-0.002717	0.657827
N118	N	0.958301	-0.037427	0.691854
H119	H	0.992487	-0.065516	0.664359
N120	N	0.260199	-0.005420	-0.086014
N121	N	0.298486	-0.040530	-0.123880
H122	H	0.277163	-0.069529	-0.154500
H123	H	0.906182	0.005397	0.804008
N124	N	0.819028	-0.484208	0.199243
N125	N	0.819406	-0.457683	0.258172
H126	H	0.819086	-0.479103	0.305807
H127	H	0.820683	-0.370304	0.185561
H128	H	0.733786	0.146280	0.665766
N129	N	0.916046	-0.002605	0.187618
N130	N	0.958504	-0.037232	0.221648
H131	H	0.992846	-0.065192	0.194154
H132	H	0.823171	-0.204830	0.119565
H133	H	0.593414	0.173483	-0.000196
N134	N	0.915993	-0.002655	0.341687
N135	N	0.958408	-0.037318	0.307641
H136	H	0.992688	-0.065329	0.335121
N137	N	0.487681	-0.027288	-0.000171
N138	N	0.501535	-0.061945	0.050884
H139	H	0.481655	-0.099710	0.050891
H140	H	0.015124	0.166530	-0.000285
N141	N	0.233312	0.155353	0.085505
N142	N	0.187136	0.189541	0.055844
H143	H	0.156215	0.217929	0.086429
N144	N	0.040789	-0.032654	-0.000248
N145	N	-0.023893	-0.033426	-0.000255
H146	H	-0.043791	-0.071182	-0.000242
N147	N	0.824895	-0.090852	-0.133638
N148	N	0.874355	-0.063086	-0.148377
H149	H	0.874684	-0.041647	-0.195997
H150	H	0.624805	-0.014860	-0.000143
