data_functionalizedCrystal
_audit_creation_method	'MofGen! by Chris Wilmer'
_symmetry_space_group_name_H-M	'P1'
_symmetry_Int_Tables_number	1
_symmetry_cell_setting	triclinic
loop_
_symmetry_equiv_pos_as_xyz
  x,y,z
_cell_length_a	15.944557
_cell_length_b	16.992695
_cell_length_c	16.053802
_cell_angle_alpha	87.258926
_cell_angle_beta	92.579644
_cell_angle_gamma	87.084796
loop_
_atom_site_label
_atom_site_type_symbol
_atom_site_fract_x
_atom_site_fract_y
_atom_site_fract_z
O1	O	-1.124625	-0.097852	-0.069394
O2	O	-0.624625	0.402148	0.430606
O3	O	-0.880912	-0.110314	-0.069404
O4	O	-0.380912	0.389686	0.430596
O5	O	-1.001791	0.010059	-0.069392
O6	O	-0.501791	0.510059	0.430608
O7	O	-1.003746	-0.218226	-0.069405
O8	O	-0.503746	0.281774	0.430595
O9	O	-0.995136	0.003461	0.069466
O10	O	-0.495136	0.503461	0.569466
O11	O	-0.874257	-0.116913	0.069455
O12	O	-0.374257	0.383087	0.569455
O13	O	-1.117970	-0.104450	0.069464
O14	O	-0.617970	0.395550	0.569464
Zn15	Zn	-0.995057	-0.111729	0.091506
Zn16	Zn	-0.495057	0.388271	0.591506
Zn17	Zn	-1.003825	-0.103036	-0.091445
Zn18	Zn	-0.503825	0.396964	0.408555
O19	O	-0.997091	-0.224824	0.069453
O20	O	-0.497091	0.275176	0.569453
C21	C	-0.846256	-0.113095	0.000024
C22	C	-0.346256	0.386905	0.500024
C23	C	-0.752906	-0.111541	0.000021
C24	C	-0.252906	0.388459	0.500021
C25	C	-0.476959	-0.032283	0.000039
C26	C	0.023041	0.467717	0.500039
C27	C	-0.526821	-0.073745	0.068502
C28	C	-0.026821	0.426255	0.568502
C29	C	-0.416892	-0.106001	0.000041
C30	C	0.083108	0.393999	0.500041
C31	C	-0.533365	-0.067259	-0.068401
C32	C	-0.033365	0.432741	0.431599
C33	C	-0.581987	-0.108719	0.000030
C34	C	-0.081987	0.391281	0.500030
C35	C	-0.465522	-0.147446	0.068561
C36	C	0.034478	0.352554	0.568561
C37	C	-0.472064	-0.140947	-0.068404
C38	C	0.027936	0.359053	0.431596
C39	C	-0.521897	-0.182464	0.000076
C40	C	-0.021897	0.317536	0.500076
C41	C	-0.321785	-0.104433	0.000048
C42	C	0.178215	0.395567	0.500048
C43	C	-0.677092	-0.110293	0.000028
C44	C	-0.177092	0.389707	0.500028
C45	C	-0.152626	-0.101659	0.000039
C46	C	0.347374	0.398341	0.500039
C47	C	-0.245978	-0.103181	0.000049
C48	C	0.254022	0.396819	0.500049
C49	C	-0.995950	0.035973	0.000037
C50	C	-0.495950	0.535973	0.500037
C51	C	-0.988450	0.123018	0.000036
C52	C	-0.488450	0.623018	0.500036
C53	C	-1.002932	-0.250737	0.000022
C54	C	-0.502932	0.249263	0.500022
C55	C	-1.010432	-0.337782	0.000017
C56	C	-0.510432	0.162218	0.500017
C57	C	-1.060815	0.173252	0.000040
C58	C	-0.560815	0.673252	0.500040
C59	C	-1.053763	0.255040	0.000032
C60	C	-0.553763	0.755040	0.500032
C61	C	-0.974346	0.286591	0.000026
C62	C	-0.474346	0.786591	0.500026
C63	C	-0.901976	0.236349	0.000020
C64	C	-0.401976	0.736349	0.500020
C65	C	-0.909028	0.154564	0.000022
C66	C	-0.409028	0.654564	0.500022
C67	C	-0.945115	0.530191	0.000013
C68	C	-0.445115	1.030191	0.500013
C69	C	-0.938068	0.611983	0.000013
C70	C	-0.438068	1.111983	0.500013
C71	C	-1.089856	0.630668	0.000024
C72	C	-0.589856	1.130668	0.500024
C73	C	-1.096901	0.548880	0.000031
C74	C	-0.596901	1.048880	0.500031
C75	C	-1.024532	0.498646	0.000021
C76	C	-0.524532	0.998646	0.500021
N77	N	-0.967136	0.370190	0.000020
N78	N	-0.467136	0.870190	0.500020
N79	N	-1.031742	0.415048	0.000020
N80	N	-0.531742	0.915048	0.500020
N81	N	-0.989078	-0.117662	0.216366
N82	N	-0.489078	0.382338	0.716366
N83	N	-1.009810	-0.097097	-0.216305
N84	N	-0.509810	0.402903	0.283695
C85	C	-1.040534	-0.066461	0.260065
C86	C	-0.540534	0.433539	0.760065
C87	C	-1.036360	-0.070618	0.347471
C88	C	-0.536360	0.429382	0.847471
C89	C	-0.980735	-0.125981	0.391177
C90	C	-0.480735	0.374019	0.891177
C91	C	-0.929274	-0.177184	0.347472
C92	C	-0.429274	0.322816	0.847472
C93	C	-0.933444	-0.173022	0.260068
C94	C	-0.433444	0.326978	0.760068
C95	C	-0.962519	-0.144138	0.652585
C96	C	-0.462519	0.355862	1.152585
C97	C	-0.958354	-0.148297	0.739996
C98	C	-0.458354	0.351703	1.239996
C99	C	-1.065440	-0.041730	0.739989
C100	C	-0.565440	0.458270	1.239989
C101	C	-1.069609	-0.037576	0.652582
C102	C	-0.569609	0.462424	1.152582
C103	C	-1.018145	-0.088777	0.608885
C104	C	-0.518145	0.411223	1.108885
N105	N	-0.976469	-0.130234	0.480521
N106	N	-0.476469	0.369766	0.980521
N107	N	-1.022406	-0.084520	0.519543
N108	N	-0.522406	0.415480	1.019543
H109	H	-0.447979	-0.169302	-0.126290
H110	H	0.052021	0.330698	0.373710
N111	N	-0.830985	0.100369	0.000021
N112	N	-0.330985	0.600369	0.500021
H113	H	-0.799044	0.112956	-0.051455
H114	H	-0.299044	0.612956	0.448545
H115	H	-0.794173	0.108093	0.051529
H116	H	-0.294173	0.608093	0.551529
H117	H	-1.112690	0.295939	0.000037
H118	H	-0.612690	0.795939	0.500037
N119	N	-1.182558	0.514851	0.000043
N120	N	-0.682558	1.014851	0.500043
H121	H	-1.227332	0.559086	0.000044
H122	H	-0.727332	1.059086	0.500044
H123	H	-1.191260	0.483766	-0.051431
H124	H	-0.691260	0.983766	0.448569
H125	H	-1.085833	-0.021382	0.224485
H126	H	-0.585833	0.478618	0.724485
H127	H	-0.891542	-0.214715	0.224489
H128	H	-0.391542	0.285285	0.724489
N129	N	-0.450576	0.051810	0.000123
N130	N	0.049424	0.551810	0.500123
H131	H	-0.470470	0.077105	0.051891
H132	H	0.029530	0.577105	0.551891
H133	H	-0.387286	0.052224	-0.000438
H134	H	0.112714	0.552224	0.499562
H135	H	-1.107339	-0.000044	0.775575
H136	H	-0.607339	0.499956	1.275575
H137	H	-0.913055	-0.193384	0.775577
H138	H	-0.413055	0.306616	1.275577
H139	H	-0.920616	-0.185829	0.617014
H140	H	-0.420616	0.314171	1.117014
H141	H	-0.550890	-0.045363	0.126386
H142	H	-0.050890	0.454637	0.626386
N143	N	-1.167908	0.684847	0.000037
N144	N	-0.667908	1.184847	0.500037
H145	H	-1.151393	0.741446	0.000035
H146	H	-0.651393	1.241446	0.500035
H147	H	-1.204750	0.677075	-0.051437
H148	H	-0.704750	1.177075	0.448563
N149	N	-1.129611	0.022129	0.605443
N150	N	-0.629611	0.522129	1.105443
H151	H	-1.096923	0.058593	0.569183
H152	H	-0.596923	0.558593	1.069183
H153	H	-1.170521	-0.006205	0.569221
H154	H	-0.670521	0.493795	1.069221
N155	N	-0.869270	-0.236893	0.394607
N156	N	-0.369270	0.263107	0.894607
H157	H	-0.874437	-0.231762	0.456609
H158	H	-0.374437	0.268238	0.956609
H159	H	-0.883431	-0.291797	0.379316
H160	H	-0.383431	0.208203	0.879316
H161	H	-0.436022	-0.181309	0.126505
H162	H	0.063978	0.318691	0.626505
N163	N	-0.572577	-0.022366	-0.145068
N164	N	-0.072577	0.477634	0.354932
H165	H	-0.606293	-0.059000	-0.179377
H166	H	-0.106293	0.441000	0.320623
H167	H	-0.610781	0.022487	-0.127527
H168	H	-0.110781	0.522487	0.372473
H169	H	-0.886186	0.489300	0.000005
H170	H	-0.386186	0.989300	0.500005
H171	H	-0.837312	0.262045	0.000009
H172	H	-0.337312	0.762045	0.500009
N173	N	-1.091890	-0.015412	0.394592
N174	N	-0.591890	0.484588	0.894592
H175	H	-1.079237	0.040976	0.379394
H176	H	-0.579237	0.540976	0.879394
H177	H	-1.152803	-0.023854	0.379328
H178	H	-0.652803	0.476146	0.879328
N179	N	-0.548054	-0.266631	0.000108
N180	N	-0.048054	0.233369	0.500108
H181	H	-0.523100	-0.296831	0.051840
H182	H	-0.023100	0.203169	0.551840
H183	H	-0.611387	-0.267140	-0.000417
H184	H	-0.111387	0.232860	0.499583
H185	H	-1.125484	0.147571	0.000050
H186	H	-0.625484	0.647571	0.500050
H187	H	-0.873393	0.637667	0.000022
H188	H	-0.373393	1.137667	0.500022
