data_functionalizedCrystal
_audit_creation_method	'MofGen! by Chris Wilmer'
_symmetry_space_group_name_H-M	'P1'
_symmetry_Int_Tables_number	1
_symmetry_cell_setting	triclinic
loop_
_symmetry_equiv_pos_as_xyz
  x,y,z
_cell_length_a	6.817900
_cell_length_b	17.982783
_cell_length_c	17.982968
_cell_angle_alpha	95.926085
_cell_angle_beta	102.451960
_cell_angle_gamma	102.448572
loop_
_atom_site_label
_atom_site_type_symbol
_atom_site_fract_x
_atom_site_fract_y
_atom_site_fract_z
V1	V	-4.009918	-0.106127	-0.237867
O2	O	-4.003034	0.004365	-0.233013
O3	O	-3.956470	-0.209725	-0.236553
O4	O	-3.956489	-0.104816	-0.341466
O5	O	-4.003015	-0.101269	-0.127374
V6	V	-4.494852	-0.092872	-0.224613
O7	O	-4.268082	-0.135201	-0.266940
O8	O	-4.686885	-0.063798	-0.195540
O9	O	-4.325093	0.010726	-0.225927
O10	O	-4.619133	-0.203364	-0.229466
O11	O	-4.619152	-0.097730	-0.335106
O12	O	-4.325074	-0.094183	-0.121014
C13	C	-3.800406	-0.234970	-0.232881
C14	C	-3.837959	-0.319665	-0.232498
C15	C	-3.819323	-0.348365	-0.162514
C16	C	-3.854628	-0.427945	-0.162156
C17	C	-3.908554	-0.478825	-0.231782
C18	C	-3.927196	-0.450120	-0.301772
C19	C	-3.891906	-0.370541	-0.302129
C20	C	-4.069522	-0.771054	-0.300333
C21	C	-4.104806	-0.850638	-0.299970
C22	C	-4.032244	-0.828458	-0.160359
C23	C	-3.996953	-0.748879	-0.160716
C24	C	-4.015609	-0.720182	-0.230705
C25	C	-3.977331	-0.633891	-0.231093
C26	C	-3.946818	-0.565113	-0.231396
C27	C	-3.800429	-0.101148	-0.366707
C28	C	-3.837995	-0.100762	-0.451402
C29	C	-4.037378	-0.104398	-0.495085
C30	C	-4.072664	-0.104036	-0.574664
C31	C	-3.908566	-0.100041	-0.610561
C32	C	-3.709166	-0.096402	-0.566872
C33	C	-3.673880	-0.096760	-0.487293
C34	C	-3.851463	-0.094959	-0.887805
C35	C	-3.886766	-0.094604	-0.967390
C36	C	-4.250247	-0.102235	-0.975176
C37	C	-4.214961	-0.102593	-0.895597
C38	C	-4.015563	-0.098949	-0.851915
C39	C	-3.977304	-0.099342	-0.765625
C40	C	-3.946825	-0.099655	-0.696849
C41	C	-4.144500	0.035967	-0.229596
C42	C	-4.086185	0.120661	-0.229985
C43	C	-4.144477	-0.097854	-0.095769
C44	C	-4.086149	-0.098236	-0.011073
H45	H	-3.971120	-0.491553	-0.358464
H46	H	-4.412608	-0.105199	-1.010752
O47	O	-3.727099	-0.090680	-1.002132
C48	C	-3.543545	-0.087558	-0.946516
H49	H	-3.559072	-0.064688	-0.887080
H50	H	-3.407331	-0.047603	-0.960884
H51	H	-3.515804	-0.147855	-0.946612
O52	O	-3.657926	-0.091612	-0.845365
C53	C	-3.661254	-0.157966	-0.809714
H54	H	-3.825243	-0.183367	-0.804632
H55	H	-3.551621	-0.141769	-0.749763
H56	H	-3.609590	-0.202417	-0.845916
O57	O	-3.549872	-0.092421	-0.601811
C58	C	-3.524923	-0.025656	-0.637062
H59	H	-3.676519	-0.006803	-0.648853
H60	H	-3.480570	-0.038708	-0.693743
H61	H	-3.397506	0.022532	-0.597096
H62	H	-3.511515	-0.093780	-0.451724
O63	O	-4.374146	-0.106369	-0.860624
C64	C	-4.330173	-0.040473	-0.804305
H65	H	-4.155602	-0.015103	-0.785492
H66	H	-4.390020	-0.057255	-0.752361
H67	H	-4.409336	0.004224	-0.829518
O68	O	-3.944471	-0.699347	-0.093149
C69	C	-3.917372	-0.622955	-0.108473
H70	H	-3.880602	-0.620265	-0.167189
H71	H	-3.784005	-0.583556	-0.061994
H72	H	-4.065592	-0.603273	-0.108626
H73	H	-3.775397	-0.306943	-0.105815
H74	H	-4.148719	-0.892063	-0.356672
O75	O	-4.014327	-0.856467	-0.092440
C76	C	-4.056998	-0.937614	-0.107047
H77	H	-4.156117	-0.959364	-0.168316
H78	H	-4.144038	-0.962844	-0.064359
H79	H	-3.905349	-0.956251	-0.100279
H80	H	-3.839456	-0.451308	-0.105168
O81	O	-4.196570	-0.108175	-0.460116
C82	C	-4.152606	-0.042279	-0.403797
H83	H	-3.978035	-0.016910	-0.384979
H84	H	-4.212468	-0.059062	-0.351856
H85	H	-4.231763	0.002418	-0.429012
H86	H	-3.907104	-0.347176	-0.359118
O87	O	-4.087653	-0.743057	-0.368251
C88	C	-4.044917	-0.661908	-0.353643
H89	H	-4.072017	-0.642859	-0.295021
H90	H	-4.151497	-0.640825	-0.400390
H91	H	-3.876684	-0.636422	-0.353708
O92	O	-4.266483	-0.107596	-0.616987
C93	C	-4.403740	-0.111177	-0.568236
H94	H	-4.337919	-0.134571	-0.514225
H95	H	-4.560376	-0.150907	-0.599862
H96	H	-4.423918	-0.050949	-0.551201
