data_functionalizedCrystal
_audit_creation_method	'MofGen! by Chris Wilmer'
_symmetry_space_group_name_H-M	'P1'
_symmetry_Int_Tables_number	1
_symmetry_cell_setting	triclinic
loop_
_symmetry_equiv_pos_as_xyz
  x,y,z
_cell_length_a	27.440280
_cell_length_b	27.440279
_cell_length_c	17.052862
_cell_angle_alpha	70.271611
_cell_angle_beta	90.004253
_cell_angle_gamma	60.011417
loop_
_atom_site_label
_atom_site_type_symbol
_atom_site_fract_x
_atom_site_fract_y
_atom_site_fract_z
Zr1	Zr	0.478205	0.516170	-0.091001
O2	O	0.410819	0.597015	-0.202011
O3	O	0.498841	0.420900	-0.056992
O4	O	0.512461	0.495360	-0.202025
O5	O	0.386480	0.544000	0.057451
O6	O	0.592663	0.495353	-0.202011
O7	O	0.397199	0.522555	-0.056978
O8	O	0.568299	0.362158	0.057427
O9	O	0.410844	0.677195	-0.201986
O10	O	0.567522	0.465423	-0.042450
O11	O	0.499669	0.481433	0.042937
O12	O	0.515704	0.569099	-0.127821
O13	O	0.447852	0.585109	-0.042434
Zr14	Zr	0.589022	0.550362	0.091524
Zr15	Zr	0.606117	0.516159	-0.090978
Zr16	Zr	0.461110	0.550373	0.091501
Zr17	Zr	0.478245	0.644048	-0.090961
Zr18	Zr	0.588982	0.422483	0.091484
O19	O	0.568386	0.645632	0.057516
O20	O	0.592694	0.596999	-0.201979
O21	O	0.386512	0.645647	0.057483
O22	O	0.656408	0.469517	0.202535
O23	O	0.680716	0.420885	-0.056959
O24	O	0.474533	0.469532	0.202503
O25	O	0.680747	0.522531	-0.056928
O26	O	0.554766	0.571172	0.202549
O27	O	0.474565	0.571179	0.202534
O28	O	0.670028	0.543977	0.057502
O29	O	0.512517	0.677187	-0.201968
O30	O	0.554710	0.389345	0.202492
O31	O	0.656383	0.389336	0.202510
O32	O	0.669972	0.362150	0.057445
O33	O	0.397255	0.704382	-0.056922
O34	O	0.498928	0.704373	-0.056903
O35	O	0.551523	0.497432	0.128345
O36	O	0.619376	0.481423	0.042958
O37	O	0.567558	0.585099	-0.042413
O38	O	0.499705	0.601108	0.042974
C39	C	0.533564	0.373309	0.000212
C40	C	0.533548	0.319021	0.000195
C41	C	0.498187	0.092633	0.044838
C42	C	0.498176	0.143661	0.044827
O43	O	0.468064	0.177147	0.082750
N44	N	0.533587	0.160827	0.000245
C45	C	0.569016	0.126959	-0.044322
O46	O	0.599135	0.146245	-0.082242
C47	C	0.569029	0.075929	-0.044305
C48	C	0.533611	0.058770	0.000273
C49	C	0.462772	0.075472	0.089413
C50	C	0.462782	0.024448	0.089423
C51	C	0.498207	-0.009415	0.044858
C52	C	0.533621	0.007746	0.000283
C53	C	0.604460	0.042059	-0.088866
C54	C	0.604471	-0.008974	-0.088845
C55	C	0.569053	-0.026133	-0.044267
C56	C	0.569056	-0.077142	-0.044273
N57	N	0.533645	-0.094308	0.000309
C58	C	0.498220	-0.060444	0.044874
C59	C	0.568986	0.234124	-0.044352
C60	C	0.568970	0.285155	-0.044374
C61	C	0.498131	0.301853	0.044776
C62	C	0.498144	0.250824	0.044792
C63	C	0.533575	0.216958	0.000230
C64	C	0.498243	-0.167599	0.044891
C65	C	0.498255	-0.218626	0.044894
C66	C	0.569096	-0.235322	-0.044252
C67	C	0.569083	-0.184297	-0.044259
C68	C	0.533655	-0.150437	0.000319
O69	O	0.599154	-0.110658	-0.082173
O70	O	0.468111	-0.079743	0.082798
C71	C	0.373615	0.533279	0.000233
C72	C	0.319313	0.533284	0.000224
C73	C	0.009658	0.479141	0.044848
C74	C	-0.041362	0.479138	0.044856
O75	O	-0.044749	0.433118	0.082780
N76	N	-0.093926	0.533256	0.000292
C77	C	-0.095471	0.587380	-0.044275
O78	O	-0.144867	0.633411	-0.082178
C79	C	-0.044453	0.587383	-0.044277
C80	C	0.008111	0.533261	0.000282
C81	C	0.062220	0.425023	0.089405
C82	C	0.113235	0.425026	0.089396
C83	C	0.111689	0.479146	0.044830
C84	C	0.059127	0.533263	0.000273
C85	C	-0.046000	0.641507	-0.088838
C86	C	0.005024	0.641505	-0.088836
C87	C	0.057589	0.587383	-0.044277
C88	C	0.108596	0.587385	-0.044301
N89	N	0.161160	0.533268	0.000262
C90	C	0.162707	0.479148	0.044828
C91	C	-0.202611	0.587370	-0.044266
C92	C	-0.253628	0.587367	-0.044269
C93	C	-0.199515	0.479126	0.044863
C94	C	-0.148496	0.479129	0.044861
C95	C	-0.150046	0.533253	0.000298
C96	C	0.269842	0.479157	0.044805
C97	C	0.320860	0.479164	0.044789
C98	C	0.266742	0.587406	-0.044339
C99	C	0.215728	0.587399	-0.044327
C100	C	0.217282	0.533270	0.000251
O101	O	0.112027	0.633382	-0.082204
O102	O	0.212104	0.433127	0.082734
C103	C	0.693612	0.533252	0.000290
C104	C	0.747914	0.533248	0.000300
C105	C	0.554998	0.490483	-0.228021
C106	C	0.562255	0.475963	-0.305497
C107	C	0.533663	0.693222	0.000312
C108	C	0.533679	0.747510	0.000329
C109	C	0.474512	0.651510	-0.702148
C110	C	0.467690	0.665155	-0.629356
C111	C	0.491331	0.617858	-0.548388
C112	C	0.521795	0.556915	-0.540218
C113	C	0.528614	0.543269	-0.613017
C114	C	0.545432	0.509617	-0.459258
C115	C	0.575897	0.448673	-0.451088
C116	C	0.582715	0.435030	-0.523881
C117	C	0.559074	0.482327	-0.604849
C118	C	0.538613	0.523262	-0.386459
C119	C	0.592715	0.415021	-0.297329
C120	C	0.599537	0.401377	-0.370121
C121	C	0.512229	0.576048	0.228544
C122	C	0.504972	0.590568	0.306021
C123	C	0.693563	0.373296	0.000240
C124	C	0.747848	0.319003	0.000233
C125	C	0.512180	0.416092	0.228494
C126	C	0.504906	0.376324	0.305954
C127	C	0.672179	0.416078	0.228523
C128	C	0.719207	0.376306	0.305993
C129	C	0.395048	0.650453	-0.227999
C130	C	0.348021	0.690226	-0.305469
C131	C	0.373664	0.693236	0.000283
C132	C	0.319379	0.747528	0.000290
C133	C	0.555047	0.650440	-0.227971
C134	C	0.562321	0.690208	-0.305431
C135	C	0.746275	0.285154	-0.044360
C136	C	0.797278	0.234144	-0.044384
C137	C	0.849854	0.216983	0.000191
C138	C	0.851426	0.250837	0.044786
C139	C	0.800424	0.301848	0.044804
C140	C	0.528556	0.366001	0.386920
C141	C	0.521719	0.328644	0.459709
C142	C	0.491234	0.301606	0.451530
C143	C	0.467580	0.311931	0.370556
C144	C	0.474415	0.349292	0.297769
C145	C	0.776715	0.349272	0.297802
C146	C	0.820908	0.311907	0.370586
C147	C	0.807592	0.301574	0.451560
C148	C	0.750077	0.328613	0.459749
C149	C	0.705885	0.365980	0.386965
C150	C	0.290512	0.717266	-0.297278
C151	C	0.246319	0.754646	-0.370062
C152	C	0.259636	0.764982	-0.451036
C153	C	0.317150	0.737940	-0.459225
C154	C	0.361342	0.700564	-0.386442
C155	C	0.320953	0.781381	0.044876
C156	C	0.269952	0.832401	0.044880
C157	C	0.217376	0.849564	0.000302
C158	C	0.215803	0.815708	-0.044289
C159	C	0.266805	0.764692	-0.044297
C160	C	0.592809	0.717235	-0.297224
C161	C	0.599655	0.754595	-0.369999
C162	C	0.576009	0.764932	-0.450980
C163	C	0.545519	0.737900	-0.459184
C164	C	0.538677	0.700536	-0.386410
H165	H	0.433925	0.103039	0.125708
C166	C	0.331789	0.749309	-0.548304
N167	N	0.342814	0.757869	-0.615401
C168	C	0.211016	0.806093	-0.531092
N169	N	0.174393	0.837056	-0.591387
C170	C	0.583539	0.806035	-0.531026
N171	N	0.589212	0.836996	-0.591313
H172	H	0.265515	0.737129	-0.080602
C173	C	0.271694	0.869631	0.093943
N174	N	0.273007	0.897669	0.130900
C175	C	0.802163	0.339073	0.093873
N176	N	0.803478	0.367108	0.130835
C177	C	0.423859	0.005547	0.138528
N178	N	0.394555	-0.008698	0.175540
C179	C	0.483831	0.632869	-0.468317
N180	N	0.478185	0.644179	-0.408005
H181	H	0.408168	0.678546	-0.393121
H182	H	0.469304	0.236857	0.081092
H183	H	-0.203880	0.631447	-0.080559
H184	H	0.624341	0.351756	-0.363480
H185	H	0.363758	0.767413	0.081182
C186	C	0.795535	0.196908	-0.093435
N187	N	0.794220	0.168863	-0.130377
C188	C	0.562089	0.395742	0.395938
N189	N	0.587344	0.418144	0.402737
H190	H	0.175851	0.891107	0.000316
H191	H	-0.105700	0.435059	0.081152
C192	C	0.607928	0.304028	-0.093421
N193	N	0.637275	0.318239	-0.130361
H194	H	0.891379	0.175444	0.000170
C195	C	0.909265	0.231947	0.093822
N196	N	0.952831	0.217715	0.130761
C197	C	-0.311444	0.646904	-0.093298
N198	N	-0.354991	0.691750	-0.130224
H199	H	0.607515	0.385406	-0.517224
C200	C	0.607954	0.196884	-0.093396
N201	N	0.637303	0.168839	-0.130338
H202	H	0.172989	0.829690	-0.080583
H203	H	-0.198263	0.435058	0.081148
H204	H	0.612066	0.708826	-0.231293
H205	H	0.271115	0.435081	0.081106
C206	C	0.547749	0.317287	0.548773
N207	N	0.567357	0.308732	0.615853
H208	H	0.513808	0.572883	-0.393120
H209	H	0.633301	0.056022	-0.125164
C210	C	0.157906	0.646934	-0.093348
N211	N	0.114356	0.691779	-0.130264
C212	C	0.633193	0.784328	-0.360955
N213	N	0.658452	0.806722	-0.354141
H214	H	0.526268	0.746322	-0.525128
C215	C	0.434184	0.732190	-0.638347
N216	N	0.408948	0.782686	-0.645122
H217	H	0.485673	0.271186	0.510805
C218	C	0.434051	0.282181	0.361573
N219	N	0.408800	0.259768	0.354810
H220	H	0.513848	0.678534	-0.393104
H221	H	-0.088792	0.685579	-0.125123
H222	H	0.739242	0.320194	0.525687
H223	H	0.199492	0.776659	-0.363378
H224	H	0.469411	-0.232593	0.081194
H225	H	0.469393	-0.140034	0.081189
H226	H	0.469287	0.329434	0.081064
C227	C	0.448402	0.360634	0.208707
N228	N	0.428808	0.369173	0.141628
C229	C	0.856211	0.260462	0.531616
N230	N	0.892834	0.229494	0.591911
H231	H	0.787569	0.357678	0.231876
C232	C	0.448509	0.703529	-0.791211
N233	N	0.428921	0.742713	-0.858298
C234	C	0.643446	-0.046222	-0.137873
N235	N	0.672799	-0.074274	-0.174804
H236	H	0.003755	0.685583	-0.125114
H237	H	0.597917	-0.170321	-0.080568
H238	H	0.659060	0.387987	0.393646
C239	C	0.171051	0.365488	0.138423
N240	N	0.214596	0.320642	0.175357
H241	H	0.867736	0.289894	0.363903
C242	C	0.265052	0.646935	-0.093358
N243	N	0.263779	0.691773	-0.130274
C244	C	0.063935	0.365480	0.138426
N245	N	0.065232	0.320627	0.175343
H246	H	0.597936	-0.262900	-0.080540
H247	H	0.564628	0.471221	-0.664126
H248	H	0.363659	0.435090	0.081078
H249	H	0.611963	0.376508	-0.231402
H250	H	0.703470	0.299124	-0.080669
H251	H	0.279658	0.708853	-0.231352
