data_functionalizedCrystal
_audit_creation_method	'MofGen! by Chris Wilmer'
_symmetry_space_group_name_H-M	'P1'
_symmetry_Int_Tables_number	1
_symmetry_cell_setting	triclinic
loop_
_symmetry_equiv_pos_as_xyz
  x,y,z
_cell_length_a	19.188930
_cell_length_b	16.992695
_cell_length_c	15.455313
_cell_angle_alpha	87.152573
_cell_angle_beta	92.686066
_cell_angle_gamma	86.906501
loop_
_atom_site_label
_atom_site_type_symbol
_atom_site_fract_x
_atom_site_fract_y
_atom_site_fract_z
O1	O	-0.934752	-0.094420	-0.072413
O2	O	-0.732209	-0.107598	-0.072354
O3	O	-0.832668	0.013131	-0.072377
O4	O	-0.834293	-0.215148	-0.072391
O5	O	-0.826922	0.006255	0.071887
O6	O	-0.726463	-0.114473	0.071909
O7	O	-0.929005	-0.101295	0.071850
Cu8	Cu	-0.827209	-0.108512	0.085052
Cu9	Cu	-0.834005	-0.100381	-0.085556
O10	O	-0.828546	-0.222024	0.071873
C11	C	-0.827706	0.038899	-0.000244
C12	C	-0.821473	0.125921	-0.000243
C13	C	-0.703300	-0.110609	-0.000215
C14	C	-0.625719	-0.109329	-0.000192
C15	C	-0.957915	-0.098284	-0.000291
C16	C	-1.035495	-0.099563	-0.000320
C17	C	-0.584941	-0.180168	-0.000210
C18	C	-0.512047	-0.178964	-0.000219
C19	C	-0.479935	-0.106917	-0.000228
C20	C	-0.520722	-0.036070	-0.000205
C21	C	-0.593614	-0.037276	-0.000187
N22	N	-0.370689	-0.049505	-0.049359
N23	N	-0.301445	-0.048364	-0.049378
C24	C	-0.260316	-0.103279	-0.000281
N25	N	-0.291047	-0.159389	0.048825
N26	N	-0.360298	-0.160532	0.048840
C27	C	-0.400897	-0.105601	-0.000247
C28	C	-0.140498	-0.172817	-0.000308
C29	C	-0.067603	-0.171610	-0.000312
C30	C	-0.076279	-0.028714	-0.000307
C31	C	-0.149173	-0.029923	-0.000294
C32	C	-0.181278	-0.101976	-0.000299
C33	C	-0.833508	-0.247791	-0.000261
C34	C	-0.839742	-0.334814	-0.000269
N35	N	-0.822435	-0.114230	0.205049
C36	C	-0.881613	0.176369	-0.000259
C37	C	-0.875753	0.258136	-0.000266
C38	C	-0.809751	0.289453	-0.000250
C39	C	-0.749607	0.238999	-0.000235
C40	C	-0.755468	0.157234	-0.000235
C41	C	-0.785458	0.532968	-0.000254
C42	C	-0.779602	0.614739	-0.000252
C43	C	-0.905748	0.633870	-0.000284
C44	C	-0.911604	0.552102	-0.000279
C45	C	-0.851459	0.501656	-0.000269
N46	N	-0.803759	0.373031	-0.000253
N47	N	-0.857452	0.418079	-0.000271
N48	N	-0.838785	-0.094656	-0.205553
C49	C	-0.865130	-0.062959	0.250433
C50	C	-0.861526	-0.067291	0.341242
C51	C	-0.815230	-0.122898	0.386664
C52	C	-0.772530	-0.174172	0.341274
C53	C	-0.776131	-0.169835	0.250467
C54	C	-0.799686	-0.141593	0.658249
C55	C	-0.796089	-0.145927	0.749063
C56	C	-0.885085	-0.039045	0.749025
C57	C	-0.888685	-0.034717	0.658216
C58	C	-0.845982	-0.085988	0.612833
N59	N	-0.811546	-0.127329	0.479486
N60	N	-0.849663	-0.081553	0.520014
H61	H	-0.611076	-0.238839	-0.000215
O62	O	-0.926626	0.010801	0.792976
C63	C	-0.968243	0.060828	0.733412
H64	H	-0.973396	0.031775	0.668677
H65	H	-1.022282	0.071702	0.759621
H66	H	-0.942705	0.119457	0.723774
O67	O	-0.751046	-0.199962	0.793053
C68	C	-0.714136	-0.244295	0.733526
H69	H	-0.714126	-0.209069	0.668800
H70	H	-0.658013	-0.257649	0.759797
H71	H	-0.740420	-0.302016	0.723847
O72	O	-0.188687	0.038965	-0.000325
C73	C	-0.144715	0.102814	-0.000312
H74	H	-0.092581	0.084031	-0.027637
H75	H	-0.170493	0.154430	-0.042188
H76	H	-0.135516	0.121612	0.068898
O77	O	-0.715432	0.645033	-0.000284
C78	C	-0.663602	0.582975	-0.000258
H79	H	-0.687358	0.528793	-0.027572
H80	H	-0.619472	0.601907	-0.042137
H81	H	-0.642066	0.568043	0.068954
H82	H	-0.924725	0.299207	-0.000278
H83	H	-0.706495	0.116160	-0.000222
O84	O	-0.903033	-0.017604	0.385428
C85	C	-0.946362	-0.061982	0.437907
H86	H	-0.921435	-0.124052	0.451509
H87	H	-0.953049	-0.032282	0.501765
H88	H	-0.999640	-0.065498	0.402883
O89	O	-0.945749	0.145995	-0.000431
C90	C	-0.985666	0.175368	-0.075148
H91	H	-0.949229	0.194731	-0.127357
H92	H	-1.019129	0.127130	-0.100238
H93	H	-1.020919	0.227991	-0.058269
O94	O	-0.758144	-0.191294	0.614128
C95	C	-0.714828	-0.146931	0.561615
H96	H	-0.709107	-0.086416	0.588993
H97	H	-0.661171	-0.179032	0.560607
H98	H	-0.739178	-0.139473	0.492784
H99	H	-0.734830	-0.219446	0.378262
O100	O	-0.734631	-0.219724	0.206511
C101	C	-0.692984	-0.269723	0.266072
H102	H	-0.719087	-0.273621	0.330786
H103	H	-0.686864	-0.331106	0.239826
H104	H	-0.639326	-0.244872	0.275766
O105	O	-0.975773	0.521815	-0.000330
C106	C	-1.027598	0.583875	-0.000320
H107	H	-1.006023	0.640655	-0.027635
H108	H	-1.075076	0.568932	-0.042208
H109	H	-1.043604	0.592222	0.068887
O110	O	-0.910120	-0.008873	0.206448
C111	C	-0.947042	0.035438	0.265983
H112	H	-0.915805	0.033152	0.330730
H113	H	-0.955241	0.099329	0.239755
H114	H	-0.999936	0.009668	0.275606
O115	O	-0.964100	0.682987	-0.000339
C116	C	-0.944777	0.761870	-0.000315
H117	H	-0.890859	0.766116	-0.027609
H118	H	-0.984499	0.801047	-0.042212
H119	H	-0.943349	0.782234	0.068894
H120	H	-0.034402	-0.229298	-0.000322
O121	O	-0.044984	0.041206	-0.000356
C122	C	0.028098	0.027082	-0.000351
H123	H	0.040685	-0.032854	-0.027666
H124	H	0.051348	0.075164	-0.042241
H125	H	0.051358	0.027515	0.068855
H126	H	-0.494572	0.022592	-0.000224
O127	O	-0.472531	-0.247849	-0.000283
C128	C	-0.516497	-0.311703	-0.000260
H129	H	-0.570829	-0.290317	-0.027550
H130	H	-0.494087	-0.359319	-0.042163
H131	H	-0.520129	-0.337109	0.068948
H132	H	-0.166638	-0.231487	-0.000299
O133	O	-0.933394	0.019639	0.614195
C134	C	-0.895127	0.070369	0.561996
H135	H	-0.842945	0.039369	0.548231
H136	H	-0.926060	0.086394	0.498202
H137	H	-0.885433	0.126365	0.597344
H138	H	-0.626816	0.020411	-0.000173
H139	H	-0.736484	0.491903	-0.000246
H140	H	-0.695867	0.264504	-0.000228
