data_functionalizedCrystal
_audit_creation_method	'MofGen! by Chris Wilmer'
_symmetry_space_group_name_H-M	'P1'
_symmetry_Int_Tables_number	1
_symmetry_cell_setting	triclinic
loop_
_symmetry_equiv_pos_as_xyz
  x,y,z
_cell_length_a	19.121241
_cell_length_b	19.121063
_cell_length_c	19.121324
_cell_angle_alpha	89.866514
_cell_angle_beta	90.083384
_cell_angle_gamma	95.003121
loop_
_atom_site_label
_atom_site_type_symbol
_atom_site_fract_x
_atom_site_fract_y
_atom_site_fract_z
Zn1	Zn	1.045284	-0.215900	-0.450988
Zn2	Zn	1.044767	-0.338162	-0.338724
Zn3	Zn	0.932603	-0.225912	-0.329163
Zn4	Zn	0.922562	-0.338542	-0.450928
O5	O	0.986304	-0.279629	-0.392451
O6	O	1.143517	-0.227770	-0.440122
O7	O	1.033874	-0.327302	-0.239514
O8	O	0.951969	-0.126280	-0.341347
O9	O	1.143137	-0.317595	-0.357643
O10	O	1.034755	-0.118925	-0.430851
O11	O	0.951467	-0.244833	-0.232489
O12	O	0.832970	-0.245201	-0.341289
O13	O	0.934856	-0.318243	-0.548878
O14	O	0.825593	-0.327951	-0.430750
O15	O	1.025019	-0.228139	-0.548922
O16	O	1.024138	-0.436516	-0.357585
O17	O	0.934354	-0.436795	-0.440021
C18	C	0.803793	-0.287704	-0.384976
C19	C	0.725713	-0.291175	-0.381795
C20	C	0.689223	-0.246107	-0.423315
C21	C	0.615858	-0.249365	-0.420320
C22	C	0.578985	-0.297695	-0.375809
C23	C	0.615480	-0.342765	-0.334284
C24	C	0.688843	-0.339503	-0.337276
C25	C	0.357465	-0.309877	-0.364621
C26	C	0.284097	-0.313137	-0.361634
C27	C	0.284480	-0.219736	-0.447669
C28	C	0.357845	-0.216481	-0.450660
C29	C	0.394334	-0.261548	-0.409133
C30	C	0.503994	-0.301028	-0.372748
C31	C	0.469323	-0.258211	-0.412190
C32	C	0.978119	-0.462143	-0.399850
C33	C	0.974681	-0.540219	-0.403041
C34	C	1.019845	-0.576728	-0.361659
C35	C	1.016615	-0.650089	-0.364665
C36	C	0.968218	-0.686940	-0.409050
C37	C	0.923052	-0.650426	-0.450437
C38	C	0.926286	-0.577066	-0.447434
C39	C	0.956117	-0.908447	-0.420265
C40	C	0.952885	-0.981812	-0.423262
C41	C	1.046450	-0.981469	-0.337492
C42	C	1.049676	-0.908109	-0.334490
C43	C	1.004513	-0.871601	-0.375879
C44	C	0.964914	-0.761926	-0.412122
C45	C	1.007821	-0.796615	-0.372811
C46	C	1.169528	-0.271523	-0.399956
C47	C	1.247607	-0.268069	-0.403154
C48	C	0.978875	-0.272117	-0.575006
C49	C	0.975709	-0.268915	-0.652800
C50	C	0.994540	-0.096401	-0.385039
C51	C	0.998049	-0.018320	-0.381880
C52	C	1.017123	-0.310346	-0.693007
C53	C	1.014149	-0.307330	-0.766103
C54	C	0.969756	-0.262885	-0.798989
C55	C	0.928341	-0.221449	-0.758776
C56	C	0.931319	-0.224462	-0.685682
C57	C	0.958620	-0.251635	-1.019503
C58	C	0.955644	-0.248626	-1.092602
C59	C	1.041453	-0.334506	-1.099924
C60	C	1.044425	-0.337519	-1.026828
C61	C	1.003012	-0.296080	-0.986621
C62	C	0.966714	-0.259802	-0.873704
C63	C	1.006059	-0.299160	-0.911908
C64	C	0.993747	-0.287060	-0.210606
C65	C	0.997058	-0.290058	-0.132810
H66	H	0.718553	-0.376202	-0.303466
H67	H	0.919496	-0.212428	-1.119375
H68	H	0.924896	-0.217896	-0.986775
H69	H	0.499349	-0.218859	-0.448428
H70	H	0.919342	-0.878728	-0.453964
O71	O	0.575710	-0.394892	-0.286275
H72	H	0.592554	-0.384385	-0.231445
H73	H	1.080562	-0.373722	-1.000057
H74	H	0.892199	-0.185258	-0.785558
O75	O	0.244327	-0.365264	-0.313617
H76	H	0.213747	-0.336711	-0.275429
H77	H	0.473964	-0.340378	-0.336507
O78	O	0.886653	-0.179775	-0.642309
H79	H	0.855280	-0.148367	-0.677456
H80	H	1.059252	-0.546729	-0.325513
O81	O	1.101884	-0.868369	-0.286620
H82	H	1.091497	-0.885284	-0.231767
O83	O	0.245120	-0.171124	-0.492446
H84	H	0.256426	-0.180372	-0.548425
H85	H	0.930567	-0.223617	-0.900488
H86	H	0.387862	-0.177128	-0.486908
O87	O	0.728993	-0.193975	-0.471319
H88	H	0.691292	-0.163178	-0.499680
H89	H	1.083220	-1.011202	-0.303796
H90	H	0.883649	-0.680436	-0.486579
O91	O	1.065322	-0.689469	-0.320028
H92	H	1.099512	-0.651520	-0.288652
H93	H	1.075171	-0.368242	-1.132668
H94	H	0.387166	-0.346575	-0.330807
H95	H	0.913482	-1.011813	-0.459418
O96	O	0.877566	-0.537684	-0.492059
H97	H	0.843363	-0.575633	-0.523420
H98	H	1.042206	-0.335344	-0.885129
H99	H	0.586151	-0.212667	-0.454131
O100	O	1.060028	-0.756868	-0.324951
H101	H	1.031540	-0.726343	-0.286664
O102	O	0.912704	-0.801681	-0.459978
H103	H	0.941190	-0.832212	-0.498262
O104	O	1.065010	-0.358277	-0.657538
H105	H	1.093315	-0.386573	-0.697780
H106	H	1.047873	-0.341068	-0.798837
