data_functionalizedCrystal
_audit_creation_method	'MofGen! by Chris Wilmer'
_symmetry_space_group_name_H-M	'P1'
_symmetry_Int_Tables_number	1
_symmetry_cell_setting	triclinic
loop_
_symmetry_equiv_pos_as_xyz
  x,y,z
_cell_length_a	12.645331
_cell_length_b	12.645330
_cell_length_c	16.625539
_cell_angle_alpha	90.026386
_cell_angle_beta	90.020779
_cell_angle_gamma	90.011625
loop_
_atom_site_label
_atom_site_type_symbol
_atom_site_fract_x
_atom_site_fract_y
_atom_site_fract_z
Zn1	Zn	1.620749	-0.422066	0.455925
Zn2	Zn	2.120749	0.077934	0.955925
Zn3	Zn	1.620652	-0.599352	0.321096
Zn4	Zn	2.120652	-0.099352	0.821096
Zn5	Zn	1.443469	-0.422100	0.321105
Zn6	Zn	1.943469	0.077900	0.821105
Zn7	Zn	1.443461	-0.599285	0.455886
Zn8	Zn	1.943461	-0.099285	0.955886
O9	O	1.532082	-0.510701	0.388503
O10	O	2.032082	-0.010701	0.888503
O11	O	1.769083	-0.445598	0.438052
O12	O	2.269083	0.054402	0.938052
O13	O	1.597111	-0.575882	0.208265
O14	O	2.097111	-0.075882	0.708265
O15	O	1.467030	-0.273748	0.339009
O16	O	1.967030	0.226252	0.839009
O17	O	1.769012	-0.575849	0.338994
O18	O	2.269012	-0.075849	0.838994
O19	O	1.597276	-0.273724	0.438060
O20	O	2.097276	0.226276	0.938060
O21	O	1.466936	-0.445655	0.208271
O22	O	1.966936	0.054345	0.708271
O23	O	1.295121	-0.445590	0.338971
O24	O	1.795121	0.054410	0.838971
O25	O	1.467015	-0.575734	0.568723
O26	O	1.967015	-0.075734	1.068723
O27	O	1.295114	-0.575767	0.437994
O28	O	1.795114	-0.075767	0.937994
O29	O	1.597268	-0.445532	0.568752
O30	O	2.097268	0.054468	1.068752
O31	O	1.597103	-0.747691	0.338957
O32	O	2.097103	-0.247691	0.838957
O33	O	1.466921	-0.747641	0.437986
O34	O	1.966921	-0.247641	0.937986
C35	C	1.256653	-0.510676	0.388480
C36	C	1.756653	-0.010676	0.888480
C37	C	1.138823	-0.510691	0.388489
C38	C	1.638823	-0.010691	0.888489
C39	C	0.971227	-0.428420	0.326537
C40	C	1.471227	0.071580	0.826537
C41	C	1.093787	-0.428632	0.326264
C42	C	1.593787	0.071368	0.826264
C43	C	1.094313	-0.622364	0.365276
C44	C	1.594313	-0.122364	0.865276
C45	C	0.971715	-0.621915	0.364853
C46	C	1.471715	-0.121915	0.864853
C47	C	0.971667	-0.482351	0.473892
C48	C	1.471667	0.017649	0.973892
C49	C	1.094273	-0.479856	0.473418
C50	C	1.594273	0.020144	0.973418
C51	C	1.532029	-0.786131	0.388484
C52	C	2.032029	-0.286131	0.888484
C53	C	1.532104	-0.903961	0.388503
C54	C	2.032104	-0.403961	0.888503
C55	C	1.613869	-1.071512	0.326077
C56	C	2.113869	-0.571512	0.826077
C57	C	1.614136	-0.948951	0.326230
C58	C	2.114136	-0.448951	0.826230
C59	C	1.562400	-0.948345	0.473495
C60	C	2.062400	-0.448345	0.973495
C61	C	1.563049	-1.070943	0.473164
C62	C	2.063049	-0.570943	0.973164
C63	C	1.420009	-1.071286	0.366773
C64	C	1.920009	-0.571286	0.866773
C65	C	1.420547	-0.948681	0.364867
C66	C	1.920547	-0.448681	0.864867
C67	C	1.808588	-0.510727	0.388527
C68	C	2.308588	-0.010727	0.888527
C69	C	1.926418	-0.510738	0.388537
C70	C	2.426418	-0.010738	0.888537
C71	C	1.532151	-0.510622	0.598812
C72	C	2.032151	-0.010622	1.098812
C73	C	1.532181	-0.510588	0.688433
C74	C	2.032181	-0.010588	1.188433
C75	C	1.532165	-0.234196	0.388540
C76	C	2.032165	0.265804	0.888540
C77	C	1.532200	-0.116366	0.388555
C78	C	2.032200	0.383634	0.888555
C79	C	1.532075	-0.510703	0.179012
C80	C	2.032075	-0.010703	0.679012
C81	C	1.532251	-0.510438	0.089391
C82	C	2.032251	-0.010438	0.589391
C83	C	1.532230	-0.510470	1.016609
C84	C	2.032230	-0.010470	1.516609
C85	C	1.532213	-0.510506	0.925300
C86	C	2.032213	-0.010506	1.425300
C87	C	1.532206	-0.510530	0.852524
C88	C	2.032206	-0.010530	1.352524
C89	C	1.532188	-0.510565	0.761210
C90	C	2.032188	-0.010565	1.261210
H91	H	0.943074	-0.645988	0.302454
H92	H	1.443074	-0.145988	0.802454
H93	H	1.124973	-0.646851	0.303547
H94	H	1.624973	-0.146851	0.803547
H95	H	1.595151	-1.101063	0.262872
H96	H	2.095151	-0.601063	0.762872
Br97	Br	1.582463	-0.898936	0.221205
Br98	Br	2.082463	-0.398936	0.721205
Br99	Br	1.142785	-0.342894	0.502605
Br100	Br	1.642785	0.157106	1.002605
H101	H	1.123069	-0.447395	0.263012
H102	H	1.623069	0.052605	0.763012
H103	H	1.123486	-0.685337	0.409016
H104	H	1.623486	-0.185337	0.909016
Br105	Br	1.751628	-1.122728	0.349818
Br106	Br	2.251628	-0.622728	0.849818
Br107	Br	0.922109	-0.289974	0.350524
Br108	Br	1.422109	0.210026	0.850524
Br109	Br	1.752633	-0.899929	0.350247
Br110	Br	2.252633	-0.399929	0.850247
H111	H	1.123880	-0.345822	0.340814
H112	H	1.623880	0.154178	0.840814
Br113	Br	1.382462	-0.900345	0.260619
Br114	Br	1.882462	-0.400345	0.760619
Br115	Br	0.919796	-0.459318	0.221735
Br116	Br	1.419796	0.040682	0.721735
Br117	Br	0.922305	-0.727604	0.436831
Br118	Br	1.422305	-0.227604	0.936831
H119	H	0.940762	-0.402340	0.495002
H120	H	1.440762	0.097660	0.995002
Br121	Br	1.145367	-0.572502	0.554534
Br122	Br	1.645367	-0.072502	1.054534
Br123	Br	0.923375	-0.582282	0.550888
Br124	Br	1.423375	-0.082282	1.050888
Br125	Br	1.699729	-1.118475	0.503916
Br126	Br	2.199729	-0.618475	1.003916
H127	H	1.506170	-1.100610	0.521319
H128	H	2.006170	-0.600610	1.021319
Br129	Br	1.466266	-0.899787	0.553165
Br130	Br	1.966266	-0.399787	1.053165
Br131	Br	1.697538	-0.897036	0.504765
Br132	Br	2.197538	-0.397036	1.004765
Br133	Br	1.374086	-1.122969	0.265275
Br134	Br	1.874086	-0.622969	0.765275
H135	H	1.356414	-0.918066	0.407037
H136	H	1.856414	-0.418066	0.907037
H137	H	1.359159	-1.100293	0.412279
H138	H	1.859159	-0.600293	0.912279
