data_functionalizedCrystal
_audit_creation_method	'MofGen! by Chris Wilmer'
_symmetry_space_group_name_H-M	'P1'
_symmetry_Int_Tables_number	1
_symmetry_cell_setting	triclinic
loop_
_symmetry_equiv_pos_as_xyz
  x,y,z
_cell_length_a	14.908571
_cell_length_b	13.033304
_cell_length_c	13.032268
_cell_angle_alpha	90.922231
_cell_angle_beta	80.015942
_cell_angle_gamma	100.875729
loop_
_atom_site_label
_atom_site_type_symbol
_atom_site_fract_x
_atom_site_fract_y
_atom_site_fract_z
Zn1	Zn	0.284814	-1.477283	-0.797844
Zn2	Zn	0.416357	-1.489246	-0.633409
Zn3	Zn	0.279977	-1.327503	-0.603738
Zn4	Zn	0.454511	-1.292661	-0.785630
O5	O	0.358914	-1.396673	-0.705155
O6	O	0.288320	-1.623825	-0.793560
O7	O	0.380274	-1.487379	-0.484534
O8	O	0.152524	-1.356947	-0.622181
O9	O	0.384964	-1.632614	-0.672750
O10	O	0.156078	-1.466989	-0.764790
O11	O	0.280076	-1.368547	-0.462735
O12	O	0.317072	-1.177927	-0.610337
O13	O	0.449992	-1.297563	-0.932189
O14	O	0.445302	-1.152328	-0.743972
O15	O	0.325316	-1.433204	-0.941162
O16	O	0.549512	-1.453594	-0.660907
O17	O	0.577544	-1.309164	-0.772743
C18	C	0.596741	-1.378921	-0.718745
C19	C	0.698480	-1.371417	-0.724605
C20	C	0.384803	-1.127542	-0.672611
C21	C	0.395903	-1.012402	-0.658714
C22	C	0.856500	-1.285600	-0.791023
C23	C	0.760908	-1.292648	-0.785524
C24	C	0.731648	-1.443146	-0.669184
C25	C	0.827239	-1.436098	-0.674683
C26	C	0.889662	-1.357322	-0.735603
C27	C	0.985255	-1.350270	-0.741096
C28	C	0.955993	-1.500772	-0.624762
C29	C	0.860401	-1.507819	-0.619263
C30	C	1.120161	-1.414488	-0.691523
C31	C	1.018423	-1.421999	-0.685674
C32	C	0.353133	-0.956700	-0.712395
C33	C	0.364605	-0.837696	-0.698033
C34	C	0.392450	-1.360163	-0.975307
C35	C	0.406740	-1.344604	-1.090430
C36	C	0.332920	-0.666857	-0.737820
C37	C	0.321829	-0.781996	-0.751721
C38	C	0.351425	-1.404780	-1.146196
C39	C	0.366193	-1.388701	-1.265181
C40	C	0.325438	-1.433106	-0.436057
C41	C	0.310870	-1.448885	-0.320944
H42	H	0.907326	-1.221458	-0.840628
H43	H	0.465027	-1.281175	-1.130775
C44	C	0.314937	-0.885927	-0.904958
C45	C	0.260927	-0.836531	-0.828128
H46	H	0.277339	-0.919588	-0.952130
H47	H	0.340271	-0.936294	-0.873139
H48	H	0.363820	-0.835394	-0.941720
H49	H	0.212047	-0.887065	-0.791361
H50	H	0.235579	-0.786159	-0.859950
C51	C	0.668696	-1.159290	-0.776773
C52	C	0.724454	-1.213809	-0.846440
H53	H	0.646188	-1.110622	-0.814386
H54	H	0.704237	-1.123055	-0.728986
H55	H	0.617839	-1.207221	-0.739711
H56	H	0.775315	-1.165879	-0.883496
H57	H	0.688912	-1.250046	-0.894246
C58	C	0.572118	-1.520773	-0.609116
C59	C	0.663023	-1.529735	-0.602230
H60	H	0.529753	-1.574228	-0.567776
H61	H	0.563620	-1.527625	-0.679638
H62	H	0.561327	-1.454391	-0.584585
H63	H	0.673816	-1.596114	-0.626768
H64	H	0.671524	-1.522892	-0.531694
H65	H	0.252570	-1.512307	-1.280603
H66	H	1.036079	-1.286129	-0.790703
H67	H	0.293130	-1.468199	-1.105849
C68	C	0.444298	-1.303728	-1.426964
C69	C	0.444898	-1.303081	-1.319632
H70	H	0.492891	-1.250876	-1.460579
H71	H	0.386441	-1.290785	-1.439297
H72	H	0.453172	-1.369961	-1.453810
H73	H	0.436017	-1.236850	-1.292785
H74	H	0.502769	-1.316017	-1.307293
C75	C	0.841081	-1.655865	-0.504810
C76	C	0.791782	-1.594403	-0.552296
H77	H	0.798717	-1.709320	-0.463469
H78	H	0.877828	-1.613367	-0.461855
H79	H	0.880119	-1.686604	-0.556906
H80	H	0.752749	-1.563658	-0.500199
H81	H	0.755018	-1.636907	-0.595253
C82	C	1.048087	-1.634239	-0.633658
C83	C	0.992385	-1.579728	-0.563913
H84	H	1.070530	-1.683015	-0.596111
H85	H	1.098979	-1.586327	-0.670658
H86	H	1.012520	-1.670358	-0.681494
H87	H	1.027953	-1.543602	-0.516081
H88	H	0.941485	-1.627646	-0.526896
C89	C	0.346248	-1.060643	-0.865621
C90	C	0.292236	-1.011245	-0.788796
H91	H	0.308652	-1.094310	-0.912792
H92	H	0.371586	-1.111005	-0.833799
H93	H	0.395130	-1.010109	-0.902386
H94	H	0.243359	-1.061781	-0.752025
H95	H	0.266885	-0.960879	-0.820621
H96	H	0.441011	-0.971988	-0.602121
C97	C	0.497562	-0.708690	-0.675857
C98	C	0.425511	-0.783157	-0.621633
H99	H	0.535164	-0.675025	-0.628691
H100	H	0.472212	-0.658329	-0.707662
H101	H	0.534184	-0.742220	-0.727982
H102	H	0.388885	-0.749626	-0.569512
H103	H	0.450862	-0.833526	-0.589811
