data_functionalizedCrystal
_audit_creation_method	'MofGen! by Chris Wilmer'
_symmetry_space_group_name_H-M	'P1'
_symmetry_Int_Tables_number	1
_symmetry_cell_setting	triclinic
loop_
_symmetry_equiv_pos_as_xyz
  x,y,z
_cell_length_a	19.121102
_cell_length_b	21.395361
_cell_length_c	21.395356
_cell_angle_alpha	90.031183
_cell_angle_beta	87.544846
_cell_angle_gamma	92.415181
loop_
_atom_site_label
_atom_site_type_symbol
_atom_site_fract_x
_atom_site_fract_y
_atom_site_fract_z
Zn1	Zn	1.073670	0.290378	-0.395055
Zn2	Zn	1.073577	0.395152	-0.290268
Zn3	Zn	0.956226	0.285919	-0.285828
Zn4	Zn	0.956175	0.390643	-0.390546
O5	O	1.014912	0.340523	-0.340424
O6	O	1.171941	0.308030	-0.384900
O7	O	1.057993	0.380683	-0.202001
O8	O	0.971866	0.198835	-0.300345
O9	O	1.171873	0.385007	-0.307913
O10	O	1.058151	0.202111	-0.380594
O11	O	0.971776	0.300430	-0.198738
O12	O	0.857936	0.296058	-0.295974
O13	O	0.971779	0.377322	-0.478823
O14	O	0.857898	0.372998	-0.372910
O15	O	1.058101	0.303657	-0.482135
O16	O	1.057943	0.482229	-0.303542
O17	O	0.971689	0.478917	-0.377216
C18	C	0.832433	0.333555	-0.333471
C19	C	0.754368	0.330589	-0.330512
C20	C	1.014819	0.503307	-0.340386
C21	C	1.014844	0.572949	-0.340393
C22	C	1.014945	0.340484	-0.503849
C23	C	1.014959	0.340467	-0.573491
C24	C	0.717691	0.369315	-0.369115
C25	C	0.644341	0.366520	-0.366337
C26	C	0.607668	0.325002	-0.324952
C27	C	0.644349	0.286272	-0.286348
C28	C	0.717699	0.289064	-0.289129
C29	C	0.386200	0.314562	-0.314556
C30	C	0.312846	0.311774	-0.311776
C31	C	0.312842	0.392021	-0.391767
C32	C	0.386193	0.394812	-0.394542
C33	C	0.422868	0.356080	-0.355940
C34	C	0.532691	0.322146	-0.322110
C35	C	0.497843	0.358934	-0.358785
C36	C	1.198104	0.347518	-0.347405
C37	C	1.276169	0.350499	-0.350379
C38	C	1.015024	0.177104	-0.340477
C39	C	1.015072	0.107464	-0.340500
C40	C	1.059797	0.607368	-0.302073
C41	C	1.059829	0.672805	-0.302089
C42	C	1.014897	0.703820	-0.340416
C43	C	0.969941	0.669393	-0.378743
C44	C	0.969915	0.603958	-0.378732
C45	C	0.951657	0.805123	-0.342923
C46	C	0.951682	0.870557	-0.342930
C47	C	1.014979	0.905643	-0.340456
C48	C	1.078251	0.875288	-0.337962
C49	C	1.078225	0.809853	-0.337950
C50	C	1.014921	0.774773	-0.340434
C51	C	1.059970	1.011016	-0.302151
C52	C	1.060004	1.076454	-0.302171
C53	C	0.970110	1.073041	-0.378822
C54	C	0.970082	1.007604	-0.378806
C55	C	1.015012	0.976596	-0.340467
C56	C	1.059973	0.302013	-1.077015
C57	C	1.059967	0.302028	-1.011580
C58	C	1.015019	0.340386	-0.977131
C59	C	0.970085	0.378744	-1.008125
C60	C	0.970097	0.378733	-1.073559
C61	C	0.951719	0.342935	-0.871049
C62	C	0.951706	0.342942	-0.805616
C63	C	1.014983	0.340425	-0.775309
C64	C	1.078274	0.337888	-0.810444
C65	C	1.078286	0.337876	-0.875879
C66	C	1.015001	0.340403	-0.906178
C67	C	1.059911	0.302089	-0.673371
C68	C	1.059907	0.302108	-0.607934
C69	C	0.970018	0.378821	-0.604480
C70	C	0.970029	0.378805	-0.669916
C71	C	1.014974	0.340435	-0.704358
C72	C	1.014920	0.340518	-0.177637
C73	C	1.015042	0.340363	-0.108001
H74	H	0.747545	0.403126	-0.402813
H75	H	1.096382	0.582123	-0.270857
H76	H	0.282973	0.423554	-0.423196
H77	H	1.096557	0.985768	-0.270935
O78	O	0.890232	0.900072	-0.345245
C79	C	0.811597	0.971082	-0.294319
C80	C	0.881199	0.937685	-0.291609
H81	H	0.804278	1.001510	-0.250967
H82	H	0.766319	0.934797	-0.296056
H83	H	0.812689	1.001699	-0.337971
H84	H	0.880176	0.907071	-0.247961
H85	H	0.926446	0.974003	-0.289905
O86	O	0.497029	0.281904	-0.281846
C87	C	0.414124	0.270202	-0.194174
C88	C	0.454486	0.315850	-0.239715
H89	H	0.379707	0.297628	-0.160107
H90	H	0.452896	0.243005	-0.167007
H91	H	0.379851	0.236167	-0.221727
H92	H	0.488760	0.349922	-0.212210
H93	H	0.415676	0.343001	-0.266883
H94	H	0.933489	0.409977	-0.980073
H95	H	0.614484	0.252465	-0.252654
H96	H	1.096614	1.104477	-0.270968
H97	H	1.096574	0.270773	-1.105054
H98	H	0.933528	1.098292	-0.410032
O99	O	0.753220	0.251426	-0.251563
C100	C	0.745487	0.171516	-0.171951
C101	C	0.705173	0.214119	-0.214449
H102	H	0.706659	0.141333	-0.141944
H103	H	0.779778	0.201516	-0.140396
H104	H	0.779877	0.140127	-0.202090
H105	H	0.670745	0.245514	-0.184359
H106	H	0.670927	0.184081	-0.246008
O107	O	0.926177	0.570614	-0.415972
C108	C	0.837052	0.574135	-0.492031
C109	C	0.886538	0.611974	-0.449877
H110	H	0.805002	0.607558	-0.519464
H111	H	0.800287	0.542168	-0.461863
H112	H	0.869274	0.544660	-0.526009
H113	H	0.854373	0.641484	-0.415892
H114	H	0.923305	0.643901	-0.480085
O115	O	0.277288	0.271471	-0.271497
C116	C	0.254748	0.240070	-0.164130
C117	C	0.295079	0.285738	-0.209671
H118	H	0.269106	0.251597	-0.114133
H119	H	0.269206	0.190102	-0.175729
H120	H	0.196030	0.244728	-0.168816
H121	H	0.353806	0.281136	-0.205010
H122	H	0.280563	0.335688	-0.198058
H123	H	0.933423	0.410055	-0.576433
O124	O	0.608686	0.404052	-0.403900
C125	C	0.525882	0.409456	-0.485318
C126	C	0.566227	0.366876	-0.442822
H127	H	0.491533	0.379417	-0.516788
H128	H	0.564665	0.439599	-0.515413
H129	H	0.491542	0.440884	-0.455175
H130	H	0.600567	0.335410	-0.472917
H131	H	0.527405	0.336776	-0.412724
H132	H	1.096438	0.700834	-0.270885
H133	H	0.933474	0.979578	-0.410007
H134	H	1.096508	0.270846	-0.701415
H135	H	0.416052	0.283028	-0.283118
O136	O	1.103578	0.264795	-0.577931
C137	C	1.192756	0.188726	-0.588266
C138	C	1.143322	0.230942	-0.622324
H139	H	1.224912	0.161354	-0.624143
H140	H	1.160558	0.154703	-0.556430
H141	H	1.229430	0.218905	-0.559004
H142	H	1.106637	0.200813	-0.651619
H143	H	1.175564	0.264967	-0.654122
H144	H	1.129743	0.785138	-0.335921
O145	O	0.533386	0.399347	-0.398951
C146	C	0.555831	0.506820	-0.429985
C147	C	0.515515	0.461119	-0.384468
H148	H	0.541408	0.556774	-0.418284
H149	H	0.541425	0.495392	-0.479993
H150	H	0.614551	0.502127	-0.425350
H151	H	0.456785	0.465787	-0.389047
H152	H	0.529978	0.472561	-0.334479
O153	O	0.421706	0.435159	-0.434799
C154	C	0.413959	0.514487	-0.513816
C155	C	0.373653	0.468810	-0.468267
H156	H	0.375126	0.541716	-0.540877
H157	H	0.448312	0.487104	-0.547975
H158	H	0.448287	0.548489	-0.486277
H159	H	0.339287	0.434798	-0.495753
H160	H	0.339345	0.496234	-0.434107
O161	O	0.890102	0.771138	-0.345308
C162	C	0.764570	0.773353	-0.350286
C163	C	0.834225	0.811915	-0.347566
H164	H	0.719377	0.806304	-0.352126
H165	H	0.757118	0.742484	-0.306897
H166	H	0.765659	0.742715	-0.393899
H167	H	0.833186	0.842589	-0.303981
H168	H	0.841650	0.842743	-0.390985
H169	H	0.933438	0.410031	-0.695145
H170	H	1.129793	0.903854	-0.335948
O171	O	0.890168	0.345431	-0.771584
C172	C	0.764627	0.350404	-0.773702
C173	C	0.834271	0.347605	-0.812317
H174	H	0.719415	0.352149	-0.806618
H175	H	0.765633	0.394045	-0.743102
H176	H	0.757272	0.307041	-0.742789
H177	H	0.841670	0.390936	-0.843265
H178	H	0.833233	0.303936	-0.842875
H179	H	1.096555	0.270796	-0.986346
H180	H	0.933358	0.694649	-0.409951
H181	H	1.129820	0.335812	-0.904483
H182	H	1.129800	0.335836	-0.785770
O183	O	0.890281	0.345290	-0.900553
C184	C	0.811592	0.294326	-0.971411
C185	C	0.881192	0.291590	-0.938052
H186	H	0.804214	0.250908	-1.001726
H187	H	0.812634	0.337916	-1.002114
H188	H	0.766373	0.296163	-0.935047
H189	H	0.926449	0.289729	-0.974372
H190	H	0.880090	0.248006	-0.907337
O191	O	0.926380	0.416003	-1.103562
C192	C	0.837255	0.492121	-1.093233
C193	C	0.886718	0.449934	-1.059174
H194	H	0.805186	0.519575	-1.057360
H195	H	0.800506	0.461976	-1.122457
H196	H	0.869496	0.526078	-1.125104
H197	H	0.854533	0.415971	-1.027270
H198	H	0.923469	0.480118	-1.029989
