data_functionalizedCrystal
_audit_creation_method	'MofGen! by Chris Wilmer'
_symmetry_space_group_name_H-M	'P1'
_symmetry_Int_Tables_number	1
_symmetry_cell_setting	triclinic
loop_
_symmetry_equiv_pos_as_xyz
  x,y,z
_cell_length_a	18.215407
_cell_length_b	19.805405
_cell_length_c	18.215399
_cell_angle_alpha	90.028342
_cell_angle_beta	90.016885
_cell_angle_gamma	90.024169
loop_
_atom_site_label
_atom_site_type_symbol
_atom_site_fract_x
_atom_site_fract_y
_atom_site_fract_z
Zn1	Zn	1.125059	-0.269514	0.416068
Zn2	Zn	1.124964	-0.382705	0.293001
Zn3	Zn	1.001993	-0.269531	0.293020
Zn4	Zn	1.001953	-0.382661	0.416032
O5	O	1.063492	-0.326103	0.354530
O6	O	1.228031	-0.284540	0.399750
O7	O	1.108629	-0.367718	0.190020
O8	O	1.018374	-0.174812	0.309366
O9	O	1.227961	-0.367702	0.309334
O10	O	1.108790	-0.174799	0.399768
O11	O	1.018282	-0.284569	0.190033
O12	O	0.899003	-0.284526	0.309331
O13	O	1.018307	-0.367626	0.519021
O14	O	0.898974	-0.367642	0.399707
O15	O	1.108752	-0.284497	0.519047
O16	O	1.108591	-0.477416	0.309299
O17	O	1.018215	-0.477383	0.399688
C18	C	0.872286	-0.326082	0.354517
C19	C	0.790487	-0.326089	0.354529
C20	C	0.602328	-0.282876	0.401683
C21	C	0.525470	-0.282882	0.401686
C22	C	0.525408	-0.369348	0.307390
C23	C	0.602266	-0.369338	0.307384
C24	C	0.640724	-0.326103	0.354535
C25	C	0.487008	-0.326119	0.354543
C26	C	0.403674	-0.326125	0.354546
C27	C	0.724063	-0.326096	0.354532
C28	C	1.063409	-0.501959	0.354504
C29	C	1.063440	-0.577191	0.354517
C30	C	1.110492	-0.612470	0.401626
C31	C	1.110518	-0.683158	0.401640
C32	C	1.063496	-0.718566	0.354540
C33	C	1.016439	-0.683282	0.307428
C34	C	1.016409	-0.612595	0.307419
C35	C	1.016557	-0.968355	0.307466
C36	C	1.016592	-1.039047	0.307478
C37	C	1.110666	-1.038919	0.401687
C38	C	1.110637	-0.968232	0.401678
C39	C	1.063577	-0.932953	0.354569
C40	C	1.063548	-0.856305	0.354556
C41	C	1.063529	-0.795213	0.354549
C42	C	1.255445	-0.326124	0.354544
C43	C	1.337244	-0.326133	0.354549
C44	C	1.063536	-0.326055	0.546483
C45	C	1.063554	-0.326034	0.628282
C46	C	1.063597	-0.149560	0.354573
C47	C	1.063641	-0.074328	0.354591
C48	C	1.063492	-0.326101	0.163324
C49	C	1.063616	-0.325931	0.081525
C50	C	1.110676	-0.282691	0.893355
C51	C	1.110667	-0.282709	0.816496
C52	C	1.016492	-0.369280	0.816458
C53	C	1.016505	-0.369264	0.893316
C54	C	1.063596	-0.325966	0.931762
C55	C	1.063574	-0.326000	0.778046
C56	C	1.063564	-0.326020	0.694712
C57	C	1.063607	-0.325946	1.015101
H58	H	1.148786	-0.583646	0.439977
H59	H	0.633639	-0.247669	0.440074
H60	H	0.494212	-0.247681	0.440077
O61	O	0.487935	-0.411327	0.261664
C62	C	0.369505	-0.449637	0.219852
C63	C	0.411850	-0.402071	0.271686
H64	H	0.307983	-0.442160	0.227926
H65	H	0.384551	-0.504242	0.232673
H66	H	0.384642	-0.437689	0.160540
H67	H	0.396736	-0.413958	0.331015
H68	H	0.396800	-0.347480	0.258802
H69	H	0.633528	-0.404540	0.268987
O70	O	0.970954	-0.934014	0.261667
C71	C	0.961082	-0.854301	0.162259
C72	C	1.012811	-0.893143	0.214094
H73	H	0.994903	-0.821258	0.123773
H74	H	0.922578	-0.821172	0.195967
H75	H	0.927465	-0.891762	0.128628
H76	H	1.046475	-0.855731	0.247737
H77	H	1.051267	-0.926282	0.180344
H78	H	1.148982	-1.067651	0.440047
H79	H	1.148839	-0.711880	0.439995
H80	H	1.149020	-0.247434	0.924656
O81	O	1.156337	-0.933942	0.447500
C82	C	1.249679	-0.941277	0.540921
C83	C	1.197951	-0.980192	0.489073
H84	H	1.283349	-0.978653	0.574536
H85	H	1.215888	-0.908206	0.579416
H86	H	1.288134	-0.908154	0.507152
H87	H	1.159486	-1.013352	0.522783
H88	H	1.231788	-1.013221	0.450577
O89	O	0.970656	-0.717645	0.261754
C90	C	0.845506	-0.739359	0.225893
C91	C	0.897269	-0.700415	0.277679
H92	H	0.786163	-0.725432	0.238739
H93	H	0.853547	-0.795950	0.233992
H94	H	0.858496	-0.725492	0.166566
H95	H	0.884311	-0.714226	0.337025
H96	H	0.889219	-0.643834	0.269516
H97	H	0.978298	-1.067874	0.269122
H98	H	0.978094	-0.583871	0.269059
H99	H	1.149005	-0.247470	0.785228
O100	O	0.970875	-0.411380	0.930659
C101	C	0.960955	-0.502723	1.017433
C102	C	1.012707	-0.455078	0.975176
H103	H	0.994754	-0.538055	1.053447
H104	H	0.927308	-0.533718	0.976784
H105	H	0.922480	-0.471630	1.053392
H106	H	1.051226	-0.486119	0.939217
H107	H	1.046302	-0.424081	1.015865
O108	O	0.970769	-0.411269	0.778996
C109	C	0.929038	-0.449686	0.660577
C110	C	0.980847	-0.402089	0.702908
H111	H	0.937179	-0.442290	0.599052
H112	H	0.869690	-0.437792	0.675631
H113	H	0.941927	-0.504254	0.675716
H114	H	0.968025	-0.347505	0.687792
H115	H	1.040180	-0.414041	0.687850
