data_functionalizedCrystal
_audit_creation_method	'MofGen! by Chris Wilmer'
_symmetry_space_group_name_H-M	'P1'
_symmetry_Int_Tables_number	1
_symmetry_cell_setting	triclinic
loop_
_symmetry_equiv_pos_as_xyz
  x,y,z
_cell_length_a	26.374263
_cell_length_b	26.373608
_cell_length_c	26.370205
_cell_angle_alpha	60.005297
_cell_angle_beta	60.010839
_cell_angle_gamma	59.993700
loop_
_atom_site_label
_atom_site_type_symbol
_atom_site_fract_x
_atom_site_fract_y
_atom_site_fract_z
O1	O	0.070152	-0.740800	0.619517
O2	O	0.026377	-0.576764	0.499159
O3	O	0.130245	-0.680560	0.499088
O4	O	-0.033715	-0.637003	0.619589
O5	O	0.164701	-0.646107	0.533470
O6	O	0.060833	-0.542310	0.533541
O7	O	0.104608	-0.706346	0.653899
Cu8	Cu	0.085867	-0.621182	0.596859
Cu9	Cu	0.045119	-0.661927	0.556199
O10	O	0.000741	-0.602549	0.653971
N11	N	0.114528	-0.592529	0.625461
N12	N	0.016463	-0.690587	0.527598
C13	C	0.181428	-0.355400	0.692330
C14	C	0.181530	-0.525690	0.862573
C15	C	0.181440	-0.525667	0.692313
C16	C	0.351736	-0.525673	0.692271
C17	C	0.200174	-0.411588	0.711047
C18	C	0.200232	-0.506954	0.806384
C19	C	0.295546	-0.506943	0.711016
C20	C	0.200182	-0.506940	0.711037
C21	C	0.157567	-0.283881	0.668507
C22	C	0.157587	-0.549500	0.668479
C23	C	0.224035	-0.483107	0.734871
C24	C	0.455739	-0.507754	0.637520
C25	C	0.520749	-0.529425	0.615835
C26	C	0.520768	-0.634611	0.655947
C27	C	0.455759	-0.612939	0.677633
C28	C	0.173240	-0.251367	0.604595
C29	C	0.151546	-0.186351	0.582941
C30	C	0.098512	-0.186369	0.689113
C31	C	0.120206	-0.251385	0.710768
C32	C	0.093669	-0.533798	0.684205
C33	C	0.071992	-0.555464	0.662532
C34	C	0.178144	-0.608536	0.609422
C35	C	0.199825	-0.586869	0.631088
C36	C	0.093821	-0.533842	0.966616
C37	C	0.072187	-0.555526	1.031630
C38	C	0.178370	-0.608608	1.031591
C39	C	0.200004	-0.586926	0.966576
C40	C	0.157728	-0.549541	0.934090
C41	C	0.423247	-0.549509	0.668416
C42	C	-0.097522	-0.709158	0.508557
C43	C	-0.002050	-0.709295	0.413344
C44	C	-0.002241	-0.804604	0.508735
C45	C	-0.002225	-0.709288	0.508793
C46	C	-0.026009	-0.733087	0.484858
N47	N	0.552340	-0.592538	0.625346
O48	O	0.750867	-0.598274	0.477076
O49	O	0.751048	-0.718989	0.640960
O50	O	0.750981	-0.718715	0.537020
O51	O	0.750934	-0.598547	0.581017
O52	O	0.647701	-0.684348	0.571512
O53	O	0.647768	-0.684622	0.675452
O54	O	0.647587	-0.563907	0.511569
Cu55	Cu	0.638247	-0.621127	0.596660
Cu56	Cu	0.760388	-0.661769	0.555869
O57	O	0.647654	-0.564181	0.615509
N58	N	0.846295	-0.690358	0.527176
N59	N	0.114503	-0.154778	0.625499
O60	O	-0.033701	0.043855	0.619632
O61	O	0.130190	0.043858	0.498933
O62	O	0.026233	0.043841	0.499224
O63	O	0.070257	0.043872	0.619341
O64	O	0.060690	-0.059448	0.533654
O65	O	0.164647	-0.059431	0.533363
O66	O	0.000756	-0.059434	0.654062
Cu67	Cu	0.085848	-0.068863	0.596857
Cu68	Cu	0.045099	0.053287	0.556138
O69	O	0.104714	-0.059417	0.653771
N70	N	0.016435	0.139202	0.527497
N71	N	0.114760	-0.592585	1.063190
O72	O	0.108896	-0.740779	1.261808
O73	O	-0.011787	-0.576838	1.261822
O74	O	-0.011509	-0.680779	1.261780
O75	O	0.108618	-0.636838	1.261850
O76	O	0.022916	-0.646341	1.158496
O77	O	0.022638	-0.542399	1.158538
O78	O	0.143321	-0.706341	1.158524
Cu79	Cu	0.086123	-0.621225	1.149100
Cu80	Cu	0.045411	-0.661953	1.271246
O81	O	0.143044	-0.602399	1.158566
N82	N	0.016774	-0.690600	1.357156
C83	C	0.039504	-0.538867	0.499769
C84	C	0.168130	-0.667407	0.499680
C85	C	0.091482	-0.744243	0.653289
C86	C	-0.037145	-0.615703	0.653378
C87	C	0.699429	-0.718429	0.678853
C88	C	0.699348	-0.718091	0.550135
C89	C	0.699202	-0.564465	0.473677
C90	C	0.699287	-0.564805	0.602393
C91	C	0.168023	-0.007659	0.499484
C92	C	0.039327	-0.007807	0.499887
C93	C	-0.037119	-0.007789	0.653468
C94	C	0.091620	-0.007770	0.653109
C95	C	-0.011194	-0.538964	1.210181
C96	C	-0.010843	-0.667676	1.210109
C97	C	0.142729	-0.744214	1.210165
C98	C	0.142386	-0.615494	1.210214
H99	H	0.059391	-0.503396	0.940172
H100	H	0.180125	-0.606093	1.210228
H101	H	-0.084239	-0.606419	0.691217
H102	H	0.699142	-0.526565	0.426612
H103	H	0.101045	-0.007760	0.690842
H104	H	0.100832	-0.791364	0.691090
H105	H	0.029900	-0.007810	0.462151
H106	H	-0.049082	-0.491880	1.210184
C107	C	0.699495	-0.769630	0.742437
C108	C	0.699517	-0.757218	0.793617
C109	C	0.699583	-0.808418	0.857201
C110	C	0.699627	-0.872031	0.869604
C111	C	0.699605	-0.884445	0.818422
C112	C	0.699539	-0.833245	0.754838
H113	H	0.699484	-0.710126	0.784437
H114	H	0.699599	-0.799228	0.895090
H115	H	0.699676	-0.909932	0.916673
H116	H	0.699638	-0.931537	0.827602
H117	H	0.699523	-0.842435	0.716950
H118	H	-0.084187	-0.007791	0.691362
H119	H	0.699278	-0.527058	0.611808
C120	C	0.001886	-0.538244	1.067403
C121	C	-0.027596	-0.589633	1.112095
C122	C	-0.097897	-0.572354	1.147868
C123	C	-0.138717	-0.503684	1.138948
C124	C	-0.109235	-0.452290	1.094254
C125	C	-0.038934	-0.469570	1.058481
H126	H	0.002621	-0.640470	1.118699
H127	H	-0.119721	-0.610399	1.180953
H128	H	-0.190758	-0.490893	1.165429
H129	H	-0.139453	-0.401453	1.087650
H130	H	-0.017110	-0.431524	1.025396
H131	H	-0.048566	-0.677061	1.210046
H132	H	0.180620	-0.791296	1.210154
H133	H	0.212798	-0.639038	1.058038
H134	H	0.699366	-0.755841	0.540718
H135	H	0.214995	-0.007372	0.461496
H136	H	0.252044	-0.599714	0.940097
H137	H	0.019945	-0.542665	0.675322
C138	C	0.047208	-0.492685	0.725326
C139	C	-0.023099	-0.475405	0.742611
C140	C	-0.069561	-0.434290	0.783733
C141	C	-0.045717	-0.410455	0.807570
C142	C	0.024593	-0.427735	0.790285
C143	C	0.071056	-0.468850	0.749164
H144	H	-0.040753	-0.493049	0.724966
H145	H	-0.121610	-0.421499	0.796528
H146	H	-0.080111	-0.380020	0.838011
H147	H	0.042247	-0.410091	0.807931
H148	H	0.123104	-0.481641	0.736368
C149	C	0.214334	-0.287111	0.558107
C150	C	0.231565	-0.251345	0.487803
C151	C	0.272660	-0.287092	0.441317
C152	C	0.296524	-0.358606	0.465135
C153	C	0.279293	-0.394377	0.535442
C154	C	0.238199	-0.358629	0.581929
H155	H	0.213899	-0.198402	0.470169
H156	H	0.285415	-0.260612	0.389271
H157	H	0.326945	-0.385069	0.430723
H158	H	0.296959	-0.447320	0.553077
H159	H	0.225443	-0.385110	0.633975
H160	H	0.212545	-0.638970	0.578981
H161	H	0.251872	-0.599651	0.618278
H162	H	0.547237	-0.686258	0.663446
C163	C	0.420024	-0.658876	0.711612
C164	C	0.428999	-0.712117	0.771983
C165	C	0.393266	-0.758059	0.805959
C166	C	0.348559	-0.750760	0.779563
C167	C	0.339582	-0.697516	0.719188
C168	C	0.375315	-0.651575	0.685212
H169	H	0.462096	-0.717523	0.791526
H170	H	0.399911	-0.797473	0.850652
H171	H	0.322107	-0.784768	0.804713
H172	H	0.306485	-0.692111	0.699645
H173	H	0.368669	-0.612160	0.640519
C174	C	0.556496	-0.483493	0.581844
C175	C	0.547578	-0.443984	0.615084
C176	C	0.583326	-0.398052	0.581088
C177	C	0.627991	-0.391629	0.513851
C178	C	0.636911	-0.431139	0.480607
C179	C	0.601163	-0.477071	0.514604
H180	H	0.514513	-0.448737	0.664860
H181	H	0.576723	-0.368805	0.605697
H182	H	0.654454	-0.357628	0.488685
H183	H	0.669976	-0.426386	0.430831
H184	H	0.607766	-0.506319	0.489994
C185	C	0.419972	-0.437979	0.627385
C186	C	0.428884	-0.390707	0.561045
C187	C	0.393120	-0.320933	0.550908
C188	C	0.348444	-0.298432	0.607111
C189	C	0.339531	-0.345705	0.673456
C190	C	0.375295	-0.415479	0.683593
H191	H	0.461957	-0.407363	0.519435
H192	H	0.399718	-0.285938	0.501794
H193	H	0.321970	-0.246781	0.599607
H194	H	0.306458	-0.329050	0.715065
H195	H	0.368696	-0.450474	0.732707
C196	C	0.168783	-0.150577	0.512634
C197	C	0.204953	-0.105873	0.483137
C198	C	0.222189	-0.070102	0.412830
C199	C	0.203254	-0.079034	0.372021
C200	C	0.167081	-0.123741	0.401518
C201	C	0.149846	-0.159512	0.471825
H202	H	0.218972	-0.099259	0.513347
H203	H	0.248966	-0.037007	0.390995
H204	H	0.216012	-0.052554	0.319976
H205	H	0.153063	-0.130355	0.371309
H206	H	0.123068	-0.192607	0.493660
C207	C	0.057418	-0.150620	0.735599
C208	C	0.040187	-0.186387	0.805903
C209	C	-0.000908	-0.150639	0.852390
C210	C	-0.024773	-0.079125	0.828572
C211	C	-0.007542	-0.043354	0.758265
C212	C	0.033554	-0.079101	0.711778
H213	H	0.057854	-0.239329	0.823537
H214	H	-0.013663	-0.177120	0.904436
H215	H	-0.055194	-0.052663	0.862984
H216	H	-0.025208	0.009589	0.740630
H217	H	0.046309	-0.052621	0.659732
C218	C	0.102966	-0.287148	0.781073
C219	C	0.154378	-0.331846	0.810554
C220	C	0.137136	-0.367610	0.880862
C221	C	0.068481	-0.358677	0.921689
C222	C	0.017065	-0.313977	0.892208
C223	C	0.034307	-0.278213	0.821900
H224	H	0.205204	-0.338460	0.780331
H225	H	0.175198	-0.400699	0.902685
H226	H	0.055718	-0.385151	0.973735
H227	H	-0.033761	-0.307363	0.922431
H228	H	-0.003755	-0.245124	0.800077
C229	C	0.026879	-0.475213	0.448698
C230	C	-0.036780	-0.424143	0.461298
C231	C	-0.049405	-0.360489	0.410227
C232	C	0.001629	-0.347904	0.346556
C233	C	0.065292	-0.398975	0.333953
C234	C	0.077917	-0.462629	0.385024
H235	H	-0.074563	-0.433458	0.508434
H236	H	-0.096533	-0.322682	0.419557
H237	H	-0.007717	-0.300783	0.308750
H238	H	0.103074	-0.389660	0.286817
H239	H	0.125045	-0.500435	0.375694
H240	H	0.215222	-0.676694	0.461838
