data_functionalizedCrystal
_audit_creation_method	'MofGen! by Chris Wilmer'
_symmetry_space_group_name_H-M	'P1'
_symmetry_Int_Tables_number	1
_symmetry_cell_setting	triclinic
loop_
_symmetry_equiv_pos_as_xyz
  x,y,z
_cell_length_a	10.540539
_cell_length_b	9.616153
_cell_length_c	10.540539
_cell_angle_alpha	89.995612
_cell_angle_beta	95.474508
_cell_angle_gamma	90.000138
loop_
_atom_site_label
_atom_site_type_symbol
_atom_site_fract_x
_atom_site_fract_y
_atom_site_fract_z
O1	O	1.685883	0.115573	-0.178904
O2	O	1.316470	0.115589	-0.195760
O3	O	1.509604	0.115579	-0.002626
O4	O	1.492748	0.115583	-0.372039
O5	O	1.509596	-0.115712	-0.002612
O6	O	1.316462	-0.115702	-0.195746
O7	O	1.685875	-0.115718	-0.178891
Zn8	Zn	1.501167	-0.152433	-0.187316
Zn9	Zn	1.501177	0.152304	-0.187334
O10	O	1.492741	-0.115708	-0.372025
C11	C	1.269163	-0.000054	-0.194489
C12	C	1.128215	-0.000048	-0.190707
C13	C	0.944788	-0.000589	-0.045790
C14	C	1.091406	-0.000054	-0.049624
C15	C	1.066547	0.132027	-0.258610
C16	C	0.920002	0.132123	-0.253795
C17	C	0.919505	-0.130899	-0.256650
C18	C	1.066487	-0.132630	-0.257949
N19	N	1.501170	-0.360407	-0.187303
C20	C	1.604870	-0.580739	-0.084346
C21	C	1.604590	-0.419572	-0.083953
C22	C	1.368465	-0.418932	-0.157173
C23	C	1.369081	-0.580150	-0.156451
C24	C	1.529013	-0.580281	-0.320752
C25	C	1.532007	-0.419053	-0.319880
C26	C	1.733182	-0.000072	-0.180161
C27	C	1.874130	-0.000069	-0.183943
C28	C	1.508336	-0.000064	0.044684
C29	C	1.504554	-0.000056	0.185632
N30	N	1.501185	0.360278	-0.187337
C31	C	1.494008	-0.000062	-0.419335
C32	C	1.497790	-0.000060	-0.560283
C33	C	1.359637	0.000469	0.369059
C34	C	1.363471	-0.000052	0.222441
C35	C	1.572445	-0.132138	0.247298
C36	C	1.567630	-0.132249	0.393842
C37	C	1.570509	0.130772	0.394345
C38	C	1.571808	0.132518	0.247363
H39	H	0.872033	0.138119	-0.355261
C40	C	1.704692	-0.140377	0.458651
H41	H	1.763066	-0.143608	0.395383
H42	H	1.721735	-0.060738	0.510822
H43	H	1.713836	-0.221830	0.509712
C44	C	1.738529	-0.633101	-0.108451
H45	H	1.732301	-0.691412	-0.181534
H46	H	1.791823	-0.555958	-0.122196
H47	H	1.773914	-0.684272	-0.036492
H48	H	0.887955	-0.231010	-0.210986
C49	C	0.903984	0.126641	0.029188
H50	H	0.844078	0.180079	-0.023338
H51	H	0.866110	0.096264	0.102600
H52	H	0.976596	0.182091	0.054538
C53	C	1.290810	-0.128174	0.166033
H54	H	1.258841	-0.180114	0.232740
H55	H	1.221875	-0.098726	0.107575
H56	H	1.346903	-0.184748	0.122999
H57	H	1.134017	-0.094731	0.003804
C58	C	0.906161	-0.128540	0.029516
H59	H	0.846589	-0.182789	-0.022616
H60	H	0.979587	-0.182919	0.054373
H61	H	0.868447	-0.098845	0.103244
H62	H	1.088900	0.136942	-0.362218
C63	C	1.147812	0.128072	0.023030
H64	H	1.081104	0.180006	0.054996
H65	H	1.206269	0.098627	0.091967
H66	H	1.190846	0.184653	-0.033064
C67	C	0.881890	0.265482	-0.186005
H68	H	0.955939	0.319086	-0.161656
H69	H	0.824833	0.318286	-0.242199
H70	H	0.841410	0.241342	-0.112313
C71	C	1.284636	-0.126750	0.409872
H72	H	1.201274	-0.125624	0.366751
H73	H	1.327188	-0.209472	0.388790
H74	H	1.279154	-0.123620	0.499266
C75	C	1.124068	0.264814	-0.194902
H76	H	1.185648	0.240048	-0.126931
H77	H	1.163636	0.318255	-0.255887
H78	H	1.058398	0.318047	-0.162553
H79	H	1.586684	-0.381019	0.015035
C80	C	1.710778	0.143276	0.214685
H81	H	1.749022	0.224258	0.253201
H82	H	1.756760	0.063397	0.245839
H83	H	1.712289	0.148823	0.124855
H84	H	1.107446	-0.230338	-0.208344
H85	H	1.453417	-0.618432	-0.397410
C86	C	1.663886	-0.367373	-0.350743
H87	H	1.700010	-0.310286	-0.283127
H88	H	1.717993	-0.444845	-0.360595
H89	H	1.655009	-0.315069	-0.427542
H90	H	1.522133	0.230229	0.206499
C91	C	1.499826	-0.265610	0.431951
H92	H	1.475471	-0.319205	0.357901
H93	H	1.556014	-0.318422	0.489008
H94	H	1.426136	-0.241470	0.472431
C95	C	1.099207	-0.143407	-0.396904
H96	H	1.151164	-0.066842	-0.415815
H97	H	1.143802	-0.227702	-0.408047
H98	H	1.022829	-0.142294	-0.452582
C99	C	0.855709	-0.132118	-0.394310
H100	H	0.883506	-0.211401	-0.437765
H101	H	0.765774	-0.135518	-0.393014
H102	H	0.878510	-0.050178	-0.437083
H103	H	1.703197	-0.380002	-0.102073
H104	H	1.676053	-0.137054	0.224944
C105	C	1.581025	-0.635472	0.048616
H106	H	1.508152	-0.694108	0.041636
H107	H	1.653184	-0.686767	0.083297
H108	H	1.567000	-0.559297	0.102939
H109	H	1.344738	-0.617767	-0.059116
H110	H	1.525278	-0.230425	0.204704
H111	H	1.289546	-0.619169	-0.228550
H112	H	1.672413	0.131656	0.441571
C113	C	1.261645	-0.367157	-0.255724
H114	H	1.297115	-0.309243	-0.316262
H115	H	1.220774	-0.444558	-0.298093
H116	H	1.201154	-0.315696	-0.213610
C117	C	1.334810	-0.364422	-0.027161
H118	H	1.401449	-0.306015	0.008925
H119	H	1.257645	-0.312932	-0.038419
H120	H	1.324600	-0.440703	0.028235
C121	C	1.284339	0.128410	0.407698
H122	H	1.336474	0.182649	0.467274
H123	H	1.259480	0.182803	0.334280
H124	H	1.210611	0.098702	0.445413
C125	C	1.508827	0.266012	0.436950
H126	H	1.438140	0.243945	0.482812
H127	H	1.569590	0.317583	0.490176
H128	H	1.480664	0.319929	0.364133
C129	C	1.657032	-0.635192	-0.359480
H130	H	1.694712	-0.694887	-0.294635
H131	H	1.642904	-0.685397	-0.437155
H132	H	1.712474	-0.559163	-0.370511
C133	C	1.436726	-0.364655	-0.428394
H134	H	1.457649	-0.401730	-0.507301
H135	H	1.352941	-0.392639	-0.413710
H136	H	1.440818	-0.266022	-0.431127
H137	H	1.310050	0.094630	0.179832
