data_functionalizedCrystal
_audit_creation_method	'MofGen! by Chris Wilmer'
_symmetry_space_group_name_H-M	'P1'
_symmetry_Int_Tables_number	1
_symmetry_cell_setting	triclinic
loop_
_symmetry_equiv_pos_as_xyz
  x,y,z
_cell_length_a	17.699077
_cell_length_b	15.625429
_cell_length_c	14.750135
_cell_angle_alpha	94.858320
_cell_angle_beta	102.620612
_cell_angle_gamma	83.780415
loop_
_atom_site_label
_atom_site_type_symbol
_atom_site_fract_x
_atom_site_fract_y
_atom_site_fract_z
O1	O	1.026998	0.086940	0.110079
O2	O	1.526998	0.586940	0.610079
O3	O	0.807636	0.100609	0.114842
O4	O	1.307636	0.600609	0.614842
O5	O	0.914553	-0.027137	0.070370
O6	O	1.414553	0.472863	0.570370
O7	O	0.920081	0.214686	0.154551
O8	O	1.420081	0.714686	0.654551
O9	O	0.884312	0.008989	-0.076720
O10	O	1.384312	0.508989	0.423280
O11	O	0.777395	0.136734	-0.032248
O12	O	1.277395	0.636734	0.467752
O13	O	0.996757	0.123066	-0.037010
O14	O	1.496757	0.623066	0.462990
Zn15	Zn	0.882275	0.135636	-0.057983
Zn16	Zn	1.382275	0.635636	0.442017
Zn17	Zn	0.922118	0.088039	0.135814
Zn18	Zn	1.422118	0.588039	0.635814
O19	O	0.889840	0.250811	0.007462
O20	O	1.389840	0.750811	0.507462
C21	C	0.764282	0.118182	0.041127
C22	C	1.264282	0.618182	0.541127
C23	C	0.680155	0.116715	0.040618
C24	C	1.180155	0.616715	0.540618
C25	C	0.624152	0.135716	-0.039802
C26	C	1.124152	0.635716	0.460198
C27	C	0.545106	0.134325	-0.040287
C28	C	1.045106	0.634325	0.459713
C29	C	0.522064	0.113938	0.039650
C30	C	1.022064	0.613938	0.539650
C31	C	0.578074	0.094933	0.120076
C32	C	1.078074	0.594933	0.620076
C33	C	0.657119	0.096319	0.120558
C34	C	1.157119	0.596319	0.620558
C35	C	0.259296	0.089344	0.118132
C36	C	0.759296	0.589344	0.618132
C37	C	0.180244	0.087962	0.117644
C38	C	0.680244	0.587962	0.617644
C39	C	0.147282	0.127350	-0.042714
C40	C	0.647282	0.627350	0.457286
C41	C	0.226327	0.128735	-0.042231
C42	C	0.726327	0.628735	0.457769
C43	C	0.282330	0.109726	0.038192
C44	C	0.782330	0.609726	0.538192
C45	C	0.368041	0.111233	0.038717
C46	C	0.868041	0.611233	0.538717
C47	C	0.436355	0.112437	0.039129
C48	C	0.936355	0.612437	0.539129
C49	C	0.896686	-0.040015	-0.013944
C50	C	1.396686	0.459985	0.486056
C51	C	0.888494	-0.132210	-0.046032
C52	C	1.388494	0.367790	0.453968
C53	C	0.943942	-0.533881	0.249294
C54	C	1.443942	-0.033881	0.749294
C55	C	0.936235	-0.620504	0.219115
C56	C	1.436235	-0.120504	0.719115
C57	C	0.903269	-0.581109	0.058769
C58	C	1.403269	-0.081109	0.558769
C59	C	0.910977	-0.494481	0.088934
C60	C	1.410977	0.005519	0.588934
C61	C	0.931313	-0.470874	0.184198
C62	C	1.431313	0.029126	0.684198
C63	C	0.898348	-0.431474	0.023837
C64	C	1.398348	0.068526	0.523837
C65	C	0.906052	-0.344853	0.054001
C66	C	1.406052	0.155147	0.554001
C67	C	0.926384	-0.321238	0.149261
C68	C	1.426384	0.178762	0.649261
C69	C	0.939017	-0.384253	0.214361
C70	C	1.439017	0.115747	0.714361
C71	C	0.878007	-0.455082	-0.071426
C72	C	1.378007	0.044918	0.428574
C73	C	0.865378	-0.392075	-0.136522
C74	C	1.365378	0.107925	0.363478
C75	C	0.873087	-0.305453	-0.106359
C76	C	1.373087	0.194547	0.393641
C77	C	0.893419	-0.281838	-0.011099
C78	C	1.393419	0.218162	0.488901
C79	C	0.860454	-0.242438	-0.171460
C80	C	1.360454	0.257562	0.328540
C81	C	0.868158	-0.155817	-0.141296
C82	C	1.368158	0.344183	0.358704
C83	C	0.901123	-0.195217	0.019064
C84	C	1.401123	0.304783	0.519064
C85	C	1.040111	0.105492	0.036706
C86	C	1.540111	0.605492	0.536706
C87	C	1.124239	0.106957	0.037221
C88	C	1.624239	0.606957	0.537221
C89	C	0.907707	0.263689	0.091778
C90	C	1.407707	0.763689	0.591778
C91	C	0.915901	0.355882	0.123871
C92	C	1.415901	0.855882	0.623871
N93	N	0.855088	0.168119	-0.190244
N94	N	1.355088	0.668119	0.309756
C95	C	1.025229	-0.035087	-0.612716
C96	C	1.525229	0.464913	-0.112716
C97	C	1.006179	-0.012349	-0.705309
C98	C	1.506179	0.487651	-0.205309
C99	C	0.911471	0.100739	-0.665952
C100	C	1.411471	0.600739	-0.165952
C101	C	0.930515	0.078013	-0.573352
C102	C	1.430515	0.578013	-0.073352
C103	C	0.987394	0.010099	-0.546743
C104	C	1.487394	0.510099	-0.046743
C105	C	0.892681	0.123199	-0.507379
C106	C	1.392681	0.623199	-0.007379
C107	C	0.911721	0.100472	-0.414789
C108	C	1.411721	0.600472	0.085211
C109	C	0.968596	0.032559	-0.388172
C110	C	1.468596	0.532559	0.111828
C111	C	1.006435	-0.012628	-0.454152
C112	C	1.506435	0.487372	0.045848
C113	C	0.835798	0.191109	-0.533992
C114	C	1.335798	0.691109	-0.033992
C115	C	0.797963	0.236296	-0.468019
C116	C	1.297963	0.736296	0.031981
C117	C	0.817007	0.213573	-0.375425
C118	C	1.317007	0.713573	0.124575
C119	C	0.873883	0.145660	-0.348808
C120	C	1.373883	0.645660	0.151192
C121	C	0.779169	0.258760	-0.309444
C122	C	1.279169	0.758760	0.190556
C123	C	0.798209	0.236033	-0.216854
C124	C	1.298209	0.736033	0.283146
C125	C	0.892923	0.122933	-0.256218
C126	C	1.392923	0.622933	0.243782
N127	N	0.949310	0.055549	0.268073
N128	N	1.449310	0.555549	0.768073
H129	H	0.499510	0.149784	-0.105778
H130	H	0.999510	0.649784	0.394222
H131	H	1.052757	-0.067925	-0.432485
H132	H	1.552757	0.432075	0.067515
H133	H	0.939245	0.067636	-0.234550
H134	H	1.439245	0.567636	0.265450
H135	H	0.304885	0.073862	0.183617
H136	H	0.804885	0.573862	0.683617
H137	H	1.071551	-0.090384	-0.591049
H138	H	1.571551	0.409616	-0.091049
H139	H	0.702717	0.080848	0.186045
H140	H	1.202717	0.580848	0.686045
H141	H	0.161488	0.071359	0.182743
H142	H	0.661488	0.571359	0.682743
H143	H	0.559308	0.078328	0.185161
H144	H	1.059308	0.578328	0.685161
H145	H	0.917689	-0.175997	0.096637
H146	H	1.417689	0.324003	0.596637
H147	H	0.871727	-0.525614	-0.095982
H148	H	1.371727	-0.025614	0.404018
H149	H	0.848817	-0.411308	-0.214087
H150	H	1.348817	0.088692	0.285913
H151	H	0.843889	-0.261672	-0.249024
H152	H	1.343889	0.238328	0.250976
H153	H	0.886709	-0.600342	-0.018796
H154	H	1.386709	-0.100342	0.481204
H155	H	0.932648	-0.250703	0.173819
H156	H	1.432648	0.249297	0.673819
H157	H	1.036993	-0.049152	-0.759024
H158	H	1.536993	0.450848	-0.259024
H159	H	0.245082	0.145340	-0.107324
H160	H	0.745082	0.645340	0.392676
H161	H	0.865157	0.156034	-0.687629
H162	H	1.365157	0.656034	-0.187629
H163	H	0.946514	-0.671804	0.272133
H164	H	1.446514	-0.171804	0.772133
H165	H	0.642905	0.152324	-0.104894
H166	H	1.142905	0.652324	0.395106
H167	H	0.955583	-0.365033	0.291934
H168	H	1.455583	0.134967	0.791934
H169	H	0.101674	0.142824	-0.108200
H170	H	0.601674	0.642824	0.391800
H171	H	0.732852	0.314051	-0.331125
H172	H	1.232852	0.814051	0.168875
H173	H	0.960508	-0.514660	0.326867
H174	H	1.460508	-0.014660	0.826867
H175	H	0.857858	-0.104512	-0.194304
H176	H	1.357858	0.395488	0.305696
H177	H	0.984096	0.014053	-0.312779
H178	H	1.484096	0.514053	0.187221
H179	H	0.820295	0.209608	-0.609387
H180	H	1.320295	0.709608	-0.109387
H181	H	0.751650	0.291590	-0.489696
H182	H	1.251650	0.791590	0.010304
H183	H	0.767399	0.272828	-0.163137
H184	H	1.267399	0.772828	0.336863
