data_functionalizedCrystal
_audit_creation_method	'MofGen! by Chris Wilmer'
_symmetry_space_group_name_H-M	'P1'
_symmetry_Int_Tables_number	1
_symmetry_cell_setting	triclinic
loop_
_symmetry_equiv_pos_as_xyz
  x,y,z
_cell_length_a	34.571875
_cell_length_b	34.571051
_cell_length_c	34.567439
_cell_angle_alpha	60.004367
_cell_angle_beta	60.008842
_cell_angle_gamma	59.994195
loop_
_atom_site_label
_atom_site_type_symbol
_atom_site_fract_x
_atom_site_fract_y
_atom_site_fract_z
O1	O	0.053721	-0.565181	0.472559
O2	O	0.553721	-0.065181	0.972559
O3	O	0.020283	-0.440038	0.380761
O4	O	0.520283	0.059962	0.880761
O5	O	0.099534	-0.519209	0.380676
O6	O	0.599534	-0.019209	0.880676
O7	O	-0.025530	-0.486010	0.472643
O8	O	0.474470	0.013990	0.972643
O9	O	0.125831	-0.492917	0.406885
O10	O	0.625831	0.007083	0.906885
O11	O	0.046580	-0.413746	0.406969
O12	O	0.546580	0.086254	0.906969
O13	O	0.080018	-0.538889	0.498767
O14	O	0.580018	-0.038889	0.998767
Zn15	Zn	0.067475	-0.472143	0.457030
Zn16	Zn	0.567475	0.027857	0.957030
Zn17	Zn	0.032827	-0.506784	0.422498
Zn18	Zn	0.532827	-0.006784	0.922498
O19	O	0.000767	-0.459718	0.498852
O20	O	0.500767	0.040282	0.998852
N21	N	0.091122	-0.448505	0.480598
N22	N	0.591122	0.051495	0.980598
N23	N	0.009184	-0.530426	0.398930
N24	N	0.509184	-0.030426	0.898930
C25	C	0.124402	-0.415465	0.717633
C26	C	0.624402	0.084535	1.217633
C27	C	0.328327	-0.415388	0.513477
C28	C	0.828327	0.084612	1.013477
C29	C	0.124221	-0.415437	0.513630
C30	C	0.624221	0.084563	1.013630
C31	C	0.124201	-0.211364	0.513624
C32	C	0.624201	0.288636	1.013624
C33	C	0.157075	-0.309853	0.546423
C34	C	0.657075	0.190147	1.046423
C35	C	0.157084	-0.382601	0.546423
C36	C	0.657084	0.117399	1.046423
C37	C	0.175289	-0.364414	0.564591
C38	C	0.675289	0.135586	1.064591
C39	C	0.254624	-0.350722	0.522790
C40	C	0.754624	0.149278	1.022790
C41	C	0.304220	-0.367243	0.506229
C42	C	0.804220	0.132757	1.006229
C43	C	0.304249	-0.447494	0.536832
C44	C	0.804249	0.052506	1.036832
C45	C	0.254655	-0.430972	0.553394
C46	C	0.754655	0.069028	1.053394
C47	C	0.169014	-0.285043	0.497667
C48	C	0.669014	0.214957	0.997667
C49	C	0.152454	-0.235444	0.481153
C50	C	0.652454	0.264556	0.981153
C51	C	0.112020	-0.235469	0.562154
C52	C	0.612020	0.264531	1.062154
C53	C	0.128580	-0.285068	0.578668
C54	C	0.628580	0.214932	1.078668
C55	C	0.108321	-0.370634	0.558439
C56	C	0.608321	0.129366	1.058439
C57	C	0.091776	-0.387168	0.541918
C58	C	0.591776	0.112832	1.041918
C59	C	0.172754	-0.427637	0.501375
C60	C	0.672754	0.072363	1.001375
C61	C	0.189301	-0.411103	0.517891
C62	C	0.689301	0.088897	1.017891
C63	C	0.108399	-0.370649	0.643978
C64	C	0.608399	0.129351	1.143978
C65	C	0.091911	-0.387197	0.693575
C66	C	0.591911	0.112803	1.193575
C67	C	0.172928	-0.427676	0.693511
C68	C	0.672928	0.072324	1.193511
C69	C	0.189415	-0.411128	0.643912
C70	C	0.689415	0.088872	1.143912
C71	C	0.157149	-0.382613	0.619147
C72	C	0.657149	0.117387	1.119147
C73	C	0.229844	-0.382585	0.546371
C74	C	0.729844	0.117415	1.046371
C75	C	0.105624	-0.433333	0.772186
C76	C	0.605624	0.066667	1.272186
C77	C	0.382878	-0.432925	0.495007
C78	C	0.882878	0.067075	0.995007
C79	C	0.105380	-0.433313	0.495792
C80	C	0.605380	0.066687	0.995792
C81	C	0.105683	-0.156808	0.496094
C82	C	0.605683	0.343192	0.996094
C83	C	-0.023527	-0.563458	0.161535
C84	C	0.476473	-0.063458	0.661535
C85	C	-0.023851	-0.767445	0.365663
C86	C	0.476149	-0.267445	0.865663
C87	C	-0.023821	-0.563448	0.365756
C88	C	0.476179	-0.063448	0.865756
C89	C	-0.227785	-0.563229	0.365355
C90	C	0.272215	-0.063229	0.865355
C91	C	-0.129302	-0.596153	0.332678
C92	C	0.370698	-0.096153	0.832678
C93	C	-0.056593	-0.596234	0.332823
C94	C	0.443407	-0.096234	0.832823
C95	C	-0.074746	-0.614396	0.314578
C96	C	0.425254	-0.114396	0.814578
C97	C	-0.088477	-0.693710	0.356299
C98	C	0.411523	-0.193710	0.856299
C99	C	-0.071982	-0.743310	0.372851
C100	C	0.428018	-0.243310	0.872851
C101	C	0.008266	-0.743392	0.342376
C102	C	0.508266	-0.243392	0.842376
C103	C	-0.008230	-0.693794	0.325823
C104	C	0.491770	-0.193794	0.825823
C105	C	-0.154162	-0.608103	0.381422
C106	C	0.345838	-0.108103	0.881422
C107	C	-0.203757	-0.591517	0.397874
C108	C	0.296243	-0.091517	0.897874
C109	C	-0.203630	-0.551037	0.316836
C110	C	0.296370	-0.051037	0.816836
C111	C	-0.154034	-0.567623	0.300384
C112	C	0.345966	-0.067623	0.800384
C113	C	-0.068543	-0.547475	0.320829
C114	C	0.431457	-0.047475	0.820829
C115	C	-0.052041	-0.530969	0.337421
C116	C	0.447959	-0.030969	0.837421
C117	C	-0.011639	-0.611977	0.377990
C118	C	0.488361	-0.111977	0.877990
C119	C	-0.028141	-0.628485	0.361404
C120	C	0.471859	-0.128485	0.861404
C121	C	-0.068417	-0.547482	0.235199
C122	C	0.431583	-0.047482	0.735199
C123	C	-0.051814	-0.530977	0.185602
C124	C	0.448186	-0.030977	0.685602
C125	C	-0.011349	-0.611990	0.185649
C126	C	0.488651	-0.111990	0.685649
C127	C	-0.027951	-0.628493	0.235248
C128	C	0.472049	-0.128493	0.735248
C129	C	-0.056486	-0.596238	0.260022
C130	C	0.443514	-0.096238	0.760022
C131	C	-0.056602	-0.668955	0.332787
C132	C	0.443398	-0.168955	0.832787
C133	C	-0.005599	-0.544662	0.106983
C134	C	0.494401	-0.044662	0.606983
C135	C	-0.006342	-0.821999	0.384121
C136	C	0.493658	-0.321999	0.884121
C137	C	-0.005979	-0.544649	0.383673
C138	C	0.494021	-0.044649	0.883673
C139	C	-0.282336	-0.544682	0.382817
C140	C	0.217664	-0.044682	0.882817
N141	N	0.427518	-0.448428	0.480350
N142	N	0.927518	0.051572	0.980350
O143	O	0.589573	-0.456297	0.363634
O144	O	1.089573	0.043703	0.863634
O145	O	0.589761	-0.548399	0.488643
O146	O	1.089761	-0.048399	0.988643
O147	O	0.589681	-0.548188	0.409364
O148	O	1.089681	-0.048188	0.909364
O149	O	0.589654	-0.456508	0.442913
O150	O	1.089654	0.043492	0.942913
O151	O	0.510890	-0.521988	0.435708
O152	O	1.010890	-0.021988	0.935708
O153	O	0.510970	-0.522199	0.514987
O154	O	1.010970	-0.022199	1.014987
O155	O	0.510782	-0.430098	0.389978
O156	O	1.010782	0.069902	0.889978
Zn157	Zn	0.498366	-0.471989	0.456665
Zn158	Zn	0.998366	0.028011	0.956665
Zn159	Zn	0.602177	-0.506508	0.421956
Zn160	Zn	1.102177	-0.006508	0.921956
O161	O	0.510862	-0.430308	0.469257
O162	O	1.010862	0.069692	0.969257
N163	N	0.673025	-0.530068	0.398267
N164	N	1.173025	-0.030068	0.898267
N165	N	0.091092	-0.112167	0.480590
N166	N	0.591092	0.387833	0.980590
O167	O	-0.025539	0.049976	0.472612
O168	O	0.474461	0.549976	0.972612
O169	O	0.099472	0.050011	0.380491
O170	O	0.599472	0.550011	0.880491
O171	O	0.020155	0.049979	0.380751
O172	O	0.520155	0.549979	0.880751
O173	O	0.053778	0.050009	0.472352
O174	O	0.553778	0.550009	0.972352
O175	O	0.046458	-0.028818	0.407008
O176	O	0.546458	0.471182	0.907008
O177	O	0.125775	-0.028785	0.406748
O178	O	0.625775	0.471215	0.906748
O179	O	0.000764	-0.028821	0.498869
O180	O	0.500764	0.471179	0.998869
Zn181	Zn	0.067445	-0.041314	0.456977
Zn182	Zn	0.567445	0.458686	0.956977
Zn183	Zn	0.032791	0.062504	0.422382
Zn184	Zn	0.532791	0.562504	0.922382
O185	O	0.080081	-0.028788	0.498609
O186	O	0.580081	0.471212	0.998609
N187	N	0.009138	0.133358	0.398771
N188	N	0.509138	0.633358	0.898771
N189	N	0.091421	-0.448552	0.816827
N190	N	0.591421	0.051448	1.316827
O191	O	0.083469	-0.565164	0.978960
O192	O	0.583469	-0.065164	1.478960
O193	O	-0.008614	-0.440110	0.979002
O194	O	0.491386	0.059890	1.479002
O195	O	-0.008399	-0.519410	0.978978
O196	O	0.491601	-0.019410	1.478978
O197	O	0.083253	-0.485863	0.978984
O198	O	0.583253	0.014137	1.478984
O199	O	0.017837	-0.493128	0.900185
O200	O	0.517837	0.006872	1.400185
O201	O	0.017621	-0.413827	0.900208
O202	O	0.517621	0.086173	1.400208
O203	O	0.109704	-0.538881	0.900167
O204	O	0.609704	-0.038881	1.400167
Zn205	Zn	0.067828	-0.472181	0.887677
Zn206	Zn	0.567828	0.027819	1.387677
Zn207	Zn	0.033262	-0.506810	0.991491
Zn208	Zn	0.533262	-0.006810	1.491491
O209	O	0.109489	-0.459581	0.900191
O210	O	0.609489	0.040419	1.400191
N211	N	0.009668	-0.530444	1.062341
N212	N	0.509668	-0.030444	1.562341
C213	C	0.030297	-0.411123	0.381218
C214	C	0.530297	0.088877	0.881218
C215	C	0.128439	-0.509167	0.381113
C216	C	0.628439	-0.009167	0.881113
C217	C	0.070004	-0.567805	0.498310
C218	C	0.570004	-0.067805	0.998310
C219	C	-0.028138	-0.469761	0.498415
C220	C	0.471862	0.030239	0.998415
C221	C	0.550388	-0.547982	0.517564
C222	C	1.050388	-0.047982	1.017564
C223	C	0.550290	-0.547721	0.419387
C224	C	1.050290	-0.047721	0.919387
C225	C	0.550153	-0.430514	0.361058
C226	C	1.050153	0.069486	0.861058
C227	C	0.550253	-0.430775	0.459234
C228	C	1.050253	0.069225	0.959234
C229	C	0.128339	0.010714	0.380902
C230	C	0.628339	0.510714	0.880902
C231	C	0.030148	0.010577	0.381256
C232	C	0.530148	0.510577	0.881256
C233	C	-0.028136	0.010574	0.498426
C234	C	0.471864	0.510574	0.998426
C235	C	0.070089	0.010613	0.498104
C236	C	0.570089	0.510613	0.998104
C237	C	-0.008178	-0.411214	0.939610
C238	C	0.491822	0.088786	1.439610
C239	C	-0.007906	-0.509413	0.939566
C240	C	0.492094	-0.009413	1.439566
C241	C	0.109268	-0.567777	0.939558
C242	C	0.609268	-0.067777	1.439558
C243	C	0.109002	-0.469572	0.939586
C244	C	0.609002	0.030428	1.439586
H245	H	0.082121	-0.347425	0.623816
H246	H	0.582121	0.152575	1.123816
H247	H	-0.064037	0.010563	0.527345
H248	H	0.435963	0.510563	1.027345
H249	H	0.022945	0.010574	0.352477
H250	H	0.522945	0.510574	0.852477
H251	H	0.550247	-0.401977	0.466412
H252	H	1.050247	0.098023	0.966412
O253	O	0.171121	0.010925	0.346372
O254	O	0.671121	0.510925	0.846372
C255	C	0.207021	-0.029792	0.362364
C256	C	0.707021	0.470208	0.862364
H257	H	0.194131	-0.043553	0.402745
H258	H	0.694131	0.456447	0.902745
H259	H	0.215995	-0.058323	0.348804
H260	H	0.715995	0.441677	0.848804
C261	C	0.267359	-0.000234	0.294003
C262	C	0.767359	0.499766	0.794003
C263	C	0.251529	-0.017134	0.343600
C264	C	0.751529	0.482866	0.843600
H265	H	0.294814	0.007573	0.282427
H266	H	0.794814	0.507573	0.782427
H267	H	0.243173	0.027197	0.283228
H268	H	0.743173	0.527197	0.783228
H269	H	0.274834	-0.024013	0.282709
H270	H	0.774834	0.475987	0.782709
H271	H	0.244048	0.006648	0.354892
H272	H	0.744048	0.506648	0.854892
H273	H	0.275715	-0.044560	0.354376
H274	H	0.775715	0.455440	0.854376
H275	H	-0.064060	-0.462687	0.527292
H276	H	0.435940	0.037313	1.027292
H277	H	0.023152	-0.375173	0.352387
H278	H	0.523152	0.124827	0.852387
O279	O	-0.042655	-0.368348	0.939540
O280	O	0.457345	0.131652	1.439540
C281	C	-0.055396	-0.347380	0.898742
C282	C	0.444604	0.152620	1.398742
H283	H	-0.024973	-0.363048	0.870212
H284	H	0.475027	0.136952	1.370212
H285	H	-0.088285	-0.354624	0.907968
H286	H	0.411715	0.145376	1.407968
C287	C	-0.103349	-0.274280	0.915292
C288	C	0.396651	0.225720	1.415292
C289	C	-0.065981	-0.293521	0.880250
C290	C	0.434019	0.206479	1.380250
H291	H	-0.109880	-0.241058	0.903886
H292	H	0.390120	0.258942	1.403886
H293	H	-0.094767	-0.288407	0.942780
H294	H	0.405233	0.211593	1.442780
H295	H	-0.130752	-0.280322	0.922978
H296	H	0.369248	0.219678	1.422978
H297	H	-0.038577	-0.287484	0.872569
H298	H	0.461423	0.212516	1.372569
H299	H	-0.074559	-0.279392	0.852760
H300	H	0.425441	0.220608	1.352760
H301	H	-0.036687	-0.516580	0.939532
H302	H	0.463313	-0.016580	1.439532
O303	O	0.078764	0.010592	0.532396
O304	O	0.578764	0.510592	1.032396
C305	C	0.125329	0.010617	0.515114
C306	C	0.625329	0.510617	1.015114
H307	H	0.147725	-0.004292	0.484696
H308	H	0.647725	0.495708	0.984696
H309	H	0.124621	0.048422	0.501901
H310	H	0.624621	0.548422	1.001901
C311	C	0.119392	-0.001976	0.592534
C312	C	0.619392	0.498024	1.092534
C313	C	0.146900	-0.020291	0.555177
C314	C	0.646900	0.479709	1.055177
H315	H	0.132698	-0.021039	0.617247
H316	H	0.632698	0.478961	1.117247
H317	H	0.088020	-0.001991	0.604178
H318	H	0.588020	0.498009	1.104178
H319	H	0.118804	0.029528	0.581518
H320	H	0.618804	0.529528	1.081518
H321	H	0.147483	-0.051792	0.566193
H322	H	0.647483	0.448208	1.066193
H323	H	0.178274	-0.020282	0.543536
H324	H	0.678274	0.479718	1.043536
O325	O	0.143701	-0.610655	0.939562
O326	O	0.643701	-0.110655	1.439562
C327	C	0.126653	-0.640134	0.939540
C328	C	0.626653	-0.140134	1.439540
H329	H	0.086299	-0.627306	0.954466
H330	H	0.586299	-0.127306	1.454466
H331	H	0.138683	-0.638843	0.901734
H332	H	0.638683	-0.138843	1.401734
C333	C	0.195855	-0.707161	0.952090
C334	C	0.695855	-0.207161	1.452090
C335	C	0.146292	-0.691408	0.970426
C336	C	0.646292	-0.191408	1.470426
H337	H	0.207970	-0.738790	0.971140
H338	H	0.707970	-0.238790	1.471140
H339	H	0.207342	-0.687301	0.952103
H340	H	0.707342	-0.187301	1.452103
H341	H	0.205874	-0.706082	0.920586
H342	H	0.705874	-0.206082	1.420586
H343	H	0.136274	-0.692482	1.001927
H344	H	0.636274	-0.192482	1.501927
H345	H	0.134804	-0.711270	0.970419
H346	H	0.634804	-0.211270	1.470419
H347	H	-0.134026	-0.631339	0.407719
H348	H	0.365974	-0.131339	0.907719
O349	O	0.143310	-0.460926	0.939560
O350	O	0.643310	0.039074	1.439560
C351	C	0.126047	-0.414357	0.939585
C352	C	0.626047	0.085643	1.439585
H353	H	0.095625	-0.391941	0.924679
H354	H	0.595625	0.108059	1.424679
H355	H	0.112847	-0.415060	0.977389
H356	H	0.612847	0.084940	1.477389
C357	C	0.203482	-0.420354	0.926990
C358	C	0.703482	0.079646	1.426990
C359	C	0.166119	-0.392820	0.908678
C360	C	0.666119	0.107180	1.408678
H361	H	0.228200	-0.407069	0.907926
H362	H	0.728200	0.092931	1.407926
H363	H	0.215112	-0.451728	0.926974
H364	H	0.715112	0.048272	1.426974
H365	H	0.192475	-0.420937	0.958492
H366	H	0.692475	0.079063	1.458492
H367	H	0.177125	-0.392242	0.877178
H368	H	0.677125	0.107758	1.377178
H369	H	0.154492	-0.361445	0.908687
H370	H	0.654492	0.138555	1.408687
O371	O	0.171323	-0.517674	0.346717
O372	O	0.671323	-0.017674	0.846717
C373	C	0.200767	-0.564230	0.363830
C374	C	0.700767	-0.064230	0.863830
H375	H	0.187919	-0.576779	0.404184
H376	H	0.687919	-0.076779	0.904184
H377	H	0.199462	-0.588731	0.351832
H378	H	0.699462	-0.088731	0.851832
C379	C	0.267828	-0.549622	0.294656
C380	C	0.767828	-0.049622	0.794656
C381	C	0.252050	-0.565033	0.344220
C382	C	0.752050	-0.065033	0.844220
H383	H	0.299462	-0.550119	0.282558
H384	H	0.799462	-0.050119	0.782558
H385	H	0.247991	-0.518257	0.283125
H386	H	0.747991	-0.018257	0.783125
H387	H	0.266736	-0.570042	0.284664
H388	H	0.766736	-0.070042	0.784664
H389	H	0.253136	-0.544610	0.354211
H390	H	0.753136	-0.044610	0.854211
H391	H	0.271888	-0.596395	0.355752
H392	H	0.771888	-0.096395	0.855752
H393	H	0.550436	-0.576894	0.553469
H394	H	1.050436	-0.076894	1.053469
H395	H	0.052212	-0.377448	0.713786
H396	H	0.552212	0.122552	1.213786
O397	O	0.230603	-0.461934	0.576223
O398	O	0.730603	0.038066	1.076223
C399	C	0.242709	-0.485163	0.545875
C400	C	0.742709	0.014837	1.045875
H401	H	0.256311	-0.462574	0.507478
H402	H	0.756311	0.037426	1.007478
H403	H	0.271514	-0.520954	0.553851
H404	H	0.771514	-0.020954	1.053851
C405	C	0.181941	-0.520449	0.600974
C406	C	0.681941	-0.020449	1.100974
C407	C	0.198644	-0.492703	0.553815
C408	C	0.698644	0.007297	1.053815
H409	H	0.154760	-0.525102	0.605873
H410	H	0.654760	-0.025102	1.105873
H411	H	0.173786	-0.504801	0.621421
H412	H	0.673786	-0.004801	1.121421
H413	H	0.205949	-0.550272	0.607615
H414	H	0.705949	-0.050272	1.107615
H415	H	0.174637	-0.462879	0.547176
H416	H	0.674637	0.037121	1.047176
H417	H	0.206794	-0.508347	0.533366
H418	H	0.706794	-0.008347	1.033366
O419	O	0.204290	-0.455434	0.717543
O420	O	0.704290	0.044566	1.217543
C421	C	0.232978	-0.497018	0.705393
C422	C	0.732978	0.002982	1.205393
H423	H	0.213813	-0.503923	0.691781
H424	H	0.713813	-0.003923	1.191781
H425	H	0.267803	-0.492493	0.676582
H426	H	0.767803	0.007507	1.176582
C427	C	0.266702	-0.530745	0.766148
C428	C	0.766702	-0.030745	1.266148
C429	C	0.243161	-0.539228	0.749433
C430	C	0.743161	-0.039228	1.249433
H431	H	0.272985	-0.556783	0.793313
H432	H	0.772985	-0.056783	1.293313
H433	H	0.247376	-0.502729	0.774333
H434	H	0.747376	-0.002729	1.274333
H435	H	0.295719	-0.526974	0.742134
H436	H	0.795719	-0.026974	1.242134
H437	H	0.214142	-0.542993	0.773445
H438	H	0.714142	-0.042993	1.273445
H439	H	0.262483	-0.567246	0.741254
H440	H	0.762483	-0.067246	1.241254
O441	O	0.076961	-0.342934	0.586131
O442	O	0.576961	0.157066	1.086131
C443	C	0.030374	-0.335925	0.593199
C444	C	0.530374	0.164075	1.093199
H445	H	0.030437	-0.341459	0.563303
H446	H	0.530437	0.158541	1.063303
H447	H	0.016194	-0.362334	0.628531
H448	H	0.516194	0.137666	1.128531
C449	C	-0.001524	-0.278321	0.630294
C450	C	0.498476	0.221679	1.130294
C451	C	-0.001447	-0.285114	0.593573
C452	C	0.498553	0.214886	1.093573
H453	H	-0.021154	-0.246979	0.630527
H454	H	0.478846	0.253021	1.130527
H455	H	0.029862	-0.283044	0.625534
H456	H	0.529862	0.216956	1.125534
H457	H	-0.013340	-0.300331	0.659734
H458	H	0.486660	0.199669	1.159734
H459	H	0.010374	-0.263108	0.564134
H460	H	0.510374	0.236892	1.064134
H461	H	-0.032833	-0.280386	0.598329
H462	H	0.467167	0.219614	1.098329
H463	H	0.550303	-0.576522	0.412207
H464	H	1.050303	-0.076522	0.912207
H465	H	0.229113	-0.420876	0.623698
H466	H	0.729113	0.079124	1.123698
H467	H	0.052069	-0.377412	0.551692
H468	H	0.552069	0.122588	1.051692
O469	O	0.328377	-0.494482	0.543564
O470	O	0.828377	0.005518	1.043564
C471	C	0.357044	-0.501212	0.499286
C472	C	0.857044	-0.001212	0.999286
H473	H	0.342066	-0.469812	0.470704
H474	H	0.842066	0.030188	0.970704
H475	H	0.394633	-0.504131	0.490674
H476	H	0.894633	-0.004131	0.990674
C477	C	0.376212	-0.585603	0.536267
C478	C	0.876212	-0.085603	1.036267
C479	C	0.357813	-0.547039	0.501163
C480	C	0.857813	-0.047039	1.001163
H481	H	0.376689	-0.613872	0.537424
H482	H	0.876689	-0.113872	1.037424
H483	H	0.356900	-0.581069	0.566098
H484	H	0.856900	-0.081069	1.066098
H485	H	0.407535	-0.588029	0.529086
H486	H	0.907535	-0.088029	1.029086
H487	H	0.326489	-0.544609	0.508347
H488	H	0.826489	-0.044609	1.008347
H489	H	0.377120	-0.551573	0.471333
H490	H	0.877120	-0.051573	0.971333
H491	H	0.229008	-0.420842	0.508101
H492	H	0.729008	0.079158	1.008101
O493	O	0.204115	-0.455304	0.473651
O494	O	0.704115	0.044696	0.973651
C495	C	0.250701	-0.462330	0.466603
C496	C	0.750701	0.037670	0.966603
H497	H	0.250613	-0.432428	0.472144
H498	H	0.750613	0.067572	0.972144
H499	H	0.264940	-0.497665	0.492985
H500	H	0.764940	0.002335	0.992985
C501	C	0.282584	-0.499393	0.408976
C502	C	0.782584	0.000607	0.908976
C503	C	0.282476	-0.462664	0.415778
C504	C	0.782476	0.037336	0.915778
H505	H	0.302186	-0.499601	0.377626
H506	H	0.802186	0.000399	0.877626
H507	H	0.251199	-0.494661	0.413725
H508	H	0.751199	0.005339	0.913725
H509	H	0.294449	-0.528835	0.430964
H510	H	0.794449	-0.028835	0.930964
H511	H	0.270607	-0.433223	0.393794
H512	H	0.770607	0.066777	0.893794
H513	H	0.313861	-0.467392	0.411024
H514	H	0.813861	0.032608	0.911024
H515	H	0.550093	-0.401597	0.325157
H516	H	1.050093	0.098403	0.825157
O517	O	0.078595	-0.610724	0.532649
O518	O	0.578595	-0.110724	1.032649
C519	C	0.125158	-0.640101	0.515454
C520	C	0.625158	-0.140101	1.015454
H521	H	0.137646	-0.627187	0.475100
H522	H	0.637646	-0.127187	0.975100
H523	H	0.149674	-0.638792	0.527431
H524	H	0.649674	-0.138792	1.027431
C525	C	0.110698	-0.707263	0.584566
C526	C	0.610698	-0.207263	1.084566
C527	C	0.126035	-0.691405	0.535003
C528	C	0.626035	-0.191405	1.035003
H529	H	0.111240	-0.738911	0.596626
H530	H	0.611240	-0.238911	1.096626
H531	H	0.079328	-0.687472	0.596152
H532	H	0.579328	-0.187472	1.096152
H533	H	0.131130	-0.706168	0.594541
H534	H	0.631130	-0.206168	1.094541
H535	H	0.105600	-0.692494	0.525029
H536	H	0.605600	-0.192494	1.025029
H537	H	0.157401	-0.711198	0.523416
H538	H	0.657401	-0.211198	1.023416
H539	H	0.324395	-0.341295	0.487026
H540	H	0.824395	0.158705	0.987026
O541	O	0.084407	-0.211366	0.593453
O542	O	0.584407	0.288634	1.093453
C543	C	0.106935	-0.182650	0.586284
C544	C	0.606935	0.317350	1.086284
H545	H	0.146691	-0.197582	0.568263
H546	H	0.646691	0.302418	1.068263
H547	H	0.092280	-0.145062	0.562889
H548	H	0.592280	0.354938	1.062889
C549	C	0.048807	-0.163549	0.656537
C550	C	0.548807	0.336451	1.156537
C551	C	0.097636	-0.181890	0.634406
C552	C	0.597636	0.318110	1.134406
H553	H	0.043069	-0.163078	0.686220
H554	H	0.543069	0.336922	1.186220
H555	H	0.033627	-0.182894	0.661366
H556	H	0.533627	0.317106	1.161366
H557	H	0.036600	-0.132227	0.637036
H558	H	0.536600	0.367773	1.137036
H559	H	0.109841	-0.213213	0.653904
H560	H	0.609841	0.286787	1.153904
H561	H	0.112817	-0.162551	0.629581
H562	H	0.612817	0.337449	1.129581
H563	H	0.234427	-0.311322	0.517070
H564	H	0.734427	0.188678	1.017070
H565	H	0.192214	-0.305222	0.471410
H566	H	0.692214	0.194778	0.971410
H567	H	0.118851	-0.305270	0.618371
H568	H	0.618851	0.194730	1.118371
O569	O	0.164028	-0.211391	0.433778
O570	O	0.664028	0.288609	0.933778
C571	C	0.147036	-0.223501	0.413199
C572	C	0.647036	0.276499	0.913199
H573	H	0.142200	-0.259520	0.436712
H574	H	0.642200	0.240480	0.936712
H575	H	0.111577	-0.195594	0.409538
H576	H	0.611577	0.304406	0.909538
C577	C	0.188845	-0.181531	0.335026
C578	C	0.688845	0.318469	0.835026
C579	C	0.182909	-0.225772	0.363903
C580	C	0.682909	0.274228	0.863903
H581	H	0.210972	-0.182930	0.304616
H582	H	0.710972	0.317070	0.804616
H583	H	0.200292	-0.173370	0.348889
H584	H	0.700292	0.326630	0.848889
H585	H	0.159294	-0.158280	0.331980
H586	H	0.659294	0.341720	0.831980
H587	H	0.212459	-0.249021	0.366953
H588	H	0.712459	0.250979	0.866953
H589	H	0.171468	-0.233937	0.350038
H590	H	0.671468	0.266063	0.850038
O591	O	-0.063494	-0.483607	0.161516
O592	O	0.436506	0.016393	0.661516
C593	C	-0.113164	-0.462969	0.173569
C594	C	0.386836	0.037031	0.673569
H595	H	-0.129160	-0.491186	0.187169
H596	H	0.370840	0.008814	0.687169
H597	H	-0.127888	-0.447302	0.202360
H598	H	0.372112	0.052698	0.702360
C599	C	-0.106275	-0.388814	0.112765
C600	C	0.393725	0.111186	0.612765
C601	C	-0.125922	-0.423471	0.129466
C602	C	0.374078	0.076529	0.629466
H603	H	-0.114145	-0.364448	0.085561
H604	H	0.385855	0.135552	0.585561
H605	H	-0.072811	-0.402718	0.104646
H606	H	0.427189	0.097282	0.604646
H607	H	-0.118546	-0.375764	0.136762
H608	H	0.381454	0.124236	0.636762
H609	H	-0.113645	-0.436524	0.105471
H610	H	0.386355	0.063476	0.605471
H611	H	-0.159383	-0.409568	0.137580
H612	H	0.340617	0.090432	0.637580
O613	O	0.016374	-0.643388	0.161660
O614	O	0.516374	-0.143388	0.661660
C615	C	0.023330	-0.689960	0.194207
C616	C	0.523330	-0.189960	0.694207
H617	H	0.017740	-0.689862	0.229578
H618	H	0.517740	-0.189862	0.729578
H619	H	-0.003069	-0.704133	0.199429
H620	H	0.496931	-0.204133	0.699429
C621	C	0.081004	-0.721942	0.131484
C622	C	0.581004	-0.221942	0.631484
C623	C	0.074142	-0.721822	0.174925
C624	C	0.574142	-0.221822	0.674925
H625	H	0.112346	-0.741597	0.119589
H626	H	0.612346	-0.241597	0.619589
H627	H	0.076317	-0.690566	0.109556
H628	H	0.576317	-0.190566	0.609556
H629	H	0.059001	-0.733752	0.135841
H630	H	0.559001	-0.233752	0.635841
H631	H	0.096140	-0.710007	0.170566
H632	H	0.596140	-0.210007	0.670566
H633	H	0.078834	-0.753197	0.196852
H634	H	0.578834	-0.253197	0.696852
O635	O	-0.096061	-0.516132	0.259248
O636	O	0.403939	-0.016132	0.759248
C637	C	-0.071009	-0.487488	0.247170
C638	C	0.428991	0.012512	0.747170
H639	H	-0.031331	-0.506676	0.233588
H640	H	0.468669	-0.006676	0.733588
H641	H	-0.081522	-0.452640	0.218358
H642	H	0.418478	0.047360	0.718358
C643	C	-0.131773	-0.453789	0.307928
C644	C	0.368227	0.046211	0.807928
C645	C	-0.083040	-0.477357	0.291250
C646	C	0.416960	0.022643	0.791250
H647	H	-0.139196	-0.447537	0.335117
H648	H	0.360804	0.052463	0.835117
H649	H	-0.148652	-0.473085	0.316064
H650	H	0.351348	0.026915	0.816064
H651	H	-0.140528	-0.424751	0.283913
H652	H	0.359472	0.075249	0.783913
H653	H	-0.074287	-0.506396	0.315262
H654	H	0.425713	-0.006396	0.815262
H655	H	-0.066160	-0.458065	0.283119
H656	H	0.433840	0.041935	0.783119
H657	H	-0.018232	-0.668197	0.255455
H658	H	0.481768	-0.168197	0.755455
H659	H	-0.061773	-0.491265	0.327657
H660	H	0.438227	0.008735	0.827657
O661	O	0.015980	-0.643371	0.405762
O662	O	0.515980	-0.143371	0.905762
C663	C	0.022998	-0.689946	0.412774
C664	C	0.522998	-0.189946	0.912774
H665	H	-0.006881	-0.689823	0.407167
H666	H	0.493119	-0.189823	0.907167
H667	H	0.058350	-0.704189	0.386418
H668	H	0.558350	-0.204189	0.886418
C669	C	0.059968	-0.721896	0.470499
C670	C	0.559968	-0.221896	0.970499
C671	C	0.023268	-0.721746	0.463616
C672	C	0.523268	-0.221746	0.963616
H673	H	0.060137	-0.741513	0.501859
H674	H	0.560137	-0.241513	1.001859
H675	H	0.055241	-0.690518	0.465773
H676	H	0.555241	-0.190518	0.965773
H677	H	0.089424	-0.733764	0.448532
H678	H	0.589424	-0.233764	0.948532
H679	H	-0.006188	-0.709872	0.485579
H680	H	0.493812	-0.209872	0.985579
H681	H	0.027989	-0.753122	0.468347
H682	H	0.527989	-0.253122	0.968347
H683	H	-0.091707	-0.521211	0.297556
H684	H	0.408293	-0.021211	0.797556
H685	H	0.017729	-0.673638	0.306677
H686	H	0.517729	-0.173638	0.806677
O687	O	0.055271	-0.767504	0.335531
O688	O	0.555271	-0.267504	0.835531
C689	C	0.080919	-0.755408	0.286577
C690	C	0.580919	-0.255408	0.786577
H691	H	0.056589	-0.741750	0.266031
H692	H	0.556589	-0.241750	0.766031
H693	H	0.095174	-0.726644	0.275525
H694	H	0.595174	-0.226644	0.775525
C695	C	0.152428	-0.816272	0.301019
C696	C	0.652428	-0.316272	0.801019
C697	C	0.122546	-0.799501	0.275784
C698	C	0.622546	-0.299501	0.775784
H699	H	0.178107	-0.843470	0.294361
H700	H	0.678107	-0.343470	0.794361
H701	H	0.135149	-0.824420	0.334000
H702	H	0.635149	-0.324420	0.834000
H703	H	0.164302	-0.792298	0.291807
H704	H	0.664302	-0.292298	0.791807
H705	H	0.110668	-0.823472	0.285001
H706	H	0.610668	-0.323472	0.785001
H707	H	0.139824	-0.791358	0.242804
H708	H	0.639824	-0.291358	0.742804
O709	O	-0.103008	-0.767284	0.395669
O710	O	0.396992	-0.267284	0.895669
C711	C	-0.126216	-0.755163	0.365293
C712	C	0.373784	-0.255163	0.865293
H713	H	-0.125006	-0.719185	0.337025
H714	H	0.374994	-0.219185	0.837025
H715	H	-0.107733	-0.783114	0.347583
H716	H	0.392267	-0.283114	0.847583
C717	C	-0.179658	-0.796953	0.428943
C718	C	0.320342	-0.296953	0.928943
C719	C	-0.178175	-0.752762	0.394225
C720	C	0.321825	-0.252762	0.894225
H721	H	-0.211708	-0.795474	0.446789
H722	H	0.288292	-0.295474	0.946789
H723	H	-0.164022	-0.805120	0.449407
H724	H	0.335978	-0.305120	0.949407
H725	H	-0.164253	-0.820241	0.414179
H726	H	0.335747	-0.320241	0.914179
H727	H	-0.193575	-0.729476	0.408990
H728	H	0.306425	-0.229476	0.908990
H729	H	-0.193816	-0.744591	0.373763
H730	H	0.306184	-0.244591	0.873763
O731	O	-0.227836	-0.603188	0.445243
O732	O	0.272164	-0.103188	0.945243
C733	C	-0.195371	-0.631919	0.470218
C734	C	0.304629	-0.131919	0.970218
H735	H	-0.159999	-0.649979	0.446603
H736	H	0.340001	-0.149979	0.946603
H737	H	-0.190116	-0.609054	0.480949
H738	H	0.309884	-0.109054	0.980949
C739	C	-0.258235	-0.647614	0.543907
C740	C	0.241765	-0.147614	1.043907
C741	C	-0.214792	-0.669798	0.514905
C742	C	0.285208	-0.169798	1.014905
H743	H	-0.270215	-0.670979	0.571473
H744	H	0.229785	-0.170979	1.071473
H745	H	-0.280108	-0.628256	0.527082
H746	H	0.219892	-0.128256	1.027082
H747	H	-0.253849	-0.628560	0.552845
H748	H	0.246151	-0.128560	1.052845
H749	H	-0.219179	-0.688847	0.505963
H750	H	0.280821	-0.188847	1.005963
H751	H	-0.192920	-0.689161	0.531730
H752	H	0.307080	-0.189161	1.031730
O753	O	-0.227585	-0.523315	0.285403
O754	O	0.272415	-0.023315	0.785403
C755	C	-0.195007	-0.516344	0.238850
C756	C	0.304993	-0.016344	0.738850
H757	H	-0.159669	-0.521921	0.239001
H758	H	0.340331	-0.021921	0.739001
H759	H	-0.189722	-0.542744	0.224635
H760	H	0.310278	-0.042744	0.724635
C761	C	-0.257701	-0.458681	0.206811
C762	C	0.242299	0.041319	0.706811
C763	C	-0.214299	-0.465527	0.206996
C764	C	0.285701	0.034473	0.706996
H765	H	-0.269601	-0.427336	0.187160
H766	H	0.230399	0.072664	0.687160
H767	H	-0.279650	-0.463379	0.238174
H768	H	0.220350	0.036621	0.738174
H769	H	-0.253291	-0.480685	0.194966
H770	H	0.246709	0.019315	0.694966
H771	H	-0.218711	-0.443528	0.218846
H772	H	0.281289	0.056472	0.718846
H773	H	-0.192351	-0.460825	0.175633
H774	H	0.307649	0.039175	0.675633
H775	H	-0.018411	-0.668189	0.371171
H776	H	0.481589	-0.168189	0.871171
H777	H	-0.127865	-0.673490	0.361973
H778	H	0.372135	-0.173490	0.861973
H779	H	-0.133793	-0.557888	0.260690
H780	H	0.366207	-0.057888	0.760690
