data_functionalizedCrystal
_audit_creation_method	'MofGen! by Chris Wilmer'
_symmetry_space_group_name_H-M	'P1'
_symmetry_Int_Tables_number	1
_symmetry_cell_setting	triclinic
loop_
_symmetry_equiv_pos_as_xyz
  x,y,z
_cell_length_a	12.759401
_cell_length_b	19.805405
_cell_length_c	19.805399
_cell_angle_alpha	90.029301
_cell_angle_beta	90.016658
_cell_angle_gamma	90.025574
loop_
_atom_site_label
_atom_site_type_symbol
_atom_site_fract_x
_atom_site_fract_y
_atom_site_fract_z
Zn1	Zn	1.606138	-0.269494	0.382659
Zn2	Zn	1.606006	-0.382682	0.269467
Zn3	Zn	1.430449	-0.269511	0.269489
Zn4	Zn	1.430393	-0.382645	0.382620
O5	O	1.518247	-0.326083	0.326059
O6	O	1.753142	-0.284517	0.367651
O7	O	1.582686	-0.367693	0.174754
O8	O	1.453834	-0.174792	0.284527
O9	O	1.753044	-0.367676	0.284490
O10	O	1.582912	-0.174780	0.367672
O11	O	1.453706	-0.284546	0.174770
O12	O	1.283421	-0.284510	0.284489
O13	O	1.453737	-0.367612	0.477342
O14	O	1.283379	-0.367629	0.367606
O15	O	1.582857	-0.284481	0.477370
O16	O	1.582631	-0.477394	0.284452
O17	O	1.453609	-0.477366	0.367584
C18	C	1.518128	-0.501939	0.326026
C19	C	1.518174	-0.577171	0.326035
C20	C	1.245279	-0.326068	0.326046
C21	C	1.128503	-0.326077	0.326056
C22	C	1.585421	-0.612507	0.282793
C23	C	1.585466	-0.683196	0.282808
C24	C	1.518257	-0.718547	0.326062
C25	C	1.451007	-0.683206	0.369308
C26	C	1.450969	-0.612518	0.369296
C27	C	1.451162	-0.968279	0.369358
C28	C	1.451204	-1.038971	0.369366
C29	C	1.585659	-1.038956	0.282870
C30	C	1.585621	-0.968269	0.282858
C31	C	1.518375	-0.932934	0.326107
C32	C	1.518329	-0.856286	0.326091
C33	C	1.518297	-0.795194	0.326075
C34	C	1.073632	-0.282741	0.282857
C35	C	0.963907	-0.282756	0.282866
C36	C	0.963935	-0.369447	0.369279
C37	C	1.073657	-0.369434	0.369267
C38	C	0.813909	-0.258485	0.203103
C39	C	0.759034	-0.215137	0.159909
C40	C	0.794664	-0.149076	0.149635
C41	C	0.885168	-0.126348	0.182564
C42	C	0.940037	-0.169692	0.225763
C43	C	0.904408	-0.235763	0.236024
C44	C	1.223658	-0.393699	0.449030
C45	C	1.278529	-0.437040	0.492233
C46	C	1.242901	-0.503103	0.502514
C47	C	1.152394	-0.525828	0.469597
C48	C	1.097523	-0.482487	0.426394
C49	C	1.133159	-0.416425	0.416112
C50	C	1.792280	-0.326099	0.326072
C51	C	1.909056	-0.326106	0.326078
C52	C	1.518306	-0.326040	0.502602
C53	C	1.518331	-0.326022	0.577834
C54	C	1.518394	-0.149540	0.326106
C55	C	1.518457	-0.074308	0.326127
C56	C	1.518248	-0.326077	0.150203
C57	C	1.518427	-0.325904	0.074971
C58	C	1.585565	-0.282734	0.613194
C59	C	1.585575	-0.282714	0.683882
C60	C	1.518357	-0.325987	0.719209
C61	C	1.451115	-0.369277	0.683844
C62	C	1.451100	-0.369293	0.613157
C63	C	1.451175	-0.369214	0.968918
C64	C	1.451197	-0.369197	1.039610
C65	C	1.585650	-0.282635	1.039643
C66	C	1.585635	-0.282651	0.968956
C67	C	1.518390	-0.325939	0.933597
C68	C	1.518378	-0.325958	0.856948
C69	C	1.518374	-0.325971	0.795856
H70	H	1.640145	-0.583729	0.247568
H71	H	1.023824	-0.500995	0.399594
H72	H	0.914166	-0.072552	0.174199
H73	H	1.396211	-0.583748	0.404509
Cl74	Cl	1.107595	-0.608880	0.482524
H75	H	1.640418	-1.067734	0.247657
Cl76	Cl	1.670012	-0.727615	0.228446
Cl77	Cl	1.142576	-0.228238	0.228532
Cl78	Cl	1.366608	-0.423676	0.728255
H79	H	1.640344	-0.939488	0.247634
Cl80	Cl	1.053807	-0.141127	0.267155
H81	H	1.396289	-0.711994	0.404529
H82	H	0.749977	-0.113782	0.114465
H83	H	0.685346	-0.233649	0.133099
H84	H	1.396475	-1.067752	0.404593
H85	H	1.396341	-0.404536	0.584368
H86	H	1.287579	-0.538387	0.537702
Cl87	Cl	0.769055	-0.341517	0.216064
H88	H	1.352209	-0.418525	0.519050
H89	H	1.252681	-0.339907	0.440658
Cl90	Cl	1.670149	-0.228321	0.728332
Cl91	Cl	1.366686	-0.423601	1.084020
Cl92	Cl	1.670144	-0.228251	0.924549
H93	H	0.919267	-0.404746	0.404460
Cl94	Cl	1.670078	-0.228333	0.568790
H95	H	1.640400	-0.247386	1.068441
H96	H	1.396435	-0.404472	0.940137
H97	H	1.396406	-0.939515	0.404572
