data_functionalizedCrystal
_audit_creation_method	'MofGen! by Chris Wilmer'
_symmetry_space_group_name_H-M	'P1'
_symmetry_Int_Tables_number	1
_symmetry_cell_setting	triclinic
loop_
_symmetry_equiv_pos_as_xyz
  x,y,z
_cell_length_a	18.101398
_cell_length_b	18.101395
_cell_length_c	18.101389
_cell_angle_alpha	89.983159
_cell_angle_beta	89.975673
_cell_angle_gamma	90.026371
loop_
_atom_site_label
_atom_site_type_symbol
_atom_site_fract_x
_atom_site_fract_y
_atom_site_fract_z
Zn1	Zn	1.132121	-0.295001	-0.418847
Zn2	Zn	1.632121	0.204999	0.081153
Zn3	Zn	1.132017	-0.418826	-0.295009
Zn4	Zn	1.632017	0.081174	0.204991
Zn5	Zn	1.008280	-0.294993	-0.295008
Zn6	Zn	1.508280	0.205007	0.204992
Zn7	Zn	1.008231	-0.418795	-0.418797
Zn8	Zn	1.508231	0.081205	0.081203
O9	O	1.070162	-0.356904	-0.356915
O10	O	1.570162	0.143096	0.143085
O11	O	1.235740	-0.311443	-0.402440
O12	O	1.735740	0.188557	0.097560
O13	O	1.115580	-0.402410	-0.191376
O14	O	1.615580	0.097590	0.308624
O15	O	1.024772	-0.191361	-0.311456
O16	O	1.524772	0.308639	0.188544
O17	O	1.235664	-0.402417	-0.311457
O18	O	1.735664	0.097583	0.188543
O19	O	1.115757	-0.191367	-0.402440
O20	O	1.615757	0.308633	0.097560
O21	O	1.024671	-0.311430	-0.191375
O22	O	1.524671	0.188570	0.308625
O23	O	0.904641	-0.311399	-0.311408
O24	O	1.404641	0.188601	0.188592
O25	O	1.024688	-0.402363	-0.522437
O26	O	1.524688	0.097637	-0.022437
O27	O	0.904604	-0.402356	-0.402355
O28	O	1.404604	0.097644	0.097645
O29	O	1.115710	-0.311412	-0.522473
O30	O	1.615710	0.188588	-0.022473
O31	O	1.115532	-0.522455	-0.311409
O32	O	1.615532	-0.022455	0.188591
O33	O	1.024587	-0.522432	-0.402356
O34	O	1.524587	-0.022432	0.097644
C35	C	0.877752	-0.356874	-0.356877
C36	C	1.377752	0.143126	0.143123
C37	C	0.795437	-0.356879	-0.356878
C38	C	1.295437	0.143121	0.143122
C39	C	0.496347	-0.356925	-0.356940
C40	C	0.996347	0.143075	0.143060
C41	C	0.527670	-0.299412	-0.299997
C42	C	1.027670	0.200588	0.200003
C43	C	0.613288	-0.299566	-0.299754
C44	C	1.113288	0.200434	0.200246
C45	C	0.644729	-0.356901	-0.356909
C46	C	1.144729	0.143099	0.143091
C47	C	0.613611	-0.434909	-0.335587
C48	C	1.113611	0.065091	0.164413
C49	C	0.527966	-0.434590	-0.335191
C50	C	1.027966	0.065410	0.164809
C51	C	0.527961	-0.337109	-0.435339
C52	C	1.027961	0.162891	0.064661
C53	C	0.613612	-0.335371	-0.434911
C54	C	1.113612	0.164629	0.065089
C55	C	0.728589	-0.356893	-0.356893
C56	C	1.228589	0.143107	0.143107
C57	C	0.412487	-0.356939	-0.356954
C58	C	0.912487	0.143061	0.143046
C59	C	1.070063	-0.549314	-0.356893
C60	C	1.570063	-0.049314	0.143107
C61	C	1.070088	-0.631628	-0.356909
C62	C	1.570088	-0.131628	0.143091
C63	C	1.070251	-0.930719	-0.356949
C64	C	1.570251	-0.430719	0.143051
C65	C	1.013163	-0.899410	-0.414312
C66	C	1.513163	-0.399410	0.085688
C67	C	1.012892	-0.813792	-0.414133
C68	C	1.512892	-0.313792	0.085867
C69	C	1.070170	-0.782337	-0.356930
C70	C	1.570170	-0.282337	0.143070
C71	C	1.049041	-0.813472	-0.278878
C72	C	1.549041	-0.313472	0.221122
C73	C	1.048673	-0.899117	-0.279221
C74	C	1.548673	-0.399117	0.220779
C75	C	1.148593	-0.899073	-0.376950
C76	C	1.648593	-0.399073	0.123050
C77	C	1.148132	-0.813422	-0.378661
C78	C	1.648132	-0.313422	0.121339
C79	C	1.070126	-0.698477	-0.356914
C80	C	1.570126	-0.198477	0.143086
C81	C	1.070293	-1.014579	-0.356959
C82	C	1.570293	-0.514579	0.143041
C83	C	1.263324	-0.356934	-0.356954
C84	C	1.763324	0.143066	0.143046
C85	C	1.345638	-0.356948	-0.356971
C86	C	1.845638	0.143052	0.143029
C87	C	1.070205	-0.356885	-0.550077
C88	C	1.570205	0.143115	-0.050077
C89	C	1.070223	-0.356877	-0.632391
C90	C	1.570223	0.143123	-0.132391
C91	C	1.070282	-0.163742	-0.356953
C92	C	1.570282	0.336258	0.143047
C93	C	1.070333	-0.081428	-0.356970
C94	C	1.570333	0.418572	0.143030
C95	C	1.070266	-0.356738	-0.931482
C96	C	1.570266	0.143262	-0.431482
C97	C	1.012801	-0.413780	-0.900134
C98	C	1.512801	0.086220	-0.400134
C99	C	1.012956	-0.414045	-0.814516
C100	C	1.512956	0.085955	-0.314516
C101	C	1.070244	-0.356807	-0.783100
C102	C	1.570244	0.143193	-0.283100
C103	C	1.148270	-0.377998	-0.814206
C104	C	1.648270	0.122002	-0.314206
C105	C	1.147949	-0.378372	-0.899851
C106	C	1.647949	0.121628	-0.399851
C107	C	1.050385	-0.278379	-0.899905
C108	C	1.550385	0.221621	-0.399905
C109	C	1.048649	-0.278832	-0.814254
C110	C	1.548649	0.221168	-0.314254
C111	C	1.070237	-0.356845	-0.699240
C112	C	1.570237	0.143155	-0.199240
C113	C	1.070279	-0.356702	-1.015342
C114	C	1.570279	0.143298	-0.515342
C115	C	1.070162	-0.356869	-0.164505
C116	C	1.570162	0.143131	0.335495
C117	C	1.070287	-0.356668	-0.082191
C118	C	1.570287	0.143332	0.417809
H119	H	0.506120	-0.312363	-0.242242
H120	H	1.006120	0.187637	0.257758
O121	O	0.936708	-0.927988	-0.396991
O122	O	1.436708	-0.427988	0.103009
H123	H	0.899363	-0.880708	-0.385661
H124	H	1.399363	-0.380708	0.114339
O125	O	1.030344	-0.490999	-0.787434
O126	O	1.530344	0.009001	-0.287434
H127	H	1.081405	-0.489631	-0.753532
H128	H	1.581405	0.010369	-0.253532
H129	H	1.026252	-0.919970	-0.472374
H130	H	1.526252	-0.419970	0.027626
H131	H	1.164804	-0.435654	-0.919836
H132	H	1.664804	0.064346	-0.419836
H133	H	1.026111	-0.792740	-0.472007
H134	H	1.526111	-0.292740	0.027993
H135	H	0.506389	-0.281216	-0.454725
H136	H	1.006389	0.218784	0.045275
O137	O	1.102384	-0.786486	-0.220717
O138	O	1.602384	-0.286486	0.279283
H139	H	1.086233	-0.809271	-0.166112
H140	H	1.586233	-0.309271	0.333888
H141	H	0.991406	-0.919153	-0.262279
H142	H	1.491406	-0.419153	0.237721
H143	H	1.167856	-0.920633	-0.432895
H144	H	1.667856	-0.420633	0.067105
H145	H	0.633956	-0.277966	-0.450989
H146	H	1.133956	0.222034	0.049011
O147	O	0.935974	-0.786726	-0.396581
O148	O	1.435974	-0.286726	0.103419
H149	H	0.935510	-0.725410	-0.396399
H150	H	1.435510	-0.225410	0.103601
H151	H	1.192217	-0.338629	-0.920590
H152	H	1.692217	0.161371	-0.420590
H153	H	0.955097	-0.400784	-0.793483
H154	H	1.455097	0.099216	-0.293483
H155	H	1.192915	-0.792007	-0.339927
H156	H	1.692915	-0.292007	0.160073
O157	O	0.640371	-0.316909	-0.222797
O158	O	1.140371	0.183091	0.277203
H159	H	0.674274	-0.367969	-0.224138
H160	H	1.174274	0.132031	0.275862
O161	O	1.101351	-0.926571	-0.220676
O162	O	1.601351	-0.426571	0.279324
H163	H	1.083369	-0.905983	-0.165790
H164	H	1.583369	-0.405983	0.334210
O165	O	0.973985	-0.785146	-0.256028
O166	O	1.473985	-0.285146	0.243972
H167	H	0.951611	-0.748903	-0.300131
H168	H	1.451611	-0.248903	0.199869
O169	O	1.169255	-0.786456	-0.454742
O170	O	1.669255	-0.286456	0.045258
H171	H	1.124421	-0.751057	-0.476990
H172	H	1.624421	-0.251057	0.023010
H173	H	1.192236	-0.337757	-0.793859
H174	H	1.692236	0.162243	-0.293859
H175	H	1.191125	-0.919319	-0.335170
H176	H	1.691125	-0.419319	0.164830
H177	H	1.165415	-0.434671	-0.792765
H178	H	1.665415	0.065329	-0.292765
O179	O	0.501448	-0.456841	-0.259273
O180	O	1.001448	0.043159	0.240727
H181	H	0.549796	-0.467725	-0.223186
H182	H	1.049796	0.032275	0.276814
H183	H	1.092240	-0.235880	-0.920179
H184	H	1.592240	0.264120	-0.420179
H185	H	0.954768	-0.400655	-0.920720
H186	H	1.454768	0.099345	-0.420720
O187	O	1.029981	-0.490244	-0.928677
O188	O	1.529981	0.009756	-0.428677
H189	H	1.079276	-0.487800	-0.965086
H190	H	1.579276	0.012200	-0.465086
H191	H	0.507244	-0.478892	-0.374857
H192	H	1.007244	0.021108	0.125143
O193	O	0.640583	-0.493200	-0.388797
O194	O	1.140583	0.006800	0.111203
H195	H	0.676543	-0.467127	-0.431103
H196	H	1.176543	0.032873	0.068897
O197	O	0.976322	-0.252808	-0.928478
O198	O	1.476322	0.247192	-0.428478
H199	H	0.952855	-0.295669	-0.965510
H200	H	1.452855	0.204331	-0.465510
H201	H	0.635026	-0.452008	-0.278892
H202	H	1.135026	0.047992	0.221108
O203	O	0.972597	-0.257648	-0.787312
O204	O	1.472597	0.242352	-0.287312
H205	H	0.950266	-0.302461	-0.751878
H206	H	1.450266	0.197539	-0.251878
H207	H	1.087450	-0.234076	-0.792868
H208	H	1.587450	0.265924	-0.292868
O209	O	0.641946	-0.386836	-0.494115
O210	O	1.141946	0.113164	0.005885
H211	H	0.703168	-0.383947	-0.496067
H212	H	1.203168	0.116053	0.003933
H213	H	0.634329	-0.241719	-0.313119
H214	H	1.134329	0.258281	0.186881
O215	O	0.501123	-0.392586	-0.491546
O216	O	1.001123	0.107414	0.008454
H217	H	0.520156	-0.448638	-0.475575
H218	H	1.020156	0.051362	0.024425
O219	O	0.500377	-0.222557	-0.317460
O220	O	1.000377	0.277443	0.182540
H221	H	0.464196	-0.224526	-0.366912
H222	H	0.964196	0.275474	0.133088
