data_functionalizedCrystal
_audit_creation_method	'MofGen! by Chris Wilmer'
_symmetry_space_group_name_H-M	'P1'
_symmetry_Int_Tables_number	1
_symmetry_cell_setting	triclinic
loop_
_symmetry_equiv_pos_as_xyz
  x,y,z
_cell_length_a	11.026607
_cell_length_b	22.010155
_cell_length_c	11.026607
_cell_angle_alpha	89.992235
_cell_angle_beta	71.413983
_cell_angle_gamma	89.990202
loop_
_atom_site_label
_atom_site_type_symbol
_atom_site_fract_x
_atom_site_fract_y
_atom_site_fract_z
O1	O	1.726739	-0.050524	-0.533607
O2	O	1.360159	-0.050525	-0.472844
O3	O	1.513067	-0.050522	-0.319935
O4	O	1.573831	-0.050526	-0.686515
O5	O	1.513038	0.050528	-0.319958
O6	O	1.360130	0.050526	-0.472867
O7	O	1.726710	0.050527	-0.533630
Cu8	Cu	1.543417	0.059753	-0.503251
Cu9	Cu	1.543451	-0.059751	-0.503223
O10	O	1.573802	0.050524	-0.686538
C11	C	1.312485	0.000000	-0.461645
C12	C	1.170471	0.000000	-0.428228
C13	C	1.116821	-0.000001	-0.520498
C14	C	0.970043	-0.000002	-0.485962
N15	N	1.543402	0.143805	-0.503271
C16	C	1.611168	0.563586	-0.435538
C17	C	1.611172	0.627194	-0.435532
O18	O	1.668740	0.660086	-0.377943
N19	N	1.543446	0.659012	-0.503207
C20	C	1.475700	0.627221	-0.570883
O21	O	1.418094	0.660126	-0.628445
C22	C	1.475690	0.563614	-0.570881
C23	C	1.543431	0.531798	-0.503212
C24	C	1.678902	0.531770	-0.367873
C25	C	1.678900	0.468167	-0.367882
C26	C	1.611163	0.436380	-0.435556
C27	C	1.543428	0.468195	-0.503221
C28	C	1.407938	0.531823	-0.638549
C29	C	1.407932	0.468213	-0.638540
C30	C	1.475673	0.436397	-0.570871
C31	C	1.475689	0.372805	-0.570903
N32	N	1.543415	0.340986	-0.503228
C33	C	1.611152	0.372773	-0.435554
C34	C	1.475726	0.760798	-0.570880
C35	C	1.475744	0.824404	-0.570890
C36	C	1.611213	0.824372	-0.435536
C37	C	1.611202	0.760766	-0.435534
C38	C	1.543452	0.728979	-0.503204
C39	C	1.611143	0.239202	-0.435578
C40	C	1.611139	0.175593	-0.435597
C41	C	1.475664	0.175630	-0.570945
C42	C	1.475673	0.239233	-0.570932
C43	C	1.543415	0.271018	-0.503239
O44	O	1.418146	0.339872	-0.628458
O45	O	1.668736	0.339860	-0.377988
C46	C	1.774384	0.000000	-0.544828
C47	C	1.916398	-0.000003	-0.578245
N48	N	1.543475	0.856197	-0.503210
C49	C	1.501843	0.000002	-0.272287
C50	C	1.468426	0.000000	-0.130273
C51	C	1.585026	-0.000002	-0.734187
C52	C	1.618443	-0.000003	-0.876200
C53	C	1.560695	-0.000000	-0.076624
C54	C	1.526160	-0.000003	0.070155
H55	H	1.107738	-0.000014	-0.323666
C56	C	1.001126	-0.000008	-0.719511
H57	H	1.088663	-0.000013	-0.724194
H58	H	0.983492	0.035227	-0.760758
H59	H	0.983508	-0.035254	-0.760725
C60	C	1.685650	0.140599	-0.361151
H61	H	1.725978	0.168644	-0.320836
H62	H	1.748713	0.115784	-0.418607
H63	H	1.628209	0.115788	-0.298059
H64	H	1.420599	0.850304	-0.626008
C65	C	0.885312	-0.000004	-0.344698
H66	H	0.797776	-0.000009	-0.340017
H67	H	0.902925	0.035234	-0.303466
H68	H	0.902949	-0.035248	-0.303466
H69	H	1.666303	0.265073	-0.380455
H70	H	1.734056	0.442266	-0.312776
H71	H	1.420518	0.149739	-0.626048
C72	C	1.753427	0.566727	-0.293434
H73	H	1.793767	0.538660	-0.253150
H74	H	1.696019	0.591545	-0.230339
H75	H	1.816505	0.591532	-0.350906
H76	H	1.666362	0.734865	-0.380432
C77	C	1.701953	0.000002	-0.161359
H78	H	1.706633	0.000008	-0.248895
H79	H	1.743200	-0.035235	-0.143730
H80	H	1.743169	0.035246	-0.143738
C81	C	1.384895	-0.000004	0.154886
H82	H	1.380215	-0.000001	0.242422
H83	H	1.343671	-0.035241	0.137264
H84	H	1.343656	0.035240	0.137257
H85	H	1.723013	-0.000049	0.061072
C86	C	1.327166	-0.000004	-0.045544
H87	H	1.273755	-0.000009	-0.098237
H88	H	1.310278	0.035231	0.006934
H89	H	1.310312	-0.035250	0.006929
C90	C	1.685708	0.859347	-0.361080
H91	H	1.675994	0.901784	-0.370766
H92	H	1.773787	0.848921	-0.393535
H93	H	1.653275	0.848919	-0.272995
H94	H	1.352777	0.557719	-0.693650
H95	H	1.420561	0.734921	-0.625996
H96	H	1.352758	0.442335	-0.693643
H97	H	1.179555	0.000001	-0.625061
C98	C	1.401102	0.274232	-0.645307
H99	H	1.360737	0.246188	-0.685587
H100	H	1.458473	0.299064	-0.708398
H101	H	1.338041	0.299026	-0.587779
