data_functionalizedCrystal
_audit_creation_method	'MofGen! by Chris Wilmer'
_symmetry_space_group_name_H-M	'P1'
_symmetry_Int_Tables_number	1
_symmetry_cell_setting	triclinic
loop_
_symmetry_equiv_pos_as_xyz
  x,y,z
_cell_length_a	16.109301
_cell_length_b	16.109304
_cell_length_c	15.186229
_cell_angle_alpha	90.000934
_cell_angle_beta	90.000638
_cell_angle_gamma	83.462059
loop_
_atom_site_label
_atom_site_type_symbol
_atom_site_fract_x
_atom_site_fract_y
_atom_site_fract_z
O1	O	1.103132	0.106866	0.073167
O2	O	1.603132	0.606866	0.573167
O3	O	0.861070	0.120165	0.073181
O4	O	1.361070	0.620165	0.573181
O5	O	0.988749	-0.007515	0.073174
O6	O	1.488749	0.492485	0.573174
O7	O	0.975452	0.234546	0.073174
O8	O	1.475452	0.734546	0.573174
O9	O	0.988741	-0.007517	-0.073283
O10	O	1.488741	0.492483	0.426717
O11	O	0.861061	0.120163	-0.073277
O12	O	1.361061	0.620163	0.426723
O13	O	1.103123	0.106864	-0.073290
O14	O	1.603123	0.606864	0.426710
Zn15	Zn	0.982091	0.113513	-0.096537
Zn16	Zn	1.482091	0.613513	0.403463
Zn17	Zn	0.982102	0.113516	0.096427
Zn18	Zn	1.482102	0.613516	0.596427
O19	O	0.975444	0.234545	-0.073283
O20	O	1.475444	0.734545	0.426717
C21	C	0.830091	0.119626	-0.000046
C22	C	1.330091	0.619626	0.499954
C23	C	0.737795	0.118010	-0.000041
C24	C	1.237795	0.618010	0.499959
C25	C	0.988206	-0.038491	-0.000052
C26	C	1.488206	0.461509	0.499948
C27	C	0.986590	-0.130786	-0.000046
C28	C	1.486590	0.369214	0.499954
C29	C	0.515524	0.190018	-0.000051
C30	C	1.015524	0.690018	0.499949
C31	C	0.428803	0.188494	-0.000057
C32	C	0.928803	0.688494	0.499943
C33	C	0.448676	0.037005	-0.000053
C34	C	0.948676	0.537005	0.499947
C35	C	0.535395	0.038530	-0.000054
C36	C	1.035395	0.538530	0.499946
C37	C	0.568816	0.115039	-0.000048
C38	C	1.068816	0.615039	0.499952
C39	C	0.395377	0.111990	-0.000053
C40	C	0.895377	0.611990	0.499947
C41	C	0.301351	0.110337	-0.000059
C42	C	0.801351	0.610337	0.499941
C43	C	0.662848	0.116693	-0.000044
C44	C	1.162848	0.616693	0.499956
C45	C	1.134102	0.107404	-0.000061
C46	C	1.634102	0.607404	0.499939
C47	C	1.226398	0.109019	-0.000061
C48	C	1.726398	0.609019	0.499939
C49	C	0.982861	-0.343123	0.079784
C50	C	1.482861	0.156877	0.579784
C51	C	0.981335	-0.429843	0.079784
C52	C	1.481335	0.070157	0.579784
C53	C	0.981330	-0.429842	-0.079892
C54	C	1.481330	0.070158	0.420108
C55	C	0.982850	-0.343122	-0.079890
C56	C	1.482850	0.156878	0.420110
C57	C	0.983620	-0.299766	-0.000050
C58	C	1.483620	0.200234	0.499950
C59	C	0.980573	-0.473205	-0.000052
C60	C	1.480573	0.026795	0.499948
C61	C	0.978919	-0.567231	-0.000053
C62	C	1.478919	-0.067231	0.499947
C63	C	0.985273	-0.205734	-0.000048
C64	C	1.485273	0.294266	0.499952
C65	C	0.975987	0.265520	-0.000055
C66	C	1.475987	0.765520	0.499945
C67	C	0.977603	0.357816	-0.000055
C68	C	1.477603	0.857816	0.499945
N69	N	0.982089	0.113511	-0.228229
N70	N	1.482089	0.613511	0.271771
C71	C	1.038645	0.056993	-0.453955
C72	C	1.538645	0.556993	0.046045
C73	C	1.038648	0.056991	-0.546145
C74	C	1.538648	0.556991	-0.046145
C75	C	0.925549	0.170032	-0.546148
C76	C	1.425549	0.670032	-0.046148
C77	C	0.925543	0.170029	-0.453960
C78	C	1.425543	0.670029	0.046040
C79	C	0.982096	0.113511	-0.407866
C80	C	1.482096	0.613511	0.092134
C81	C	0.982104	0.113512	-0.592243
C82	C	1.482104	0.613512	-0.092243
C83	C	0.982107	0.113510	-0.692200
C84	C	1.482107	0.613510	-0.192200
C85	C	0.982092	0.113511	-0.307903
C86	C	1.482092	0.613511	0.192097
N87	N	0.982110	0.113511	0.228120
N88	N	1.482110	0.613511	0.728120
H89	H	0.542732	0.252316	-0.000053
H90	H	1.042732	0.752316	0.499947
O91	O	1.093622	0.002186	-0.409119
O92	O	1.593622	0.502186	0.090881
C93	C	1.144889	0.046690	-0.355742
C94	C	1.644889	0.546690	0.144258
H95	H	1.146333	0.112252	-0.383518
H96	H	1.646333	0.612252	0.116482
H97	H	1.118831	0.051058	-0.285890
H98	H	1.618831	0.551058	0.214110
C99	C	1.232366	-0.079686	-0.320157
C100	C	1.732366	0.420314	0.179843
C101	C	1.234145	0.000837	-0.354277
C102	C	1.734145	0.500837	0.145723
H103	H	1.287422	-0.107971	-0.319249
H104	H	1.787422	0.392029	0.180751
H105	H	1.197825	-0.109670	-0.356116
H106	H	1.697825	0.390330	0.143884
H107	H	1.210647	-0.076035	-0.261951
H108	H	1.710647	0.423965	0.238049
H109	H	1.255853	-0.002816	-0.412486
H110	H	1.755853	0.497184	0.087514
H111	H	1.268692	0.030819	-0.318328
H112	H	1.768692	0.530819	0.181672
H113	H	1.084694	0.010969	-0.583668
H114	H	1.584694	0.510969	-0.083668
O115	O	0.870642	0.224857	-0.409047
O116	O	1.370642	0.724857	0.090953
C117	C	0.882779	0.212747	-0.317796
C118	C	1.382779	0.712747	0.182204
H119	H	0.913866	0.146653	-0.305210
H120	H	1.413866	0.646653	0.194790
H121	H	0.924465	0.259814	-0.291629
H122	H	1.424465	0.759814	0.208371
C123	C	0.759548	0.306399	-0.285925
C124	C	1.259548	0.806399	0.214075
C125	C	0.797724	0.225218	-0.270466
C126	C	1.297724	0.725218	0.229534
H127	H	0.707083	0.314095	-0.256729
H128	H	1.207083	0.814095	0.243271
H129	H	0.751372	0.314561	-0.347402
H130	H	1.251372	0.814561	0.152598
H131	H	0.794295	0.345612	-0.264120
H132	H	1.294295	0.845612	0.235880
H133	H	0.762982	0.186007	-0.292281
H134	H	1.262982	0.686007	0.207719
H135	H	0.805892	0.217050	-0.208991
H136	H	1.305892	0.717050	0.291009
H137	H	0.983463	-0.307820	-0.144905
H138	H	1.483463	0.192180	0.355095
H139	H	0.879506	0.216049	-0.583687
H140	H	1.379506	0.716049	-0.083687
O141	O	0.376917	0.261252	-0.000092
O142	O	0.876917	0.761252	0.499908
C143	C	0.293209	0.243505	-0.000072
C144	C	0.793209	0.743505	0.499928
H145	H	0.289902	0.178204	-0.027803
H146	H	0.789902	0.678204	0.472197
H147	H	0.268129	0.246660	0.070191
H148	H	0.768129	0.746660	0.570191
C149	C	0.244177	0.388273	-0.023443
C150	C	0.744177	0.888273	0.476557
C151	C	0.240115	0.308071	-0.057510
C152	C	0.740115	0.808071	0.442490
H153	H	0.211424	0.428102	-0.058870
H154	H	0.711424	0.928102	0.441130
H155	H	0.300572	0.400231	-0.023453
H156	H	0.800572	0.900231	0.476547
H157	H	0.223279	0.390891	0.035109
H158	H	0.723279	0.890891	0.535109
H159	H	0.261022	0.305452	-0.116057
H160	H	0.761022	0.805452	0.383943
H161	H	0.183721	0.296115	-0.057511
H162	H	0.683721	0.796115	0.442489
H163	H	0.421454	-0.025285	-0.000063
H164	H	0.921454	0.474715	0.499937
H165	H	0.578788	-0.022530	-0.000054
H166	H	1.078788	0.477470	0.499946
O167	O	0.983562	-0.301128	0.157417
O168	O	1.483562	0.198872	0.657417
C169	C	0.982584	-0.357999	0.227879
C170	C	1.482584	0.142001	0.727879
H171	H	0.955195	-0.416365	0.204471
H172	H	1.455195	0.083635	0.704471
H173	H	1.049083	-0.375963	0.252429
H174	H	1.549083	0.124037	0.752429
C175	C	0.962326	-0.245324	0.332058
C176	C	1.462326	0.254676	0.832058
C177	C	0.928680	-0.317008	0.303309
C178	C	1.428680	0.182992	0.803309
H179	H	0.929079	-0.220038	0.378589
H180	H	1.429079	0.279962	0.878589
H181	H	0.962988	-0.207008	0.284587
H182	H	1.462988	0.292992	0.784587
H183	H	1.017741	-0.260304	0.352510
H184	H	1.517741	0.239696	0.852510
H185	H	0.873271	-0.302025	0.282848
H186	H	1.373271	0.197975	0.782848
H187	H	0.928007	-0.355320	0.350779
H188	H	1.428007	0.144680	0.850779
O189	O	0.980562	-0.472083	0.157256
O190	O	1.480562	0.027917	0.657256
C191	C	0.979074	-0.557924	0.140139
C192	C	1.479074	-0.057924	0.640139
H193	H	0.952555	-0.566319	0.071528
H194	H	1.452555	-0.066319	0.571528
H195	H	1.045302	-0.591277	0.143919
H196	H	1.545302	-0.091277	0.643919
C197	C	0.956377	-0.584988	0.293287
C198	C	1.456377	-0.084988	0.793287
C199	C	0.923799	-0.595298	0.209021
C200	C	1.423799	-0.095298	0.709021
H201	H	0.922284	-0.608044	0.335778
H202	H	1.422284	-0.108044	0.835778
H203	H	0.957382	-0.527156	0.304820
H204	H	1.457382	-0.027156	0.804820
H205	H	1.011566	-0.612782	0.296425
H206	H	1.511566	-0.112782	0.796425
H207	H	0.868615	-0.567495	0.205881
H208	H	1.368615	-0.067495	0.705881
H209	H	0.922783	-0.653126	0.197489
H210	H	1.422783	-0.153126	0.697489
O211	O	0.980628	-0.472095	-0.157367
O212	O	1.480628	0.027905	0.342633
C213	C	0.979108	-0.557931	-0.140251
C214	C	1.479108	-0.057931	0.359749
H215	H	1.005203	-0.573223	-0.071637
H216	H	1.505203	-0.073223	0.428363
H217	H	0.912018	-0.573804	-0.144041
H218	H	1.412018	-0.073804	0.355959
C219	C	1.000774	-0.590814	-0.293397
C220	C	1.500774	-0.090814	0.206603
C221	C	1.032831	-0.609597	-0.209126
C222	C	1.532831	-0.109597	0.290874
H223	H	1.033909	-0.622686	-0.335883
H224	H	1.533909	-0.122686	0.164117
H225	H	1.001795	-0.532985	-0.304929
H226	H	1.501795	-0.032985	0.195071
H227	H	0.944866	-0.604042	-0.296542
H228	H	1.444866	-0.104042	0.203458
H229	H	1.088734	-0.596360	-0.205978
H230	H	1.588734	-0.096360	0.294022
H231	H	1.031820	-0.667427	-0.197595
H232	H	1.531820	-0.167427	0.302405
