data_functionalizedCrystal
_audit_creation_method	'MofGen! by Chris Wilmer'
_symmetry_space_group_name_H-M	'P1'
_symmetry_Int_Tables_number	1
_symmetry_cell_setting	triclinic
loop_
_symmetry_equiv_pos_as_xyz
  x,y,z
_cell_length_a	19.077105
_cell_length_b	19.121063
_cell_length_c	19.077174
_cell_angle_alpha	94.804191
_cell_angle_beta	85.483752
_cell_angle_gamma	90.263052
loop_
_atom_site_label
_atom_site_type_symbol
_atom_site_fract_x
_atom_site_fract_y
_atom_site_fract_z
Zn1	Zn	1.079661	-0.341255	-0.455843
Zn2	Zn	1.412994	-0.007922	-0.122510
Zn3	Zn	1.746327	0.325411	0.210823
Zn4	Zn	1.070214	-0.453789	-0.342572
Zn5	Zn	1.403547	-0.120456	-0.009239
Zn6	Zn	1.736881	0.212878	0.324095
Zn7	Zn	0.957450	-0.331437	-0.332838
Zn8	Zn	1.290783	0.001896	0.000495
Zn9	Zn	1.624116	0.335229	0.333829
Zn10	Zn	0.957110	-0.453743	-0.455688
Zn11	Zn	1.290443	-0.120410	-0.122355
Zn12	Zn	1.623776	0.212924	0.210979
O13	O	1.016109	-0.395056	-0.396735
O14	O	1.349442	-0.061723	-0.063402
O15	O	1.682775	0.271611	0.269931
O16	O	1.176888	-0.360311	-0.444956
O17	O	1.510221	-0.026978	-0.111623
O18	O	1.843554	0.306355	0.221710
O19	O	1.051444	-0.433469	-0.242463
O20	O	1.384778	-0.100136	0.090870
O21	O	1.718111	0.233198	0.424203
O22	O	0.977757	-0.234459	-0.345146
O23	O	1.311090	0.098874	-0.011813
O24	O	1.644424	0.432208	0.321521
O25	O	1.169947	-0.442989	-0.361736
O26	O	1.503281	-0.109656	-0.028403
O27	O	1.836614	0.223678	0.304930
O28	O	1.067545	-0.241672	-0.435517
O29	O	1.400878	0.091661	-0.102184
O30	O	1.734211	0.424995	0.231149
O31	O	0.968597	-0.343578	-0.235312
O32	O	1.301930	-0.010245	0.098022
O33	O	1.635264	0.323089	0.431355
O34	O	0.858924	-0.343533	-0.344996
O35	O	1.192258	-0.010200	-0.011662
O36	O	1.525591	0.323133	0.321671
O37	O	0.977178	-0.442911	-0.554526
O38	O	1.310511	-0.109577	-0.221193
O39	O	1.643844	0.223756	0.112141
O40	O	0.858675	-0.433391	-0.435253
O41	O	1.192008	-0.100057	-0.101920
O42	O	1.525341	0.233276	0.231414
O43	O	1.067215	-0.360267	-0.554640
O44	O	1.400548	-0.026933	-0.221307
O45	O	1.733882	0.306400	0.112027
O46	O	1.051115	-0.552064	-0.361586
O47	O	1.384448	-0.218730	-0.028253
O48	O	1.717781	0.114603	0.305081
O49	O	0.968018	-0.552030	-0.444692
O50	O	1.301351	-0.218697	-0.111358
O51	O	1.634684	0.114637	0.221975
C52	C	0.833265	-0.387392	-0.389052
C53	C	1.166598	-0.054059	-0.055718
C54	C	1.499931	0.279274	0.277615
C55	C	0.755043	-0.384131	-0.385782
C56	C	1.088377	-0.050798	-0.052449
C57	C	1.421710	0.282535	0.280885
C58	C	0.718177	-0.429448	-0.431170
C59	C	1.051511	-0.096115	-0.097836
C60	C	1.384844	0.237219	0.235497
C61	C	0.644681	-0.426375	-0.428101
C62	C	0.978014	-0.093041	-0.094767
C63	C	1.311347	0.240292	0.238566
C64	C	0.608051	-0.377988	-0.379640
C65	C	0.941384	-0.044654	-0.046306
C66	C	1.274717	0.288679	0.287027
C67	C	0.644922	-0.332666	-0.334250
C68	C	0.978255	0.000667	-0.000916
C69	C	1.311588	0.334000	0.332417
C70	C	0.718417	-0.335737	-0.337323
C71	C	1.051751	-0.002403	-0.003990
C72	C	1.385084	0.330930	0.329344
C73	C	0.388255	-0.363778	-0.365420
C74	C	0.721588	-0.030445	-0.032087
C75	C	1.054921	0.302888	0.301247
C76	C	0.314753	-0.360713	-0.362349
C77	C	0.648087	-0.027379	-0.029016
C78	C	0.981420	0.305954	0.304318
C79	C	0.314518	-0.454421	-0.456201
C80	C	0.647851	-0.121087	-0.122868
C81	C	0.981184	0.212246	0.210466
C82	C	0.388015	-0.457489	-0.459267
C83	C	0.721348	-0.124156	-0.125934
C84	C	1.054681	0.209177	0.207400
C85	C	0.424879	-0.412166	-0.413880
C86	C	0.758213	-0.078832	-0.080546
C87	C	1.091546	0.254501	0.252787
N88	N	0.532925	-0.374847	-0.376500
N89	N	0.866258	-0.041513	-0.043166
N90	N	1.199592	0.291820	0.290167
N91	N	0.500004	-0.415304	-0.417024
N92	N	0.833337	-0.081970	-0.083690
N93	N	1.166671	0.251363	0.249643
C94	C	1.008524	-0.577531	-0.404195
C95	C	1.341857	-0.244198	-0.070861
C96	C	1.675191	0.089135	0.262472
C97	C	1.005344	-0.655599	-0.407412
C98	C	1.338678	-0.322265	-0.074079
C99	C	1.672011	0.011068	0.259255
C100	C	1.047151	-0.692272	-0.365694
C101	C	1.380485	-0.358939	-0.032360
C102	C	1.713818	-0.025606	0.300973
C103	C	1.044165	-0.765625	-0.368724
C104	C	1.377499	-0.432292	-0.035391
C105	C	1.710832	-0.098959	0.297943
C106	C	0.999368	-0.802303	-0.413469
C107	C	1.332702	-0.468970	-0.080136
C108	C	1.666035	-0.135636	0.253197
C109	C	0.957560	-0.765624	-0.455192
C110	C	1.290893	-0.432291	-0.121859
C111	C	1.624226	-0.098958	0.211474
C112	C	0.960550	-0.692273	-0.452165
C113	C	1.293883	-0.358940	-0.118832
C114	C	1.627217	-0.025606	0.214501
C115	C	0.988177	-1.023777	-0.424775
C116	C	1.321511	-0.690444	-0.091442
C117	C	1.654844	-0.357110	0.241892
C118	C	0.985189	-1.097133	-0.427797
C119	C	1.318522	-0.763800	-0.094464
C120	C	1.651855	-0.430467	0.238869
C121	C	1.071796	-1.097129	-0.341330
C122	C	1.405129	-0.763796	-0.007996
C123	C	1.738462	-0.430462	0.325337
C124	C	1.074779	-1.023776	-0.338303
C125	C	1.408112	-0.690443	-0.004970
C126	C	1.741445	-0.357109	0.328363
C127	C	1.032973	-0.987104	-0.380029
C128	C	1.366306	-0.653771	-0.046696
C129	C	1.699640	-0.320437	0.286638
C130	C	0.996314	-0.877281	-0.416566
C131	C	1.329647	-0.543948	-0.083233
C132	C	1.662980	-0.210615	0.250101
C133	C	1.036032	-0.912127	-0.376936
C134	C	1.369365	-0.578794	-0.043602
C135	C	1.702699	-0.245461	0.289731
C136	C	1.199666	-0.402750	-0.404449
C137	C	1.533000	-0.069417	-0.071116
C138	C	1.866333	0.263916	0.262217
C139	C	1.277888	-0.406029	-0.407737
C140	C	1.611221	-0.072696	-0.074403
C141	C	1.944554	0.260637	0.258930
C142	C	1.023212	-0.402679	-0.580922
C143	C	1.356546	-0.069345	-0.247588
C144	C	1.689879	0.263988	0.085745
C145	C	1.026239	-0.405927	-0.659411
C146	C	1.359573	-0.072594	-0.326078
C147	C	1.692906	0.260740	0.007256
C148	C	1.023743	-0.211870	-0.389263
C149	C	1.357076	0.121464	-0.055930
C150	C	1.690409	0.454797	0.277403
C151	C	1.026996	-0.133807	-0.386079
C152	C	1.360329	0.199527	-0.052746
C153	C	1.693662	0.532860	0.280588
C154	C	0.984529	-0.360653	-0.692562
C155	C	1.317863	-0.027319	-0.359228
C156	C	1.651196	0.306014	-0.025895
C157	C	0.987371	-0.363710	-0.766311
C158	C	1.320704	-0.030377	-0.432978
C159	C	1.654037	0.302956	-0.099644
C160	C	1.031926	-0.412040	-0.806908
C161	C	1.365260	-0.078706	-0.473575
C162	C	1.698593	0.254627	-0.140242
C163	C	1.073638	-0.457319	-0.773753
C164	C	1.406971	-0.123986	-0.440419
C165	C	1.740305	0.209348	-0.107086
C166	C	1.070792	-0.454264	-0.700005
C167	C	1.404126	-0.120931	-0.366672
C168	C	1.737459	0.212403	-0.033338
C169	C	1.045059	-0.426198	-1.027870
C170	C	1.378392	-0.092865	-0.694537
C171	C	1.711725	0.240469	-0.361204
C172	C	1.047903	-0.429248	-1.101623
C173	C	1.381236	-0.095915	-0.768290
C174	C	1.714569	0.237418	-0.434956
C175	C	0.961634	-0.335640	-1.094176
C176	C	1.294967	-0.002307	-0.760843
C177	C	1.628300	0.331027	-0.427509
C178	C	0.958795	-0.332587	-1.020427
C179	C	1.292129	0.000747	-0.687094
C180	C	1.625462	0.334080	-0.353761
C181	C	1.000504	-0.377868	-0.987278
C182	C	1.333838	-0.044535	-0.653945
C183	C	1.667171	0.288798	-0.320611
N184	N	1.034833	-0.415165	-0.882292
N185	N	1.368167	-0.081832	-0.548958
N186	N	1.701500	0.251502	-0.215625
N187	N	0.997593	-0.374746	-0.911896
N188	N	1.330926	-0.041413	-0.578563
N189	N	1.664260	0.291921	-0.245229
C190	C	1.009075	-0.387414	-0.213265
C191	C	1.342408	-0.054081	0.120068
C192	C	1.675742	0.279252	0.453402
C193	C	1.006192	-0.383974	-0.134774
C194	C	1.339526	-0.050640	0.198560
C195	C	1.672859	0.282693	0.531893
H196	H	0.614668	-0.463277	-0.465060
H197	H	0.948001	-0.129944	-0.131726
H198	H	1.281334	0.203390	0.201607
H199	H	0.284932	-0.321302	-0.322890
H200	H	0.618265	0.012031	0.010443
H201	H	0.951598	0.345364	0.343777
H202	H	0.948251	-0.321294	-0.659512
H203	H	1.281585	0.012040	-0.326179
H204	H	1.614918	0.345373	0.007154
N205	N	0.758184	-0.286855	-0.288374
N206	N	1.091517	0.046478	0.044959
N207	N	1.424851	0.379811	0.378293
H208	H	0.723828	-0.255736	-0.257208
H209	H	1.057161	0.077597	0.076126
H210	H	1.390495	0.410931	0.409459
H211	H	0.786227	-0.315308	-0.258088
H212	H	1.119560	0.018025	0.075245
H213	H	1.452893	0.351358	0.408579
H214	H	0.417834	-0.496893	-0.498728
H215	H	0.751167	-0.163559	-0.165394
H216	H	1.084500	0.169774	0.167939
H217	H	0.418261	-0.326877	-0.328457
H218	H	0.751594	0.006456	0.004876
H219	H	1.084927	0.339789	0.338209
H220	H	0.615092	-0.293266	-0.294795
H221	H	0.948425	0.040068	0.038539
H222	H	1.281759	0.373401	0.371872
H223	H	1.072509	-0.882262	-0.340507
H224	H	1.405842	-0.548929	-0.007173
H225	H	1.739175	-0.215596	0.326160
N226	N	1.116880	-1.136689	-0.296330
N227	N	1.450213	-0.803355	0.037003
N228	N	1.783547	-0.470022	0.370337
H229	H	1.149339	-1.169636	-0.327677
H230	H	1.482672	-0.836303	0.005657
H231	H	1.816005	-0.502970	0.338990
H232	H	1.145668	-1.102281	-0.267529
H233	H	1.479001	-0.768947	0.065805
H234	H	1.812335	-0.435614	0.399138
N235	N	0.274757	-0.503303	-0.505152
N236	N	0.608091	-0.169970	-0.171819
N237	N	0.941424	0.163364	0.161515
H238	H	0.222640	-0.494018	-0.495854
H239	H	0.555973	-0.160685	-0.162521
H240	H	0.889306	0.172649	0.170812
H241	H	0.290012	-0.495074	-0.555697
H242	H	0.623345	-0.161741	-0.222363
H243	H	0.956678	0.171592	0.110970
H244	H	0.922511	-0.293233	-0.987377
H245	H	1.255845	0.040100	-0.654044
H246	H	1.589178	0.373433	-0.320711
N247	N	0.943079	-0.984229	-0.469768
N248	N	1.276413	-0.650895	-0.136435
N249	N	1.609746	-0.317562	0.196899
H250	H	0.974153	-0.956310	-0.502464
H251	H	1.307487	-0.622977	-0.169131
H252	H	1.640820	-0.289643	0.164203
H253	H	0.914252	-1.018640	-0.498523
H254	H	1.247585	-0.685306	-0.165189
H255	H	1.580918	-0.351973	0.168144
H256	H	0.959838	-0.907152	-0.452996
H257	H	1.293172	-0.573819	-0.119663
H258	H	1.626505	-0.240486	0.213670
N259	N	0.916635	-0.286816	-1.129929
N260	N	1.249969	0.046517	-0.796596
N261	N	1.583302	0.379850	-0.463262
H262	H	0.925192	-0.296087	-1.182808
H263	H	1.258525	0.037246	-0.849475
H264	H	1.591858	0.370579	-0.516141
H265	H	0.865426	-0.295121	-1.115364
H266	H	1.198759	0.038212	-0.782031
H267	H	1.532093	0.371545	-0.448698
N268	N	1.090047	-0.475033	-0.992124
N269	N	1.423380	-0.141700	-0.658791
N270	N	1.756714	0.191633	-0.325458
H271	H	1.141279	-0.466762	-1.006626
H272	H	1.474612	-0.133428	-0.673293
H273	H	1.807945	0.199905	-0.339960
H274	H	1.081426	-0.465745	-0.939255
H275	H	1.414760	-0.132412	-0.605921
H276	H	1.748093	0.200922	-0.272588
N277	N	1.095964	-0.481374	-1.145413
N278	N	1.429298	-0.148041	-0.812080
N279	N	1.762631	0.185292	-0.478746
H280	H	1.121955	-0.509597	-1.113223
H281	H	1.455288	-0.176264	-0.779890
H282	H	1.788622	0.157069	-0.446557
H283	H	1.067143	-0.513938	-1.176137
H284	H	1.400477	-0.180605	-0.842803
H285	H	1.733810	0.152728	-0.509470
H286	H	1.083627	-0.662414	-0.329254
H287	H	1.416960	-0.329080	0.004079
H288	H	1.750293	0.004253	0.337413
H289	H	0.953403	-0.326846	-0.793298
H290	H	1.286736	0.006488	-0.459965
H291	H	1.620070	0.339821	-0.126632
N292	N	1.089257	-0.805181	-0.323728
N293	N	1.422590	-0.471848	0.009605
N294	N	1.755923	-0.138514	0.342939
H295	H	1.118085	-0.770815	-0.294919
H296	H	1.451419	-0.437482	0.038414
H297	H	1.784752	-0.104149	0.371747
H298	H	1.058131	-0.833103	-0.291083
H299	H	1.391465	-0.499770	0.042251
H300	H	1.724798	-0.166436	0.375584
N301	N	1.121687	-0.509455	-0.817536
N302	N	1.455020	-0.176121	-0.484202
N303	N	1.788354	0.157212	-0.150869
H304	H	1.117162	-0.504521	-0.869286
H305	H	1.450495	-0.171188	-0.535952
H306	H	1.783828	0.162146	-0.202619
H307	H	1.171907	-0.500102	-0.806312
H308	H	1.505240	-0.166769	-0.472979
H309	H	1.838574	0.166565	-0.139646
N310	N	0.909244	-0.805180	-0.503457
N311	N	1.242578	-0.471847	-0.170123
N312	N	1.575911	-0.138513	0.163210
H313	H	0.913691	-0.857213	-0.499043
H314	H	1.247024	-0.523880	-0.165709
H315	H	1.580358	-0.190546	0.167624
H316	H	0.859089	-0.789843	-0.489785
H317	H	1.192422	-0.456509	-0.156452
H318	H	1.525755	-0.123176	0.176882
H319	H	1.104763	-0.491126	-0.673015
H320	H	1.438096	-0.157793	-0.339682
H321	H	1.771429	0.175540	-0.006348
N322	N	1.123106	-0.984218	-0.290053
N323	N	1.456440	-0.650885	0.043280
N324	N	1.789773	-0.317552	0.376613
H325	H	1.149143	-1.018583	-0.264088
H326	H	1.482476	-0.685249	0.069245
H327	H	1.815810	-0.351916	0.402578
H328	H	1.157998	-0.956304	-0.318946
H329	H	1.491331	-0.622971	0.014387
H330	H	1.824665	-0.289637	0.347720
H331	H	0.948718	-1.126995	-0.464247
H332	H	1.282052	-0.793662	-0.130914
H333	H	1.615385	-0.460328	0.202420
N334	N	0.915460	-0.652710	-0.497158
N335	N	1.248793	-0.319376	-0.163824
N336	N	1.582126	0.013957	0.169509
H337	H	0.927776	-0.667989	-0.548604
H338	H	1.261109	-0.334655	-0.215271
H339	H	1.594442	-0.001322	0.118062
H340	H	0.864255	-0.662972	-0.484508
H341	H	1.197588	-0.329639	-0.151174
H342	H	1.530921	0.003694	0.182159
N343	N	0.757683	-0.481642	-0.483434
N344	N	1.091016	-0.148308	-0.150101
N345	N	1.424349	0.185025	0.183233
H346	H	0.723173	-0.509882	-0.511722
H347	H	1.056506	-0.176549	-0.178388
H348	H	1.389840	0.156785	0.154945
H349	H	0.790632	-0.455734	-0.516270
H350	H	1.123965	-0.122400	-0.182936
H351	H	1.457299	0.210933	0.150397
