data_functionalizedCrystal
_audit_creation_method	'MofGen! by Chris Wilmer'
_symmetry_space_group_name_H-M	'P1'
_symmetry_Int_Tables_number	1
_symmetry_cell_setting	triclinic
loop_
_symmetry_equiv_pos_as_xyz
  x,y,z
_cell_length_a	11.792241
_cell_length_b	10.268362
_cell_length_c	11.792241
_cell_angle_alpha	89.998512
_cell_angle_beta	95.806584
_cell_angle_gamma	90.000426
loop_
_atom_site_label
_atom_site_type_symbol
_atom_site_fract_x
_atom_site_fract_y
_atom_site_fract_z
O1	O	1.506910	0.108174	-0.155562
O2	O	2.006910	0.608174	0.344438
O3	O	1.176568	0.108205	-0.171595
O4	O	1.676568	0.608205	0.328405
O5	O	1.349755	0.108180	0.001592
O6	O	1.849755	0.608180	0.501592
O7	O	1.333723	0.108199	-0.328749
O8	O	1.833723	0.608199	0.171251
O9	O	1.349739	-0.108421	0.001586
O10	O	1.849739	0.391579	0.501586
O11	O	1.176552	-0.108396	-0.171601
O12	O	1.676552	0.391604	0.328399
O13	O	1.506893	-0.108426	-0.155568
O14	O	2.006893	0.391574	0.344432
Cu15	Cu	1.341721	-0.128188	-0.163585
Cu16	Cu	1.841721	0.371812	0.336415
Cu17	Cu	1.341741	0.127967	-0.163578
Cu18	Cu	1.841741	0.627967	0.336422
O19	O	1.333706	-0.108401	-0.328755
O20	O	1.833706	0.391599	0.171245
C21	C	1.134269	-0.000092	-0.170591
C22	C	1.634269	0.499908	0.329409
C23	C	1.008255	-0.000080	-0.167576
C24	C	1.508255	0.499920	0.332424
C25	C	0.777543	-0.000118	-0.162034
C26	C	1.277543	0.499882	0.337966
C27	C	0.905928	-0.000097	-0.165113
C28	C	1.405928	0.499903	0.334887
N29	N	1.341715	-0.308354	-0.163589
N30	N	1.841715	0.191646	0.336411
C31	C	1.341724	-0.426197	-0.163590
C32	C	1.841724	0.073803	0.336410
C33	C	1.341738	-0.574035	-0.163580
C34	C	1.841738	-0.074035	0.336420
C35	C	1.549192	-0.000127	-0.156572
C36	C	2.049192	0.499873	0.343428
C37	C	1.675206	-0.000130	-0.159587
C38	C	2.175206	0.499870	0.340413
C39	C	1.348740	-0.000120	0.043880
C40	C	1.848740	0.499880	0.543880
C41	C	1.345726	-0.000119	0.169894
C42	C	1.845726	0.499881	0.669894
N43	N	1.341755	0.308133	-0.163565
N44	N	1.841755	0.808133	0.336435
C45	C	1.334721	-0.000099	-0.371043
C46	C	1.834721	0.499901	0.128957
C47	C	1.337736	-0.000092	-0.497057
C48	C	1.837736	0.499908	0.002943
C49	C	1.340183	-0.000096	0.400606
C50	C	1.840183	0.499904	0.900606
C51	C	1.343262	-0.000108	0.272221
C52	C	1.843262	0.499892	0.772221
