data_functionalizedCrystal
_audit_creation_method	'MofGen! by Chris Wilmer'
_symmetry_space_group_name_H-M	'P1'
_symmetry_Int_Tables_number	1
_symmetry_cell_setting	triclinic
loop_
_symmetry_equiv_pos_as_xyz
  x,y,z
_cell_length_a	8.559649
_cell_length_b	14.519731
_cell_length_c	7.681481
_cell_angle_alpha	84.245782
_cell_angle_beta	94.912730
_cell_angle_gamma	76.733759
loop_
_atom_site_label
_atom_site_type_symbol
_atom_site_fract_x
_atom_site_fract_y
_atom_site_fract_z
O1	O	2.104957	-0.021481	-0.146421
O2	O	2.438290	0.311853	0.186913
O3	O	2.771623	0.645186	0.520246
O4	O	1.639894	0.026137	-0.146428
O5	O	1.973228	0.359470	0.186906
O6	O	2.306561	0.692804	0.520239
O7	O	1.884740	-0.132794	-0.146408
O8	O	2.218073	0.200539	0.186925
O9	O	2.551407	0.533873	0.520259
O10	O	1.860111	0.137450	-0.146440
O11	O	2.193445	0.470783	0.186893
O12	O	2.526778	0.804117	0.520226
O13	O	1.914876	-0.152395	0.146452
O14	O	2.248210	0.180938	0.479786
O15	O	2.581543	0.514272	0.813119
O16	O	1.670031	0.006536	0.146433
O17	O	2.003364	0.339869	0.479766
O18	O	2.336697	0.673202	0.813099
O19	O	2.135093	-0.041082	0.146440
O20	O	2.468426	0.292252	0.479773
O21	O	2.801760	0.625585	0.813106
Zn22	Zn	1.907347	-0.020385	0.192934
Zn23	Zn	2.240680	0.312948	0.526267
Zn24	Zn	2.574013	0.646282	0.859601
Zn25	Zn	1.867641	0.005440	-0.192922
Zn26	Zn	2.200974	0.338774	0.140411
Zn27	Zn	2.534307	0.672107	0.473745
O28	O	1.890248	0.117849	0.146420
O29	O	2.223581	0.451182	0.479753
O30	O	2.556914	0.784516	0.813087
C31	C	1.595443	0.019945	0.000002
C32	C	1.928777	0.353278	0.333335
C33	C	2.262110	0.686612	0.666668
C34	C	1.418095	0.030686	-0.000000
C35	C	1.751429	0.364020	0.333333
C36	C	2.084762	0.697353	0.666666
C37	C	1.898654	-0.176871	0.000023
C38	C	2.231988	0.156462	0.333356
C39	C	2.565321	0.489796	0.666689
C40	C	1.895197	-0.279003	0.000024
C41	C	2.228530	0.054330	0.333357
C42	C	2.561863	0.387663	0.666690
C43	C	1.892387	-0.361945	0.000019
C44	C	2.225720	-0.028612	0.333353
C45	C	2.559054	0.304721	0.666686
C46	C	1.888875	-0.466001	0.000006
C47	C	2.222208	-0.132668	0.333339
C48	C	2.555542	0.200665	0.666673
C49	C	1.886088	-0.548940	-0.000005
C50	C	2.219421	-0.215606	0.333328
C51	C	2.552754	0.117727	0.666661
C52	C	1.882576	-0.653002	-0.000016
C53	C	2.215910	-0.319669	0.333318
C54	C	2.549243	0.013664	0.666651
C55	C	2.179544	-0.034890	0.000006
C56	C	2.512877	0.298444	0.333340
C57	C	2.846210	0.631777	0.666673
C58	C	2.356891	-0.045630	-0.000003
C59	C	2.690224	0.287703	0.333330
C60	C	3.023557	0.621036	0.666664
C61	C	1.876333	0.161926	-0.000014
C62	C	2.209666	0.495260	0.333319
C63	C	2.543000	0.828593	0.666652
C64	C	1.879789	0.264059	-0.000027
C65	C	2.213122	0.597393	0.333306
C66	C	2.546456	0.930726	0.666640
N67	N	1.934457	-0.038012	0.456270
N68	N	2.267790	0.295322	0.789604
N69	N	2.601123	0.628655	1.122937
N70	N	1.840544	0.023059	-0.456258
N71	N	2.173877	0.356392	-0.122925
N72	N	2.507210	0.689725	0.210408
H73	H	1.334816	0.104244	-0.000027
H74	H	1.668149	0.437577	0.333307
H75	H	2.001482	0.770910	0.666640
H76	H	1.744677	0.085393	0.468537
H77	H	2.078011	0.418727	0.801870
H78	H	2.411344	0.752060	1.135204
O79	O	1.467195	-0.143078	0.000036
O80	O	1.800529	0.190256	0.333369
O81	O	2.133862	0.523589	0.666703
H82	H	1.593860	-0.136513	0.000071
H83	H	1.927194	0.196820	0.333404
H84	H	2.260527	0.530154	0.666738
H85	H	2.030341	-0.100345	0.531484
H86	H	2.363674	0.232988	0.864817
H87	H	2.697007	0.566322	1.198151
