data_functionalizedCrystal
_audit_creation_method	'MofGen! by Chris Wilmer'
_symmetry_space_group_name_H-M	'P1'
_symmetry_Int_Tables_number	1
_symmetry_cell_setting	triclinic
loop_
_symmetry_equiv_pos_as_xyz
  x,y,z
_cell_length_a	16.109301
_cell_length_b	10.489741
_cell_length_c	15.186229
_cell_angle_alpha	89.996534
_cell_angle_beta	89.999362
_cell_angle_gamma	84.000327
loop_
_atom_site_label
_atom_site_type_symbol
_atom_site_fract_x
_atom_site_fract_y
_atom_site_fract_z
O1	O	1.104141	0.163947	-0.073172
O2	O	0.862205	0.184350	-0.073186
O3	O	0.988678	-0.011529	-0.073174
O4	O	0.977668	0.359826	-0.073185
O5	O	0.988670	-0.011532	0.073284
O6	O	0.862196	0.184347	0.073271
O7	O	1.104133	0.163944	0.073285
Zn8	Zn	0.983163	0.174145	0.096531
Zn9	Zn	0.983174	0.174149	-0.096433
O10	O	0.977659	0.359823	0.073272
C11	C	0.831221	0.183522	0.000041
C12	C	0.738910	0.181044	0.000035
C13	C	0.517319	0.291514	0.000042
C14	C	0.430584	0.289175	0.000048
C15	C	0.449026	0.056771	0.000051
C16	C	0.535759	0.059111	0.000052
C17	C	0.569903	0.176486	0.000043
C18	C	0.396435	0.171808	0.000048
C19	C	0.302393	0.169272	0.000054
C20	C	0.663950	0.179022	0.000038
C21	C	0.987842	-0.059050	0.000054
C22	C	0.985354	-0.200644	0.000053
C23	C	0.904883	-0.267616	0.000042
C24	C	0.942893	-0.360292	0.072255
C25	C	0.942920	-0.360264	-0.072141
C26	C	1.023397	-0.291454	0.072325
C27	C	1.023413	-0.291417	-0.072135
C28	C	1.061482	-0.384066	0.000096
C29	C	1.135117	0.164772	0.000056
C30	C	1.227427	0.167250	0.000056
C31	C	0.978495	0.407344	0.000042
C32	C	0.980983	0.548938	0.000038
N33	N	0.983162	0.174142	0.228224
N34	N	0.983183	0.174142	-0.228125
C35	C	1.039183	0.087436	0.453952
C36	C	1.039186	0.087433	0.546142
C37	C	0.927155	0.260852	0.546140
C38	C	0.927149	0.260848	0.453952
C39	C	0.983168	0.174141	0.407860
C40	C	0.983176	0.174142	0.592238
C41	C	0.983179	0.174140	0.692194
C42	C	0.983165	0.174142	0.307898
H43	H	0.387773	0.382843	0.000049
H44	H	1.127704	-0.434450	0.000140
H45	H	1.084796	0.016832	0.416427
H46	H	0.881530	0.331455	0.416421
C47	C	0.324258	-0.050008	0.000043
C48	C	0.411491	-0.072243	0.000050
H49	H	0.301089	-0.129660	0.000034
H50	H	0.306258	-0.002663	0.051113
H51	H	0.306266	-0.002640	-0.051034
H52	H	0.429483	-0.119603	0.051130
H53	H	0.429498	-0.119608	-0.051025
C54	C	1.139446	-0.190805	-0.128976
C55	C	1.069346	-0.250158	-0.154547
H56	H	1.167799	-0.165339	-0.179860
H57	H	1.122233	-0.117557	-0.094169
H58	H	1.175853	-0.249280	-0.095566
H59	H	1.032936	-0.191680	-0.187952
H60	H	1.086558	-0.323416	-0.189368
H61	H	1.057413	-0.261117	0.133445
C62	C	0.773629	-0.233792	0.075844
C63	C	0.815570	-0.199280	0.000131
H64	H	0.718494	-0.191595	0.075903
H65	H	0.771433	-0.323922	0.076360
H66	H	0.802509	-0.209242	0.126619
H67	H	0.786693	-0.223838	-0.050644
H68	H	0.817761	-0.109130	-0.000393
C69	C	0.676906	-0.040493	0.000057
C70	C	0.593568	-0.067337	0.000052
H71	H	0.712593	-0.118554	0.000064
H72	H	0.687326	0.007630	-0.051013
H73	H	0.687319	0.007634	0.051133
H74	H	0.583153	-0.115456	-0.051028
H75	H	0.583143	-0.115480	0.051127
H76	H	0.908840	-0.390810	0.133302
C77	C	1.086698	-0.133352	0.574524
C78	C	1.100763	-0.007875	0.596804
H79	H	1.124719	-0.192191	0.605797
H80	H	1.031139	-0.147224	0.589642
H81	H	1.094712	-0.145741	0.513021
H82	H	1.092743	0.004518	0.658306
H83	H	1.156336	0.006003	0.581692
H84	H	0.908865	-0.390732	-0.133197
C85	C	0.814189	0.288487	0.649831
C86	C	0.865588	0.356163	0.596811
H87	H	0.776185	0.347333	0.681116
H88	H	0.783964	0.235393	0.613875
H89	H	0.847562	0.236851	0.690471
H90	H	0.832215	0.407791	0.556167
H91	H	0.895816	0.409279	0.632771
C92	C	0.490375	0.520998	0.000050
C93	C	0.554851	0.420530	0.000044
H94	H	0.513546	0.600648	0.000059
H95	H	0.456932	0.515260	-0.051020
H96	H	0.456928	0.515233	0.051126
H97	H	0.588294	0.426290	-0.051035
H98	H	0.588307	0.426271	0.051120
