data_functionalizedCrystal
_audit_creation_method	'MofGen! by Chris Wilmer'
_symmetry_space_group_name_H-M	'P1'
_symmetry_Int_Tables_number	1
_symmetry_cell_setting	triclinic
loop_
_symmetry_equiv_pos_as_xyz
  x,y,z
_cell_length_a	16.109301
_cell_length_b	16.109318
_cell_length_c	15.186229
_cell_angle_alpha	89.999617
_cell_angle_beta	89.994299
_cell_angle_gamma	83.465022
loop_
_atom_site_label
_atom_site_type_symbol
_atom_site_fract_x
_atom_site_fract_y
_atom_site_fract_z
O1	O	0.106935	1.103122	-0.073158
O2	O	0.440269	1.436456	0.260175
O3	O	0.773602	1.769789	0.593509
O4	O	0.120220	0.861062	-0.073176
O5	O	0.453553	1.194396	0.260157
O6	O	0.786886	1.527729	0.593490
O7	O	-0.007453	0.988742	-0.073158
O8	O	0.325880	1.322075	0.260176
O9	O	0.659213	1.655409	0.593509
O10	O	0.234608	0.975443	-0.073177
O11	O	0.567941	1.308776	0.260157
O12	O	0.901275	1.642109	0.593490
O13	O	-0.007456	0.988732	0.073300
O14	O	0.325877	1.322065	0.406633
O15	O	0.659211	1.655399	0.739966
O16	O	0.120217	0.861052	0.073281
O17	O	0.453550	1.194386	0.406614
O18	O	0.786883	1.527719	0.739948
O19	O	0.106932	1.103112	0.073299
O20	O	0.440266	1.436446	0.406632
O21	O	0.773599	1.769779	0.739966
Zn22	Zn	0.113574	0.982081	0.096543
Zn23	Zn	0.446907	1.315414	0.429877
Zn24	Zn	0.780241	1.648748	0.763210
Zn25	Zn	0.113578	0.982094	-0.096420
Zn26	Zn	0.446911	1.315427	0.236913
Zn27	Zn	0.780245	1.648761	0.570246
O28	O	0.234605	0.975433	0.073281
O29	O	0.567938	1.308766	0.406614
O30	O	0.901272	1.642099	0.739947
C31	C	0.119677	0.830083	0.000050
C32	C	0.453011	1.163416	0.333383
C33	C	0.786344	1.496749	0.666717
C34	C	0.118057	0.737788	0.000043
C35	C	0.451390	1.071122	0.333377
C36	C	0.784723	1.404455	0.666710
C37	C	0.112823	0.438720	-0.079774
C38	C	0.446157	0.772053	0.253559
C39	C	0.779490	1.105386	0.586892
C40	C	0.114341	0.525441	-0.079780
C41	C	0.447674	0.858774	0.253553
C42	C	0.781007	1.192108	0.586887
C43	C	0.114326	0.525449	0.079896
C44	C	0.447659	0.858782	0.413229
C45	C	0.780993	1.192116	0.746562
C46	C	0.112803	0.438730	0.079900
C47	C	0.446136	0.772064	0.413234
C48	C	0.779469	1.105397	0.746567
C49	C	0.112056	0.395367	0.000063
C50	C	0.445389	0.728701	0.333396
C51	C	0.778722	1.062034	0.666729
C52	C	0.115096	0.568807	0.000052
C53	C	0.448430	0.902141	0.333386
C54	C	0.781763	1.235474	0.666719
C55	C	0.116742	0.662835	0.000047
C56	C	0.450075	0.996168	0.333380
C57	C	0.783408	1.329501	0.666714
C58	C	0.110409	0.301334	0.000068
C59	C	0.443742	0.634668	0.333401
C60	C	0.777075	0.968001	0.666734
C61	C	-0.038430	0.988198	0.000071
C62	C	0.294904	1.321532	0.333405
C63	C	0.628237	1.654865	0.666738
C64	C	-0.130725	0.986583	0.000072
C65	C	0.202608	1.319916	0.333406
C66	C	0.535942	1.653250	0.666739
C67	C	-0.352993	1.058590	0.000064
C68	C	-0.019660	1.391924	0.333397
C69	C	0.313674	1.725257	0.666731
C70	C	-0.439713	1.057066	0.000057
C71	C	-0.106380	1.390400	0.333390
C72	C	0.226953	1.723733	0.666723
C73	C	-0.419848	0.905579	0.000049
C74	C	-0.086515	1.238912	0.333382
C75	C	0.246818	1.572245	0.666715
C76	C	-0.333130	0.907104	0.000050
C77	C	0.000204	1.240437	0.333383
C78	C	0.333537	1.573770	0.666716
C79	C	-0.299704	0.983612	0.000062
C80	C	0.033629	1.316945	0.333395
C81	C	0.366962	1.650279	0.666728
C82	C	-0.473144	0.980563	0.000053
C83	C	-0.139810	1.313896	0.333387
C84	C	0.193523	1.647230	0.666720
C85	C	-0.567170	0.978910	0.000045
C86	C	-0.233837	1.312243	0.333379
C87	C	0.099497	1.645577	0.666712
C88	C	-0.205672	0.985265	0.000068
C89	C	0.127661	1.318599	0.333401
C90	C	0.460994	1.651932	0.666735
C91	C	0.265581	0.975976	0.000050
C92	C	0.598915	1.309310	0.333383
C93	C	0.932248	1.642643	0.666716
C94	C	0.357877	0.977592	0.000043
C95	C	0.691210	1.310925	0.333376
C96	C	1.024543	1.644258	0.666709
C97	C	0.107474	1.134092	0.000071
C98	C	0.440808	1.467425	0.333404
C99	C	0.774141	1.800759	0.666737
C100	C	0.109095	1.226387	0.000072
C101	C	0.442429	1.559720	0.333405
C102	C	0.775762	1.893053	0.666738
N103	N	0.113571	0.982078	0.228236
N104	N	0.446904	1.315411	0.561569
N105	N	0.780237	1.648745	0.894903
N106	N	0.113574	0.982103	-0.228113
N107	N	0.446908	1.315437	0.105220
N108	N	0.780241	1.648770	0.438554
C109	C	0.057056	1.038638	0.546163
C110	C	0.390389	1.371971	0.879496
C111	C	0.723723	1.705304	1.212829
C112	C	0.057056	1.038635	0.453973
C113	C	0.390390	1.371969	0.787306
C114	C	0.723723	1.705302	1.120640
C115	C	0.170095	0.925541	0.453967
C116	C	0.503428	1.258874	0.787300
C117	C	0.836762	1.592208	1.120633
C118	C	0.170098	0.925548	0.546155
C119	C	0.503431	1.258881	0.879488
C120	C	0.836765	1.592215	1.212821
C121	C	0.113574	0.982095	0.592250
C122	C	0.446907	1.315429	0.925584
C123	C	0.780241	1.648762	1.258917
C124	C	0.113571	0.982086	0.407873
C125	C	0.446905	1.315419	0.741206
C126	C	0.780238	1.648753	1.074539
C127	C	0.113572	0.982083	0.307916
C128	C	0.446905	1.315416	0.641250
C129	C	0.780239	1.648750	0.974583
C130	C	0.113574	0.982099	0.692213
C131	C	0.446907	1.315433	1.025546
C132	C	0.780241	1.648766	1.358879
H133	H	0.114965	0.560735	-0.144791
H134	H	0.448298	0.894068	0.188542
H135	H	0.781631	1.227402	0.521875
F136	F	0.230258	0.865368	0.595208
F137	F	0.563592	1.198702	0.928542
F138	F	0.896925	1.532035	1.261875
F139	F	0.115128	0.571606	0.164860
F140	F	0.448461	0.904939	0.498193
F141	F	0.781794	1.238272	0.831527
F142	F	-0.496424	1.136869	0.000057
F143	F	-0.163090	1.470202	0.333390
F144	F	0.170243	1.803535	0.666724
H145	H	0.112214	0.403416	-0.144784
H146	H	0.445547	0.736750	0.188550
H147	H	0.778880	1.070083	0.521883
H148	H	0.011036	1.084678	0.416451
H149	H	0.344369	1.418011	0.749784
H150	H	0.677702	1.751345	1.083118
F151	F	0.230247	0.865360	0.404903
F152	F	0.563581	1.198694	0.738236
F153	F	0.896914	1.532027	1.071569
H154	H	-0.447074	0.843288	0.000040
H155	H	-0.113741	1.176622	0.333374
H156	H	0.219592	1.509955	0.666707
F157	F	0.111984	0.392589	0.164879
F158	F	0.445317	0.725922	0.498212
F159	F	0.778650	1.059255	0.831545
F160	F	-0.317422	1.140017	0.000076
F161	F	0.015911	1.473350	0.333409
F162	F	0.349244	1.806684	0.666742
H163	H	-0.289740	0.846043	0.000045
H164	H	0.043594	1.179377	0.333379
H165	H	0.376927	1.512710	0.666712
H166	H	0.011032	1.084683	0.583691
H167	H	0.344365	1.418016	0.917025
H168	H	0.677699	1.751350	1.250358
