data_functionalizedCrystal
_audit_creation_method	'MofGen! by Chris Wilmer'
_symmetry_space_group_name_H-M	'P1'
_symmetry_Int_Tables_number	1
_symmetry_cell_setting	triclinic
loop_
_symmetry_equiv_pos_as_xyz
  x,y,z
_cell_length_a	17.038272
_cell_length_b	9.065218
_cell_length_c	8.140239
_cell_angle_alpha	89.998670
_cell_angle_beta	90.004136
_cell_angle_gamma	88.063721
loop_
_atom_site_label
_atom_site_type_symbol
_atom_site_fract_x
_atom_site_fract_y
_atom_site_fract_z
O1	O	-1.039679	-0.320647	0.136397
O2	O	-0.812011	-0.315556	0.136445
O3	O	-0.930551	-0.103931	0.136417
O4	O	-0.921139	-0.532272	0.136425
O5	O	-0.930547	-0.103929	-0.136810
O6	O	-0.812007	-0.315554	-0.136782
O7	O	-1.039675	-0.320645	-0.136830
Zn8	Zn	-0.925841	-0.318099	-0.180187
Zn9	Zn	-0.925846	-0.318102	0.179802
O10	O	-0.921135	-0.532270	-0.136802
C11	C	-0.782848	-0.310924	-0.000162
C12	C	-0.695955	-0.297108	-0.000143
C13	C	-0.929644	-0.048853	-0.000194
C14	C	-0.926940	0.115262	-0.000186
C15	C	-1.068838	-0.325277	-0.000219
C16	C	-1.155731	-0.339093	-0.000227
C17	C	-0.646757	-0.423956	-0.000142
C18	C	-0.565112	-0.410965	-0.000165
C19	C	-0.532668	-0.271125	-0.000177
C20	C	-0.581873	-0.144268	-0.000184
C21	C	-0.663515	-0.157260	-0.000172
C22	C	-0.286579	-0.225228	-0.000222
C23	C	-0.204929	-0.212245	-0.000229
C24	C	-0.188175	-0.478944	-0.000213
C25	C	-0.269820	-0.491923	-0.000192
C26	C	-0.319017	-0.365066	-0.000207
C27	C	-0.449214	-0.257844	-0.000196
C28	C	-0.402469	-0.378349	-0.000200
C29	C	-0.922042	-0.587348	-0.000187
C30	C	-0.924746	-0.751462	-0.000185
N31	N	-0.925843	-0.318097	-0.425869
N32	N	-0.925849	-0.318093	0.425484
H33	H	-0.525058	-0.514259	-0.000162
H34	H	-0.673166	-0.537828	-0.000131
H35	H	-0.703572	-0.053966	-0.000173
C36	C	-0.169853	-0.060278	-0.000324
C37	C	-0.230412	0.048039	-0.000375
C38	C	-0.198129	0.188038	-0.000476
H39	H	-0.138360	-0.049461	0.094932
H40	H	-0.138376	-0.049596	-0.095641
H41	H	-0.261876	0.037362	0.094932
H42	H	-0.261909	0.037271	-0.095624
H43	H	-0.166651	0.198721	-0.095793
H44	H	-0.166636	0.198840	0.094781
H45	H	-0.239212	0.261549	-0.000526
H46	H	-0.296230	-0.605795	-0.000163
C47	C	-0.414137	-0.105888	-0.000268
C48	C	-0.474694	0.002434	-0.000292
C49	C	-0.442408	0.142430	-0.000381
H50	H	-0.382639	-0.095084	0.094982
H51	H	-0.382664	-0.095197	-0.095591
H52	H	-0.506153	-0.008253	0.095020
H53	H	-0.506196	-0.008322	-0.095536
H54	H	-0.410935	0.153121	-0.095704
H55	H	-0.410911	0.153219	0.094871
H56	H	-0.483490	0.215943	-0.000413
H57	H	-0.555450	-0.030407	-0.000217
C58	C	-0.134666	-0.616542	0.000043
C59	C	-0.087281	-0.616862	0.140583
C60	C	-0.037973	-0.743590	0.140856
H61	H	-0.165584	-0.701795	0.000133
H62	H	-0.102430	-0.617022	-0.095194
H63	H	-0.119514	-0.616396	0.235795
H64	H	-0.056347	-0.531638	0.140521
H65	H	-0.005736	-0.744070	0.045619
H66	H	-0.068897	-0.828833	0.140943
H67	H	-0.005811	-0.743817	0.236202
C68	C	-0.437734	-0.530135	0.000160
C69	C	-0.484092	-0.545373	0.140759
C70	C	-0.516589	-0.685186	0.141167
H71	H	-0.469297	-0.540905	-0.095003
H72	H	-0.396764	-0.603875	0.000255
H73	H	-0.525056	-0.471654	0.140649
H74	H	-0.452547	-0.534632	0.235944
H75	H	-0.475619	-0.758926	0.141262
H76	H	-0.548147	-0.695943	0.045999
H77	H	-0.548040	-0.695548	0.236568
H78	H	-0.326626	-0.121930	-0.000236
