data_functionalizedCrystal
_audit_creation_method	'MofGen! by Chris Wilmer'
_symmetry_space_group_name_H-M	'P1'
_symmetry_Int_Tables_number	1
_symmetry_cell_setting	triclinic
loop_
_symmetry_equiv_pos_as_xyz
  x,y,z
_cell_length_a	11.169417
_cell_length_b	12.759400
_cell_length_c	11.169409
_cell_angle_alpha	90.032676
_cell_angle_beta	90.019824
_cell_angle_gamma	90.014044
loop_
_atom_site_label
_atom_site_type_symbol
_atom_site_fract_x
_atom_site_fract_y
_atom_site_fract_z
Zn1	Zn	1.834939	-0.418157	0.678540
Zn2	Zn	1.834818	-0.593882	0.477856
Zn3	Zn	1.634225	-0.418221	0.477874
Zn4	Zn	1.634222	-0.593797	0.678500
O5	O	1.734551	-0.506014	0.578193
O6	O	2.002872	-0.441476	0.651927
O7	O	1.808160	-0.570643	0.309908
O8	O	1.660901	-0.271191	0.504517
O9	O	2.002784	-0.570581	0.504486
O10	O	1.808365	-0.271144	0.651945
O11	O	1.660784	-0.441585	0.309922
O12	O	1.466275	-0.441502	0.504479
O13	O	1.660897	-0.570435	0.846456
O14	O	1.466273	-0.570497	0.651878
O15	O	1.808363	-0.441393	0.846485
O16	O	1.808157	-0.740892	0.504447
O17	O	1.660780	-0.740829	0.651860
C18	C	1.422726	-0.505998	0.578177
C19	C	1.289326	-0.506017	0.578199
C20	C	1.734488	-0.778981	0.578174
C21	C	1.734571	-0.895758	0.578206
C22	C	1.811317	-0.950516	0.655034
C23	C	1.811373	-1.060240	0.655064
C24	C	1.657933	-1.060439	0.501425
C25	C	1.657872	-0.950717	0.501403
C26	C	1.888016	-0.895557	0.731837
C27	C	1.964769	-0.950315	0.808671
C28	C	1.964825	-1.060039	0.808700
C29	C	1.888127	-1.115005	0.731896
C30	C	2.047593	-0.506031	0.578209
C31	C	2.180993	-0.506038	0.578216
C32	C	1.734643	-0.505897	0.891235
C33	C	1.734682	-0.505848	1.024635
C34	C	1.734647	-0.231981	0.578238
C35	C	1.734688	-0.115204	0.578257
C36	C	1.734528	-0.506054	0.266368
C37	C	1.734721	-0.505808	0.132968
H38	H	2.027206	-0.905556	0.871210
H39	H	1.595377	-0.906132	0.438843
C40	C	2.049245	-1.120275	0.893217
C41	C	2.133605	-1.059818	0.977695
C42	C	2.218032	-1.120051	1.062210
C43	C	2.218100	-1.240741	1.062249
C44	C	2.133737	-1.301205	0.977768
C45	C	2.049309	-1.240972	0.893253
H46	H	2.133557	-0.970470	0.977669
H47	H	2.280483	-1.075292	1.124749
H48	H	2.280598	-1.285330	1.124812
H49	H	2.133784	-1.390553	0.977794
H50	H	1.986858	-1.285731	0.830714
H51	H	1.887981	-0.806215	0.731819
H52	H	1.888165	-1.204350	0.731940
H53	H	1.595491	-1.105201	0.438894
