data_functionalizedCrystal
_audit_creation_method	'MofGen! by Chris Wilmer'
_symmetry_space_group_name_H-M	'P1'
_symmetry_Int_Tables_number	1
_symmetry_cell_setting	triclinic
loop_
_symmetry_equiv_pos_as_xyz
  x,y,z
_cell_length_a	6.817900
_cell_length_b	7.190334
_cell_length_c	11.102237
_cell_angle_alpha	92.054720
_cell_angle_beta	108.604801
_cell_angle_gamma	60.611776
loop_
_atom_site_label
_atom_site_type_symbol
_atom_site_fract_x
_atom_site_fract_y
_atom_site_fract_z
V1	V	-4.248758	0.665005	-0.173812
O2	O	-4.205180	0.652342	0.010438
O3	O	-4.224594	0.660461	-0.346647
O4	O	-4.285389	0.955035	-0.170223
O5	O	-4.143964	0.355729	-0.167206
V6	V	-4.718227	0.628013	-0.151882
O7	O	-4.540844	0.746151	-0.221918
O8	O	-4.876338	0.546867	-0.103776
O9	O	-4.519184	0.632556	0.020952
O10	O	-4.879201	0.640676	-0.336133
O11	O	-4.940417	0.937289	-0.158488
O12	O	-4.458389	0.337983	-0.155471
C13	C	-4.072739	0.649972	-0.388809
C14	C	-4.134836	0.648190	-0.530097
C15	C	-4.264493	0.842674	-0.614025
C16	C	-4.322831	0.840998	-0.746780
C17	C	-4.121850	0.450337	-0.711667
C18	C	-4.063500	0.452014	-0.578914
C19	C	-4.335830	1.038849	-0.565208
C20	C	-4.465497	1.233349	-0.649137
C21	C	-4.523835	1.231673	-0.781893
C22	C	-4.452506	1.035497	-0.830718
C23	C	-4.150300	1.025727	-0.163757
C24	C	-4.263786	1.267283	-0.161931
C25	C	-4.334380	0.643040	0.063108
C26	C	-4.251525	0.644836	0.204395
H27	H	-3.957910	0.293647	-0.510576
H28	H	-4.499992	1.034146	-0.938817
C29	C	-4.543293	1.446291	-0.596074
C30	C	-4.691472	1.468733	-0.526997
C31	C	-4.763210	1.664884	-0.478115
H32	H	-4.405792	1.448481	-0.540815
H33	H	-4.628989	1.561948	-0.665045
H34	H	-4.605776	1.353107	-0.458035
H35	H	-4.829006	1.466582	-0.582229
H36	H	-4.848906	1.780541	-0.547086
H37	H	-4.625697	1.667056	-0.422861
H38	H	-4.863774	1.680146	-0.431251
C39	C	-4.664723	1.443066	-0.872811
C40	C	-4.714748	1.615217	-0.801641
C41	C	-4.844569	1.809993	-0.885350
H42	H	-4.572734	1.444044	-0.921243
H43	H	-4.810877	1.457453	-0.929432
H44	H	-4.568618	1.600836	-0.745043
H45	H	-4.806764	1.614310	-0.753213
H46	H	-4.990723	1.824379	-0.941970
H47	H	-4.752566	1.810948	-0.933777
H48	H	-4.878547	1.926821	-0.837074
C49	C	-4.044761	0.237587	-0.764929
C50	C	-4.123676	0.277750	-0.899154
C51	C	-4.052743	0.081817	-0.948262
H52	H	-3.874807	0.150628	-0.731987
H53	H	-4.113112	0.164406	-0.740147
H54	H	-4.055315	0.350898	-0.923924
H55	H	-4.293622	0.364676	-0.932130
H56	H	-4.121094	0.008636	-0.923481
H57	H	-3.882789	-0.005128	-0.915312
H58	H	-4.106295	0.109041	-1.039339
H59	H	-4.288345	1.040237	-0.457114
