data_functionalizedCrystal
_audit_creation_method	'MofGen! by Chris Wilmer'
_symmetry_space_group_name_H-M	'P1'
_symmetry_Int_Tables_number	1
_symmetry_cell_setting	triclinic
loop_
_symmetry_equiv_pos_as_xyz
  x,y,z
_cell_length_a	15.995350
_cell_length_b	14.472310
_cell_length_c	15.995350
_cell_angle_alpha	90.001162
_cell_angle_beta	96.507625
_cell_angle_gamma	90.009379
loop_
_atom_site_label
_atom_site_type_symbol
_atom_site_fract_x
_atom_site_fract_y
_atom_site_fract_z
O1	O	1.110997	0.076758	-0.107921
O2	O	0.867221	0.076776	-0.121248
O3	O	0.995773	0.076766	0.007303
O4	O	0.982445	0.076769	-0.236472
O5	O	0.995740	-0.076916	0.007296
O6	O	0.867188	-0.076906	-0.121256
O7	O	1.110963	-0.076924	-0.107928
Cu8	Cu	0.989073	-0.090947	-0.114593
Cu9	Cu	0.989112	0.090800	-0.114584
O10	O	0.982412	-0.076913	-0.236480
C11	C	0.836010	-0.000062	-0.120701
C12	C	0.743060	-0.000055	-0.119049
C13	C	0.405312	-0.000074	-0.113117
C14	C	0.452746	-0.000418	-0.021565
C15	C	0.549436	-0.000065	-0.023217
C16	C	0.572873	-0.000065	-0.116060
C17	C	0.531804	0.087692	-0.161212
C18	C	0.435169	0.087759	-0.158912
C19	C	0.434792	-0.087007	-0.160812
C20	C	0.531737	-0.088160	-0.160790
C21	C	0.667570	-0.000057	-0.117727
C22	C	0.310614	-0.000076	-0.111452
N23	N	0.989051	-0.218778	-0.114598
C24	C	0.989111	-0.592869	-0.114581
C25	C	0.920095	-0.553698	-0.183135
C26	C	0.920254	-0.446610	-0.183385
C27	C	0.989081	-0.407278	-0.114590
C28	C	1.076445	-0.446122	-0.133671
C29	C	1.076057	-0.553243	-0.134159
C30	C	0.971542	-0.553398	-0.026741
C31	C	0.969538	-0.446270	-0.027327
C32	C	0.989069	-0.302390	-0.114593
C33	C	0.989128	-0.697757	-0.114579
C34	C	1.142175	-0.000083	-0.108476
C35	C	1.235125	-0.000084	-0.110127
C36	C	0.995205	-0.000073	0.038494
C37	C	0.993553	-0.000068	0.131444
N38	N	0.989140	0.218631	-0.114572
C39	C	0.982980	-0.000072	-0.267671
C40	C	0.984631	-0.000071	-0.360621
C41	C	0.987621	-0.000071	0.469192
C42	C	0.896069	0.000281	0.421758
C43	C	0.897721	-0.000066	0.325068
C44	C	0.990564	-0.000069	0.301631
C45	C	1.035701	-0.087831	0.342705
C46	C	1.033401	-0.087904	0.439340
C47	C	1.035330	0.086861	0.439707
C48	C	1.035309	0.088021	0.342762
C49	C	0.992231	-0.000071	0.206934
C50	C	0.985956	-0.000075	0.563890
H51	H	0.559040	-0.153082	-0.127830
H52	H	1.129018	-0.579154	-0.086196
C53	C	1.126519	0.087659	0.482619
N54	N	1.195199	0.088254	0.514946
C55	C	0.391881	-0.087811	-0.252001
N56	N	0.359555	-0.088411	-0.320681
C57	C	0.410453	0.176376	-0.114412
N58	N	0.391842	0.243123	-0.080889
H59	H	1.002307	0.152945	0.315516
C60	C	0.993308	-0.176059	0.304366
N61	N	0.961371	-0.242511	0.275490
C62	C	0.407039	-0.176870	-0.120375
N63	N	0.386137	-0.244550	-0.089909
H64	H	0.402921	0.091741	-0.226128
H65	H	0.433166	0.062168	0.014865
C66	C	0.849779	0.084921	0.286672
N67	N	0.813663	0.148933	0.257756
H68	H	1.100617	-0.091888	0.471588
C69	C	1.096957	-0.586987	-0.220708
N70	N	1.112692	-0.612399	-0.285901
C71	C	0.587827	-0.085046	0.024739
N72	N	0.616740	-0.149055	0.060866
H73	H	1.103909	-0.091097	0.328579
H74	H	0.855314	-0.420349	-0.172016
H75	H	1.129029	-0.420643	-0.085068
C76	C	0.988888	-0.176522	0.464061
N77	N	0.955356	-0.243269	0.482676
C78	C	0.552507	-0.095333	-0.252252
N79	N	0.568155	-0.100733	-0.321141
H80	H	0.545930	0.090955	-0.229421
C81	C	0.570148	0.175925	-0.118833
N82	N	0.599027	0.242380	-0.086907
H83	H	0.434210	-0.063352	0.015027
H84	H	1.021872	-0.578728	0.024275
C85	C	0.849430	-0.085196	0.287416
N86	N	0.813056	-0.149322	0.259058
H87	H	0.854945	-0.579481	-0.171953
H88	H	0.577308	0.062951	0.012521
H89	H	0.859490	0.063217	0.440293
C90	C	0.994909	0.176725	0.467455
N91	N	0.964454	0.244405	0.488353
H92	H	0.909219	-0.580461	-0.008392
C93	C	0.846844	-0.084281	0.448198
N94	N	0.809773	-0.147981	0.468105
C95	C	1.097857	-0.409880	-0.219234
N96	N	1.113978	-0.382587	-0.283684
H97	H	1.103014	0.093317	0.327400
H98	H	0.931159	-0.580608	-0.247952
H99	H	0.931473	-0.420976	-0.248569
C100	C	1.033050	-0.410125	0.044822
N101	N	1.080900	-0.382909	0.099161
C102	C	0.882714	-0.411980	-0.007764
N103	N	0.817316	-0.386148	0.006967
