data_functionalizedCrystal
_audit_creation_method	'MofGen! by Chris Wilmer'
_symmetry_space_group_name_H-M	'P1'
_symmetry_Int_Tables_number	1
_symmetry_cell_setting	triclinic
loop_
_symmetry_equiv_pos_as_xyz
  x,y,z
_cell_length_a	18.215407
_cell_length_b	16.120444
_cell_length_c	18.215399
_cell_angle_alpha	92.870532
_cell_angle_beta	89.980167
_cell_angle_gamma	92.927051
loop_
_atom_site_label
_atom_site_type_symbol
_atom_site_fract_x
_atom_site_fract_y
_atom_site_fract_z
Zn1	Zn	1.110207	-0.331908	-0.430964
Zn2	Zn	1.103872	-0.471330	-0.314134
Zn3	Zn	0.987139	-0.331935	-0.307912
Zn4	Zn	0.980864	-0.471284	-0.437157
O5	O	1.045520	-0.401614	-0.372542
O6	O	1.212351	-0.350410	-0.415478
O7	O	1.088361	-0.452870	-0.210326
O8	O	1.008741	-0.215265	-0.319039
O9	O	1.207696	-0.452843	-0.329644
O10	O	1.099160	-0.215245	-0.409445
O11	O	1.002598	-0.350457	-0.205755
O12	O	0.883322	-0.350412	-0.325045
O13	O	0.998047	-0.452764	-0.539319
O14	O	0.878712	-0.452791	-0.420001
O15	O	1.093075	-0.350365	-0.534768
O16	O	1.082277	-0.587990	-0.335650
O17	O	0.991903	-0.587956	-0.426034
C18	C	0.854315	-0.401600	-0.372520
C19	C	0.772515	-0.401614	-0.372529
C20	C	1.035742	-0.618223	-0.382205
C21	C	1.031625	-0.710890	-0.386364
C22	C	0.581936	-0.455006	-0.421917
C23	C	0.505077	-0.455009	-0.421927
C24	C	0.509856	-0.348237	-0.323183
C25	C	0.586713	-0.348231	-0.323178
C26	C	0.622751	-0.401620	-0.372544
C27	C	0.469035	-0.401629	-0.372559
C28	C	0.385701	-0.401631	-0.372568
C29	C	0.706090	-0.401617	-0.372536
C30	C	1.067053	-0.921830	-0.351127
C31	C	1.024124	-0.880547	-0.393964
C32	C	1.028299	-0.786141	-0.389734
C33	C	1.062879	-1.016244	-0.355356
C34	C	1.237472	-0.401629	-0.372564
C35	C	1.319271	-0.401635	-0.372574
C36	C	1.045568	-0.401557	-0.564492
C37	C	1.045588	-0.401532	-0.646290
C38	C	1.055357	-0.184159	-0.362857
C39	C	1.059549	-0.091492	-0.358730
C40	C	1.095088	-0.348163	-0.832114
C41	C	1.095098	-0.348139	-0.908971
C42	C	0.996145	-0.454772	-0.913699
C43	C	0.996133	-0.454792	-0.836842
C44	C	1.045608	-0.401488	-0.796052
C45	C	1.045631	-0.401445	-0.949766
C46	C	1.045641	-0.401419	-1.033099
C47	C	1.045597	-0.401513	-0.712714
C48	C	1.045518	-0.401611	-0.181336
C49	C	1.045651	-0.401401	-0.099528
H50	H	0.611276	-0.498477	-0.462116
H51	H	1.135389	-0.304715	-0.938329
F52	F	0.971986	-0.927021	-0.446050
H53	H	0.955835	-0.498215	-0.807480
H54	H	1.106937	-0.886276	-0.311279
F55	F	0.943496	-0.511501	-0.957117
H56	H	0.471849	-0.498480	-0.462132
F57	F	0.471495	-0.291421	-0.270646
F58	F	1.147743	-0.291431	-0.788704
H59	H	0.619946	-0.304752	-0.282972
