data_functionalizedCrystal
_audit_creation_method	'MofGen! by Chris Wilmer'
_symmetry_space_group_name_H-M	'P1'
_symmetry_Int_Tables_number	1
_symmetry_cell_setting	triclinic
loop_
_symmetry_equiv_pos_as_xyz
  x,y,z
_cell_length_a	13.897441
_cell_length_b	14.908571
_cell_length_c	14.908178
_cell_angle_alpha	90.179240
_cell_angle_beta	86.671188
_cell_angle_gamma	93.312532
loop_
_atom_site_label
_atom_site_type_symbol
_atom_site_fract_x
_atom_site_fract_y
_atom_site_fract_z
Zn1	Zn	-0.601784	-1.353998	-0.437423
Zn2	Zn	-0.430658	-1.345226	-0.587806
Zn3	Zn	-0.431773	-1.203632	-0.428770
Zn4	Zn	-0.583192	-1.194936	-0.579060
O5	O	-0.511852	-1.274448	-0.508265
O6	O	-0.586398	-1.478660	-0.464654
O7	O	-0.295820	-1.326411	-0.566748
O8	O	-0.462573	-1.230889	-0.304085
O9	O	-0.460672	-1.472215	-0.575139
O10	O	-0.587479	-1.341362	-0.310443
O11	O	-0.296639	-1.222383	-0.449905
O12	O	-0.444545	-1.076653	-0.441424
O13	O	-0.720644	-1.216068	-0.560232
O14	O	-0.555791	-1.070265	-0.551842
O15	O	-0.734304	-1.332930	-0.456173
O16	O	-0.442644	-1.317980	-0.712478
O17	O	-0.554710	-1.207562	-0.706052
C18	C	-0.496561	-1.260900	-0.741893
C19	C	-0.490057	-1.255186	-0.841846
C20	C	-0.498272	-1.040834	-0.494745
C21	C	-0.492484	-0.940891	-0.488983
C22	C	-0.763453	-1.274507	-0.508192
C23	C	-0.870670	-1.274533	-0.508162
C24	C	-0.957743	-1.274553	-0.508137
C25	C	-1.066980	-1.274581	-0.508098
C26	C	-0.261236	-1.274444	-0.508275
C27	C	-0.154046	-1.274608	-0.508062
C28	C	-0.525485	-1.508975	-0.521837
C29	C	-0.531294	-1.608916	-0.527621
C30	C	-0.597272	-0.746474	-0.593312
C31	C	-0.591837	-0.652569	-0.587901
C32	C	-0.476185	-0.659175	-0.472746
C33	C	-0.481620	-0.753080	-0.478157
C34	C	-0.542164	-0.796726	-0.538443
C35	C	-0.547594	-0.890632	-0.543858
C36	C	-0.431947	-0.897236	-0.428700
C37	C	-0.426512	-0.803331	-0.423289
C38	C	-0.608026	-1.359398	-1.036132
C39	C	-0.601918	-1.354033	-1.130046
C40	C	-0.471738	-1.239086	-1.123589
C41	C	-0.477846	-1.244452	-1.029675
C42	C	-0.545991	-1.304611	-0.985950
C43	C	-0.552094	-1.309980	-0.892034
C44	C	-0.421919	-1.195029	-0.885580
C45	C	-0.415811	-1.189664	-0.979494
C46	C	-0.527224	-1.288074	-0.273725
C47	C	-0.533775	-1.293880	-0.173778
H48	H	-0.596890	-0.926168	-0.592948
Cl49	Cl	-0.343921	-1.126156	-0.822489
H50	H	-0.426899	-0.623622	-0.423659
H51	H	-0.387073	-0.938161	-0.384023
H52	H	-0.607579	-1.358967	-0.856434
Cl53	Cl	-0.693682	-1.435034	-0.981160
Cl54	Cl	-0.386099	-1.163443	-1.178573
H55	H	-0.652438	-1.398642	-1.170900
Cl56	Cl	-0.661120	-0.589398	-0.656880
H57	H	-0.360331	-1.140682	-1.015108
H58	H	-0.377222	-0.767782	-0.374203
Cl59	Cl	-0.673371	-0.801347	-0.669107
