data_functionalizedCrystal
_audit_creation_method	'MofGen! by Chris Wilmer'
_symmetry_space_group_name_H-M	'P1'
_symmetry_Int_Tables_number	1
_symmetry_cell_setting	triclinic
loop_
_symmetry_equiv_pos_as_xyz
  x,y,z
_cell_length_a	11.026607
_cell_length_b	16.109301
_cell_length_c	15.186229
_cell_angle_alpha	89.986602
_cell_angle_beta	89.994409
_cell_angle_gamma	96.023749
loop_
_atom_site_label
_atom_site_type_symbol
_atom_site_fract_x
_atom_site_fract_y
_atom_site_fract_z
O1	O	-1.610030	-0.348140	0.073244
O2	O	-1.256740	-0.308498	0.073243
O3	O	-1.443090	-0.208743	0.073234
O4	O	-1.423680	-0.447896	0.073252
O5	O	-1.443065	-0.208718	-0.073223
O6	O	-1.256714	-0.308474	-0.073214
O7	O	-1.610005	-0.348116	-0.073214
Zn8	Zn	-1.433356	-0.328291	-0.096467
Zn9	Zn	-1.433389	-0.328323	0.096497
O10	O	-1.423654	-0.447871	-0.073205
C11	C	-1.211519	-0.301173	0.000014
C12	C	-1.076814	-0.279372	0.000014
C13	C	-1.442291	-0.177638	0.000005
C14	C	-1.439934	-0.084989	0.000004
C15	C	-1.655225	-0.355441	0.000017
C16	C	-1.789931	-0.377242	0.000023
C17	C	-1.002984	-0.339568	0.000019
C18	C	-0.863759	-0.317037	0.000018
C19	C	-1.424453	-0.478976	0.000026
C20	C	-1.426811	-0.571625	0.000033
N21	N	-1.433342	-0.328270	-0.228160
C22	C	-1.545030	0.121535	0.000018
C23	C	-1.542805	0.208588	0.000025
C24	C	-1.321707	0.221846	0.000022
C25	C	-1.323932	0.134794	0.000021
C26	C	-1.435597	0.084640	0.000014
C27	C	-1.431147	0.258746	0.000023
C28	C	-1.428735	0.353133	0.000030
C29	C	-1.438011	-0.009754	0.000008
C30	C	-1.359811	-0.266848	-0.546116
C31	C	-1.359800	-0.266835	-0.453927
C32	C	-1.506952	-0.389764	-0.453861
C33	C	-1.506968	-0.389773	-0.546049
C34	C	-1.433390	-0.328316	-0.592174
C35	C	-1.433364	-0.328293	-0.407797
C36	C	-1.433353	-0.328279	-0.307840
C37	C	-1.433402	-0.328329	-0.692137
N38	N	-1.433413	-0.328339	0.228189
H39	H	-1.042849	-0.407784	0.000019
H40	H	-0.823900	-0.248817	0.000036
H41	H	-1.631916	0.238623	0.000030
Cl42	Cl	-1.685408	0.058487	0.000012
H43	H	-1.036949	-0.211156	0.000031
Cl44	Cl	-1.181336	0.284901	0.000029
H45	H	-0.829788	-0.445463	0.000023
Cl46	Cl	-1.186349	0.088408	0.000024
Cl47	Cl	-1.267319	-0.189585	-0.604099
Cl48	Cl	-1.267289	-0.189561	-0.396029
Cl49	Cl	-1.599482	-0.467051	-0.603955
H50	H	-1.566855	-0.439801	-0.416295
