data_functionalizedCrystal
_audit_creation_method	'MofGen! by Chris Wilmer'
_symmetry_space_group_name_H-M	'P1'
_symmetry_Int_Tables_number	1
_symmetry_cell_setting	triclinic
loop_
_symmetry_equiv_pos_as_xyz
  x,y,z
_cell_length_a	12.759400
_cell_length_b	17.639504
_cell_length_c	12.759393
_cell_angle_alpha	101.242674
_cell_angle_beta	89.969553
_cell_angle_gamma	78.803292
loop_
_atom_site_label
_atom_site_type_symbol
_atom_site_fract_x
_atom_site_fract_y
_atom_site_fract_z
Zn1	Zn	-0.093968	-1.208560	-0.919391
Zn2	Zn	0.406032	-0.708560	-0.419391
Zn3	Zn	-0.269707	-1.208484	-0.743694
Zn4	Zn	0.230293	-0.708484	-0.243694
Zn5	Zn	-0.129488	-1.076365	-0.708137
Zn6	Zn	0.370512	-0.576365	-0.208137
Zn7	Zn	-0.305073	-1.076360	-0.883761
Zn8	Zn	0.194927	-0.576360	-0.383761
O9	O	-0.199559	-1.142442	-0.813746
O10	O	0.300441	-0.642442	-0.313746
O11	O	-0.087614	-1.319169	-0.925876
O12	O	0.412386	-0.819169	-0.425876
O13	O	-0.251172	-1.190929	-0.591948
O14	O	0.248828	-0.690929	-0.091948
O15	O	0.022254	-1.093935	-0.736191
O16	O	0.522254	-0.593935	-0.236191
O17	O	-0.216729	-1.319114	-0.796792
O18	O	0.283271	-0.819114	-0.296792
O19	O	0.048350	-1.191058	-0.891398
O20	O	0.548350	-0.691058	-0.391398
O21	O	-0.148153	-1.093861	-0.565825
O22	O	0.351847	-0.593861	-0.065825
O23	O	-0.182446	-0.965745	-0.701642
O24	O	0.317554	-0.465745	-0.201642
O25	O	-0.277004	-1.093926	-1.035517
O26	O	0.222996	-0.593926	-0.535517
O27	O	-0.311447	-0.965741	-0.830672
O28	O	0.188553	-0.465741	-0.330672
O29	O	-0.121907	-1.191053	-1.061694
O30	O	0.378093	-0.691053	-0.561694
O31	O	-0.421429	-1.190924	-0.762244
O32	O	0.078571	-0.690924	-0.262244
O33	O	-0.447411	-1.093852	-0.865151
O34	O	0.052589	-0.593852	-0.365151
C35	C	-0.254639	-0.937061	-0.758433
C36	C	0.245361	-0.437061	-0.258433
C37	C	-0.278228	-0.849198	-0.734795
C38	C	0.221772	-0.349198	-0.234795
C39	C	-0.020258	-0.560343	-0.993563
C40	C	0.479742	-0.060343	-0.493563
C41	C	-0.042450	-0.477783	-0.971330
C42	C	0.457550	0.022217	-0.471330
C43	C	-0.176674	-0.477746	-0.836722
C44	C	0.323326	0.022254	-0.336722
C45	C	-0.154497	-0.560309	-0.858947
C46	C	0.345503	-0.060309	-0.358947
C47	C	-0.076287	-0.601601	-0.937368
C48	C	0.423713	-0.101601	-0.437368
C49	C	-0.210527	-0.601566	-0.802752
C50	C	0.289473	-0.101566	-0.302752
C51	C	-0.188347	-0.684122	-0.824971
C52	C	0.311653	-0.184122	-0.324971
C53	C	-0.110139	-0.725419	-0.903387
C54	C	0.389861	-0.225419	-0.403387
C55	C	-0.054108	-0.684156	-0.959588
C56	C	0.445892	-0.184156	-0.459588
C57	C	-0.288731	-0.560273	-0.724326
C58	C	0.211269	-0.060273	-0.224326
C59	C	-0.344760	-0.601530	-0.668131
C60	C	0.155240	-0.101530	-0.168131
C61	C	-0.322587	-0.684087	-0.690355
C62	C	0.177413	-0.184087	-0.190355
C63	C	-0.244378	-0.725385	-0.768770
C64	C	0.255622	-0.225385	-0.268770
C65	C	-0.378617	-0.725350	-0.634154
C66	C	0.121383	-0.225350	-0.134154
C67	C	-0.356438	-0.807906	-0.656374
C68	C	0.143562	-0.307906	-0.156374
C69	C	-0.222199	-0.807940	-0.790990
C70	C	0.277801	-0.307940	-0.290990
C71	C	-0.472538	-1.142401	-0.813718
C72	C	0.027462	-0.642401	-0.313718
C73	C	-0.589299	-1.142455	-0.813761
C74	C	-0.089299	-0.642455	-0.313761
C75	C	-0.630500	-1.193002	-0.894625
C76	C	-0.130500	-0.693002	-0.394625
C77	C	-0.740214	-1.193039	-0.894661
C78	C	-0.240214	-0.693039	-0.394661
C79	C	-0.767518	-1.091980	-0.732957
C80	C	-0.267518	-0.591980	-0.232957
C81	C	-0.657807	-1.091940	-0.732927
C82	C	-0.157807	-0.591940	-0.232927
C83	C	-0.561993	-1.243518	-0.975459
C84	C	-0.061993	-0.743518	-0.475459
C85	C	-0.603192	-1.294070	-1.056330
C86	C	-0.103192	-0.794070	-0.556330
C87	C	-0.712906	-1.294107	-1.056365
C88	C	-0.212906	-0.794107	-0.556365
C89	C	-0.781421	-1.243592	-0.975530
C90	C	-0.281421	-0.743592	-0.475530
C91	C	0.074491	-1.142505	-0.813802
C92	C	0.574491	-0.642505	-0.313802
C93	C	0.191275	-1.142532	-0.813827
C94	C	0.691275	-0.642532	-0.313827
C95	C	-0.199438	-1.142498	-1.087794
C96	C	0.300562	-0.642498	-0.587794
C97	C	-0.199387	-1.142521	-1.204577
C98	C	0.300613	-0.642521	-0.704577
C99	C	-0.144249	-0.348626	-0.869271
C100	C	0.355751	0.151374	-0.369271
C101	C	-0.120640	-0.436489	-0.892923
C102	C	0.379360	0.063511	-0.392923
C103	C	-0.118619	-1.193102	-1.273073
C104	C	0.381381	-0.693102	-0.773073
C105	C	-0.118576	-1.193121	-1.382802
C106	C	0.381424	-0.693121	-0.882802
C107	C	-0.280078	-1.091975	-1.355529
C108	C	0.219922	-0.591975	-0.855529
C109	C	-0.280116	-1.091953	-1.245801
C110	C	0.219884	-0.591953	-0.745801
C111	C	-0.037890	-1.243670	-1.231849
C112	C	0.462110	-0.743670	-0.731849
C113	C	0.042884	-1.294256	-1.300346
C114	C	0.542884	-0.794256	-0.800346
C115	C	0.042927	-1.294275	-1.410076
C116	C	0.542927	-0.794275	-0.910076
C117	C	-0.037804	-1.243708	-1.451307
C118	C	0.462196	-0.743708	-0.951307
C119	C	-0.199591	-1.142433	-0.540776
C120	C	0.300409	-0.642433	-0.040776
C121	C	-0.199306	-1.142562	-0.424034
C122	C	0.300694	-0.642562	0.075966
H123	H	0.043425	-0.593966	-1.057425
H124	H	0.543425	-0.093966	-0.557425
H125	H	0.108702	-1.335459	-1.465842
H126	H	0.608702	-0.835459	-0.965842
H127	H	-0.746449	-1.335262	-1.122220
H128	H	-0.246449	-0.835262	-0.622220
F129	F	-0.840439	-1.038223	-0.646933
F130	F	-0.340439	-0.538223	-0.146933
H131	H	-0.158516	-0.841562	-0.854852
H132	H	0.341484	-0.341562	-0.354852
F133	F	-0.086526	-0.813283	-0.927028
F134	F	0.413474	-0.313283	-0.427028
F135	F	0.029124	-0.728107	-1.043061
F136	F	0.529124	-0.228107	-0.543061
F137	F	-0.037744	-1.243721	-1.568090
F138	F	0.462256	-0.743721	-1.068090
F139	F	-0.898164	-1.243726	-0.975474
F140	F	-0.398164	-0.743726	-0.475474
H141	H	0.003188	-0.444194	-1.017092
H142	H	0.503188	0.055806	-0.517092
F143	F	-0.037932	-1.243657	-1.115068
F144	F	0.462068	-0.743657	-0.615068
H145	H	0.108617	-1.335421	-1.266766
H146	H	0.608617	-0.835421	-0.766766
H147	H	-0.442288	-0.691718	-0.570297
H148	H	0.057712	-0.191718	-0.070297
F149	F	-0.365993	-1.038164	-1.399416
F150	F	0.134007	-0.538164	-0.899416
F151	F	-0.613955	-1.038144	-0.646859
F152	F	-0.113955	-0.538144	-0.146859
F153	F	-0.312329	-0.472409	-0.700673
F154	F	0.187671	0.027591	-0.200673
F155	F	-0.259905	-0.433792	-0.753260
F156	F	0.240095	0.066208	-0.253260
F157	F	-0.427991	-0.557576	-0.584669
F158	F	0.072009	-0.057576	-0.084669
F159	F	-0.366077	-1.038118	-1.172899
F160	F	0.133923	-0.538118	-0.672899
H161	H	-0.472656	-1.243496	-0.975437
H162	H	0.027344	-0.743496	-0.475437
F163	F	-0.416078	-0.851817	-0.596573
F164	F	0.083922	-0.351817	-0.096573
H165	H	-0.547403	-1.335193	-1.122148
H166	H	-0.047403	-0.835193	-0.622148
