data_functionalizedCrystal
_audit_creation_method	'MofGen! by Chris Wilmer'
_symmetry_space_group_name_H-M	'P1'
_symmetry_Int_Tables_number	1
_symmetry_cell_setting	triclinic
loop_
_symmetry_equiv_pos_as_xyz
  x,y,z
_cell_length_a	12.759401
_cell_length_b	19.120904
_cell_length_c	12.759393
_cell_angle_alpha	87.522353
_cell_angle_beta	90.019676
_cell_angle_gamma	87.527679
loop_
_atom_site_label
_atom_site_type_symbol
_atom_site_fract_x
_atom_site_fract_y
_atom_site_fract_z
Zn1	Zn	1.588297	0.279590	0.576089
Zn2	Zn	1.580638	0.397064	0.392889
Zn3	Zn	1.412593	0.279625	0.400425
Zn4	Zn	1.405041	0.397013	0.568534
O5	O	1.496642	0.338323	0.484484
O6	O	1.734302	0.295180	0.551795
O7	O	1.558302	0.381522	0.246865
O8	O	1.442267	0.181329	0.430043
O9	O	1.728674	0.381488	0.417199
O10	O	1.571356	0.181303	0.559102
O11	O	1.434840	0.295240	0.252402
O12	O	1.264571	0.295190	0.422717
O13	O	1.429395	0.381400	0.716559
O14	O	1.259022	0.381434	0.546226
O15	O	1.564032	0.295130	0.722110
O16	O	1.550978	0.495348	0.409873
O17	O	1.421968	0.495310	0.538918
C18	C	1.223676	0.338311	0.484470
C19	C	1.106898	0.338322	0.484488
C20	C	1.054962	0.293463	0.554670
C21	C	0.945237	0.293470	0.554677
C22	C	0.939395	0.383202	0.414315
C23	C	1.049118	0.383191	0.414304
C24	C	1.484851	0.520815	0.472781
C25	C	1.479903	0.598886	0.467810
C26	C	1.544737	0.635490	0.532723
C27	C	1.540084	0.708846	0.528053
C28	C	1.470600	0.745596	0.458465
C29	C	1.405758	0.708987	0.393549
C30	C	1.410407	0.635633	0.398225
C31	C	1.453198	0.967083	0.440989
C32	C	1.448556	1.040443	0.436316
C33	C	1.582881	1.040297	0.570822
C34	C	1.587528	0.966941	0.575487
C35	C	1.522683	0.930338	0.510575
C36	C	1.465844	0.820578	0.453688
C37	C	1.527434	0.855358	0.515358
C38	C	1.770675	0.338335	0.484499
C39	C	1.887451	0.338341	0.484505
C40	C	1.496725	0.338255	0.758522
C41	C	1.496761	0.338227	0.875301
C42	C	1.508464	1.155118	0.496245
C43	C	1.513391	1.077047	0.501229
C44	C	1.496623	0.338339	0.211516
C45	C	1.496804	0.338170	0.094750
C46	C	1.566872	0.293299	0.933055
C47	C	1.566891	0.293268	1.042781
C48	C	1.426685	0.383100	1.036988
C49	C	1.426661	0.383127	0.927265
H50	H	0.902956	0.256940	0.611825
C51	C	1.372111	1.080867	0.359764
N52	N	1.314535	1.111315	0.302108
C53	C	0.875826	0.432559	0.337124
N54	N	0.827947	0.469738	0.278984
H55	H	1.623981	0.256682	1.089800
H56	H	1.644107	0.937020	0.632151
C57	C	1.349579	0.432486	1.094159
N58	N	1.291500	0.469684	1.137219
H59	H	1.623948	0.256736	0.890749
C60	C	1.329389	0.749415	0.316937
N61	N	1.271892	0.779865	0.259205
H62	H	1.091405	0.419722	0.357148
C63	C	1.118517	0.244100	0.631865
N64	N	1.166384	0.206916	0.690008
H65	H	1.369561	0.419712	0.880239
C66	C	1.621178	0.595071	0.609275
N67	N	1.678752	0.564630	0.666938
C68	C	1.611422	0.749107	0.599450
N69	N	1.665161	0.779431	0.653224
H70	H	1.635673	1.070107	0.623671
H71	H	1.357610	0.605830	0.345367
C72	C	1.381841	0.926830	0.369607
N73	N	1.328082	0.896509	0.315848
H74	H	1.584004	0.825433	0.572021
H75	H	1.409273	0.850508	0.397026
