data_functionalizedCrystal
_audit_creation_method	'MofGen! by Chris Wilmer'
_symmetry_space_group_name_H-M	'P1'
_symmetry_Int_Tables_number	1
_symmetry_cell_setting	triclinic
loop_
_symmetry_equiv_pos_as_xyz
  x,y,z
_cell_length_a	19.077105
_cell_length_b	29.839131
_cell_length_c	19.077174
_cell_angle_alpha	92.270061
_cell_angle_beta	85.483752
_cell_angle_gamma	87.737628
loop_
_atom_site_label
_atom_site_type_symbol
_atom_site_fract_x
_atom_site_fract_y
_atom_site_fract_z
Zn1	Zn	1.093604	-0.218280	-0.441818
Zn2	Zn	1.593604	0.281720	0.058182
Zn3	Zn	1.088756	-0.290261	-0.323922
Zn4	Zn	1.588756	0.209739	0.176078
Zn5	Zn	0.970992	-0.212000	-0.319217
Zn6	Zn	1.470992	0.288000	0.180783
Zn7	Zn	0.975650	-0.290232	-0.437040
Zn8	Zn	1.475650	0.209768	0.062960
O9	O	1.032251	-0.252693	-0.380499
O10	O	1.532251	0.247307	0.119501
O11	O	1.191610	-0.230469	-0.430148
O12	O	1.691610	0.269531	0.069852
O13	O	1.069156	-0.277264	-0.224649
O14	O	1.569156	0.222736	0.275351
O15	O	0.987337	-0.149969	-0.335510
O16	O	1.487337	0.350031	0.164490
O17	O	1.188048	-0.283353	-0.343531
O18	O	1.688048	0.216647	0.156469
O19	O	1.077420	-0.154583	-0.425585
O20	O	1.577420	0.345417	0.074415
O21	O	0.982636	-0.219766	-0.221191
O22	O	1.482636	0.280234	0.278809
O23	O	0.872961	-0.219737	-0.330877
O24	O	1.372961	0.280263	0.169123
O25	O	0.995275	-0.283303	-0.536324
O26	O	1.495275	0.216697	-0.036324
O27	O	0.876383	-0.277214	-0.417442
O28	O	1.376383	0.222786	0.082558
O29	O	1.081936	-0.230441	-0.539834
O30	O	1.581936	0.269559	-0.039834
O31	O	1.073672	-0.353121	-0.338898
O32	O	1.573672	0.146879	0.161102
O33	O	0.990574	-0.353100	-0.422005
O34	O	1.490574	0.146900	0.077995
C35	C	0.849094	-0.247791	-0.373131
C36	C	1.349094	0.252209	0.126869
C37	C	0.770739	-0.245705	-0.369995
C38	C	1.270739	0.254295	0.130005
C39	C	0.735725	-0.274692	-0.413521
C40	C	1.235725	0.225308	0.086479
C41	C	0.662102	-0.272726	-0.410578
C42	C	1.162102	0.227274	0.089422
C43	C	0.623495	-0.241776	-0.364105
C44	C	1.123495	0.258224	0.135895
C45	C	0.658514	-0.212786	-0.320578
C46	C	1.158514	0.287214	0.179422
C47	C	0.732136	-0.214750	-0.323525
C48	C	1.232136	0.285250	0.176475
C49	C	0.403119	-0.232687	-0.350470
C50	C	0.903119	0.267313	0.149530
C51	C	0.329492	-0.230726	-0.347525
C52	C	0.829492	0.269274	0.152475
C53	C	0.333085	-0.290665	-0.437525
C54	C	0.833085	0.209335	0.062475
C55	C	0.406708	-0.292628	-0.440465
C56	C	0.906708	0.207372	0.059535
C57	C	0.441721	-0.263637	-0.396941
C58	C	0.941721	0.236363	0.103059
N59	N	0.548241	-0.239767	-0.361094
N60	N	1.048241	0.260233	0.138906
N61	N	0.516973	-0.265644	-0.399956
N62	N	1.016973	0.234356	0.100044
C63	C	1.032122	-0.369412	-0.380459
C64	C	1.532122	0.130588	0.119541
C65	C	1.032132	-0.419346	-0.380468
C66	C	1.532132	0.080654	0.119532
C67	C	1.075605	-0.728996	-0.337295
C68	C	1.575605	-0.228996	0.162705
C69	C	1.075693	-0.916672	-0.337326
C70	C	1.575693	-0.416672	0.162674
O71	O	1.112552	-0.940939	-0.300587
O72	O	1.612552	-0.440939	0.199413
N73	N	1.032399	-0.940141	-0.380559
N74	N	1.532399	-0.440141	0.119441
C75	C	0.989083	-0.916687	-0.423790
C76	C	1.489083	-0.416687	0.076210
O77	O	0.952267	-0.940955	-0.460568
O78	O	1.452267	-0.440955	0.039432
C79	C	0.988999	-0.729012	-0.423763
C80	C	1.488999	-0.229012	0.076237
C81	C	1.032291	-0.705546	-0.380522
C82	C	1.532291	-0.205546	0.119478
C83	C	1.118893	-0.705530	-0.294058
C84	C	1.618893	-0.205530	0.205942
C85	C	1.118868	-0.658614	-0.294048
C86	C	1.618868	-0.158614	0.205952
C87	C	1.075554	-0.635163	-0.337275
C88	C	1.575554	-0.135163	0.162725
C89	C	1.032266	-0.658630	-0.380511
C90	C	1.532266	-0.158630	0.119489
C91	C	0.945688	-0.705560	-0.466997
C92	C	1.445688	-0.205560	0.033003
C93	C	0.945672	-0.658638	-0.466988
C94	C	1.445672	-0.158638	0.033012
C95	C	0.988964	-0.635172	-0.423747
C96	C	1.488964	-0.135172	0.076253
C97	C	0.988926	-0.588263	-0.423728
C98	C	1.488926	-0.088263	0.076272
N99	N	1.032220	-0.564795	-0.380495
N100	N	1.532220	-0.064795	0.119505
C101	C	1.075534	-0.588245	-0.337268
C102	C	1.575534	-0.088245	0.162732
C103	C	0.989129	-1.015219	-0.423801
C104	C	1.489129	-0.515219	0.076199
C105	C	0.989149	-1.062138	-0.423807
C106	C	1.489149	-0.562138	0.076193
C107	C	1.075760	-1.062120	-0.337343
C108	C	1.575760	-0.562120	0.162657
C109	C	1.075736	-1.015200	-0.337334
C110	C	1.575736	-0.515200	0.162666
C111	C	1.032423	-0.991751	-0.380568
C112	C	1.532423	-0.491751	0.119432
C113	C	1.075477	-0.489717	-0.337250
C114	C	1.575477	0.010283	0.162750
C115	C	1.075446	-0.442797	-0.337242
C116	C	1.575446	0.057203	0.162758
C117	C	0.988839	-0.442819	-0.423708
C118	C	1.488839	0.057181	0.076292
C119	C	0.988867	-0.489735	-0.423714
C120	C	1.488867	0.010265	0.076286
C121	C	1.032192	-0.513183	-0.380483
C122	C	1.532192	-0.013183	0.119517
O123	O	0.952092	-0.563968	-0.460453
O124	O	1.452092	-0.063968	0.039547
O125	O	1.112357	-0.563970	-0.300507
O126	O	1.612357	-0.063970	0.199493
C127	C	1.075630	-0.775913	-0.337305
C128	C	1.575630	-0.275913	0.162695
C129	C	1.032341	-0.799379	-0.380542
C130	C	1.532341	-0.299379	0.119458
C131	C	0.989028	-0.775929	-0.423769
C132	C	1.489028	-0.275929	0.076231
C133	C	1.032361	-0.846297	-0.380548
C134	C	1.532361	-0.346297	0.119452
C135	C	1.075675	-0.869747	-0.337321
C136	C	1.575675	-0.369747	0.162679
C137	C	1.118969	-0.846279	-0.294088
C138	C	1.618969	-0.346279	0.205912
C139	C	1.118944	-0.799363	-0.294078
C140	C	1.618944	-0.299363	0.205922
C141	C	0.945734	-0.799397	-0.467001
C142	C	1.445734	-0.299397	0.032999
C143	C	0.945762	-0.846313	-0.467007
C144	C	1.445762	-0.346313	0.032993
C145	C	0.989076	-0.869763	-0.423781
C146	C	1.489076	-0.369763	0.076219
C147	C	1.216123	-0.257615	-0.387897
C148	C	1.716123	0.242385	0.112103
C149	C	1.294478	-0.259712	-0.391050
C150	C	1.794478	0.240288	0.108950
C151	C	1.039666	-0.257569	-0.564373
C152	C	1.539666	0.242431	-0.064373
C153	C	1.042826	-0.259647	-0.642729
C154	C	1.542826	0.240353	-0.142729
C155	C	1.032400	-0.135520	-0.380556
C156	C	1.532400	0.364480	0.119444
C157	C	1.032463	-0.085588	-0.380580
C158	C	1.532463	0.414412	0.119420
C159	C	0.999266	-0.230687	-0.677740
C160	C	1.499266	0.269313	-0.177740
C161	C	1.002232	-0.232643	-0.751363
C162	C	1.502232	0.267357	-0.251363
C163	C	1.048762	-0.263557	-0.789974
C164	C	1.548762	0.236443	-0.289974
C165	C	1.092324	-0.292519	-0.754958
C166	C	1.592324	0.207481	-0.254958
C167	C	1.089354	-0.290565	-0.681336
C168	C	1.589354	0.209435	-0.181336
C169	C	1.062473	-0.272613	-1.010355
C170	C	1.562473	0.227387	-0.510355
C171	C	1.065442	-0.274564	-1.083982
C172	C	1.565442	0.225436	-0.583982
C173	C	0.975348	-0.214688	-1.080382
C174	C	1.475348	0.285312	-0.580382
C175	C	0.972385	-0.212735	-1.006759
C176	C	1.472385	0.287265	-0.506759
C177	C	1.015944	-0.241699	-0.971749
C178	C	1.515944	0.258301	-0.471749
N179	N	1.051797	-0.265556	-0.865230
N180	N	1.551797	0.234444	-0.365230
N181	N	1.012905	-0.239702	-0.896495
N182	N	1.512905	0.260298	-0.396495
C183	C	1.024905	-0.247805	-0.197343
C184	C	1.524905	0.252195	0.302657
C185	C	1.021882	-0.245605	-0.118993
C186	C	1.521882	0.254395	0.381007
H187	H	0.760643	-0.191144	-0.288086
H188	H	1.260643	0.308856	0.211914
O189	O	0.947013	-1.084946	-0.465702
O190	O	1.447013	-0.584946	0.034298
C191	C	0.852256	-1.135701	-0.471303
C192	C	1.352256	-0.635701	0.028697
C193	C	0.899914	-1.109889	-0.423768
C194	C	1.399914	-0.609889	0.076232
H195	H	0.814175	-1.155881	-0.437419
H196	H	1.314175	-0.655881	0.062581
H197	H	0.821247	-1.110895	-0.502182
H198	H	1.321247	-0.610895	-0.002182
H199	H	0.886104	-1.159459	-0.509511
H200	H	1.386104	-0.659459	-0.009511
H201	H	0.866119	-1.086130	-0.385520
H202	H	1.366119	-0.586130	0.114480
H203	H	0.930927	-1.134721	-0.392938
H204	H	1.430927	-0.634721	0.107062
H205	H	1.110988	-0.996097	-0.302124
H206	H	1.610988	-0.496097	0.197876
O207	O	1.131599	-0.318676	-0.647212
O208	O	1.631599	0.181324	-0.147212
C209	C	1.166979	-0.342184	-0.535387
C210	C	1.666979	0.157816	-0.035387
C211	C	1.119088	-0.310327	-0.573941
C212	C	1.619088	0.189673	-0.073941
H213	H	1.156891	-0.335439	-0.476142
H214	H	1.656891	0.164561	0.023858
H215	H	1.155133	-0.378469	-0.549293
H216	H	1.655133	0.121531	-0.049293
H217	H	1.224411	-0.336208	-0.552193
H218	H	1.724411	0.163792	-0.052193
H219	H	1.061640	-0.316263	-0.557156
H220	H	1.561640	0.183737	-0.057156
H221	H	1.130994	-0.274054	-0.560034
H222	H	1.630994	0.225946	-0.060034
O223	O	1.117568	-0.420073	-0.295217
O224	O	1.617568	0.079927	0.204783
C225	C	1.203444	-0.425014	-0.209426
C226	C	1.703444	0.074986	0.290574
C227	C	1.155789	-0.450802	-0.256993
C228	C	1.655789	0.049198	0.243007
H229	H	1.234347	-0.449846	-0.178499
H230	H	1.734347	0.050154	0.321501
H231	H	1.241620	-0.404870	-0.243265
H232	H	1.741620	0.095130	0.256735
H233	H	1.169601	-0.401225	-0.171261
H234	H	1.669601	0.098775	0.328739
H235	H	1.189576	-0.474614	-0.295166
H236	H	1.689576	0.025386	0.204834
H237	H	1.117608	-0.470916	-0.223110
H238	H	1.617608	0.029084	0.276890
H239	H	0.304570	-0.314267	-0.472962
H240	H	0.804570	0.185733	0.027038
H241	H	0.953618	-0.508843	-0.458926
H242	H	1.453618	-0.008843	0.041074
H243	H	0.767154	-0.299896	-0.451361
H244	H	1.267154	0.200104	0.048639
H245	H	1.097934	-0.296202	-0.981858
H246	H	1.597934	0.203798	-0.481858
O247	O	1.117650	-0.512511	-0.295364
O248	O	1.617650	-0.012511	0.204636
C249	C	1.212481	-0.567717	-0.289796
C250	C	1.712481	-0.067717	0.210204
C251	C	1.164777	-0.541929	-0.337314
C252	C	1.664777	-0.041929	0.162686
H253	H	1.250585	-0.591514	-0.323692
H254	H	1.750585	-0.091514	0.176308
H255	H	1.243463	-0.542897	-0.258916
H256	H	1.743463	-0.042897	0.241084
H257	H	1.178669	-0.587854	-0.251588
H258	H	1.678669	-0.087854	0.248412
H259	H	1.198536	-0.521792	-0.375562
H260	H	1.698536	-0.021792	0.124438
H261	H	1.133791	-0.566772	-0.368144
H262	H	1.633791	-0.066772	0.131856
H263	H	0.939884	-0.191108	-1.108895
H264	H	1.439884	0.308892	-0.608895
H265	H	0.298060	-0.205517	-0.309685
H266	H	0.798060	0.294483	0.190315
O267	O	0.628199	-0.300934	-0.452877
O268	O	1.128199	0.199066	0.047123
C269	C	0.639533	-0.360586	-0.542467
C270	C	1.139533	0.139414	-0.042467
C271	C	0.678016	-0.328670	-0.494592
C272	C	1.178016	0.171330	0.005408
H273	H	0.679793	-0.383012	-0.576217
H274	H	1.179793	0.116988	-0.076217
H275	H	0.603750	-0.382292	-0.508678
H276	H	1.103750	0.117708	-0.008678
H277	H	0.606560	-0.340055	-0.577984
H278	H	1.106560	0.159945	-0.077984
H279	H	0.711026	-0.349165	-0.459067
H280	H	1.211026	0.150835	0.040933
H281	H	0.713757	-0.306963	-0.528423
H282	H	1.213757	0.193037	-0.028423
H283	H	0.953857	-0.996130	-0.459008
H284	H	1.453857	-0.496130	0.040992
O285	O	0.927142	-0.182767	-0.969178
O286	O	1.427142	0.317233	-0.469178
C287	C	0.828589	-0.171970	-0.882268
C288	C	1.328589	0.328030	-0.382268
C289	C	0.879789	-0.205959	-0.924768
C290	C	1.379789	0.294041	-0.424768
H291	H	0.790282	-0.190709	-0.846363
H292	H	1.290282	0.309291	-0.346363
H293	H	0.859550	-0.148436	-0.849065
H294	H	1.359550	0.351564	-0.349065
H295	H	0.797998	-0.151601	-0.919957
H296	H	1.297998	0.348399	-0.419957
H297	H	0.910392	-0.226360	-0.887130
H298	H	1.410392	0.273640	-0.387130
H299	H	0.848788	-0.229464	-0.957980
H300	H	1.348788	0.270536	-0.457980
H301	H	0.431617	-0.209083	-0.315023
H302	H	0.931617	0.290917	0.184977
O303	O	1.110734	-0.304575	-1.121420
O304	O	1.610734	0.195425	-0.621420
C305	C	1.231526	-0.330178	-1.148808
C306	C	1.731526	0.169822	-0.648808
C307	C	1.180314	-0.296175	-1.106354
C308	C	1.680314	0.203825	-0.606354
H309	H	1.287794	-0.323393	-1.136653
H310	H	1.787794	0.176607	-0.636653
H311	H	1.218570	-0.365695	-1.133811
H312	H	1.718570	0.134305	-0.633811
H313	H	1.226126	-0.326601	-1.207435
H314	H	1.726126	0.173399	-0.707435
H315	H	1.185686	-0.299711	-1.047716
H316	H	1.685686	0.200289	-0.547716
H317	H	1.193285	-0.260671	-1.121409
H318	H	1.693285	0.239329	-0.621409
H319	H	0.966758	-0.209063	-0.779866
H320	H	1.466758	0.290937	-0.279866
O321	O	1.137504	-0.322510	-0.792571
O322	O	1.637504	0.177490	-0.292571
C323	C	1.181980	-0.352075	-0.907581
C324	C	1.681980	0.147925	-0.407581
C325	C	1.130791	-0.318082	-0.865075
C326	C	1.630791	0.181918	-0.365075
H327	H	1.176559	-0.348513	-0.966208
H328	H	1.676559	0.151487	-0.466208
H329	H	1.238267	-0.345326	-0.895449
H330	H	1.738267	0.154674	-0.395449
H331	H	1.168973	-0.387576	-0.892547
H332	H	1.668973	0.112424	-0.392547
H333	H	1.143732	-0.282568	-0.880085
H334	H	1.643732	0.217432	-0.380085
H335	H	1.074518	-0.324870	-0.877211
H336	H	1.574518	0.175130	-0.377211
H337	H	1.154121	-0.639510	-0.258839
H338	H	1.654121	-0.139510	0.241161
O339	O	0.444102	-0.322706	-0.485672
O340	O	0.944102	0.177294	0.014328
C341	C	0.439893	-0.381970	-0.574596
C342	C	0.939893	0.118030	-0.074596
C343	C	0.397458	-0.347919	-0.523448
C344	C	0.897458	0.152081	-0.023448
H345	H	0.402199	-0.402370	-0.605141
H346	H	0.902199	0.097630	-0.105141
H347	H	0.475863	-0.363304	-0.612944
H348	H	0.975863	0.136696	-0.112944
H349	H	0.473038	-0.405467	-0.543527
H350	H	0.973038	0.094533	-0.043527
H351	H	0.364272	-0.324413	-0.554458
H352	H	0.864272	0.175587	-0.054458
H353	H	0.361532	-0.366614	-0.485100
H354	H	0.861532	0.133386	0.014900
H355	H	1.154168	-0.724618	-0.258857
H356	H	1.654168	-0.224618	0.241143
H357	H	0.627075	-0.187584	-0.282742
H358	H	1.127075	0.312416	0.217258
O359	O	1.117860	-1.084976	-0.295461
O360	O	1.617860	-0.584976	0.204539
C361	C	1.156340	-1.157259	-0.257238
C362	C	1.656340	-0.657259	0.242762
C363	C	1.108610	-1.131427	-0.304678
C364	C	1.608610	-0.631427	0.195322
H365	H	1.148867	-1.194818	-0.264662
H366	H	1.648867	-0.694818	0.235338
H367	H	1.213667	-1.149861	-0.272012
H368	H	1.713667	-0.649861	0.227988
H369	H	1.141782	-1.146216	-0.199874
H370	H	1.641782	-0.646216	0.300126
H371	H	1.123105	-1.142455	-0.362056
H372	H	1.623105	-0.642455	0.137944
H373	H	1.051295	-1.138826	-0.289844
H374	H	1.551295	-0.638826	0.210156
O375	O	0.903617	-0.728279	-0.509071
O376	O	1.403617	-0.228279	-0.009071
C377	C	0.817692	-0.723324	-0.594811
C378	C	1.317692	-0.223324	-0.094811
C379	C	0.865317	-0.697540	-0.547205
C380	C	1.365317	-0.197540	-0.047205
H381	H	0.786703	-0.698482	-0.625644
H382	H	1.286703	-0.198482	-0.125644
H383	H	0.851494	-0.747089	-0.633051
H384	H	1.351494	-0.247089	-0.133051
H385	H	0.779584	-0.743492	-0.560937
H386	H	1.279584	-0.243492	-0.060937
H387	H	0.903433	-0.677347	-0.581022
H388	H	1.403433	-0.177347	-0.081022
H389	H	0.831472	-0.673803	-0.508961
H390	H	1.331472	-0.173803	-0.008961
O391	O	0.903700	-0.635844	-0.509065
O392	O	1.403700	-0.135844	-0.009065
C393	C	0.897951	-0.585103	-0.603813
C394	C	1.397951	-0.085103	-0.103813
C395	C	0.945566	-0.610900	-0.556223
C396	C	1.445566	-0.110900	-0.056223
H397	H	0.931779	-0.564922	-0.641943
H398	H	1.431779	-0.064922	-0.141943
H399	H	0.867030	-0.609918	-0.634770
H400	H	1.367030	-0.109918	-0.134770
H401	H	0.859782	-0.561345	-0.569919
H402	H	1.359782	-0.061345	-0.069919
H403	H	0.983776	-0.634658	-0.590065
H404	H	1.483776	-0.134658	-0.090065
H405	H	0.976437	-0.586060	-0.525262
H406	H	1.476437	-0.086060	-0.025262
O407	O	0.946832	-0.419967	-0.465678
O408	O	1.446832	0.080033	0.034322
C409	C	0.908399	-0.347687	-0.503951
C410	C	1.408399	0.152313	-0.003951
C411	C	0.956012	-0.373513	-0.456393
C412	C	1.456012	0.126487	0.043607
H413	H	0.915794	-0.310124	-0.496450
H414	H	1.415794	0.189876	0.003550
H415	H	0.923036	-0.358692	-0.561318
H416	H	1.423036	0.141308	-0.061318
H417	H	0.851075	-0.355128	-0.489255
H418	H	1.351075	0.144872	0.010745
H419	H	1.013351	-0.366084	-0.471025
H420	H	1.513351	0.133916	0.028975
H421	H	0.941316	-0.362504	-0.399038
H422	H	1.441316	0.137496	0.100962
H423	H	1.154235	-0.865380	-0.258889
H424	H	1.654235	-0.365380	0.241111
O425	O	1.161066	-0.776642	-0.252057
O426	O	1.661066	-0.276642	0.247943
C427	C	1.246942	-0.781592	-0.166268
C428	C	1.746942	-0.281592	0.333732
C429	C	1.199282	-0.807375	-0.213836
C430	C	1.699282	-0.307375	0.286164
H431	H	1.277841	-0.806428	-0.135343
H432	H	1.777841	-0.306428	0.364657
H433	H	1.285123	-0.761451	-0.200106
H434	H	1.785123	-0.261451	0.299894
H435	H	1.213104	-0.757802	-0.128101
H436	H	1.713104	-0.257802	0.371899
H437	H	1.233064	-0.831188	-0.252010
H438	H	1.733064	-0.331188	0.247990
H439	H	1.161098	-0.827487	-0.179954
H440	H	1.661098	-0.327487	0.320046
H441	H	0.910503	-0.865415	-0.502219
H442	H	1.410503	-0.365415	-0.002219
H443	H	0.910463	-0.780307	-0.502203
H444	H	1.410463	-0.280307	-0.002203
H445	H	0.961379	-0.205512	-0.646308
H446	H	1.461379	0.294488	-0.146308
