data_functionalizedCrystal
_audit_creation_method	'MofGen! by Chris Wilmer'
_symmetry_space_group_name_H-M	'P1'
_symmetry_Int_Tables_number	1
_symmetry_cell_setting	triclinic
loop_
_symmetry_equiv_pos_as_xyz
  x,y,z
_cell_length_a	12.759401
_cell_length_b	17.077402
_cell_length_c	12.759393
_cell_angle_alpha	90.032336
_cell_angle_beta	89.980324
_cell_angle_gamma	89.975240
loop_
_atom_site_label
_atom_site_type_symbol
_atom_site_fract_x
_atom_site_fract_y
_atom_site_fract_z
Zn1	Zn	1.606196	0.312461	-0.593971
Zn2	Zn	1.606058	0.443747	-0.418286
Zn3	Zn	1.430495	0.312500	-0.418310
Zn4	Zn	1.430457	0.443690	-0.593927
O5	O	1.518301	0.378100	-0.506124
O6	O	1.753199	0.329884	-0.570675
O7	O	1.582727	0.426378	-0.271268
O8	O	1.453876	0.202648	-0.441641
O9	O	1.753097	0.426340	-0.441599
O10	O	1.582963	0.202620	-0.570698
O11	O	1.453741	0.329951	-0.271286
O12	O	1.283469	0.329895	-0.441598
O13	O	1.453811	0.426242	-0.740954
O14	O	1.283441	0.426280	-0.570623
O15	O	1.582926	0.329829	-0.740987
O16	O	1.582690	0.553587	-0.441556
O17	O	1.453677	0.553545	-0.570599
C18	C	1.245334	0.378086	-0.506109
C19	C	1.128557	0.378099	-0.506127
C20	C	1.073749	0.327966	-0.573440
C21	C	0.964025	0.327974	-0.573447
C22	C	0.963927	0.428256	-0.438825
C23	C	1.073649	0.428243	-0.438814
C24	C	1.518193	0.582048	-0.506093
C25	C	1.518243	0.669297	-0.506115
C26	C	1.585487	0.710283	-0.438997
C27	C	1.585536	0.792264	-0.439028
C28	C	1.518334	0.833257	-0.506173
C29	C	1.451087	0.792265	-0.573298
C30	C	1.451044	0.710286	-0.573272
C31	C	1.451178	0.963135	-0.573348
C32	C	1.451219	1.045120	-0.573373
C33	C	1.585670	1.045113	-0.439104
C34	C	1.585627	0.963134	-0.439077
C35	C	1.518378	0.922148	-0.506202
C36	C	1.792335	0.378114	-0.506139
C37	C	1.909111	0.378120	-0.506146
C38	C	1.518430	1.173355	-0.506191
C39	C	1.518463	1.086106	-0.506255
C40	C	1.518380	0.378024	-0.780157
C41	C	1.518414	0.377992	-0.896934
C42	C	1.585648	0.327782	-0.951814
C43	C	1.585666	0.327748	-1.061539
C44	C	1.451211	0.428142	-1.061492
C45	C	1.451189	0.428171	-0.951770
C46	C	1.518283	0.378118	-0.233156
C47	C	1.518454	0.377929	-0.116380
H48	H	1.640206	0.676912	-0.384315
H49	H	1.118276	0.469069	-0.383993
C50	C	1.134148	0.272801	-0.647474
C51	C	1.209581	0.211125	-0.602083
C52	C	1.269976	0.155956	-0.676115
C53	C	1.254937	0.162463	-0.795537
C54	C	1.179500	0.224142	-0.840934
C55	C	1.119105	0.279311	-0.766902
H56	H	1.220717	0.206305	-0.513674
H57	H	1.325819	0.110297	-0.642508
H58	H	1.299644	0.121624	-0.850340
H59	H	1.168364	0.228962	-0.929344
H60	H	1.063262	0.324970	-0.800509
C61	C	1.377071	0.665199	-0.647101
C62	C	1.422526	0.608766	-0.729609
C63	C	1.348555	0.563681	-0.803445
C64	C	1.229129	0.575028	-0.794773
C65	C	1.183668	0.631464	-0.712261
C66	C	1.257639	0.676549	-0.638425
H67	H	1.510938	0.600364	-0.736032
H68	H	1.382209	0.521903	-0.864525
H69	H	1.174371	0.541653	-0.849430
H70	H	1.095256	0.639866	-0.705838
H71	H	1.223985	0.718326	-0.577345
C72	C	1.377167	0.837357	-0.647162
C73	C	1.294733	0.893792	-0.601585
C74	C	1.220811	0.938882	-0.675448
C75	C	1.229322	0.927538	-0.794888
C76	C	1.311759	0.871100	-0.840471
C77	C	1.385681	0.826009	-0.766608
H78	H	1.288430	0.902192	-0.513162
H79	H	1.159785	0.980661	-0.641704
H80	H	1.174600	0.960916	-0.849566
H81	H	1.318062	0.862699	-0.928894
H82	H	1.446706	0.784230	-0.800352
C83	C	1.377292	0.483355	-1.121814
C84	C	1.303344	0.538593	-1.061443
C85	C	1.229433	0.593815	-1.121763
C86	C	1.229469	0.593799	-1.242453
C87	C	1.303420	0.538558	-1.302830
C88	C	1.377331	0.483336	-1.242511
H89	H	1.303314	0.538607	-0.972095
H90	H	1.174689	0.634708	-1.077066
H91	H	1.174756	0.634677	-1.287105
H92	H	1.303450	0.538544	-1.392178
H93	H	1.432074	0.442443	-1.287207
C94	C	1.659657	1.090193	-0.365276
C95	C	1.733575	1.045104	-0.291417
C96	C	1.807558	1.090188	-0.217591
C97	C	1.807622	1.180362	-0.217625
C98	C	1.733701	1.225456	-0.291488
C99	C	1.659718	1.180372	-0.365313
H100	H	1.733530	0.978348	-0.291389
H101	H	1.862280	1.056806	-0.162913
H102	H	1.862389	1.213736	-0.162975
H103	H	1.733746	1.292213	-0.291515
H104	H	1.604996	1.213754	-0.419991
H105	H	1.640342	0.929758	-0.384398
C106	C	0.903738	0.272828	-0.647499
C107	C	0.918876	0.279347	-0.766917
C108	C	0.858591	0.224198	-0.840972
C109	C	0.783169	0.162530	-0.795608
C110	C	0.768028	0.156009	-0.676183
C111	C	0.828313	0.211158	-0.602129
H112	H	0.974711	0.325000	-0.800504
H113	H	0.869799	0.229026	-0.929378
H114	H	0.738542	0.121705	-0.850427
H115	H	0.712193	0.110356	-0.642597
H116	H	0.817104	0.206330	-0.513722
H117	H	1.396431	0.469058	-0.907085
H118	H	1.640384	0.286921	-0.907170
H119	H	0.919208	0.469082	-0.384022
H120	H	1.640414	0.286860	-1.106218
C121	C	1.659506	0.837344	-0.365191
C122	C	1.614057	0.893782	-0.282686
C123	C	1.688033	0.938859	-0.208846
C124	C	1.807458	0.927498	-0.217510
C125	C	1.852912	0.871057	-0.300019
C126	C	1.778936	0.825980	-0.373859
H127	H	1.525647	0.902195	-0.276269
H128	H	1.654384	0.980640	-0.147767
H129	H	1.862219	0.960867	-0.162849
H130	H	1.941323	0.862644	-0.306436
H131	H	1.812585	0.784199	-0.434937
H132	H	1.396517	1.078494	-0.628068
H133	H	1.396421	0.929767	-0.628011
