data_functionalizedCrystal
_audit_creation_method	'MofGen! by Chris Wilmer'
_symmetry_space_group_name_H-M	'P1'
_symmetry_Int_Tables_number	1
_symmetry_cell_setting	triclinic
loop_
_symmetry_equiv_pos_as_xyz
  x,y,z
_cell_length_a	12.759401
_cell_length_b	16.625546
_cell_length_c	12.759393
_cell_angle_alpha	90.035119
_cell_angle_beta	90.020938
_cell_angle_gamma	90.023993
loop_
_atom_site_label
_atom_site_type_symbol
_atom_site_fract_x
_atom_site_fract_y
_atom_site_fract_z
Zn1	Zn	1.606210	-0.320930	0.593986
Zn2	Zn	1.606077	-0.455784	0.418292
Zn3	Zn	1.430508	-0.320973	0.418322
Zn4	Zn	1.430476	-0.455728	0.593930
O5	O	1.518318	-0.388354	0.506132
O6	O	1.753213	-0.338824	0.570692
O7	O	1.582745	-0.437943	0.271275
O8	O	1.453884	-0.208135	0.441660
O9	O	1.753116	-0.437901	0.441610
O10	O	1.582971	-0.208103	0.570720
O11	O	1.453756	-0.338897	0.271297
O12	O	1.283483	-0.338843	0.441605
O13	O	1.453830	-0.437805	0.740958
O14	O	1.283460	-0.437847	0.570623
O15	O	1.582940	-0.338770	0.741000
O16	O	1.582714	-0.568609	0.441555
O17	O	1.453701	-0.568568	0.570595
C18	C	1.245350	-0.388344	0.506112
C19	C	1.128574	-0.388359	0.506128
C20	C	1.073727	-0.439989	0.573202
C21	C	0.964003	-0.439992	0.573223
C22	C	0.963982	-0.336733	0.439086
C23	C	1.073704	-0.336726	0.439071
C24	C	0.814102	-0.468924	0.697080
C25	C	0.759252	-0.520566	0.764145
C26	C	0.794835	-0.599254	0.780084
C27	C	0.885268	-0.626316	0.728944
C28	C	0.940113	-0.574678	0.661871
C29	C	0.904530	-0.495979	0.645952
C30	C	1.223607	-0.307803	0.315212
C31	C	1.278454	-0.256168	0.248134
C32	C	1.242872	-0.177479	0.232183
C33	C	1.152436	-0.150420	0.283306
C34	C	1.097590	-0.202055	0.350384
C35	C	1.133179	-0.280743	0.366336
C36	C	1.518218	-0.597844	0.506088
C37	C	1.518272	-0.687466	0.506105
C38	C	1.518455	-1.015641	0.506214
C39	C	1.518401	-0.924333	0.506187
C40	C	1.518363	-0.851556	0.506159
C41	C	1.518310	-0.760242	0.506132
C42	C	1.792351	-0.388364	0.506154
C43	C	1.909128	-0.388369	0.506163
C44	C	1.518396	-0.388276	0.780166
C45	C	1.518430	-0.388243	0.896943
C46	C	1.518446	-0.178045	0.506200
C47	C	1.518501	-0.088424	0.506228
C48	C	1.518300	-0.388372	0.233165
C49	C	1.518470	-0.388178	0.116389
C50	C	1.585663	-0.336667	0.951828
C51	C	1.585681	-0.336632	1.061552
C52	C	1.451230	-0.439757	1.061496
C53	C	1.451208	-0.439787	0.951774
C54	C	1.623309	-0.241501	1.211540
C55	C	1.690559	-0.189932	1.266429
C56	C	1.793074	-0.177568	1.230839
C57	C	1.828360	-0.216784	1.140362
C58	C	1.761117	-0.268359	1.085478
C59	C	1.658587	-0.280708	1.121067
C60	C	1.413589	-0.534919	0.801784
C61	C	1.346350	-0.586499	0.746898
C62	C	1.243834	-0.598871	0.782486
C63	C	1.208551	-0.559669	0.872967
C64	C	1.275790	-0.508089	0.927853
C65	C	1.378306	-0.495716	0.892257
H66	H	1.252593	-0.371876	0.328203
H67	H	1.396502	-0.481723	1.106153
F68	F	1.522691	-0.521733	0.763881
H69	H	0.919294	-0.294697	0.384490
H70	H	0.914226	-0.690395	0.741919
H71	H	1.375091	-0.618427	0.673231
F72	F	1.864644	-0.122685	1.289261
H73	H	1.287534	-0.135441	0.177553
F74	F	1.374696	-0.284973	0.193711
H75	H	1.640397	-0.294695	0.907188
F76	F	1.001334	-0.173255	0.404789
H77	H	1.789848	-0.300292	1.011816
F78	F	1.036350	-0.603475	0.607443
F79	F	1.114559	-0.066671	0.266324
F80	F	0.736460	-0.654213	0.851466
H81	H	0.685622	-0.498525	0.805785
F82	F	0.776234	-0.385169	0.680136
F83	F	1.514195	-0.254646	1.249417
F84	F	1.132120	-0.494938	0.644572
F85	F	1.937478	-0.203632	1.102500
H86	H	1.125075	-0.569746	0.901947
H87	H	1.661819	-0.158002	1.340096
F88	F	1.238235	-0.466365	1.024151
F89	F	1.172281	-0.653782	0.724080
