data_functionalizedCrystal
_audit_creation_method	'MofGen! by Chris Wilmer'
_symmetry_space_group_name_H-M	'P1'
_symmetry_Int_Tables_number	1
_symmetry_cell_setting	triclinic
loop_
_symmetry_equiv_pos_as_xyz
  x,y,z
_cell_length_a	28.938199
_cell_length_b	28.937346
_cell_length_c	28.934044
_cell_angle_alpha	60.005004
_cell_angle_beta	60.009897
_cell_angle_gamma	59.994060
loop_
_atom_site_label
_atom_site_type_symbol
_atom_site_fract_x
_atom_site_fract_y
_atom_site_fract_z
O1	O	0.064043	-0.675186	0.564597
O2	O	0.024124	-0.525682	0.454913
O3	O	0.118795	-0.620275	0.454833
O4	O	-0.030629	-0.580593	0.564678
O5	O	0.150204	-0.588870	0.486157
O6	O	0.055533	-0.494276	0.486238
O7	O	0.095452	-0.643780	0.595921
Cu8	Cu	0.078360	-0.566161	0.543940
Cu9	Cu	0.041215	-0.603301	0.506895
O10	O	0.000780	-0.549187	0.596002
N11	N	0.104487	-0.540042	0.569998
N12	N	0.015094	-0.629425	0.480837
C13	C	0.165467	-0.323909	0.630915
C14	C	0.165587	-0.479117	0.786068
C15	C	0.165481	-0.479095	0.630906
C16	C	0.320696	-0.479083	0.630835
C17	C	0.182557	-0.375118	0.647971
C18	C	0.182626	-0.462038	0.734858
C19	C	0.269485	-0.462018	0.647928
C20	C	0.182566	-0.462025	0.647966
C21	C	0.143714	-0.258726	0.609206
C22	C	0.143738	-0.500820	0.609192
C23	C	0.204309	-0.440300	0.669680
C24	C	0.415481	-0.462740	0.580919
C25	C	0.474732	-0.482485	0.561145
C26	C	0.474757	-0.578356	0.597704
C27	C	0.415508	-0.558609	0.617479
C28	C	0.157989	-0.229089	0.550957
C29	C	0.138212	-0.169834	0.531225
C30	C	0.089890	-0.169857	0.627992
C31	C	0.109667	-0.229112	0.647725
C32	C	0.085482	-0.486515	0.623535
C33	C	0.065722	-0.506265	0.603789
C34	C	0.162467	-0.554625	0.555370
C35	C	0.182230	-0.534875	0.575110
C36	C	0.085661	-0.486557	0.880902
C37	C	0.065952	-0.506323	0.940155
C38	C	0.162734	-0.554693	0.940102
C39	C	0.182441	-0.534928	0.880847
C40	C	0.143904	-0.500859	0.851249
C41	C	0.385871	-0.500801	0.609083
C42	C	-0.110907	-0.668480	0.441278
C43	C	-0.024049	-0.668588	0.441475
C44	C	-0.045729	-0.690282	0.419668
C45	C	-0.062146	-0.785032	0.469507
C46	C	-0.042446	-0.844287	0.489286
C47	C	0.053426	-0.844399	0.452899
C48	C	0.033725	-0.785144	0.433120
C49	C	-0.140617	-0.682751	0.499509
C50	C	-0.199867	-0.662928	0.519152
C51	C	-0.199694	-0.614571	0.422330
C52	C	-0.140443	-0.634393	0.402687
C53	C	-0.038320	-0.610337	0.427144
C54	C	-0.018610	-0.590621	0.446974
C55	C	0.029642	-0.687402	0.495454
C56	C	0.009933	-0.707121	0.475630
C57	C	-0.038148	-0.610347	0.324832
C58	C	-0.018301	-0.590634	0.265579
C59	C	0.030035	-0.687421	0.265643
C60	C	0.010190	-0.707133	0.324897
C61	C	-0.023903	-0.668595	0.354491
C62	C	-0.024062	-0.755463	0.441426
N63	N	0.503527	-0.540005	0.569810
O64	O	0.684453	-0.545211	0.434650
O65	O	0.684643	-0.655237	0.584005
O66	O	0.684567	-0.654986	0.489282
O67	O	0.684529	-0.545462	0.529373
O68	O	0.590438	-0.623674	0.520735
O69	O	0.590513	-0.623924	0.615457
O70	O	0.590323	-0.513899	0.466102
Cu71	Cu	0.581823	-0.566053	0.543652
Cu72	Cu	0.693143	-0.603083	0.506456
O73	O	0.590399	-0.514149	0.560825
N74	N	0.771439	-0.629131	0.480292
N75	N	0.104456	-0.141061	0.570015
O76	O	-0.030629	0.039964	0.564688
O77	O	0.118732	0.039984	0.454661
O78	O	0.023980	0.039958	0.454946
O79	O	0.064123	0.039990	0.564403
O80	O	0.055392	-0.054179	0.486321
O81	O	0.150144	-0.054153	0.486036
O82	O	0.000784	-0.054173	0.596063
Cu83	Cu	0.078332	-0.062759	0.543914
Cu84	Cu	0.041183	0.048570	0.506810
O85	O	0.095535	-0.054147	0.595778
N86	N	0.015053	0.126872	0.480710
N87	N	0.104760	-0.540096	0.968910
O88	O	0.099447	-0.675167	1.149923
O89	O	-0.010552	-0.525757	1.149951
O90	O	-0.010297	-0.620493	1.149918
O91	O	0.099192	-0.580431	1.149956
O92	O	0.021064	-0.589100	1.055785
O93	O	0.020809	-0.494365	1.055818
O94	O	0.130808	-0.643774	1.055790
Cu95	Cu	0.078672	-0.566203	1.047209
Cu96	Cu	0.041584	-0.603328	1.158532
O97	O	0.130553	-0.549038	1.055823
N98	N	0.015495	-0.629442	1.236831
C99	C	0.036087	-0.491140	0.455465
C100	C	0.153325	-0.608283	0.455364
C101	C	0.083488	-0.678322	0.595370
C102	C	-0.033750	-0.561180	0.595470
C103	C	0.637601	-0.654732	0.618548
C104	C	0.637509	-0.654422	0.501245
C105	C	0.637362	-0.514403	0.431560
C106	C	0.637458	-0.514713	0.548862
C107	C	0.153215	-0.006966	0.455158
C108	C	0.035916	-0.007114	0.455550
C109	C	-0.033739	-0.007106	0.595527
C110	C	0.083600	-0.007076	0.595174
C111	C	-0.010020	-0.491238	1.102888
C112	C	-0.009698	-0.608550	1.102828
C113	C	0.130276	-0.678293	1.102853
C114	C	0.129961	-0.560974	1.102892
H115	H	0.054276	-0.458811	0.856808
N116	N	-0.090600	-0.549982	0.641160
H117	H	-0.097940	-0.517176	0.650590
H118	H	-0.090687	-0.584834	0.676109
H119	H	0.637649	-0.689271	0.661445
H120	H	0.018524	-0.494668	0.964293
N121	N	0.204298	-0.591427	0.972026
H122	H	0.244186	-0.597486	0.944250
H123	H	0.198234	-0.629176	0.996607
H124	H	0.164813	-0.721202	1.102837
H125	H	0.637525	-0.688829	0.492664
H126	H	0.391352	-0.415667	0.574082
H127	H	0.637300	-0.479859	0.388668
N128	N	0.175524	-0.549623	1.102903
H129	H	0.184893	-0.516797	1.068014
H130	H	0.210529	-0.584425	1.102919
N131	N	0.209868	-0.006473	0.409241
H132	H	0.209890	-0.006357	0.374265
H133	H	0.240707	-0.041242	0.422804
H134	H	-0.044080	-0.617108	1.102779
H135	H	0.637450	-0.480310	0.557440
H136	H	0.027318	-0.007118	0.421162
N137	N	-0.090553	-0.007117	0.641287
H138	H	-0.115868	-0.007127	0.626790
H139	H	-0.108527	0.027783	0.652217
N140	N	0.094974	-0.007050	0.640723
H141	H	0.134813	-0.007038	0.626028
H142	H	0.090480	-0.041945	0.674949
N143	N	-0.055764	-0.434398	1.102894
H144	H	-0.065245	-0.427037	1.137795
H145	H	-0.090675	-0.434349	1.102864
N146	N	0.245264	-0.550356	0.848864
H147	H	0.266684	-0.574934	0.876607
H148	H	0.255545	-0.514715	0.824281
H149	H	0.196241	-0.616742	0.420869
N150	N	0.043967	-0.449776	0.660283
H151	H	0.004064	-0.443705	0.666365
H152	H	0.050045	-0.412033	0.641034
H153	H	0.193817	-0.582360	0.527624
N154	N	0.002889	-0.490841	0.619256
H155	H	-0.014795	-0.505337	0.661761
H156	H	-0.003739	-0.508520	0.601537
N157	N	0.245063	-0.550298	0.559640
H158	H	0.266449	-0.574868	0.535054
H159	H	0.255394	-0.571656	0.595263
H160	H	0.498884	-0.625426	0.604536
H161	H	0.391402	-0.589605	0.640414
N162	N	0.024793	-0.434252	0.409835
H163	H	-0.008027	-0.426930	0.400440
H164	H	0.059609	-0.434098	0.374855
H165	H	0.092017	-0.721269	0.629819
H166	H	0.498841	-0.451490	0.538213
H167	H	0.149834	-0.145702	0.483792
N168	N	0.194715	-0.261030	0.509413
H169	H	0.200754	-0.233262	0.469516
H170	H	0.175478	-0.285621	0.515507
H171	H	0.062174	-0.145744	0.659359
H172	H	-0.029909	-0.543201	0.241439
N173	N	0.094271	-0.261077	0.710551
H174	H	0.069701	-0.233323	0.731956
H175	H	0.129920	-0.285657	0.720833
N176	N	-0.033994	-0.527792	0.431514
H177	H	-0.016351	-0.521149	0.449258
H178	H	-0.076500	-0.510065	0.445913
H179	H	0.057785	-0.718806	0.241554
N180	N	-0.074922	-0.568782	0.356756
H181	H	-0.110512	-0.544163	0.346367
H182	H	-0.053518	-0.544265	0.346484
N183	N	0.025562	-0.769962	0.356882
H184	H	0.011105	-0.787654	0.346520
H185	H	0.007820	-0.776558	0.398899
N186	N	0.066283	-0.728963	0.532300
H187	H	0.072327	-0.768855	0.538370
H188	H	0.046973	-0.722845	0.570034
H189	H	0.021552	-0.754553	0.487300
N190	N	0.074803	-0.753250	0.402829
H191	H	0.114399	-0.781046	0.400573
H192	H	0.064206	-0.728659	0.424308
H193	H	0.100481	-0.868567	0.446139
N194	N	-0.083527	-0.876174	0.519566
H195	H	-0.112424	-0.865832	0.554557
H196	H	-0.062240	-0.918207	0.530796
N197	N	-0.124471	-0.753016	0.478463
H198	H	-0.146510	-0.763297	0.520337
H199	H	-0.137439	-0.763323	0.459348
N200	N	-0.108752	-0.719514	0.541124
H201	H	-0.119107	-0.755117	0.565696
H202	H	-0.119104	-0.698108	0.565682
N203	N	-0.231922	-0.678313	0.581961
H204	H	-0.221646	-0.663852	0.599726
H205	H	-0.221643	-0.720816	0.599645
N206	N	-0.231556	-0.577815	0.380710
H207	H	-0.203744	-0.571790	0.340838
H208	H	-0.256127	-0.540053	0.386760
H209	H	-0.116252	-0.622767	0.355267
H210	H	-0.065985	-0.578958	0.399332
