data_functionalizedCrystal
_audit_creation_method	'MofGen! by Chris Wilmer'
_symmetry_space_group_name_H-M	'P1'
_symmetry_Int_Tables_number	1
_symmetry_cell_setting	triclinic
loop_
_symmetry_equiv_pos_as_xyz
  x,y,z
_cell_length_a	19.805407
_cell_length_b	14.908178
_cell_length_c	19.805399
_cell_angle_alpha	93.324276
_cell_angle_beta	90.019573
_cell_angle_gamma	93.313831
loop_
_atom_site_label
_atom_site_type_symbol
_atom_site_fract_x
_atom_site_fract_y
_atom_site_fract_z
Zn1	Zn	1.019225	-0.359207	0.367165
Zn2	Zn	1.519225	0.140793	0.867165
Zn3	Zn	1.012625	-0.510084	0.247444
Zn4	Zn	1.512625	-0.010084	0.747444
Zn5	Zn	0.906038	-0.359232	0.253989
Zn6	Zn	1.406038	0.140768	0.753989
Zn7	Zn	0.899490	-0.510036	0.360592
Zn8	Zn	1.399490	-0.010036	0.860592
O9	O	0.959345	-0.434640	0.307297
O10	O	1.459345	0.065360	0.807297
O11	O	1.113065	-0.379231	0.351295
O12	O	1.613065	0.120769	0.851295
O13	O	0.998464	-0.490103	0.153594
O14	O	1.498464	0.009897	0.653594
O15	O	0.926556	-0.232974	0.274492
O16	O	1.426556	0.267026	0.774492
O17	O	1.108216	-0.490079	0.263336
O18	O	1.608216	0.009921	0.763336
O19	O	1.009713	-0.232956	0.357642
O20	O	1.509713	0.267044	0.857642
O21	O	0.920156	-0.379273	0.158402
O22	O	1.420156	0.120727	0.658402
O23	O	0.810454	-0.379227	0.268118
O24	O	1.310454	0.120773	0.768118
O25	O	0.915395	-0.489998	0.456182
O26	O	1.415395	0.010002	0.956182
O27	O	0.805643	-0.490022	0.346440
O28	O	1.305643	0.009978	0.846440
O29	O	1.003363	-0.379184	0.461011
O30	O	1.503363	0.120816	0.961011
O31	O	0.992115	-0.636332	0.256963
O32	O	1.492115	-0.136332	0.756963
O33	O	0.908995	-0.636296	0.340093
O34	O	1.408995	-0.136296	0.840093
C35	C	0.783489	-0.434622	0.307276
C36	C	1.283489	0.065378	0.807276
C37	C	0.708257	-0.434637	0.307282
C38	C	1.208257	0.065363	0.807282
C39	C	0.670421	-0.492414	0.347990
C40	C	1.170421	0.007586	0.847990
C41	C	0.599733	-0.492416	0.348000
C42	C	1.099733	0.007584	0.848000
C43	C	0.566881	-0.434644	0.307297
C44	C	1.066881	0.065356	0.807297
C45	C	0.604721	-0.376860	0.266588
C46	C	1.104721	0.123140	0.766588
C47	C	0.675409	-0.376854	0.266582
C48	C	1.175409	0.123146	0.766582
C49	C	0.319647	-0.376880	0.266609
C50	C	0.819647	0.123120	0.766609
C51	C	0.248955	-0.376891	0.266616
C52	C	0.748955	0.123109	0.766616
C53	C	0.243971	-0.492441	0.348027
C54	C	0.743971	0.007559	0.848027
C55	C	0.314659	-0.492436	0.348021
C56	C	0.814659	0.007564	0.848021
C57	C	0.352493	-0.434649	0.307315
C58	C	0.852493	0.065351	0.807315
C59	C	0.429142	-0.434647	0.307306
C60	C	0.929142	0.065353	0.807306
C61	C	0.490233	-0.434650	0.307302
C62	C	0.990233	0.065350	0.807302
C63	C	0.949146	-0.669050	0.297119
C64	C	1.449146	-0.169050	0.797119
C65	C	0.944845	-0.769332	0.292788
C66	C	1.444845	-0.269332	0.792788
C67	C	1.023290	-0.957604	0.371326
C68	C	1.523290	-0.457604	0.871326
C69	C	1.019251	-1.051827	0.367258
C70	C	1.519251	-0.551827	0.867258
C71	C	0.932726	-1.052005	0.280589
C72	C	1.432726	-0.552005	0.780589
C73	C	0.936765	-0.957782	0.284657
C74	C	1.436765	-0.457782	0.784657
C75	C	0.982049	-0.910584	0.330026
C76	C	1.482049	-0.410584	0.830026
C77	C	0.986091	-0.816359	0.334089
C78	C	1.486091	-0.316359	0.834089
C79	C	0.899563	-0.816538	0.247424
C80	C	1.399563	-0.316538	0.747424
C81	C	0.895524	-0.910762	0.243357
C82	C	1.395524	-0.410762	0.743357
C83	C	1.135886	-0.434658	0.307319
C84	C	1.635886	0.065342	0.807319
C85	C	1.211118	-0.434665	0.307328
C86	C	1.711118	0.065335	0.807328
C87	C	0.959385	-0.434583	0.483843
C88	C	1.459385	0.065417	0.983843
C89	C	0.959402	-0.434559	0.559076
C90	C	1.459402	0.065441	1.059076
C91	C	0.969601	-0.199314	0.317530
C92	C	1.469601	0.300686	0.817530
C93	C	0.973972	-0.099032	0.321891
C94	C	1.473972	0.400968	0.821891
C95	C	0.959346	-0.434631	0.131442
C96	C	1.459346	0.065369	0.631442
C97	C	0.959471	-0.434401	0.056220
C98	C	1.459471	0.065599	0.556220
C99	C	1.005209	-0.376855	0.596936
C100	C	1.505209	0.123145	1.096936
C101	C	1.005217	-0.376829	0.667625
C102	C	1.505217	0.123171	1.167625
C103	C	0.959421	-0.434511	0.700453
C104	C	1.459421	0.065489	1.200453
C105	C	0.913610	-0.492217	0.662589
C106	C	1.413610	0.007783	1.162589
C107	C	0.913599	-0.492238	0.591900
C108	C	1.413599	0.007762	1.091900
C109	C	0.913652	-0.492133	0.947666
C110	C	1.413652	0.007867	1.447666
C111	C	0.913667	-0.492110	1.018359
C112	C	1.413667	0.007890	1.518359
C113	C	1.005269	-0.376724	1.023390
C114	C	1.505269	0.123276	1.523390
C115	C	1.005258	-0.376745	0.952702
C116	C	1.505258	0.123255	1.452702
C117	C	0.959445	-0.434447	0.914844
C118	C	1.459445	0.065553	1.414844
C119	C	0.959436	-0.434474	0.838194
C120	C	1.459436	0.065526	1.338194
C121	C	0.959433	-0.434490	0.777102
C122	C	1.459433	0.065510	1.277102
H123	H	0.341403	-0.539483	0.381163
H124	H	0.841403	-0.039483	0.881163
H125	H	1.022965	-0.777931	0.371029
H126	H	1.522965	-0.277931	0.871029
Cl127	Cl	0.875787	-1.111355	0.223575
Cl128	Cl	1.375787	-0.611355	0.723575
H129	H	0.876357	-0.539131	0.916849
H130	H	1.376357	-0.039131	1.416849
H131	H	0.858654	-0.949203	0.206420
H132	H	1.358654	-0.449203	0.706420
H133	H	1.052830	-1.090107	0.400892
H134	H	1.552830	-0.590107	0.900892
H135	H	0.865984	-0.778244	0.213793
H136	H	1.365984	-0.278244	0.713793
H137	H	1.042503	-0.329886	0.570212
H138	H	1.542503	0.170114	1.070212
H139	H	1.042518	-0.329843	0.698448
H140	H	1.542518	0.170157	1.198448
H141	H	1.042552	-0.329777	0.925977
H142	H	1.542552	0.170223	1.425977
Cl143	Cl	0.711714	-0.565051	0.399159
Cl144	Cl	1.211714	-0.065051	0.899159
H145	H	0.706214	-0.329801	0.233437
H146	H	1.206214	0.170199	0.733437
H147	H	0.213158	-0.539491	0.381175
H148	H	0.713158	-0.039491	0.881175
Cl149	Cl	0.552171	-0.565054	0.399178
Cl150	Cl	1.052171	-0.065054	0.899178
Cl151	Cl	1.062862	-0.304179	1.070989
Cl152	Cl	1.562862	0.195821	1.570989
H153	H	0.876372	-0.539083	1.045085
H154	H	1.376372	-0.039083	1.545085
Cl155	Cl	1.080224	-0.898266	0.428351
Cl156	Cl	1.580224	-0.398266	0.928351
H157	H	0.577968	-0.329817	0.233450
H158	H	1.077968	0.170183	0.733450
H159	H	0.876292	-0.539217	0.561076
H160	H	1.376292	-0.039217	1.061076
Cl161	Cl	0.207656	-0.304256	0.215444
Cl162	Cl	0.707656	0.195744	0.715444
Cl163	Cl	0.367201	-0.304230	0.215437
Cl164	Cl	0.867201	0.195770	0.715437
H165	H	0.876320	-0.539180	0.689323
H166	H	1.376320	-0.039180	1.189323
