data_functionalizedCrystal
_audit_creation_method	'MofGen! by Chris Wilmer'
_symmetry_space_group_name_H-M	'P1'
_symmetry_Int_Tables_number	1
_symmetry_cell_setting	triclinic
loop_
_symmetry_equiv_pos_as_xyz
  x,y,z
_cell_length_a	25.639243
_cell_length_b	25.639234
_cell_length_c	16.120444
_cell_angle_alpha	92.875700
_cell_angle_beta	92.929446
_cell_angle_gamma	89.976852
loop_
_atom_site_label
_atom_site_type_symbol
_atom_site_fract_x
_atom_site_fract_y
_atom_site_fract_z
Zn1	Zn	0.788752	-0.306211	-0.331902
Zn2	Zn	1.288752	0.193789	0.168098
Zn3	Zn	0.784250	-0.223209	-0.471312
Zn4	Zn	1.284250	0.276791	0.028688
Zn5	Zn	0.701317	-0.218786	-0.331922
Zn6	Zn	1.201317	0.281214	0.168078
Zn7	Zn	0.696860	-0.310608	-0.471284
Zn8	Zn	1.196860	0.189392	0.028716
O9	O	0.742795	-0.264704	-0.401605
O10	O	1.242795	0.235296	0.098395
O11	O	0.861320	-0.295212	-0.350398
O12	O	1.361320	0.204788	0.149602
O13	O	0.773230	-0.149458	-0.452842
O14	O	1.273230	0.350542	0.047158
O15	O	0.716665	-0.226691	-0.215252
O16	O	1.216665	0.273309	0.284748
O17	O	0.858012	-0.234231	-0.452822
O18	O	1.358012	0.265769	0.047178
O19	O	0.780903	-0.290923	-0.215237
O20	O	1.280903	0.209077	0.284763
O21	O	0.712299	-0.146208	-0.350433
O22	O	1.212299	0.353792	0.149567
O23	O	0.627560	-0.230954	-0.350405
O24	O	1.127560	0.269046	0.149595
O25	O	0.709068	-0.383189	-0.452774
O26	O	1.209068	0.116811	0.047226
O27	O	0.624286	-0.298416	-0.452794
O28	O	1.124286	0.201584	0.047206
O29	O	0.776581	-0.379959	-0.350370
O30	O	1.276581	0.120041	0.149630
O31	O	0.768908	-0.238494	-0.587976
O32	O	1.268908	0.261506	-0.087976
O33	O	0.704703	-0.302706	-0.587955
O34	O	1.204703	0.197294	-0.087955
C35	C	0.606952	-0.264683	-0.401599
C36	C	1.106952	0.235317	0.098401
C37	C	0.548838	-0.264687	-0.401617
C38	C	1.048838	0.235313	0.098383
C39	C	0.190189	-0.296515	-0.348356
C40	C	0.690189	0.203485	0.151644
C41	C	0.135585	-0.296518	-0.348356
C42	C	0.635585	0.203482	0.151644
O43	O	0.108806	-0.323553	-0.303056
O44	O	0.608806	0.176447	0.196944
N45	N	0.106556	-0.264718	-0.401602
N46	N	0.606556	0.235282	0.098398
C47	C	0.132134	-0.232908	-0.454847
C48	C	0.632134	0.267092	0.045153
O49	O	0.102428	-0.205860	-0.500137
O50	O	0.602428	0.294140	-0.000137
C51	C	0.186737	-0.232903	-0.454843
C52	C	0.686737	0.267097	0.045157
C53	C	0.215763	-0.264709	-0.401599
C54	C	0.715763	0.235291	0.098401
C55	C	0.219215	-0.328318	-0.295116
C56	C	0.719215	0.171682	0.204884
C57	C	0.273816	-0.328315	-0.295118
C58	C	0.773816	0.171685	0.204882
C59	C	0.299390	-0.296510	-0.348360
C60	C	0.799390	0.203490	0.151640
C61	C	0.270364	-0.264706	-0.401601
C62	C	0.770364	0.235294	0.098399
C63	C	0.212314	-0.201091	-0.508083
C64	C	0.712314	0.298909	-0.008083
C65	C	0.266922	-0.201088	-0.508074
C66	C	0.766922	0.298912	-0.008074
C67	C	0.295948	-0.232894	-0.454830
C68	C	0.795948	0.267106	0.045170
C69	C	0.350539	-0.232898	-0.454846
C70	C	0.850539	0.267102	0.045154
N71	N	0.379568	-0.264698	-0.401599
N72	N	0.879568	0.235302	0.098401
C73	C	0.353993	-0.296504	-0.348356
C74	C	0.853993	0.203496	0.151644
C75	C	0.017463	-0.232922	-0.454851
C76	C	0.517463	0.267078	0.045149
C77	C	-0.037140	-0.232930	-0.454860
C78	C	0.462860	0.267070	0.045140
C79	C	-0.033685	-0.296539	-0.348367
C80	C	0.466315	0.203461	0.151633
C81	C	0.020919	-0.296533	-0.348363
C82	C	0.520919	0.203467	0.151637
C83	C	0.046492	-0.264722	-0.401604
C84	C	0.546492	0.235278	0.098396
C85	C	0.468658	-0.296496	-0.348365
C86	C	0.968658	0.203504	0.151635
C87	C	0.523263	-0.296493	-0.348374
C88	C	1.023263	0.203507	0.151626
C89	C	0.519804	-0.232882	-0.454864
C90	C	1.019804	0.267118	0.045136
C91	C	0.465203	-0.232887	-0.454858
C92	C	0.965203	0.267113	0.045142
C93	C	0.439632	-0.264696	-0.401602
C94	C	0.939632	0.235304	0.098398
O95	O	0.377353	-0.205875	-0.500120
O96	O	0.877353	0.294125	-0.000120
O97	O	0.383706	-0.323543	-0.303066
O98	O	0.883706	0.176457	0.196934
C99	C	0.742830	-0.401075	-0.401567
C100	C	1.242830	0.098925	0.098433
C101	C	0.742845	-0.459189	-0.401551
C102	C	1.242845	0.040811	0.098449
C103	C	0.711136	-0.817862	-0.348127
C104	C	1.211136	-0.317862	0.151873
C105	C	0.711139	-0.872466	-0.348112
C106	C	1.211139	-0.372466	0.151888
O107	O	0.684150	-0.899269	-0.302781
O108	O	1.184150	-0.399269	0.197219
N109	N	0.742866	-0.901467	-0.401420
N110	N	1.242866	-0.401467	0.098580
C111	C	0.774588	-0.875863	-0.454753
C112	C	1.274588	-0.375863	0.045247
O113	O	0.801574	-0.905545	-0.500095
O114	O	1.301574	-0.405545	-0.000095
C115	C	0.774582	-0.821260	-0.454771
C116	C	1.274582	-0.321260	0.045229
C117	C	0.742857	-0.792261	-0.401454
C118	C	1.242857	-0.292261	0.098546
C119	C	0.679413	-0.788863	-0.294814
C120	C	1.179413	-0.288863	0.205186
C121	C	0.679411	-0.734263	-0.294828
C122	C	1.179411	-0.234263	0.205172
C123	C	0.711131	-0.708662	-0.348155
C124	C	1.211131	-0.208662	0.151845
C125	C	0.742854	-0.737661	-0.401468
C126	C	1.242854	-0.237661	0.098532
C127	C	0.806300	-0.795656	-0.508108
C128	C	1.306300	-0.295656	-0.008108
C129	C	0.806291	-0.741049	-0.508122
C130	C	1.306291	-0.241049	-0.008122
C131	C	0.774566	-0.712050	-0.454804
C132	C	1.274566	-0.212050	0.045196
C133	C	0.774572	-0.657459	-0.454809
C134	C	1.274572	-0.157459	0.045191
N135	N	0.742845	-0.628458	-0.401501
N136	N	1.242845	-0.128458	0.098499
C137	C	0.711125	-0.654059	-0.348174
C138	C	1.211125	-0.154059	0.151826
C139	C	0.774599	-0.990532	-0.454710
C140	C	1.274599	-0.490532	0.045290
C141	C	0.774608	-1.045133	-0.454688
C142	C	1.274608	-0.545133	0.045312
C143	C	0.711158	-1.041733	-0.348048
C144	C	1.211158	-0.541733	0.151952
C145	C	0.711152	-0.987130	-0.348067
C146	C	1.211152	-0.487130	0.151933
C147	C	0.742872	-0.961530	-0.401402
C148	C	1.242872	-0.461530	0.098598
C149	C	0.711122	-0.539395	-0.348207
C150	C	1.211122	-0.039395	0.151793
C151	C	0.711124	-0.484790	-0.348224
C152	C	1.211124	0.015210	0.151776
C153	C	0.774572	-0.488195	-0.454867
C154	C	1.274572	0.011805	0.045133
C155	C	0.774572	-0.542795	-0.454847
C156	C	1.274572	-0.042795	0.045153
C157	C	0.742843	-0.568394	-0.401515
C158	C	1.242843	-0.068394	0.098485
O159	O	0.801546	-0.630621	-0.500119
O160	O	1.301546	-0.130621	-0.000119
O161	O	0.684138	-0.624371	-0.302847
O162	O	1.184138	-0.124371	0.197153
C163	C	0.879167	-0.264725	-0.401611
C164	C	1.379167	0.235275	0.098389
C165	C	0.937281	-0.264734	-0.401614
C166	C	1.437281	0.235266	0.098386
C167	C	0.735847	-0.271569	-0.618216
C168	C	1.235847	0.228431	-0.118216
C169	C	0.732923	-0.274523	-0.710883
C170	C	1.232923	0.225477	-0.210883
C171	C	0.742792	-0.128860	-0.401583
C172	C	1.242792	0.371140	0.098417
C173	C	0.742885	-0.070740	-0.401364
C174	C	1.242885	0.429260	0.098636
C175	C	0.758092	-0.249490	-0.921817
C176	C	1.258092	0.250510	-0.421817
C177	C	0.727594	-0.279922	-0.880541
C178	C	1.227594	0.220078	-0.380541
C179	C	0.730560	-0.276917	-0.786134
C180	C	1.230560	0.223083	-0.286134
C181	C	0.755127	-0.252495	-1.016233
C182	C	1.255127	0.247505	-0.516233
C183	C	0.749783	-0.257823	-0.184148
C184	C	1.249783	0.242177	0.315852
C185	C	0.752761	-0.254891	-0.091481
C186	C	1.252761	0.245109	0.408519
H187	H	0.540636	-0.206987	-0.498214
H188	H	1.040636	0.293013	0.001786
Cl189	Cl	0.814465	-0.579252	-0.521862
Cl190	Cl	1.314465	-0.079252	-0.021862
H191	H	0.800435	-0.969692	-0.498138
H192	H	1.300435	-0.469692	0.001862
Cl193	Cl	0.428712	-0.192918	-0.521819
Cl194	Cl	0.928712	0.307082	-0.021819
Cl195	Cl	0.671239	-0.448338	-0.281189
Cl196	Cl	1.171239	0.051662	0.218811
Cl197	Cl	0.846181	-0.832099	-0.575147
Cl198	Cl	1.346181	-0.332099	-0.075147
Cl199	Cl	0.671238	-0.571567	-0.281154
Cl200	Cl	1.171238	-0.071567	0.218846
Cl201	Cl	0.846168	-0.708870	-0.575179
Cl202	Cl	1.346168	-0.208870	-0.075179
H203	H	0.800399	-0.467341	-0.498281
H204	H	1.300399	0.032659	0.001719
H205	H	0.699256	-0.308233	-0.916105
H206	H	1.199256	0.191767	-0.416105
H207	H	0.447845	-0.322397	-0.304996
H208	H	0.947845	0.177603	0.195004
H209	H	0.287741	-0.175182	-0.551430
H210	H	0.787741	0.324818	-0.051430
Cl211	Cl	0.559750	-0.336482	-0.281435
Cl212	Cl	1.059750	0.163518	0.218565
Cl213	Cl	0.310298	-0.368300	-0.228175
Cl214	Cl	0.810298	0.131700	0.271825
H215	H	0.198399	-0.354218	-0.251754
H216	H	0.698399	0.145782	0.248246
H217	H	0.786428	-0.221181	-0.886258
H218	H	1.286428	0.278819	-0.386258
Cl219	Cl	0.057403	-0.336518	-0.281422
Cl220	Cl	0.557403	0.163482	0.218578
Cl221	Cl	0.639524	-0.821038	-0.227775
Cl222	Cl	1.139524	-0.321038	0.272225
H223	H	-0.054517	-0.322436	-0.305011
H224	H	0.445483	0.177564	0.194989
Cl225	Cl	-0.073623	-0.192948	-0.521807
Cl226	Cl	0.426377	0.307052	-0.021807
H227	H	0.038281	-0.207019	-0.498214
H228	H	0.538281	0.292981	0.001786
H229	H	0.188690	-0.175190	-0.551440
H230	H	0.688690	0.324810	-0.051440
H231	H	0.653575	-0.710657	-0.251415
H232	H	1.153575	-0.210657	0.248585
Cl233	Cl	0.671266	-0.950680	-0.281038
Cl234	Cl	1.171266	-0.450680	0.218962
H235	H	0.685330	-1.062588	-0.304627
H236	H	1.185330	-0.562588	0.195373
H237	H	0.800448	-1.068740	-0.498095
H238	H	1.300448	-0.568740	0.001905
