data_functionalizedCrystal
_audit_creation_method	'MofGen! by Chris Wilmer'
_symmetry_space_group_name_H-M	'P1'
_symmetry_Int_Tables_number	1
_symmetry_cell_setting	triclinic
loop_
_symmetry_equiv_pos_as_xyz
  x,y,z
_cell_length_a	14.519709
_cell_length_b	14.519709
_cell_length_c	10.868271
_cell_angle_alpha	89.998701
_cell_angle_beta	90.013556
_cell_angle_gamma	83.680146
loop_
_atom_site_label
_atom_site_type_symbol
_atom_site_fract_x
_atom_site_fract_y
_atom_site_fract_z
O1	O	-0.120892	-1.223867	-0.102186
O2	O	0.379108	-0.723867	0.397814
O3	O	-0.135128	-0.955390	-0.102226
O4	O	0.364872	-0.455390	0.397774
O5	O	0.006228	-1.096747	-0.102171
O6	O	0.506228	-0.596747	0.397829
O7	O	-0.262248	-1.082510	-0.102241
O8	O	0.237752	-0.582510	0.397759
O9	O	0.006234	-1.096735	0.102474
O10	O	0.506234	-0.596735	0.602474
O11	O	-0.135123	-0.955379	0.102418
O12	O	0.364877	-0.455379	0.602418
O13	O	-0.120886	-1.223856	0.102459
O14	O	0.379114	-0.723856	0.602459
Zn15	Zn	-0.128004	-1.089615	0.134930
Zn16	Zn	0.371996	-0.589615	0.634930
Zn17	Zn	-0.128011	-1.089631	-0.134698
Zn18	Zn	0.371989	-0.589631	0.365302
O19	O	-0.262243	-1.082499	0.102403
O20	O	0.237757	-0.582499	0.602403
C21	C	0.040591	-1.096078	0.000158
C22	C	0.540591	-0.596078	0.500158
C23	C	0.142972	-1.094090	0.000176
C24	C	0.642972	-0.594090	0.500176
C25	C	-0.134462	-0.921025	0.000091
C26	C	0.365538	-0.421025	0.500091
C27	C	-0.132474	-0.818643	0.000078
C28	C	0.367526	-0.318643	0.500078
C29	C	-0.121553	-1.258221	0.000138
C30	C	0.378447	-0.758221	0.500138
C31	C	-0.123541	-1.360602	0.000144
C32	C	0.376459	-0.860602	0.500144
C33	C	0.517868	-1.086770	0.000208
C34	C	1.017868	-0.586770	0.500208
C35	C	0.413560	-1.088803	0.000200
C36	C	0.913560	-0.588803	0.500200
C37	C	0.330423	-1.090430	0.000193
C38	C	0.830423	-0.590430	0.500193
C39	C	0.226109	-1.092463	0.000183
C40	C	0.726109	-0.592463	0.500183
C41	C	0.703394	-1.083168	0.000116
C42	C	1.203394	-0.583168	0.500116
C43	C	0.601013	-1.085156	0.000220
C44	C	1.101013	-0.585156	0.500220
C45	C	-0.125154	-0.443748	0.000136
C46	C	0.374846	0.056252	0.500136
C47	C	-0.127187	-0.548056	0.000119
C48	C	0.372813	-0.048056	0.500119
C49	C	-0.128814	-0.631192	0.000106
C50	C	0.371186	-0.131192	0.500106
C51	C	-0.130847	-0.735507	0.000091
C52	C	0.369153	-0.235507	0.500091
N53	N	-0.127998	-1.089612	0.318944
N54	N	0.372002	-0.589612	0.818944
N55	N	-0.128009	-1.089642	-0.318712
N56	N	0.371991	-0.589642	0.181288
C57	C	-0.128009	-1.089626	0.569951
C58	C	0.371991	-0.589626	1.069951
C59	C	-0.128006	-1.089615	0.430273
C60	C	0.371994	-0.589615	0.930273
