data_functionalizedCrystal
_audit_creation_method	'MofGen! by Chris Wilmer'
_symmetry_space_group_name_H-M	'P1'
_symmetry_Int_Tables_number	1
_symmetry_cell_setting	triclinic
loop_
_symmetry_equiv_pos_as_xyz
  x,y,z
_cell_length_a	6.817900
_cell_length_b	11.102294
_cell_length_c	11.168136
_cell_angle_alpha	91.982997
_cell_angle_beta	108.508683
_cell_angle_gamma	108.605785
loop_
_atom_site_label
_atom_site_type_symbol
_atom_site_fract_x
_atom_site_fract_y
_atom_site_fract_z
V1	V	-4.110387	-0.175858	-0.393698
O2	O	-4.069442	0.008431	-0.386205
O3	O	-4.087172	-0.348678	-0.391004
O4	O	-4.086670	-0.173161	-0.565404
O5	O	-4.069947	-0.168300	-0.210598
V6	V	-4.587554	-0.153814	-0.371798
O7	O	-4.385590	-0.224214	-0.441737
O8	O	-4.762549	-0.105458	-0.323758
O9	O	-4.387563	0.019006	-0.374492
O10	O	-4.745896	-0.338103	-0.379291
O11	O	-4.745391	-0.161371	-0.554898
O12	O	-4.388064	-0.156510	-0.200092
C13	C	-3.937501	-0.390807	-0.384793
C14	C	-3.999971	-0.532090	-0.383734
C15	C	-4.272004	-0.737699	-0.388560
C16	C	-4.213314	-0.604947	-0.389540
C17	C	-3.845301	-0.591989	-0.376936
C18	C	-3.903987	-0.724737	-0.375947
C19	C	-3.936859	-0.166917	-0.607255
C20	C	-3.998918	-0.165856	-0.747626
C21	C	-4.201442	-0.171411	-0.816318
C22	C	-4.265587	-0.170314	-0.961398
C23	C	-4.200576	0.061129	-0.380699
C24	C	-4.117346	0.202410	-0.381766
C25	C	-4.201217	-0.162759	-0.158233
C26	C	-4.118396	-0.163813	-0.017862
H27	H	-3.778033	-0.773500	-0.370412
C28	C	-4.547298	-0.772498	-0.289934
C29	C	-4.506515	-0.817779	-0.394937
H30	H	-4.692072	-0.821940	-0.293866
H31	H	-4.534482	-0.684878	-0.291504
H32	H	-4.443016	-0.779990	-0.213218
H33	H	-4.610788	-0.810279	-0.471653
H34	H	-4.519352	-0.905421	-0.393378
H35	H	-3.944901	-0.159066	-0.958821
H36	H	-4.339256	-0.556191	-0.395069
H37	H	-4.439086	-0.175076	-1.020449
C38	C	-3.591940	-0.382743	-0.372873
C39	C	-3.610791	-0.511907	-0.370560
H40	H	-3.447166	-0.333310	-0.368948
H41	H	-3.619629	-0.352042	-0.301649
H42	H	-3.696222	-0.375279	-0.449603
H43	H	-3.506520	-0.519372	-0.293824
H44	H	-3.583077	-0.542617	-0.441789
C45	C	-3.794706	-0.047625	-0.871670
C46	C	-3.828942	-0.158339	-0.813220
H47	H	-3.689774	-0.042991	-0.912168
H48	H	-3.741032	0.026168	-0.808937
H49	H	-3.930094	-0.050981	-0.933561
H50	H	-3.693555	-0.154978	-0.751321
H51	H	-3.882608	-0.232150	-0.875959
C52	C	-4.274977	-0.178562	-0.619701
C53	C	-4.371423	-0.178929	-0.750727
H54	H	-4.379929	-0.183211	-0.579214
H55	H	-4.151363	-0.101664	-0.583976
H56	H	-4.228264	-0.250578	-0.607053
H57	H	-4.418121	-0.106907	-0.763375
H58	H	-4.495077	-0.255836	-0.786462
