data_functionalizedCrystal
_audit_creation_method	'MofGen! by Chris Wilmer'
_symmetry_space_group_name_H-M	'P1'
_symmetry_Int_Tables_number	1
_symmetry_cell_setting	triclinic
loop_
_symmetry_equiv_pos_as_xyz
  x,y,z
_cell_length_a	16.625548
_cell_length_b	18.101395
_cell_length_c	18.101389
_cell_angle_alpha	89.983159
_cell_angle_beta	89.981016
_cell_angle_gamma	90.032172
loop_
_atom_site_label
_atom_site_type_symbol
_atom_site_fract_x
_atom_site_fract_y
_atom_site_fract_z
Zn1	Zn	1.232619	-0.294886	-0.418741
Zn2	Zn	1.232506	-0.418712	-0.294903
Zn3	Zn	1.097785	-0.294891	-0.294914
Zn4	Zn	1.097731	-0.418693	-0.418703
O5	O	1.165160	-0.356795	-0.356815
O6	O	1.345437	-0.311318	-0.402325
O7	O	1.214610	-0.402297	-0.191272
O8	O	1.115741	-0.191257	-0.311360
O9	O	1.345353	-0.402292	-0.311342
O10	O	1.214803	-0.191254	-0.402336
O11	O	1.115631	-0.311326	-0.191280
O12	O	0.984945	-0.311308	-0.311324
O13	O	1.115650	-0.402259	-0.522341
O14	O	0.984906	-0.402264	-0.402271
O15	O	1.214751	-0.311299	-0.522369
O16	O	1.214558	-0.522342	-0.311305
O17	O	1.115540	-0.522328	-0.402261
C18	C	0.955670	-0.356785	-0.356795
C19	C	0.866048	-0.356798	-0.356803
C20	C	0.537873	-0.356803	-0.356835
C21	C	0.629181	-0.356800	-0.356824
C22	C	0.701958	-0.356801	-0.356819
C23	C	0.793272	-0.356797	-0.356809
C24	C	1.165053	-0.549206	-0.356794
C25	C	1.165080	-0.631520	-0.356809
C26	C	1.165257	-0.930611	-0.356849
C27	C	1.103102	-0.899308	-0.414218
C28	C	1.102807	-0.813690	-0.414038
C29	C	1.165169	-0.782229	-0.356830
C30	C	1.142164	-0.813366	-0.278780
C31	C	1.141764	-0.899011	-0.279124
C32	C	1.250553	-0.898957	-0.376843
C33	C	1.250052	-0.813306	-0.378554
C34	C	1.165121	-0.698369	-0.356814
C35	C	1.165303	-1.014470	-0.356859
C36	C	1.375469	-0.356807	-0.356837
C37	C	1.465090	-0.356811	-0.356846
C38	C	1.165207	-0.356777	-0.549977
C39	C	1.165227	-0.356769	-0.632292
C40	C	1.165291	-0.163633	-0.356854
C41	C	1.165346	-0.081319	-0.356870
C42	C	1.165274	-0.356630	-0.931383
C43	C	1.102707	-0.413678	-0.900040
C44	C	1.102876	-0.413942	-0.814422
C45	C	1.165250	-0.356699	-0.783000
C46	C	1.250202	-0.377881	-0.814099
C47	C	1.249853	-0.378256	-0.899744
C48	C	1.143628	-0.278273	-0.899807
C49	C	1.141737	-0.278725	-0.814156
C50	C	1.165242	-0.356736	-0.699141
C51	C	1.165288	-0.356594	-1.015242
C52	C	1.165160	-0.356761	-0.164405
C53	C	1.165297	-0.356560	-0.082091
H54	H	1.117199	-0.792636	-0.471911
F55	F	1.060267	-0.925208	-0.256987
F56	F	1.272729	-0.786705	-0.453633
H57	H	1.185071	-0.919720	-0.234922
F58	F	1.203191	-0.222717	-0.926301
H59	H	1.116856	-0.471404	-0.921566
F60	F	1.312816	-0.326271	-0.926849
F61	F	1.199474	-0.786731	-0.221385
H62	H	1.080474	-0.791979	-0.261540
H63	H	1.271527	-0.920515	-0.432786
H64	H	1.117167	-0.472023	-0.793940
H65	H	1.082758	-0.258973	-0.921397
H66	H	1.298070	-0.337636	-0.793748
H67	H	1.268869	-0.434553	-0.792657
F68	F	1.060019	-0.257848	-0.787596
H69	H	1.298810	-0.791886	-0.339816
F70	F	1.311084	-0.925425	-0.322238
H71	H	1.039881	-0.400687	-0.793394
F72	F	1.196961	-0.220220	-0.786208
H73	H	1.040263	-0.920893	-0.401141
H74	H	1.039583	-0.793265	-0.400795
H75	H	1.039522	-0.400558	-0.920631
F76	F	1.121724	-0.926180	-0.490109
H77	H	1.268204	-0.435536	-0.919727
