data_functionalizedCrystal
_audit_creation_method	'MofGen! by Chris Wilmer'
_symmetry_space_group_name_H-M	'P1'
_symmetry_Int_Tables_number	1
_symmetry_cell_setting	triclinic
loop_
_symmetry_equiv_pos_as_xyz
  x,y,z
_cell_length_a	14.908571
_cell_length_b	16.120484
_cell_length_c	14.908308
_cell_angle_alpha	84.013929
_cell_angle_beta	89.824947
_cell_angle_gamma	89.787312
loop_
_atom_site_label
_atom_site_type_symbol
_atom_site_fract_x
_atom_site_fract_y
_atom_site_fract_z
Zn1	Zn	1.320097	-0.434923	0.609960
Zn2	Zn	1.321040	-0.566744	0.466383
Zn3	Zn	1.179340	-0.418915	0.450134
Zn4	Zn	1.162126	-0.565754	0.607984
O5	O	1.245651	-0.496584	0.533615
O6	O	1.445636	-0.459523	0.598542
O7	O	1.309843	-0.540849	0.338080
O8	O	1.204822	-0.304418	0.465363
O9	O	1.446329	-0.556371	0.493056
O10	O	1.308235	-0.316179	0.582786
O11	O	1.205736	-0.432240	0.326142
O12	O	1.051643	-0.431280	0.463446
O13	O	1.175482	-0.554684	0.734394
O14	O	1.038995	-0.539162	0.579418
O15	O	1.291543	-0.458562	0.735846
O16	O	1.293150	-0.683233	0.491140
O17	O	1.176396	-0.682506	0.595173
C18	C	1.012801	-0.483377	0.519455
C19	C	0.913184	-0.477748	0.513419
C20	C	0.712871	-0.579666	0.622692
C21	C	0.619272	-0.574380	0.617025
C22	C	0.632384	-0.461887	0.496421
C23	C	0.725983	-0.467173	0.502089
C24	C	0.766223	-0.526065	0.565226
C25	C	0.859824	-0.531355	0.570888
C26	C	0.872935	-0.418858	0.450290
C27	C	0.779335	-0.413572	0.444622
C28	C	1.233031	-0.713110	0.544726
C29	C	1.227712	-0.805747	0.549515
C30	C	1.218005	-0.975358	0.558276
C31	C	1.273456	-1.016980	0.508979
C32	C	1.268055	-1.111356	0.513854
C33	C	1.223405	-0.880972	0.553403
C34	C	1.479410	-0.509843	0.547832
C35	C	1.579025	-0.515493	0.553890
C36	C	1.231487	-0.508298	0.768743
C37	C	1.225451	-0.513290	0.868941
C38	C	1.258344	-0.279214	0.522482
C39	C	1.263752	-0.186584	0.517738
C40	C	1.259815	-0.484858	0.299402
C41	C	1.266038	-0.479641	0.199204
C42	C	1.334963	-0.422560	1.058735
C43	C	1.329294	-0.427248	1.152880
C44	C	1.208443	-0.527348	1.151376
C45	C	1.214111	-0.522661	1.057231
C46	C	1.277374	-0.470266	1.010914
C47	C	1.283046	-0.465583	0.916769
C48	C	1.162191	-0.565679	0.915266
C49	C	1.156523	-0.570366	1.009410
H50	H	0.892586	-0.579309	0.622296
C51	C	1.327935	-0.984896	0.357658
C52	C	1.343017	-0.969409	0.447052
H53	H	1.370880	-0.955529	0.319429
H54	H	1.269327	-0.966663	0.340050
H55	H	1.333386	-1.043000	0.352867
H56	H	1.337559	-0.911305	0.451844
H57	H	1.401639	-0.987637	0.464665
C58	C	0.690513	-0.690333	0.741332
C59	C	0.757110	-0.644399	0.692089
H60	H	0.717825	-0.730292	0.784179
H61	H	0.654520	-0.718134	0.701423
H62	H	0.654039	-0.653723	0.771804
H63	H	0.793581	-0.681008	0.661612
H64	H	0.793119	-0.616596	0.732004
H65	H	1.166480	-1.010601	0.604138
H66	H	1.376187	-0.388398	1.191812
H67	H	0.599604	-0.413934	0.445024
H68	H	0.746559	-0.365621	0.393220
H69	H	0.916384	-0.375214	0.403494
C70	C	1.401923	-0.367101	0.927714
C71	C	1.352579	-0.407988	0.865854
H72	H	1.444845	-0.331538	0.896281
H73	H	1.431877	-0.407180	0.968376
H74	H	1.362511	-0.334844	0.960428
H75	H	1.391991	-0.440250	0.833144
H76	H	1.322623	-0.367903	0.825177
H77	H	1.386478	-0.379902	1.021024
C78	C	0.506061	-0.586221	0.732495
C79	C	0.560626	-0.633300	0.680193
H80	H	0.469860	-0.622598	0.771498
H81	H	0.468701	-0.550403	0.694083
H82	H	0.542621	-0.553745	0.767385
H83	H	0.524065	-0.665772	0.645297
H84	H	0.597989	-0.669133	0.718609
C85	C	1.146080	-0.578952	1.295028
C86	C	1.138896	-0.584923	1.202297
H87	H	1.103143	-0.614497	1.326462
H88	H	1.135312	-0.522983	1.306771
H89	H	1.204654	-0.595340	1.314740
H90	H	1.080324	-0.568529	1.182583
H91	H	1.149657	-0.640904	1.190547
C92	C	1.102893	-0.710454	1.042976
C93	C	1.086988	-0.627959	1.060326
H94	H	1.059962	-0.746008	1.074405
H95	H	1.161462	-0.726820	1.062696
H96	H	1.098027	-0.714479	0.980061
H97	H	1.091861	-0.623932	1.123241
H98	H	1.028405	-0.611587	1.040612
H99	H	1.115300	-0.604527	0.876320
