data_functionalizedCrystal
_audit_creation_method	'MofGen! by Chris Wilmer'
_symmetry_space_group_name_H-M	'P1'
_symmetry_Int_Tables_number	1
_symmetry_cell_setting	triclinic
loop_
_symmetry_equiv_pos_as_xyz
  x,y,z
_cell_length_a	10.686285
_cell_length_b	11.169417
_cell_length_c	11.169409
_cell_angle_alpha	89.979747
_cell_angle_beta	85.599661
_cell_angle_gamma	85.633103
loop_
_atom_site_label
_atom_site_type_symbol
_atom_site_fract_x
_atom_site_fract_y
_atom_site_fract_z
Zn1	Zn	-0.502208	1.871640	-0.641950
Zn2	Zn	-0.713260	1.886937	-0.425893
Zn3	Zn	-0.502286	1.670929	-0.441279
Zn4	Zn	-0.713159	1.686336	-0.626546
O5	O	-0.607728	1.778961	-0.533917
O6	O	-0.530214	2.041620	-0.613296
O7	O	-0.685349	1.858237	-0.259978
O8	O	-0.325698	1.684704	-0.480785
O9	O	-0.685273	2.052858	-0.454560
O10	O	-0.325641	1.832166	-0.628216
O11	O	-0.530347	1.699537	-0.271283
O12	O	-0.530249	1.505023	-0.465848
O13	O	-0.685101	1.710964	-0.796545
O14	O	-0.685176	1.516342	-0.601963
O15	O	-0.530116	1.847105	-0.807862
O16	O	-0.889823	1.873177	-0.439624
O17	O	-0.889749	1.725796	-0.587043
C18	C	-0.607711	1.467135	-0.533904
C19	C	-0.607734	1.333737	-0.533925
C20	C	-0.935571	1.802851	-0.510018
C21	C	-1.075823	1.813181	-0.499834
C22	C	-0.278605	1.755010	-0.557935
C23	C	-0.138353	1.744804	-0.568170
C24	C	-0.607588	1.779047	-0.846970
C25	C	-0.607529	1.779083	-0.980374
C26	C	-0.607746	2.092004	-0.533930
C27	C	-0.607754	2.225405	-0.533936
C28	C	-0.607776	1.778938	-0.222089
C29	C	-0.607480	1.779107	-0.088711
H30	H	-1.084591	1.678361	-0.634468
C31	C	-1.148458	1.902940	-0.410253
N32	N	-1.203168	1.970546	-0.342782
