data_functionalizedCrystal
_audit_creation_method	'MofGen! by Chris Wilmer'
_symmetry_space_group_name_H-M	'P1'
_symmetry_Int_Tables_number	1
_symmetry_cell_setting	triclinic
loop_
_symmetry_equiv_pos_as_xyz
  x,y,z
_cell_length_a	16.120530
_cell_length_b	21.295417
_cell_length_c	16.120297
_cell_angle_alpha	92.867002
_cell_angle_beta	90.128140
_cell_angle_gamma	87.125778
loop_
_atom_site_label
_atom_site_type_symbol
_atom_site_fract_x
_atom_site_fract_y
_atom_site_fract_z
Zn1	Zn	1.247391	-0.318915	-0.534523
Zn2	Zn	1.254326	-0.419125	-0.395453
Zn3	Zn	1.115383	-0.308278	-0.388443
Zn4	Zn	1.108282	-0.418545	-0.527422
O5	O	1.181345	-0.366216	-0.461460
O6	O	1.364676	-0.336903	-0.521981
O7	O	1.241769	-0.400212	-0.278158
O8	O	1.132963	-0.221604	-0.407859
O9	O	1.369771	-0.410526	-0.419806
O10	O	1.229949	-0.229419	-0.515184
O11	O	1.139688	-0.318773	-0.273008
O12	O	0.998075	-0.318211	-0.400973
O13	O	1.120862	-0.409538	-0.644729
O14	O	0.992859	-0.399224	-0.503081
O15	O	1.223064	-0.336340	-0.649946
O16	O	1.234884	-0.507133	-0.412921
O17	O	1.127586	-0.506707	-0.509878
C18	C	0.965295	-0.357501	-0.450496
C19	C	0.872866	-0.353788	-0.445825
C20	C	0.703638	-0.346996	-0.437305
C21	C	0.659891	-0.385485	-0.485677
C22	C	0.565726	-0.381705	-0.480936
C23	C	0.797811	-0.350774	-0.442045
C24	C	1.181239	-0.529761	-0.461409
C25	C	1.181268	-0.599731	-0.461418
C26	C	1.237182	-0.632802	-0.410990
C27	C	1.237220	-0.698547	-0.411010
C28	C	1.181329	-0.731217	-0.461450
C29	C	1.125411	-0.698138	-0.511889
C30	C	1.125380	-0.632395	-0.511873
N31	N	1.108264	-0.831783	-0.464098
N32	N	1.108296	-0.894236	-0.464108
C33	C	1.181420	-0.929297	-0.461503
N34	N	1.254514	-0.899546	-0.458870
N35	N	1.254481	-0.837087	-0.458855
C36	C	1.181357	-0.802504	-0.461473
C37	C	1.237380	-1.033657	-0.411094
C38	C	1.237419	-1.099403	-0.411120
C39	C	1.125603	-1.098992	-0.511994
C40	C	1.125571	-1.033248	-0.511973
C41	C	1.181459	-1.000584	-0.461518
C42	C	1.398240	-0.374966	-0.472468
C43	C	1.490667	-0.378694	-0.477159
C44	C	1.170397	-0.374061	-0.678353
C45	C	1.165731	-0.377404	-0.770780
C46	C	1.181474	-0.202033	-0.461531
C47	C	1.181529	-0.132068	-0.461562
C48	C	1.157183	-0.383493	-0.940004
C49	C	1.205672	-0.348757	-0.983777
C50	C	1.200915	-0.352144	-1.077938
C51	C	1.161938	-0.380106	-0.845834
C52	C	1.192299	-0.358358	-0.245413
C53	C	1.197126	-0.354844	-0.152995
H54	H	1.282691	-0.606210	-0.369908
H55	H	0.693157	-0.421274	-0.530651
H56	H	1.079847	-0.605468	-0.552939
O57	O	1.291774	-1.131635	-0.362282
C58	C	1.341499	-1.233106	-0.317736
C59	C	1.279867	-1.196679	-0.373051
H60	H	1.331882	-1.285700	-0.326411
H61	H	1.407773	-1.223367	-0.335882
H62	H	1.330429	-1.217210	-0.249911
H63	H	1.290861	-1.212554	-0.440892
H64	H	1.213615	-1.206420	-0.354835
O65	O	1.291565	-0.730582	-0.361941
C66	C	1.402486	-0.724058	-0.261909
C67	C	1.340975	-0.687702	-0.317426
H68	H	1.442462	-0.689407	-0.225917
H69	H	1.366588	-0.751749	-0.216421
H70	H	1.443987	-0.757946	-0.302342
H71	H	1.299459	-0.653783	-0.277060
H72	H	1.376925	-0.660054	-0.362919
O73	O	1.103475	-0.421996	-0.979788
C74	C	1.049659	-0.460471	-1.111283
C75	C	1.110529	-0.416850	-1.066321
H76	H	1.055329	-0.456315	-1.181251
H77	H	1.065068	-0.511232	-1.095060
H78	H	0.983467	-0.446123	-1.090811
H79	H	1.176742	-0.431141	-1.086768
H80	H	1.095049	-0.366099	-1.082545
O81	O	0.663829	-0.304357	-0.383672
C82	C	0.532303	-0.261633	-0.330052
C83	C	0.577294	-0.309957	-0.390814
H84	H	0.462332	-0.266134	-0.335817
H85	H	0.552617	-0.270851	-0.263790
H86	H	0.548660	-0.212101	-0.345607
H87	H	0.560959	-0.359507	-0.375335
H88	H	0.556977	-0.300684	-0.457058
O89	O	1.071231	-0.729946	-0.560932
C90	C	1.054324	-0.807721	-0.672669
C91	C	1.115771	-0.771755	-0.617166
H92	H	1.090310	-0.841522	-0.718159
H93	H	1.012826	-0.835454	-0.632305
H94	H	1.014336	-0.772774	-0.708672
H95	H	1.155814	-0.806658	-0.581154
H96	H	1.157211	-0.744012	-0.657575
O97	O	1.291749	-1.002022	-0.362066
C98	C	1.402619	-1.009364	-0.261974
C99	C	1.341106	-1.045267	-0.317474
H100	H	1.442528	-1.044310	-0.225894
H101	H	1.444182	-0.981687	-0.302342
H102	H	1.366638	-0.975503	-0.216553
H103	H	1.377020	-1.079159	-0.362903
H104	H	1.299543	-1.072901	-0.277053
O105	O	1.071344	-1.130815	-0.560919
C106	C	1.021878	-1.231918	-0.605698
C107	C	1.083355	-1.195951	-0.550230
H108	H	1.031580	-1.284587	-0.597089
H109	H	0.955552	-1.215860	-0.587637
H110	H	1.033030	-1.221928	-0.673485
H111	H	1.072279	-1.205924	-0.482427
H112	H	1.149660	-1.212014	-0.568362
H113	H	1.080037	-1.006319	-0.553033
O114	O	1.259430	-0.310288	-0.943994
C115	C	1.313168	-0.271738	-0.812502
C116	C	1.252274	-0.315344	-0.857454
H117	H	1.307390	-0.275801	-0.742526
H118	H	1.379394	-0.286088	-0.832860
H119	H	1.297757	-0.221005	-0.828847
H120	H	1.267608	-0.366090	-0.841131
H121	H	1.186064	-0.300941	-0.837093
