data_functionalizedCrystal
_audit_creation_method	'MofGen! by Chris Wilmer'
_symmetry_space_group_name_H-M	'P1'
_symmetry_Int_Tables_number	1
_symmetry_cell_setting	triclinic
loop_
_symmetry_equiv_pos_as_xyz
  x,y,z
_cell_length_a	14.971482
_cell_length_b	12.811415
_cell_length_c	13.448316
_cell_angle_alpha	95.437451
_cell_angle_beta	90.006202
_cell_angle_gamma	83.829015
loop_
_atom_site_label
_atom_site_type_symbol
_atom_site_fract_x
_atom_site_fract_y
_atom_site_fract_z
O1	O	1.187335	0.136766	0.095010
O2	O	1.687335	0.636766	0.595010
O3	O	0.926980	0.153150	0.096492
O4	O	1.426980	0.653150	0.596492
O5	O	1.063707	-0.007827	0.081969
O6	O	1.563707	0.492173	0.581969
O7	O	1.050608	0.297743	0.109533
O8	O	1.550608	0.797743	0.609533
O9	O	1.063689	-0.007837	-0.083416
O10	O	1.563689	0.492163	0.416584
O11	O	0.926963	0.153140	-0.068893
O12	O	1.426963	0.653140	0.431107
O13	O	1.187317	0.136756	-0.070375
O14	O	1.687317	0.636756	0.429625
Cu15	Cu	1.057139	0.144947	-0.084734
Cu16	Cu	1.557139	0.644947	0.415266
Cu17	Cu	1.057159	0.144959	0.110852
Cu18	Cu	1.557159	0.644959	0.610852
O19	O	1.050591	0.297733	-0.055851
O20	O	1.550591	0.797733	0.444149
C21	C	0.893645	0.152413	0.013734
C22	C	1.393645	0.652413	0.513734
C23	C	0.794341	0.150219	0.013538
C24	C	1.294341	0.650219	0.513538
C25	C	0.747684	0.149181	-0.076707
C26	C	1.247684	0.649181	0.423293
C27	C	0.654380	0.147103	-0.076896
C28	C	1.154380	0.647103	0.423104
C29	C	0.607733	0.146071	0.013163
C30	C	1.107733	0.646071	0.513163
C31	C	0.654397	0.147106	0.103415
C32	C	1.154397	0.647106	0.603415
C33	C	0.747701	0.149177	0.103602
C34	C	1.247701	0.649177	0.603602
C35	C	0.459923	0.142794	0.103020
C36	C	0.959923	0.642794	0.603020
C37	C	0.366613	0.140725	0.102833
C38	C	0.866613	0.640725	0.602833
C39	C	0.366602	0.140719	-0.077478
C40	C	0.866602	0.640719	0.422522
C41	C	0.459906	0.142790	-0.077291
C42	C	0.959906	0.642790	0.422709
C43	C	0.506563	0.143827	0.012962
C44	C	1.006563	0.643827	0.512962
C45	C	1.062964	-0.046937	-0.004249
C46	C	1.562964	0.453063	0.495751
C47	C	1.060765	-0.163459	-0.014753
C48	C	1.560765	0.336541	0.485247
C49	C	1.056635	-0.382392	0.145831
C50	C	1.556635	0.117608	0.645831
C51	C	1.054569	-0.491875	0.135966
C52	C	1.554569	0.008125	0.635966
C53	C	1.054560	-0.491906	-0.044348
C54	C	1.554560	0.008094	0.455652
C55	C	1.056626	-0.382424	-0.034483
C56	C	1.556626	0.117576	0.465517
C57	C	1.057665	-0.327671	0.060610
C58	C	1.557665	0.172329	0.560610
C59	C	1.059738	-0.218188	0.070474
C60	C	1.559738	0.281812	0.570474
C61	C	1.059722	-0.218221	-0.109838
C62	C	1.559722	0.281779	0.390162
C63	C	1.057656	-0.327703	-0.119704
C64	C	1.557656	0.172297	0.380296
C65	C	1.220653	0.137493	0.012385
C66	C	1.720653	0.637493	0.512385
C67	C	1.319956	0.139686	0.012588
C68	C	1.819956	0.639686	0.512588
C69	C	1.051334	0.336843	0.030369
C70	C	1.551334	0.836843	0.530369
C71	C	1.053533	0.453365	0.040880
C72	C	1.553533	0.953365	0.540880
N73	N	1.057131	0.144938	-0.222300
N74	N	1.557131	0.644938	0.277700
C75	C	1.117692	0.073687	-0.280768
C76	C	1.617692	0.573687	0.219232
C77	C	1.117698	0.073686	-0.384871
C78	C	1.617698	0.573686	0.115129
C79	C	1.057145	0.144942	-0.430504
C80	C	1.557145	0.644942	0.069496
C81	C	0.996578	0.216197	-0.372028
C82	C	1.496578	0.716197	0.127972
C83	C	0.996568	0.216192	-0.267927
C84	C	1.496568	0.716192	0.232073
C85	C	0.996602	0.216204	-0.589007
C86	C	1.496602	0.716204	-0.089007
C87	C	0.996612	0.216211	-0.693115
C88	C	1.496612	0.716211	-0.193115
C89	C	1.117732	0.073698	-0.705952
C90	C	1.617732	0.573698	-0.205952
C91	C	1.117722	0.073693	-0.601851
C92	C	1.617722	0.573693	-0.101851
C93	C	1.057155	0.144949	-0.543382
C94	C	1.557155	0.644949	-0.043382
N95	N	1.057174	0.144959	0.248416
N96	N	1.557174	0.644959	0.748416
H97	H	0.497882	0.143637	-0.150624
H98	H	0.997882	0.643637	0.349376
F99	F	1.060847	-0.159918	0.171678
F100	F	1.560847	0.340082	0.671678
H101	H	1.057489	-0.337813	0.223259
H102	H	1.557489	0.162187	0.723259
F103	F	1.182192	-0.002136	-0.768183
F104	F	1.682192	0.497864	-0.268183
H105	H	1.167011	0.015667	-0.432477
H106	H	1.667011	0.515667	0.067523
F107	F	0.316970	0.139625	0.198684
F108	F	0.816970	0.639625	0.698684
F109	F	1.053471	-0.550109	0.226670
F110	F	1.553471	-0.050109	0.726670
F111	F	1.060825	-0.159976	-0.200543
F112	F	1.560825	0.340024	0.299457
F113	F	0.932128	0.292030	-0.420594
F114	F	1.432128	0.792030	0.079406
H115	H	0.328610	0.139875	-0.150965
H116	H	0.828610	0.639875	0.349035
H117	H	1.053707	-0.536504	-0.121767
H118	H	1.553707	-0.036504	0.378233
H119	H	0.785687	0.150025	0.177089
H120	H	1.285687	0.650025	0.677089
H121	H	1.167033	0.015676	-0.564697
H122	H	1.667033	0.515676	-0.064697
H123	H	1.056806	-0.372297	-0.197125
H124	H	1.556806	0.127703	0.302875
H125	H	1.167004	0.015666	-0.243622
H126	H	1.667004	0.515666	0.256378
F127	F	0.932163	0.292050	-0.741673
F128	F	1.432163	0.792050	-0.241673
F129	F	0.604727	0.146012	-0.172946
F130	F	1.104727	0.646012	0.327054
F131	F	0.932136	0.292041	-0.526784
F132	F	1.432136	0.792041	-0.026784
H133	H	0.785656	0.150030	-0.150043
H134	H	1.285656	0.650030	0.349957
F135	F	0.509578	0.143894	0.199077
F136	F	1.009578	0.643894	0.699077
H137	H	0.616411	0.146259	0.176742
H138	H	1.116411	0.646259	0.676742
F139	F	0.932108	0.292025	-0.205701
F140	F	1.432108	0.792025	0.294299
