data_functionalizedCrystal
_audit_creation_method	'MofGen! by Chris Wilmer'
_symmetry_space_group_name_H-M	'P1'
_symmetry_Int_Tables_number	1
_symmetry_cell_setting	triclinic
loop_
_symmetry_equiv_pos_as_xyz
  x,y,z
_cell_length_a	10.654549
_cell_length_b	15.995292
_cell_length_c	9.730223
_cell_angle_alpha	89.998793
_cell_angle_beta	89.997731
_cell_angle_gamma	83.976697
loop_
_atom_site_label
_atom_site_type_symbol
_atom_site_fract_x
_atom_site_fract_y
_atom_site_fract_z
O1	O	1.666266	0.117604	-0.114248
O2	O	2.166266	0.617604	0.385752
O3	O	1.300638	0.128809	-0.114256
O4	O	1.800638	0.628809	0.385744
O5	O	1.493485	0.001374	-0.114254
O6	O	1.993485	0.501374	0.385746
O7	O	1.473419	0.245039	-0.114250
O8	O	1.973419	0.745039	0.385750
O9	O	1.493472	0.001370	0.114326
O10	O	1.993472	0.501370	0.614326
O11	O	1.300625	0.128805	0.114324
O12	O	1.800625	0.628805	0.614324
O13	O	1.666254	0.117600	0.114332
O14	O	2.166254	0.617600	0.614332
Zn15	Zn	1.483438	0.123202	0.150620
Zn16	Zn	1.983438	0.623202	0.650620
Zn17	Zn	1.483454	0.123207	-0.150544
Zn18	Zn	1.983454	0.623207	0.349456
O19	O	1.473407	0.245036	0.114330
O20	O	1.973407	0.745036	0.614330
C21	C	1.253845	0.127984	0.000033
C22	C	1.753845	0.627984	0.500033
C23	C	1.114434	0.125523	0.000029
C24	C	1.614434	0.625523	0.500029
C25	C	1.492662	-0.029828	0.000033
C26	C	1.992662	0.470172	0.500033
C27	C	1.490214	-0.122796	0.000022
C28	C	1.990214	0.377204	0.500022
C29	C	0.902947	0.198236	0.000035
C30	C	1.402947	0.698236	0.500035
C31	C	1.033936	0.200555	0.000027
C32	C	1.533936	0.700555	0.500027
C33	C	1.063937	0.048167	0.000025
C34	C	1.563937	0.548167	0.500025
C35	C	0.932949	0.045849	0.000023
C36	C	1.432949	0.545849	0.500023
C37	C	1.481213	-0.460586	0.000035
C38	C	1.981213	0.039414	0.500035
C39	C	1.620404	-0.436466	0.000549
C40	C	2.120404	0.063534	0.500549
C41	C	1.623050	-0.339775	0.000029
C42	C	2.123050	0.160225	0.500029
C43	C	1.485679	-0.293004	0.000029
C44	C	1.985679	0.206996	0.500029
C45	C	1.416097	-0.322507	-0.130498
C46	C	1.916097	0.177493	0.369502
C47	C	1.414421	-0.419308	-0.130603
C48	C	1.914421	0.080692	0.369397
C49	C	1.411565	-0.419185	0.129335
C50	C	1.911565	0.080815	0.629335
C51	C	1.416723	-0.322663	0.131056
C52	C	1.916723	0.177337	0.631056
C53	C	1.488196	-0.198294	0.000022
C54	C	1.988196	0.301706	0.500022
C55	C	1.478692	-0.555297	0.000033
C56	C	1.978692	-0.055297	0.500033
C57	C	1.713047	0.118425	0.000041
C58	C	2.213047	0.618425	0.500041
C59	C	1.852457	0.120886	0.000035
C60	C	2.352457	0.620886	0.500035
C61	C	1.474230	0.276238	0.000040
C62	C	1.974230	0.776238	0.500040
C63	C	1.476678	0.369205	0.000042
C64	C	1.976678	0.869205	0.500042
N65	N	1.483436	0.123199	0.356156
N66	N	1.983436	0.623199	0.856156
N67	N	1.483466	0.123204	-0.356080
N68	N	1.983466	0.623204	0.143920
C69	C	1.568857	0.066794	0.428083
C70	C	2.068857	0.566794	0.928083
C71	C	1.568870	0.066795	0.571966
C72	C	2.068870	0.566795	1.071966
C73	C	1.398035	0.179611	0.571983
C74	C	1.898035	0.679611	1.071983
C75	C	1.398018	0.179606	0.428102
C76	C	1.898018	0.679606	0.928102
H77	H	1.075038	0.263541	0.000026
H78	H	1.575038	0.763541	0.500026
H79	H	1.316455	-0.290276	0.138939
H80	H	1.816455	0.209724	0.638939
O81	O	0.878482	-0.037583	0.000021
O82	O	1.378482	0.462417	0.500021
H83	H	0.819506	-0.042279	0.093179
H84	H	1.319506	0.457721	0.593179
O85	O	1.661022	0.005967	0.649539
O86	O	2.161022	0.505967	1.149539
H87	H	1.645067	-0.059411	0.621923
H88	H	2.145067	0.440589	1.121923
O89	O	1.305922	0.240459	0.649579
O90	O	1.805922	0.740459	1.149579
H91	H	1.320294	0.230995	0.761713
H92	H	1.820294	0.730995	1.261713
H93	H	1.677545	-0.320435	0.093594
H94	H	2.177545	0.179565	0.593594
H95	H	1.674050	-0.464153	0.094156
H96	H	2.174050	0.035847	0.594156
O97	O	1.305885	0.240447	0.350507
O98	O	1.805885	0.740447	0.850507
H99	H	1.246505	0.279681	0.424705
H100	H	1.746505	0.779681	0.924705
H101	H	0.837413	0.259336	0.000045
H102	H	1.337413	0.759336	0.500045
O103	O	1.660951	0.005932	0.350489
O104	O	2.160951	0.505932	0.850489
H105	H	1.646589	0.015401	0.238355
H106	H	2.146589	0.515401	0.738355
H107	H	1.129489	-0.012925	0.000018
H108	H	1.629489	0.487075	0.500018
H109	H	1.673762	-0.465172	-0.092531
H110	H	2.173762	0.034828	0.407469
H111	H	1.677877	-0.321051	-0.093700
H112	H	2.177877	0.178949	0.406300
H113	H	1.462621	-0.445843	-0.228175
H114	H	1.962621	0.054157	0.271825
H115	H	1.312365	-0.434450	-0.136516
H116	H	1.812365	0.065550	0.363484
O117	O	1.282194	-0.281078	-0.136951
O118	O	1.782194	0.218922	0.363049
H119	H	1.283147	-0.211812	-0.141536
H120	H	1.783147	0.288188	0.358464
O121	O	1.480422	-0.295875	-0.259178
O122	O	1.980422	0.204125	0.240822
H123	H	1.561897	-0.261596	-0.230498
H124	H	2.061897	0.238404	0.269502
O125	O	1.469314	-0.456269	0.260395
O126	O	1.969314	0.043731	0.760395
H127	H	1.548311	-0.504628	0.234831
H128	H	2.048311	-0.004628	0.734831
H129	H	1.467389	-0.303805	0.227619
H130	H	1.967389	0.196195	0.727619
O131	O	1.275855	-0.438512	0.130529
O132	O	1.775855	0.061488	0.630529
H133	H	1.258036	-0.477411	0.039531
H134	H	1.758036	0.022589	0.539531
