data_functionalizedCrystal
_audit_creation_method	'MofGen! by Chris Wilmer'
_symmetry_space_group_name_H-M	'P1'
_symmetry_Int_Tables_number	1
_symmetry_cell_setting	triclinic
loop_
_symmetry_equiv_pos_as_xyz
  x,y,z
_cell_length_a	16.120530
_cell_length_b	16.120484
_cell_length_c	16.120256
_cell_angle_alpha	84.383827
_cell_angle_beta	89.871735
_cell_angle_gamma	90.167327
loop_
_atom_site_label
_atom_site_type_symbol
_atom_site_fract_x
_atom_site_fract_y
_atom_site_fract_z
Zn1	Zn	1.224986	-0.422281	0.554816
Zn2	Zn	1.724986	0.077719	1.054816
Zn3	Zn	1.224882	-0.554961	0.422121
Zn4	Zn	1.724882	-0.054961	0.922121
Zn5	Zn	1.093725	-0.408193	0.408058
Zn6	Zn	1.593725	0.091807	0.908058
Zn7	Zn	1.078879	-0.554198	0.554054
Zn8	Zn	1.578879	-0.054198	1.054054
O9	O	1.155618	-0.484908	0.484762
O10	O	1.655618	0.015092	0.984762
O11	O	1.341008	-0.446097	0.543418
O12	O	1.841008	0.053903	1.043418
O13	O	1.213653	-0.529915	0.303622
O14	O	1.713653	-0.029915	0.803622
O15	O	1.117394	-0.293431	0.421960
O16	O	1.617394	0.206569	0.921960
O17	O	1.340931	-0.543577	0.445927
O18	O	1.840931	-0.043577	0.945927
O19	O	1.213831	-0.303782	0.529783
O20	O	1.713831	0.196218	1.029783
O21	O	1.117293	-0.422085	0.293290
O22	O	1.617293	0.077915	0.793290
O23	O	0.975720	-0.421345	0.421221
O24	O	1.475720	0.078655	0.921221
O25	O	1.092090	-0.542275	0.670788
O26	O	1.592090	-0.042275	1.170788
O27	O	0.964812	-0.528614	0.528483
O28	O	1.464812	-0.028614	1.028483
O29	O	1.199435	-0.445357	0.671349
O30	O	1.699435	0.054643	1.171349
O31	O	1.199257	-0.671491	0.445188
O32	O	1.699257	-0.171491	0.945188
O33	O	1.091989	-0.670930	0.542119
O34	O	1.591989	-0.170930	1.042119
C35	C	0.940179	-0.473368	0.473243
C36	C	1.440179	0.026632	0.973243
C37	C	0.848012	-0.468453	0.468336
C38	C	1.348012	0.031547	0.968336
C39	C	1.144022	-0.701453	0.495116
C40	C	1.644022	-0.201453	0.995116
C41	C	1.139136	-0.794098	0.499577
C42	C	1.639136	-0.294098	0.999577
C43	C	1.130219	-0.963721	0.507739
C44	C	1.630219	-0.463721	1.007739
C45	C	1.181165	-1.005263	0.461807
C46	C	1.681165	-0.505263	0.961807
C47	C	1.176203	-1.099648	0.466348
C48	C	1.676203	-0.599648	0.966348
C49	C	1.135179	-0.869328	0.503199
C50	C	1.635179	-0.369328	1.003199
C51	C	0.679260	-0.459459	0.459384
C52	C	1.179260	0.040541	0.959384
C53	C	0.632809	-0.510422	0.510204
C54	C	1.132809	-0.010422	1.010204
C55	C	0.538910	-0.505418	0.505223
C56	C	1.038910	-0.005418	1.005223
C57	C	0.773168	-0.464462	0.464364
C58	C	1.273168	0.035538	0.964364
C59	C	1.371898	-0.496494	0.496326
C60	C	1.871898	0.003506	0.996326
C61	C	1.464063	-0.501431	0.501254
C62	C	1.964063	-0.001431	1.001254
C63	C	1.144118	-0.495303	0.702156
C64	C	1.644118	0.004697	1.202156
C65	C	1.139217	-0.499732	0.794796
C66	C	1.639217	0.000268	1.294796
C67	C	1.167280	-0.267520	0.474388
C68	C	1.667280	0.232480	0.974388
C69	C	1.172250	-0.174881	0.469967
C70	C	1.672250	0.325119	0.969967
C71	C	1.167124	-0.474497	0.268214
C72	C	1.667124	0.025503	0.768214
C73	C	1.172198	-0.469841	0.175572
C74	C	1.672198	0.030159	0.675572
C75	C	1.181174	-0.461788	1.005960
C76	C	1.681174	0.038212	1.505960
C77	C	1.130244	-0.507783	0.964402
C78	C	1.630244	-0.007783	1.464402
C79	C	1.135238	-0.503302	0.870024
C80	C	1.635238	-0.003302	1.370024
C81	C	1.176181	-0.466268	1.100346
C82	C	1.676181	0.033732	1.600346
H83	H	1.082879	-0.999038	0.550470
H84	H	1.582879	-0.499038	1.050470
C85	C	1.244191	-0.404744	0.958782
C86	C	1.744191	0.095256	1.458782
C87	C	1.202708	-0.346495	0.903705
C88	C	1.702708	0.153505	1.403705
C89	C	1.260735	-0.293945	0.860212
C90	C	1.760735	0.206055	1.360212
H91	H	1.275524	-0.376391	0.997166
H92	H	1.775524	0.123609	1.497166
H93	H	1.280355	-0.436966	0.928240
H94	H	1.780355	0.063034	1.428240
H95	H	1.166559	-0.314277	0.934245
H96	H	1.666559	0.185723	1.434245
H97	H	1.171380	-0.374824	0.865305
H98	H	1.671380	0.125176	1.365305
H99	H	1.296898	-0.326167	0.829671
H100	H	1.796898	0.173833	1.329671
H101	H	1.292064	-0.265599	0.898603
H102	H	1.792064	0.234401	1.398603
H103	H	1.232597	-0.254423	0.822833
H104	H	1.732597	0.245577	1.322833
H105	H	1.228507	-0.969944	0.419071
H106	H	1.728507	-0.469944	0.919071
C107	C	1.066981	-0.564673	1.011414
C108	C	1.566981	-0.064673	1.511414
C109	C	0.987000	-0.541148	0.985069
C110	C	1.487000	-0.041148	1.485069
C111	C	0.928708	-0.593529	1.028372
C112	C	1.428708	-0.093529	1.528372
H113	H	1.076743	-0.620685	1.000565
H114	H	1.576743	-0.120685	1.500565
H115	H	1.071923	-0.560137	1.069515
H116	H	1.571923	-0.060137	1.569515
H117	H	0.982061	-0.545691	0.926982
H118	H	1.482061	-0.045691	1.426982
H119	H	0.977212	-0.485144	0.995920
H120	H	1.477212	0.014856	1.495920
H121	H	0.933650	-0.588993	1.086473
H122	H	1.433650	-0.088993	1.586473
H123	H	0.938478	-0.649539	1.017520
H124	H	1.438478	-0.149539	1.517520
H125	H	0.874435	-0.577570	1.010509
H126	H	1.374435	-0.077570	1.510509
H127	H	0.663562	-0.557811	0.557456
H128	H	1.163562	-0.057811	1.057456
C129	C	0.638107	-0.396360	0.396408
C130	C	1.138107	0.103640	0.896408
C131	C	0.551804	-0.403905	0.403909
C132	C	1.051804	0.096095	0.903909
C133	C	0.513856	-0.345803	0.345902
C134	C	1.013856	0.154197	0.845902
H135	H	0.654503	-0.341661	0.406691
H136	H	1.154503	0.158339	0.906691
H137	H	0.654502	-0.406539	0.341682
H138	H	1.154502	0.093461	0.841682
H139	H	0.535416	-0.393720	0.458623
H140	H	1.035416	0.106280	0.958623
H141	H	0.535385	-0.458591	0.393619
H142	H	1.035385	0.041409	0.893619
H143	H	0.530251	-0.355982	0.291176
H144	H	1.030251	0.144018	0.791176
H145	H	0.530258	-0.291108	0.356190
H146	H	1.030258	0.208892	0.856190
H147	H	0.455296	-0.350920	0.350979
H148	H	0.955296	0.149080	0.850979
