data_functionalizedCrystal
_audit_creation_method	'MofGen! by Chris Wilmer'
_symmetry_space_group_name_H-M	'P1'
_symmetry_Int_Tables_number	1
_symmetry_cell_setting	triclinic
loop_
_symmetry_equiv_pos_as_xyz
  x,y,z
_cell_length_a	6.817900
_cell_length_b	9.582889
_cell_length_c	16.418042
_cell_angle_alpha	93.121935
_cell_angle_beta	103.389568
_cell_angle_gamma	111.207298
loop_
_atom_site_label
_atom_site_type_symbol
_atom_site_fract_x
_atom_site_fract_y
_atom_site_fract_z
V1	V	-4.065737	-0.208271	-0.260999
O2	O	-4.011405	0.008757	-0.256189
O3	O	-4.056518	-0.411763	-0.259063
O4	O	-4.016299	-0.205617	-0.374900
O5	O	-4.051903	-0.198817	-0.139550
V6	V	-4.544422	-0.182247	-0.246492
O7	O	-4.337607	-0.265357	-0.292824
O8	O	-4.722749	-0.125162	-0.214667
O9	O	-4.330434	0.021245	-0.248428
O10	O	-4.716150	-0.399275	-0.251302
O11	O	-4.675653	-0.191702	-0.367941
O12	O	-4.370653	-0.184902	-0.132591
C13	C	-3.911085	-0.461353	-0.254906
C14	C	-3.984827	-0.627714	-0.254082
C15	C	-3.859780	-0.198391	-0.402666
C16	C	-3.900902	-0.197567	-0.495779
C17	C	-4.178996	-0.203134	-0.714261
C18	C	-4.217613	-0.202347	-0.801749
C19	C	-3.850517	-0.187377	-0.793218
C20	C	-3.811898	-0.188153	-0.705730
C21	C	-3.976148	-0.196040	-0.666255
C22	C	-4.053384	-0.194476	-0.841231
C23	C	-4.095253	-0.193623	-0.936089
C24	C	-3.934276	-0.196890	-0.571390
C25	C	-4.139211	0.070826	-0.252583
C26	C	-4.044707	0.237186	-0.253412
C27	C	-4.190516	-0.192133	-0.104820
C28	C	-4.128631	-0.192949	-0.011706
H29	H	-4.312741	-0.209553	-0.682123
H30	H	-4.382788	-0.208122	-0.840832
H31	H	-3.716798	-0.180960	-0.825369
H32	H	-3.646702	-0.182364	-0.666641
