data_functionalizedCrystal
_audit_creation_method	'MofGen! by Chris Wilmer'
_symmetry_space_group_name_H-M	'P1'
_symmetry_Int_Tables_number	1
_symmetry_cell_setting	triclinic
loop_
_symmetry_equiv_pos_as_xyz
  x,y,z
_cell_length_a	14.519709
_cell_length_b	17.019234
_cell_length_c	13.596369
_cell_angle_alpha	86.112711
_cell_angle_beta	90.000291
_cell_angle_gamma	83.533184
loop_
_atom_site_label
_atom_site_type_symbol
_atom_site_fract_x
_atom_site_fract_y
_atom_site_fract_z
O1	O	1.223524	0.103408	-0.090425
O2	O	0.955007	0.115586	-0.091487
O3	O	1.096766	-0.005327	-0.081220
O4	O	1.081766	0.224321	-0.100693
O5	O	1.096752	-0.005333	0.082364
O6	O	0.954993	0.115580	0.072096
O7	O	1.223510	0.103402	0.073158
Zn8	Zn	1.089249	0.109490	0.098600
Zn9	Zn	1.089268	0.109498	-0.116929
O10	O	1.081752	0.224315	0.062891
C11	C	0.920642	0.115015	-0.009651
C12	C	0.818267	0.113315	-0.009518
C13	C	0.443392	0.107054	-0.008943
C14	C	0.547694	0.108792	-0.009103
C15	C	0.630826	0.110184	-0.009231
C16	C	0.735135	0.111923	-0.009390
C17	C	1.096193	-0.034720	0.003062
C18	C	1.094496	-0.122295	0.010480
C19	C	1.084815	-0.617589	0.056870
C20	C	1.086418	-0.535304	0.049904
C21	C	1.087235	-0.494151	-0.042751
C22	C	1.086438	-0.535285	-0.128445
C23	C	1.084828	-0.617567	-0.121478
C24	C	1.092090	-0.245711	-0.068247
C25	C	1.093703	-0.163423	-0.075207
C26	C	1.093681	-0.163448	0.103142
C27	C	1.092076	-0.245733	0.110101
C28	C	1.091275	-0.286859	0.024407
C29	C	1.088876	-0.410043	-0.049873
C30	C	1.089627	-0.370964	0.031530
C31	C	1.257875	0.103973	-0.008680
C32	C	1.360251	0.105673	-0.008819
C33	C	1.082324	0.253709	-0.021393
C34	C	1.084021	0.341283	-0.028818
N35	N	1.089244	0.109484	0.245692
N36	N	1.089281	0.109498	-0.264020
C37	C	1.089267	0.109499	0.646982
C38	C	1.089258	0.109497	0.535330
C39	C	1.089256	0.109492	0.446340
C40	C	1.089246	0.109489	0.334682
H41	H	1.084154	-0.651090	0.132319
Cl42	Cl	1.089950	-0.358306	-0.166349
H43	H	1.091416	-0.279235	0.185550
H44	H	1.091446	-0.279187	-0.138025
Cl45	Cl	1.087396	-0.483601	0.157631
H46	H	1.084177	-0.651052	-0.191254
Cl47	Cl	1.087486	-0.483551	-0.244926
H48	H	1.088957	-0.404474	0.106969
H49	H	1.094367	-0.129918	-0.150662
Cl50	Cl	1.094682	-0.111742	0.210865
