data_functionalizedCrystal
_audit_creation_method	'MofGen! by Chris Wilmer'
_symmetry_space_group_name_H-M	'P1'
_symmetry_Int_Tables_number	1
_symmetry_cell_setting	triclinic
loop_
_symmetry_equiv_pos_as_xyz
  x,y,z
_cell_length_a	21.395362
_cell_length_b	17.640280
_cell_length_c	21.395355
_cell_angle_alpha	78.784922
_cell_angle_beta	89.956060
_cell_angle_gamma	78.812025
loop_
_atom_site_label
_atom_site_type_symbol
_atom_site_fract_x
_atom_site_fract_y
_atom_site_fract_z
Zn1	Zn	1.008318	-0.314390	-0.304290
Zn2	Zn	1.508318	0.185610	0.195710
Zn3	Zn	1.029429	-0.446530	-0.178373
Zn4	Zn	1.529429	0.053470	0.321627
Zn5	Zn	0.903539	-0.314427	-0.199486
Zn6	Zn	1.403539	0.185573	0.300514
Zn7	Zn	0.924713	-0.446546	-0.283075
Zn8	Zn	1.424713	0.053454	0.216925
O9	O	0.966500	-0.380473	-0.241306
O10	O	1.466500	0.119527	0.258694
O11	O	1.098793	-0.331896	-0.287630
O12	O	1.598793	0.168104	0.212370
O13	O	1.012702	-0.429015	-0.093494
O14	O	1.512702	0.070985	0.406506
O15	O	0.899742	-0.203828	-0.231102
O16	O	1.399742	0.296172	0.268898
O17	O	1.114303	-0.428979	-0.195119
O18	O	1.614303	0.071021	0.304881
O19	O	0.976723	-0.203801	-0.308102
O20	O	1.476723	0.296199	0.191898
O21	O	0.920212	-0.331959	-0.109006
O22	O	1.420212	0.168041	0.390994
O23	O	0.818673	-0.331975	-0.210531
O24	O	1.318673	0.168025	0.289469
O25	O	0.935830	-0.429007	-0.373569
O26	O	1.435830	0.070993	0.126431
O27	O	0.834230	-0.429043	-0.271944
O28	O	1.334230	0.070957	0.228056
O29	O	0.997254	-0.331912	-0.389155
O30	O	1.497254	0.168088	0.110845
O31	O	1.033234	-0.557126	-0.174548
O32	O	1.533234	-0.057126	0.325452
O33	O	0.956300	-0.557138	-0.251472
O34	O	1.456300	-0.057138	0.248528
C35	C	0.803719	-0.380515	-0.241227
C36	C	1.303719	0.119485	0.258773
C37	C	0.734083	-0.380552	-0.241204
C38	C	1.234083	0.119448	0.258796
C39	C	0.999372	-0.585808	-0.208431
C40	C	1.499372	-0.085808	0.291569
C41	C	1.013493	-0.673651	-0.194387
C42	C	1.513493	-0.173651	0.305613
C43	C	0.709497	-0.431162	-0.273111
C44	C	1.209497	0.068838	0.226889
C45	C	0.644059	-0.431143	-0.273143
C46	C	1.144059	0.068857	0.226857
C47	C	0.603210	-0.380521	-0.241254
C48	C	1.103210	0.119479	0.258746
C49	C	0.627802	-0.329901	-0.209346
C50	C	1.127802	0.170099	0.290654
C51	C	0.693239	-0.329917	-0.209321
C52	C	1.193239	0.170083	0.290679
C53	C	0.498463	-0.374155	-0.185867
C54	C	0.998463	0.125845	0.314133
C55	C	0.433029	-0.374145	-0.185890
C56	C	0.933029	0.125855	0.314110
C57	C	0.401381	-0.380470	-0.241331
C58	C	0.901381	0.119530	0.258669
C59	C	0.435178	-0.386821	-0.296749
C60	C	0.935178	0.113179	0.203251
C61	C	0.500615	-0.386836	-0.296724
C62	C	1.000615	0.113164	0.203276
C63	C	0.532254	-0.380499	-0.241278
C64	C	1.032254	0.119501	0.258722
C65	C	0.305840	-0.431062	-0.273275
C66	C	0.805840	0.068938	0.226725
C67	C	0.240399	-0.431037	-0.273308
C68	C	0.740399	0.068963	0.226692
C69	C	0.224144	-0.329800	-0.209505
C70	C	0.724144	0.170200	0.290495
C71	C	0.289583	-0.329820	-0.209478
C72	C	0.789583	0.170180	0.290522
C73	C	0.330428	-0.380456	-0.241362
C74	C	0.830428	0.119544	0.258638
C75	C	0.859485	-0.962724	-0.348219
C76	C	1.359485	-0.462724	0.151781
C77	C	0.872755	-1.045266	-0.335003
C78	C	1.372755	-0.545266	0.164997
C79	C	0.952916	-1.045188	-0.254983
C80	C	1.452916	-0.545188	0.245017
C81	C	0.939655	-0.962645	-0.268194
C82	C	1.439655	-0.462645	0.231806
C83	C	0.892939	-0.921419	-0.314813
C84	C	1.392939	-0.421419	0.185187
C85	C	0.973109	-0.921340	-0.234788
C86	C	1.473109	-0.421340	0.265212
C87	C	0.959847	-0.838803	-0.247996
C88	C	1.459847	-0.338803	0.252004
C89	C	0.913131	-0.797572	-0.294610
C90	C	1.413131	-0.297572	0.205390
C91	C	0.879677	-0.838883	-0.328021
C92	C	1.379677	-0.338883	0.171979
C93	C	1.019822	-0.962567	-0.188167
C94	C	1.519822	-0.462567	0.311833
C95	C	1.053276	-0.921262	-0.154760
C96	C	1.553276	-0.421262	0.345240
C97	C	1.040017	-0.838724	-0.167971
C98	C	1.540017	-0.338724	0.332029
C99	C	0.993301	-0.797492	-0.214586
C100	C	1.493301	-0.297492	0.285414
C101	C	1.073472	-0.797413	-0.134561
C102	C	1.573472	-0.297413	0.365439
C103	C	1.060209	-0.714877	-0.147769
C104	C	1.560209	-0.214877	0.352231
C105	C	0.980039	-0.714956	-0.227794
C106	C	1.480039	-0.214956	0.272206
C107	C	1.129916	-0.380432	-0.241386
C108	C	1.629916	0.119568	0.258614
C109	C	1.199555	-0.380414	-0.241420
C110	C	1.699555	0.119586	0.258580
C111	C	0.966549	-0.380457	-0.404732
C112	C	1.466549	0.119543	0.095268
C113	C	0.966570	-0.380450	-0.474374
C114	C	1.466570	0.119550	0.025626
C115	C	0.933515	-0.174337	-0.274324
C116	C	1.433515	0.325663	0.225676
C117	C	0.919460	-0.086494	-0.288394
C118	C	1.419460	0.413506	0.211606
C119	C	0.998552	-0.329891	-0.515205
C120	C	1.498552	0.170109	-0.015205
C121	C	0.998545	-0.329857	-0.580646
C122	C	1.498545	0.170143	-0.080646
C123	C	0.966566	-0.380397	-0.605251
C124	C	1.466566	0.119603	-0.105251
C125	C	0.934577	-0.430960	-0.564412
C126	C	1.434577	0.069040	-0.064412
C127	C	0.934579	-0.430986	-0.498974
C128	C	1.434579	0.069014	0.001026
C129	C	0.973012	-0.451559	-0.697531
C130	C	1.473012	0.048441	-0.197531
C131	C	0.973014	-0.451533	-0.762968
C132	C	1.473014	0.048467	-0.262968
C133	C	0.966557	-0.380313	-0.807086
C134	C	1.466557	0.119687	-0.307086
C135	C	0.960109	-0.309116	-0.785758
C136	C	1.460109	0.190884	-0.285758
C137	C	0.960111	-0.309143	-0.720320
C138	C	1.460111	0.190857	-0.220320
C139	C	0.966560	-0.380373	-0.676208
C140	C	1.466560	0.119627	-0.176208
C141	C	0.998533	-0.329712	-0.918875
C142	C	1.498533	0.170288	-0.418875
C143	C	0.998522	-0.329677	-0.984317
C144	C	1.498522	0.170323	-0.484317
C145	C	0.934559	-0.430787	-0.968082
C146	C	1.434559	0.069213	-0.468082
C147	C	0.934565	-0.430815	-0.902642
C148	C	1.434565	0.069185	-0.402642
C149	C	0.966556	-0.380279	-0.878042
C150	C	1.466556	0.119721	-0.378042
C151	C	0.966477	-0.380432	-0.078525
C152	C	1.466477	0.119568	0.421475
C153	C	0.966542	-0.380216	-0.008919
C154	C	1.466542	0.119784	0.491081
H155	H	0.624037	-0.472355	-0.299127
H156	H	1.124037	0.027645	0.200873
N157	N	0.583747	-0.275312	-0.174944
N158	N	1.083747	0.224688	0.325056
H159	H	0.586123	-0.218862	-0.193780
H160	H	1.086123	0.281138	0.306220
H161	H	0.538586	-0.283056	-0.179809
H162	H	1.038586	0.216944	0.320191
N163	N	1.103655	-0.965737	-0.104478
N164	N	1.603655	-0.465737	0.395522
H165	H	1.138171	-0.999938	-0.124504
H166	H	1.638171	-0.499938	0.375496
H167	H	1.122788	-0.926999	-0.085333
H168	H	1.622788	-0.426999	0.414667
N169	N	0.316097	-0.275236	-0.175054
N170	N	0.816097	0.224764	0.324946
H171	H	0.348335	-0.307303	-0.140832
H172	H	0.848335	0.192697	0.359168
H173	H	0.337398	-0.238673	-0.206451
H174	H	0.837398	0.261327	0.293549
H175	H	0.942002	-0.681389	-0.265760
H176	H	1.442002	-0.181389	0.234240
H177	H	0.409412	-0.391970	-0.341895
H178	H	0.909412	0.108030	0.158105
H179	H	0.524225	-0.369001	-0.140718
H180	H	1.024225	0.130999	0.359282
N181	N	0.829285	-0.794412	-0.378298
N182	N	1.329285	-0.294412	0.121702
H183	H	0.825961	-0.735858	-0.381593
H184	H	1.325961	-0.235858	0.118407
H185	H	0.841326	-0.808806	-0.420757
H186	H	1.341326	-0.308806	0.079243
N187	N	0.953157	-0.232356	-0.697321
N188	N	1.453157	0.267644	-0.197321
H189	H	0.911269	-0.196992	-0.714339
H190	H	1.411269	0.303008	-0.214339
H191	H	0.954168	-0.243247	-0.649173
H192	H	1.454168	0.256753	-0.149173
N193	N	0.719760	-0.275322	-0.174911
N194	N	1.219760	0.224678	0.325089
H195	H	0.683954	-0.243245	-0.154717
H196	H	1.183954	0.256755	0.345283
H197	H	0.752007	-0.307440	-0.140720
H198	H	1.252007	0.192560	0.359280
H199	H	0.405517	-0.368979	-0.140765
H200	H	0.905517	0.131021	0.359235
N201	N	1.096286	-0.670319	-0.111737
N202	N	1.596286	-0.170319	0.388263
H203	H	1.127894	-0.708959	-0.080202
H204	H	1.627894	-0.208959	0.419798
H205	H	1.119756	-0.636025	-0.142766
H206	H	1.619756	-0.136025	0.357234
H207	H	0.339097	-0.472288	-0.299240
H208	H	0.839097	0.027712	0.200760
H209	H	0.528130	-0.392005	-0.341848
H210	H	1.028130	0.107995	0.158152
H211	H	0.902330	-0.730366	-0.305359
H212	H	1.402330	-0.230366	0.194641
N213	N	1.033047	-0.275331	-0.624696
N214	N	1.533047	0.224669	-0.124696
H215	H	1.001728	-0.238700	-0.657688
H216	H	1.501728	0.261300	-0.157688
H217	H	1.053313	-0.243374	-0.599136
H218	H	1.553313	0.256626	-0.099136
N219	N	0.213882	-0.485631	-0.307722
N220	N	0.713882	0.014369	0.192278
H221	H	0.192542	-0.522193	-0.276362
H222	H	0.692542	-0.022193	0.223638
H223	H	0.181673	-0.453509	-0.341947
H224	H	0.681673	0.046491	0.158053
H225	H	0.821448	-0.929157	-0.386185
H226	H	1.321448	-0.429157	0.113815
N227	N	1.033053	-0.275385	-0.488672
N228	N	1.533053	0.224615	0.011328
H229	H	1.053312	-0.243350	-0.524472
H230	H	1.553312	0.256650	-0.024472
H231	H	1.001699	-0.238827	-0.467354
H232	H	1.501699	0.261173	0.032646
H233	H	0.845517	-1.078894	-0.362218
H234	H	1.345517	-0.578894	0.137782
N235	N	0.180090	-0.275203	-0.175111
N236	N	0.680090	0.224797	0.324889
H237	H	0.193374	-0.287397	-0.128372
H238	H	0.693374	0.212603	0.371628
H239	H	0.182491	-0.218778	-0.193998
H240	H	0.682491	0.281222	0.306002
H241	H	0.742749	-0.472392	-0.299075
H242	H	1.242749	0.027608	0.200925
H243	H	0.908527	-0.471991	-0.869396
H244	H	1.408527	0.028009	-0.369396
N245	N	1.003294	-1.089655	-0.204697
N246	N	1.503294	-0.589655	0.295303
H247	H	1.006618	-1.148209	-0.201396
H248	H	1.506618	-0.648209	0.298604
H249	H	1.045711	-1.075170	-0.216823
H250	H	1.545711	-0.575170	0.283177
H251	H	1.030620	-1.029773	-0.177416
H252	H	1.530620	-0.529773	0.322584
N253	N	1.123846	-0.841890	-0.084275
N254	N	1.623846	-0.341890	0.415725
H255	H	1.158363	-0.876095	-0.104297
H256	H	1.658363	-0.376095	0.395703
H257	H	1.142979	-0.803153	-0.065128
H258	H	1.642979	-0.303153	0.434872
N259	N	0.953150	-0.232294	-0.833333
N260	N	1.453150	0.267706	-0.333333
H261	H	0.954124	-0.243076	-0.878024
H262	H	1.454124	0.256924	-0.378024
H263	H	0.911267	-0.196973	-0.827517
H264	H	1.411267	0.303027	-0.327517
H265	H	1.024578	-0.288559	-0.898846
H266	H	1.524578	0.211441	-0.398846
N267	N	1.033005	-0.275128	-1.028362
N268	N	1.533005	0.224872	-0.528362
H269	H	1.053267	-0.243118	-1.002846
H270	H	1.553267	0.256882	-0.502846
H271	H	1.067143	-0.307272	-1.050397
H272	H	1.567143	0.192728	-0.550397
N273	N	0.900060	-0.485292	-0.994612
N274	N	1.400060	0.014708	-0.494612
H275	H	0.904909	-0.477603	-1.042263
H276	H	1.404909	0.022397	-0.542263
H277	H	0.918841	-0.541739	-0.974153
H278	H	1.418841	-0.041739	-0.474153
H279	H	0.978268	-0.509506	-0.780327
H280	H	1.478268	-0.009506	-0.280327
N281	N	0.979986	-0.528380	-0.649949
N282	N	1.479986	-0.028380	-0.149949
H283	H	0.984079	-0.573477	-0.673387
H284	H	1.484079	-0.073477	-0.173387
H285	H	1.019337	-0.535709	-0.621660
H286	H	1.519337	-0.035709	-0.121660
N287	N	0.900073	-0.485458	-0.590949
N288	N	1.400073	0.014542	-0.090949
H289	H	0.904923	-0.477768	-0.638600
H290	H	1.404923	0.022232	-0.138600
H291	H	0.918847	-0.541907	-0.570491
H292	H	1.418847	-0.041907	-0.070491
N293	N	0.900073	-0.485509	-0.454932
N294	N	1.400073	0.014491	0.045068
H295	H	0.879807	-0.517517	-0.480448
H296	H	1.379807	-0.017517	0.019552
H297	H	0.931422	-0.522093	-0.421946
H298	H	1.431422	-0.022093	0.078054
