data_functionalizedCrystal
_audit_creation_method	'MofGen! by Chris Wilmer'
_symmetry_space_group_name_H-M	'P1'
_symmetry_Int_Tables_number	1
_symmetry_cell_setting	triclinic
loop_
_symmetry_equiv_pos_as_xyz
  x,y,z
_cell_length_a	16.120490
_cell_length_b	12.594516
_cell_length_c	16.120297
_cell_angle_alpha	87.123691
_cell_angle_beta	89.870317
_cell_angle_gamma	87.104371
loop_
_atom_site_label
_atom_site_type_symbol
_atom_site_fract_x
_atom_site_fract_y
_atom_site_fract_z
Zn1	Zn	1.247532	-0.539337	0.534562
Zn2	Zn	1.580865	-0.206003	0.867895
Zn3	Zn	1.914198	0.127330	1.201228
Zn4	Zn	1.254509	-0.708781	0.395513
Zn5	Zn	1.587842	-0.375447	0.728846
Zn6	Zn	1.921176	-0.042114	1.062179
Zn7	Zn	1.115519	-0.521341	0.388482
Zn8	Zn	1.448852	-0.188008	0.721815
Zn9	Zn	1.782185	0.145325	1.055149
Zn10	Zn	1.108465	-0.707790	0.527485
Zn11	Zn	1.441798	-0.374457	0.860819
Zn12	Zn	1.775131	-0.041124	1.194152
O13	O	1.181506	-0.619312	0.461510
O14	O	1.514839	-0.285979	0.794844
O15	O	1.848173	0.047354	1.128177
O16	O	1.364825	-0.569759	0.522020
O17	O	1.698159	-0.236426	0.855354
O18	O	2.031492	0.096907	1.188687
O19	O	1.241944	-0.676800	0.278214
O20	O	1.575277	-0.343466	0.611547
O21	O	1.908611	-0.010133	0.944881
O22	O	1.133062	-0.374786	0.407879
O23	O	1.466396	-0.041453	0.741212
O24	O	1.799729	0.291881	1.074546
O25	O	1.369952	-0.694249	0.419862
O26	O	1.703285	-0.360916	0.753195
O27	O	2.036618	-0.027583	1.086528
O28	O	1.230052	-0.388007	0.515203
O29	O	1.563385	-0.054674	0.848537
O30	O	1.896719	0.278659	1.181870
O31	O	1.139828	-0.539089	0.273049
O32	O	1.473161	-0.205756	0.606382
O33	O	1.806495	0.127578	0.939715
O34	O	0.998215	-0.538129	0.401017
O35	O	1.331548	-0.204795	0.734351
O36	O	1.664881	0.128538	1.067684
O37	O	1.121040	-0.692561	0.644790
O38	O	1.454373	-0.359228	0.978123
O39	O	1.787707	-0.025895	1.311457
O40	O	0.993032	-0.675112	0.503142
O41	O	1.326366	-0.341779	0.836476
O42	O	1.659699	-0.008445	1.169809
O43	O	1.223212	-0.568799	0.649989
O44	O	1.556545	-0.235466	0.983322
O45	O	1.889879	0.097867	1.316656
O46	O	1.235104	-0.857592	0.413000
O47	O	1.568437	-0.524258	0.746333
O48	O	1.901771	-0.190925	1.079666
O49	O	1.127806	-0.856864	0.509960
O50	O	1.461139	-0.523531	0.843293
O51	O	1.794472	-0.190198	1.176626
C52	C	0.965450	-0.604561	0.450550
C53	C	1.298784	-0.271228	0.783883
C54	C	1.632117	0.062106	1.117216
C55	C	0.873020	-0.598277	0.445880
C56	C	1.206353	-0.264944	0.779214
C57	C	1.539687	0.068390	1.112547
C58	C	0.660066	-0.651900	0.485733
C59	C	0.993400	-0.318566	0.819066
C60	C	1.326733	0.014767	1.152399
C61	C	0.703793	-0.586814	0.437354
C62	C	1.037127	-0.253481	0.770687
C63	C	1.370460	0.079853	1.104021
C64	C	0.797960	-0.593194	0.442099
C65	C	1.131293	-0.259861	0.775433
C66	C	1.464626	0.073473	1.108766
C67	C	0.565891	-0.645521	0.480988
C68	C	0.899225	-0.312188	0.814322
C69	C	1.232558	0.021146	1.147655
C70	C	1.181468	-0.895850	0.461494
C71	C	1.514802	-0.562516	0.794827
C72	C	1.848135	-0.229183	1.128161
C73	C	1.181527	-1.014161	0.461519
C74	C	1.514860	-0.680827	0.794852
C75	C	1.848193	-0.347494	1.128185
C76	C	1.239948	-1.083779	0.408845
C77	C	1.573281	-0.750445	0.742178
C78	C	1.906614	-0.417112	1.075511
C79	C	1.256420	-1.160534	0.485772
C80	C	1.589753	-0.827201	0.819105
C81	C	1.923086	-0.493867	1.152438
C82	C	1.165156	-1.148214	0.384645
C83	C	1.498490	-0.814881	0.717979
C84	C	1.831823	-0.481548	1.051312
C85	C	1.198036	-1.089362	0.538487
C86	C	1.531369	-0.756029	0.871821
C87	C	1.864702	-0.422696	1.205154
C88	C	1.106739	-1.077031	0.437308
C89	C	1.440073	-0.743698	0.770641
C90	C	1.773406	-0.410365	1.103975
C91	C	1.123180	-1.153756	0.514286
C92	C	1.456513	-0.820422	0.847619
C93	C	1.789847	-0.487089	1.180953
C94	C	1.398405	-0.634122	0.472515
C95	C	1.731739	-0.300789	0.805848
C96	C	2.065072	0.032545	1.139181
C97	C	1.490835	-0.640433	0.477204
C98	C	1.824168	-0.307100	0.810537
C99	C	2.157501	0.026233	1.143871
C100	C	1.170561	-0.632577	0.678406
C101	C	1.503894	-0.299244	1.011739
C102	C	1.837228	0.034090	1.345072
C103	C	1.165897	-0.638230	0.770833
C104	C	1.499230	-0.304896	1.104167
C105	C	1.832563	0.028437	1.437500
C106	C	1.181566	-0.341698	0.461546
C107	C	1.514899	-0.008364	0.794880
C108	C	1.848232	0.324969	1.128213
C109	C	1.181591	-0.223395	0.461562
C110	C	1.514924	0.109938	0.794895
C111	C	1.848258	0.443272	1.128228
C112	C	1.192456	-0.606026	0.245462
C113	C	1.525790	-0.272692	0.578795
C114	C	1.859123	0.060641	0.912128
C115	C	1.197282	-0.600084	0.153042
C116	C	1.530615	-0.266751	0.486376
C117	C	1.863948	0.066583	0.819709
C118	C	1.157351	-0.648524	0.940059
C119	C	1.490684	-0.315191	1.273392
C120	C	1.824017	0.018142	1.606725
C121	C	1.205825	-0.589793	0.983822
C122	C	1.539159	-0.256459	1.317156
C123	C	1.872492	0.076874	1.650489
C124	C	1.201070	-0.595520	1.077985
C125	C	1.534403	-0.262187	1.411318
C126	C	1.867737	0.071146	1.744652
C127	C	1.162105	-0.642798	0.845887
C128	C	1.495438	-0.309464	1.179221
C129	C	1.828771	0.023869	1.512554
H130	H	0.693350	-0.712409	0.530711
H131	H	1.026683	-0.379075	0.864044
H132	H	1.360016	-0.045742	1.197377
Cl133	Cl	0.652407	-0.493390	0.367900
Cl134	Cl	0.985741	-0.160057	0.701233
Cl135	Cl	1.319074	0.173276	1.034567
Cl136	Cl	1.316229	-1.036327	0.340136
Cl137	Cl	1.649562	-0.702994	0.673469
Cl138	Cl	1.982896	-0.369661	1.006803
Cl139	Cl	1.275432	-0.505544	0.932490
Cl140	Cl	1.608766	-0.172210	1.265823
Cl141	Cl	1.942099	0.161123	1.599156
H142	H	1.073800	-1.184299	0.558903
H143	H	1.407133	-0.850966	0.892236
H144	H	1.740467	-0.517633	1.225570
H145	H	1.151283	-1.174266	0.319617
H146	H	1.484616	-0.840933	0.652950
H147	H	1.817950	-0.507600	0.986283
H148	H	1.112283	-0.703105	0.973308
H149	H	1.445617	-0.369772	1.306641
H150	H	1.778950	-0.036438	1.639975
Cl151	Cl	1.354110	-1.216819	0.517439
Cl152	Cl	1.687444	-0.883485	0.850772
Cl153	Cl	2.020777	-0.550152	1.184105
Cl154	Cl	1.219582	-1.049361	0.638920
Cl155	Cl	1.552915	-0.716027	0.972253
Cl156	Cl	1.886248	-0.382694	1.305586
H157	H	1.043486	-1.040538	0.416786
H158	H	1.376819	-0.707205	0.750119
H159	H	1.710152	-0.373871	1.083452
