data_functionalizedCrystal
_audit_creation_method	'MofGen! by Chris Wilmer'
_symmetry_space_group_name_H-M	'P1'
_symmetry_Int_Tables_number	1
_symmetry_cell_setting	triclinic
loop_
_symmetry_equiv_pos_as_xyz
  x,y,z
_cell_length_a	16.120484
_cell_length_b	16.625547
_cell_length_c	16.625539
_cell_angle_alpha	90.024822
_cell_angle_beta	87.131385
_cell_angle_gamma	92.925712
loop_
_atom_site_label
_atom_site_type_symbol
_atom_site_fract_x
_atom_site_fract_y
_atom_site_fract_z
Zn1	Zn	-0.331907	1.216387	0.472258
Zn2	Zn	-0.471332	1.209446	0.344255
Zn3	Zn	-0.331936	1.081547	0.337430
Zn4	Zn	-0.471281	1.074677	0.479032
O5	O	-0.401614	1.145514	0.408244
O6	O	-0.350411	1.328298	0.455300
O7	O	-0.452874	1.192450	0.230519
O8	O	-0.215267	1.105214	0.349625
O9	O	-0.452846	1.323198	0.361256
O10	O	-0.215245	1.204280	0.448682
O11	O	-0.350461	1.098483	0.225505
O12	O	-0.350412	0.967804	0.356193
O13	O	-0.452759	1.093505	0.590964
O14	O	-0.452787	0.962756	0.460227
O15	O	-0.350362	1.197618	0.585988
O16	O	-0.587991	1.185788	0.367824
O17	O	-0.587953	1.086774	0.466845
C18	C	-0.401598	0.936024	0.408205
C19	C	-0.401611	0.846402	0.408209
C20	C	-0.618222	1.134804	0.418828
C21	C	-0.710888	1.130296	0.423383
C22	C	-0.401613	0.773620	0.408219
C23	C	-0.401617	0.682311	0.408239
C24	C	-0.401625	0.609534	0.408260
C25	C	-0.401630	0.518220	0.408279
C26	C	-0.880550	1.122071	0.431715
C27	C	-0.921838	1.169102	0.384786
C28	C	-1.016243	1.164525	0.389422
C29	C	-0.786136	1.126646	0.427080
C30	C	-0.184160	1.156288	0.397636
C31	C	-0.091494	1.160879	0.393116
C32	C	-0.401552	1.145570	0.618550
C33	C	-0.401525	1.145593	0.708170
C34	C	-0.401631	1.355822	0.408283
C35	C	-0.401638	1.445443	0.408300
C36	C	-0.401616	1.145508	0.198753
C37	C	-0.401407	1.145652	0.109122
C38	C	-0.401432	1.145635	1.036341
C39	C	-0.401461	1.145621	0.945034
C40	C	-0.401479	1.145615	0.872258
C41	C	-0.401507	1.145600	0.780945
H42	H	-0.886285	1.212804	0.341127
F43	F	-0.927017	1.064951	0.488775
