data_functionalizedCrystal
_audit_creation_method	'MofGen! by Chris Wilmer'
_symmetry_space_group_name_H-M	'P1'
_symmetry_Int_Tables_number	1
_symmetry_cell_setting	triclinic
loop_
_symmetry_equiv_pos_as_xyz
  x,y,z
_cell_length_a	10.685980
_cell_length_b	13.032721
_cell_length_c	10.685314
_cell_angle_alpha	100.902336
_cell_angle_beta	89.642737
_cell_angle_gamma	102.072709
loop_
_atom_site_label
_atom_site_type_symbol
_atom_site_fract_x
_atom_site_fract_y
_atom_site_fract_z
Zn1	Zn	1.804608	-0.359003	-0.907013
Zn2	Zn	1.793686	-0.522627	-0.720257
Zn3	Zn	1.611228	-0.356980	-0.680878
Zn4	Zn	1.563481	-0.549683	-0.917671
O5	O	1.693251	-0.447073	-0.806455
O6	O	1.980431	-0.370231	-0.894259
O7	O	1.784894	-0.488484	-0.537777
O8	O	1.661434	-0.208124	-0.689935
O9	O	1.972406	-0.490446	-0.757050
O10	O	1.803509	-0.209610	-0.856075
O11	O	1.650843	-0.366784	-0.508845
O12	O	1.427623	-0.393019	-0.700269
O13	O	1.580056	-0.536558	-1.093513
O14	O	1.392543	-0.534596	-0.874240
O15	O	1.757211	-0.396466	-1.085683
O16	O	1.738595	-0.675340	-0.767385
O17	O	1.569465	-0.695218	-0.912424
C18	C	1.364118	-0.466525	-0.784139
C19	C	1.223307	-0.474874	-0.774626
C20	C	1.647696	-0.723945	-0.845364
C21	C	1.628319	-0.842388	-0.862059
C22	C	1.703426	-0.885324	-0.797803
C23	C	1.683401	-1.007741	-0.815057
C24	C	2.023669	-0.427546	-0.828859
C25	C	2.164473	-0.419225	-0.838406
C26	C	1.664526	-0.469755	-1.136844
C27	C	1.652285	-0.479421	-1.277636
C28	C	1.739016	-0.169120	-0.767424
C29	C	1.758519	-0.050673	-0.750791
C30	C	1.721950	-0.424398	-0.477345
C31	C	1.734486	-0.414417	-0.336528
H32	H	1.221828	-0.365187	-0.900286
H33	H	1.549197	-0.896258	-0.929851
H34	H	1.165947	-0.528908	-0.712733
O35	O	1.797731	-0.820913	-0.716941
C36	C	1.903760	-0.640176	-0.626117
C37	C	1.796889	-0.712993	-0.717712
H38	H	1.903131	-0.552908	-0.626730
H39	H	1.886941	-0.656255	-0.525478
H40	H	2.000394	-0.657468	-0.658404
H41	H	1.700209	-0.695743	-0.685542
H42	H	1.813820	-0.696900	-0.818331
O43	O	1.588971	-1.071840	-0.896027
C44	C	1.415970	-1.080946	-1.044034
C45	C	1.522878	-1.008230	-0.952402
H46	H	1.362487	-1.029548	-1.089618
H47	H	1.459800	-1.134075	-1.121615
H48	H	1.346419	-1.133059	-0.988627
H49	H	1.592466	-0.956051	-1.007700
H50	H	1.478959	-0.955173	-0.874822
H51	H	1.837655	-0.996807	-0.683005
O52	O	1.829565	-0.339275	-1.268003
C53	C	1.928769	-0.260716	-1.060459
C54	C	1.821054	-0.345883	-1.137923
H55	H	1.921908	-0.266015	-0.955272
H56	H	2.025651	-0.275137	-1.095840
H57	H	1.918436	-0.177885	-1.072916
H58	H	1.831265	-0.428748	-1.125501
H59	H	1.724214	-0.331368	-1.102524
O60	O	1.557263	-0.554626	-1.346181
C61	C	1.457948	-0.633092	-1.553699
C62	C	1.565631	-0.547893	-1.476231
H63	H	1.464661	-0.627663	-1.658856
H64	H	1.468273	-0.715971	-1.541424
H65	H	1.361125	-0.618666	-1.518142
H66	H	1.662503	-0.562219	-1.511738
H67	H	1.555193	-0.465044	-1.488509
