data_functionalizedCrystal
_audit_creation_method	'MofGen! by Chris Wilmer'
_symmetry_space_group_name_H-M	'P1'
_symmetry_Int_Tables_number	1
_symmetry_cell_setting	triclinic
loop_
_symmetry_equiv_pos_as_xyz
  x,y,z
_cell_length_a	19.188964
_cell_length_b	17.699083
_cell_length_c	16.776229
_cell_angle_alpha	90.007545
_cell_angle_beta	89.999702
_cell_angle_gamma	96.779144
loop_
_atom_site_label
_atom_site_type_symbol
_atom_site_fract_x
_atom_site_fract_y
_atom_site_fract_z
O1	O	0.926238	-0.094616	-0.066163
O2	O	0.722944	-0.107309	-0.066192
O3	O	0.830335	0.009233	-0.066170
O4	O	0.818848	-0.211159	-0.066185
O5	O	0.830321	0.009240	0.066407
O6	O	0.722930	-0.107302	0.066384
O7	O	0.926224	-0.094609	0.066414
Zn8	Zn	0.824575	-0.100954	0.087448
Zn9	Zn	0.824594	-0.100964	-0.087227
O10	O	0.818833	-0.211152	0.066391
C11	C	0.829916	0.037433	0.000119
C12	C	0.828681	0.121450	0.000119
C13	C	0.696926	-0.106890	0.000092
C14	C	0.619422	-0.105643	0.000081
C15	C	0.952242	-0.095028	0.000127
C16	C	1.029747	-0.096275	0.000133
C17	C	1.066148	-0.096863	-0.072136
C18	C	1.138975	-0.098015	-0.072144
C19	C	1.175395	-0.098593	0.000120
C20	C	1.138985	-0.098000	0.072399
C21	C	1.066161	-0.096841	0.072405
N22	N	1.284475	-0.143480	0.053898
N23	N	1.353655	-0.144583	0.053887
C24	C	1.394810	-0.102084	0.000105
N25	N	1.364170	-0.058450	-0.053678
N26	N	1.294984	-0.057350	-0.053669
C27	C	1.254360	-0.099849	0.000121
C28	C	1.510178	-0.103920	-0.072179
C29	C	1.583006	-0.105066	-0.072184
C30	C	1.583014	-0.105060	0.072361
C31	C	1.510188	-0.103905	0.072364
C32	C	1.473774	-0.103339	0.000092
C33	C	0.819252	-0.239352	0.000101
C34	C	0.820487	-0.323368	0.000096
N35	N	0.824567	-0.100948	0.206659
C36	C	0.891717	0.170146	0.000129
C37	C	0.890553	0.249088	0.000122
C38	C	0.826352	0.279332	0.000110
C39	C	0.763311	0.230631	0.000097
C40	C	0.764476	0.151690	0.000099
C41	C	0.758611	0.548988	0.000090
C42	C	0.757450	0.627935	0.000091
C43	C	0.884687	0.646385	0.000113
C44	C	0.885853	0.567445	0.000115
C45	C	0.822812	0.518750	0.000098
C46	C	0.824075	0.433153	0.000104
C47	C	0.825088	0.364929	0.000109
N48	N	0.824607	-0.100965	-0.206438
C49	C	0.872134	-0.049364	0.248387
C50	C	0.872138	-0.049363	0.331839
C51	C	0.824578	-0.100950	0.373562
C52	C	0.777006	-0.152537	0.331829
C53	C	0.776999	-0.152533	0.248379
C54	C	0.777031	-0.152552	0.668377
C55	C	0.777043	-0.152553	0.751833
C56	C	0.872170	-0.049381	0.751837
C57	C	0.872163	-0.049378	0.668386
C58	C	0.824589	-0.100961	0.626660
C59	C	0.824584	-0.100960	0.536172
C60	C	0.824585	-0.100956	0.464049
H61	H	1.168618	-0.098498	-0.130996
H62	H	1.612644	-0.105540	-0.131037
C63	C	1.026561	-0.096395	-0.150577
C64	C	0.976808	-0.160838	-0.154814
C65	C	0.940334	-0.160436	-0.227068
H66	H	1.003483	-0.051868	-0.153656
H67	H	1.058651	-0.096950	-0.193641
H68	H	0.944724	-0.160276	-0.111762
H69	H	0.999868	-0.205376	-0.151749
H70	H	0.972423	-0.160991	-0.270132
H71	H	0.917260	-0.115906	-0.230140
H72	H	0.906577	-0.204163	-0.229955
C73	C	0.955578	0.534652	-0.000039
C74	C	0.993675	0.559398	-0.068253
C75	C	1.057906	0.529198	-0.068430
H76	H	0.981609	0.551365	0.046142
H77	H	0.947274	0.480661	-0.000082
H78	H	1.001981	0.613377	-0.068202
H79	H	0.967665	0.542685	-0.114444
H80	H	1.049602	0.475206	-0.068473
H81	H	1.083931	0.545913	-0.022246
H82	H	1.083760	0.545977	-0.114715
H83	H	1.480549	-0.103429	0.131214
C84	C	0.953156	0.699219	0.000285
C85	C	0.991804	0.685607	0.068511
C86	C	1.054874	0.734268	0.068704
H87	H	0.979577	0.690109	-0.045888
H88	H	0.943301	0.750577	0.000322
H89	H	1.001661	0.634262	0.068467
H90	H	0.965405	0.694723	0.114694
H91	H	1.045018	0.785626	0.068741
H92	H	1.081288	0.725153	0.022529
H93	H	1.081101	0.725043	0.114998
H94	H	1.168643	-0.098470	0.131237
C95	C	0.693657	0.263571	-0.000040
C96	C	0.689287	0.308361	-0.068237
C97	C	0.625134	0.338724	-0.068383
H98	H	0.656220	0.223341	-0.000088
H99	H	0.690546	0.294029	0.046169
H100	H	0.692390	0.277904	-0.114434
H101	H	0.726708	0.348603	-0.068203
H102	H	0.622024	0.369182	-0.022174
H103	H	0.587703	0.298489	-0.068429
H104	H	0.622164	0.369123	-0.114649
H105	H	0.738264	-0.194537	0.214405
H106	H	1.480528	-0.103456	-0.131027
H107	H	0.713146	0.112042	0.000090
C108	C	0.958938	0.302050	0.000256
C109	C	0.961968	0.347936	0.068449
C110	C	1.024951	0.396742	0.068591
H111	H	0.997400	0.272830	0.000307
H112	H	0.961137	0.333263	-0.045956
H113	H	0.959776	0.316726	0.114648
H114	H	0.923520	0.377172	0.068412
H115	H	1.027150	0.427956	0.022379
H116	H	1.063408	0.367516	0.068640
H117	H	1.027013	0.427887	0.114855
H118	H	0.910893	-0.007373	0.634417
H119	H	0.705167	0.652556	0.000083
H120	H	1.612667	-0.105528	0.131200
H121	H	0.910905	-0.007377	0.785819
H122	H	0.738296	-0.194554	0.634410
C123	C	0.725319	-0.208594	0.796991
C124	C	0.683639	-0.253753	0.742589
C125	C	0.635981	-0.305376	0.784159
H126	H	0.750296	-0.240114	0.829539
H127	H	0.696275	-0.181454	0.829538
H128	H	0.712680	-0.280891	0.710056
H129	H	0.658647	-0.222255	0.710040
H130	H	0.606937	-0.278236	0.816706
H131	H	0.660964	-0.336891	0.816706
H132	H	0.607692	-0.336018	0.747254
C133	C	0.725334	-0.208425	0.377231
C134	C	0.682686	-0.168216	0.425171
C135	C	0.635085	-0.219677	0.467013
H136	H	0.696934	-0.239169	0.340520
H137	H	0.750379	-0.239859	0.409821
H138	H	0.657643	-0.136796	0.392584
H139	H	0.711067	-0.137476	0.461897
H140	H	0.660129	-0.251111	0.499603
H141	H	0.606690	-0.250418	0.430295
H142	H	0.606147	-0.192403	0.499550
C143	C	1.026755	-0.096248	0.150956
C144	C	1.074231	-0.097017	0.214244
C145	C	1.037953	-0.096483	0.286617
H146	H	1.003732	-0.051684	0.154079
H147	H	0.992969	-0.139942	0.154002
H148	H	1.108004	-0.053328	0.211200
H149	H	1.097256	-0.141577	0.211148
H150	H	1.004168	-0.140176	0.289663
H151	H	1.014931	-0.051918	0.289732
H152	H	1.070159	-0.097011	0.329566
C153	C	0.961495	0.137459	0.000099
C154	C	1.016449	0.197005	0.000082
C155	C	1.080739	0.166927	0.000039
H156	H	0.964692	0.107065	0.046318
H157	H	0.964635	0.107065	-0.046153
H158	H	1.013310	0.227387	0.046329
H159	H	1.013274	0.227405	-0.046134
H160	H	1.083879	0.136533	-0.046212
H161	H	1.083929	0.136533	0.046260
H162	H	1.118033	0.207323	0.000021
C163	C	0.923870	0.006667	0.376998
C164	C	0.965538	0.051825	0.322598
C165	C	1.013213	0.103441	0.364169
H166	H	0.898906	0.038189	0.409568
H167	H	0.952921	-0.020478	0.409524
H168	H	0.936492	0.078969	0.290086
H169	H	0.990519	0.020325	0.290027
H170	H	1.042263	0.076296	0.396694
H171	H	0.988242	0.134957	0.396737
H172	H	1.041495	0.134082	0.327264
H173	H	0.707279	0.509350	0.000077
H174	H	0.910866	-0.007358	0.214421
