data_functionalizedCrystal
_audit_creation_method	'MofGen! by Chris Wilmer'
_symmetry_space_group_name_H-M	'P1'
_symmetry_Int_Tables_number	1
_symmetry_cell_setting	triclinic
loop_
_symmetry_equiv_pos_as_xyz
  x,y,z
_cell_length_a	14.853569
_cell_length_b	14.853568
_cell_length_c	10.065918
_cell_angle_alpha	80.199201
_cell_angle_beta	99.847462
_cell_angle_gamma	96.364624
loop_
_atom_site_label
_atom_site_type_symbol
_atom_site_fract_x
_atom_site_fract_y
_atom_site_fract_z
O1	O	1.208201	-0.129482	0.113416
O2	O	0.945743	-0.143503	0.113431
O3	O	1.083983	-0.005263	0.113430
O4	O	1.069961	-0.267721	0.113417
O5	O	1.060282	0.018299	-0.113556
O6	O	0.922042	-0.119941	-0.113555
O7	O	1.184499	-0.105920	-0.113570
Zn8	Zn	1.049507	-0.109189	-0.149601
Zn9	Zn	1.080735	-0.140233	0.149462
O10	O	1.046259	-0.244159	-0.113569
C11	C	0.900304	-0.131087	-0.000060
C12	C	0.800221	-0.129183	-0.000054
C13	C	0.763845	-0.046173	-0.000045
C14	C	0.742554	-0.210403	-0.000068
C15	C	0.648519	-0.208617	-0.000070
C16	C	0.612143	-0.125607	-0.000061
C17	C	0.669802	-0.044384	-0.000050
C18	C	0.590853	-0.289837	-0.000094
C19	C	0.496812	-0.288053	-0.000097
C20	C	0.460435	-0.205044	-0.000078
C21	C	0.518100	-0.123817	-0.000066
C22	C	0.481725	-0.040807	-0.000057
C23	C	0.539389	0.040419	-0.000036
C24	C	0.633426	0.038626	-0.000032
C25	C	0.366399	-0.203251	-0.000082
C26	C	0.387681	-0.039018	-0.000063
C27	C	1.071497	0.040106	-0.000058
C28	C	1.069595	0.140188	-0.000044
C29	C	0.979427	0.552724	-0.000056
C30	C	1.143659	0.574004	-0.000065
C31	C	1.145450	0.479970	-0.000059
C32	C	1.064228	0.422308	-0.000054
C33	C	0.981215	0.458681	-0.000055
C34	C	1.228460	0.443592	-0.000073
C35	C	1.230254	0.349552	-0.000068
C36	C	1.149032	0.291888	-0.000053
C37	C	1.066016	0.328265	-0.000052
C38	C	0.984794	0.270603	-0.000047
C39	C	0.901778	0.306978	-0.000036
C40	C	0.899993	0.401016	-0.000039
C41	C	1.150817	0.197850	-0.000050
C42	C	0.986582	0.176560	-0.000045
C43	C	1.229939	-0.118336	-0.000076
C44	C	1.330023	-0.120241	-0.000073
N45	N	1.028202	-0.088002	-0.353704
C46	C	1.058745	0.710470	-0.000072
C47	C	1.060649	0.610385	-0.000062
C48	C	1.073316	-0.132862	-0.421489
C49	C	1.056927	-0.116547	-0.578654
N50	N	1.102048	-0.161413	0.353565
H51	H	0.680383	0.104757	-0.000017
H52	H	1.006168	-0.066057	-0.636970
F53	F	1.168402	-0.227400	-0.570220
H54	H	0.358073	0.028579	-0.000048
F55	F	1.239159	0.159143	-0.000083
H56	H	0.810800	0.019959	-0.000022
F57	F	0.781270	-0.298743	-0.000081
H58	H	0.977446	-0.037515	-0.412025
F59	F	0.629572	-0.378176	-0.000101
H60	H	0.920441	0.129617	-0.000035
H61	H	1.124078	-0.183343	-0.363168
F62	F	0.435450	-0.374501	-0.000112
F63	F	0.500663	0.128763	-0.000038
H64	H	0.319451	-0.269383	-0.000112
H65	H	0.832406	0.430641	-0.000032
F66	F	0.891081	0.591435	-0.000033
F67	F	0.815338	0.245601	-0.000041
F68	F	1.230093	0.635376	-0.000091
H69	H	1.294584	0.490548	-0.000090
H70	H	1.297850	0.319945	-0.000075
