data_functionalizedCrystal
_audit_creation_method	'MofGen! by Chris Wilmer'
_symmetry_space_group_name_H-M	'P1'
_symmetry_Int_Tables_number	1
_symmetry_cell_setting	triclinic
loop_
_symmetry_equiv_pos_as_xyz
  x,y,z
_cell_length_a	14.044191
_cell_length_b	15.944493
_cell_length_c	13.101039
_cell_angle_alpha	93.367629
_cell_angle_beta	86.337551
_cell_angle_gamma	88.333410
loop_
_atom_site_label
_atom_site_type_symbol
_atom_site_fract_x
_atom_site_fract_y
_atom_site_fract_z
O1	O	1.262884	0.198294	-0.085140
O2	O	1.762884	0.698294	0.414860
O3	O	0.986917	0.190980	-0.085154
O4	O	1.486917	0.690980	0.414846
O5	O	1.132466	0.072925	-0.085155
O6	O	1.632466	0.572925	0.414845
O7	O	1.117335	0.316349	-0.085139
O8	O	1.617335	0.816349	0.414861
O9	O	1.122023	0.081411	0.085275
O10	O	1.622023	0.581411	0.585275
O11	O	0.976474	0.199466	0.085276
O12	O	1.476474	0.699466	0.585276
O13	O	1.252441	0.206780	0.085290
O14	O	1.752441	0.706780	0.585290
Zn15	Zn	1.112800	0.204470	0.112343
Zn16	Zn	1.612800	0.704470	0.612343
Zn17	Zn	1.126559	0.193290	-0.112206
Zn18	Zn	1.626559	0.693290	0.387794
O19	O	1.106892	0.324835	0.085291
O20	O	1.606892	0.824835	0.585291
C21	C	0.946382	0.192023	0.000059
C22	C	1.446382	0.692023	0.500059
C23	C	0.841158	0.182479	0.000053
C24	C	1.341158	0.682479	0.500053
C25	C	0.590862	0.232718	0.000067
C26	C	1.090862	0.732718	0.500067
C27	C	0.648503	0.165045	0.000061
C28	C	1.148503	0.665045	0.500061
C29	C	0.755706	0.174748	0.000056
C30	C	1.255706	0.674748	0.500056
C31	C	0.483649	0.223017	0.000071
C32	C	0.983649	0.723017	0.500071
C33	C	1.126626	0.045827	0.000056
C34	C	1.626626	0.545827	0.500056
C35	C	1.124773	-0.047561	0.000043
C36	C	1.624773	0.452439	0.500043
C37	C	1.210445	-0.276903	0.000066
C38	C	1.710445	0.223097	0.500066
C39	C	1.169394	-0.335115	-0.083966
C40	C	1.669394	0.164885	0.416034
C41	C	1.121337	-0.218539	0.000055
C42	C	1.621337	0.281461	0.500055
C43	C	1.159077	-0.326727	0.084064
C44	C	1.659077	0.173273	0.584064
C45	C	1.118025	-0.383696	0.000071
C46	C	1.618025	0.116304	0.500071
C47	C	1.080314	-0.275525	-0.084047
C48	C	1.580314	0.224475	0.415953
C49	C	1.070006	-0.267128	0.084059
C50	C	1.570006	0.232872	0.584059
C51	C	1.028890	-0.325314	0.000006
C52	C	1.528890	0.174686	0.500006
C53	C	1.123248	-0.123397	0.000045
C54	C	1.623248	0.376603	0.500045
C55	C	1.116107	-0.478836	0.000074
C56	C	1.616107	0.021164	0.500074
C57	C	1.292977	0.205737	0.000075
C58	C	1.792977	0.705737	0.500075
C59	C	1.398201	0.215280	0.000074
C60	C	1.898201	0.715280	0.500074
C61	C	1.112732	0.351933	0.000078
C62	C	1.612732	0.851933	0.500078
C63	C	1.114586	0.445321	0.000085
C64	C	1.614586	0.945321	0.500085
N65	N	1.103416	0.212100	0.265591
N66	N	1.603416	0.712100	0.765591
N67	N	1.135949	0.185654	-0.265455
N68	N	1.635949	0.685654	0.234545
C69	C	1.090650	0.222489	0.474634
C70	C	1.590650	0.722489	0.974634
C71	C	1.148713	0.175267	0.525509
C72	C	1.648713	0.675267	1.025509
C73	C	1.141609	0.181048	0.641828
C74	C	1.641609	0.681048	1.141828
C75	C	1.097752	0.216710	0.358305
C76	C	1.597752	0.716710	0.858305
H77	H	0.622024	0.297937	0.000068
H78	H	1.122024	0.797937	0.500068
C79	C	0.606404	0.076929	0.000046
C80	C	1.106404	0.576929	0.500046
N81	N	0.574691	0.010563	0.000029
N82	N	1.074691	0.510563	0.500029
C83	C	1.314143	-0.248024	-0.000041
C84	C	1.814143	0.251976	0.499959
N85	N	1.392247	-0.226272	-0.000127
N86	N	1.892247	0.273728	0.499873
C87	C	1.013326	-0.227035	0.180038
C88	C	1.513326	0.272965	0.680038
N89	N	0.970638	-0.196837	0.252337
N90	N	1.470638	0.303163	0.752337
H91	H	1.035610	0.267256	0.518431
H92	H	1.535610	0.767256	1.018431
H93	H	1.211378	-0.364780	-0.155007
H94	H	1.711378	0.135220	0.344993
H95	H	1.192375	-0.349301	0.155103
H96	H	1.692375	0.150699	0.655103
C97	C	1.035403	-0.245184	-0.180134
C98	C	1.535403	0.254816	0.319866
N99	N	1.001582	-0.222329	-0.252508
N100	N	1.501582	0.277671	0.247492
H101	H	0.952078	-0.346536	-0.000044
H102	H	1.452078	0.153464	0.499956
H103	H	1.203757	0.130499	0.481706
H104	H	1.703757	0.630499	0.981706
