data_functionalizedCrystal
_audit_creation_method	'MofGen! by Chris Wilmer'
_symmetry_space_group_name_H-M	'P1'
_symmetry_Int_Tables_number	1
_symmetry_cell_setting	triclinic
loop_
_symmetry_equiv_pos_as_xyz
  x,y,z
_cell_length_a	14.908571
_cell_length_b	13.897448
_cell_length_c	14.908308
_cell_angle_alpha	93.267188
_cell_angle_beta	90.175053
_cell_angle_gamma	86.713891
loop_
_atom_site_label
_atom_site_type_symbol
_atom_site_fract_x
_atom_site_fract_y
_atom_site_fract_z
Zn1	Zn	1.345318	-0.503381	-0.587582
Zn2	Zn	1.845318	-0.003381	-0.087582
Zn3	Zn	1.353905	-0.655952	-0.437223
Zn4	Zn	1.853905	-0.155952	0.062777
Zn5	Zn	1.203632	-0.484854	-0.428580
Zn6	Zn	1.703632	0.015146	0.071420
Zn7	Zn	1.194933	-0.654806	-0.578874
Zn8	Zn	1.694933	-0.154806	-0.078874
O9	O	1.274447	-0.574748	-0.508065
O10	O	1.774447	-0.074748	-0.008065
O11	O	1.472283	-0.531853	-0.574898
O12	O	1.972283	-0.031853	-0.074898
O13	O	1.341206	-0.625981	-0.310251
O14	O	1.841206	-0.125981	0.189749
O15	O	1.222474	-0.352335	-0.449699
O16	O	1.722474	0.147665	0.050301
O17	O	1.478592	-0.643947	-0.464429
O18	O	1.978592	-0.143947	0.035571
O19	O	1.326570	-0.365946	-0.566518
O20	O	1.826570	0.134054	-0.066518
O21	O	1.230801	-0.500276	-0.303902
O22	O	1.730801	-0.000276	0.196098
O23	O	1.076652	-0.499165	-0.441256
O24	O	1.576652	0.000835	0.058744
O25	O	1.207647	-0.641993	-0.705854
O26	O	1.707647	-0.141993	-0.205854
O27	O	1.070260	-0.624028	-0.551676
O28	O	1.570260	-0.124028	-0.051676
O29	O	1.318134	-0.530742	-0.712252
O30	O	1.818134	-0.030742	-0.212252
O31	O	1.332770	-0.790777	-0.455986
O32	O	1.832770	-0.290777	0.044014
O33	O	1.215974	-0.789935	-0.560056
O34	O	1.715974	-0.289935	-0.060056
C35	C	1.040831	-0.559463	-0.494584
C36	C	1.540831	-0.059463	0.005416
C37	C	0.940888	-0.552948	-0.488838
C38	C	1.440888	-0.052948	0.011162
C39	C	0.746485	-0.670908	-0.592867
C40	C	1.246485	-0.170908	-0.092867
C41	C	0.652579	-0.664790	-0.587471
C42	C	1.152579	-0.164790	-0.087471
C43	C	0.659168	-0.534590	-0.472656
C44	C	1.159168	-0.034590	0.027344
C45	C	0.753074	-0.540708	-0.478051
C46	C	1.253074	-0.040708	0.021949
C47	C	0.796729	-0.608870	-0.538158
C48	C	1.296729	-0.108870	-0.038158
C49	C	0.890637	-0.614992	-0.543549
C50	C	1.390637	-0.114992	-0.043549
C51	C	0.897224	-0.484788	-0.428738
C52	C	1.397224	0.015212	0.071262
C53	C	0.803318	-0.478670	-0.423343
C54	C	1.303318	0.021330	0.076657
C55	C	1.274383	-0.825357	-0.508035
C56	C	1.774383	-0.325357	-0.008035
C57	C	1.274436	-0.932575	-0.508057
C58	C	1.774436	-0.432575	-0.008057
C59	C	1.274527	-1.128880	-0.508119
C60	C	1.774527	-0.628880	-0.008119
C61	C	1.274474	-1.019642	-0.508087
C62	C	1.774474	-0.519642	-0.008087
C63	C	1.508975	-0.590094	-0.521599
C64	C	2.008975	-0.090094	-0.021599
C65	C	1.608918	-0.596634	-0.527367
C66	C	2.108918	-0.096634	-0.027367
C67	C	1.260963	-0.588307	-0.742590
C68	C	1.760963	-0.088307	-0.242590
C69	C	1.255216	-0.594084	-0.842531
C70	C	1.755216	-0.094084	-0.342531
C71	C	1.274535	-0.323164	-0.508116
C72	C	1.774535	0.176836	-0.008116
C73	C	1.274572	-0.215954	-0.508138
C74	C	1.774572	0.284046	-0.008138
C75	C	1.359466	-0.489073	-1.036993
C76	C	1.859466	0.010927	-0.536993
C77	C	1.354070	-0.494498	-1.130897
C78	C	1.854070	0.005502	-0.630897
C79	C	1.239023	-0.610355	-1.124242
C80	C	1.739023	-0.110355	-0.624242
C81	C	1.244420	-0.604930	-1.030339
C82	C	1.744420	-0.104930	-0.530339
C83	C	1.304644	-0.544287	-0.986718
C84	C	1.804644	-0.044287	-0.486718
C85	C	1.310044	-0.538868	-0.892813
C86	C	1.810044	-0.038868	-0.392813
C87	C	1.194994	-0.654719	-0.886160
C88	C	1.694994	-0.154719	-0.386160
C89	C	1.189597	-0.660144	-0.980064
C90	C	1.689597	-0.160144	-0.480064
C91	C	1.287931	-0.561177	-0.274455
C92	C	1.787931	-0.061177	0.225545
C93	C	1.293851	-0.555139	-0.174525
C94	C	1.793851	-0.055139	0.325475
H95	H	0.926180	-0.670495	-0.592489
H96	H	1.426180	-0.170495	-0.092489
O97	O	1.375002	-0.473466	-0.845766
O98	O	1.875002	0.026534	-0.345766
H99	H	1.369555	-0.478975	-0.772022
H100	H	1.869555	0.021025	-0.272022
O101	O	1.174056	-0.675742	-1.171296
O102	O	1.674056	-0.175742	-0.671296
H103	H	1.179514	-0.670231	-1.245038
H104	H	1.679514	-0.170231	-0.745038
O105	O	1.135823	-0.714233	-0.831927
O106	O	1.635823	-0.214233	-0.331927
H107	H	1.093033	-0.757300	-0.878039
H108	H	1.593033	-0.257300	-0.378039
H109	H	0.938142	-0.434274	-0.384188
H110	H	1.438142	0.065726	0.115812
O111	O	1.413189	-0.434928	-1.185119
O112	O	1.913189	0.065072	-0.685119
H113	H	1.399311	-0.448875	-1.257745
H114	H	1.899311	0.051125	-0.757745
O115	O	0.598430	-0.731787	-0.646435
O116	O	1.098430	-0.231787	-0.146435
H117	H	0.612410	-0.720679	-0.718081
H118	H	1.112410	-0.220679	-0.218081
O119	O	1.424424	-0.423680	-0.989933
O120	O	1.924424	0.076320	-0.489933
H121	H	1.407993	-0.348007	-1.007070
H122	H	1.907993	0.151993	-0.507070
O123	O	0.793581	-0.744421	-0.657690
O124	O	1.293581	-0.244421	-0.157690
H125	H	0.742865	-0.786531	-0.694830
H126	H	1.242865	-0.286531	-0.194830
O127	O	0.612079	-0.461106	-0.407800
O128	O	1.112079	0.038894	0.092200
H129	H	0.538340	-0.467292	-0.413229
H130	H	1.038340	0.032708	0.086771
O131	O	0.756224	-0.405156	-0.358519
O132	O	1.256224	0.094844	0.141481
H133	H	0.806941	-0.363041	-0.321386
H134	H	1.306941	0.136959	0.178614
H135	H	1.140563	-0.709515	-1.015593
H136	H	1.640563	-0.209515	-0.515593
