data_functionalizedCrystal
_audit_creation_method	'MofGen! by Chris Wilmer'
_symmetry_space_group_name_H-M	'P1'
_symmetry_Int_Tables_number	1
_symmetry_cell_setting	triclinic
loop_
_symmetry_equiv_pos_as_xyz
  x,y,z
_cell_length_a	13.897449
_cell_length_b	16.625539
_cell_length_c	13.897447
_cell_angle_alpha	89.973723
_cell_angle_beta	90.020810
_cell_angle_gamma	89.980569
loop_
_atom_site_label
_atom_site_type_symbol
_atom_site_fract_x
_atom_site_fract_y
_atom_site_fract_z
Zn1	Zn	1.474678	-0.455896	-0.383980
Zn2	Zn	1.724678	-0.205896	-0.133980
Zn3	Zn	1.974678	0.044104	0.116020
Zn4	Zn	2.224678	0.294104	0.366020
Zn5	Zn	1.474570	-0.321068	-0.545293
Zn6	Zn	1.724570	-0.071068	-0.295293
Zn7	Zn	1.974570	0.178932	-0.045293
Zn8	Zn	2.224570	0.428932	0.204707
Zn9	Zn	1.313371	-0.321079	-0.384018
Zn10	Zn	1.563371	-0.071079	-0.134018
Zn11	Zn	1.813371	0.178921	0.115982
Zn12	Zn	2.063371	0.428921	0.365982
Zn13	Zn	1.313344	-0.455861	-0.545239
Zn14	Zn	1.563344	-0.205861	-0.295239
Zn15	Zn	1.813344	0.044139	-0.045239
Zn16	Zn	2.063344	0.294139	0.204761
O17	O	1.393991	-0.388476	-0.464632
O18	O	1.643991	-0.138476	-0.214632
O19	O	1.893991	0.111524	0.035368
O20	O	2.143991	0.361524	0.285368
O21	O	1.609645	-0.438021	-0.405386
O22	O	1.859645	-0.188021	-0.155386
O23	O	2.109645	0.061979	0.094614
O24	O	2.359645	0.311979	0.344614
O25	O	1.453153	-0.208237	-0.523938
O26	O	1.703153	0.041763	-0.273938
O27	O	1.953153	0.291763	-0.023938
O28	O	2.203153	0.541763	0.226062
O29	O	1.334825	-0.338983	-0.249031
O30	O	1.584825	-0.088983	0.000969
O31	O	1.834825	0.161017	0.250969
O32	O	2.084825	0.411017	0.500969
O33	O	1.609566	-0.338964	-0.523902
O34	O	1.859566	-0.088964	-0.273902
O35	O	2.109566	0.161036	-0.023902
O36	O	2.359566	0.411036	0.226098
O37	O	1.453336	-0.438032	-0.249004
O38	O	1.703336	-0.188032	0.000996
O39	O	1.953336	0.061968	0.250996
O40	O	2.203336	0.311968	0.500996
O41	O	1.334721	-0.208246	-0.405450
O42	O	1.584721	0.041754	-0.155450
O43	O	1.834721	0.291754	0.094550
O44	O	2.084721	0.541754	0.344550
O45	O	1.178385	-0.338948	-0.405397
O46	O	1.428385	-0.088948	-0.155397
O47	O	1.678385	0.161052	0.094603
O48	O	1.928385	0.411052	0.344603
O49	O	1.334779	-0.568698	-0.523809
O50	O	1.584779	-0.318698	-0.273809
O51	O	1.834779	-0.068698	-0.023809
O52	O	2.084779	0.181302	0.226191
O53	O	1.178366	-0.437972	-0.523845
O54	O	1.428366	-0.187972	-0.273845
O55	O	1.678366	0.062028	-0.023845
O56	O	1.928366	0.312028	0.226155
O57	O	1.453310	-0.568724	-0.405333
O58	O	1.703310	-0.318724	-0.155333
O59	O	1.953310	-0.068724	0.094667
O60	O	2.203310	0.181276	0.344667
O61	O	1.453127	-0.338929	-0.680268
O62	O	1.703127	-0.088929	-0.430268
O63	O	1.953127	0.161071	-0.180268
O64	O	2.203127	0.411071	0.069732
O65	O	1.334674	-0.437961	-0.680227
O66	O	1.584674	-0.187961	-0.430227
O67	O	1.834674	0.062039	-0.180227
O68	O	2.084674	0.312039	0.069773
C69	C	1.143376	-0.388458	-0.464620
C70	C	1.393376	-0.138458	-0.214620
C71	C	1.643376	0.111542	0.035380
C72	C	1.893376	0.361542	0.285380
C73	C	1.036162	-0.388469	-0.464637
C74	C	1.286162	-0.138469	-0.214637
C75	C	1.536162	0.111531	0.035363
C76	C	1.786162	0.361531	0.285363
C77	C	0.839867	-0.388490	-0.464641
C78	C	1.089867	-0.138490	-0.214641
C79	C	1.339867	0.111510	0.035359
C80	C	1.589867	0.361510	0.285359
C81	C	0.949100	-0.388476	-0.464636
C82	C	1.199100	-0.138476	-0.214636
C83	C	1.449100	0.111524	0.035364
C84	C	1.699100	0.361524	0.285364
C85	C	1.394053	-0.598785	-0.464561
C86	C	1.644053	-0.348785	-0.214561
C87	C	1.894053	-0.098785	0.035439
C88	C	2.144053	0.151215	0.285439
C89	C	1.394080	-0.688406	-0.464530
C90	C	1.644080	-0.438406	-0.214530
C91	C	1.894080	-0.188406	0.035470
C92	C	2.144080	0.061594	0.285470
C93	C	1.394125	-1.016582	-0.464422
C94	C	1.644125	-0.766582	-0.214422
C95	C	1.894125	-0.516582	0.035578
C96	C	2.144125	-0.266582	0.285578
C97	C	1.394109	-0.925274	-0.464455
C98	C	1.644109	-0.675274	-0.214455
C99	C	1.894109	-0.425274	0.035545
C100	C	2.144109	-0.175274	0.285545
C101	C	1.394103	-0.852497	-0.464477
C102	C	1.644103	-0.602497	-0.214477
C103	C	1.894103	-0.352497	0.035523
C104	C	2.144103	-0.102497	0.285523
C105	C	1.394087	-0.761183	-0.464508
C106	C	1.644087	-0.511183	-0.214508
C107	C	1.894087	-0.261183	0.035492
C108	C	2.144087	-0.011183	0.285492
C109	C	1.645584	-0.388495	-0.464646
C110	C	1.895584	-0.138495	-0.214646
C111	C	2.145584	0.111505	0.035354
C112	C	2.395584	0.361505	0.285354
C113	C	1.752797	-0.388503	-0.464652
C114	C	2.002797	-0.138503	-0.214652
C115	C	2.252797	0.111497	0.035348
C116	C	2.502797	0.361497	0.285348
C117	C	1.393912	-0.388458	-0.715247
C118	C	1.643912	-0.138458	-0.465247
C119	C	1.893912	0.111542	-0.215247
C120	C	2.143912	0.361542	0.034753
C121	C	1.393967	-0.388476	-0.822461
C122	C	1.643967	-0.138476	-0.572461
C123	C	1.893967	0.111524	-0.322461
C124	C	2.143967	0.361524	-0.072461
C125	C	1.393984	-0.178985	-0.464634
C126	C	1.643984	0.071015	-0.214634
C127	C	1.893984	0.321015	0.035366
C128	C	2.143984	0.571015	0.285366
C129	C	1.394144	-0.089365	-0.464393
C130	C	1.644144	0.160635	-0.214393
C131	C	1.894144	0.410635	0.035607
C132	C	2.144144	0.660635	0.285607
C133	C	1.394014	-0.388495	-0.909530
C134	C	1.644014	-0.138495	-0.659530
C135	C	1.894014	0.111505	-0.409530
C136	C	2.144014	0.361505	-0.159530
C137	C	1.394081	-0.388516	-1.018763
C138	C	1.644081	-0.138516	-0.768763
C139	C	1.894081	0.111484	-0.518763
C140	C	2.144081	0.361484	-0.268763
C141	C	1.394096	-0.388513	-0.213039
C142	C	1.644096	-0.138513	0.036961
C143	C	1.894096	0.111487	0.286961
C144	C	2.144096	0.361487	0.536961
C145	C	1.394140	-0.388528	-0.105825
C146	C	1.644140	-0.138528	0.144175
C147	C	1.894140	0.111472	0.394175
C148	C	2.144140	0.361472	0.644175
