data_functionalizedCrystal
_audit_creation_method	'MofGen! by Chris Wilmer'
_symmetry_space_group_name_H-M	'P1'
_symmetry_Int_Tables_number	1
_symmetry_cell_setting	triclinic
loop_
_symmetry_equiv_pos_as_xyz
  x,y,z
_cell_length_a	6.817900
_cell_length_b	10.773890
_cell_length_c	19.453114
_cell_angle_alpha	96.632036
_cell_angle_beta	101.709288
_cell_angle_gamma	96.645716
loop_
_atom_site_label
_atom_site_type_symbol
_atom_site_fract_x
_atom_site_fract_y
_atom_site_fract_z
V1	V	-3.972243	-0.173886	-0.217846
O2	O	-3.996138	0.007019	-0.214877
O3	O	-3.890140	-0.343502	-0.215224
O4	O	-3.915573	-0.171798	-0.313373
O5	O	-3.970529	-0.165873	-0.116048
V6	V	-4.461309	-0.152179	-0.205808
O7	O	-4.221341	-0.221504	-0.244253
O8	O	-4.662409	-0.104561	-0.179401
O9	O	-4.320205	0.017437	-0.208430
O10	O	-4.554811	-0.333085	-0.208777
O11	O	-4.580420	-0.160192	-0.307606
O12	O	-4.294773	-0.154267	-0.110281
C13	C	-3.727210	-0.384833	-0.211495
C14	C	-3.741313	-0.523500	-0.209988
C15	C	-3.919162	-0.591378	-0.212607
C16	C	-3.933742	-0.734698	-0.211049
C17	C	-3.759651	-0.165805	-0.336693
C18	C	-3.794377	-0.165220	-0.414779
C19	C	-3.991230	-0.171207	-0.454997
C20	C	-4.023860	-0.170657	-0.528367
C21	C	-3.859629	-0.164146	-0.561519
C22	C	-3.662748	-0.158152	-0.521292
C23	C	-3.630122	-0.158689	-0.447922
N24	N	-3.786796	-0.230022	-0.679872
N25	N	-3.817802	-0.229515	-0.749571
C26	C	-3.957917	-0.162524	-0.782578
N27	N	-4.065888	-0.096077	-0.743256
N28	N	-4.034886	-0.096590	-0.673551
C29	C	-3.894986	-0.163562	-0.641076
C30	C	-4.190163	-0.167914	-0.902353
C31	C	-4.222785	-0.167356	-0.975724
C32	C	-3.861669	-0.154863	-0.968648
C33	C	-3.829051	-0.155408	-0.895277
C34	C	-3.993306	-0.161940	-0.862135
C35	C	-4.146476	0.058761	-0.212157
C36	C	-4.111611	0.197427	-0.213669
C37	C	-4.114036	-0.160264	-0.086957
C38	C	-4.058550	-0.160843	-0.008870
H39	H	-4.253095	-0.754591	-0.217067
C40	C	-4.193685	-0.544711	-0.158394
C41	C	-4.110149	-0.526603	-0.217185
H42	H	-4.311601	-0.504728	-0.161222
H43	H	-4.097603	-0.509159	-0.116138
H44	H	-4.228537	-0.632531	-0.157957
H45	H	-4.075283	-0.438783	-0.217620
H46	H	-4.206251	-0.562150	-0.259452
H47	H	-3.668756	-0.150547	-0.862532
C48	C	-3.601733	-0.717711	-0.204743
C49	C	-3.550321	-0.588271	-0.205401
H50	H	-3.483812	-0.757691	-0.201907
H51	H	-3.697787	-0.753254	-0.247007
H52	H	-3.658436	-0.729970	-0.164862
H53	H	-3.493631	-0.576011	-0.245286
H54	H	-3.454232	-0.552716	-0.163133
H55	H	-4.124982	-0.176520	-0.428017
H56	H	-3.727946	-0.149551	-0.995638
H57	H	-4.383088	-0.172222	-1.008467
H58	H	-3.792263	-0.782684	-0.207658
H59	H	-4.323909	-0.173227	-0.875366
C60	C	-4.357245	-0.288987	-0.565745
C61	C	-4.240254	-0.177271	-0.572596
H62	H	-4.490830	-0.293079	-0.593055
H63	H	-4.361345	-0.290222	-0.517312
H64	H	-4.298914	-0.359426	-0.582234
H65	H	-4.298577	-0.106831	-0.556102
H66	H	-4.236163	-0.176025	-0.621040
C67	C	-3.399592	-0.259905	-0.370086
C68	C	-3.413719	-0.152167	-0.403726
H69	H	-3.265992	-0.255889	-0.342803
H70	H	-3.430468	-0.333043	-0.404796
H71	H	-3.492715	-0.263837	-0.339835
H72	H	-3.320606	-0.148240	-0.433982
H73	H	-3.382819	-0.079009	-0.369012
H74	H	-3.529031	-0.152846	-0.548289
