data_functionalizedCrystal
_audit_creation_method	'MofGen! by Chris Wilmer'
_symmetry_space_group_name_H-M	'P1'
_symmetry_Int_Tables_number	1
_symmetry_cell_setting	triclinic
loop_
_symmetry_equiv_pos_as_xyz
  x,y,z
_cell_length_a	11.892095
_cell_length_b	12.837943
_cell_length_c	12.837942
_cell_angle_alpha	94.828940
_cell_angle_beta	85.697431
_cell_angle_gamma	94.310562
loop_
_atom_site_label
_atom_site_type_symbol
_atom_site_fract_x
_atom_site_fract_y
_atom_site_fract_z
O1	O	-0.093982	-1.408367	-0.266110
O2	O	-0.093989	-1.105234	-0.252667
O3	O	-0.093979	-1.250078	-0.107822
O4	O	-0.093992	-1.263522	-0.410955
O5	O	0.094028	-1.237999	-0.119879
O6	O	0.094018	-1.093155	-0.264723
O7	O	0.094025	-1.396288	-0.278167
Zn8	Zn	0.123871	-1.242803	-0.273359
Zn9	Zn	-0.123836	-1.258718	-0.257474
O10	O	0.094014	-1.251443	-0.423011
C11	C	0.000014	-1.060125	-0.254153
C12	C	0.000011	-0.943710	-0.240609
N13	N	0.292925	-1.231950	-0.284200
C14	C	0.000024	-1.239497	-0.074781
C15	C	0.000022	-1.225953	0.041634
N16	N	-0.292889	-1.269579	-0.246626
C17	C	0.529580	-1.345098	-0.171130
C18	C	0.647922	-1.337519	-0.178716
C19	C	0.647951	-1.209210	-0.306952
C20	C	0.529610	-1.216788	-0.299366
C21	C	0.470428	-1.284736	-0.231454
C22	C	0.352085	-1.292319	-0.223874
C23	C	0.352116	-1.164005	-0.352104
C24	C	0.470458	-1.156426	-0.359690
C25	C	0.000020	-1.441397	-0.276680
C26	C	0.000015	-1.557812	-0.290224
C27	C	0.000020	-0.718835	-0.403439
C28	C	0.000019	-0.609453	-0.390717
C29	C	0.000015	-0.615561	-0.202446
C30	C	0.000017	-0.724943	-0.215167
C31	C	0.000017	-0.776577	-0.315667
C32	C	0.000011	-0.885961	-0.328387
C33	C	0.000015	-0.892066	-0.140117
C34	C	0.000014	-0.782684	-0.127395
C35	C	0.000009	-1.262024	-0.456052
C36	C	0.000004	-1.275569	-0.572467
C37	C	0.000002	-1.388784	0.266509
C38	C	-0.000000	-1.376062	0.375892
C39	C	0.000007	-1.187791	0.369784
C40	C	0.000009	-1.200512	0.260402
C41	C	0.000008	-1.301011	0.208768
C42	C	0.000019	-1.313731	0.099383
C43	C	0.000018	-1.125461	0.093278
C44	C	0.000016	-1.112740	0.202660
H45	H	0.303901	-1.347647	-0.168579
O46	O	0.000011	-0.774535	-0.511827
H47	H	0.076636	-0.819307	-0.527035
H48	H	-0.000004	-1.105969	0.411844
O49	O	0.000030	-1.030790	0.030990
H50	H	0.076667	-0.978300	0.045607
O51	O	0.000007	-1.497175	0.210816
H52	H	0.000017	-1.491274	0.125054
O53	O	0.000035	-0.559858	-0.094059
H54	H	-0.076591	-0.515088	-0.078842
H55	H	0.481394	-1.400430	-0.115841
O56	O	0.711727	-1.402635	-0.113667
H57	H	0.650689	-1.451162	-0.065180
H58	H	0.000013	-0.928000	-0.410219
H59	H	0.303941	-1.114857	-0.401227
H60	H	0.000005	-0.939091	-0.068646
O61	O	0.000021	-0.726987	-0.019006
H62	H	-0.076605	-0.754370	0.028605
O63	O	-0.000000	-1.470734	0.438166
H64	H	-0.000009	-1.445009	0.522903
H65	H	0.518656	-1.101102	-0.414980
H66	H	0.000024	-0.562444	-0.462191
O67	O	0.711789	-1.135929	-0.380196
H68	H	0.804016	-1.140807	-0.375336
O69	O	0.000001	-1.422125	0.043692
H70	H	0.076617	-1.459914	0.061248
H71	H	0.000012	-1.030916	0.244716
