data_functionalizedCrystal
_audit_creation_method	'MofGen! by Chris Wilmer'
_symmetry_space_group_name_H-M	'P1'
_symmetry_Int_Tables_number	1
_symmetry_cell_setting	triclinic
loop_
_symmetry_equiv_pos_as_xyz
  x,y,z
_cell_length_a	14.971494
_cell_length_b	10.723023
_cell_length_c	14.048226
_cell_angle_alpha	89.993700
_cell_angle_beta	89.995286
_cell_angle_gamma	84.042553
loop_
_atom_site_label
_atom_site_type_symbol
_atom_site_fract_x
_atom_site_fract_y
_atom_site_fract_z
O1	O	0.125452	1.655887	-0.079154
O2	O	0.137461	1.292609	-0.079156
O3	O	0.001309	1.483979	-0.079153
O4	O	0.261604	1.464516	-0.079157
O5	O	0.001301	1.483956	0.079168
O6	O	0.137453	1.292586	0.079165
O7	O	0.125444	1.655864	0.079167
Zn8	Zn	0.131447	1.474221	0.104303
Zn9	Zn	0.131458	1.474251	-0.104292
O10	O	0.261595	1.464493	0.079164
C11	C	0.136583	1.246107	0.000004
C12	C	0.133969	1.107580	0.000003
C13	C	0.130097	0.902640	0.082015
C14	C	0.132799	1.045815	0.082018
C15	C	-0.032024	1.483095	0.000006
C16	C	-0.131335	1.480481	0.000002
C17	C	-0.177982	1.479269	-0.086300
C18	C	-0.271294	1.476805	-0.086301
C19	C	-0.317959	1.475562	0.000001
C20	C	-0.271305	1.476771	0.086309
C21	C	-0.177994	1.479226	0.086309
C22	C	-0.465796	1.471657	0.086303
C23	C	-0.559114	1.469204	0.086303
C24	C	-0.559096	1.469235	-0.086308
C25	C	-0.465785	1.471690	-0.086308
C26	C	-0.419138	1.472902	0.000001
C27	C	0.294929	1.465377	0.000003
C28	C	0.394240	1.467991	0.000001
C29	C	0.126322	1.702366	0.000005
C30	C	0.128936	1.840893	-0.000001
N31	N	0.131439	1.474209	0.246664
N32	N	0.131458	1.474273	-0.246653
C33	C	0.071176	1.558975	0.296483
C34	C	0.071176	1.558983	0.396141
C35	C	0.131443	1.474231	0.445977
C36	C	0.191709	1.389457	0.396151
C37	C	0.191704	1.389444	0.296495
C38	C	0.191715	1.389493	0.603865
C39	C	0.191721	1.389508	0.703528
C40	C	0.071187	1.559033	0.703511
C41	C	0.071182	1.559019	0.603855
C42	C	0.131449	1.474246	0.554036
H43	H	-0.139995	1.480287	-0.156577
C44	C	0.258005	1.296205	0.241694
N45	N	0.307945	1.225975	0.200419
H46	H	0.240776	1.320444	0.436733
C47	C	0.004860	1.652202	0.450938
N48	N	-0.045100	1.722407	0.492210
H49	H	0.240788	1.320457	0.563305
C50	C	0.134163	1.117546	0.176881
N51	N	0.135197	1.171577	0.248335
H52	H	0.129096	0.849507	0.152229
C53	C	-0.414487	1.472994	0.181248
N54	N	-0.375841	1.474010	0.252759
C55	C	-0.610409	1.467895	-0.181249
N56	N	-0.649062	1.466889	-0.252756
C57	C	0.004889	1.652280	0.758314
N58	N	-0.045043	1.722513	0.799597
C59	C	-0.414456	1.473062	-0.181244
N60	N	-0.375795	1.474092	-0.252752
H61	H	0.132968	1.054487	-0.070217
C62	C	0.258013	1.296269	0.758346
N63	N	0.307944	1.226038	0.799635
H64	H	-0.309270	1.475822	-0.156577
C65	C	0.130294	0.912666	-0.094861
N66	N	0.131315	0.966725	-0.166312
C67	C	-0.610442	1.467828	0.181239
N68	N	-0.649102	1.466789	0.252747
H69	H	-0.309306	1.475752	0.156578
C70	C	0.004876	1.652210	0.241673
N71	N	-0.045067	1.722433	0.200392
C72	C	-0.126683	1.480564	0.181248
N73	N	-0.088037	1.481568	0.252760
H74	H	0.022113	1.628036	0.563279
