data_functionalizedCrystal
_audit_creation_method	'MofGen! by Chris Wilmer'
_symmetry_space_group_name_H-M	'P1'
_symmetry_Int_Tables_number	1
_symmetry_cell_setting	triclinic
loop_
_symmetry_equiv_pos_as_xyz
  x,y,z
_cell_length_a	29.839134
_cell_length_b	29.839131
_cell_length_c	18.050582
_cell_angle_alpha	90.033130
_cell_angle_beta	90.024639
_cell_angle_gamma	90.030088
loop_
_atom_site_label
_atom_site_type_symbol
_atom_site_fract_x
_atom_site_fract_y
_atom_site_fract_z
Zn1	Zn	0.686751	-0.178943	0.420051
Zn2	Zn	1.020084	0.154390	0.753384
Zn3	Zn	1.353417	0.487723	1.086717
Zn4	Zn	0.686688	-0.254066	0.295838
Zn5	Zn	1.020021	0.079268	0.629171
Zn6	Zn	1.353354	0.412601	0.962504
Zn7	Zn	0.611630	-0.178944	0.295854
Zn8	Zn	0.944963	0.154390	0.629187
Zn9	Zn	1.278297	0.487723	0.962520
Zn10	Zn	0.611589	-0.254040	0.419965
Zn11	Zn	0.944923	0.079293	0.753298
Zn12	Zn	1.278256	0.412626	1.086632
O13	O	0.649164	-0.216498	0.357927
O14	O	0.982498	0.116835	0.691260
O15	O	1.315831	0.450168	1.024593
O16	O	0.749609	-0.188919	0.403602
O17	O	1.082943	0.144414	0.736936
O18	O	1.416276	0.477748	1.070269
O19	O	0.676722	-0.244111	0.191915
O20	O	1.010055	0.089222	0.525248
O21	O	1.343388	0.422555	0.858582
O22	O	0.621638	-0.116077	0.312371
O23	O	0.954972	0.217257	0.645704
O24	O	1.288305	0.550590	0.979038
O25	O	0.749563	-0.244111	0.312344
O26	O	1.082896	0.089222	0.645677
O27	O	1.416230	0.422556	0.979010
O28	O	0.676829	-0.116076	0.403618
O29	O	1.010163	0.217257	0.736951
O30	O	1.343496	0.550590	1.070285
O31	O	0.621577	-0.188920	0.191927
O32	O	0.954910	0.144414	0.525260
O33	O	1.288244	0.477747	0.858593
O34	O	0.548758	-0.188895	0.312288
O35	O	0.882091	0.144438	0.645621
O36	O	1.215424	0.477772	0.978955
O37	O	0.621569	-0.244068	0.523901
O38	O	0.954902	0.089265	0.857234
O39	O	1.288236	0.422599	1.190568
O40	O	0.548728	-0.244068	0.403472
O41	O	0.882061	0.089265	0.736806
O42	O	1.215394	0.422598	1.070139
O43	O	0.676790	-0.188895	0.523964
O44	O	1.010123	0.144439	0.857297
O45	O	1.343457	0.477772	1.190630
O46	O	0.676682	-0.316929	0.312261
O47	O	1.010015	0.016404	0.645594
O48	O	1.343349	0.349737	0.978928
O49	O	0.621508	-0.316911	0.403457
O50	O	0.954841	0.016422	0.736790
O51	O	1.288175	0.349756	1.070124
C52	C	0.532442	-0.216479	0.357873
C53	C	0.865775	0.116854	0.691206
C54	C	1.199109	0.450187	1.024540
C55	C	0.482507	-0.216482	0.357868
C56	C	0.815841	0.116851	0.691201
C57	C	1.149174	0.450185	1.024534
C58	C	0.172858	-0.245269	0.405348
C59	C	0.506191	0.088064	0.738681
C60	C	0.839525	0.421397	1.072015
C61	C	-0.014815	-0.245282	0.405381
C62	C	0.318518	0.088051	0.738714
C63	C	0.651852	0.421385	1.072048
O64	O	-0.039085	-0.269737	0.445719
O65	O	0.294248	0.063596	0.779052
O66	O	0.627582	0.396929	1.112386
N67	N	-0.038278	-0.216515	0.357983
N68	N	0.295056	0.116819	0.691316
N69	N	0.628389	0.450152	1.024649
C70	C	-0.014819	-0.187740	0.310576
C71	C	0.318514	0.145593	0.643909
C72	C	0.651848	0.478927	0.977243
O73	O	-0.039082	-0.163269	0.270267
O74	O	0.294252	0.170065	0.603600
O75	O	0.627585	0.503398	0.936933
C76	C	0.172853	-0.187726	0.310547
C77	C	0.506186	0.145608	0.643881
C78	C	0.839520	0.478941	0.977214
C79	C	0.196313	-0.216498	0.357943
C80	C	0.529647	0.116835	0.691277
C81	C	0.862980	0.450169	1.024610
C82	C	0.196318	-0.274039	0.452741
C83	C	0.529651	0.059294	0.786074
C84	C	0.862985	0.392627	1.119408
C85	C	0.243234	-0.274038	0.452729
C86	C	0.576567	0.059296	0.786063
C87	C	0.909900	0.392629	1.119396
C88	C	0.266689	-0.245266	0.405325
C89	C	0.600022	0.088067	0.738658
C90	C	0.933356	0.421401	1.071992
C91	C	0.243229	-0.216496	0.357932
C92	C	0.576562	0.116837	0.691265
C93	C	0.909895	0.450170	1.024599
C94	C	0.196311	-0.158949	0.263145
C95	C	0.529644	0.174384	0.596478
C96	C	0.862978	0.507718	0.929811
C97	C	0.243232	-0.158947	0.263143
C98	C	0.576565	0.174386	0.596477
C99	C	0.909899	0.507720	0.929810
C100	C	0.266692	-0.187720	0.310539
C101	C	0.600025	0.145614	0.643873
C102	C	0.933359	0.478947	0.977206
C103	C	0.313599	-0.187723	0.310516
C104	C	0.646933	0.145610	0.643849
C105	C	0.980266	0.478944	0.977182
N106	N	0.337062	-0.216490	0.357914
N107	N	0.670395	0.116843	0.691248
N108	N	1.003729	0.450176	1.024581
C109	C	0.313607	-0.245262	0.405319
C110	C	0.646940	0.088071	0.738652
C111	C	0.980273	0.421405	1.071985
C112	C	-0.113350	-0.187750	0.310593
C113	C	0.219984	0.145583	0.643927
C114	C	0.553317	0.478916	0.977260
C115	C	-0.160268	-0.187755	0.310599
C116	C	0.173066	0.145579	0.643933
C117	C	0.506399	0.478912	0.977266
C118	C	-0.160260	-0.245296	0.405406
C119	C	0.173073	0.088037	0.738739
C120	C	0.506406	0.421371	1.072072
C121	C	-0.113342	-0.245294	0.405395
C122	C	0.219992	0.088039	0.738729
C123	C	0.553325	0.421373	1.072062
C124	C	-0.089887	-0.216518	0.357992
C125	C	0.243446	0.116816	0.691325
C126	C	0.576780	0.450149	1.024658
C127	C	0.412133	-0.245256	0.405290
C128	C	0.745466	0.088077	0.738624
C129	C	1.078799	0.421410	1.071957
C130	C	0.459052	-0.245253	0.405272
C131	C	0.792385	0.088080	0.738606
C132	C	1.125719	0.421413	1.071939
C133	C	0.459041	-0.187710	0.310469
C134	C	0.792374	0.145623	0.643802
C135	C	1.125708	0.478956	0.977136
C136	C	0.412125	-0.187715	0.310484
C137	C	0.745459	0.145619	0.643817
C138	C	1.078792	0.478952	0.977151
C139	C	0.388672	-0.216489	0.357901
C140	C	0.722006	0.116844	0.691234
C141	C	1.055339	0.450177	1.024567
O142	O	0.337898	-0.163277	0.270205
O143	O	0.671232	0.170056	0.603538
O144	O	1.004565	0.503389	0.936872
O145	O	0.337877	-0.269723	0.445634
O146	O	0.671211	0.063611	0.778967
O147	O	1.004544	0.396944	1.112300
C148	C	0.125943	-0.245271	0.405360
C149	C	0.459276	0.088062	0.738693
C150	C	0.792609	0.421395	1.072026
C151	C	0.102482	-0.216501	0.357967
C152	C	0.435816	0.116832	0.691300
C153	C	0.769149	0.450165	1.024633
C154	C	0.125938	-0.187730	0.310562
C155	C	0.459271	0.145603	0.643895
C156	C	0.792604	0.478937	0.977229
C157	C	0.055564	-0.216506	0.357973
C158	C	0.388898	0.116828	0.691306
C159	C	0.722231	0.450161	1.024639
C160	C	0.032109	-0.245277	0.405377
C161	C	0.365443	0.088056	0.738711
C162	C	0.698776	0.421390	1.072044
C163	C	0.055572	-0.274044	0.452776
C164	C	0.388905	0.059289	0.786109
C165	C	0.722238	0.392622	1.119443
C166	C	0.102487	-0.274043	0.452764
C167	C	0.435821	0.059291	0.786098
C168	C	0.769154	0.392624	1.119431
C169	C	0.102475	-0.158963	0.263164
C170	C	0.435808	0.174371	0.596497
C171	C	0.769142	0.507704	0.929830
C172	C	0.055560	-0.158967	0.263178
C173	C	0.388893	0.174366	0.596512
C174	C	0.722226	0.507700	0.929845
C175	C	0.032104	-0.187739	0.310583
C176	C	0.365438	0.145595	0.643916
C177	C	0.698771	0.478928	0.977250
C178	C	0.649096	-0.333221	0.357864
C179	C	0.982429	0.000112	0.691197
C180	C	1.315763	0.333446	1.024531
C181	C	0.649108	-0.383155	0.357862
C182	C	0.982441	-0.049822	0.691195
C183	C	1.315774	0.283511	1.024529
C184	C	0.677896	-0.692764	0.405507
C185	C	1.011229	-0.359430	0.738840
C186	C	1.344563	-0.026097	1.072173
C187	C	0.677945	-0.880437	0.405551
C188	C	1.011278	-0.547103	0.738885
C189	C	1.344611	-0.213770	1.072218
O190	O	0.702355	-0.904672	0.446014
O191	O	1.035688	-0.571338	0.779347
O192	O	1.369021	-0.238005	1.112681
N193	N	0.649241	-0.903940	0.358009
N194	N	0.982574	-0.570607	0.691342
N195	N	1.315907	-0.237274	1.024676
C196	C	0.620520	-0.880523	0.310456
C197	C	0.953854	-0.547190	0.643789
C198	C	1.287187	-0.213856	0.977122
O199	O	0.596104	-0.904820	0.270025
O200	O	0.929437	-0.571487	0.603358
O201	O	1.262770	-0.238154	0.936691
C202	C	0.620470	-0.692851	0.310415
C203	C	0.953803	-0.359517	0.643749
C204	C	1.287136	-0.026184	0.977082
C205	C	0.649179	-0.669349	0.357955
C206	C	0.982512	-0.336016	0.691289
C207	C	1.315845	-0.002683	1.024622
C208	C	0.706603	-0.669262	0.453043
C209	C	1.039936	-0.335929	0.786377
C210	C	1.373269	-0.002596	1.119710
C211	C	0.706592	-0.622347	0.453029
C212	C	1.039925	-0.289014	0.786362
C213	C	1.373258	0.044320	1.119696
C214	C	0.677875	-0.598933	0.405478
C215	C	1.011208	-0.265599	0.738811
C216	C	1.344541	0.067734	1.072144
C217	C	0.649168	-0.622434	0.357941
C218	C	0.982501	-0.289101	0.691274
C219	C	1.315835	0.044233	1.024608
C220	C	0.591747	-0.669434	0.262866
C221	C	0.925081	-0.336101	0.596200
C222	C	1.258414	-0.002767	0.929533
C223	C	0.591736	-0.622513	0.262862
C224	C	0.925070	-0.289180	0.596195
C225	C	1.258403	0.044154	0.929529
C226	C	0.620446	-0.599012	0.310402
C227	C	0.953779	-0.265678	0.643735
C228	C	1.287112	0.067655	0.977069
C229	C	0.620440	-0.552104	0.310375
C230	C	0.953773	-0.218771	0.643709
C231	C	1.287107	0.114562	0.977042
N232	N	0.649144	-0.528601	0.357917
N233	N	0.982477	-0.195267	0.691251
N234	N	1.315811	0.138066	1.024584
C235	C	0.677861	-0.552015	0.405469
C236	C	1.011195	-0.218682	0.738802
C237	C	1.344528	0.114652	1.072135
C238	C	0.620550	-0.979053	0.310479
C239	C	0.953883	-0.645720	0.643813
C240	C	1.287216	-0.312387	0.977146
C241	C	0.620563	-1.025971	0.310488
C242	C	0.953896	-0.692638	0.643822
C243	C	1.287229	-0.359305	0.977155
C244	C	0.677987	-1.025882	0.405585
C245	C	1.011320	-0.692549	0.738918
C246	C	1.344653	-0.359215	1.072252
C247	C	0.677976	-0.978963	0.405572
C248	C	1.011309	-0.645630	0.738905
C249	C	1.344642	-0.312297	1.072238
C250	C	0.649254	-0.955550	0.358022
C251	C	0.982587	-0.622216	0.691355
C252	C	1.315920	-0.288883	1.024688
C253	C	0.677837	-0.453489	0.405434
C254	C	1.011170	-0.120156	0.738768
C255	C	1.344504	0.213178	1.072101
C256	C	0.677825	-0.406570	0.405413
C257	C	1.011158	-0.073236	0.738747
C258	C	1.344492	0.260097	1.072080
C259	C	0.620399	-0.406663	0.310320
C260	C	0.953733	-0.073330	0.643653
C261	C	1.287066	0.260004	0.976986
C262	C	0.620413	-0.453578	0.310338
C263	C	0.953746	-0.120245	0.643671
C264	C	1.287080	0.213088	0.977004
C265	C	0.649133	-0.476990	0.357901
C266	C	0.982466	-0.143657	0.691234
C267	C	1.315800	0.189676	1.024567
O268	O	0.596040	-0.527840	0.269940
O269	O	0.929373	-0.194507	0.603273
O270	O	1.262706	0.138826	0.936606
O271	O	0.702267	-0.527709	0.445905
O272	O	1.035601	-0.194376	0.779239
O273	O	1.368934	0.138957	1.112572
C274	C	0.677907	-0.739679	0.405521
C275	C	1.011240	-0.406346	0.738854
C276	C	1.344573	-0.073012	1.072188
C277	C	0.649200	-0.763180	0.357984
C278	C	0.982534	-0.429847	0.691318
C279	C	1.315867	-0.096514	1.024651
C280	C	0.620483	-0.739766	0.310433
C281	C	0.953816	-0.406433	0.643767
C282	C	1.287150	-0.073099	0.977100
C283	C	0.649213	-0.810098	0.357993
C284	C	0.982547	-0.476765	0.691327
C285	C	1.315880	-0.143432	1.024660
C286	C	0.677931	-0.833512	0.405545
C287	C	1.011264	-0.500179	0.738878
C288	C	1.344597	-0.166846	1.072211
C289	C	0.706635	-0.810009	0.453087
C290	C	1.039968	-0.476675	0.786420
C291	C	1.373301	-0.143342	1.119754
C292	C	0.706624	-0.763093	0.453072
C293	C	1.039957	-0.429760	0.786406
C294	C	1.373291	-0.096427	1.119739
C295	C	0.591779	-0.763270	0.262891
C296	C	0.925112	-0.429936	0.596224
C297	C	1.258446	-0.096603	0.929558
C298	C	0.591792	-0.810185	0.262909
C299	C	0.925126	-0.476852	0.596242
C300	C	1.258459	-0.143519	0.929576
C301	C	0.620510	-0.833599	0.310460
C302	C	0.953843	-0.500266	0.643793
C303	C	1.287176	-0.166933	0.977127
C304	C	0.766343	-0.216518	0.357981
C305	C	1.099676	0.116816	0.691314
C306	C	1.433009	0.450149	1.024648
C307	C	0.816277	-0.216526	0.358004
C308	C	1.149611	0.116807	0.691337
C309	C	1.482944	0.450141	1.024671
C310	C	0.649182	-0.216478	0.551632
C311	C	0.982515	0.116855	0.884966
C312	C	1.315849	0.450188	1.218299
C313	C	0.649190	-0.216470	0.634178
C314	C	0.982523	0.116863	0.967512
C315	C	1.315856	0.450197	1.300845
C316	C	0.649245	-0.099320	0.358006
C317	C	0.982579	0.234013	0.691339
C318	C	1.315912	0.567347	1.024672
C319	C	0.649280	-0.049385	0.358040
C320	C	0.982613	0.283948	0.691373
C321	C	1.315947	0.617281	1.024706
C322	C	0.649173	-0.216486	0.164975
C323	C	0.982506	0.116848	0.498308
C324	C	1.315839	0.450181	0.831641
C325	C	0.649252	-0.216368	0.082429
C326	C	0.982586	0.116966	0.415763
C327	C	1.315919	0.450299	0.749096
C328	C	0.619183	-0.246432	0.833595
C329	C	0.952517	0.086901	1.166928
C330	C	1.285850	0.420234	1.500262
C331	C	0.660169	-0.257417	0.882994
C332	C	0.993503	0.075916	1.216328
C333	C	1.326836	0.409249	1.549661
C334	C	0.649212	-0.216436	0.785309
C335	C	0.982545	0.116898	1.118642
C336	C	1.315878	0.450231	1.451975
C337	C	0.608248	-0.205438	0.882991
C338	C	0.941582	0.127895	1.216324
C339	C	1.274915	0.461229	1.549658
C340	C	0.649229	-0.216403	0.931294
C341	C	0.982563	0.116930	1.264627
C342	C	1.315896	0.450263	1.597961
C343	C	0.690219	-0.227442	0.833621
C344	C	1.023552	0.105891	1.166954
C345	C	1.356886	0.439224	1.500288
C346	C	0.638270	-0.175444	0.833613
C347	C	0.971604	0.157890	1.166947
C348	C	1.304937	0.491223	1.500280
C349	C	0.679285	-0.186413	0.882990
C350	C	1.012618	0.146920	1.216324
C351	C	1.345951	0.480253	1.549657
C352	C	0.649201	-0.216455	0.701210
C353	C	0.982534	0.116878	1.034544
C354	C	1.315867	0.450211	1.367877
C355	C	0.649245	-0.216384	1.015390
C356	C	0.982578	0.116950	1.348724
C357	C	1.315912	0.450283	1.682057
H358	H	-0.094243	-0.268722	0.443991
H359	H	0.239090	0.064611	0.777324
H360	H	0.572423	0.397944	1.110657
N361	N	0.707302	-0.954954	0.454123
N362	N	1.040635	-0.621621	0.787456
N363	N	1.373969	-0.288288	1.120790
N364	N	0.735934	-0.928763	0.428039
N365	N	1.069267	-0.595430	0.761372
N366	N	1.402601	-0.262097	1.094705
H367	H	0.756648	-0.911809	0.462329
H368	H	1.089982	-0.578475	0.795662
H369	H	1.423315	-0.245142	1.128996
H370	H	0.701221	-0.472546	0.444170
H371	H	1.034554	-0.139212	0.777503
H372	H	1.367887	0.194121	1.110836
H373	H	0.628993	-0.140801	0.811906
H374	H	0.962327	0.192532	1.145239
H375	H	1.295660	0.525865	1.478572
H376	H	0.262326	-0.135511	0.224545
H377	H	0.595659	0.197822	0.557878
H378	H	0.928993	0.531156	0.891212
N379	N	0.172363	-0.129549	0.214733
N380	N	0.505697	0.203784	0.548066
N381	N	0.839030	0.537118	0.881400
N382	N	0.177635	-0.088100	0.219804
N383	N	0.510968	0.245233	0.553138
N384	N	0.844301	0.578567	0.886471
H385	H	0.160724	-0.067333	0.185611
H386	H	0.494057	0.266000	0.518944
H387	H	0.827390	0.599334	0.852278
N388	N	0.591202	-0.955144	0.261911
N389	N	0.924535	-0.621811	0.595245
N390	N	1.257868	-0.288478	0.928578
N391	N	0.549748	-0.960425	0.266768
N392	N	0.883081	-0.627092	0.600101
N393	N	1.216415	-0.293758	0.933434
H394	H	0.529020	-0.943542	0.232465
H395	H	0.862353	-0.610209	0.565798
H396	H	1.195687	-0.276876	0.899132
N397	N	0.707321	-1.049810	0.454149
N398	N	1.040654	-0.716477	0.787483
N399	N	1.373988	-0.383144	1.120816
N400	N	0.707325	-1.091701	0.454144
N401	N	1.040658	-0.758368	0.787477
N402	N	1.373991	-0.425034	1.120811
H403	H	0.728039	-1.108603	0.488443
H404	H	1.061373	-0.775270	0.821776
H405	H	1.394706	-0.441936	1.155109
H406	H	-0.179366	-0.268723	0.444005
H407	H	0.153968	0.064610	0.777338
H408	H	0.487301	0.397944	1.110671
N409	N	0.564780	-0.193790	0.910197
N410	N	0.898113	0.139543	1.243530
N411	N	1.231447	0.472876	1.576863
N412	N	0.531674	-0.217630	0.894356
N413	N	0.865007	0.115703	1.227689
N414	N	1.198340	0.449037	1.561023
H415	H	0.500973	-0.209408	0.913568
H416	H	0.834306	0.123926	1.246902
H417	H	1.167640	0.457259	1.580235
N418	N	0.671798	-0.300888	0.910200
N419	N	1.005131	0.032446	1.243533
N420	N	1.338465	0.365779	1.576867
N421	N	0.679764	-0.332023	0.865767
N422	N	1.013097	0.001310	1.199100
N423	N	1.346430	0.334644	1.532434
H424	H	0.687974	-0.362725	0.884978
H425	H	1.021308	-0.029392	1.218311
H426	H	1.354641	0.303942	1.551644
H427	H	0.478151	-0.268685	0.443869
H428	H	0.811485	0.064648	0.777202
H429	H	1.144818	0.397982	1.110535
H430	H	0.393023	-0.164287	0.271889
H431	H	0.726356	0.169046	0.605222
H432	H	1.059690	0.502380	0.938555
H433	H	0.597020	-0.387592	0.271602
H434	H	0.930353	-0.054259	0.604935
H435	H	1.263686	0.279075	0.938268
N436	N	0.562404	-0.598591	0.214287
N437	N	0.895737	-0.265257	0.547620
N438	N	1.229070	0.068076	0.880953
N439	N	0.562396	-0.556700	0.214276
N440	N	0.895729	-0.223367	0.547609
N441	N	1.229062	0.109966	0.880942
H442	H	0.541681	-0.539805	0.179969
H443	H	0.875014	-0.206472	0.513302
H444	H	1.208347	0.126862	0.846635
H445	H	0.724879	-0.236770	0.812025
H446	H	1.058212	0.096563	1.145359
H447	H	1.391545	0.429897	1.478692
N448	N	0.711189	-0.154574	0.910021
N449	N	1.044523	0.178759	1.243355
N450	N	1.377856	0.512092	1.576688
N451	N	0.751736	-0.158698	0.894050
N452	N	1.085069	0.174636	1.227384
N453	N	1.418402	0.507969	1.560717
H454	H	0.774270	-0.136213	0.913141
H455	H	1.107603	0.197120	1.246474
H456	H	1.440937	0.530454	1.579808
N457	N	0.172372	-0.303440	0.501165
N458	N	0.505705	0.029894	0.834499
N459	N	0.839039	0.363227	1.167832
N460	N	0.177603	-0.344888	0.496095
N461	N	0.510937	-0.011554	0.829428
N462	N	0.844270	0.321779	1.162762
H463	H	0.160695	-0.365657	0.530294
H464	H	0.494028	-0.032323	0.863628
H465	H	0.827362	0.301010	1.196961
H466	H	0.036466	-0.297473	0.491372
H467	H	0.369800	0.035861	0.824706
H468	H	0.703133	0.369194	1.158039
H469	H	0.393043	-0.268686	0.443903
H470	H	0.726376	0.064647	0.777237
H471	H	1.059709	0.397980	1.110570
H472	H	-0.094257	-0.164317	0.271988
H473	H	0.239076	0.169016	0.605321
H474	H	0.572409	0.502350	0.938655
N475	N	-0.184235	-0.158366	0.262191
N476	N	0.149098	0.174967	0.595525
N477	N	0.482431	0.508300	0.928858
N478	N	-0.226126	-0.158368	0.262200
N479	N	0.107207	0.174966	0.595534
N480	N	0.440541	0.508299	0.928867
H481	H	-0.243053	-0.137609	0.228014
H482	H	0.090281	0.195724	0.561348
H483	H	0.423614	0.529058	0.894681
N484	N	0.587359	-0.278299	0.806392
N485	N	0.920692	0.055035	1.139726
N486	N	1.254025	0.388368	1.473059
N487	N	0.591462	-0.318865	0.822229
N488	N	0.924795	0.014468	1.155562
N489	N	1.258128	0.347802	1.488895
H490	H	0.568987	-0.341372	0.803017
H491	H	0.902321	-0.008039	1.136350
H492	H	1.235654	0.325295	1.469683
H493	H	0.478147	-0.164287	0.271871
H494	H	0.811480	0.169047	0.605205
H495	H	1.144813	0.502380	0.938538
N496	N	0.267187	-0.303430	0.501150
N497	N	0.600520	0.029903	0.834484
N498	N	0.933854	0.363237	1.167817
N499	N	0.246231	-0.329113	0.543470
N500	N	0.579565	0.004220	0.876803
N501	N	0.912898	0.337553	1.210137
H502	H	0.263145	-0.349873	0.577672
H503	H	0.596479	-0.016540	0.911005
H504	H	0.929812	0.316794	1.244339
H505	H	0.568393	-0.744210	0.224170
H506	H	0.901727	-0.410876	0.557503
H507	H	1.235060	-0.077543	0.890837
N508	N	0.591248	-1.049975	0.261910
N509	N	0.924582	-0.716642	0.595243
N510	N	1.257915	-0.383308	0.928577
N511	N	0.594256	-1.044759	0.193387
N512	N	0.927590	-0.711426	0.526721
N513	N	1.260923	-0.378093	0.860054
H514	H	0.573551	-1.061711	0.159078
H515	H	0.906885	-0.728378	0.492411
H516	H	1.240218	-0.395044	0.825745
N517	N	0.126441	-0.303437	0.501182
N518	N	0.459774	0.029896	0.834515
N519	N	0.793107	0.363229	1.167848
N520	N	0.105485	-0.329122	0.543499
N521	N	0.438818	0.004211	0.876832
N522	N	0.772152	0.337545	1.210166
H523	H	0.122399	-0.349884	0.577697
H524	H	0.455732	-0.016551	0.911031
H525	H	0.789066	0.316783	1.244364
H526	H	0.568369	-0.688561	0.224154
H527	H	0.901703	-0.355227	0.557487
H528	H	1.235036	-0.021894	0.890821
H529	H	0.036462	-0.135538	0.224576
H530	H	0.369796	0.197796	0.557909
H531	H	0.703129	0.531129	0.891243
N532	N	0.591105	-0.477580	0.261741
N533	N	0.924438	-0.144247	0.595075
N534	N	1.257771	0.189087	0.928408
N535	N	0.565478	-0.456667	0.219270
N536	N	0.898811	-0.123333	0.552603
N537	N	1.232144	0.210000	0.885937
H538	H	0.544781	-0.473615	0.184943
H539	H	0.878114	-0.140281	0.518276
H540	H	1.211447	0.193052	0.851609
H541	H	0.121568	-0.135533	0.224560
H542	H	0.454901	0.197800	0.557894
H543	H	0.788234	0.531134	0.891227
H544	H	0.701205	-0.387436	0.444126
H545	H	1.034538	-0.054103	0.777459
H546	H	1.367872	0.279230	1.110793
N547	N	0.735954	-0.739098	0.501637
N548	N	1.069287	-0.405765	0.834970
N549	N	1.402621	-0.072431	1.168303
N550	N	0.761590	-0.760017	0.544085
N551	N	1.094924	-0.426684	0.877418
N552	N	1.428257	-0.093350	1.210752
H553	H	0.782306	-0.743073	0.578387
H554	H	1.115640	-0.409740	0.911720
H555	H	1.448973	-0.076407	1.245053
H556	H	0.729968	-0.603215	0.491742
H557	H	1.063301	-0.269882	0.825075
H558	H	1.396635	0.063452	1.158409
H559	H	0.729987	-0.688321	0.491770
H560	H	1.063321	-0.354988	0.825103
H561	H	1.396654	-0.021655	1.158436
H562	H	0.730019	-0.829081	0.491802
H563	H	1.063352	-0.495747	0.825136
H564	H	1.396686	-0.162414	1.158469
N565	N	0.562465	-0.834181	0.214333
N566	N	0.895799	-0.500848	0.547667
N567	N	1.229132	-0.167515	0.881000
N568	N	0.536828	-0.813264	0.171883
N569	N	0.870161	-0.479931	0.505217
N570	N	1.203495	-0.146598	0.838550
H571	H	0.516114	-0.830210	0.137581
H572	H	0.849447	-0.496876	0.470914
H573	H	1.182781	-0.163543	0.804247
