data_functionalizedCrystal
_audit_creation_method	'MofGen! by Chris Wilmer'
_symmetry_space_group_name_H-M	'P1'
_symmetry_Int_Tables_number	1
_symmetry_cell_setting	triclinic
loop_
_symmetry_equiv_pos_as_xyz
  x,y,z
_cell_length_a	29.839131
_cell_length_b	21.295420
_cell_length_c	21.295411
_cell_angle_alpha	90.025759
_cell_angle_beta	89.979636
_cell_angle_gamma	89.964538
loop_
_atom_site_label
_atom_site_type_symbol
_atom_site_fract_x
_atom_site_fract_y
_atom_site_fract_z
Zn1	Zn	-0.178976	-0.962308	-0.355937
Zn2	Zn	0.154357	-0.628974	-0.022604
Zn3	Zn	0.487691	-0.295641	0.310730
Zn4	Zn	-0.254091	-0.962190	-0.250665
Zn5	Zn	0.079242	-0.628857	0.082669
Zn6	Zn	0.412575	-0.295523	0.416002
Zn7	Zn	-0.178968	-0.857031	-0.250680
Zn8	Zn	0.154365	-0.523697	0.082653
Zn9	Zn	0.487698	-0.190364	0.415987
Zn10	Zn	-0.254072	-0.856980	-0.355894
Zn11	Zn	0.079262	-0.523647	-0.022561
Zn12	Zn	0.412595	-0.190313	0.310772
O13	O	-0.216527	-0.909627	-0.303294
O14	O	0.116806	-0.576294	0.030039
O15	O	0.450140	-0.242960	0.363373
O16	O	-0.188952	-1.050381	-0.341984
O17	O	0.144382	-0.717048	-0.008651
O18	O	0.477715	-0.383715	0.324683
O19	O	-0.244131	-0.948212	-0.162577
O20	O	0.089202	-0.614879	0.170756
O21	O	0.422535	-0.281546	0.504089
O22	O	-0.116102	-0.871066	-0.264667
O23	O	0.217231	-0.537733	0.068667
O24	O	0.550564	-0.204400	0.402000
O25	O	-0.244139	-1.050295	-0.264641
O26	O	0.089195	-0.716962	0.068692
O27	O	0.422528	-0.383628	0.402026
O28	O	-0.116108	-0.948413	-0.341999
O29	O	0.217226	-0.615079	-0.008665
O30	O	0.550559	-0.281746	0.324668
O31	O	-0.188939	-0.870952	-0.162588
O32	O	0.144395	-0.537619	0.170745
O33	O	0.477728	-0.204286	0.504078
O34	O	-0.188920	-0.768935	-0.264625
O35	O	0.144414	-0.435601	0.068708
O36	O	0.477747	-0.102268	0.402041
O37	O	-0.244105	-0.870980	-0.443989
O38	O	0.089228	-0.537647	-0.110656
O39	O	0.422562	-0.204313	0.222677
O40	O	-0.244098	-0.768897	-0.341926
O41	O	0.089235	-0.435564	-0.008593
O42	O	0.422569	-0.102231	0.324741
O43	O	-0.188932	-0.948364	-0.444021
O44	O	0.144401	-0.615030	-0.110687
O45	O	0.477734	-0.281697	0.222646
O46	O	-0.316956	-0.948163	-0.264600
O47	O	0.016377	-0.614830	0.068734
O48	O	0.349711	-0.281496	0.402067
O49	O	-0.316942	-0.870866	-0.341911
O50	O	0.016392	-0.537533	-0.008578
O51	O	0.349725	-0.204199	0.324755
C52	C	-0.216506	-0.746075	-0.303273
C53	C	0.116827	-0.412742	0.030060
C54	C	0.450160	-0.079409	0.363394
C55	C	-0.216508	-0.676107	-0.303279
C56	C	0.116825	-0.342774	0.030055
C57	C	0.450159	-0.009441	0.363388
C58	C	-0.187843	-0.176694	-0.343627
C59	C	0.145490	0.156640	-0.010293
C60	C	0.478824	0.489973	0.323040
C61	C	-0.187841	-0.242436	-0.343628
C62	C	0.145492	0.090897	-0.010294
C63	C	0.478826	0.424230	0.323039
C64	C	-0.216527	-0.275268	-0.303296
C65	C	0.116807	0.058065	0.030038
C66	C	0.450140	0.391399	0.363371
C67	C	-0.245225	-0.242352	-0.262971
C68	C	0.088108	0.090982	0.070362
C69	C	0.421442	0.424315	0.403696
C70	C	-0.245229	-0.176610	-0.262975
C71	C	0.088104	0.156723	0.070358
C72	C	0.421437	0.490056	0.403691
N73	N	-0.219909	-0.378457	-0.248178
N74	N	0.113425	-0.045124	0.085155
N75	N	0.446758	0.288210	0.418488
N76	N	-0.219902	-0.440908	-0.248176
N77	N	0.113431	-0.107575	0.085157
N78	N	0.446765	0.225758	0.418491
C79	C	-0.216516	-0.473343	-0.303281
C80	C	0.116817	-0.140009	0.030052
C81	C	0.450150	0.193324	0.363385
N82	N	-0.213129	-0.440966	-0.358390
N83	N	0.120205	-0.107633	-0.025057
N84	N	0.453538	0.225700	0.308276
N85	N	-0.213133	-0.378509	-0.358392
N86	N	0.120200	-0.045176	-0.025058
N87	N	0.453534	0.288158	0.308275
C88	C	-0.216526	-0.346553	-0.303287
C89	C	0.116808	-0.013220	0.030046
C90	C	0.450141	0.320113	0.363380
C91	C	-0.187820	-0.577537	-0.343608
C92	C	0.145513	-0.244203	-0.010275
C93	C	0.478846	0.089130	0.323058
C94	C	-0.187821	-0.643280	-0.343611
C95	C	0.145512	-0.309947	-0.010277
C96	C	0.478845	0.023386	0.323056
C97	C	-0.245203	-0.643194	-0.262948
C98	C	0.088130	-0.309861	0.070385
C99	C	0.421464	0.023472	0.403719
C100	C	-0.245204	-0.577452	-0.262951
C101	C	0.088129	-0.244119	0.070382
C102	C	0.421462	0.089215	0.403715
C103	C	-0.216510	-0.544627	-0.303280
C104	C	0.116823	-0.211294	0.030053
C105	C	0.450156	0.122040	0.363386
C106	C	-0.333250	-0.909513	-0.303263
C107	C	0.000084	-0.576180	0.030071
C108	C	0.333417	-0.242847	0.363404
C109	C	-0.383184	-0.909522	-0.303271
C110	C	-0.049851	-0.576189	0.030063
C111	C	0.283483	-0.242856	0.363396
C112	C	-0.692822	-0.949949	-0.263097
C113	C	-0.359489	-0.616616	0.070237
C114	C	-0.026155	-0.283282	0.403570
C115	C	-0.880495	-0.950027	-0.263121
C116	C	-0.547162	-0.616693	0.070212
C117	C	-0.213829	-0.283360	0.403546
O118	O	-0.904756	-0.984309	-0.228940
O119	O	-0.571422	-0.650975	0.104393
O120	O	-0.238089	-0.317642	0.437727
N121	N	-0.903969	-0.909758	-0.303342
N122	N	-0.570636	-0.576424	0.029992
N123	N	-0.237302	-0.243091	0.363325
C124	C	-0.880522	-0.869469	-0.343562
C125	C	-0.547188	-0.536136	-0.010228
C126	C	-0.213855	-0.202803	0.323105
O127	O	-0.904794	-0.835224	-0.377777
O128	O	-0.571460	-0.501891	-0.044443
O129	O	-0.238127	-0.168558	0.288890
C130	C	-0.692849	-0.869395	-0.343540
C131	C	-0.359516	-0.536062	-0.010207
C132	C	-0.026183	-0.202728	0.323127
C133	C	-0.669378	-0.909662	-0.303312
C134	C	-0.336045	-0.576329	0.030021
C135	C	-0.002711	-0.242996	0.363354
C136	C	-0.669351	-0.990213	-0.222873
C137	C	-0.336017	-0.656880	0.110460
C138	C	-0.002684	-0.323547	0.443794
C139	C	-0.622435	-0.990191	-0.222865
C140	C	-0.289102	-0.656858	0.110469
C141	C	0.044231	-0.323524	0.443802
C142	C	-0.598991	-0.949904	-0.263080
C143	C	-0.265658	-0.616571	0.070253
C144	C	0.067675	-0.283238	0.403586
C145	C	-0.622463	-0.909640	-0.303304
C146	C	-0.289129	-0.576307	0.030029
C147	C	0.044204	-0.242973	0.363362
C148	C	-0.669403	-0.829110	-0.383763
C149	C	-0.336070	-0.495777	-0.050429
C150	C	-0.002736	-0.162444	0.282904
C151	C	-0.622482	-0.829097	-0.383755
C152	C	-0.289149	-0.495763	-0.050421
C153	C	0.044185	-0.162430	0.282912
C154	C	-0.599011	-0.869364	-0.343527
C155	C	-0.265677	-0.536030	-0.010194
C156	C	0.067656	-0.202697	0.323139
C157	C	-0.552103	-0.869331	-0.343512
C158	C	-0.218770	-0.535998	-0.010178
C159	C	0.114564	-0.202665	0.323155
N160	N	-0.528629	-0.909600	-0.303291
N161	N	-0.195296	-0.576267	0.030042
N162	N	0.138037	-0.242934	0.363375
C163	C	-0.552073	-0.949887	-0.263076
C164	C	-0.218740	-0.616553	0.070258
C165	C	0.114593	-0.283220	0.403591
C166	C	-0.979052	-0.869510	-0.343569
C167	C	-0.645719	-0.536177	-0.010236
C168	C	-0.312386	-0.202843	0.323097
C169	C	-1.025970	-0.869528	-0.343574
C170	C	-0.692637	-0.536194	-0.010241
C171	C	-0.359303	-0.202861	0.323093
C172	C	-1.025940	-0.950086	-0.263134
C173	C	-0.692607	-0.616753	0.070199
C174	C	-0.359274	-0.283419	0.403532
C175	C	-0.979022	-0.950065	-0.263127
C176	C	-0.645688	-0.616731	0.070207
C177	C	-0.312355	-0.283398	0.403540
C178	C	-0.955578	-0.909779	-0.303349
C179	C	-0.622245	-0.576446	0.029984
C180	C	-0.288912	-0.243112	0.363318
C181	C	-0.453548	-0.949837	-0.263061
C182	C	-0.120214	-0.616503	0.070272
C183	C	0.213119	-0.283170	0.403605
C184	C	-0.406628	-0.949809	-0.263055
C185	C	-0.073295	-0.616476	0.070278
C186	C	0.260039	-0.283142	0.403612
C187	C	-0.406662	-0.869253	-0.343497
C188	C	-0.073328	-0.535920	-0.010163
C189	C	0.260005	-0.202587	0.323170
C190	C	-0.453577	-0.869278	-0.343501
C191	C	-0.120244	-0.535945	-0.010168
C192	C	0.213089	-0.202612	0.323166
C193	C	-0.477019	-0.909575	-0.303281
C194	C	-0.143686	-0.576242	0.030052
C195	C	0.189648	-0.242908	0.363385
O196	O	-0.527814	-0.835072	-0.377680
O197	O	-0.194480	-0.501739	-0.044347
O198	O	0.138853	-0.168406	0.288987
O199	O	-0.527793	-0.984136	-0.228876
O200	O	-0.194460	-0.650803	0.104458
O201	O	0.138873	-0.317470	0.437791
C202	C	-0.739738	-0.949971	-0.263105
C203	C	-0.406404	-0.616638	0.070229
C204	C	-0.073071	-0.283304	0.403562
C205	C	-0.763209	-0.909707	-0.303329
C206	C	-0.429876	-0.576373	0.030005
C207	C	-0.096542	-0.243040	0.363338
C208	C	-0.739765	-0.869420	-0.343544
C209	C	-0.406432	-0.536087	-0.010211
C210	C	-0.073098	-0.202754	0.323122
C211	C	-0.810127	-0.909724	-0.303333
C212	C	-0.476793	-0.576391	0.030000
C213	C	-0.143460	-0.243058	0.363333
C214	C	-0.833571	-0.950011	-0.263118
C215	C	-0.500238	-0.616678	0.070216
C216	C	-0.166904	-0.283344	0.403549
C217	C	-0.810097	-0.990280	-0.222897
C218	C	-0.476764	-0.656947	0.110436
C219	C	-0.143430	-0.323613	0.443769
C220	C	-0.763182	-0.990258	-0.222889
C221	C	-0.429848	-0.656924	0.110444
C222	C	-0.096515	-0.323591	0.443778
C223	C	-0.763239	-0.829151	-0.383765
C224	C	-0.429905	-0.495818	-0.050431
C225	C	-0.096572	-0.162485	0.282902
C226	C	-0.810154	-0.829176	-0.383769
C227	C	-0.476821	-0.495843	-0.050436
C228	C	-0.143487	-0.162510	0.282898
C229	C	-0.833598	-0.869463	-0.343553
C230	C	-0.500265	-0.536130	-0.010220
C231	C	-0.166932	-0.202796	0.323113
C232	C	-0.099349	-0.909758	-0.303339
C233	C	0.233985	-0.576425	0.029994
C234	C	0.567318	-0.243092	0.363328
C235	C	-0.049414	-0.909814	-0.303358
C236	C	0.283919	-0.576481	0.029975
C237	C	0.617253	-0.243148	0.363308
C238	C	-0.216517	-0.909679	-0.467484
C239	C	0.116816	-0.576346	-0.134151
C240	C	0.450149	-0.243013	0.199182
C241	C	-0.216513	-0.909702	-0.537452
C242	C	0.116820	-0.576368	-0.204119
C243	C	0.450153	-0.243035	0.129214
C244	C	-0.216543	-0.073817	-0.303310
C245	C	0.116791	0.259516	0.030023
C246	C	0.450124	0.592849	0.363356
C247	C	-0.216535	-0.143785	-0.303304
C248	C	0.116798	0.189548	0.030029
C249	C	0.450131	0.522881	0.363362
C250	C	-0.187784	-0.949993	-0.570337
C251	C	0.145550	-0.616660	-0.237003
C252	C	0.478883	-0.283327	0.096330
C253	C	-0.187764	-0.949993	-0.636079
C254	C	0.145569	-0.616659	-0.302746
C255	C	0.478902	-0.283326	0.030588
C256	C	-0.216482	-0.909706	-0.668935
C257	C	0.116851	-0.576373	-0.335602
C258	C	0.450184	-0.243040	-0.002268
C259	C	-0.245214	-0.869407	-0.636043
C260	C	0.088119	-0.536073	-0.302710
C261	C	0.421453	-0.202740	0.030624
C262	C	-0.245230	-0.869404	-0.570302
C263	C	0.088104	-0.536071	-0.236968
C264	C	0.421437	-0.202738	0.096365
N265	N	-0.255783	-0.904839	-0.772152
N266	N	0.077551	-0.571506	-0.438818
N267	N	0.410884	-0.238173	-0.105485
N268	N	-0.255767	-0.904845	-0.834603
N269	N	0.077567	-0.571512	-0.501270
N270	N	0.410900	-0.238179	-0.167936
C271	C	-0.216437	-0.909710	-0.867010
C272	C	0.116896	-0.576377	-0.533677
C273	C	0.450230	-0.243044	-0.200343
N274	N	-0.177123	-0.914582	-0.834606
N275	N	0.156210	-0.581248	-0.501273
N276	N	0.489544	-0.247915	-0.167939
N277	N	-0.177139	-0.914579	-0.772149
N278	N	0.156194	-0.581246	-0.438815
N279	N	0.489527	-0.247912	-0.105482
C280	C	-0.216469	-0.909704	-0.740220
C281	C	0.116865	-0.576371	-0.406887
C282	C	0.450198	-0.243038	-0.073554
C283	C	-0.187684	-0.950004	-0.971179
C284	C	0.145650	-0.616670	-0.637846
C285	C	0.478983	-0.283337	-0.304513
C286	C	-0.187663	-0.949998	-1.036923
C287	C	0.145670	-0.616665	-0.703590
C288	C	0.479003	-0.283332	-0.370257
C289	C	-0.245117	-0.869416	-1.036886
C290	C	0.088216	-0.536082	-0.703553
C291	C	0.421549	-0.202749	-0.370219
C292	C	-0.245134	-0.869418	-0.971144
C293	C	0.088200	-0.536084	-0.637810
C294	C	0.421533	-0.202751	-0.304477
C295	C	-0.216417	-0.909715	-0.938294
C296	C	0.116916	-0.576382	-0.604961
C297	C	0.450249	-0.243048	-0.271628
C298	C	-0.216504	-0.909611	-0.139742
C299	C	0.116829	-0.576278	0.193591
C300	C	0.450163	-0.242945	0.526924
C301	C	-0.216381	-0.909711	-0.069775
C302	C	0.116952	-0.576378	0.263559
C303	C	0.450285	-0.243044	0.596892
H304	H	-0.268582	-0.269087	-0.230134
H305	H	0.064751	0.064246	0.103199
H306	H	0.398084	0.397579	0.436533
H307	H	-0.268595	-0.149817	-0.230139
H308	H	0.064738	0.183517	0.103194
H309	H	0.398072	0.516850	0.436527
H310	H	-0.472689	-0.836491	-0.376260
H311	H	-0.139355	-0.503158	-0.042926
H312	H	0.193978	-0.169825	0.290407
H313	H	-0.164456	-0.550809	-0.376447
H314	H	0.168877	-0.217476	-0.043113
H315	H	0.502211	0.115858	0.290220
H316	H	-0.164400	-0.982806	-0.543595
H317	H	0.168933	-0.649473	-0.210261
H318	H	0.502267	-0.316139	0.123072
C319	C	-0.156056	-0.994324	-1.073096
C320	C	0.177277	-0.660991	-0.739762
C321	C	0.510611	-0.327657	-0.406429
N322	N	-0.132249	-1.027711	-1.100341
N323	N	0.201084	-0.694378	-0.767008
N324	N	0.534418	-0.361045	-0.433674
C325	C	-0.156092	-0.994325	-0.935043
C326	C	0.177242	-0.660992	-0.601710
C327	C	0.510575	-0.327659	-0.268376
N328	N	-0.132295	-1.027708	-0.907827
N329	N	0.201038	-0.694375	-0.574493
N330	N	0.534371	-0.361041	-0.241160
H331	H	-0.164458	-0.670073	-0.376450
H332	H	0.168875	-0.336740	-0.043117
H333	H	0.502209	-0.003406	0.290217
C334	C	-0.276708	-0.825101	-1.073024
C335	C	0.056625	-0.491767	-0.739691
C336	C	0.389958	-0.158434	-0.406357
N337	N	-0.300503	-0.791721	-1.100246
N338	N	0.032830	-0.458388	-0.766913
N339	N	0.366163	-0.125054	-0.433579
H340	H	-0.268563	-0.669925	-0.230114
H341	H	0.064770	-0.336592	0.103220
H342	H	0.398103	-0.003259	0.436553
H343	H	-0.268531	-0.836611	-0.944369
H344	H	0.064802	-0.503278	-0.611036
H345	H	0.398136	-0.169945	-0.277702
H346	H	-0.164474	-0.269235	-0.376462
H347	H	0.168859	0.064098	-0.043129
H348	H	0.502193	0.397431	0.290205
C349	C	-0.156283	-0.140590	-0.387995
C350	C	0.177051	0.192743	-0.054662
C351	C	0.510384	0.526077	0.278671
N352	N	-0.132512	-0.113396	-0.421416
N353	N	0.200821	0.219938	-0.088083
N354	N	0.534154	0.553271	0.245250
C355	C	-0.276837	-0.825080	-0.534128
C356	C	0.056496	-0.491746	-0.200795
C357	C	0.389830	-0.158413	0.132538
N358	N	-0.300645	-0.791694	-0.506881
N359	N	0.032689	-0.458361	-0.173548
N360	N	0.366022	-0.125028	0.159785
H361	H	-1.045076	-0.836732	-0.376325
H362	H	-0.711743	-0.503399	-0.042992
H363	H	-0.378410	-0.170066	0.290341
H364	H	-0.268567	-0.550658	-0.230114
H365	H	0.064767	-0.217324	0.103220
H366	H	0.398100	0.116009	0.436553
H367	H	-0.387519	-0.982599	-0.230295
H368	H	-0.054186	-0.649266	0.103039
H369	H	0.279148	-0.315933	0.436372
H370	H	-0.472628	-0.982652	-0.230312
H371	H	-0.139295	-0.649318	0.103021
H372	H	0.194038	-0.315985	0.436355
C373	C	-0.596623	-1.034483	-0.178606
C374	C	-0.263290	-0.701150	0.154728
C375	C	0.070044	-0.367817	0.488061
N376	N	-0.577184	-1.067845	-0.145266
N377	N	-0.243851	-0.734512	0.188067
N378	N	0.089483	-0.401179	0.521401
H379	H	-0.688434	-1.023023	-0.190124
H380	H	-0.355101	-0.689690	0.143209
H381	H	-0.021767	-0.356356	0.476542
H382	H	-0.959914	-0.982854	-0.230370
H383	H	-0.626581	-0.649521	0.102963
H384	H	-0.293247	-0.316187	0.436296
H385	H	-0.164367	-0.982802	-0.662858
H386	H	0.168967	-0.649468	-0.329525
H387	H	0.502300	-0.316135	0.003808
H388	H	-1.045037	-0.982889	-0.230389
H389	H	-0.711703	-0.649556	0.102944
H390	H	-0.378370	-0.316223	0.436277
C391	C	-0.276802	-0.825089	-0.672186
C392	C	0.056531	-0.491756	-0.338853
C393	C	0.389864	-0.158422	-0.005519
N394	N	-0.300594	-0.791705	-0.699409
N395	N	0.032740	-0.458372	-0.366075
N396	N	0.366073	-0.125038	-0.032742
H397	H	-0.387566	-0.836450	-0.376238
H398	H	-0.054233	-0.503117	-0.042905
H399	H	0.279100	-0.169784	0.290429
C400	C	-0.953270	-0.825206	-0.387836
C401	C	-0.619937	-0.491873	-0.054503
C402	C	-0.286604	-0.158540	0.278830
N403	N	-0.933854	-0.791841	-0.421184
N404	N	-0.600520	-0.458508	-0.087850
N405	N	-0.267187	-0.125174	0.245483
C406	C	-0.737369	-1.034553	-0.178633
C407	C	-0.404036	-0.701220	0.154700
C408	C	-0.070703	-0.367886	0.488034
N409	N	-0.717930	-1.067918	-0.145296
N410	N	-0.384597	-0.734585	0.188037
N411	N	-0.051264	-0.401251	0.521370
H412	H	-0.688505	-0.796318	-0.416517
H413	H	-0.355172	-0.462984	-0.083184
H414	H	-0.021839	-0.129651	0.250149
H415	H	-0.603397	-0.796292	-0.416511
H416	H	-0.270063	-0.462958	-0.083177
H417	H	0.063270	-0.129625	0.250156
H418	H	-0.829194	-1.023081	-0.190150
H419	H	-0.495860	-0.689748	0.143183
H420	H	-0.162527	-0.356414	0.476516
H421	H	-0.744154	-0.796346	-0.416514
H422	H	-0.410821	-0.463012	-0.083181
H423	H	-0.077487	-0.129679	0.250153
C424	C	-0.835967	-0.784875	-0.428025
C425	C	-0.502634	-0.451542	-0.094691
C426	C	-0.169301	-0.118208	0.238642
N427	N	-0.855408	-0.751512	-0.461361
N428	N	-0.522075	-0.418179	-0.128028
N429	N	-0.188741	-0.084845	0.205305
