data_functionalizedCrystal
_audit_creation_method	'MofGen! by Chris Wilmer'
_symmetry_space_group_name_H-M	'P1'
_symmetry_Int_Tables_number	1
_symmetry_cell_setting	triclinic
loop_
_symmetry_equiv_pos_as_xyz
  x,y,z
_cell_length_a	13.897448
_cell_length_b	13.897449
_cell_length_c	10.685986
_cell_angle_alpha	94.349164
_cell_angle_beta	85.588833
_cell_angle_gamma	90.018972
loop_
_atom_site_label
_atom_site_type_symbol
_atom_site_fract_x
_atom_site_fract_y
_atom_site_fract_z
Zn1	Zn	-0.342062	1.432917	-0.713457
Zn2	Zn	-0.092062	1.682917	-0.463457
Zn3	Zn	0.157938	1.932917	-0.213457
Zn4	Zn	0.407938	2.182917	0.036543
Zn5	Zn	-0.515773	1.445169	-0.502449
Zn6	Zn	-0.265773	1.695169	-0.252449
Zn7	Zn	-0.015773	1.945169	-0.002449
Zn8	Zn	0.234227	2.195169	0.247551
Zn9	Zn	-0.354496	1.283963	-0.502471
Zn10	Zn	-0.104496	1.533963	-0.252471
Zn11	Zn	0.145504	1.783963	-0.002471
Zn12	Zn	0.395504	2.033963	0.247529
Zn13	Zn	-0.503324	1.271592	-0.713397
Zn14	Zn	-0.253324	1.521592	-0.463397
Zn15	Zn	-0.003324	1.771592	-0.213397
Zn16	Zn	0.246676	2.021592	0.036603
O17	O	-0.428914	1.358410	-0.607944
O18	O	-0.178914	1.608410	-0.357944
O19	O	0.071086	1.858410	-0.107944
O20	O	0.321086	2.108410	0.142056
O21	O	-0.365112	1.569523	-0.685482
O22	O	-0.115112	1.819523	-0.435482
O23	O	0.134888	2.069523	-0.185482
O24	O	0.384888	2.319523	0.064518
O25	O	-0.504792	1.434090	-0.325872
O26	O	-0.254792	1.684090	-0.075872
O27	O	-0.004792	1.934090	0.174128
O28	O	0.245208	2.184090	0.424128
O29	O	-0.217863	1.303772	-0.530494
O30	O	0.032137	1.553772	-0.280494
O31	O	0.282137	1.803772	-0.030494
O32	O	0.532137	2.053772	0.219506
O33	O	-0.492736	1.578525	-0.530456
O34	O	-0.242736	1.828525	-0.280456
O35	O	0.007264	2.078525	-0.030456
O36	O	0.257264	2.328525	0.219544
O37	O	-0.208728	1.413208	-0.685504
O38	O	0.041272	1.663208	-0.435504
O39	O	0.291272	1.913208	-0.185504
O40	O	0.541272	2.163208	0.064496
O41	O	-0.386303	1.315653	-0.325888
O42	O	-0.136303	1.565653	-0.075888
O43	O	0.113697	1.815653	0.174112
O44	O	0.363697	2.065653	0.424112
O45	O	-0.374232	1.147341	-0.530435
O46	O	-0.124232	1.397341	-0.280435
O47	O	0.125768	1.647341	-0.030435
O48	O	0.375768	1.897341	0.219565
O49	O	-0.471519	1.282687	-0.889985
O50	O	-0.221519	1.532687	-0.639985
O51	O	0.028481	1.782687	-0.389985
O52	O	0.278481	2.032687	-0.139985
O53	O	-0.483576	1.138252	-0.685401
O54	O	-0.233576	1.388252	-0.435401
O55	O	0.016424	1.638252	-0.185401
O56	O	0.266424	1.888252	0.064599
O57	O	-0.353041	1.401212	-0.890029
O58	O	-0.103041	1.651212	-0.640029
O59	O	0.146959	1.901212	-0.390029
O60	O	0.396959	2.151212	-0.140029
O61	O	-0.649105	1.422094	-0.530397
O62	O	-0.399105	1.672094	-0.280397
O63	O	-0.149105	1.922094	-0.030397
O64	O	0.100895	2.172094	0.219603
O65	O	-0.639959	1.294567	-0.685380
O66	O	-0.389959	1.544567	-0.435380
O67	O	-0.139959	1.794567	-0.185380
O68	O	0.110041	2.044567	0.064620
C69	C	-0.428903	1.107798	-0.607915
C70	C	-0.178903	1.357798	-0.357915
C71	C	0.071097	1.607798	-0.107915
C72	C	0.321097	1.857798	0.142085
C73	C	-0.428919	1.000583	-0.607932
C74	C	-0.178919	1.250583	-0.357932
C75	C	0.071081	1.500583	-0.107932
C76	C	0.321081	1.750583	0.142068
C77	C	-0.679530	1.358342	-0.607907
C78	C	-0.429530	1.608342	-0.357907
C79	C	-0.179530	1.858342	-0.107907
C80	C	0.070470	2.108342	0.142093
C81	C	-0.786743	1.358399	-0.607934
C82	C	-0.536743	1.608399	-0.357934
C83	C	-0.286743	1.858399	-0.107934
C84	C	-0.036743	2.108399	0.142066
C85	C	-0.428921	0.804286	-0.607965
C86	C	-0.178921	1.054286	-0.357965
C87	C	0.071079	1.304286	-0.107965
C88	C	0.321079	1.554286	0.142035
C89	C	-0.428917	0.913519	-0.607944
C90	C	-0.178917	1.163519	-0.357944
C91	C	0.071083	1.413519	-0.107944
C92	C	0.321083	1.663519	0.142056
C93	C	-0.983033	1.358495	-0.608013
C94	C	-0.733033	1.608495	-0.358013
C95	C	-0.483033	1.858495	-0.108013
C96	C	-0.233033	2.108495	0.141987
C97	C	-0.873803	1.358439	-0.607973
C98	C	-0.623803	1.608439	-0.357973
C99	C	-0.373803	1.858439	-0.107973
C100	C	-0.123803	2.108439	0.142027
C101	C	-0.177317	1.358504	-0.608008
C102	C	0.072683	1.608504	-0.358008
C103	C	0.322683	1.858504	-0.108008
C104	C	0.572683	2.108504	0.141992
C105	C	-0.070102	1.358543	-0.608035
C106	C	0.179898	1.608543	-0.358035
C107	C	0.429898	1.858543	-0.108035
C108	C	0.679898	2.108543	0.141965
C109	C	-0.409505	1.339203	-0.937073
C110	C	-0.159505	1.589203	-0.687073
C111	C	0.090495	1.839203	-0.437073
C112	C	0.340495	2.089203	-0.187073
C113	C	-0.401234	1.331017	-1.077328
C114	C	-0.151234	1.581017	-0.827328
C115	C	0.098766	1.831017	-0.577328
C116	C	0.348766	2.081017	-0.327328
C117	C	-0.428926	1.610002	-0.607973
C118	C	-0.178926	1.860002	-0.357973
C119	C	0.071074	2.110002	-0.107973
C120	C	0.321074	2.360002	0.142027
C121	C	-0.428931	1.717215	-0.607986
C122	C	-0.178931	1.967215	-0.357986
C123	C	0.071069	2.217215	-0.107986
C124	C	0.321069	2.467215	0.142014
C125	C	-0.448178	1.377599	-0.280095
C126	C	-0.198178	1.627599	-0.030095
C127	C	0.051822	1.877599	0.219905
C128	C	0.301822	2.127599	0.469905
C129	C	-0.456177	1.385971	-0.139840
C130	C	-0.206177	1.635971	0.110160
C131	C	0.043823	1.885971	0.360160
C132	C	0.293823	2.135971	0.610160
H133	H	-0.347867	1.277712	-1.131108
H134	H	-0.097867	1.527712	-0.881108
H135	H	0.152133	1.777712	-0.631108
H136	H	0.402133	2.027712	-0.381108
H137	H	-0.509539	1.439288	-1.086054
H138	H	-0.259539	1.689288	-0.836054
H139	H	-0.009539	1.939288	-0.586054
H140	H	0.240461	2.189288	-0.336054
