data_functionalizedCrystal
_audit_creation_method	'MofGen! by Chris Wilmer'
_symmetry_space_group_name_H-M	'P1'
_symmetry_Int_Tables_number	1
_symmetry_cell_setting	triclinic
loop_
_symmetry_equiv_pos_as_xyz
  x,y,z
_cell_length_a	19.288835
_cell_length_b	10.489741
_cell_length_c	8.965430
_cell_angle_alpha	89.999543
_cell_angle_beta	90.005553
_cell_angle_gamma	96.168433
loop_
_atom_site_label
_atom_site_type_symbol
_atom_site_fract_x
_atom_site_fract_y
_atom_site_fract_z
O1	O	-0.922420	0.158919	-0.124331
O2	O	-0.720301	0.180423	-0.124270
O3	O	-0.825960	-0.016032	-0.124293
O4	O	-0.816761	0.355374	-0.124308
O5	O	-0.825965	-0.016026	0.123786
O6	O	-0.720306	0.180429	0.123809
O7	O	-0.922425	0.158925	0.123747
Cu8	Cu	-0.821366	0.169677	0.146430
Cu9	Cu	-0.821360	0.169670	-0.146952
O10	O	-0.816766	0.355380	0.123771
C11	C	-0.694422	0.179740	-0.000223
C12	C	-0.617303	0.177682	-0.000199
C13	C	-0.581090	0.176690	-0.135429
C14	C	-0.508630	0.174743	-0.135444
C15	C	-0.472388	0.173761	-0.000221
C16	C	-0.508609	0.174760	0.135027
C17	C	-0.581067	0.176721	0.135038
C18	C	-0.362540	0.095951	0.103365
C19	C	-0.290084	0.093982	0.103348
C20	C	-0.248903	0.167720	-0.000249
C21	C	-0.280188	0.243409	-0.103855
C22	C	-0.352646	0.245370	-0.103844
C23	C	-0.393819	0.171636	-0.000218
C24	C	-0.134120	0.164618	-0.135504
C25	C	-0.061658	0.162678	-0.135514
C26	C	-0.061639	0.162683	0.134961
C27	C	-0.134099	0.164635	0.134966
C28	C	-0.170335	0.165597	-0.000271
C29	C	-0.825267	-0.063545	-0.000255
C30	C	-0.823189	-0.205127	-0.000257
C31	C	-0.755961	-0.271733	-0.000247
C32	C	-0.787721	-0.364577	0.122059
C33	C	-0.787732	-0.364558	-0.122527
C34	C	-0.854977	-0.296106	0.122151
C35	C	-0.854978	-0.296077	-0.122546
C36	C	-0.886787	-0.388895	-0.000210
C37	C	0.051696	0.159616	-0.000291
C38	C	-0.025420	0.161698	-0.000289
C39	C	-0.817459	0.402892	-0.000271
C40	C	-0.819537	0.544474	-0.000279
N41	N	-0.821375	0.169682	0.352779
N42	N	-0.821356	0.169656	-0.353301
C43	C	-0.870255	0.078834	0.450034
C44	C	-0.807366	0.054434	0.549459
C45	C	-0.884239	0.193999	0.549481
C46	C	-0.758455	0.145225	0.450015
C47	C	-0.835369	0.284840	0.450028
C48	C	-0.772435	0.260489	0.549409
H49	H	-0.032130	0.161891	0.245062
N50	N	-0.022599	0.161598	-0.281379
H51	H	0.028802	0.160215	-0.260869
H52	H	-0.030028	0.240983	-0.340445
N53	N	-0.173163	0.165704	0.280822
H54	H	-0.139210	0.164788	0.366486
H55	H	-0.208470	0.087468	0.286724
N56	N	-0.173207	0.165678	-0.281360
H57	H	-0.224605	0.167060	-0.260834
H58	H	-0.165786	0.086285	-0.340415
H59	H	-0.610590	0.177473	-0.245550
N60	N	-0.406951	0.016417	0.215116
H61	H	-0.400527	-0.077146	0.201293
H62	H	-0.457579	0.029251	0.199348
N63	N	-0.469558	0.173651	-0.281299
H64	H	-0.434249	0.251882	-0.287345
H65	H	-0.503552	0.174509	-0.366887
H66	H	-0.264618	0.032345	0.187703
N67	N	-0.688008	0.117795	0.392409
H68	H	-0.651049	0.185972	0.429403
H69	H	-0.688519	0.117907	0.279764
N70	N	-0.954665	0.221266	0.607369
H71	H	-0.991554	0.152592	0.571220
H72	H	-0.965560	0.307620	0.569636
H73	H	-0.731046	0.337311	0.592766
H74	H	-0.883400	-0.265920	0.225666
N75	N	-0.750041	-0.404731	-0.259497
H76	H	-0.782618	-0.465746	-0.320803
H77	H	-0.708309	-0.448759	-0.228162
H78	H	-0.479095	0.173964	0.245126
N79	N	-0.924957	-0.022978	0.392234
H80	H	-0.901990	-0.085938	0.328672
H81	H	-0.960045	0.018613	0.330310
N82	N	-0.791667	-0.074572	0.607325
H83	H	-0.828622	-0.143133	0.571188
H84	H	-0.791313	-0.073242	0.719963
N85	N	-0.851086	0.413812	0.392117
H86	H	-0.898616	0.432112	0.428232
H87	H	-0.850482	0.413017	0.279479
H88	H	-0.378115	0.307002	-0.188201
N89	N	-0.620134	0.177775	0.280894
H90	H	-0.644956	0.257635	0.286921
H91	H	-0.586144	0.176812	0.366478
H92	H	-0.246659	0.303459	-0.188209
N93	N	-0.682746	-0.204293	-0.000081
H94	H	-0.657446	-0.229008	0.092410
H95	H	-0.684724	-0.108475	-0.001083
H96	H	-0.942111	-0.439581	-0.000159
N97	N	-0.750045	-0.404780	0.259051
H98	H	-0.708311	-0.448865	0.227866
H99	H	-0.782680	-0.465754	0.320260
N100	N	-0.892629	-0.255816	-0.259533
H101	H	-0.867190	-0.280420	-0.351877
H102	H	-0.894144	-0.159885	-0.257852
