data_functionalizedCrystal
_audit_creation_method	'MofGen! by Chris Wilmer'
_symmetry_space_group_name_H-M	'P1'
_symmetry_Int_Tables_number	1
_symmetry_cell_setting	triclinic
loop_
_symmetry_equiv_pos_as_xyz
  x,y,z
_cell_length_a	17.000383
_cell_length_b	17.038272
_cell_length_c	9.565339
_cell_angle_alpha	89.999972
_cell_angle_beta	89.993568
_cell_angle_gamma	83.355929
loop_
_atom_site_label
_atom_site_type_symbol
_atom_site_fract_x
_atom_site_fract_y
_atom_site_fract_z
O1	O	1.057999	0.028047	-0.116356
O2	O	0.828179	0.056289	-0.116339
O3	O	0.941723	-0.071554	-0.116336
O4	O	0.944455	0.155890	-0.116359
O5	O	0.941714	-0.071546	0.116184
O6	O	0.828170	0.056298	0.116181
O7	O	1.057990	0.028055	0.116164
Zn8	Zn	0.943078	0.042178	0.153090
Zn9	Zn	0.943090	0.042167	-0.153265
O10	O	0.944446	0.155898	0.116161
C11	C	0.798624	0.057810	-0.000076
C12	C	0.710571	0.062321	-0.000069
C13	C	0.212326	0.091445	-0.000124
C14	C	0.295061	0.087201	-0.000123
C15	C	0.341068	0.013535	-0.000105
C16	C	0.304335	-0.055892	-0.000103
C17	C	0.221601	-0.051647	-0.000114
C18	C	0.591103	-0.002861	-0.000079
C19	C	0.673843	-0.007101	-0.000063
C20	C	0.664564	0.135993	-0.000086
C21	C	0.581828	0.140231	-0.000089
C22	C	0.545103	0.070804	-0.000094
C23	C	0.425637	0.009195	-0.000099
C24	C	0.460535	0.075145	-0.000110
C25	C	0.939234	-0.100508	-0.000076
C26	C	0.931821	-0.186793	-0.000076
C27	C	0.999879	-0.241568	-0.000080
C28	C	0.992910	-0.322641	-0.000093
C29	C	0.917881	-0.348938	-0.000092
C30	C	0.849817	-0.294156	-0.000092
C31	C	0.856788	-0.213085	-0.000089
C32	C	0.893255	-0.593009	-0.000109
C33	C	0.886289	-0.674088	-0.000107
C34	C	1.029382	-0.702567	-0.000111
C35	C	1.036346	-0.621493	-0.000099
C36	C	0.968283	-0.566718	-0.000107
C37	C	0.910755	-0.431807	-0.000100
C38	C	0.975410	-0.483850	-0.000109
C39	C	1.087545	0.026534	-0.000102
C40	C	1.175598	0.022024	-0.000118
C41	C	0.946935	0.184852	-0.000102
C42	C	0.954348	0.271137	-0.000111
N43	N	0.943076	0.042184	0.362169
N44	N	0.943099	0.042154	-0.362345
C45	C	0.890547	0.101290	0.453371
C46	C	0.963162	0.111470	0.546543
C47	C	0.870493	0.032008	0.546553
C48	C	1.015729	0.052396	0.453289
C49	C	0.923011	-0.027093	0.453291
C50	C	0.995675	-0.016947	0.546421
H51	H	0.423073	0.135124	-0.000131
H52	H	0.846172	0.151314	0.412516
H53	H	0.561212	-0.059393	-0.000079
H54	H	0.341800	-0.115872	-0.000097
H55	H	1.077138	0.061061	0.412495
H56	H	0.849666	-0.453227	-0.000096
N57	N	0.789178	0.020619	0.600833
H58	H	0.749538	0.065312	0.566988
H59	H	0.773671	-0.031282	0.565448
N60	N	1.054590	-0.083178	0.600227
H61	H	1.039920	-0.135401	0.564803
H62	H	1.109356	-0.075325	0.566106
N63	N	0.532168	0.219663	-0.000080
H64	H	0.497637	0.224576	0.086125
H65	H	0.568005	0.262983	-0.000125
H66	H	0.694475	0.192516	-0.000083
H67	H	0.174873	0.151432	-0.000128
N68	N	0.985670	0.189050	0.600803
H69	H	0.945952	0.233677	0.566965
H70	H	0.986028	0.188199	0.706376
N71	N	0.900490	-0.104654	0.398990
H72	H	0.845615	-0.112279	0.432856
H73	H	0.901207	-0.104202	0.293416
H74	H	0.324961	0.143731	-0.000141
H75	H	0.191699	-0.108177	-0.000112
N76	N	0.723468	-0.086558	-0.000042
H77	H	0.687649	-0.129896	-0.000050
H78	H	0.758009	-0.091436	-0.086232
H79	H	1.060976	-0.220165	-0.000072
N80	N	0.475256	-0.070260	-0.000064
H81	H	0.509800	-0.075217	-0.086253
H82	H	0.509730	-0.075146	0.086195
H83	H	1.084795	-0.747173	-0.000107
N84	N	1.066315	-0.381721	-0.000089
H85	H	1.114902	-0.352760	-0.000076
H86	H	1.066529	-0.415977	0.086110
N87	N	1.117270	-0.593131	-0.000092
H88	H	1.159329	-0.640134	-0.000096
H89	H	1.123285	-0.560112	-0.086287
H90	H	0.825189	-0.695494	-0.000084
N91	N	0.819847	-0.533938	-0.000112
H92	H	0.771261	-0.562901	-0.000104
H93	H	0.819617	-0.499680	0.086087
H94	H	0.788727	-0.315573	-0.000100
H95	H	0.801367	-0.168486	-0.000087
H96	H	1.036498	-0.462436	-0.000140
