data_functionalizedCrystal
_audit_creation_method	'MofGen! by Chris Wilmer'
_symmetry_space_group_name_H-M	'P1'
_symmetry_Int_Tables_number	1
_symmetry_cell_setting	triclinic
loop_
_symmetry_equiv_pos_as_xyz
  x,y,z
_cell_length_a	14.395555
_cell_length_b	14.395555
_cell_length_c	14.395555
_cell_angle_alpha	60.003134
_cell_angle_beta	90.000811
_cell_angle_gamma	59.998346
loop_
_atom_site_label
_atom_site_type_symbol
_atom_site_fract_x
_atom_site_fract_y
_atom_site_fract_z
Zr1	Zr	0.894812	1.016865	-0.121922
O2	O	0.746477	1.210654	-0.270241
O3	O	0.940292	0.823066	-0.076454
O4	O	0.940282	1.016860	-0.270246
O5	O	0.746486	1.016867	0.076418
O6	O	1.093149	1.016867	-0.270250
O7	O	0.746488	1.016860	-0.076449
O8	O	1.093168	0.670204	0.076409
O9	O	0.746468	1.363530	-0.270241
O10	O	1.073763	0.902787	-0.057065
O11	O	0.959679	0.902787	0.057021
O12	O	0.959666	1.130955	-0.171145
O13	O	0.845582	1.130955	-0.057059
Zr14	Zr	1.138615	1.016887	0.121878
Zr15	Zr	1.138617	1.016876	-0.121927
Zr16	Zr	0.894810	1.016876	0.121884
Zr17	Zr	0.894797	1.260683	-0.121921
Zr18	Zr	1.138630	0.773068	0.121878
O19	O	1.093135	1.210686	0.076411
O20	O	1.093137	1.210670	-0.270250
O21	O	0.746474	1.210670	0.076419
O22	O	1.286950	0.823097	0.270198
O23	O	1.286953	0.823082	-0.076462
O24	O	0.940290	0.823082	0.270206
O25	O	1.286941	1.016885	-0.076462
O26	O	1.093145	1.016891	0.270203
O27	O	0.940278	1.016885	0.270207
O28	O	1.286939	1.016891	0.076406
O29	O	0.940260	1.363538	-0.270246
O30	O	1.093167	0.670213	0.270202
O31	O	1.286959	0.670222	0.270198
O32	O	1.286961	0.670213	0.076405
O33	O	0.746466	1.363538	-0.076448
O34	O	0.940259	1.363547	-0.076453
O35	O	1.073761	0.902797	0.171101
O36	O	1.187845	0.902797	0.057016
O37	O	1.073748	1.130965	-0.057064
O38	O	0.959664	1.130965	0.057021
C39	C	1.016732	0.711896	-0.000022
C40	C	1.016739	0.608389	-0.000023
C41	C	0.711750	1.016862	-0.000014
C42	C	0.608248	1.016857	-0.000012
C43	C	1.078917	0.485904	-0.062230
C44	C	0.971660	0.624024	-0.107319
C45	C	1.123976	0.471680	0.045015
C46	C	0.909368	0.562183	-0.045173
C47	C	1.061761	0.409764	0.107221
C48	C	0.954440	0.547875	0.062158
C49	C	0.609870	0.892450	0.062187
C50	C	0.516850	0.954645	0.107273
C51	C	0.516840	0.954668	-0.045065
C52	C	0.516591	1.079053	0.045136
C53	C	0.516595	1.079057	-0.107261
C54	C	0.423558	1.141343	-0.062203
C55	C	1.321677	1.016890	-0.000029
C56	C	1.425179	1.016894	-0.000031
C57	C	1.016716	1.016862	-0.304985
C58	C	1.016717	1.016857	-0.408487
C59	C	1.016695	1.321855	-0.000021
C60	C	1.016688	1.425363	-0.000021
C61	C	1.078933	0.892450	-0.406875
C62	C	0.971657	0.954638	-0.499893
C63	C	1.123966	0.954674	-0.499896
C64	C	0.909378	1.079046	-0.500143
C65	C	1.061764	1.079064	-0.500132
C66	C	0.954424	1.141343	-0.593168
C67	C	1.016711	1.016890	0.304942
C68	C	1.016710	1.016894	0.408444
C69	C	1.321696	0.711910	-0.000030
C70	C	1.425204	0.608407	-0.000032
C71	C	1.016730	0.711910	0.304941
C72	C	1.016736	0.608407	0.408443
C73	C	1.321694	0.711924	0.304934
C74	C	1.425201	0.608426	0.408433
C75	C	0.711733	1.321828	-0.304977
C76	C	0.608226	1.425326	-0.408476
C77	C	0.711731	1.321842	-0.000014
C78	C	0.608223	1.425344	-0.000011
C79	C	1.016697	1.321842	-0.304985
C80	C	1.016691	1.425344	-0.408486
C81	C	1.414759	0.562258	-0.056625
C82	C	1.521739	0.455282	-0.056629
C83	C	1.073331	0.562268	0.511179
C84	C	1.073338	0.455293	0.618154
C85	C	1.527941	0.562283	0.397982
C86	C	1.634923	0.455313	0.504953
H87	H	0.933554	0.715632	-0.198014
O88	O	1.112264	0.288383	0.227329
H89	H	1.111000	0.212453	0.226264
H90	H	1.121792	0.415612	0.706287
O91	O	1.510113	0.402719	-0.120811
H92	H	1.462914	0.484307	-0.212352
H93	H	1.099899	1.131601	-0.499157
O94	O	0.318067	1.280798	-0.131875
H95	H	0.318035	1.332713	-0.220480
H96	H	1.214687	0.434468	0.083105
O97	O	0.789176	1.148635	-0.499055
H98	H	0.729453	1.183265	-0.575925
O99	O	1.539564	0.614846	0.281238
H100	H	1.498070	0.596176	0.234118
H101	H	0.968299	0.448815	0.519572
O102	O	0.952555	0.555836	0.396832
H103	H	0.911089	0.605914	0.305303
O104	O	1.636104	0.461703	0.064149
H105	H	1.683289	0.380116	0.155692
O106	O	1.541950	0.555871	0.064133
H107	H	1.551917	0.511526	0.155677
H108	H	0.517414	1.131597	0.083335
H109	H	0.517562	1.131589	-0.197934
O110	O	1.137519	0.614830	0.522794
H111	H	1.077355	0.722116	0.481285
H112	H	0.515933	0.902062	-0.083160
H113	H	1.131458	0.787255	-0.327116
O114	O	0.921182	0.884994	-0.501154
H115	H	0.972977	0.781731	-0.424766
O116	O	1.751664	0.402824	0.493317
H117	H	1.817371	0.327080	0.579161
H118	H	0.901734	1.246627	-0.672794
O119	O	1.298008	0.614830	-0.120813
H120	H	1.288046	0.533248	-0.086427
H121	H	0.689631	0.787252	0.114858
O122	O	1.507727	0.461727	0.619313
H123	H	1.497773	0.380138	0.666491
H124	H	1.214671	0.902079	-0.500797
O125	O	1.413592	0.555852	0.525183
H126	H	1.366408	0.637433	0.535153
O127	O	1.148481	0.449966	-0.131985
H128	H	1.110823	0.538104	-0.220990
H129	H	0.901763	0.574936	0.114752
O130	O	0.789151	0.611746	-0.095783
H131	H	0.790079	0.534006	-0.095429
H132	H	0.515926	0.902069	0.197965
