data_functionalizedCrystal
_audit_creation_method	'MofGen! by Chris Wilmer'
_symmetry_space_group_name_H-M	'P1'
_symmetry_Int_Tables_number	1
_symmetry_cell_setting	triclinic
loop_
_symmetry_equiv_pos_as_xyz
  x,y,z
_cell_length_a	19.121368
_cell_length_b	14.908571
_cell_length_c	14.908308
_cell_angle_alpha	90.175053
_cell_angle_beta	89.301516
_cell_angle_gamma	91.003368
loop_
_atom_site_label
_atom_site_type_symbol
_atom_site_fract_x
_atom_site_fract_y
_atom_site_fract_z
Zn1	Zn	0.364748	1.326676	-0.566599
Zn2	Zn	0.475300	1.329613	-0.409879
Zn3	Zn	0.351323	1.185677	-0.408369
Zn4	Zn	0.474469	1.170683	-0.551578
O5	O	0.416460	1.253162	-0.484106
O6	O	0.385378	1.452587	-0.552727
O7	O	0.453583	1.318024	-0.284157
O8	O	0.255300	1.209426	-0.435012
O9	O	0.466601	1.454745	-0.437586
O10	O	0.265163	1.313018	-0.551263
O11	O	0.362498	1.212274	-0.283048
O12	O	0.361693	1.058166	-0.420448
O13	O	0.465185	1.183872	-0.679092
O14	O	0.452168	1.047151	-0.525663
O15	O	0.384573	1.298480	-0.690128
O16	O	0.572993	1.303485	-0.423022
O17	O	0.572383	1.186720	-0.527128
C18	C	0.405384	1.020112	-0.471262
C19	C	0.400663	0.920410	-0.465788
C20	C	0.234163	1.262567	-0.494645
C21	C	0.156479	1.266575	-0.499135
C22	C	0.486137	0.721640	-0.564900
C23	C	0.481704	0.627960	-0.559759
C24	C	0.387361	0.639371	-0.450371
C25	C	0.391794	0.733050	-0.455512
C26	C	0.441185	0.774181	-0.512777
C27	C	0.445621	0.867862	-0.517912
C28	C	0.351275	0.879270	-0.408530
C29	C	0.346842	0.785591	-0.403389
C30	C	0.114847	1.214526	-0.440722
C31	C	0.041855	1.218290	-0.444950
C32	C	0.010496	1.274107	-0.507589
C33	C	0.052134	1.326158	-0.566009
C34	C	0.125125	1.322389	-0.561784
C35	C	-0.209632	1.288181	-0.523377
C36	C	-0.282628	1.291948	-0.527596
C37	C	-0.292902	1.184079	-0.406538
C38	C	-0.219910	1.180319	-0.402315
C39	C	-0.178278	1.232366	-0.460738
C40	C	-0.064113	1.277958	-0.511911
C41	C	-0.103670	1.228510	-0.456420
C42	C	0.598050	1.243818	-0.473630
C43	C	0.675740	1.239900	-0.469182
C44	C	0.426284	1.239176	-0.718066
C45	C	0.430471	1.233215	-0.817766
C46	C	0.427580	1.487123	-0.497001
C47	C	0.432318	1.586822	-0.502496
C48	C	0.354380	1.341354	-1.016606
C49	C	0.358311	1.335757	-1.110284
C50	C	0.442261	1.216420	-1.098799
C51	C	0.438329	1.222017	-1.005122
C52	C	0.394388	1.284487	-0.964029
C53	C	0.390461	1.290088	-0.870350
C54	C	0.474406	1.170748	-0.858868
C55	C	0.478338	1.165150	-0.952545
C56	C	0.406626	1.267149	-0.251062
C57	C	0.402251	1.273293	-0.151384
H58	H	0.485838	0.901349	-0.564539
H59	H	0.354683	1.340956	-0.836894
H60	H	0.314673	0.922060	-0.366086
H61	H	0.526356	0.755129	-0.611522
F62	F	0.516995	1.110229	-0.802905
H63	H	0.478035	1.165560	-1.132274
H64	H	0.306628	0.752089	-0.356768
H65	H	0.325730	1.382062	-1.153089
H66	H	0.518307	0.585184	-0.602205
F67	F	0.334793	0.595580	-0.389443
F68	F	0.525099	1.098667	-0.996289
H69	H	0.140373	1.169077	-0.389712
H70	H	0.007958	1.175908	-0.397386
F71	F	-0.186541	1.120909	-0.335648
H72	H	-0.308156	1.337405	-0.578606
F73	F	-0.337214	1.128689	-0.344367
H74	H	0.026598	1.371602	-0.617015
F75	F	0.169433	1.377785	-0.623957
F76	F	-0.165334	1.343567	-0.585563
H77	H	-0.078135	1.183059	-0.405424
H78	H	-0.089651	1.323407	-0.562911
H79	H	0.318605	1.392224	-0.983148
