data_functionalizedCrystal
_audit_creation_method	'MofGen! by Chris Wilmer'
_symmetry_space_group_name_H-M	'P1'
_symmetry_Int_Tables_number	1
_symmetry_cell_setting	triclinic
loop_
_symmetry_equiv_pos_as_xyz
  x,y,z
_cell_length_a	16.625548
_cell_length_b	10.686285
_cell_length_c	10.685880
_cell_angle_alpha	89.638885
_cell_angle_beta	85.603426
_cell_angle_gamma	85.632645
loop_
_atom_site_label
_atom_site_type_symbol
_atom_site_fract_x
_atom_site_fract_y
_atom_site_fract_z
Zn1	Zn	1.292816	-0.553669	-0.671108
Zn2	Zn	1.626149	-0.220335	-0.337775
Zn3	Zn	1.959483	0.112998	-0.004441
Zn4	Zn	1.291179	-0.747406	-0.445280
Zn5	Zn	1.624512	-0.414073	-0.111947
Zn6	Zn	1.957845	-0.080740	0.221387
Zn7	Zn	1.146907	-0.537664	-0.461348
Zn8	Zn	1.480241	-0.204330	-0.128015
Zn9	Zn	1.813574	0.129003	0.205318
Zn10	Zn	1.167475	-0.763384	-0.654995
Zn11	Zn	1.500808	-0.430050	-0.321662
Zn12	Zn	1.834141	-0.096717	0.011671
O13	O	1.224594	-0.650531	-0.558183
O14	O	1.557927	-0.317197	-0.224850
O15	O	1.891261	0.016136	0.108484
O16	O	1.405433	-0.579380	-0.641170
O17	O	1.738766	-0.246047	-0.307837
O18	O	2.072099	0.087287	0.025497
O19	O	1.262748	-0.706199	-0.271860
O20	O	1.596082	-0.372865	0.061474
O21	O	1.929415	-0.039532	0.394807
O22	O	1.158340	-0.364242	-0.502641
O23	O	1.491674	-0.030909	-0.169308
O24	O	1.825007	0.302424	0.164025
O25	O	1.404230	-0.721718	-0.475255
O26	O	1.737563	-0.388385	-0.141922
O27	O	2.070896	-0.055052	0.191412
O28	O	1.265539	-0.376001	-0.656751
O29	O	1.598872	-0.042668	-0.323418
O30	O	1.932205	0.290665	0.009916
O31	O	1.156753	-0.552102	-0.283665
O32	O	1.490086	-0.218768	0.049668
O33	O	1.823419	0.114565	0.383001
O34	O	1.036802	-0.567594	-0.487018
O35	O	1.370135	-0.234261	-0.153684
O36	O	1.703469	0.099072	0.179649
O37	O	1.193394	-0.748949	-0.832684
O38	O	1.526727	-0.415616	-0.499351
O39	O	1.860060	-0.082283	-0.166018
O40	O	1.051912	-0.733430	-0.629289
O41	O	1.385246	-0.400096	-0.295956
O42	O	1.718579	-0.066763	0.037378
O43	O	1.285482	-0.594873	-0.844522
O44	O	1.618815	-0.261539	-0.511189
O45	O	1.952148	0.071794	-0.177856
O46	O	1.282691	-0.925070	-0.459631
O47	O	1.616025	-0.591737	-0.126298
O48	O	1.949358	-0.258404	0.207035
O49	O	1.191806	-0.936809	-0.613708
O50	O	1.525140	-0.603475	-0.280375
O51	O	1.858473	-0.270142	0.052959
C52	C	1.239326	-0.976458	-0.533205
C53	C	1.572660	-0.643125	-0.199872
C54	C	1.905993	-0.309792	0.133462
C55	C	1.245705	-1.115895	-0.522561
C56	C	1.579038	-0.782561	-0.189228
C57	C	1.912372	-0.449228	0.144105
C58	C	1.015101	-0.650510	-0.558149
C59	C	1.348434	-0.317177	-0.224816
C60	C	1.681767	0.016157	0.108517
C61	C	0.925481	-0.650534	-0.558162
C62	C	1.258815	-0.317200	-0.224829
C63	C	1.592148	0.016133	0.108504
C64	C	0.597309	-0.650546	-0.558215
C65	C	0.930642	-0.317213	-0.224882
C66	C	1.263976	0.016121	0.108451
C67	C	0.688616	-0.650539	-0.558197
C68	C	1.021949	-0.317205	-0.224863
C69	C	1.355283	0.016128	0.108470
C70	C	0.761392	-0.650540	-0.558188
C71	C	1.094726	-0.317207	-0.224854
C72	C	1.428059	0.016126	0.108479
C73	C	0.852705	-0.650532	-0.558171
C74	C	1.186039	-0.317199	-0.224838
C75	C	1.519372	0.016135	0.108495
C76	C	1.434906	-0.650552	-0.558217
C77	C	1.768239	-0.317219	-0.224884
C78	C	2.101572	0.016114	0.108449
C79	C	1.524528	-0.650561	-0.558232
C80	C	1.857861	-0.317228	-0.224899
C81	C	2.191195	0.016105	0.108435
C82	C	1.241915	-0.675479	-0.885395
C83	C	1.575248	-0.342145	-0.552061
C84	C	1.908581	-0.008812	-0.218728
C85	C	1.249295	-0.686110	-1.024833
C86	C	1.582629	-0.352777	-0.691499
C87	C	1.915962	-0.019443	-0.358166
C88	C	1.209828	-0.323332	-0.583286
C89	C	1.543161	0.010001	-0.249953
C90	C	1.876494	0.343334	0.083381
C91	C	1.203535	-0.183900	-0.593983
C92	C	1.536869	0.149433	-0.260650
C93	C	1.870202	0.482767	0.072683
C94	C	1.207383	-0.625589	-0.232251
C95	C	1.540717	-0.292256	0.101082
C96	C	1.874050	0.041078	0.434416
C97	C	1.200143	-0.614604	-0.092841
C98	C	1.533476	-0.281271	0.240493
C99	C	1.866809	0.052062	0.573826
H100	H	1.162553	-1.135451	-0.663276
H101	H	1.495886	-0.802117	-0.329942
H102	H	1.829220	-0.468784	0.003391
H103	H	1.286684	-1.164351	-0.453257
H104	H	1.620017	-0.831017	-0.119923
H105	H	1.953350	-0.497684	0.213410
N106	N	1.309171	-0.773125	-1.085627
N107	N	1.642504	-0.439792	-0.752293
N108	N	1.975838	-0.106459	-0.418960
N109	N	1.315288	-0.781938	-1.202611
N110	N	1.648621	-0.448604	-0.869278
N111	N	1.981954	-0.115271	-0.535944
H112	H	1.357573	-0.843392	-1.245549
H113	H	1.690907	-0.510059	-0.912216
H114	H	2.024240	-0.176725	-0.578883
H115	H	1.152408	-0.545255	-1.044391
H116	H	1.485741	-0.211921	-0.711057
H117	H	1.819075	0.121412	-0.377724
