data_functionalizedCrystal
_audit_creation_method	'MofGen! by Chris Wilmer'
_symmetry_space_group_name_H-M	'P1'
_symmetry_Int_Tables_number	1
_symmetry_cell_setting	triclinic
loop_
_symmetry_equiv_pos_as_xyz
  x,y,z
_cell_length_a	21.295417
_cell_length_b	12.827893
_cell_length_c	12.827885
_cell_angle_alpha	90.021189
_cell_angle_beta	89.961900
_cell_angle_gamma	89.971284
loop_
_atom_site_label
_atom_site_type_symbol
_atom_site_fract_x
_atom_site_fract_y
_atom_site_fract_z
Zn1	Zn	-0.250609	-1.597560	-0.590842
Zn2	Zn	0.249391	-1.097560	-0.090842
Zn3	Zn	-0.355891	-1.597408	-0.416077
Zn4	Zn	0.144109	-1.097408	0.083923
Zn5	Zn	-0.250636	-1.422801	-0.416109
Zn6	Zn	0.249364	-0.922801	0.083891
Zn7	Zn	-0.355841	-1.422740	-0.590771
Zn8	Zn	0.144159	-0.922740	-0.090771
O9	O	-0.303244	-1.510127	-0.503450
O10	O	0.196756	-1.010127	-0.003450
O11	O	-0.264584	-1.743776	-0.567675
O12	O	0.235416	-1.243776	-0.067675
O13	O	-0.341961	-1.574208	-0.269845
O14	O	0.158039	-1.074208	0.230155
O15	O	-0.162543	-1.446072	-0.439332
O16	O	0.337457	-0.946072	0.060668
O17	O	-0.341934	-1.743664	-0.439276
O18	O	0.158066	-1.243664	0.060724
O19	O	-0.162523	-1.574467	-0.567707
O20	O	0.337477	-1.074467	-0.067707
O21	O	-0.264631	-1.445925	-0.269869
O22	O	0.235369	-0.945925	0.230131
O23	O	-0.264582	-1.276557	-0.439263
O24	O	0.235418	-0.776557	0.060737
O25	O	-0.341849	-1.445969	-0.737016
O26	O	0.158151	-0.945969	-0.237016
O27	O	-0.341876	-1.276512	-0.567586
O28	O	0.158124	-0.776512	-0.067586
O29	O	-0.264536	-1.574408	-0.737068
O30	O	0.235464	-1.074408	-0.237068
O31	O	-0.443974	-1.574149	-0.439207
O32	O	0.056026	-1.074149	0.060793
O33	O	-0.443937	-1.445821	-0.567554
O34	O	0.056063	-0.945821	-0.067554
C35	C	-0.303227	-1.238617	-0.503421
C36	C	0.196773	-0.738617	-0.003421
C37	C	-0.303235	-1.122464	-0.503433
C38	C	0.196765	-0.622464	-0.003433
C39	C	-0.265026	-1.070735	-0.567066
C40	C	0.234974	-0.570735	-0.067066
C41	C	-0.265033	-0.950684	-0.567081
C42	C	0.234967	-0.450684	-0.067081
C43	C	-0.466796	-1.509990	-0.503392
C44	C	0.033204	-1.009990	-0.003392
C45	C	-0.536764	-1.510027	-0.503402
C46	C	-0.036764	-1.010027	-0.003402
C47	C	-0.569629	-1.576907	-0.436640
C48	C	-0.069629	-1.076907	0.063360
C49	C	-0.635371	-1.576956	-0.436664
C50	C	-0.135371	-1.076956	0.063336
C51	C	-0.668246	-1.510107	-0.503438
C52	C	-0.168246	-1.010107	-0.003438
C53	C	-0.635374	-1.443222	-0.570213
C54	C	-0.135374	-0.943222	-0.070213
C55	C	-0.569632	-1.443183	-0.570195
C56	C	-0.069632	-0.943183	-0.070195
N57	N	-0.771510	-1.418690	-0.511395
N58	N	-0.271510	-0.918690	-0.011395
N59	N	-0.833961	-1.418731	-0.511406
N60	N	-0.333961	-0.918731	-0.011406
C61	C	-0.866321	-1.510224	-0.503498
C62	C	-0.366321	-1.010224	-0.003498
N63	N	-0.833870	-1.601676	-0.495558
N64	N	-0.333870	-1.101676	0.004442
N65	N	-0.771413	-1.601635	-0.495542
N66	N	-0.271413	-1.101635	0.004458
C67	C	-0.739532	-1.510143	-0.503465
C68	C	-0.239532	-1.010143	-0.003465
C69	C	-0.970471	-1.577162	-0.436758
C70	C	-0.470471	-1.077162	0.063242
C71	C	-1.036215	-1.577213	-0.436789
C72	C	-0.536215	-1.077213	0.063211
C73	C	-1.036216	-1.443470	-0.570333
C74	C	-0.536216	-0.943470	-0.070333
C75	C	-0.970474	-1.443429	-0.570307
C76	C	-0.470474	-0.943429	-0.070307
C77	C	-0.937605	-1.510273	-0.503514
C78	C	-0.437605	-1.010273	-0.003514
C79	C	-0.139054	-1.510293	-0.503531
C80	C	0.360946	-1.010293	-0.003531
C81	C	-0.069086	-1.510364	-0.503565
C82	C	0.430914	-1.010364	-0.003565
C83	C	-0.303184	-1.510198	-0.776020
C84	C	0.196816	-1.010198	-0.276020
C85	C	-0.303158	-1.510229	-0.892173
C86	C	0.196842	-1.010229	-0.392173
C87	C	-0.303257	-0.782697	-0.503471
C88	C	0.196743	-0.282697	-0.003471
C89	C	-0.303249	-0.898851	-0.503459
C90	C	0.196751	-0.398851	-0.003459
C91	C	-0.264893	-1.573791	-0.943984
C92	C	0.235107	-1.073791	-0.443984
C93	C	-0.264866	-1.573824	-1.064034
C94	C	0.235134	-1.073824	-0.564034
C95	C	-0.303259	-1.510117	-0.231940
C96	C	0.196741	-1.010117	0.268060
C97	C	-0.303107	-1.510289	-0.115787
C98	C	0.196893	-1.010289	0.384213
H99	H	-0.542869	-1.631338	-0.382256
H100	H	-0.042869	-1.131338	0.117744
H101	H	-0.335966	-0.943330	-0.448983
H102	H	0.164034	-0.443330	0.051017
H103	H	-0.232324	-0.906198	-0.621563
H104	H	0.267676	-0.406198	-0.121563
C105	C	-0.387842	-0.999531	-0.488785
C106	C	0.112158	-0.499531	0.011215
C107	C	-0.347407	-1.062284	-0.429900
C108	C	0.152593	-0.562284	0.070100
H109	H	-0.415115	-0.962386	-0.443385
H110	H	0.084885	-0.462386	0.056615
H111	H	-0.363870	-0.951524	-0.528696
H112	H	0.136130	-0.451524	-0.028696
H113	H	-0.411970	-1.042128	-0.534196
H114	H	0.088030	-0.542128	-0.034196
H115	H	-0.323275	-1.019686	-0.384494
H116	H	0.176725	-0.519686	0.115506
H117	H	-0.371381	-1.110296	-0.389971
H118	H	0.128619	-0.610296	0.110029
C119	C	-1.110288	-1.591979	-0.296362
C120	C	-0.610288	-1.091979	0.203638
C121	C	-1.072379	-1.650790	-0.363504
C122	C	-0.572379	-1.150790	0.136496
H123	H	-1.132627	-1.637422	-0.251154
H124	H	-0.632627	-1.137422	0.248846
H125	H	-1.084711	-1.546513	-0.256244
H126	H	-0.584711	-1.046513	0.243756
H127	H	-1.139244	-1.552131	-0.336156
H128	H	-0.639244	-1.052131	0.163844
H129	H	-1.043420	-1.690632	-0.323710
H130	H	-0.543420	-1.190632	0.176290
H131	H	-1.097959	-1.696274	-0.403626
H132	H	-0.597959	-1.196274	0.096374
C133	C	-0.549329	-1.392167	-0.747097
C134	C	-0.049329	-0.892167	-0.247097
C135	C	-0.533504	-1.369658	-0.643580
C136	C	-0.033504	-0.869658	-0.143580
H137	H	-0.527026	-1.346769	-0.792399
H138	H	-0.027026	-0.846769	-0.292399
H139	H	-0.538505	-1.462356	-0.762443
H140	H	-0.038505	-0.962356	-0.262443
H141	H	-0.593187	-1.382623	-0.756655
H142	H	-0.093187	-0.882623	-0.256655
H143	H	-0.489646	-1.379209	-0.634020
H144	H	0.010354	-0.879209	-0.134020
H145	H	-0.544323	-1.299452	-0.628229
H146	H	-0.044323	-0.799452	-0.128229
H147	H	-1.062982	-1.389045	-0.624706
H148	H	-0.562982	-0.889045	-0.124706
H149	H	-0.662135	-1.631421	-0.382298
H150	H	-0.162135	-1.131421	0.117702
C151	C	-0.977080	-1.311226	-0.702294
C152	C	-0.477080	-0.811226	-0.202294
C153	C	-0.934344	-1.369897	-0.643681
C154	C	-0.434344	-0.869897	-0.143681
H155	H	-0.954774	-1.265826	-0.747589
H156	H	-0.454774	-0.765826	-0.247589
H157	H	-1.002675	-1.356748	-0.742319
H158	H	-0.502675	-0.856748	-0.242319
H159	H	-1.002768	-1.271300	-0.656721
H160	H	-0.502768	-0.771300	-0.156721
H161	H	-0.908659	-1.409829	-0.689254
H162	H	-0.408659	-0.909829	-0.189254
H163	H	-0.908739	-1.324369	-0.603653
H164	H	-0.408739	-0.824369	-0.103653
C165	C	-0.736152	-1.383890	-0.629523
C166	C	-0.236152	-0.883890	-0.129523
C167	C	-0.671507	-1.369737	-0.643610
C168	C	-0.171507	-0.869737	-0.143610
H169	H	-0.758457	-1.338518	-0.674836
H170	H	-0.258457	-0.838518	-0.174836
H171	H	-0.746879	-1.454092	-0.644886
H172	H	-0.246879	-0.954092	-0.144886
H173	H	-0.746960	-1.368638	-0.559294
H174	H	-0.246960	-0.868638	-0.059294
H175	H	-0.660698	-1.384996	-0.713837
H176	H	-0.160698	-0.884996	-0.213837
H177	H	-0.660776	-1.299518	-0.628254
H178	H	-0.160776	-0.799518	-0.128254
C179	C	-0.977071	-1.709365	-0.304761
C180	C	-0.477071	-1.209365	0.195239
C181	C	-0.934337	-1.650642	-0.363349
C182	C	-0.434337	-1.150642	0.136651
H183	H	-0.954763	-1.754731	-0.259446
H184	H	-0.454763	-1.254731	0.240554
H185	H	-1.002758	-1.663875	-0.264758
H186	H	-0.502758	-1.163875	0.235242
H187	H	-1.002667	-1.749330	-0.350349
H188	H	-0.502667	-1.249330	0.149651
H189	H	-0.908744	-1.610671	-0.317761
H190	H	-0.408744	-1.110671	0.182239
H191	H	-0.908640	-1.696138	-0.403354
H192	H	-0.408640	-1.196138	0.096646
C193	C	-0.180320	-1.588256	-0.821141
C194	C	0.319680	-1.088256	-0.321141
C195	C	-0.220697	-1.647228	-0.883890
C196	C	0.279303	-1.147228	-0.383890
H197	H	-0.153038	-1.633597	-0.784039
H198	H	0.346962	-1.133597	-0.284039
H199	H	-0.156203	-1.542815	-0.863728
H200	H	0.343797	-1.042815	-0.363728
H201	H	-0.204337	-1.548373	-0.773087
H202	H	0.295663	-1.048373	-0.273087
H203	H	-0.196680	-1.687105	-0.931949
H204	H	0.303320	-1.187105	-0.431949
H205	H	-0.244816	-1.692688	-0.841299
H206	H	0.255184	-1.192688	-0.341299
C207	C	-0.256444	-1.193683	-0.707534
C208	C	0.243556	-0.693683	-0.207534
C209	C	-0.220858	-1.130918	-0.640604
C210	C	0.279142	-0.630918	-0.140604
H211	H	-0.229175	-1.230830	-0.752938
H212	H	0.270825	-0.730830	-0.252938
H213	H	-0.280408	-1.241687	-0.667606
H214	H	0.219592	-0.741687	-0.167606
H215	H	-0.283876	-1.151093	-0.747463
H216	H	0.216124	-0.651093	-0.247463
H217	H	-0.193429	-1.173509	-0.600669
H218	H	0.306571	-0.673509	-0.100669
H219	H	-0.196884	-1.082908	-0.680535
H220	H	0.303116	-0.582908	-0.180535
H221	H	-0.232108	-1.628246	-1.108590
H222	H	0.267892	-1.128246	-0.608590
C223	C	-0.387740	-1.495769	-0.992877
C224	C	0.112260	-0.995769	-0.492877
C225	C	-0.347336	-1.436822	-1.055648
C226	C	0.152664	-0.936822	-0.555648
H227	H	-0.415042	-1.450412	-0.955739
H228	H	0.084958	-0.950412	-0.455739
H229	H	-0.411834	-1.541235	-1.035453
H230	H	0.088166	-1.041235	-0.535453
H231	H	-0.363743	-1.535624	-0.944854
H232	H	0.136257	-1.035624	-0.444854
H233	H	-0.371333	-1.396973	-1.103676
H234	H	0.128667	-0.896973	-0.603676
H235	H	-0.323240	-1.391338	-1.013068
H236	H	0.176760	-0.891338	-0.513068
H237	H	-0.335893	-1.455828	-0.936693
H238	H	0.164107	-0.955828	-0.436693
