data_functionalizedCrystal
_audit_creation_method	'MofGen! by Chris Wilmer'
_symmetry_space_group_name_H-M	'P1'
_symmetry_Int_Tables_number	1
_symmetry_cell_setting	triclinic
loop_
_symmetry_equiv_pos_as_xyz
  x,y,z
_cell_length_a	10.723024
_cell_length_b	15.944493
_cell_length_c	9.198806
_cell_angle_alpha	90.002690
_cell_angle_beta	89.996352
_cell_angle_gamma	83.971457
loop_
_atom_site_label
_atom_site_type_symbol
_atom_site_fract_x
_atom_site_fract_y
_atom_site_fract_z
O1	O	1.655663	0.117811	-0.120862
O2	O	1.292365	0.129088	-0.120865
O3	O	1.483972	0.001228	-0.120876
O4	O	1.464055	0.245671	-0.120852
O5	O	1.483957	0.001228	0.120909
O6	O	1.292349	0.129088	0.120920
O7	O	1.655648	0.117811	0.120923
Cu8	Cu	1.473997	0.123449	0.142998
Cu9	Cu	1.474015	0.123450	-0.142941
O10	O	1.464040	0.245670	0.120933
C11	C	1.245868	0.128267	0.000027
C12	C	1.107346	0.125812	0.000025
C13	C	0.916575	0.049543	0.000014
C14	C	1.059746	0.052079	0.000017
C15	C	1.483151	-0.030071	0.000011
C16	C	1.480710	-0.123334	-0.000008
C17	C	1.593495	-0.358448	0.000021
C18	C	1.532682	-0.409364	-0.119192
C19	C	1.476188	-0.294081	0.000010
C20	C	1.532640	-0.409341	0.119189
C21	C	1.471829	-0.459015	0.000033
C22	C	1.415407	-0.343768	-0.119301
C23	C	1.415381	-0.343741	0.119187
C24	C	1.354482	-0.394625	-0.000054
C25	C	1.478703	-0.199066	-0.000005
C26	C	1.469305	-0.554027	0.000038
C27	C	1.702144	0.118632	0.000028
C28	C	1.840667	0.121087	0.000020
C29	C	1.464862	0.276970	0.000044
C30	C	1.467302	0.370233	0.000053
N31	N	1.473994	0.123448	0.344112
N32	N	1.474029	0.123444	-0.344055
C33	C	1.554447	0.069527	0.416305
C34	C	1.554467	0.069524	0.583717
H35	H	1.042128	0.187062	0.000024
O36	O	1.356331	-0.309664	0.239534
C37	C	1.313504	-0.374375	0.324642
H38	H	1.371190	-0.436745	0.298635
H39	H	1.210551	-0.379687	0.299359
C40	C	1.257020	-0.277028	0.518835
C41	C	1.327878	-0.353631	0.486902
H42	H	1.265881	-0.264231	0.618925
H43	H	1.285869	-0.233430	0.461495
H44	H	1.171232	-0.281465	0.497756
H45	H	1.413666	-0.349190	0.507964
H46	H	1.299044	-0.397227	0.544249
O47	O	1.636588	0.014331	0.657612
C48	C	1.615977	-0.068903	0.620550
H49	H	1.567946	-0.069063	0.510010
H50	H	1.553683	-0.095088	0.706193
C51	C	1.801486	-0.124040	0.749464
C52	C	1.742503	-0.124237	0.613691
H53	H	1.879531	-0.158174	0.745239
H54	H	1.815370	-0.067964	0.774439
H55	H	1.749561	-0.145859	0.820819
H56	H	1.794420	-0.102409	0.542343
H57	H	1.728630	-0.180311	0.588704
H58	H	1.582198	-0.437988	0.219968
O59	O	1.233827	-0.413733	-0.000382
C60	C	1.172454	-0.380013	-0.126219
H61	H	1.244918	-0.370381	-0.213675
H62	H	1.117431	-0.316880	-0.098916
C63	C	0.992850	-0.453302	-0.075005
C64	C	1.081852	-0.441479	-0.182424
H65	H	0.936958	-0.491214	-0.109673
H66	H	1.034196	-0.476017	0.009777
H67	H	0.947011	-0.400686	-0.052262
H68	H	1.127699	-0.494092	-0.205152
H69	H	1.040511	-0.418774	-0.267212
O70	O	1.591577	-0.443583	-0.239537
C71	C	1.506330	-0.485208	-0.322641
H72	H	1.406421	-0.457883	-0.295995
H73	H	1.518310	-0.555410	-0.295914
C74	C	1.654701	-0.506316	-0.518245
C75	C	1.531991	-0.472750	-0.485527
H76	H	1.670532	-0.498636	-0.618721
H77	H	1.712136	-0.478276	-0.462255
H78	H	1.664669	-0.564815	-0.495961
H79	H	1.522029	-0.414250	-0.507794
H80	H	1.474555	-0.500781	-0.541525
O81	O	1.636461	0.014450	0.342003
C82	C	1.569379	-0.037611	0.253952
H83	H	1.471794	-0.004600	0.231356
H84	H	1.560776	-0.099769	0.312464
C85	C	1.759404	-0.095650	0.137006
C86	C	1.639551	-0.055103	0.109243
H87	H	1.802691	-0.106444	0.047745
H88	H	1.804600	-0.060578	0.196331
H89	H	1.752217	-0.147444	0.185770
H90	H	1.646740	-0.003306	0.060497
H91	H	1.594358	-0.090166	0.049907
O92	O	1.392020	0.178560	0.581743
C93	C	1.459128	0.230620	0.493721
H94	H	1.556683	0.197579	0.471041
H95	H	1.467807	0.292750	0.552301
C96	C	1.269111	0.288775	0.376931
C97	C	1.388926	0.248191	0.349065
H98	H	1.225806	0.299617	0.287702
H99	H	1.223897	0.253704	0.436236
H100	H	1.276360	0.340546	0.425750
H101	H	1.381676	0.196417	0.300263
H102	H	1.434137	0.283254	0.289748
O103	O	0.889422	0.196455	-0.000168
C104	C	0.848674	0.242410	-0.125407
H105	H	0.758355	0.219080	-0.167159
H106	H	0.923990	0.233048	-0.213092
C107	C	0.935362	0.365424	-0.036085
C108	C	0.824424	0.336774	-0.087358
H109	H	0.920408	0.423633	-0.012619
H110	H	0.962819	0.334463	0.048289
H111	H	0.998114	0.357615	-0.109164
H112	H	0.761679	0.344574	-0.014274
H113	H	0.796956	0.367739	-0.171720
O114	O	1.391781	0.178406	0.418384
C115	C	1.314667	0.133053	0.506410
H116	H	1.364145	0.067541	0.529042
H117	H	1.222343	0.126989	0.447858
C118	C	1.227538	0.260664	0.623290
C119	C	1.288313	0.180203	0.651097
H120	H	1.211276	0.289749	0.712538
H121	H	1.279487	0.291220	0.563982
H122	H	1.150608	0.255599	0.574494
H123	H	1.365247	0.185269	0.699876
H124	H	1.236375	0.149649	0.710417
H125	H	1.365901	-0.315232	-0.220193
O126	O	1.714040	-0.339115	-0.000403
C127	C	1.775450	-0.372691	-0.126332
H128	H	1.702987	-0.382445	-0.213718
H129	H	1.830751	-0.435742	-0.099139
C130	C	1.954715	-0.299039	-0.075252
C131	C	1.865715	-0.311012	-0.182586
H132	H	2.010399	-0.260995	-0.109950
H133	H	1.913344	-0.276420	0.009592
H134	H	2.000785	-0.351586	-0.052601
H135	H	1.819636	-0.258468	-0.205222
H136	H	1.907080	-0.333621	-0.267436
O137	O	1.137727	-0.020913	0.000072
C138	C	1.263314	-0.002132	0.000035
H139	H	1.268166	0.063887	0.045817
H140	H	1.300960	-0.005068	-0.115963
C141	C	1.337132	-0.147915	0.038615
C142	C	1.343093	-0.066832	0.094857
H143	H	1.386346	-0.187827	0.097100
H144	H	1.252522	-0.160570	0.038635
H145	H	1.368502	-0.150349	-0.058049
H146	H	1.311710	-0.064396	0.191512
H147	H	1.427700	-0.054179	0.094856
H148	H	0.875570	-0.013585	0.000030
