data_functionalizedCrystal
_audit_creation_method	'MofGen! by Chris Wilmer'
_symmetry_space_group_name_H-M	'P1'
_symmetry_Int_Tables_number	1
_symmetry_cell_setting	triclinic
loop_
_symmetry_equiv_pos_as_xyz
  x,y,z
_cell_length_a	6.817900
_cell_length_b	16.417825
_cell_length_c	19.453114
_cell_angle_alpha	95.881640
_cell_angle_beta	101.709288
_cell_angle_gamma	103.385495
loop_
_atom_site_label
_atom_site_type_symbol
_atom_site_fract_x
_atom_site_fract_y
_atom_site_fract_z
V1	V	-4.006342	-0.116758	-0.219247
O2	O	-3.994761	0.004713	-0.214820
O3	O	-3.957502	-0.230649	-0.217991
O4	O	-3.949263	-0.115356	-0.314757
O5	O	-4.003057	-0.111378	-0.117384
V6	V	-4.491152	-0.102182	-0.207034
O7	O	-4.264778	-0.148732	-0.246038
O8	O	-4.682913	-0.070209	-0.180243
O9	O	-4.316786	0.011708	-0.208290
O10	O	-4.620130	-0.223654	-0.211461
O11	O	-4.611834	-0.107563	-0.308896
O12	O	-4.325025	-0.103585	-0.111524
C13	C	-3.802677	-0.258401	-0.214595
C14	C	-3.843973	-0.351511	-0.214205
C15	C	-3.792166	-0.111332	-0.338029
C16	C	-3.826778	-0.110939	-0.416110
C17	C	-3.904686	-0.553515	-0.148973
C18	C	-3.943511	-0.641003	-0.148612
C19	C	-4.012188	-0.665426	-0.277316
C20	C	-3.973378	-0.577940	-0.277676
C21	C	-3.919617	-0.521986	-0.213503
C22	C	-3.997251	-0.696960	-0.212781
C23	C	-4.039346	-0.791819	-0.212390
C24	C	-3.877523	-0.427122	-0.213893
C25	C	-4.024804	-0.114959	-0.456376
C26	C	-4.057326	-0.114590	-0.529742
C27	C	-3.891819	-0.110218	-0.562842
C28	C	-3.693762	-0.106193	-0.522566
C29	C	-3.661241	-0.106554	-0.449200
N30	N	-3.831904	-0.154451	-0.681725
N31	N	-3.862811	-0.154111	-0.751420
C32	C	-3.989789	-0.109129	-0.783888
N33	N	-4.084729	-0.064512	-0.744030
N34	N	-4.053828	-0.064857	-0.674330
C35	C	-3.927061	-0.109826	-0.642394
C36	C	-4.223091	-0.112748	-0.903705
C37	C	-4.255604	-0.112373	-0.977072
C38	C	-3.892038	-0.103985	-0.969895
C39	C	-3.859527	-0.104351	-0.896529
C40	C	-4.025063	-0.108737	-0.863439
C41	C	-4.134953	0.039456	-0.211684
C42	C	-4.072895	0.132565	-0.212078
C43	C	-4.145465	-0.107611	-0.088248
C44	C	-4.090091	-0.108000	-0.010166
H45	H	-3.860912	-0.507959	-0.096718
H46	H	-3.985549	-0.552270	-0.330228
H47	H	-4.159599	-0.118527	-0.429439
Br48	Br	-4.326095	-0.120037	-0.584399
H49	H	-4.416861	-0.115641	-1.009854
H50	H	-4.357880	-0.116316	-0.876762
Br51	Br	-3.923263	-0.683790	-0.061032
Br52	Br	-4.085142	-0.741367	-0.364404
Br53	Br	-3.469138	-0.100253	-0.567484
Br54	Br	-3.392471	-0.101100	-0.394550
Br55	Br	-3.667401	-0.098031	-1.014805
H56	H	-3.698278	-0.101087	-0.863745
