data_functionalizedCrystal
_audit_creation_method	'MofGen! by Chris Wilmer'
_symmetry_space_group_name_H-M	'P1'
_symmetry_Int_Tables_number	1
_symmetry_cell_setting	triclinic
loop_
_symmetry_equiv_pos_as_xyz
  x,y,z
_cell_length_a	18.050589
_cell_length_b	18.050591
_cell_length_c	21.395355
_cell_angle_alpha	89.979262
_cell_angle_beta	90.012902
_cell_angle_gamma	89.971884
loop_
_atom_site_label
_atom_site_type_symbol
_atom_site_fract_x
_atom_site_fract_y
_atom_site_fract_z
Zn1	Zn	-0.295748	-1.135363	0.354222
Zn2	Zn	-0.419919	-1.135253	0.249455
Zn3	Zn	-0.295747	-1.011161	0.249466
Zn4	Zn	-0.419900	-1.011130	0.354202
O5	O	-0.357829	-1.073227	0.301836
O6	O	-0.312227	-1.239273	0.340328
O7	O	-0.403456	-1.118759	0.161778
O8	O	-0.191823	-1.027696	0.263375
O9	O	-0.403456	-1.239192	0.263356
O10	O	-0.191823	-1.118947	0.340339
O11	O	-0.312227	-1.027589	0.161786
O12	O	-0.312208	-0.907233	0.263355
O13	O	-0.403423	-1.027643	0.441883
O14	O	-0.403423	-0.907210	0.340305
O15	O	-0.312209	-1.118916	0.441897
O16	O	-0.523841	-1.118729	0.263337
O17	O	-0.523827	-1.027536	0.340294
C18	C	-0.357814	-0.880275	0.301829
C19	C	-0.357826	-0.797729	0.301841
C20	C	-0.407535	-0.548912	0.343627
C21	C	-0.425599	-0.598271	0.286440
C22	C	-0.357854	-0.500609	0.301838
C23	C	-0.339811	-0.598332	0.359024
C24	C	-0.357842	-0.646594	0.301843
C25	C	-0.375953	-0.548880	0.244620
C26	C	-0.290134	-0.548936	0.317242
C27	C	-0.308172	-0.598273	0.260016
C28	C	-0.357863	-0.416510	0.301836
C29	C	-0.357833	-0.730690	0.301838
C30	C	-0.550781	-1.073137	0.301826
C31	C	-0.633327	-1.073167	0.301842
C32	C	-0.832796	-1.023625	0.343677
C33	C	-0.882224	-1.005516	0.286505
C34	C	-0.784457	-1.073240	0.301850
C35	C	-0.882111	-1.091386	0.359029
C36	C	-0.930442	-1.073309	0.301863
C37	C	-0.832797	-1.055095	0.244648
C38	C	-0.832680	-1.140996	0.317211
C39	C	-0.882085	-1.122913	0.259999
C40	C	-0.700359	-1.073198	0.301844
C41	C	-1.014538	-1.073351	0.301864
C42	C	-0.164123	-1.073337	0.301860
C43	C	-0.081577	-1.073384	0.301871
C44	C	-0.357814	-1.073289	0.465260
C45	C	-0.357807	-1.073315	0.534901
C46	C	-0.357848	-0.266932	0.301841
C47	C	-0.357869	-0.349478	0.301838
C48	C	-0.357790	-1.073208	0.139049
C49	C	-0.357587	-1.073326	0.069408
C50	C	-0.310310	-1.120839	0.567623
C51	C	-0.310278	-1.120838	0.633058
C52	C	-0.357757	-1.073321	0.665769
C53	C	-0.405257	-1.025787	0.633039
C54	C	-0.405282	-1.025785	0.567605
C55	C	-0.424626	-1.067426	0.769441
C56	C	-0.424602	-1.067434	0.834874
C57	C	-0.357678	-1.073325	0.867590
C58	C	-0.290777	-1.079224	0.834865
C59	C	-0.290802	-1.079221	0.769431
C60	C	-0.357734	-1.073318	0.736722
C61	C	-0.310142	-1.120851	0.971264
C62	C	-0.310109	-1.120844	1.036701
C63	C	-0.405095	-1.025798	1.036681
C64	C	-0.405121	-1.025800	0.971246
C65	C	-0.357646	-1.073331	0.938541
H66	H	-0.266154	-0.619809	0.224637
H67	H	-0.271651	-1.159541	0.540999
H68	H	-0.479077	-1.062635	0.861513
H69	H	-0.271596	-1.159536	0.659705
N70	N	-0.804124	-0.967974	0.390467
H71	H	-0.822149	-0.916830	0.378784
H72	H	-0.748177	-0.968738	0.390395
H73	H	-0.391278	-0.527250	0.196248
N74	N	-0.214291	-0.520228	0.334511
H75	H	-0.200705	-0.538193	0.377734
H76	H	-0.214771	-0.464282	0.333941
H77	H	-0.811226	-1.039708	0.196285
N78	N	-0.463228	-0.520188	0.390376
H79	H	-0.450129	-0.538948	0.433466
H80	H	-0.514344	-0.538138	0.378603
H81	H	-0.324556	-0.620053	0.407383
H82	H	-0.236328	-1.084023	0.742790
H83	H	-0.904003	-0.948249	0.273525
H84	H	-0.443959	-0.987081	0.540964
N85	N	-0.803831	-1.216836	0.334435
H86	H	-0.821736	-1.230474	0.377653
H87	H	-0.747887	-1.216308	0.333861
N88	N	-0.501452	-0.626972	0.269178
H89	H	-0.521324	-0.658557	0.304352
H90	H	-0.497782	-0.657710	0.229865
N91	N	-0.910576	-1.178533	0.213106
H92	H	-0.892540	-1.164759	0.169958
H93	H	-0.966523	-1.178541	0.213676
H94	H	-0.903772	-1.106706	0.407379
N95	N	-0.218588	-1.085586	0.870142
H96	H	-0.228720	-1.084691	0.916559
H97	H	-0.185385	-1.042661	0.858687
H98	H	-0.271481	-1.159548	0.944635
H99	H	-0.443745	-0.987101	1.063314
N100	N	-0.258864	-1.172091	1.071997
H101	H	-0.228793	-1.202197	1.041348
H102	H	-0.289079	-1.206443	1.099165
H103	H	-0.443803	-0.987105	0.944603
N104	N	-0.496813	-1.061081	0.734156
H105	H	-0.539189	-1.057355	0.764814
H106	H	-0.503712	-1.106330	0.707025
N107	N	-0.456455	-0.974524	0.668316
H108	H	-0.449231	-0.981735	0.714734
H109	H	-0.509503	-0.986041	0.656889
