data_functionalizedCrystal
_audit_creation_method	'MofGen! by Chris Wilmer'
_symmetry_space_group_name_H-M	'P1'
_symmetry_Int_Tables_number	1
_symmetry_cell_setting	triclinic
loop_
_symmetry_equiv_pos_as_xyz
  x,y,z
_cell_length_a	16.959453
_cell_length_b	12.759401
_cell_length_c	12.759393
_cell_angle_alpha	89.981504
_cell_angle_beta	90.035042
_cell_angle_gamma	89.979851
loop_
_atom_site_label
_atom_site_type_symbol
_atom_site_fract_x
_atom_site_fract_y
_atom_site_fract_z
Zn1	Zn	-0.314632	-1.606217	0.593956
Zn2	Zn	-0.446833	-1.606095	0.418265
Zn3	Zn	-0.314673	-1.430519	0.418295
Zn4	Zn	-0.446772	-1.430491	0.593907
O5	O	-0.380727	-1.518330	0.506106
O6	O	-0.332177	-1.753222	0.570658
O7	O	-0.429345	-1.582765	0.271248
O8	O	-0.204057	-1.453888	0.441630
O9	O	-0.429304	-1.753132	0.441579
O10	O	-0.204026	-1.582973	0.570687
O11	O	-0.332247	-1.453770	0.271270
O12	O	-0.332188	-1.283494	0.441583
O13	O	-0.429201	-1.453841	0.740935
O14	O	-0.429241	-1.283474	0.570604
O15	O	-0.332118	-1.582946	0.740971
O16	O	-0.557436	-1.582738	0.441532
O17	O	-0.557391	-1.453723	0.570575
C18	C	-0.380713	-1.245363	0.506092
C19	C	-0.380726	-1.128586	0.506110
C20	C	-0.586094	-1.518243	0.506067
C21	C	-0.673950	-1.518301	0.506086
C22	C	-0.380648	-1.518404	0.780139
C23	C	-0.380614	-1.518435	0.896916
C24	C	-1.045352	-1.585631	0.573433
C25	C	-1.045500	-1.451323	0.438935
C26	C	-0.962954	-1.451284	0.438911
C27	C	-0.921603	-1.518419	0.506150
C28	C	-0.962798	-1.585592	0.573413
C29	C	-0.921753	-1.384105	0.371657
C30	C	-0.839202	-1.384063	0.371631
C31	C	-0.797850	-1.451203	0.438865
C32	C	-0.839050	-1.518379	0.506130
C33	C	-0.797699	-1.585514	0.573369
C34	C	-0.838897	-1.652696	0.640629
C35	C	-0.921445	-1.652732	0.640647
C36	C	-0.715301	-1.451167	0.438847
C37	C	-0.715145	-1.585475	0.573349
C38	C	-0.174559	-1.518447	0.506168
C39	C	-0.086703	-1.518497	0.506194
C40	C	-0.380743	-1.792364	0.506121
C41	C	-0.380749	-1.909140	0.506127
C42	C	-0.431342	-1.073741	0.573181
C43	C	-0.431352	-0.964017	0.573192
C44	C	-0.330127	-0.963993	0.439054
C45	C	-0.330114	-1.073715	0.439049
C46	C	-0.489786	-1.073754	0.650621
C47	C	-0.489796	-0.964030	0.650632
C48	C	-0.380750	-1.518318	0.233139
C49	C	-0.380561	-1.518490	0.116362
C50	C	-0.330058	-1.585669	0.951799
C51	C	-0.330029	-1.585694	1.061523
C52	C	-0.431120	-1.451248	1.061472
C53	C	-0.431144	-1.451219	0.951750
C54	C	-0.271696	-1.663294	0.951829
C55	C	-0.271668	-1.663319	1.061553
H56	H	-0.681482	-1.640148	0.628100
H57	H	-0.550999	-0.934227	0.628695
H58	H	-0.288063	-1.744688	1.091330
Br59	Br	-0.453374	-0.907358	0.779553
Br60	Br	-0.499742	-1.359948	0.877269
H61	H	-0.805219	-1.707353	0.695381
H62	H	-1.078899	-1.640332	0.628192
Br63	Br	-0.977361	-1.743897	0.731924
Br64	Br	-1.101620	-1.360198	0.347706
Br65	Br	-0.169672	-1.627027	0.902231
Br66	Br	-0.977875	-1.292975	0.280435
Br67	Br	-0.261440	-0.889518	0.348050
H68	H	-0.547906	-1.107761	0.621332
Br69	Br	-0.783297	-1.292884	0.280356
H70	H	-0.681762	-1.396463	0.384090
H71	H	-0.288892	-1.118366	0.384441
H72	H	-0.473461	-1.103565	0.732029
Br73	Br	-0.499691	-1.360028	1.135896
H74	H	-0.293641	-1.740563	0.917791
H75	H	-0.213504	-1.634213	1.095605
