data_functionalizedCrystal
_audit_creation_method	'MofGen! by Chris Wilmer'
_symmetry_space_group_name_H-M	'P1'
_symmetry_Int_Tables_number	1
_symmetry_cell_setting	triclinic
loop_
_symmetry_equiv_pos_as_xyz
  x,y,z
_cell_length_a	29.839133
_cell_length_b	12.759401
_cell_length_c	12.759393
_cell_angle_alpha	89.979434
_cell_angle_beta	90.026520
_cell_angle_gamma	89.972190
loop_
_atom_site_label
_atom_site_type_symbol
_atom_site_fract_x
_atom_site_fract_y
_atom_site_fract_z
Zn1	Zn	-0.178853	-1.606158	0.594039
Zn2	Zn	0.321147	-1.106158	1.094039
Zn3	Zn	-0.253990	-1.606003	0.418371
Zn4	Zn	0.246010	-1.106003	0.918371
Zn5	Zn	-0.178873	-1.430456	0.418375
Zn6	Zn	0.321127	-0.930456	0.918375
Zn7	Zn	-0.253954	-1.430402	0.594009
Zn8	Zn	0.246046	-0.930402	1.094009
O9	O	-0.216418	-1.518255	0.506198
O10	O	0.283582	-1.018255	1.006198
O11	O	-0.188827	-1.753158	0.570747
O12	O	0.311173	-1.253158	1.070747
O13	O	-0.244049	-1.582674	0.271350
O14	O	0.255951	-1.082674	0.771350
O15	O	-0.116003	-1.453851	0.441691
O16	O	0.383997	-0.953851	0.941691
O17	O	-0.244030	-1.753044	0.441684
O18	O	0.255970	-1.253044	0.941684
O19	O	-0.115989	-1.582938	0.570750
O20	O	0.384011	-1.082938	1.070750
O21	O	-0.188860	-1.453701	0.271353
O22	O	0.311140	-0.953701	0.771353
O23	O	-0.188826	-1.283428	0.441663
O24	O	0.311174	-0.783428	0.941663
O25	O	-0.243969	-1.453759	0.741034
O26	O	0.256031	-0.953759	1.241034
O27	O	-0.243988	-1.283389	0.570700
O28	O	0.256012	-0.783389	1.070700
O29	O	-0.188792	-1.582885	0.741056
O30	O	0.311208	-1.082885	1.241056
O31	O	-0.316852	-1.582622	0.441656
O32	O	0.183148	-1.082622	0.941656
O33	O	-0.316826	-1.453609	0.570697
O34	O	0.183174	-0.953609	1.070697
C35	C	-0.216405	-1.245287	0.506179
C36	C	0.283595	-0.745287	1.006179
C37	C	-0.216411	-1.128511	0.506196
C38	C	0.283589	-0.628511	1.006196
C39	C	-0.187718	-1.073709	0.573502
C40	C	0.312282	-0.573709	1.073502
C41	C	-0.187720	-0.963985	0.573507
C42	C	0.312280	-0.463985	1.073507
C43	C	-0.245113	-0.963875	0.438898
C44	C	0.254887	-0.463875	0.938898
C45	C	-0.245108	-1.073597	0.438888
C46	C	0.254892	-0.573597	0.938888
C47	C	-0.333140	-1.518121	0.506195
C48	C	0.166860	-1.018121	1.006195
C49	C	-0.383074	-1.518160	0.506229
C50	C	0.116926	-1.018160	1.006229
C51	C	-0.739619	-1.585509	0.573477
C52	C	-0.239619	-1.085509	1.073477
C53	C	-0.551946	-1.585410	0.573475
C54	C	-0.051946	-1.085410	1.073475
O55	O	-0.527645	-1.642536	0.630636
O56	O	-0.027645	-1.142536	1.130636
N57	N	-0.528520	-1.518243	0.506227
N58	N	-0.028520	-1.018243	1.006227
C59	C	-0.552014	-1.451102	0.438969
C60	C	-0.052014	-0.951102	0.938969
O61	O	-0.527782	-1.393979	0.381762
O62	O	-0.027782	-0.893979	0.881762
C63	C	-0.739686	-1.451208	0.438966
C64	C	-0.239686	-0.951208	0.938966
C65	C	-0.763111	-1.518371	0.506226
C66	C	-0.263111	-1.018371	1.006226
C67	C	-0.763043	-1.652667	0.640731
C68	C	-0.263043	-1.152667	1.140731
C69	C	-0.809959	-1.652687	0.640735
C70	C	-0.309959	-1.152687	1.140735
C71	C	-0.833450	-1.585549	0.573484
C72	C	-0.333450	-1.085549	1.073484
C73	C	-0.810026	-1.518391	0.506230
C74	C	-0.310026	-1.018391	1.006230
C75	C	-0.763180	-1.384073	0.371703
C76	C	-0.263180	-0.884073	0.871703
C77	C	-0.810101	-1.384107	0.371706
C78	C	-0.310101	-0.884107	0.871706
C79	C	-0.833525	-1.451270	0.438967
C80	C	-0.333525	-0.951270	0.938967
C81	C	-0.880433	-1.451273	0.438983
C82	C	-0.380433	-0.951273	0.938983
N83	N	-0.903859	-1.518439	0.506232
N84	N	-0.403859	-1.018439	1.006232
C85	C	-0.880368	-1.585577	0.573482
C86	C	-0.380368	-1.085577	1.073482
C87	C	-0.453484	-1.451050	0.438977
C88	C	0.046516	-0.951050	0.938977
C89	C	-0.406566	-1.451022	0.438979
C90	C	0.093434	-0.951022	0.938979
C91	C	-0.406501	-1.585331	0.573484
C92	C	0.093499	-1.085331	1.073484
C93	C	-0.453420	-1.585353	0.573487
C94	C	0.046580	-1.085353	1.073487
C95	C	-0.476910	-1.518216	0.506225
C96	C	0.023090	-1.018216	1.006225
C97	C	-0.978894	-1.585614	0.573485
C98	C	-0.478894	-1.085614	1.073485
C99	C	-1.025813	-1.585625	0.573486
C100	C	-0.525813	-1.085625	1.073486
C101	C	-1.025874	-1.451320	0.438977
C102	C	-0.525874	-0.951320	0.938977
C103	C	-0.978959	-1.451305	0.438980
C104	C	-0.478959	-0.951305	0.938980
C105	C	-0.955470	-1.518460	0.506237
C106	C	-0.455470	-1.018460	1.006237
O107	O	-0.904762	-1.394185	0.381844
O108	O	-0.404762	-0.894185	0.881844
O109	O	-0.904608	-1.642709	0.630664
O110	O	-0.404608	-1.142709	1.130664
C111	C	-0.692704	-1.585489	0.573473
C112	C	-0.192704	-1.085489	1.073473
C113	C	-0.669280	-1.518331	0.506219
C114	C	-0.169280	-1.018331	1.006219
C115	C	-0.692771	-1.451192	0.438968
C116	C	-0.192771	-0.951192	0.938968
C117	C	-0.622362	-1.518303	0.506221
C118	C	-0.122362	-1.018303	1.006221
C119	C	-0.598870	-1.585441	0.573471
C120	C	-0.098870	-1.085441	1.073471
C121	C	-0.622297	-1.652607	0.640720
C122	C	-0.122297	-1.152607	1.140720
C123	C	-0.669212	-1.652627	0.640724
C124	C	-0.169212	-1.152627	1.140724
C125	C	-0.669344	-1.384026	0.371720
C126	C	-0.169344	-0.884026	0.871720
C127	C	-0.622429	-1.384011	0.371722
C128	C	-0.122429	-0.884011	0.871722
C129	C	-0.598938	-1.451149	0.438973
C130	C	-0.098938	-0.951149	0.938973
C131	C	-0.099239	-1.518417	0.506224
C132	C	0.400761	-1.018417	1.006224
C133	C	-0.049305	-1.518487	0.506236
C134	C	0.450695	-1.018487	1.006236
C135	C	-0.216374	-1.518333	0.780232
C136	C	0.283626	-1.018333	1.280232
C137	C	-0.216356	-1.518367	0.897009
C138	C	0.283644	-1.018367	1.397009
C139	C	-0.216426	-0.792288	0.506214
C140	C	0.283574	-0.292288	1.006214
C141	C	-0.216419	-0.909065	0.506211
C142	C	0.283581	-0.409065	1.006211
C143	C	-0.216428	-1.518237	0.233231
C144	C	0.283572	-1.018237	0.733231
C145	C	-0.216320	-1.518407	0.116455
C146	C	0.283680	-1.018407	0.616455
C147	C	-0.187621	-1.585608	0.951884
C148	C	0.312379	-1.085608	1.451884
C149	C	-0.187602	-1.585626	1.061608
C150	C	0.312398	-1.085626	1.561608
C151	C	-0.245056	-1.451158	1.061572
C152	C	0.254944	-0.951158	1.561572
C153	C	-0.245073	-1.451136	0.951850
C154	C	0.254927	-0.951136	1.451850
H155	H	-1.044883	-1.640315	0.628264
H156	H	-0.544883	-1.140315	1.128264
H157	H	-0.164236	-1.640349	0.907235
H158	H	0.335764	-1.140349	1.407235
H159	H	-0.164355	-0.919369	0.628312
H160	H	0.335645	-0.419369	1.128312
H161	H	-0.268438	-1.396424	1.106238
H162	H	0.231562	-0.896424	1.606238
H163	H	-0.268478	-0.919150	0.384100
H164	H	0.231522	-0.419150	0.884100
H165	H	-0.164349	-1.118417	0.628305
H166	H	0.335651	-0.618417	1.128305
H167	H	-0.164202	-1.640379	1.106282
H168	H	0.335798	-1.140379	1.606282
H169	H	-0.268472	-1.396373	0.907170
H170	H	0.231528	-0.896373	1.407170
H171	H	-0.268474	-1.118218	0.384075
H172	H	0.231526	-0.618218	0.884075
H173	H	-0.959774	-1.640299	0.628251
H174	H	-0.459774	-1.140299	1.128251
H175	H	-0.829027	-1.707386	0.695497
H176	H	-0.329027	-1.207386	1.195497
H177	H	-1.045009	-1.396656	0.384226
H178	H	-0.545009	-0.896656	0.884226
H179	H	-0.743921	-1.707344	0.695494
H180	H	-0.243921	-1.207344	1.195494
H181	H	-0.688280	-1.707317	0.695495
H182	H	-0.188280	-1.207317	1.195495
H183	H	-0.829225	-1.329436	0.316931
H184	H	-0.329225	-0.829436	0.816931
H185	H	-0.472488	-1.640038	0.628261
H186	H	0.027512	-1.140038	1.128261
H187	H	-0.387366	-1.639996	0.628244
H188	H	0.112634	-1.139996	1.128244
H189	H	-0.387497	-1.396321	0.384221
H190	H	0.112503	-0.896321	0.884221
H191	H	-0.744115	-1.329383	0.316933
H192	H	-0.244115	-0.829383	0.816933
H193	H	-0.472605	-1.396376	0.384201
H194	H	0.027395	-0.896376	0.884201
H195	H	-0.603163	-1.707270	0.695482
H196	H	-0.103163	-1.207270	1.195482
H197	H	-0.959886	-1.396604	0.384221
H198	H	-0.459886	-0.896604	0.884221
H199	H	-0.688466	-1.329355	0.316953
H200	H	-0.188466	-0.829355	0.816953
H201	H	-0.603360	-1.329309	0.316953
H202	H	-0.103360	-0.829309	0.816953
