data_functionalizedCrystal
_audit_creation_method	'MofGen! by Chris Wilmer'
_symmetry_space_group_name_H-M	'P1'
_symmetry_Int_Tables_number	1
_symmetry_cell_setting	triclinic
loop_
_symmetry_equiv_pos_as_xyz
  x,y,z
_cell_length_a	12.759401
_cell_length_b	13.897447
_cell_length_c	12.759393
_cell_angle_alpha	89.970725
_cell_angle_beta	90.019437
_cell_angle_gamma	89.978792
loop_
_atom_site_label
_atom_site_type_symbol
_atom_site_fract_x
_atom_site_fract_y
_atom_site_fract_z
Zn1	Zn	1.606208	0.383958	0.594024
Zn2	Zn	1.606082	0.545287	0.418352
Zn3	Zn	1.430510	0.384008	0.418361
Zn4	Zn	1.430479	0.545212	0.593990
O5	O	1.518320	0.464616	0.506182
O6	O	1.753212	0.405369	0.570731
O7	O	1.582753	0.523945	0.271332
O8	O	1.453882	0.249019	0.441681
O9	O	1.753120	0.523897	0.441665
O10	O	1.582967	0.248983	0.570741
O11	O	1.453761	0.405454	0.271339
O12	O	1.283485	0.405382	0.441648
O13	O	1.453829	0.523769	0.741016
O14	O	1.283462	0.523818	0.570682
O15	O	1.582937	0.405296	0.741041
O16	O	1.582723	0.680259	0.441632
O17	O	1.453707	0.680204	0.570673
C18	C	1.245352	0.464598	0.506163
C19	C	1.128576	0.464613	0.506180
C20	C	0.964004	0.526392	0.573280
C21	C	1.073728	0.526380	0.573263
C22	C	1.073693	0.402862	0.439102
C23	C	0.963971	0.402880	0.439114
C24	C	0.909163	0.588156	0.640376
C25	C	0.964038	0.649909	0.707453
C26	C	1.073762	0.649897	0.707436
C27	C	1.128611	0.588131	0.640342
C28	C	1.518226	0.715231	0.506171
C29	C	1.518283	0.822445	0.506201
C30	C	1.518331	0.909514	0.506230
C31	C	1.518401	1.018747	0.506263
C32	C	1.792353	0.464635	0.506201
C33	C	1.909130	0.464644	0.506209
C34	C	1.518393	0.464519	0.780215
C35	C	1.518425	0.464477	0.896992
C36	C	1.518434	1.213023	0.506229
C37	C	1.518463	1.105809	0.506284
C38	C	1.518307	0.464644	0.233214
C39	C	1.518479	0.464413	0.116438
C40	C	1.585660	0.402783	0.951869
C41	C	1.585685	0.402748	1.061593
C42	C	1.451236	0.526111	1.061554
C43	C	1.451207	0.526140	0.951832
C44	C	1.652878	0.341120	0.897029
C45	C	1.720120	0.279421	0.951906
C46	C	1.720145	0.279386	1.061630
C47	C	1.652928	0.341050	1.116477
H48	H	0.919372	0.700201	0.762073
O49	O	1.652863	0.341152	0.778685
H50	H	1.674058	0.413918	0.749748
O51	O	1.132945	0.716498	0.779783
H52	H	1.182972	0.673367	0.833298
O53	O	0.904772	0.336276	0.366782
H54	H	0.961339	0.293313	0.320137
H55	H	1.774839	0.229210	0.907242
H56	H	1.774889	0.229141	1.106308
O57	O	1.132844	0.336237	0.366748
H58	H	1.218360	0.346591	0.378016
H59	H	1.217956	0.588132	0.640327
O60	O	1.652949	0.341016	1.234824
H61	H	1.710998	0.287757	1.263773
H62	H	1.396441	0.576363	0.907150
O63	O	0.790818	0.588201	0.640355
H64	H	0.761900	0.641537	0.698259
O65	O	1.378744	0.592621	1.120703
H66	H	1.390066	0.582241	1.206219
