data_functionalizedCrystal
_audit_creation_method	'MofGen! by Chris Wilmer'
_symmetry_space_group_name_H-M	'P1'
_symmetry_Int_Tables_number	1
_symmetry_cell_setting	triclinic
loop_
_symmetry_equiv_pos_as_xyz
  x,y,z
_cell_length_a	10.654562
_cell_length_b	14.044190
_cell_length_c	9.130313
_cell_angle_alpha	89.993628
_cell_angle_beta	89.996930
_cell_angle_gamma	88.840940
loop_
_atom_site_label
_atom_site_type_symbol
_atom_site_fract_x
_atom_site_fract_y
_atom_site_fract_z
O1	O	1.681223	0.133285	-0.121915
O2	O	1.317021	0.145966	-0.121899
O3	O	1.493651	0.001605	-0.121878
O4	O	1.504593	0.277647	-0.121936
O5	O	1.493649	0.001609	0.121721
O6	O	1.317019	0.145970	0.121700
O7	O	1.681221	0.133289	0.121684
Cu8	Cu	1.499120	0.139630	0.143935
Cu9	Cu	1.499122	0.139626	-0.144149
O10	O	1.504591	0.277651	0.121663
C11	C	1.270129	0.145035	-0.000097
C12	C	1.130405	0.142241	-0.000089
C13	C	1.064743	0.140941	0.132685
C14	C	0.933457	0.138324	0.132662
C15	C	0.933509	0.138312	-0.132923
C16	C	1.064792	0.140922	-0.132898
C17	C	1.064712	0.140951	0.286019
C18	C	0.933426	0.138334	0.285995
C19	C	1.488863	-0.033739	-0.000074
C20	C	1.474584	-0.139060	-0.000060
C21	C	1.549749	-0.388849	-0.000121
C22	C	1.448499	-0.331889	-0.000106
C23	C	1.463016	-0.224589	-0.000081
C24	C	1.535234	-0.496160	-0.000147
C25	C	1.728114	0.134221	-0.000121
C26	C	1.867837	0.137014	-0.000138
C27	C	1.509379	0.312995	-0.000144
C28	C	1.523659	0.418315	-0.000167
N29	N	1.499127	0.139633	0.346557
N30	N	1.499124	0.139615	-0.346772
C31	C	1.577363	0.075732	0.423218
C32	C	1.577359	0.075720	0.576555
C33	C	1.420879	0.203520	0.576556
C34	C	1.420878	0.203526	0.423222
C35	C	1.667709	0.001950	0.423219
C36	C	1.667705	0.001939	0.576556
H37	H	0.880071	0.137239	-0.241051
C38	C	1.792356	0.032630	0.359545
C39	C	1.843145	-0.041002	0.273258
C40	C	1.957946	-0.012753	0.214547
H41	H	1.848759	0.046523	0.436856
H42	H	1.779369	0.087843	0.300911
H43	H	1.856138	-0.096199	0.331889
H44	H	1.786777	-0.054905	0.195924
H45	H	1.944959	0.042461	0.155913
H46	H	2.014338	0.001141	0.291868
H47	H	1.992415	-0.062703	0.155984
C48	C	1.617769	-0.089840	0.640275
C49	C	1.620406	-0.084924	0.793403
C50	C	1.574397	-0.169443	0.852153
H51	H	1.668645	-0.142134	0.608312
H52	H	1.533877	-0.098206	0.608235
H53	H	1.704285	-0.076569	0.825430
H54	H	1.569527	-0.032648	0.825406
H55	H	1.490505	-0.177808	0.820113
H56	H	1.625278	-0.221730	0.820180
H57	H	1.576170	-0.166115	0.956055
C58	C	1.629152	-0.095171	0.367536
C59	C	1.520415	-0.085020	0.282387
C60	C	1.484862	-0.174460	0.231056
H61	H	1.613059	-0.135753	0.448333
H62	H	1.694889	-0.122140	0.309650
H63	H	1.454693	-0.058064	0.340270
H64	H	1.536478	-0.044454	0.201569
H65	H	1.550598	-0.201429	0.173170
H66	H	1.468775	-0.215036	0.311861
H67	H	1.411088	-0.167584	0.173266
C68	C	1.335716	0.272777	0.659721
C69	C	1.210499	0.256502	0.622454
C70	C	1.132009	0.320276	0.699049
H71	H	1.356282	0.336226	0.634656
H72	H	1.346833	0.263614	0.762035
H73	H	1.199388	0.265673	0.520163
H74	H	1.189894	0.193065	0.647523
H75	H	1.143125	0.311113	0.801363
H76	H	1.152586	0.383721	0.673978
H77	H	1.047040	0.309236	0.673784
C78	C	1.318343	-0.374255	-0.000402
C79	C	1.253239	-0.343897	-0.125731
C80	C	1.133347	-0.382918	-0.126056
H81	H	1.273831	-0.353795	0.084458
H82	H	1.325694	-0.441785	-0.000494
H83	H	1.245882	-0.276381	-0.125626
H84	H	1.297713	-0.364355	-0.210611
H85	H	1.140698	-0.450449	-0.126148
H86	H	1.088847	-0.362456	-0.041191
H87	H	1.089163	-0.362333	-0.211096
C88	C	0.880724	0.225835	0.364434
C89	C	0.979735	0.281974	0.412439
C90	C	0.931233	0.362590	0.484679
H91	H	0.832370	0.206573	0.446259
H92	H	0.829026	0.261713	0.299032
H93	H	1.031411	0.246102	0.477837
H94	H	1.028098	0.301260	0.330643
H95	H	0.879536	0.398468	0.419277
H96	H	0.882880	0.343319	0.566498
H97	H	0.998404	0.400694	0.517247
H98	H	1.765850	0.018195	0.618164
H99	H	1.101240	0.210133	0.333581
C100	C	1.679893	-0.346479	-0.000406
C101	C	1.745006	-0.376788	-0.125753
C102	C	1.864890	-0.337753	-0.126071
H103	H	1.724408	-0.366962	0.084441
H104	H	1.672529	-0.278950	-0.000467
H105	H	1.752376	-0.444303	-0.125679
H106	H	1.700530	-0.356306	-0.210620
H107	H	1.857525	-0.270223	-0.126132
H108	H	1.909392	-0.358238	-0.041219
H109	H	1.909080	-0.358304	-0.211124
H110	H	0.896884	0.069155	0.333589
C111	C	1.336087	0.273055	0.340072
C112	C	1.366915	0.366415	0.377338
C113	C	1.288839	0.430493	0.300757
H114	H	1.251022	0.262279	0.365149
H115	H	1.347299	0.263976	0.237756
H116	H	1.355692	0.375489	0.479631
H117	H	1.451967	0.377220	0.352257
H118	H	1.300051	0.421414	0.198441
H119	H	1.203778	0.419709	0.325840
H120	H	1.309752	0.493845	0.326021
H121	H	1.118251	0.141967	-0.241016
H122	H	1.104381	0.075397	0.344916
