data_functionalizedCrystal
_audit_creation_method	'MofGen! by Chris Wilmer'
_symmetry_space_group_name_H-M	'P1'
_symmetry_Int_Tables_number	1
_symmetry_cell_setting	triclinic
loop_
_symmetry_equiv_pos_as_xyz
  x,y,z
_cell_length_a	10.723024
_cell_length_b	27.732048
_cell_length_c	9.198806
_cell_angle_alpha	89.991879
_cell_angle_beta	89.996352
_cell_angle_gamma	83.555262
loop_
_atom_site_label
_atom_site_type_symbol
_atom_site_fract_x
_atom_site_fract_y
_atom_site_fract_z
O1	O	1.654382	0.067789	-0.120901
O2	O	1.290961	0.074278	-0.120907
O3	O	1.483959	0.000707	-0.120876
O4	O	1.461385	0.141360	-0.120932
O5	O	1.483944	0.000707	0.120909
O6	O	1.290946	0.074278	0.120878
O7	O	1.654367	0.067789	0.120884
Cu8	Cu	1.472655	0.071033	0.142958
Cu9	Cu	1.472673	0.071033	-0.142981
O10	O	1.461370	0.141360	0.120853
C11	C	1.244474	0.073806	-0.000015
C12	C	1.105978	0.072393	-0.000017
C13	C	1.029292	0.113559	-0.000034
C14	C	0.886149	0.112100	-0.000035
C15	C	1.483478	-0.017303	0.000020
C16	C	1.482051	-0.070967	0.000032
C17	C	1.587117	-0.409130	-0.000040
C18	C	1.581823	-0.610822	-0.000061
O19	O	1.677898	-0.641481	-0.000123
N20	N	1.467383	-0.630656	-0.000061
C21	C	1.354259	-0.600064	-0.000067
O22	O	1.256800	-0.621562	-0.000083
C23	C	1.359554	-0.398373	-0.000057
C24	C	1.474001	-0.378541	-0.000041
C25	C	1.701554	-0.389298	-0.000026
C26	C	1.702877	-0.338877	-0.000013
C27	C	1.589761	-0.308289	-0.000014
C28	C	1.475324	-0.328121	-0.000028
C29	C	1.246432	-0.367781	-0.000072
C30	C	1.247766	-0.317356	-0.000073
C31	C	1.362213	-0.297524	-0.000058
C32	C	1.363531	-0.247113	-0.000016
N33	N	1.477970	-0.227278	-0.000015
C34	C	1.591085	-0.257867	-0.000014
C35	C	1.351487	-0.705956	-0.000069
C36	C	1.350163	-0.756378	-0.000069
C37	C	1.577727	-0.767133	-0.000066
C38	C	1.579050	-0.716709	-0.000055
C39	C	1.465926	-0.686121	-0.000068
C40	C	1.593854	-0.151980	0.000014
C41	C	1.595166	-0.101555	0.000033
C42	C	1.367603	-0.090805	0.000022
C43	C	1.366290	-0.141226	0.000011
C44	C	1.479425	-0.171813	0.000002
O45	O	1.267507	-0.216425	0.000030
O46	O	1.688531	-0.236359	-0.000031
C47	C	1.585794	-0.459550	-0.000053
C48	C	1.471357	-0.479382	-0.000067
C49	C	1.358241	-0.448793	-0.000068
C50	C	1.470033	-0.529804	-0.000067
C51	C	1.583148	-0.560392	-0.000066
C52	C	1.697587	-0.540558	-0.000066
C53	C	1.698910	-0.490138	-0.000053
C54	C	1.243802	-0.468628	-0.000069
C55	C	1.242489	-0.519048	-0.000080
C56	C	1.355604	-0.549637	-0.000079
C57	C	1.700855	0.068261	-0.000011
C58	C	1.839351	0.069674	-0.000019
C59	C	1.461851	0.159370	-0.000047
C60	C	1.463278	0.213034	-0.000068
N61	N	1.472652	0.071033	0.344072
N62	N	1.472687	0.071030	-0.344095
C63	C	1.553692	0.040006	0.416282
C64	C	1.553711	0.040005	0.583694
H65	H	0.820258	0.147342	-0.000056
H66	H	0.905234	0.034430	-0.000013
O67	O	1.706456	-0.082372	-0.000022
C68	C	1.932027	-0.098369	0.000064
C69	C	1.806087	-0.120156	0.000097
H70	H	2.012612	-0.128908	0.000191
H71	H	1.938430	-0.075042	-0.101141
H72	H	1.938267	-0.075023	0.101233
H73	H	1.799763	-0.143525	-0.101003
H74	H	1.799738	-0.143456	0.101369
H75	H	1.069611	0.149884	-0.000040
O76	O	1.390079	0.102744	0.581685
C77	C	1.362834	0.168638	0.409715
C78	C	1.456522	0.132742	0.493665
H79	H	1.416516	0.192908	0.338555
H80	H	1.300805	0.147629	0.338374
H81	H	1.301809	0.191975	0.490160
H82	H	1.517629	0.109397	0.413326
H83	H	1.518463	0.153781	0.565028
H84	H	1.669830	-0.792046	-0.000064
O85	O	1.389842	0.102656	0.418326
C86	C	1.219375	0.112465	0.590317
C87	C	1.313109	0.076598	0.506347
H88	H	1.157294	0.091411	0.661479
H89	H	1.272966	0.136705	0.661658
H90	H	1.158411	0.135836	0.509885
H91	H	1.374097	0.053195	0.586674
H92	H	1.259441	0.052391	0.434984
O93	O	1.241673	-0.676196	0.000121
C94	C	1.111040	-0.613057	0.125430
C95	C	1.235460	-0.646721	0.125372
H96	H	1.105964	-0.589226	0.226700
H97	H	1.105946	-0.589143	0.024312
H98	H	1.029050	-0.635909	0.125362
H99	H	1.317520	-0.623908	0.125491
H100	H	1.240444	-0.670637	0.226480
O101	O	1.057831	0.029068	-0.000259
C102	C	0.928909	-0.023396	-0.125460
C103	C	0.983370	0.025683	-0.125382
H104	H	0.868675	-0.026145	-0.226595
H105	H	1.008862	-0.054184	-0.125542
H106	H	0.868802	-0.026180	-0.024226
H107	H	1.043463	0.028514	-0.226598
H108	H	0.903359	0.056447	-0.125223
O109	O	1.135290	-0.387062	0.000154
C110	C	1.001705	-0.437771	0.125315
C111	C	1.127611	-0.415960	0.125265
H112	H	0.995467	-0.461148	0.226441
H113	H	0.921046	-0.407261	0.125395
H114	H	0.995429	-0.461080	0.024072
H115	H	1.134010	-0.392656	0.226491
H116	H	1.208210	-0.446493	0.125109
O117	O	1.137793	-0.287693	-0.000277
C118	C	0.943747	-0.263047	-0.125601
C119	C	1.068228	-0.296674	-0.125537
H120	H	0.887480	-0.270290	-0.226878
H121	H	0.887280	-0.270322	-0.024491
H122	H	0.964372	-0.223605	-0.125522
H123	H	1.047716	-0.336128	-0.125668
H124	H	1.124657	-0.289358	-0.226639
O125	O	1.814018	-0.319593	0.000239
C126	C	1.947573	-0.268896	0.125436
C127	C	1.821669	-0.290709	0.125359
H128	H	1.953789	-0.245531	0.226569
H129	H	2.028234	-0.299406	0.125522
H130	H	1.953868	-0.245576	0.024201
H131	H	1.815251	-0.314024	0.226577
H132	H	1.741068	-0.260176	0.125198
H133	H	1.623097	0.013443	0.645792
H134	H	1.273098	-0.157373	0.000039
O135	O	1.811412	-0.419026	-0.000281
C136	C	1.942006	-0.482204	-0.125476
C137	C	1.817549	-0.448561	-0.125400
H138	H	1.946996	-0.506099	-0.226609
H139	H	2.024059	-0.459383	-0.125562
H140	H	1.947061	-0.506060	-0.024240
H141	H	1.812372	-0.424699	-0.226619
H142	H	1.735555	-0.471411	-0.125239
O143	O	1.690332	-0.697527	-0.000120
C144	C	1.915902	-0.713529	-0.000033
C145	C	1.789959	-0.735313	0.000012
H146	H	1.996483	-0.744069	0.000104
H147	H	1.922308	-0.690207	-0.101248
H148	H	1.922146	-0.690178	0.101125
H149	H	1.783630	-0.758687	-0.101077
H150	H	1.783607	-0.758607	0.101294
H151	H	1.685980	-0.176879	0.000001
H152	H	1.275507	-0.065891	0.000027
H153	H	1.256969	-0.772520	-0.000056
H154	H	1.792104	-0.473996	-0.000040
O155	O	1.807436	-0.570297	-0.000326
C156	C	1.937951	-0.633486	-0.125567
C157	C	1.813525	-0.599825	-0.125458
H158	H	1.942903	-0.657376	-0.226710
H159	H	2.020033	-0.610679	-0.125657
H160	H	1.942994	-0.657347	-0.024341
H161	H	1.808360	-0.575958	-0.226667
H162	H	1.731503	-0.622661	-0.125293
O163	O	1.131338	-0.538333	0.000161
C164	C	0.997769	-0.589047	0.125323
C165	C	1.123671	-0.567233	0.125268
H166	H	0.991540	-0.612426	0.226446
H167	H	0.917105	-0.558538	0.125413
H168	H	0.991491	-0.612354	0.024077
H169	H	1.130071	-0.543931	0.226497
H170	H	1.204274	-0.597765	0.125103
O171	O	1.133947	-0.438899	-0.000322
C172	C	1.003378	-0.375705	-0.125514
C173	C	1.127831	-0.409350	-0.125435
H174	H	0.998405	-0.351799	-0.226641
H175	H	0.921322	-0.398524	-0.125611
H176	H	0.998313	-0.351860	-0.024273
H177	H	1.133019	-0.433201	-0.226659
H178	H	1.209829	-0.386501	-0.125262
O179	O	1.636328	0.008259	0.342223
C180	C	1.710527	-0.075555	0.295350
C181	C	1.616850	-0.039660	0.379301
H182	H	1.694830	-0.114305	0.325319
H183	H	1.695743	-0.069936	0.173524
H184	H	1.810432	-0.068992	0.325132
H185	H	1.516908	-0.046200	0.349640
H186	H	1.631744	-0.045287	0.501105
