data_functionalizedCrystal
_audit_creation_method	'MofGen! by Chris Wilmer'
_symmetry_space_group_name_H-M	'P1'
_symmetry_Int_Tables_number	1
_symmetry_cell_setting	triclinic
loop_
_symmetry_equiv_pos_as_xyz
  x,y,z
_cell_length_a	10.654541
_cell_length_b	15.995350
_cell_length_c	9.130307
_cell_angle_alpha	89.998938
_cell_angle_beta	89.999822
_cell_angle_gamma	83.988152
loop_
_atom_site_label
_atom_site_type_symbol
_atom_site_fract_x
_atom_site_fract_y
_atom_site_fract_z
O1	O	1.666303	0.117592	-0.121747
O2	O	2.166303	0.617592	0.378253
O3	O	1.300677	0.128798	-0.121759
O4	O	1.800677	0.628798	0.378241
O5	O	1.493484	0.001365	-0.121751
O6	O	1.993484	0.501365	0.378249
O7	O	1.473495	0.245024	-0.121754
O8	O	1.973495	0.745024	0.378246
O9	O	1.493478	0.001364	0.121848
O10	O	1.993478	0.501364	0.621848
O11	O	1.300671	0.128797	0.121840
O12	O	1.800671	0.628797	0.621840
O13	O	1.666296	0.117590	0.121852
O14	O	2.166296	0.617590	0.621852
Cu15	Cu	1.483483	0.123193	0.144089
Cu16	Cu	1.983483	0.623193	0.644089
Cu17	Cu	1.483490	0.123195	-0.143995
Cu18	Cu	1.983490	0.623195	0.356005
O19	O	1.473489	0.245023	0.121845
O20	O	1.973489	0.745023	0.621845
C21	C	1.253887	0.127975	0.000039
C22	C	1.753887	0.627975	0.500039
C23	C	1.114475	0.125514	0.000034
C24	C	1.614475	0.625514	0.500034
C25	C	1.084514	0.277895	0.000014
C26	C	1.584514	0.777895	0.500014
C27	C	1.004039	0.352926	-0.000002
C28	C	1.504039	0.852926	0.499998
C29	C	0.873052	0.350609	-0.000003
C30	C	1.373052	0.850609	0.499997
C31	C	0.822537	0.273253	0.000016
C32	C	1.322537	0.773253	0.500016
C33	C	0.903011	0.198222	0.000032
C34	C	1.403011	0.698222	0.500032
C35	C	1.034000	0.200547	0.000029
C36	C	1.534000	0.700547	0.500029
C37	C	0.932972	0.045843	0.000063
C38	C	1.432972	0.545843	0.500063
C39	C	1.063961	0.048158	0.000054
C40	C	1.563961	0.548158	0.500054
C41	C	0.882458	-0.031513	0.000082
C42	C	1.382458	0.468487	0.500082
C43	C	0.962933	-0.106546	0.000087
C44	C	1.462933	0.393454	0.500087
C45	C	1.093928	-0.104226	0.000087
C46	C	1.593928	0.395774	0.500087
C47	C	1.144435	-0.026873	0.000070
C48	C	1.644435	0.473127	0.500070
C49	C	1.492655	-0.029835	0.000046
C50	C	1.992655	0.470165	0.500046
C51	C	1.490177	-0.122800	0.000037
C52	C	1.990177	0.377200	0.500037
C53	C	1.481280	-0.460599	0.000042
C54	C	1.981280	0.039401	0.500042
C55	C	1.343966	-0.413961	-0.000509
C56	C	1.843966	0.086039	0.499491
C57	C	1.346444	-0.317257	0.000040
C58	C	1.846444	0.182743	0.500040
C59	C	1.485693	-0.293013	0.000039
C60	C	1.985693	0.206987	0.500039
C61	C	1.553418	-0.333698	0.139146
C62	C	2.053418	0.166302	0.639146
C63	C	1.549968	-0.430354	0.139262
C64	C	2.049968	0.069646	0.639262
C65	C	1.552812	-0.430694	-0.137756
C66	C	2.052812	0.069306	0.362244
C67	C	1.552779	-0.333749	-0.139594
C68	C	2.052779	0.166251	0.360406
C69	C	1.488195	-0.198301	0.000042
C70	C	1.988195	0.301699	0.500042
C71	C	1.478783	-0.555311	0.000049
C72	C	1.978783	-0.055311	0.500049
C73	C	1.713087	0.118413	0.000051
C74	C	2.213087	0.618413	0.500051
C75	C	1.852498	0.120874	0.000047
C76	C	2.352498	0.620874	0.500047
C77	C	1.474318	0.276223	0.000045
C78	C	1.974318	0.776223	0.500045
C79	C	1.476796	0.369188	0.000044
C80	C	1.976796	0.869188	0.500044
N81	N	1.483487	0.123192	0.346712
N82	N	1.983487	0.623192	0.846712
N83	N	1.483496	0.123190	-0.346618
N84	N	1.983496	0.623190	0.153382
C85	C	1.654287	0.010383	0.346709
C86	C	2.154287	0.510383	0.846709
C87	C	1.739695	-0.046019	0.423374
C88	C	2.239695	0.453981	0.923374
C89	C	1.739708	-0.046019	0.576707
C90	C	2.239708	0.453981	1.076707
C91	C	1.654300	0.010387	0.653379
C92	C	2.154300	0.510387	1.153379
C93	C	1.568892	0.066788	0.576714
C94	C	2.068892	0.566788	1.076714
C95	C	1.568891	0.066785	0.423377
C96	C	2.068891	0.566785	0.923377
C97	C	1.398088	0.179592	0.576717
C98	C	1.898088	0.679592	1.076717
C99	C	1.398079	0.179598	0.423384
C100	C	1.898079	0.679598	0.923384
C101	C	1.312680	0.235998	0.653389
C102	C	1.812680	0.735998	1.153389
C103	C	1.227276	0.292405	0.576724
C104	C	1.727276	0.792405	1.076724
C105	C	1.227268	0.292404	0.423381
C106	C	1.727268	0.792404	0.923381
C107	C	1.312671	0.236000	0.346718
C108	C	1.812671	0.736000	0.846718
H109	H	0.775800	-0.033395	0.000089
H110	H	1.275800	0.466605	0.500089
H111	H	1.654306	0.010376	0.778231
H112	H	2.154306	0.510376	1.278231
F113	F	1.312688	0.235993	0.816580
F114	F	1.812688	0.735993	1.316580
F115	F	1.283842	-0.024397	0.000061
F116	F	1.783842	0.475603	0.500061
H117	H	0.807528	0.411706	-0.000006
H118	H	1.307528	0.911706	0.499994
F119	F	1.276861	-0.280508	-0.130297
F120	F	1.776861	0.219492	0.369703
F121	F	1.272229	-0.438597	-0.130899
F122	F	1.772229	0.061403	0.369101
F123	F	0.683127	0.270791	0.000036
F124	F	1.183127	0.770791	0.500036
F125	F	1.136382	0.352425	0.658329
F126	F	1.636382	0.852425	1.158329
H127	H	1.191169	0.279789	-0.000017
H128	H	1.691169	0.779789	0.499983
F129	F	1.057810	0.435250	-0.000023
F130	F	1.557810	0.935250	0.499977
H131	H	1.654053	-0.461868	-0.138691
H132	H	2.154053	0.038132	0.361309
H133	H	1.157713	0.338330	0.360968
H134	H	1.657713	0.838330	0.860968
H135	H	1.289324	-0.433873	0.098688
H136	H	1.789324	0.066127	0.598688
F137	F	0.909163	-0.188865	0.000119
F138	F	1.409163	0.311135	0.500119
H139	H	1.159444	-0.165325	0.000106
H140	H	1.659444	0.334675	0.500106
F141	F	1.276382	-0.281238	0.130593
F142	F	1.776382	0.218762	0.630593
F143	F	1.830585	-0.106050	0.341768
F144	F	2.330585	0.393950	0.841768
F145	F	1.488557	-0.298116	-0.274122
F146	F	1.988557	0.201884	0.225878
F147	F	1.485407	-0.454653	0.275174
F148	F	1.985407	0.045347	0.775174
H149	H	1.809250	-0.091950	0.639128
H150	H	2.309250	0.408050	1.139128
H151	H	1.655720	-0.318979	0.144318
H152	H	2.155720	0.181021	0.644318
F153	F	1.681735	-0.471743	0.147526
F154	F	2.181735	0.028257	0.647526
F155	F	1.491931	-0.296962	0.274456
F156	F	1.991931	0.203038	0.774456
H157	H	1.507920	-0.451494	-0.243190
H158	H	2.007920	0.048506	0.256810
H159	H	1.312676	0.235997	0.221866
H160	H	1.812676	0.735997	0.721866
H161	H	1.654326	-0.317798	-0.147994
H162	H	2.154326	0.182202	0.352006
H163	H	1.654296	0.010385	0.221856
H164	H	2.154296	0.510385	0.721856
