data_functionalizedCrystal
_audit_creation_method	'MofGen! by Chris Wilmer'
_symmetry_space_group_name_H-M	'P1'
_symmetry_Int_Tables_number	1
_symmetry_cell_setting	triclinic
loop_
_symmetry_equiv_pos_as_xyz
  x,y,z
_cell_length_a	10.489741
_cell_length_b	13.448316
_cell_length_c	14.971486
_cell_angle_alpha	89.993189
_cell_angle_beta	84.076651
_cell_angle_gamma	89.995953
loop_
_atom_site_label
_atom_site_type_symbol
_atom_site_fract_x
_atom_site_fract_y
_atom_site_fract_z
O1	O	1.692597	-0.082631	0.126198
O2	O	1.321264	-0.082646	0.138043
O3	O	1.516883	-0.082631	0.001977
O4	O	1.496978	-0.082646	0.262264
O5	O	1.516859	0.082753	0.001968
O6	O	1.321240	0.082737	0.138035
O7	O	1.692572	0.082753	0.126189
Cu8	Cu	1.506904	0.097846	0.132111
Cu9	Cu	1.506933	-0.097740	0.132121
O10	O	1.496953	0.082738	0.262255
C11	C	1.273731	0.000043	0.137144
C12	C	1.132132	0.000038	0.134468
N13	N	1.506893	0.235410	0.132103
N14	N	1.506954	-0.235304	0.132122
C15	C	1.064994	0.000052	0.047893
C16	C	0.972406	-0.081491	0.088794
C17	C	0.972415	0.081564	0.088806
C18	C	1.041409	-0.081573	0.175405
C19	C	1.041428	0.081556	0.175405
C20	C	0.948867	-0.000007	0.216369
C21	C	1.740106	0.000061	0.127088
C22	C	1.881704	0.000060	0.129765
C23	C	1.515981	0.000060	-0.031357
C24	C	1.513313	0.000059	-0.130669
C25	C	1.593540	0.287457	0.071879
C26	C	1.593548	0.391561	0.071878
C27	C	1.506914	0.443615	0.132107
C28	C	1.420257	0.391560	0.192335
C29	C	1.420244	0.287459	0.192331
C30	C	1.420293	0.608540	0.192341
C31	C	1.420307	0.712649	0.192347
C32	C	1.593596	0.712642	0.071888
C33	C	1.593583	0.608541	0.071884
C34	C	1.506928	0.556493	0.132113
C35	C	1.628234	0.000065	-0.187241
C36	C	1.625720	0.000055	-0.280554
C37	C	1.508283	0.000046	-0.317295
C38	C	1.393354	0.000038	-0.260716
C39	C	1.395869	0.000041	-0.167404
C40	C	1.388119	0.000034	-0.455209
C41	C	1.385603	0.000033	-0.548527
C42	C	1.617969	0.000048	-0.568359
C43	C	1.620485	0.000051	-0.475047
C44	C	1.505554	0.000044	-0.418474
C45	C	1.497856	0.000044	0.295589
C46	C	1.500523	0.000038	0.394902
H47	H	1.115507	-0.000046	-0.023277
H48	H	1.711550	0.000050	-0.614424
C49	C	1.156169	-0.000022	-0.519557
C50	C	1.256516	0.000002	-0.588915
H51	H	1.076477	-0.000051	-0.544493
H52	H	1.161949	0.057652	-0.483584
H53	H	1.162016	-0.057694	-0.483565
H54	H	1.250674	0.057678	-0.624903
H55	H	1.250733	-0.057678	-0.624903
C56	C	0.846899	-0.231139	0.097591
C57	C	0.931126	-0.174559	0.039357
H58	H	0.821431	-0.288597	0.067068
H59	H	0.773474	-0.192479	0.117062
H60	H	0.888683	-0.250728	0.148130
H61	H	0.889339	-0.154964	-0.011179
H62	H	1.004564	-0.213226	0.019872
H63	H	1.071824	-0.150589	0.212011
H64	H	0.941851	0.150503	0.052155
H65	H	0.898618	-0.000056	0.287614
C66	C	1.256146	-0.084990	-0.338755
C67	C	1.261786	0.000027	-0.393022
H68	H	1.178152	-0.084991	-0.300368
H69	H	1.326439	-0.084979	-0.303525
H70	H	1.260000	-0.142657	-0.375571
H71	H	1.257942	0.057695	-0.356205
H72	H	1.191474	0.000025	-0.428255
C73	C	1.165934	0.000033	-0.157169
C74	C	1.269544	0.000037	-0.105217
H75	H	1.087946	0.000033	-0.118776
H76	H	1.169797	-0.057636	-0.193969
H77	H	1.169783	0.057711	-0.193984
H78	H	1.265701	-0.057644	-0.068407
H79	H	1.265680	0.057712	-0.068402
C80	C	1.048352	0.259934	0.179341
C81	C	1.082776	0.174618	0.224808
H82	H	1.073891	0.317391	0.209833
H83	H	0.958117	0.260939	0.177528
H84	H	1.089721	0.259339	0.119831
H85	H	1.041399	0.175210	0.284317
H86	H	1.173028	0.173614	0.226631
H87	H	1.716112	0.000065	-0.445136
C88	C	1.764818	0.297918	-0.047195
C89	C	1.688770	0.230244	0.005670
H90	H	1.823602	0.262597	-0.088075
H91	H	1.810755	0.338504	-0.009646
H92	H	1.711669	0.338537	-0.079727
H93	H	1.741918	0.189630	0.038207
H94	H	1.642830	0.189641	-0.031884
C95	C	1.668308	0.744691	-0.082452
C96	C	1.688854	0.769842	0.005680
H97	H	1.727125	0.780002	-0.123320
H98	H	1.583189	0.761774	-0.092752
H99	H	1.680696	0.675240	-0.091057
H100	H	1.676457	0.839292	0.014287
H101	H	1.773994	0.752766	0.015984
C102	C	1.249015	0.618999	0.311423
C103	C	1.325047	0.551328	0.258550
H104	H	1.190227	0.583676	0.352302
H105	H	1.203083	0.659611	0.273879
H106	H	1.302174	0.659593	0.343957
H107	H	1.271888	0.510738	0.226011
H108	H	1.370982	0.510699	0.296099
C109	C	1.621093	0.508634	-0.049673
C110	C	1.688802	0.448763	0.005677
H111	H	1.679905	0.543940	-0.090548
H112	H	1.569513	0.554535	-0.013809
H113	H	1.567956	0.468024	-0.082211
H114	H	1.741932	0.489374	0.038220
H115	H	1.740404	0.402857	-0.030191
C116	C	1.248970	0.297916	0.311406
C117	C	1.325005	0.230245	0.258536
H118	H	1.190176	0.262592	0.352281
H119	H	1.203045	0.338530	0.273861
H120	H	1.302127	0.338507	0.343945
H121	H	1.271849	0.189658	0.225992
H122	H	1.370933	0.189613	0.296086
H123	H	1.297735	0.000025	-0.290638
H124	H	1.719300	0.000061	-0.326611
H125	H	1.349712	0.433949	0.241372
C126	C	1.857663	0.000062	-0.216225
C127	C	1.757326	0.000067	-0.146860
H128	H	1.937360	0.000054	-0.191296
H129	H	1.851846	0.057732	-0.252211
H130	H	1.851841	-0.057615	-0.252203
H131	H	1.763143	0.057748	-0.110886
H132	H	1.763146	-0.057608	-0.110859
H133	H	1.349759	0.755026	0.241391
H134	H	1.664133	0.566158	0.022845
