data_functionalizedCrystal
_audit_creation_method	'MofGen! by Chris Wilmer'
_symmetry_space_group_name_H-M	'P1'
_symmetry_Int_Tables_number	1
_symmetry_cell_setting	triclinic
loop_
_symmetry_equiv_pos_as_xyz
  x,y,z
_cell_length_a	11.792241
_cell_length_b	11.026607
_cell_length_c	9.482900
_cell_angle_alpha	78.599815
_cell_angle_beta	99.349837
_cell_angle_gamma	96.389716
loop_
_atom_site_label
_atom_site_type_symbol
_atom_site_fract_x
_atom_site_fract_y
_atom_site_fract_z
O1	O	-1.553789	-0.147664	-0.120746
O2	O	-1.053789	0.352336	0.379254
O3	O	-1.226860	-0.164824	-0.120779
O4	O	-0.726860	0.335176	0.379221
O5	O	-1.363228	0.020587	-0.120760
O6	O	-0.863228	0.520587	0.379240
O7	O	-1.417420	-0.333075	-0.120765
O8	O	-0.917420	0.166925	0.379235
O9	O	-1.335560	-0.017226	0.121029
O10	O	-0.835560	0.482774	0.621029
O11	O	-1.199191	-0.202637	0.121010
O12	O	-0.699191	0.297363	0.621010
O13	O	-1.526120	-0.185478	0.121043
O14	O	-1.026120	0.314522	0.621043
Cu15	Cu	-1.360130	-0.197510	0.143104
Cu16	Cu	-0.860130	0.302490	0.643104
Cu17	Cu	-1.392851	-0.152792	-0.142839
Cu18	Cu	-0.892851	0.347208	0.357161
O19	O	-1.389752	-0.370888	0.121024
O20	O	-0.889752	0.129112	0.621024
C21	C	-1.170521	-0.182652	0.000111
C22	C	-0.670521	0.317348	0.500111
C23	C	-1.043868	-0.179423	0.000098
C24	C	-0.543868	0.320577	0.500098
C25	C	-1.582459	-0.167649	0.000150
C26	C	-1.082459	0.332351	0.500150
C27	C	-1.709114	-0.170877	0.000153
C28	C	-1.209114	0.329123	0.500153
C29	C	-1.339397	0.046957	0.000132
C30	C	-0.839397	0.546957	0.500132
C31	C	-1.309595	0.181869	0.000124
C32	C	-0.809595	0.681869	0.500124
C33	C	-0.811973	-0.173495	0.000140
C34	C	-0.311973	0.326505	0.500140
C35	C	-0.941015	-0.176788	0.000117
C36	C	-0.441015	0.323212	0.500117
C37	C	-1.413584	-0.397258	0.000129
C38	C	-0.913584	0.102742	0.500129
C39	C	-1.443387	-0.532168	0.000128
C40	C	-0.943387	-0.032168	0.500128
N41	N	-1.337123	-0.228962	0.344221
N42	N	-0.837123	0.271038	0.844221
C43	C	-1.391885	0.255132	0.000130
C44	C	-0.891885	0.755132	0.500130
C45	C	-1.361085	0.394570	0.000121
C46	C	-0.861085	0.894570	0.500121
N47	N	-1.415864	-0.121330	-0.343956
N48	N	-0.915864	0.378670	0.156044
C49	C	-1.386056	-0.162062	0.416427
C50	C	-0.886056	0.337938	0.916427
C51	C	-1.366924	-0.188240	0.583841
C52	C	-0.866924	0.311760	1.083841
H53	H	-1.485136	0.214624	0.000148
H54	H	-0.985136	0.714624	0.500148
H55	H	-1.471919	-0.044665	0.593927
H56	H	-0.971919	0.455335	1.093927
F57	F	-1.239189	0.447504	0.000096
F58	F	-0.739189	0.947504	0.500096
H59	H	-1.216343	0.222377	0.000105
H60	H	-0.716343	0.722377	0.500105
H61	H	-1.281062	-0.305613	0.406343
H62	H	-0.781062	0.194387	0.906343
H63	H	-1.442107	-0.085401	0.354306
H64	H	-0.942107	0.414599	0.854306
F65	F	-1.293643	-0.288436	0.665028
F66	F	-0.793643	0.211564	1.165028
F67	F	-1.565285	0.414903	0.000133
F68	F	-1.065285	0.914903	0.500133
