data_functionalizedCrystal
_audit_creation_method	'MofGen! by Chris Wilmer'
_symmetry_space_group_name_H-M	'P1'
_symmetry_Int_Tables_number	1
_symmetry_cell_setting	triclinic
loop_
_symmetry_equiv_pos_as_xyz
  x,y,z
_cell_length_a	16.959453
_cell_length_b	17.077404
_cell_length_c	17.077396
_cell_angle_alpha	90.021457
_cell_angle_beta	89.970430
_cell_angle_gamma	89.978170
loop_
_atom_site_label
_atom_site_type_symbol
_atom_site_fract_x
_atom_site_fract_y
_atom_site_fract_z
Zn1	Zn	-0.314700	-1.200056	-0.443878
Zn2	Zn	0.018633	-0.866722	-0.110544
Zn3	Zn	0.351966	-0.533389	0.222789
Zn4	Zn	-0.446888	-1.199963	-0.312609
Zn5	Zn	-0.113555	-0.866630	0.020724
Zn6	Zn	0.219778	-0.533296	0.354057
Zn7	Zn	-0.314726	-1.068787	-0.312621
Zn8	Zn	0.018608	-0.735454	0.020712
Zn9	Zn	0.351941	-0.402121	0.354045
Zn10	Zn	-0.446839	-1.068756	-0.443828
Zn11	Zn	-0.113505	-0.735422	-0.110495
Zn12	Zn	0.219828	-0.402089	0.222838
O13	O	-0.380788	-1.134390	-0.378234
O14	O	-0.047455	-0.801057	-0.044901
O15	O	0.285878	-0.467724	0.288433
O16	O	-0.332246	-1.309890	-0.426480
O17	O	0.001088	-0.976557	-0.093147
O18	O	0.334421	-0.643223	0.240186
O19	O	-0.429388	-1.182537	-0.202764
O20	O	-0.096055	-0.849203	0.130570
O21	O	0.237279	-0.515870	0.463903
O22	O	-0.204111	-1.086252	-0.330058
O23	O	0.129222	-0.752919	0.003275
O24	O	0.462555	-0.419586	0.336608
O25	O	-0.429363	-1.309822	-0.330038
O26	O	-0.096030	-0.976489	0.003295
O27	O	0.237303	-0.643155	0.336629
O28	O	-0.204093	-1.182694	-0.426492
O29	O	0.129240	-0.849361	-0.093159
O30	O	0.462574	-0.516028	0.240175
O31	O	-0.332289	-1.086163	-0.202773
O32	O	0.001045	-0.752829	0.130561
O33	O	0.334378	-0.419496	0.463894
O34	O	-0.332241	-0.958936	-0.330010
O35	O	0.001093	-0.625603	0.003323
O36	O	0.334426	-0.292270	0.336656
O37	O	-0.429279	-1.086198	-0.553682
O38	O	-0.095946	-0.752865	-0.220349
O39	O	0.237388	-0.419532	0.112985
O40	O	-0.429304	-0.958913	-0.426408
O41	O	-0.095970	-0.625580	-0.093074
O42	O	0.237363	-0.292246	0.240259
O43	O	-0.332198	-1.182664	-0.553718
O44	O	0.001136	-0.849330	-0.220385
O45	O	0.334469	-0.515997	0.112949
O46	O	-0.557493	-1.182506	-0.329990
O47	O	-0.224159	-0.849173	0.003343
O48	O	0.109174	-0.515839	0.336677
O49	O	-0.557456	-1.086109	-0.426396
O50	O	-0.224123	-0.752775	-0.093063
O51	O	0.109210	-0.419442	0.240271
C52	C	-0.380770	-0.930442	-0.378205
C53	C	-0.047437	-0.597109	-0.044872
C54	C	0.285897	-0.263776	0.288461
C55	C	-0.380781	-0.843193	-0.378212
C56	C	-0.047448	-0.509859	-0.044879
C57	C	0.285886	-0.176526	0.288455
C58	C	-0.431397	-0.802211	-0.428324
C59	C	-0.098064	-0.468878	-0.094991
C60	C	0.235269	-0.135544	0.238343
C61	C	-0.431397	-0.720231	-0.428334
C62	C	-0.098064	-0.386897	-0.095000
C63	C	0.235269	-0.053564	0.238333
C64	C	-0.380785	-0.679233	-0.378227
C65	C	-0.047451	-0.345900	-0.044893
C66	C	0.285882	-0.012567	0.288440
C67	C	-0.330163	-0.720221	-0.328112
C68	C	0.003170	-0.386887	0.005221
C69	C	0.336504	-0.053554	0.338554
C70	C	-0.330160	-0.802200	-0.328107
C71	C	0.003174	-0.468866	0.005226
C72	C	0.336507	-0.135533	0.338559
C73	C	-0.330175	-0.549351	-0.328126
C74	C	0.003158	-0.216017	0.005208
C75	C	0.336491	0.117316	0.338541
C76	C	-0.330180	-0.467366	-0.328129
C77	C	0.003154	-0.134033	0.005204
C78	C	0.336487	0.199301	0.338537
C79	C	-0.431413	-0.467382	-0.428352
C80	C	-0.098080	-0.134048	-0.095019
C81	C	0.235254	0.199285	0.238315
C82	C	-0.431410	-0.549360	-0.428347
C83	C	-0.098076	-0.216027	-0.095014
C84	C	0.235257	0.117306	0.238320
C85	C	-0.380789	-0.590342	-0.378231
C86	C	-0.047455	-0.257009	-0.044898
C87	C	0.285878	0.076324	0.288435
C88	C	-0.586155	-1.134315	-0.378204
C89	C	-0.252821	-0.800982	-0.044870
C90	C	0.080512	-0.467648	0.288463
C91	C	-0.674011	-1.134355	-0.378217
C92	C	-0.340678	-0.801021	-0.044883
C93	C	-0.007344	-0.467688	0.288450
C94	C	-0.715363	-1.084203	-0.327973
C95	C	-0.382030	-0.750869	0.005361
C96	C	-0.048696	-0.417536	0.338694
C97	C	-0.715213	-1.184540	-0.428478
C98	C	-0.381880	-0.851207	-0.095145
C99	C	-0.048546	-0.517874	0.238189
C100	C	-0.797759	-1.184577	-0.428495
C101	C	-0.464425	-0.851244	-0.095162
C102	C	-0.131092	-0.517910	0.238172
C103	C	-0.839111	-1.134425	-0.378251
C104	C	-0.505777	-0.801092	-0.044918
C105	C	-0.172444	-0.467758	0.288416
C106	C	-0.797916	-1.084236	-0.327990
C107	C	-0.464583	-0.750903	0.005344
C108	C	-0.131250	-0.417570	0.338677
C109	C	-0.838959	-1.234759	-0.478761
C110	C	-0.505626	-0.901426	-0.145428
C111	C	-0.172292	-0.568092	0.187906
C112	C	-0.921510	-1.234797	-0.478781
C113	C	-0.588177	-0.901464	-0.145447
C114	C	-0.254843	-0.568131	0.187886
C115	C	-0.962863	-1.184649	-0.428532
C116	C	-0.629530	-0.851315	-0.095199
C117	C	-0.296197	-0.517982	0.238135
C118	C	-0.921664	-1.134458	-0.378268
C119	C	-0.588331	-0.801125	-0.044935
C120	C	-0.254997	-0.467792	0.288399
C121	C	-0.963016	-1.084306	-0.328024
C122	C	-0.629683	-0.750973	0.005309
C123	C	-0.296349	-0.417640	0.338643
C124	C	-0.921818	-1.034120	-0.277756
C125	C	-0.588485	-0.700786	0.055578
C126	C	-0.255152	-0.367453	0.388911
C127	C	-0.839270	-1.034087	-0.277741
C128	C	-0.505936	-0.700754	0.055592
C129	C	-0.172603	-0.367421	0.388926
C130	C	-1.045412	-1.184681	-0.428547
C131	C	-0.712078	-0.851347	-0.095213
C132	C	-0.378745	-0.518014	0.238120
C133	C	-1.045569	-1.084340	-0.328041
C134	C	-0.712236	-0.751006	0.005292
C135	C	-0.378903	-0.417673	0.338626
C136	C	-0.174620	-1.134487	-0.378282
C137	C	0.158713	-0.801154	-0.044949
C138	C	0.492047	-0.467821	0.288385
C139	C	-0.086763	-1.134529	-0.378302
C140	C	0.246570	-0.801195	-0.044969
C141	C	0.579903	-0.467862	0.288364
C142	C	-0.380730	-1.134438	-0.582978
C143	C	-0.047397	-0.801105	-0.249645
C144	C	0.285937	-0.467771	0.083688
C145	C	-0.380705	-1.134458	-0.670228
C146	C	-0.047372	-0.801125	-0.336895
C147	C	0.285961	-0.467791	-0.003562
C148	C	-0.380802	-0.339135	-0.378255
C149	C	-0.047469	-0.005801	-0.044921
C150	C	0.285864	0.327532	0.288412
C151	C	-0.380796	-0.426384	-0.378242
C152	C	-0.047462	-0.093051	-0.044908
C153	C	0.285871	0.240282	0.288425
C154	C	-0.330151	-1.184689	-0.711239
C155	C	0.003183	-0.851356	-0.377905
C156	C	0.336516	-0.518023	-0.044572
C157	C	-0.330124	-1.184699	-0.793219
C158	C	0.003209	-0.851366	-0.459886
C159	C	0.336542	-0.518032	-0.126552
C160	C	-0.380657	-1.134480	-0.834188
C161	C	-0.047324	-0.801147	-0.500855
C162	C	0.286009	-0.467814	-0.167521
C163	C	-0.431214	-1.084243	-0.793172
C164	C	-0.097881	-0.750910	-0.459838
C165	C	0.235453	-0.417577	-0.126505
C166	C	-0.431236	-1.084231	-0.711193
C167	C	-0.097902	-0.750897	-0.377859
C168	C	0.235431	-0.417564	-0.044526
C169	C	-0.431166	-1.084275	-0.964042
C170	C	-0.097833	-0.750942	-0.630709
C171	C	0.235500	-0.417608	-0.297375
C172	C	-0.431146	-1.084289	-1.046027
C173	C	-0.097813	-0.750955	-0.712693
C174	C	0.235521	-0.417622	-0.379360
C175	C	-0.330055	-1.184743	-1.046068
C176	C	0.003278	-0.851410	-0.712735
C177	C	0.336612	-0.518077	-0.379402
C178	C	-0.330077	-1.184731	-0.964089
C179	C	0.003256	-0.851397	-0.630756
C180	C	0.336590	-0.518064	-0.297423
C181	C	-0.380635	-1.134494	-0.923079
C182	C	-0.047302	-0.801161	-0.589746
C183	C	0.286032	-0.467828	-0.256412
C184	C	-0.380789	-1.134388	-0.174286
C185	C	-0.047456	-0.801055	0.159047
C186	C	0.285877	-0.467722	0.492380
C187	C	-0.380591	-1.134520	-0.087037
C188	C	-0.047258	-0.801187	0.246296
C189	C	0.286075	-0.467853	0.579630
H190	H	-0.472627	-0.582738	-0.469144
H191	H	-0.139294	-0.249405	-0.135811
H192	H	0.194039	0.083928	0.197523
H193	H	-0.288960	-1.225604	-0.826606
H194	H	0.044374	-0.892271	-0.493273
H195	H	0.377707	-0.558938	-0.159939
O196	O	-0.275580	-1.238897	-0.919896
O197	O	0.057754	-0.905563	-0.586563
O198	O	0.391087	-0.572230	-0.253230
H199	H	-0.240415	-1.273827	-0.962184
H200	H	0.092918	-0.940494	-0.628851
H201	H	0.426251	-0.607161	-0.295518
H202	H	-0.472292	-1.043395	-1.079381
H203	H	-0.138959	-0.710061	-0.746048
H204	H	0.194374	-0.376728	-0.412714
H205	H	-0.472324	-1.043355	-0.930654
H206	H	-0.138990	-0.710022	-0.597320
H207	H	0.194343	-0.376689	-0.263987
O208	O	-0.485711	-1.030073	-0.837359
O209	O	-0.152378	-0.696740	-0.504026
O210	O	0.180955	-0.363406	-0.170693
H211	H	-0.547754	-1.043495	-0.821609
H212	H	-0.214421	-0.710162	-0.488275
H213	H	0.118912	-0.376828	-0.154942
H214	H	-0.955498	-0.993282	-0.236851
H215	H	-0.622164	-0.659949	0.096483
H216	H	-0.288831	-0.326615	0.429816
H217	H	-0.472615	-0.686867	-0.469139
H218	H	-0.139282	-0.353533	-0.135806
H219	H	0.194052	-0.020200	0.197527
O220	O	-0.485973	-0.846430	-0.482381
O221	O	-0.152640	-0.513096	-0.149048
O222	O	0.180693	-0.179763	0.184285
H223	H	-0.526150	-0.883753	-0.447186
H224	H	-0.192816	-0.550419	-0.113853
H225	H	0.140517	-0.217086	0.219481
H226	H	-1.078951	-1.225532	-0.469485
H227	H	-0.745618	-0.892198	-0.136151
H228	H	-0.412284	-0.558865	0.197182
H229	H	-0.288957	-0.433988	-0.287337
H230	H	0.044377	-0.100655	0.045996
H231	H	0.377710	0.232678	0.379329
H232	H	-0.288938	-0.835566	-0.287305
H233	H	0.044395	-0.502233	0.046028
H234	H	0.377728	-0.168899	0.379362
H235	H	-0.288888	-1.225646	-1.079463
H236	H	0.044446	-0.892313	-0.746130
H237	H	0.377779	-0.558979	-0.412796
H238	H	-0.472628	-0.434010	-0.469160
H239	H	-0.139295	-0.100677	-0.135827
H240	H	0.194039	0.232656	0.197506
H241	H	-0.472394	-1.043319	-0.677803
H242	H	-0.139061	-0.709986	-0.344470
H243	H	0.194272	-0.376652	-0.011137
O244	O	-0.794838	-0.979956	-0.223531
O245	O	-0.461505	-0.646622	0.109803
O246	O	-0.128172	-0.313289	0.443136
H247	H	-0.730490	-0.988352	-0.231968
H248	H	-0.397157	-0.655019	0.101365
H249	H	-0.063824	-0.321686	0.434698
H250	H	-0.681818	-1.043343	-0.287042
H251	H	-0.348484	-0.710010	0.046291
H252	H	-0.015151	-0.376677	0.379624
O253	O	-0.275586	-0.593557	-0.274066
O254	O	0.057747	-0.260224	0.059267
O255	O	0.391081	0.073109	0.392600
H256	H	-0.240400	-0.551279	-0.239216
H257	H	0.092933	-0.217945	0.094118
H258	H	0.426266	0.115388	0.427451
H259	H	-0.288950	-0.686834	-0.287318
H260	H	0.044383	-0.353501	0.046015
H261	H	0.377717	-0.020168	0.379349
O262	O	-0.670618	-1.238634	-0.482666
O263	O	-0.337285	-0.905301	-0.149333
O264	O	-0.003952	-0.571968	0.184001
H265	H	-0.606296	-1.230183	-0.474207
H266	H	-0.272963	-0.896849	-0.140873
H267	H	0.060371	-0.563516	0.192460
O268	O	-0.275651	-1.238857	-0.667051
O269	O	0.057682	-0.905524	-0.333717
O270	O	0.391016	-0.572191	-0.000384
H271	H	-0.213608	-1.225422	-0.682791
H272	H	0.119725	-0.892089	-0.349458
H273	H	0.453058	-0.558756	-0.016124
O274	O	-1.090171	-1.030245	-0.273850
O275	O	-0.756837	-0.696912	0.059483
O276	O	-0.423504	-0.363578	0.392816
H277	H	-1.047653	-0.995341	-0.238900
H278	H	-0.714320	-0.662007	0.094433
H279	H	-0.380987	-0.328674	0.427766
H280	H	-0.805288	-1.275588	-0.519672
H281	H	-0.471954	-0.942254	-0.186339
H282	H	-0.138621	-0.608921	0.146994
H283	H	-0.955046	-1.275664	-0.519711
H284	H	-0.621713	-0.942331	-0.186377
H285	H	-0.288379	-0.608998	0.146956
