data_functionalizedCrystal
_audit_creation_method	'MofGen! by Chris Wilmer'
_symmetry_space_group_name_H-M	'P1'
_symmetry_Int_Tables_number	1
_symmetry_cell_setting	triclinic
loop_
_symmetry_equiv_pos_as_xyz
  x,y,z
_cell_length_a	16.625548
_cell_length_b	18.101395
_cell_length_c	16.625539
_cell_angle_alpha	90.027648
_cell_angle_beta	90.020568
_cell_angle_gamma	90.032172
loop_
_atom_site_label
_atom_site_type_symbol
_atom_site_fract_x
_atom_site_fract_y
_atom_site_fract_z
Zn1	Zn	1.232632	-0.294807	0.455913
Zn2	Zn	1.232515	-0.418656	0.321082
Zn3	Zn	1.097794	-0.294835	0.321094
Zn4	Zn	1.097744	-0.418614	0.455872
O5	O	1.165171	-0.356728	0.388490
O6	O	1.345449	-0.311242	0.438040
O7	O	1.214616	-0.402261	0.208251
O8	O	1.115750	-0.191199	0.339000
O9	O	1.345363	-0.402233	0.338980
O10	O	1.214815	-0.191178	0.438051
O11	O	1.115637	-0.311290	0.208260
O12	O	0.984955	-0.311249	0.338960
O13	O	1.115665	-0.402161	0.568710
O14	O	0.984918	-0.402188	0.437981
O15	O	1.214767	-0.311201	0.568740
O16	O	1.214567	-0.522284	0.338940
O17	O	1.115552	-0.522252	0.437969
C18	C	0.955680	-0.356718	0.388467
C19	C	0.866059	-0.356731	0.388477
C20	C	1.165063	-0.549139	0.388466
C21	C	1.165091	-0.631453	0.388483
C22	C	0.537884	-0.356736	0.388511
C23	C	0.629192	-0.356732	0.388499
C24	C	0.701969	-0.356734	0.388494
C25	C	0.793283	-0.356729	0.388483
C26	C	1.165268	-0.930544	0.388527
C27	C	1.103114	-0.899230	0.450988
C28	C	1.102819	-0.813612	0.450793
C29	C	1.165180	-0.782161	0.388506
C30	C	1.142173	-0.813313	0.303528
C31	C	1.141772	-0.898959	0.303901
C32	C	1.250565	-0.898886	0.410295
C33	C	1.250063	-0.813235	0.412159
C34	C	1.165132	-0.698302	0.388489
C35	C	1.165314	-1.014403	0.388538
C36	C	1.375480	-0.356739	0.388513
C37	C	1.465101	-0.356744	0.388523
C38	C	1.165224	-0.356673	0.598799
C39	C	1.165246	-0.356649	0.688420
C40	C	1.165302	-0.163566	0.388531
C41	C	1.165357	-0.081252	0.388549
C42	C	1.165165	-0.356730	0.178999
C43	C	1.165299	-0.356545	0.089378
C44	C	1.165283	-0.356567	1.016596
C45	C	1.165271	-0.356592	0.925287
C46	C	1.165265	-0.356609	0.852511
C47	C	1.165252	-0.356633	0.761197
H48	H	1.117366	-0.919777	0.514202
N49	N	1.199119	-0.926420	0.240151
H50	H	1.255110	-0.907712	0.252094
H51	H	1.181298	-0.907724	0.185768
N52	N	1.278352	-0.927443	0.490969
H53	H	1.330212	-0.955771	0.484041
H54	H	1.235871	-0.961160	0.514169
N55	N	1.060450	-0.785004	0.278666
H56	H	1.046181	-0.805358	0.223913
H57	H	1.061624	-0.729261	0.276327
N58	N	1.019076	-0.786554	0.431680
H59	H	1.018536	-0.730761	0.431475
H60	H	0.980344	-0.805362	0.473747
N61	N	1.314649	-0.784886	0.356282
H62	H	1.368456	-0.805763	0.372943
H63	H	1.316553	-0.729177	0.359107
N64	N	1.019873	-0.927819	0.432135
H65	H	1.022249	-0.960966	0.383310
H66	H	0.982857	-0.884813	0.420935
N67	N	1.273046	-0.786255	0.494996
H68	H	1.274946	-0.730485	0.495209
H69	H	1.327679	-0.806466	0.509834
N70	N	1.121880	-0.785701	0.534255
H71	H	1.130550	-0.829034	0.571505
H72	H	1.075570	-0.754819	0.554586
N73	N	1.059185	-0.925517	0.279473
H74	H	1.023381	-0.881589	0.268565
H75	H	1.035359	-0.956144	0.324299
N76	N	1.200246	-0.786336	0.240195
H77	H	1.242127	-0.753581	0.266041
H78	H	1.169942	-0.757352	0.198068
N79	N	1.311907	-0.925703	0.350038
H80	H	1.284624	-0.958199	0.308836
H81	H	1.354921	-0.954920	0.378789
