data_functionalizedCrystal
_audit_creation_method	'MofGen! by Chris Wilmer'
_symmetry_space_group_name_H-M	'P1'
_symmetry_Int_Tables_number	1
_symmetry_cell_setting	triclinic
loop_
_symmetry_equiv_pos_as_xyz
  x,y,z
_cell_length_a	20.875492
_cell_length_b	14.628931
_cell_length_c	20.875641
_cell_angle_alpha	89.999942
_cell_angle_beta	55.988504
_cell_angle_gamma	58.317453
loop_
_atom_site_label
_atom_site_type_symbol
_atom_site_fract_x
_atom_site_fract_y
_atom_site_fract_z
Zr1	Zr	0.750543	0.818393	-0.127962
O2	O	0.900564	0.655347	-0.242396
O3	O	0.606253	0.875927	-0.087567
O4	O	0.758809	0.856943	-0.234732
O5	O	0.739490	0.680716	0.014810
O6	O	0.758808	1.007375	-0.234732
O7	O	0.748009	0.674331	-0.095231
O8	O	0.485915	1.041333	0.028520
O9	O	1.012384	0.646757	-0.248442
O10	O	0.663478	1.003606	-0.076760
O11	O	0.657121	0.896105	0.005363
O12	O	0.836735	0.873755	-0.167906
O13	O	0.830378	0.766254	-0.085783
Zr14	Zr	0.736955	1.068498	0.047541
Zr15	Zr	0.750542	1.058315	-0.127961
Zr16	Zr	0.736956	0.828576	0.047541
Zr17	Zr	0.928881	0.804693	-0.137604
Zr18	Zr	0.558616	1.082198	0.057183
O19	O	0.881245	1.010964	0.007146
O20	O	0.900564	0.996485	-0.242396
O21	O	0.881246	0.669826	0.007146
O22	O	0.586933	1.231543	0.161976
O23	O	0.606252	1.217065	-0.087566
O24	O	0.586934	0.890405	0.161976
O25	O	0.748008	1.206175	-0.095230
O26	O	0.728689	1.029948	0.154312
O27	O	0.728690	0.879516	0.154311
O28	O	0.739489	1.212560	0.014811
O29	O	1.012383	0.837463	-0.248442
O30	O	0.475115	1.049427	0.168021
O31	O	0.475114	1.240133	0.168022
O32	O	0.485914	1.232039	0.028520
O33	O	1.001584	0.654851	-0.108941
O34	O	1.001583	0.845557	-0.108940
O35	O	0.650763	1.013136	0.087485
O36	O	0.657120	1.120637	0.005363
O37	O	0.830377	0.990785	-0.085783
O38	O	0.824020	0.883284	-0.003661
C39	C	0.520674	0.960582	-0.028150
C40	C	0.444965	0.966398	-0.024056
C41	C	0.475715	0.878001	-0.086100
C42	C	0.404593	0.883466	-0.082284
C43	C	0.302722	0.977325	-0.016419
C44	C	0.271972	1.065731	0.045629
C45	C	0.343094	1.060269	0.041808
C46	C	0.082904	1.003437	0.001863
C47	C	0.011783	1.008890	0.005680
C48	C	0.144409	0.826625	-0.122234
C49	C	0.215526	0.821168	-0.126046
C50	C	0.184770	0.909577	-0.064001
N51	N	0.230023	0.982912	-0.012515
N52	N	0.257469	0.903994	-0.067909
C53	C	0.743750	0.643340	-0.040211
C54	C	0.743750	0.541487	-0.040211
C55	C	0.657803	0.560492	0.005004
C56	C	0.657801	0.455223	0.005005
C57	C	0.966824	0.926309	-0.052271
C58	C	1.042533	0.920493	-0.056364
C59	C	0.760744	0.930708	-0.259737
C60	C	0.766512	0.926385	-0.334243
C61	C	0.743748	1.243551	-0.040210
C62	C	0.743748	1.345404	-0.040210
C63	C	0.678786	0.992136	-0.321671
C64	C	0.684212	0.988064	-0.391680
C65	C	0.777364	0.918248	-0.474260
C66	C	0.865097	0.852489	-0.486831
C67	C	0.859671	0.856555	-0.416823
C68	C	0.803292	0.898813	-0.688740
C69	C	0.808712	0.894755	-0.758750
C70	C	0.627826	1.030329	-0.663593
C71	C	0.622407	1.034394	-0.593588
C72	C	0.710140	0.968631	-0.606165
N73	N	0.782912	0.914087	-0.545822
N74	N	0.704591	0.972786	-0.534604
C75	C	0.726754	0.956183	0.179317
C76	C	0.720986	0.960506	0.253822
C77	C	0.520674	1.260688	-0.028149
C78	C	0.444964	1.368357	-0.024056
C79	C	0.503679	0.973319	0.191378
C80	C	0.422202	0.983458	0.269976
C81	C	0.503678	1.273425	0.191378
C82	C	0.422201	1.385417	0.269977
C83	C	0.983819	0.613466	-0.271798
C84	C	1.065297	0.501474	-0.350397
C85	C	0.966824	0.626203	-0.052271
C86	C	1.042534	0.518534	-0.056365
C87	C	0.983819	0.913572	-0.271798
C88	C	1.065296	0.903433	-0.350397
C89	C	0.412729	1.357830	-0.065008
C90	C	0.341603	1.458986	-0.061179
C91	C	0.302708	1.570668	-0.016392
C92	C	0.334949	1.581192	0.024561
C93	C	0.406079	1.480036	0.020727
C94	C	0.380620	1.049309	0.349762
C95	C	0.304072	1.058830	0.423620
C96	C	0.269104	1.002508	0.417691
C97	C	0.310693	0.936649	0.337897
C98	C	0.387244	0.927121	0.264041
C99	C	0.387256	1.494134	0.264021
C100	C	0.310710	1.599370	0.337866
C101	C	0.269104	1.595888	0.417666
C102	C	0.304056	1.487159	0.423620
C103	C	0.380606	1.381924	0.349776
C104	C	1.100250	0.392756	-0.344442
C105	C	1.176819	0.287518	-0.418288
C106	C	1.218428	0.291001	-0.498088
C107	C	1.183472	0.399730	-0.504042
C108	C	1.106910	0.504965	-0.430197
C109	C	1.074777	0.529060	-0.015420
C110	C	1.145924	0.427901	-0.019270
C111	C	1.184822	0.316219	-0.064059
C112	C	1.152577	0.305696	-0.105009
C113	C	1.081436	0.406852	-0.101164
C114	C	1.100240	0.959770	-0.344441
C115	C	1.176787	0.950266	-0.418285
C116	C	1.218393	0.884418	-0.498086
C117	C	1.183442	0.828080	-0.504040
C118	C	1.106892	0.837591	-0.430196
H119	H	-0.071170	1.085324	0.059319
Cl120	Cl	0.573922	1.070721	-0.375869
H121	H	0.206773	1.681585	0.477788
H122	H	1.043110	0.619988	0.021058
H123	H	0.584222	0.654698	0.043717
Cl124	Cl	0.982204	0.764708	-0.590647
Cl125	Cl	1.047950	1.042560	-0.244129
Cl126	Cl	0.969960	0.773896	-0.432630
H127	H	0.817335	0.329298	-0.078925
H128	H	0.546553	1.091250	-0.526350
Cl129	Cl	0.286038	1.721602	0.080866
H130	H	0.421121	1.496992	0.199050
H131	H	0.817331	0.447281	-0.078918
Cl132	Cl	1.040904	0.393600	-0.152636
Cl133	Cl	0.461616	1.217442	-0.121322
H134	H	0.432315	1.488624	0.054080
H135	H	0.315361	1.450394	-0.094528
H136	H	0.057851	1.075426	0.052384
H137	H	0.556399	1.083868	-0.653363
H138	H	0.409082	1.095175	0.354605
H139	H	1.205236	0.996144	-0.413421
Cl140	Cl	0.424520	1.245257	0.357279
H141	H	0.270219	1.112463	0.488584
H142	H	0.602931	1.048993	-0.254433
H143	H	0.189022	1.142158	0.099254
Cl144	Cl	0.213284	1.697825	-0.011577
H145	H	0.318049	1.132252	0.092331
H146	H	0.206771	1.010276	0.477836
Cl147	Cl	1.314677	0.158693	-0.590915
H148	H	0.884572	0.837897	-0.825993
H149	H	0.282210	0.890794	0.333082
H150	H	1.184259	0.214750	-0.141476
H151	H	0.421091	0.873503	0.199079
Cl152	Cl	0.266783	1.736042	0.330361
Cl153	Cl	0.251739	1.482800	0.523948
H154	H	0.874730	0.845269	-0.698992
H155	H	1.066376	0.389898	-0.279471
H156	H	1.205267	0.198997	-0.413423
Cl157	Cl	1.235788	0.404088	-0.604369
Cl158	Cl	1.062972	0.641634	-0.437699
H159	H	1.172165	0.436493	0.014080
Cl160	Cl	1.274255	0.189061	-0.068883
Cl161	Cl	1.314632	0.872469	-0.590911
Cl162	Cl	1.235767	0.745290	-0.604368
H163	H	1.078449	0.791708	-0.435057
Cl164	Cl	0.603779	0.759996	-0.168904
Cl165	Cl	0.343591	0.703162	-0.208846
Cl166	Cl	0.443257	0.772329	-0.160284
Cl167	Cl	0.544190	0.480086	0.064768
Cl168	Cl	0.183064	0.715493	-0.200230
