data_functionalizedCrystal
_audit_creation_method	'MofGen! by Chris Wilmer'
_symmetry_space_group_name_H-M	'P1'
_symmetry_Int_Tables_number	1
_symmetry_cell_setting	triclinic
loop_
_symmetry_equiv_pos_as_xyz
  x,y,z
_cell_length_a	23.532407
_cell_length_b	19.188925
_cell_length_c	18.266242
_cell_angle_alpha	89.990012
_cell_angle_beta	89.988983
_cell_angle_gamma	82.995613
loop_
_atom_site_label
_atom_site_type_symbol
_atom_site_fract_x
_atom_site_fract_y
_atom_site_fract_z
O1	O	0.071087	0.925925	-0.060904
O2	O	0.571087	1.425925	0.439096
O3	O	0.080662	0.722582	-0.060903
O4	O	0.580662	1.222582	0.439097
O5	O	-0.007044	0.830385	-0.060890
O6	O	0.492956	1.330385	0.439110
O7	O	0.158793	0.818122	-0.060917
O8	O	0.658793	1.318122	0.439083
O9	O	-0.007049	0.830367	0.060872
O10	O	0.492951	1.330367	0.560872
O11	O	0.080657	0.722564	0.060859
O12	O	0.580657	1.222564	0.560859
O13	O	0.071083	0.925907	0.060858
O14	O	0.571083	1.425907	0.560858
Zn15	Zn	0.075869	0.824233	0.080191
Zn16	Zn	0.575869	1.324233	0.580191
Zn17	Zn	0.075875	0.824256	-0.080236
Zn18	Zn	0.575875	1.324256	0.419764
O19	O	0.158789	0.818104	0.060845
O20	O	0.658789	1.318104	0.560845
C21	C	0.080350	0.696563	-0.000022
C22	C	0.580350	1.196563	0.499978
C23	C	0.079421	0.619061	-0.000021
C24	C	0.579421	1.119061	0.499979
C25	C	0.124662	0.057147	-0.000030
C26	C	0.624662	0.557147	0.499970
C27	C	0.125540	0.129967	-0.000034
C28	C	0.625540	0.629967	0.499966
C29	C	0.074077	0.175066	-0.000024
C30	C	0.574077	0.675066	0.499976
C31	C	0.021732	0.147339	-0.000029
C32	C	0.521732	0.647339	0.499971
C33	C	0.020855	0.074520	-0.000033
C34	C	0.520855	0.574520	0.499967
N35	N	0.036818	0.295856	0.041430
N36	N	0.536818	0.795856	0.541430
N37	N	0.037654	0.365030	0.041435
N38	N	0.537654	0.865030	0.541435
C39	C	0.076715	0.394467	-0.000016
C40	C	0.576715	0.894467	0.499984
N41	N	0.114916	0.352114	-0.041463
N42	N	0.614916	0.852114	0.458537
N43	N	0.114081	0.282932	-0.041464
N44	N	0.614081	0.782932	0.458536
C45	C	0.075021	0.254027	-0.000021
C46	C	0.575021	0.754027	0.499979
C47	C	0.130009	0.501146	-0.000021
C48	C	0.630009	1.001146	0.499979
C49	C	0.130884	0.573968	-0.000029
C50	C	0.630884	1.073968	0.499971
C51	C	0.027075	0.591338	-0.000017
C52	C	0.527075	1.091338	0.499983
C53	C	0.026200	0.518517	-0.000016
C54	C	0.526200	1.018517	0.499984
C55	C	0.077669	0.473425	-0.000014
C56	C	0.577669	0.973425	0.499986
C57	C	-0.028263	0.830064	-0.000007
C58	C	0.471737	1.330064	0.499993
C59	C	-0.091482	0.829125	-0.000002
C60	C	0.408518	1.329125	0.499998
C61	C	-0.490463	0.887032	-0.000042
C62	C	0.009537	1.387032	0.499958
C63	C	-0.549865	0.886159	-0.000048
C64	C	-0.049865	1.386159	0.499952
O65	O	-0.586497	0.939839	-0.000075
O66	O	-0.086497	1.439839	0.499925
N67	N	-0.572627	0.822070	-0.000047
N68	N	-0.072627	1.322070	0.499953
C69	C	-0.535982	0.758850	-0.000048
C70	C	-0.035982	1.258850	0.499952
O71	O	-0.560797	0.704257	-0.000048
O72	O	-0.060797	1.204257	0.499952
C73	C	-0.476581	0.759723	-0.000048
C74	C	0.023419	1.259723	0.499952
C75	C	-0.453824	0.823816	-0.000041
C76	C	0.046176	1.323816	0.499959
C77	C	-0.467705	0.951119	-0.000036
C78	C	0.032295	1.451119	0.499964
C79	C	-0.408307	0.951991	-0.000029
C80	C	0.091693	1.451991	0.499971
C81	C	-0.371667	0.888775	-0.000028
C82	C	0.128333	1.388775	0.499972
C83	C	-0.394426	0.824688	-0.000034
C84	C	0.105574	1.324688	0.499966
C85	C	-0.439938	0.696503	-0.000054
C86	C	0.060062	1.196503	0.499946
C87	C	-0.380534	0.697381	-0.000054
C88	C	0.119466	1.197381	0.499946
C89	C	-0.357776	0.761474	-0.000048
C90	C	0.142224	1.261474	0.499952
C91	C	-0.298388	0.762344	-0.000026
C92	C	0.201612	1.262344	0.499974
N93	N	-0.275627	0.826432	-0.000027
N94	N	0.224373	1.326432	0.499973
C95	C	-0.312266	0.889648	-0.000028
C96	C	0.187734	1.389648	0.499972
C97	C	-0.660729	0.757021	-0.000050
C98	C	-0.160729	1.257021	0.499950
C99	C	-0.720128	0.756148	-0.000045
C100	C	-0.220128	1.256148	0.499955
C101	C	-0.734007	0.883458	-0.000046
C102	C	-0.234007	1.383458	0.499954
C103	C	-0.674607	0.884331	-0.000046
C104	C	-0.174607	1.384331	0.499954
C105	C	-0.637967	0.821110	-0.000051
C106	C	-0.137967	1.321110	0.499949
C107	C	-0.187526	0.891475	-0.000013
C108	C	0.312474	1.391475	0.499987
C109	C	-0.128122	0.892341	-0.000003
C110	C	0.371878	1.392341	0.499997
C111	C	-0.114248	0.765031	-0.000006
C112	C	0.385752	1.265031	0.499994
C113	C	-0.173647	0.764165	-0.000012
C114	C	0.326353	1.264165	0.499988
C115	C	-0.210285	0.827392	-0.000018
C116	C	0.289715	1.327392	0.499982
O117	O	-0.261722	0.708692	-0.000002
O118	O	0.238278	1.208692	0.499998
O119	O	-0.287443	0.944232	-0.000037
O120	O	0.212557	1.444232	0.499963
C121	C	0.180008	0.818425	-0.000040
C122	C	0.680008	1.318425	0.499960
C123	C	0.243227	0.819364	-0.000050
C124	C	0.743227	1.319364	0.499950
C125	C	0.071394	0.951926	-0.000025
C126	C	0.571394	1.451926	0.499975
C127	C	0.072324	1.029428	-0.000031
C128	C	0.572324	1.529428	0.499969
N129	N	0.075865	0.824221	0.189678
N130	N	0.575865	1.324221	0.689678
N131	N	0.075875	0.824273	-0.189723
N132	N	0.575875	1.324273	0.310277
C133	C	0.037048	0.871972	0.227992
C134	C	0.537048	1.371972	0.727992
C135	C	0.037045	0.871976	0.304637
C136	C	0.537045	1.371976	0.804637
C137	C	0.075869	0.824237	0.342965
C138	C	0.575869	1.324237	0.842965
C139	C	0.114690	0.776477	0.304641
C140	C	0.614690	1.276477	0.804641
C141	C	0.114687	0.776470	0.227997
C142	C	0.614687	1.276470	0.727997
N143	N	0.126285	0.815000	0.463289
N144	N	0.626285	1.315000	0.963289
N145	N	0.126285	0.815012	0.536097
N146	N	0.626285	1.315012	1.036097
C147	C	0.075878	0.824256	0.573887
C148	C	0.575878	1.324256	1.073887
N149	N	0.025468	0.833503	0.536118
N150	N	0.525468	1.333503	1.036118
N151	N	0.025468	0.833495	0.463304
N152	N	0.525468	1.333495	0.963304
C153	C	0.075876	0.824240	0.426071
C154	C	0.575876	1.324240	0.926071
C155	C	0.037054	0.872014	0.695309
C156	C	0.537054	1.372014	1.195309
C157	C	0.037051	0.872014	0.771955
C158	C	0.537051	1.372014	1.271955
C159	C	0.114700	0.776518	0.771957
C160	C	0.614700	1.276518	1.271957
C161	C	0.114699	0.776515	0.695312
C162	C	0.614699	1.276515	1.195312
C163	C	0.075876	0.824267	0.656993
C164	C	0.575876	1.324267	1.156993
H165	H	0.173506	0.596534	-0.000035
H166	H	0.673506	1.096534	0.499965
N167	N	0.185519	0.452509	-0.000031
N168	N	0.685519	0.952509	0.499969
H169	H	0.187469	0.421916	-0.045169
H170	H	0.687469	0.921916	0.454831
H171	H	0.187436	0.421948	0.045135
H172	H	0.687436	0.921948	0.545135
N173	N	-0.103576	0.961472	0.000008
N174	N	0.396424	1.461472	0.500008
H175	H	-0.135805	1.001385	0.000005
H176	H	0.364195	1.501385	0.500005
H177	H	-0.079224	0.964617	-0.045127
H178	H	0.420776	1.464617	0.454873
N179	N	-0.004816	0.923524	0.813281
N180	N	0.495184	1.423524	1.313281
H181	H	0.001073	0.916283	0.867650
H182	H	0.501073	1.416283	1.367650
H183	H	-0.045204	0.915748	0.799897
H184	H	0.454796	1.415748	1.299897
H185	H	0.166572	0.020437	-0.000032
H186	H	0.666572	0.520437	0.499968
N187	N	0.156572	0.725023	0.653977
N188	N	0.656572	1.225023	1.153977
H189	H	0.134870	0.694261	0.622193
H190	H	0.634870	1.194261	1.122193
H191	H	0.181160	0.694826	0.689927
H192	H	0.681160	1.194826	1.189927
H193	H	-0.497532	1.002600	-0.000040
H194	H	0.002468	1.502600	0.499960
H195	H	-0.014828	0.628057	-0.000015
H196	H	0.485172	1.128057	0.499985
H197	H	0.168161	0.152541	-0.000026
H198	H	0.668161	0.652541	0.499974
H199	H	-0.656082	0.936521	-0.000041
H200	H	-0.156082	1.436521	0.499959
H201	H	0.146300	0.737606	0.335851
H202	H	0.646300	1.237606	0.835851
H203	H	0.005441	0.910895	0.664108
H204	H	0.505441	1.410895	1.164108
N205	N	-0.004818	0.923490	0.345972
N206	N	0.495182	1.423490	0.845972
H207	H	0.001077	0.916249	0.400340
H208	H	0.501077	1.416249	0.900340
H209	H	-0.045207	0.915716	0.332595
H210	H	0.454793	1.415716	0.832595
N211	N	-0.030251	0.488614	-0.000011
N212	N	0.469749	0.988614	0.499989
H213	H	-0.062720	0.528232	-0.000005
H214	H	0.437280	1.028232	0.499995
H215	H	-0.032877	0.458771	0.045127
H216	H	0.467123	0.958771	0.545127
N217	N	-0.074722	0.696853	-0.000014
N218	N	0.425278	1.196853	0.499986
H219	H	-0.098149	0.656115	-0.000020
H220	H	0.401851	1.156115	0.499980
H221	H	-0.049779	0.694432	0.045124
H222	H	0.450221	1.194432	0.545124
H223	H	-0.020170	0.184063	-0.000024
H224	H	0.479830	0.684063	0.499976
H225	H	-0.350704	0.645898	-0.000059
H226	H	0.149296	1.145898	0.499941
N227	N	-0.198193	0.695036	-0.000013
N228	N	0.301807	1.195036	0.499987
H229	H	-0.222517	0.691843	-0.045156
H230	H	0.277483	1.191843	0.454844
H231	H	-0.222512	0.691869	0.045149
H232	H	0.277488	1.191869	0.545149
H233	H	-0.763851	0.934931	-0.000050
H234	H	-0.263851	1.434931	0.499950
N235	N	0.156572	0.725021	0.813285
N236	N	0.656572	1.225021	1.313285
H237	H	0.150683	0.732269	0.867653
H238	H	0.650683	1.232269	1.367653
H239	H	0.196959	0.732800	0.799875
H240	H	0.696959	1.232800	1.299875
N241	N	-0.004828	0.923469	0.186665
N242	N	0.495172	1.423469	0.686665
H243	H	0.001060	0.916222	0.132296
H244	H	0.501060	1.416222	0.632296
H245	H	0.001655	0.972951	0.200047
H246	H	0.501655	1.472951	0.700047
H247	H	-0.738652	0.703957	-0.000038
H248	H	-0.238652	1.203957	0.499962
H249	H	-0.630900	0.705536	-0.000048
H250	H	-0.130900	1.205536	0.499952
H251	H	-0.021766	0.051952	-0.000034
H252	H	0.478234	0.551952	0.499966
N253	N	-0.227037	0.959668	-0.000019
N254	N	0.272963	1.459668	0.499981
H255	H	-0.203599	1.000394	-0.000013
H256	H	0.296401	1.500394	0.499987
H257	H	-0.251993	0.962074	0.045118
H258	H	0.248007	1.462074	0.545118
N259	N	-0.383765	1.021120	-0.000025
N260	N	0.116235	1.521120	0.499975
H261	H	-0.415997	1.061029	-0.000028
H262	H	0.084003	1.561029	0.499972
H263	H	-0.359416	1.024265	-0.045163
H264	H	0.140584	1.524265	0.454837
N265	N	-0.464474	0.627373	-0.000052
N266	N	0.035526	1.127373	0.499948
H267	H	-0.432242	0.587466	-0.000052
H268	H	0.067758	1.087466	0.499948
H269	H	-0.488811	0.624238	-0.045190
H270	H	0.011189	1.124238	0.454810
H271	H	0.146298	0.737584	0.196801
H272	H	0.646298	1.237584	0.696801
