data_functionalizedCrystal
_audit_creation_method	'MofGen! by Chris Wilmer'
_symmetry_space_group_name_H-M	'P1'
_symmetry_Int_Tables_number	1
_symmetry_cell_setting	triclinic
loop_
_symmetry_equiv_pos_as_xyz
  x,y,z
_cell_length_a	6.817900
_cell_length_b	14.125469
_cell_length_c	13.212919
_cell_angle_alpha	90.049212
_cell_angle_beta	73.701710
_cell_angle_gamma	79.601122
loop_
_atom_site_label
_atom_site_type_symbol
_atom_site_fract_x
_atom_site_fract_y
_atom_site_fract_z
V1	V	4.030369	-0.104823	-0.325209
O2	O	4.033942	0.034185	-0.319433
O3	O	3.966349	-0.235880	-0.322585
O4	O	3.990618	-0.090421	-0.467226
O5	O	4.009505	-0.112281	-0.173792
V6	V	4.514900	-0.089707	-0.307147
O7	O	4.289416	-0.137981	-0.364830
O8	O	4.706050	-0.056549	-0.267526
O9	O	4.355713	0.041350	-0.309770
O10	O	4.628723	-0.228715	-0.312922
O11	O	4.653161	-0.082249	-0.458564
O12	O	4.331444	-0.104109	-0.165130
C13	C	3.807270	-0.268228	-0.317352
C14	C	3.836271	-0.375287	-0.316154
C15	C	3.889437	-0.571302	-0.313975
C16	C	4.075199	-0.623240	-0.318384
C17	C	4.104783	-0.732310	-0.317172
C18	C	3.859845	-0.462222	-0.315187
C19	C	3.838227	-0.082680	-0.501854
C20	C	3.886907	-0.071772	-0.617951
C21	C	4.178133	0.073693	-0.315000
C22	C	4.128371	0.180751	-0.316206
C23	C	4.039847	-0.224958	-0.865413
C24	C	4.085587	-0.214714	-0.974497
C25	C	4.024144	-0.041039	-0.945206
C26	C	3.978403	-0.051284	-0.836122
C27	C	3.986255	-0.143246	-0.796230
C28	C	3.940499	-0.153490	-0.687143
C29	C	3.879071	0.020184	-0.657854
C30	C	3.924811	0.030428	-0.766939
C31	C	4.147176	-0.111854	-0.130496
C32	C	4.077736	-0.122757	-0.014398
H33	H	3.946883	-0.228370	-0.654665
C34	C	4.048467	-0.326111	-0.821521
C35	C	4.253336	-0.400476	-0.853648
C36	C	4.261957	-0.501630	-0.809757
C37	C	4.065709	-0.528418	-0.733739
C38	C	3.860826	-0.454050	-0.701608
C39	C	3.852205	-0.352896	-0.745499
H40	H	4.398624	-0.380648	-0.909925
H41	H	4.413626	-0.556682	-0.833543
H42	H	4.072091	-0.603298	-0.701248
H43	H	3.715538	-0.473878	-0.645331
H44	H	3.700535	-0.297845	-0.721713
C45	C	4.144531	-0.304598	-1.050600
C46	C	4.153163	-0.405749	-1.006715
C47	C	4.212111	-0.495637	-1.082818
C48	C	4.262428	-0.484375	-1.202808
C49	C	4.253798	-0.383220	-1.246700
C50	C	4.194849	-0.293332	-1.170596
H51	H	4.115914	-0.414089	-0.917886
H52	H	4.218499	-0.570519	-1.050326
H53	H	4.306065	-0.550916	-1.259144
H54	H	4.291047	-0.374879	-1.335529
H55	H	4.188461	-0.218450	-1.203088
C56	C	4.015544	0.060109	-0.989107
C57	C	3.865325	0.095164	-1.055036
C58	C	3.856735	0.196312	-1.098940
C59	C	3.998364	0.262405	-1.076916
C60	C	4.148595	0.227352	-1.010984
C61	C	4.157185	0.126204	-0.967079
H62	H	3.760473	0.046237	-1.071343
H63	H	3.745524	0.222261	-1.147748
H64	H	3.992006	0.337281	-1.109416
H65	H	4.253447	0.276279	-0.994677
H66	H	4.268396	0.100255	-0.918272
H67	H	4.212016	-0.585792	-0.323066
C68	C	3.916178	0.131582	-0.810828
C69	C	3.765933	0.166633	-0.876744
C70	C	3.757293	0.267789	-0.920631
C71	C	3.898897	0.333893	-0.898602
C72	C	4.049153	0.298842	-0.832682
C73	C	4.057793	0.197687	-0.788795
H74	H	3.661099	0.117698	-0.893055
H75	H	3.646063	0.293735	-0.969429
H76	H	3.892501	0.408774	-0.931090
H77	H	4.153987	0.347778	-0.816372
H78	H	4.169023	0.171741	-0.739997
H79	H	3.752630	-0.608747	-0.309290
C80	C	3.820115	0.110075	-0.581750
C81	C	3.769789	0.098813	-0.461760
C82	C	3.710823	0.188702	-0.385656
C83	C	3.702182	0.289853	-0.429541
C84	C	3.752509	0.301119	-0.549537
C85	C	3.811476	0.211230	-0.625641
H86	H	3.776184	0.023932	-0.429268
H87	H	3.673567	0.180362	-0.296827
H88	H	3.658532	0.356394	-0.373204
H89	H	3.746114	0.376001	-0.582029
H90	H	3.848731	0.219571	-0.714470
