data_functionalizedCrystal
_audit_creation_method	'MofGen! by Chris Wilmer'
_symmetry_space_group_name_H-M	'P1'
_symmetry_Int_Tables_number	1
_symmetry_cell_setting	triclinic
loop_
_symmetry_equiv_pos_as_xyz
  x,y,z
_cell_length_a	10.489741
_cell_length_b	13.448316
_cell_length_c	14.971486
_cell_angle_alpha	90.006811
_cell_angle_beta	95.923349
_cell_angle_gamma	89.995953
loop_
_atom_site_label
_atom_site_type_symbol
_atom_site_fract_x
_atom_site_fract_y
_atom_site_fract_z
O1	O	1.692597	-0.082631	-0.126198
O2	O	1.321264	-0.082646	-0.138043
O3	O	1.516883	-0.082631	-0.001977
O4	O	1.496978	-0.082646	-0.262264
O5	O	1.516859	0.082753	-0.001968
O6	O	1.321240	0.082737	-0.138035
O7	O	1.692572	0.082753	-0.126189
Cu8	Cu	1.506904	0.097846	-0.132111
Cu9	Cu	1.506933	-0.097740	-0.132121
O10	O	1.496953	0.082738	-0.262255
C11	C	1.273731	0.000043	-0.137144
C12	C	1.132132	0.000038	-0.134468
N13	N	1.506893	0.235410	-0.132103
N14	N	1.506954	-0.235304	-0.132122
C15	C	1.064994	0.000052	-0.047893
C16	C	0.972406	-0.081491	-0.088794
C17	C	0.972415	0.081564	-0.088806
C18	C	1.041409	-0.081573	-0.175405
C19	C	1.041428	0.081556	-0.175405
C20	C	0.948867	-0.000007	-0.216369
C21	C	1.740106	0.000061	-0.127088
C22	C	1.881704	0.000060	-0.129765
C23	C	1.515981	0.000060	0.031357
C24	C	1.513313	0.000059	0.130669
C25	C	1.593540	0.287457	-0.071879
C26	C	1.593548	0.391561	-0.071878
C27	C	1.506914	0.443615	-0.132107
C28	C	1.420257	0.391560	-0.192335
C29	C	1.420244	0.287459	-0.192331
C30	C	1.420293	0.608540	-0.192341
C31	C	1.420307	0.712649	-0.192347
C32	C	1.593596	0.712642	-0.071888
C33	C	1.593583	0.608541	-0.071884
C34	C	1.506928	0.556493	-0.132113
C35	C	1.497856	0.000044	-0.295589
C36	C	1.500523	0.000038	-0.394902
C37	C	1.628234	0.000065	0.187241
C38	C	1.625720	0.000055	0.280554
C39	C	1.508283	0.000046	0.317295
C40	C	1.393354	0.000038	0.260716
C41	C	1.395869	0.000041	0.167404
C42	C	1.388119	0.000034	0.455209
C43	C	1.385603	0.000033	0.548527
C44	C	1.617969	0.000048	0.568359
C45	C	1.620485	0.000051	0.475047
C46	C	1.505554	0.000044	0.418474
H47	H	1.115507	-0.000046	0.023277
Cl48	Cl	0.871279	-0.000079	-0.326364
Cl49	Cl	0.925194	-0.187925	-0.032247
H50	H	1.302289	0.000036	0.121344
H51	H	1.716112	0.000065	0.445136
H52	H	1.664092	0.245082	-0.022837
Cl53	Cl	1.762453	0.000051	0.639477
Cl54	Cl	1.311338	0.456998	-0.268049
Cl55	Cl	1.237966	0.000023	0.594714
H56	H	1.071824	-0.150589	-0.212011
Cl57	Cl	1.770199	0.000065	0.351669
Cl58	Cl	1.088698	0.187993	-0.231910
Cl59	Cl	1.702476	0.456993	0.003836
H60	H	0.941851	0.150503	-0.052155
Cl61	Cl	1.702502	0.543099	0.003827
H62	H	1.294530	0.000026	0.409149
Cl63	Cl	1.775877	0.000086	0.141062
Cl64	Cl	1.702533	0.778076	0.003825
Cl65	Cl	1.311387	0.778081	-0.268065
Cl66	Cl	1.311349	0.543114	-0.268058
H67	H	1.349686	0.245083	-0.241371
Cl68	Cl	1.245718	0.000015	0.306905
