data_functionalizedCrystal
_audit_creation_method	'MofGen! by Chris Wilmer'
_symmetry_space_group_name_H-M	'P1'
_symmetry_Int_Tables_number	1
_symmetry_cell_setting	triclinic
loop_
_symmetry_equiv_pos_as_xyz
  x,y,z
_cell_length_a	11.169417
_cell_length_b	11.169416
_cell_length_c	13.897449
_cell_angle_alpha	89.994434
_cell_angle_beta	89.994353
_cell_angle_gamma	90.009278
loop_
_atom_site_label
_atom_site_type_symbol
_atom_site_fract_x
_atom_site_fract_y
_atom_site_fract_z
Zn1	Zn	-1.834772	0.478044	0.545404
Zn2	Zn	-1.834718	0.678696	0.384118
Zn3	Zn	-1.634114	0.478021	0.384123
Zn4	Zn	-1.634066	0.678680	0.545372
O5	O	-1.734418	0.578360	0.464754
O6	O	-2.002715	0.504677	0.524020
O7	O	-1.808105	0.652073	0.249137
O8	O	-1.660775	0.310075	0.405533
O9	O	-2.002675	0.652095	0.405525
O10	O	-1.808198	0.310091	0.524025
O11	O	-1.660722	0.504639	0.249141
O12	O	-1.466158	0.504623	0.405502
O13	O	-1.660692	0.652068	0.680358
O14	O	-1.466123	0.652046	0.523971
O15	O	-1.808151	0.504661	0.680381
O16	O	-1.808058	0.846643	0.405494
O17	O	-1.660640	0.846632	0.523966
C18	C	-1.422593	0.578331	0.464734
C19	C	-1.289193	0.578348	0.464748
C20	C	-1.734370	0.890185	0.464747
C21	C	-1.734459	1.023585	0.464776
C22	C	-1.734422	0.578365	0.716347
C23	C	-1.734424	0.578367	0.823561
C24	C	-1.047460	0.578380	0.464768
C25	C	-1.180860	0.578362	0.464754
C26	C	-1.734498	0.265318	0.464783
C27	C	-1.734532	0.131918	0.464795
C28	C	-1.734394	0.578373	1.019856
C29	C	-1.734407	0.578373	0.910624
C30	C	-1.734402	0.578379	1.214140
C31	C	-1.734392	0.578370	1.106926
