data_functionalizedCrystal
_audit_creation_method	'MofGen! by Chris Wilmer'
_symmetry_space_group_name_H-M	'P1'
_symmetry_Int_Tables_number	1
_symmetry_cell_setting	triclinic
loop_
_symmetry_equiv_pos_as_xyz
  x,y,z
_cell_length_a	19.077068
_cell_length_b	18.215407
_cell_length_c	18.215399
_cell_angle_alpha	90.016860
_cell_angle_beta	92.268164
_cell_angle_gamma	87.676929
loop_
_atom_site_label
_atom_site_type_symbol
_atom_site_fract_x
_atom_site_fract_y
_atom_site_fract_z
Zn1	Zn	-0.280281	-1.113285	-0.427814
Zn2	Zn	0.219719	-0.613285	0.072186
Zn3	Zn	-0.397982	-1.108243	-0.309685
Zn4	Zn	0.102018	-0.608243	0.190315
Zn5	Zn	-0.280295	-0.990216	-0.304769
Zn6	Zn	0.219705	-0.490216	0.195231
Zn7	Zn	-0.397934	-0.985235	-0.432714
Zn8	Zn	0.102066	-0.485235	0.067286
O9	O	-0.339123	-1.049245	-0.368746
O10	O	0.160877	-0.549245	0.131254
O11	O	-0.295908	-1.215599	-0.412151
O12	O	0.204092	-0.715599	0.087849
O13	O	-0.382397	-1.092561	-0.206050
O14	O	0.117603	-0.592561	0.293950
O15	O	-0.181802	-1.010736	-0.316983
O16	O	0.318198	-0.510736	0.183017
O17	O	-0.382383	-1.211895	-0.325362
O18	O	0.117617	-0.711895	0.174638
O19	O	-0.181792	-1.101154	-0.407384
O20	O	0.318208	-0.601154	0.092616
O21	O	-0.295932	-1.005848	-0.202438
O22	O	0.204068	-0.505848	0.297562
O23	O	-0.295886	-0.886572	-0.321734
O24	O	0.204114	-0.386572	0.178266
O25	O	-0.382301	-1.002246	-0.535048
O26	O	0.117699	-0.502246	-0.035048
O27	O	-0.382315	-0.882912	-0.415735
O28	O	0.117685	-0.382912	0.084265
O29	O	-0.295862	-1.096324	-0.531447
O30	O	0.204138	-0.596324	-0.031447
O31	O	-0.496466	-1.087731	-0.330113
O32	O	0.003534	-0.587731	0.169887
O33	O	-0.496431	-0.997358	-0.420503
O34	O	0.003569	-0.497358	0.079497
C35	C	-0.339097	-0.858040	-0.368733
C36	C	0.160903	-0.358040	0.131267
C37	C	-0.339103	-0.776240	-0.368746
C38	C	0.160897	-0.276240	0.131254
C39	C	-0.384188	-0.509293	-0.417630
C40	C	0.115812	-0.009293	0.082370
C41	C	-0.384184	-0.586152	-0.417627
C42	C	0.115816	-0.086152	0.082373
C43	C	-0.294051	-0.589938	-0.319874
C44	C	0.205949	-0.089938	0.180126
C45	C	-0.294059	-0.513080	-0.319875
C46	C	0.205941	-0.013080	0.180125
C47	C	-0.339127	-0.472760	-0.368757
C48	C	0.160873	0.027240	0.131243
C49	C	-0.339114	-0.626476	-0.368753
C50	C	0.160886	-0.126476	0.131247
C51	C	-0.339109	-0.709810	-0.368748
C52	C	0.160891	-0.209810	0.131252
C53	C	-0.339133	-0.389421	-0.368761
C54	C	0.160867	0.110579	0.131239
C55	C	-0.521986	-1.041477	-0.376389
C56	C	-0.021986	-0.541477	0.123611
C57	C	-0.600216	-1.038221	-0.379684
C58	C	-0.100216	-0.538221	0.120316
C59	C	-0.636964	-1.083780	-0.334210
C60	C	-0.136964	-0.583780	0.165790
C61	C	-0.710469	-1.080722	-0.337313
C62	C	-0.210469	-0.580722	0.162687
C63	C	-0.747225	-1.032100	-0.385887
C64	C	-0.247225	-0.532100	0.114113
C65	C	-0.710473	-0.986539	-0.431366
C66	C	-0.210473	-0.486539	0.068634
C67	C	-0.636969	-0.989601	-0.428266
C68	C	-0.136969	-0.489601	0.071734
C69	C	-0.967059	-1.017896	-0.400204
C70	C	-0.467059	-0.517896	0.099796
C71	C	-1.040568	-1.014836	-0.403299
C72	C	-0.540568	-0.514836	0.096701
C73	C	-1.040559	-1.109020	-0.309247
C74	C	-0.540559	-0.609020	0.190753
C75	C	-0.967054	-1.112075	-0.306148
C76	C	-0.467054	-0.612075	0.193852
C77	C	-0.930308	-1.066516	-0.351630
C78	C	-0.430308	-0.566516	0.148370
N79	N	-0.822359	-1.028972	-0.389058
N80	N	-0.322359	-0.528972	0.110942
N81	N	-0.855175	-1.069649	-0.348461
N82	N	-0.355175	-0.569649	0.151539
C83	C	-0.155545	-1.057063	-0.361088
C84	C	0.344455	-0.557063	0.138912
C85	C	-0.077315	-1.060395	-0.357825
C86	C	0.422685	-0.560395	0.142175
C87	C	-0.339074	-1.049292	-0.560697
C88	C	0.160926	-0.549292	-0.060697
C89	C	-0.339054	-1.049312	-0.642495
C90	C	0.160946	-0.549312	-0.142495
C91	C	-0.339144	-0.241197	-0.368758
C92	C	0.160856	0.258803	0.131242
C93	C	-0.339138	-0.322996	-0.368764
C94	C	0.160862	0.177004	0.131236
C95	C	-0.294003	-1.098316	-0.828813
C96	C	0.205997	-0.598316	-0.328813
C97	C	-0.293982	-1.098326	-0.905671
C98	C	0.206018	-0.598326	-0.405671
C99	C	-0.383996	-1.000363	-0.909409
C100	C	0.116004	-0.500363	-0.409409
C101	C	-0.384012	-1.000351	-0.832552
C102	C	0.115988	-0.500351	-0.332552
C103	C	-0.339017	-1.049331	-0.792257
C104	C	0.160983	-0.549331	-0.292257
C105	C	-0.338980	-1.049354	-0.945971
C106	C	0.161020	-0.549354	-0.445971
C107	C	-0.338958	-1.049364	-1.029304
C108	C	0.161042	-0.549364	-0.529304
C109	C	-0.339037	-1.049321	-0.708918
C110	C	0.160963	-0.549321	-0.208918
C111	C	-0.339120	-1.049243	-0.177539
C112	C	0.160880	-0.549243	0.322461
C113	C	-0.338943	-1.049373	-0.095733
C114	C	0.161057	-0.549373	0.404267
H115	H	-0.257357	-0.622776	-0.280077
H116	H	0.242643	-0.122776	0.219923
H117	H	-0.740405	-0.946953	-0.470919
H118	H	-0.240405	-0.446953	0.029081
H119	H	-0.257326	-1.138213	-0.935432
H120	H	0.242674	-0.638213	-0.435432
H121	H	-0.937128	-1.151666	-0.266595
H122	H	-0.437128	-0.651666	0.233405
Br123	Br	-0.232905	-0.463495	-0.253537
Br124	Br	0.267095	0.036505	0.246463
Br125	Br	-1.090432	-1.170850	-0.247529
Br126	Br	-0.590432	-0.670850	0.252471
Br127	Br	-0.445061	-0.933895	-0.964101
Br128	Br	0.054939	-0.433895	-0.464101
Br129	Br	-0.760338	-1.142560	-0.275600
Br130	Br	-0.260338	-0.642560	0.224400
H131	H	-0.420668	-0.960456	-0.802787
H132	H	0.079332	-0.460456	-0.302787
Br133	Br	-0.587087	-1.149763	-0.268278
Br134	Br	-0.087087	-0.649763	0.231722
H135	H	-1.070493	-0.975251	-0.442866
H136	H	-0.570493	-0.475251	0.057134
H137	H	-0.420878	-0.615894	-0.457423
H138	H	0.079122	-0.115894	0.042577
Br139	Br	-0.445352	-0.454574	-0.483969
Br140	Br	0.054648	0.045426	0.016031
H141	H	-0.937146	-0.980799	-0.437235
H142	H	-0.437146	-0.480799	0.062765
Br143	Br	-0.232936	-1.164788	-0.774128
Br144	Br	0.267064	-0.664788	-0.274128
Br145	Br	-0.587096	-0.927773	-0.489988
Br146	Br	-0.087096	-0.427773	0.010012
