data_functionalizedCrystal
_audit_creation_method	'MofGen! by Chris Wilmer'
_symmetry_space_group_name_H-M	'P1'
_symmetry_Int_Tables_number	1
_symmetry_cell_setting	triclinic
loop_
_symmetry_equiv_pos_as_xyz
  x,y,z
_cell_length_a	13.897449
_cell_length_b	18.050582
_cell_length_c	13.897448
_cell_angle_alpha	89.979070
_cell_angle_beta	90.018972
_cell_angle_gamma	89.986245
loop_
_atom_site_label
_atom_site_type_symbol
_atom_site_fract_x
_atom_site_fract_y
_atom_site_fract_z
Zn1	Zn	1.474636	-0.419898	-0.384043
Zn2	Zn	1.807969	-0.086565	-0.050710
Zn3	Zn	2.141303	0.246769	0.282623
Zn4	Zn	1.474550	-0.295711	-0.545338
Zn5	Zn	1.807883	0.037622	-0.212004
Zn6	Zn	2.141216	0.370955	0.121329
Zn7	Zn	1.313345	-0.295725	-0.384062
Zn8	Zn	1.646678	0.037609	-0.050729
Zn9	Zn	1.980012	0.370942	0.282605
Zn10	Zn	1.313307	-0.419863	-0.545302
Zn11	Zn	1.646640	-0.086529	-0.211968
Zn12	Zn	1.979974	0.246804	0.121365
O13	O	1.393959	-0.357799	-0.464686
O14	O	1.727293	-0.024466	-0.131353
O15	O	2.060626	0.308868	0.201981
O16	O	1.609606	-0.403434	-0.405447
O17	O	1.942940	-0.070100	-0.072113
O18	O	2.276273	0.263233	0.261220
O19	O	1.453145	-0.191789	-0.523967
O20	O	1.786479	0.141545	-0.190634
O21	O	2.119812	0.474878	0.142700
O22	O	1.334793	-0.312217	-0.249078
O23	O	1.668126	0.021117	0.084255
O24	O	2.001459	0.354450	0.417589
O25	O	1.609543	-0.312194	-0.523949
O26	O	1.942876	0.021139	-0.190616
O27	O	2.276210	0.354472	0.142718
O28	O	1.453293	-0.403446	-0.249064
O29	O	1.786626	-0.070113	0.084269
O30	O	2.119959	0.263220	0.417603
O31	O	1.334709	-0.191798	-0.405478
O32	O	1.668042	0.141535	-0.072145
O33	O	2.001376	0.474868	0.261188
O34	O	1.178358	-0.312182	-0.405443
O35	O	1.511692	0.021151	-0.072110
O36	O	1.845025	0.354484	0.261223
O37	O	1.334728	-0.523792	-0.523887
O38	O	1.668061	-0.190459	-0.190554
O39	O	2.001395	0.142875	0.142779
O40	O	1.178330	-0.403386	-0.523905
O41	O	1.511664	-0.070053	-0.190572
O42	O	1.844997	0.263281	0.142761
O43	O	1.453256	-0.523818	-0.405412
O44	O	1.786589	-0.190485	-0.072078
O45	O	2.119922	0.142849	0.261255
O46	O	1.453109	-0.312160	-0.680315
O47	O	1.786442	0.021173	-0.346981
O48	O	2.119775	0.354507	-0.013648
O49	O	1.334644	-0.403373	-0.680288
O50	O	1.667978	-0.070040	-0.346955
O51	O	2.001311	0.263293	-0.013621
C52	C	1.143345	-0.357782	-0.464673
C53	C	1.476678	-0.024449	-0.131340
C54	C	1.810012	0.308884	0.201993
C55	C	1.036131	-0.357793	-0.464691
C56	C	1.369465	-0.024459	-0.131358
C57	C	1.702798	0.308874	0.201976
C58	C	0.839836	-0.357812	-0.464694
C59	C	1.173169	-0.024479	-0.131361
C60	C	1.506503	0.308855	0.201972
C61	C	0.949069	-0.357799	-0.464690
C62	C	1.282402	-0.024466	-0.131356
C63	C	1.615735	0.308868	0.201977
C64	C	1.393997	-0.551505	-0.464643
C65	C	1.727331	-0.218171	-0.131310
C66	C	2.060664	0.115162	0.202023
C67	C	1.394013	-0.634051	-0.464625
C68	C	1.727347	-0.300717	-0.131292
C69	C	2.060680	0.032616	0.202042
C70	C	1.329607	-0.833487	-0.528964
C71	C	1.662941	-0.500154	-0.195631
C72	C	1.996274	-0.166821	0.137702
C73	C	1.417615	-0.882878	-0.552541
C74	C	1.750948	-0.549544	-0.219208
C75	C	2.084282	-0.216211	0.114126
C76	C	1.394061	-0.785181	-0.464552
C77	C	1.727394	-0.451848	-0.131218
C78	C	2.060728	-0.118514	0.202115
C79	C	1.306102	-0.882872	-0.440948
C80	C	1.639435	-0.549539	-0.107615
C81	C	1.972768	-0.216206	0.225718
C82	C	1.394099	-0.931166	-0.464482
C83	C	1.727432	-0.597833	-0.131149
C84	C	2.060766	-0.264500	0.202184
C85	C	1.482115	-0.833484	-0.488174
C86	C	1.815448	-0.500151	-0.154841
C87	C	2.148781	-0.166818	0.178492
C88	C	1.370542	-0.833475	-0.376541
C89	C	1.703875	-0.500141	-0.043207
C90	C	2.037209	-0.166808	0.290126
C91	C	1.458611	-0.882843	-0.400084
C92	C	1.791944	-0.549509	-0.066750
C93	C	2.125277	-0.216176	0.266583
C94	C	1.394038	-0.701083	-0.464594
C95	C	1.727371	-0.367749	-0.131261
C96	C	2.060704	-0.034416	0.202073
C97	C	1.394132	-1.015263	-0.464440
C98	C	1.727466	-0.681930	-0.131106
C99	C	2.060799	-0.348596	0.202227
C100	C	1.645552	-0.357817	-0.464700
C101	C	1.978886	-0.024483	-0.131366
C102	C	2.312219	0.308850	0.201967
C103	C	1.752766	-0.357824	-0.464706
C104	C	2.086100	-0.024491	-0.131372
C105	C	2.419433	0.308843	0.201961
C106	C	1.393889	-0.357778	-0.715301
C107	C	1.727222	-0.024444	-0.381967
C108	C	2.060556	0.308889	-0.048634
C109	C	1.393947	-0.357793	-0.822514
C110	C	1.727281	-0.024460	-0.489181
C111	C	2.060614	0.308873	-0.155848
C112	C	1.393977	-0.164847	-0.464659
C113	C	1.727311	0.168486	-0.131326
C114	C	2.060644	0.501820	0.202008
C115	C	1.394148	-0.082302	-0.464406
C116	C	1.727481	0.251032	-0.131072
C117	C	2.060815	0.584365	0.202261
C118	C	1.394048	-0.357840	-1.018809
C119	C	1.727382	-0.024507	-0.685476
C120	C	2.060715	0.308827	-0.352143
C121	C	1.393989	-0.357816	-0.909577
C122	C	1.727323	-0.024483	-0.576244
C123	C	2.060656	0.308850	-0.242910
C124	C	1.394056	-0.357837	-0.213093
C125	C	1.727390	-0.024504	0.120240
C126	C	2.060723	0.308830	0.453574
C127	C	1.394098	-0.357853	-0.105879
C128	C	1.727431	-0.024520	0.227454
C129	C	2.060764	0.308814	0.560787
H130	H	1.275152	-0.811817	-0.583507
H131	H	1.608485	-0.478483	-0.250174
H132	H	1.941819	-0.145150	0.083159
O133	O	1.346586	-0.807592	-0.287840
O134	O	1.679920	-0.474259	0.045493
O135	O	2.013253	-0.140926	0.378827
C136	C	1.226754	-0.803382	-0.162683
C137	C	1.560087	-0.470049	0.170650
C138	C	1.893421	-0.136715	0.503983
C139	C	1.253767	-0.832731	-0.263153
C140	C	1.587100	-0.499398	0.070181
C141	C	1.920434	-0.166065	0.403514
H142	H	1.151717	-0.823708	-0.142684
H143	H	1.485050	-0.490374	0.190649
H144	H	1.818384	-0.157041	0.523983
H145	H	1.227598	-0.740230	-0.163382
H146	H	1.560932	-0.406896	0.169952
H147	H	1.894265	-0.073563	0.503285
H148	H	1.280990	-0.824524	-0.107572
H149	H	1.614323	-0.491191	0.225762
H150	H	1.947656	-0.157858	0.559095
H151	H	1.199558	-0.811644	-0.318320
H152	H	1.532891	-0.478311	0.015013
H153	H	1.866224	-0.144977	0.348346
H154	H	1.252953	-0.895883	-0.262374
H155	H	1.586286	-0.562549	0.070959
H156	H	1.919620	-0.229216	0.404292
O157	O	1.441216	-0.908738	-0.641354
O158	O	1.774550	-0.575405	-0.308021
O159	O	2.107883	-0.242071	0.025313
C160	C	1.399998	-0.912893	-0.809698
C161	C	1.733331	-0.579560	-0.476365
C162	C	2.066664	-0.246227	-0.143031
C163	C	1.373155	-0.883576	-0.709167
C164	C	1.706488	-0.550243	-0.375834
C165	C	2.039821	-0.216909	-0.042500
H166	H	1.344996	-0.892549	-0.864556
H167	H	1.678329	-0.559216	-0.531222
H168	H	2.011662	-0.225882	-0.197889
H169	H	1.400429	-0.976046	-0.808691
H170	H	1.733763	-0.642713	-0.475358
H171	H	2.067096	-0.309380	-0.142024
H172	H	1.474492	-0.891746	-0.830280
H173	H	1.807825	-0.558413	-0.496946
H174	H	2.141159	-0.225079	-0.163613
H175	H	1.298655	-0.904669	-0.688523
H176	H	1.631988	-0.571335	-0.355190
H177	H	1.965322	-0.238002	-0.021857
H178	H	1.372789	-0.820424	-0.710228
H179	H	1.706122	-0.487091	-0.376895
H180	H	2.039456	-0.153757	-0.043561
O181	O	1.570909	-0.807808	-0.512200
O182	O	1.904243	-0.474475	-0.178867
O183	O	2.237576	-0.141141	0.154467
C184	C	1.696320	-0.804364	-0.631810
C185	C	2.029653	-0.471030	-0.298476
C186	C	2.362986	-0.137697	0.034857
C187	C	1.595767	-0.833507	-0.604709
C188	C	1.929100	-0.500174	-0.271376
C189	C	2.262433	-0.166841	0.061957
H190	H	1.716439	-0.825117	-0.706612
H191	H	2.049773	-0.491783	-0.373279
H192	H	2.383106	-0.158450	-0.039946
H193	H	1.751375	-0.825137	-0.577275
H194	H	2.084708	-0.491804	-0.243942
H195	H	2.418041	-0.158470	0.089392
H196	H	1.695556	-0.741210	-0.631624
H197	H	2.028889	-0.407876	-0.298291
H198	H	2.362222	-0.074543	0.035042
H199	H	1.596436	-0.896659	-0.604904
H200	H	1.929770	-0.563326	-0.271571
H201	H	2.263103	-0.229993	0.061762
H202	H	1.540755	-0.812677	-0.659250
H203	H	1.874088	-0.479344	-0.325916
H204	H	2.207421	-0.146010	0.007417
H205	H	1.513196	-0.904377	-0.345582
H206	H	1.846529	-0.571044	-0.012249
H207	H	2.179863	-0.237710	0.321084
O208	O	1.217317	-0.908792	-0.417326
O209	O	1.550651	-0.575458	-0.083992
O210	O	1.883984	-0.242125	0.249341
C211	C	1.081010	-0.982225	-0.466133
C212	C	1.414343	-0.648891	-0.132800
C213	C	1.747677	-0.315558	0.200533
C214	C	1.181541	-0.952910	-0.493005
C215	C	1.514874	-0.619577	-0.159672
C216	C	1.848207	-0.286244	0.173661
H217	H	1.052063	-1.017913	-0.527296
H218	H	1.385396	-0.684580	-0.193963
H219	H	1.718730	-0.351246	0.139371
H220	H	1.030284	-0.933567	-0.453378
H221	H	1.363618	-0.600234	-0.120044
H222	H	1.696951	-0.266901	0.213289
H223	H	1.086290	-1.016938	-0.397789
H224	H	1.419624	-0.683605	-0.064456
H225	H	1.752957	-0.350272	0.268877
H226	H	1.176353	-0.918208	-0.561362
H227	H	1.509686	-0.584875	-0.228028
H228	H	1.843020	-0.251541	0.105305
H229	H	1.232227	-1.001601	-0.505698
H230	H	1.565561	-0.668267	-0.172365
H231	H	1.898894	-0.334934	0.160969
