data_functionalizedCrystal
_audit_creation_method	'MofGen! by Chris Wilmer'
_symmetry_space_group_name_H-M	'P1'
_symmetry_Int_Tables_number	1
_symmetry_cell_setting	triclinic
loop_
_symmetry_equiv_pos_as_xyz
  x,y,z
_cell_length_a	10.723023
_cell_length_b	11.792254
_cell_length_c	9.798715
_cell_angle_alpha	89.996677
_cell_angle_beta	89.996770
_cell_angle_gamma	84.333073
loop_
_atom_site_label
_atom_site_type_symbol
_atom_site_fract_x
_atom_site_fract_y
_atom_site_fract_z
O1	O	1.656775	0.159187	-0.113478
O2	O	1.293583	0.174426	-0.113484
O3	O	1.483984	0.001656	-0.113471
O4	O	1.466373	0.331957	-0.113491
O5	O	1.483970	0.001656	0.113511
O6	O	1.293568	0.174425	0.113499
O7	O	1.656760	0.159187	0.113504
Zn8	Zn	1.475162	0.166806	0.149540
Zn9	Zn	1.475181	0.166806	-0.149519
O10	O	1.466359	0.331956	0.113492
C11	C	1.247079	0.173317	0.000007
C12	C	1.108533	0.169999	0.000005
C13	C	1.046757	0.168520	0.117587
C14	C	0.903563	0.165091	0.117588
C15	C	1.482868	-0.040637	0.000020
C16	C	1.479547	-0.166658	0.000018
C17	C	1.476849	-0.269000	0.000014
C18	C	1.473476	-0.397394	0.000001
C19	C	1.703264	0.160296	0.000011
C20	C	1.841810	0.163613	0.000004
C21	C	1.467475	0.374250	-0.000002
C22	C	1.470796	0.500270	-0.000010
N23	N	1.475158	0.166805	0.353639
N24	N	1.475194	0.166799	-0.353619
C25	C	1.555104	0.093944	0.421422
C26	C	1.555124	0.093940	0.578584
H27	H	1.099881	0.169786	0.218253
H28	H	0.850437	0.163826	0.218255
Br29	Br	1.668846	-0.010314	0.324231
H30	H	0.894926	0.164892	-0.100668
H31	H	1.055411	0.168724	-0.100661
Br32	Br	1.669219	-0.010027	0.675730
Br33	Br	1.361116	0.270787	0.549244
H34	H	1.406724	0.229177	0.411959
