data_functionalizedCrystal
_audit_creation_method	'MofGen! by Chris Wilmer'
_symmetry_space_group_name_H-M	'P1'
_symmetry_Int_Tables_number	1
_symmetry_cell_setting	triclinic
loop_
_symmetry_equiv_pos_as_xyz
  x,y,z
_cell_length_a	16.625546
_cell_length_b	11.169417
_cell_length_c	11.169417
_cell_angle_alpha	89.999137
_cell_angle_beta	90.013698
_cell_angle_gamma	89.976653
loop_
_atom_site_label
_atom_site_type_symbol
_atom_site_fract_x
_atom_site_fract_y
_atom_site_fract_z
Zn1	Zn	-0.321114	-1.834637	0.678491
Zn2	Zn	0.178886	-1.334637	1.178491
Zn3	Zn	-0.455918	-1.834550	0.477787
Zn4	Zn	0.044082	-1.334550	0.977787
Zn5	Zn	-0.321105	-1.633989	0.477826
Zn6	Zn	0.178895	-1.133989	0.977826
Zn7	Zn	-0.455911	-1.633887	0.678432
Zn8	Zn	0.044089	-1.133887	1.178432
O9	O	-0.388512	-1.734266	0.578134
O10	O	0.111488	-1.234266	1.078134
O11	O	-0.339003	-2.002575	0.651876
O12	O	0.160997	-1.502575	1.151876
O13	O	-0.438034	-1.807951	0.309843
O14	O	0.061966	-1.307951	0.809843
O15	O	-0.208274	-1.660684	0.504486
O16	O	0.291726	-1.160684	1.004486
O17	O	-0.438043	-2.002511	0.504420
O18	O	0.061957	-1.502511	1.004420
O19	O	-0.208281	-1.808099	0.651914
O20	O	0.291719	-1.308099	1.151914
O21	O	-0.338988	-1.660600	0.309871
O22	O	0.161012	-1.160600	0.809871
O23	O	-0.338980	-1.466026	0.504428
O24	O	0.161020	-0.966026	1.004428
O25	O	-0.438030	-1.660511	0.846389
O26	O	0.061970	-1.160511	1.346389
O27	O	-0.438021	-1.465951	0.651812
O28	O	0.061979	-0.965951	1.151812
O29	O	-0.338996	-1.808001	0.846433
O30	O	0.161004	-1.308001	1.346433
O31	O	-0.568749	-1.807853	0.504362
O32	O	-0.068749	-1.307853	1.004362
O33	O	-0.568744	-1.660427	0.651775
O34	O	-0.068744	-1.160427	1.151775
C35	C	-0.598003	-1.734152	0.578084
C36	C	-0.098003	-1.234152	1.078084
C37	C	-0.687624	-1.734213	0.578102
C38	C	-0.187624	-1.234213	1.078102
C39	C	-0.388513	-1.734254	0.891176
C40	C	0.111487	-1.234254	1.391176
C41	C	-0.388514	-1.734249	1.024576
C42	C	0.111486	-1.234249	1.524576
C43	C	-0.388500	-1.422441	0.578119
C44	C	0.111500	-0.922441	1.078119
C45	C	-0.388514	-1.289041	0.578140
C46	C	0.111486	-0.789041	1.078140
C47	C	-1.015800	-1.734423	0.578227
C48	C	-0.515800	-1.234423	1.078227
C49	C	-0.924491	-1.734361	0.578196
C50	C	-0.424491	-1.234361	1.078196
C51	C	-0.851715	-1.734317	0.578164
C52	C	-0.351715	-1.234317	1.078164
C53	C	-0.760400	-1.734257	0.578134
C54	C	-0.260400	-1.234257	1.078134
C55	C	-0.178203	-1.734412	0.578211
C56	C	0.321797	-1.234412	1.078211
C57	C	-0.088582	-1.734475	0.578243
C58	C	0.411418	-1.234475	1.078243
C59	C	-0.388525	-2.047308	0.578150
C60	C	0.111475	-1.547308	1.078150
C61	C	-0.388530	-2.180708	0.578157
C62	C	0.111470	-1.680708	1.078157
C63	C	-0.388525	-1.734263	1.266309
C64	C	0.111475	-1.234263	1.766309
C65	C	-0.388515	-1.734252	1.132909
C66	C	0.111485	-1.234252	1.632909
