data_functionalizedCrystal
_audit_creation_method	'MofGen! by Chris Wilmer'
_symmetry_space_group_name_H-M	'P1'
_symmetry_Int_Tables_number	1
_symmetry_cell_setting	triclinic
loop_
_symmetry_equiv_pos_as_xyz
  x,y,z
_cell_length_a	14.044220
_cell_length_b	17.000371
_cell_length_c	12.503572
_cell_angle_alpha	93.243058
_cell_angle_beta	86.164750
_cell_angle_gamma	84.394063
loop_
_atom_site_label
_atom_site_type_symbol
_atom_site_fract_x
_atom_site_fract_y
_atom_site_fract_z
O1	O	1.247615	0.186576	-0.089209
O2	O	0.972221	0.179691	-0.089236
O3	O	1.127018	0.068481	-0.089213
O4	O	1.092819	0.297785	-0.089231
O5	O	1.115375	0.076860	0.089427
O6	O	0.960579	0.188070	0.089405
O7	O	1.235972	0.194954	0.089432
Cu8	Cu	1.097212	0.192277	0.105729
Cu9	Cu	1.110981	0.182368	-0.105533
O10	O	1.081176	0.306164	0.089409
C11	C	0.931337	0.180867	0.000081
C12	C	0.826861	0.171878	0.000071
C13	C	1.123033	0.043147	0.000107
C14	C	1.128495	-0.044823	0.000107
C15	C	0.635568	0.155447	0.000094
C16	C	0.572621	0.219194	0.000093
C17	C	0.466179	0.210051	0.000106
C18	C	0.742020	0.164589	0.000081
C19	C	1.044438	-0.082818	0.000094
C20	C	1.049576	-0.165476	0.000097
C21	C	1.138772	-0.210138	0.000106
C22	C	1.222836	-0.172138	0.000122
C23	C	1.217696	-0.089481	0.000126
C24	C	1.158623	-0.459875	0.000100
C25	C	1.163756	-0.542538	0.000093
C26	C	0.990496	-0.535869	0.000070
C27	C	0.985365	-0.453211	0.000068
C28	C	1.069427	-0.415218	0.000090
C29	C	1.144026	-0.294628	0.000106
C30	C	1.064172	-0.330729	0.000097
C31	C	1.276857	0.193778	0.000113
C32	C	1.381333	0.202767	0.000116
C33	C	1.085161	0.331498	0.000087
C34	C	1.079699	0.419468	0.000080
N35	N	1.087535	0.199246	0.254320
N36	N	1.120667	0.175393	-0.254124
C37	C	1.073298	0.209505	0.473433
C38	C	1.134900	0.165137	0.526770
C39	C	1.126979	0.170845	0.648692
C40	C	1.081218	0.203798	0.351500
H41	H	0.609518	0.094011	0.000104
H42	H	1.227073	-0.428951	0.000116
H43	H	1.014615	0.251775	0.519332
C44	C	1.213208	0.108816	0.465576
C45	C	1.303116	0.129290	0.492700
C46	C	1.375232	0.077418	0.436297
H47	H	1.208227	0.112431	0.390587
H48	H	1.206128	0.056123	0.483925
H49	H	1.310194	0.181971	0.474344
H50	H	1.308129	0.125671	0.567680
H51	H	1.368153	0.024724	0.454646
H52	H	1.370242	0.081036	0.361310
H53	H	1.436243	0.091298	0.454700
C54	C	0.947500	-0.034467	0.000136
C55	C	0.874985	-0.085435	0.000154
C56	C	0.785670	-0.040925	0.000210
H57	H	0.945815	-0.004993	-0.062142
H58	H	0.937780	0.000821	0.062457
H59	H	0.884702	-0.120709	-0.062161
H60	H	0.876638	-0.114910	0.062428
H61	H	0.775950	-0.005638	0.062532
H62	H	0.783996	-0.011453	-0.062069
H63	H	0.736458	-0.075500	0.000232
H64	H	0.598672	0.280635	0.000083
C65	C	0.958398	-0.206835	-0.000094
C66	C	0.962293	-0.258414	-0.091989
C67	C	0.878318	-0.296533	-0.092195
H68	H	0.904473	-0.168486	-0.000161
H69	H	0.952729	-0.236069	0.062168
H70	H	0.967952	-0.229182	-0.154235
H71	H	1.016200	-0.296778	-0.091941
H72	H	0.872648	-0.325767	-0.029933
H73	H	0.824399	-0.258178	-0.092259
H74	H	0.880953	-0.331539	-0.154539
H75	H	0.991549	-0.294361	0.000097
C76	C	0.899337	-0.577263	0.000112
C77	C	0.922920	-0.659208	0.000138
C78	C	0.838965	-0.697364	0.000195
H79	H	0.866892	-0.565357	-0.062169
H80	H	0.858836	-0.559473	0.062431
H81	H	0.963405	-0.676992	-0.062175
H82	H	0.955353	-0.671138	0.062414
H83	H	0.798464	-0.679574	0.062515
H84	H	0.806526	-0.685452	-0.062086
H85	H	0.854954	-0.752967	0.000223
H86	H	1.236395	-0.578901	0.000093
C87	C	1.319592	-0.220768	0.000078
C88	C	1.306106	-0.301290	0.000041
C89	C	1.395219	-0.346110	-0.000017
H90	H	1.350362	-0.205773	0.062362
H91	H	1.358416	-0.211554	-0.062237
H92	H	1.267297	-0.310499	0.062350
H93	H	1.275352	-0.316308	-0.062239
H94	H	1.434044	-0.336895	-0.062333
H95	H	1.425982	-0.331108	0.062268
H96	H	1.386082	-0.400749	-0.000053
C97	C	1.309072	-0.048377	0.000078
C98	C	1.388290	-0.105181	0.000053
C99	C	1.472483	-0.067347	-0.000002
H100	H	1.306747	-0.013356	0.062359
H101	H	1.314781	-0.019209	-0.062241
H102	H	1.382582	-0.134336	0.062366
H103	H	1.390646	-0.140205	-0.062222
H104	H	1.478193	-0.038179	-0.062321
H105	H	1.470148	-0.032327	0.062279
H106	H	1.526243	-0.105883	-0.000029
H107	H	0.912732	-0.416852	0.000058
H108	H	1.216650	-0.331002	0.000111
