data_functionalizedCrystal
_audit_creation_method	'MofGen! by Chris Wilmer'
_symmetry_space_group_name_H-M	'P1'
_symmetry_Int_Tables_number	1
_symmetry_cell_setting	triclinic
loop_
_symmetry_equiv_pos_as_xyz
  x,y,z
_cell_length_a	10.540510
_cell_length_b	17.019330
_cell_length_c	15.500361
_cell_angle_alpha	91.049433
_cell_angle_beta	87.137040
_cell_angle_gamma	96.044559
loop_
_atom_site_label
_atom_site_type_symbol
_atom_site_fract_x
_atom_site_fract_y
_atom_site_fract_z
O1	O	0.174055	-1.040040	-0.149432
O2	O	0.674055	-0.540040	0.350568
O3	O	0.193261	-0.811350	-0.132393
O4	O	0.693261	-0.311350	0.367607
O5	O	-0.001104	-0.930925	-0.141302
O6	O	0.498896	-0.430925	0.358698
O7	O	0.368421	-0.920465	-0.140523
O8	O	0.868421	-0.420465	0.359477
O9	O	-0.012860	-0.938143	0.002046
O10	O	0.487140	-0.438143	0.502046
O11	O	0.181505	-0.818569	0.010955
O12	O	0.681505	-0.318569	0.510955
O13	O	0.162300	-1.047259	-0.006084
O14	O	0.662300	-0.547259	0.493916
Cu15	Cu	0.170829	-0.933573	0.015524
Cu16	Cu	0.670829	-0.433573	0.515524
Cu17	Cu	0.184732	-0.925036	-0.154001
Cu18	Cu	0.684732	-0.425036	0.345999
O19	O	0.356665	-0.927684	0.002825
O20	O	0.856665	-0.427684	0.502825
C21	C	0.186420	-0.785676	-0.058538
C22	C	0.686420	-0.285676	0.441462
C23	C	0.183534	-0.698421	-0.052037
C24	C	0.683534	-0.198421	0.447963
C25	C	0.166936	-0.205117	-0.011351
C26	C	0.666936	0.294883	0.488649
C27	C	0.169647	-0.287102	-0.017461
C28	C	0.669647	0.212898	0.482539
C29	C	0.177401	-0.324161	-0.098656
C30	C	0.677401	0.175839	0.401344
C31	C	0.182457	-0.279229	-0.173747
C32	C	0.682457	0.220771	0.326253
C33	C	0.179755	-0.197244	-0.167636
C34	C	0.679755	0.302756	0.332364
C35	C	0.185888	-0.571504	-0.121016
C36	C	0.685888	-0.071504	0.378984
C37	C	0.188586	-0.653495	-0.127121
C38	C	0.688586	-0.153495	0.372879
C39	C	0.175778	-0.661363	0.029165
C40	C	0.675778	-0.161363	0.529165
C41	C	0.173069	-0.579377	0.035268
C42	C	0.673069	-0.079377	0.535268
C43	C	0.178132	-0.534451	-0.039822
C44	C	0.678132	-0.034451	0.460178
C45	C	0.180168	-0.407963	-0.104904
C46	C	0.680168	0.092037	0.395096
C47	C	0.175374	-0.450649	-0.033573
C48	C	0.675374	0.049351	0.466427
C49	C	-0.054278	-0.933754	-0.069572
C50	C	0.445722	-0.433754	0.430428
C51	C	-0.195203	-0.931422	-0.069403
C52	C	0.304797	-0.431422	0.430597
C53	C	-0.413539	-1.014507	-0.075264
C54	C	0.086461	-0.514507	0.424736
C55	C	-0.266942	-1.016978	-0.075777
C56	C	0.233058	-0.516978	0.424223
C57	C	-0.232799	-0.883504	-0.147997
C58	C	0.267201	-0.383504	0.352003
C59	C	-0.379535	-0.881619	-0.147921
C60	C	0.120465	-0.381619	0.352079
C61	C	-0.392694	-0.888047	0.015225
C62	C	0.107306	-0.388047	0.515225
C63	C	-0.246483	-0.892159	0.016000
C64	C	0.253517	-0.392159	0.516000
C65	C	0.409839	-0.924854	-0.068907
C66	C	0.909839	-0.424854	0.431093
C67	C	0.550765	-0.927186	-0.069082
C68	C	1.050765	-0.427186	0.430918
N69	N	0.161050	-0.939583	0.134759
N70	N	0.661050	-0.439583	0.634759
C71	C	0.169131	-0.072933	-0.079938
C72	C	0.669131	0.427067	0.420062
C73	C	0.171988	-0.160191	-0.086436
C74	C	0.671988	0.339809	0.413564
N75	N	0.194501	-0.919032	-0.273236
N76	N	0.694501	-0.419032	0.226764
C77	C	0.243378	-0.888905	0.183832
C78	C	0.743378	-0.388905	0.683832
C79	C	0.235977	-0.893473	0.274063
C80	C	0.735977	-0.393473	0.774063
C81	C	0.146242	-0.948715	0.315219
C82	C	0.646242	-0.448715	0.815219
C83	C	0.063911	-0.999398	0.266138
C84	C	0.563911	-0.499398	0.766138
C85	C	0.071318	-0.994834	0.175909
C86	C	0.571318	-0.494834	0.675909
C87	C	0.119577	-0.965150	0.587454
C88	C	0.619577	-0.465150	1.087454
C89	C	0.112173	-0.969709	0.677690
C90	C	0.612173	-0.469709	1.177690
C91	C	0.284242	-0.863785	0.685608
C92	C	0.784242	-0.363785	1.185608
C93	C	0.291637	-0.859222	0.595377
C94	C	0.791637	-0.359222	1.095377
C95	C	0.209310	-0.909908	0.546305
C96	C	0.709310	-0.409908	1.046305
C97	C	0.138672	-0.953384	0.407449
C98	C	0.638672	-0.453384	0.907449
C99	C	0.216886	-0.905242	0.454076
C100	C	0.716886	-0.405242	0.954076
H101	H	0.186478	-0.438146	-0.171013
H102	H	0.686478	0.061854	0.328987
F103	F	0.338881	-0.830105	0.140040
F104	F	0.838881	-0.330105	0.640040
F105	F	0.196840	-0.692933	-0.213544
F106	F	0.696840	-0.192933	0.286456
F107	F	0.164276	-0.334912	0.062455
F108	F	0.664276	0.165088	0.562455
F109	F	-0.235331	-1.065615	-0.002406
F110	F	0.264669	-0.565615	0.497594
H111	H	0.160627	-0.174950	0.054767
H112	H	0.660627	0.325050	0.554767
H113	H	-0.452598	-1.044707	-0.136104
H114	H	0.047402	-0.544707	0.363896
F115	F	0.043168	-1.012175	0.451255
F116	F	0.543168	-0.512175	0.951255
F117	F	-0.186353	-0.919249	-0.230585
F118	F	0.313647	-0.419249	0.269415
F119	F	-0.425948	-0.916717	-0.230812
F120	F	0.074052	-0.416717	0.269188
F121	F	0.190713	-0.318671	-0.260161
F122	F	0.690713	0.181329	0.239839
F123	F	-0.420843	-0.804123	0.022204
F124	F	0.079157	-0.304123	0.522204
H125	H	0.183872	-0.160666	-0.228778
H126	H	0.683872	0.339334	0.271222
H127	H	0.166727	-0.549212	0.101386
H128	H	0.666727	-0.049212	0.601386
F129	F	0.371857	-0.809847	0.737840
F130	F	0.871857	-0.309847	1.237840
F131	F	-0.215996	-0.937793	0.092052
F132	F	0.284004	-0.437793	0.592052
H133	H	-0.440244	-0.918360	0.075247
H134	H	0.059756	-0.418360	0.575247
H135	H	0.169067	-0.420472	0.032535
H136	H	0.669067	0.079528	0.532535
F137	F	-0.475115	-1.061941	-0.001779
F138	F	0.024885	-0.561941	0.498221
F139	F	0.016656	-1.028508	0.721485
F140	F	0.516656	-0.528508	1.221485
F141	F	0.323601	-0.839538	0.326291
F142	F	0.823601	-0.339538	0.826291
H143	H	0.171659	-0.697949	0.090299
H144	H	0.671659	-0.197949	0.590299
H145	H	0.289954	-0.860267	0.420564
H146	H	0.789954	-0.360267	0.920564
F147	F	-0.223970	-1.058157	-0.155963
F148	F	0.276030	-0.558157	0.344037
F149	F	-0.408338	-0.797737	-0.146550
F150	F	0.091662	-0.297737	0.353450
F151	F	-0.169683	-0.800979	-0.145848
F152	F	0.330317	-0.300979	0.354152
H153	H	-0.197180	-0.829946	0.025597
H154	H	0.302820	-0.329946	0.525597
H155	H	0.052541	-1.006419	0.547506
H156	H	0.552541	-0.506419	1.047506
F157	F	0.191272	-0.523701	-0.200935
F158	F	0.691272	-0.023701	0.299065
H159	H	0.364706	-0.814240	0.561870
H160	H	0.864706	-0.314240	1.061870
F161	F	-0.031588	-1.058195	0.309940
F162	F	0.468412	-0.558195	0.809940
F163	F	-0.016303	-1.048774	0.123682
F164	F	0.483697	-0.548774	0.623682
