data_functionalizedCrystal
_audit_creation_method	'MofGen! by Chris Wilmer'
_symmetry_space_group_name_H-M	'P1'
_symmetry_Int_Tables_number	1
_symmetry_cell_setting	triclinic
loop_
_symmetry_equiv_pos_as_xyz
  x,y,z
_cell_length_a	8.597187
_cell_length_b	23.532357
_cell_length_c	7.681481
_cell_angle_alpha	84.289729
_cell_angle_beta	88.166928
_cell_angle_gamma	84.088408
loop_
_atom_site_label
_atom_site_type_symbol
_atom_site_fract_x
_atom_site_fract_y
_atom_site_fract_z
O1	O	2.034718	0.101504	-0.455150
O2	O	1.584630	0.105548	-0.386871
O3	O	1.823291	0.020771	-0.423040
O4	O	1.796058	0.186281	-0.418981
O5	O	1.852666	0.010312	-0.134634
O6	O	1.614006	0.095089	-0.098465
O7	O	2.064094	0.091045	-0.166744
Zn8	Zn	1.843714	0.091406	-0.086814
Zn9	Zn	1.805010	0.105187	-0.466801
O10	O	1.825434	0.175822	-0.130575
C11	C	1.541747	0.099301	-0.233934
C12	C	1.370203	0.096264	-0.207909
C13	C	1.837298	-0.005684	-0.278728
C14	C	1.835252	-0.068930	-0.278401
C15	C	1.806377	-0.455407	-0.433755
C16	C	1.804429	-0.514832	-0.433469
O17	O	1.789752	-0.540714	-0.567010
N18	N	1.819477	-0.550257	-0.276115
C19	C	1.836456	-0.526254	-0.119034
O20	O	1.849075	-0.561842	0.014835
C21	C	1.838392	-0.466830	-0.119319
C22	C	1.823360	-0.431408	-0.276686
C23	C	1.791344	-0.419986	-0.591109
C24	C	1.793294	-0.360565	-0.591394
C25	C	1.810277	-0.336566	-0.434325
C26	C	1.825310	-0.371987	-0.276971
C27	C	1.855361	-0.442827	0.037762
C28	C	1.857295	-0.383398	0.037464
C29	C	1.842262	-0.347977	-0.119903
C30	C	1.844243	-0.288568	-0.120187
N31	N	1.829196	-0.253143	-0.277542
C32	C	1.812213	-0.277142	-0.434611
C33	C	1.832387	-0.651048	-0.118446
C34	C	1.830462	-0.710472	-0.118160
C35	C	1.798432	-0.699046	-0.432596
C36	C	1.800368	-0.639622	-0.432882
C37	C	1.817340	-0.615623	-0.275800
C38	C	1.816311	-0.152355	-0.435198
C39	C	1.818269	-0.092930	-0.435470
C40	C	1.850291	-0.104361	-0.121034
C41	C	1.848341	-0.163781	-0.120762
C42	C	1.831344	-0.187776	-0.277857
O43	O	1.858908	-0.262645	0.013285
O44	O	1.799576	-0.241546	-0.568454
C45	C	2.106977	0.097292	-0.319685
C46	C	2.278520	0.100330	-0.345721
C47	C	1.811426	0.202277	-0.274890
C48	C	1.813471	0.265524	-0.275229
N49	N	1.870139	0.082002	0.172516
N50	N	1.778597	0.114587	-0.726132
H51	H	1.331269	0.106135	-0.483616
H52	H	1.963602	0.048744	0.233557
H53	H	1.317458	0.090465	-0.070022
H54	H	1.806031	-0.064091	-0.563623
H55	H	1.685152	0.147847	0.212833
H56	H	1.802463	-0.171883	-0.563118
H57	H	1.781047	-0.331729	-0.719538
H58	H	1.777507	-0.439519	-0.719019
H59	H	1.788125	-0.610785	-0.561023
H60	H	1.864125	-0.084810	0.006847
H61	H	1.784598	-0.718596	-0.560490
H62	H	1.842727	-0.739309	0.009981
H63	H	1.867605	-0.471658	0.165907
H64	H	1.846212	-0.631514	0.009476
H65	H	1.871092	-0.363862	0.165385
H66	H	1.860596	-0.192623	0.007377
