data_functionalizedCrystal
_audit_creation_method	'MofGen! by Chris Wilmer'
_symmetry_space_group_name_H-M	'P1'
_symmetry_Int_Tables_number	1
_symmetry_cell_setting	triclinic
loop_
_symmetry_equiv_pos_as_xyz
  x,y,z
_cell_length_a	16.959455
_cell_length_b	13.897448
_cell_length_c	16.959447
_cell_angle_alpha	89.971905
_cell_angle_beta	89.982031
_cell_angle_gamma	90.014639
loop_
_atom_site_label
_atom_site_type_symbol
_atom_site_fract_x
_atom_site_fract_y
_atom_site_fract_z
Zn1	Zn	1.208425	-0.384087	-0.446914
Zn2	Zn	1.708425	0.115913	0.053086
Zn3	Zn	1.208345	-0.545401	-0.314738
Zn4	Zn	1.708345	-0.045401	0.185262
Zn5	Zn	1.076245	-0.384113	-0.314751
Zn6	Zn	1.576245	0.115887	0.185249
Zn7	Zn	1.076224	-0.545333	-0.446876
Zn8	Zn	1.576224	-0.045333	0.053124
O9	O	1.142310	-0.464733	-0.380820
O10	O	1.642310	0.035267	0.119180
O11	O	1.319025	-0.405503	-0.429390
O12	O	1.819025	0.094497	0.070610
O13	O	1.190797	-0.524046	-0.204128
O14	O	1.690797	-0.024046	0.295872
O15	O	1.093822	-0.249128	-0.332305
O16	O	1.593822	0.250872	0.167695
O17	O	1.318966	-0.524020	-0.332281
O18	O	1.818966	-0.024020	0.167719
O19	O	1.190934	-0.249108	-0.429404
O20	O	1.690934	0.250892	0.070596
O21	O	1.093744	-0.405548	-0.204139
O22	O	1.593744	0.094452	0.295861
O23	O	0.965632	-0.405482	-0.332268
O24	O	1.465632	0.094518	0.167732
O25	O	1.093785	-0.523903	-0.557492
O26	O	1.593785	-0.023903	-0.057492
O27	O	0.965616	-0.523929	-0.429340
O28	O	1.465616	-0.023929	0.070660
O29	O	1.190913	-0.405436	-0.557520
O30	O	1.690913	0.094564	-0.057520
O31	O	1.190776	-0.680374	-0.332244
O32	O	1.690776	-0.180374	0.167756
O33	O	1.093707	-0.680323	-0.429326
O34	O	1.593707	-0.180323	0.070674
C35	C	0.936944	-0.464702	-0.380802
C36	C	1.436944	0.035298	0.119198
C37	C	0.849087	-0.464711	-0.380813
C38	C	1.349087	0.035289	0.119187
C39	C	0.477595	-0.403007	-0.330380
C40	C	0.977595	0.096993	0.169620
C41	C	0.477628	-0.526539	-0.431305
C42	C	0.977628	-0.026539	0.068695
C43	C	0.560173	-0.526525	-0.431300
C44	C	1.060173	-0.026525	0.068700
C45	C	0.601434	-0.464752	-0.380834
C46	C	1.101434	0.035248	0.119166
C47	C	0.560149	-0.402994	-0.330372
C48	C	1.060149	0.097006	0.169628
C49	C	0.601465	-0.588289	-0.481754
C50	C	1.101465	-0.088289	0.018246
C51	C	0.684016	-0.588279	-0.481751
C52	C	1.184016	-0.088279	0.018249
C53	C	0.725278	-0.526501	-0.431288
C54	C	1.225278	-0.026501	0.068712
C55	C	0.683988	-0.464739	-0.380825
C56	C	1.183988	0.035261	0.119175
C57	C	0.725248	-0.402966	-0.330359
C58	C	1.225248	0.097034	0.169641
C59	C	0.683959	-0.341199	-0.279900
C60	C	1.183959	0.158801	0.220100
C61	C	0.601411	-0.341216	-0.279909
C62	C	1.101411	0.158784	0.220091
C63	C	0.807826	-0.526484	-0.431279
C64	C	1.307826	-0.026484	0.068721
C65	C	0.807802	-0.402952	-0.330351
C66	C	1.307802	0.097048	0.169649
C67	C	1.142252	-0.715348	-0.380797
C68	C	1.642252	-0.215348	0.119203
C69	C	1.142300	-0.822562	-0.380814
C70	C	1.642300	-0.322562	0.119186
C71	C	1.142383	-1.018857	-0.380863
C72	C	1.642383	-0.518857	0.119137
C73	C	1.142334	-0.909624	-0.380838
C74	C	1.642334	-0.409624	0.119162
C75	C	1.348478	-0.464766	-0.380838
C76	C	1.848478	0.035234	0.119162
C77	C	1.436335	-0.464780	-0.380846
C78	C	1.936335	0.035220	0.119154
C79	C	1.142356	-0.464659	-0.586988
C80	C	1.642356	0.035341	-0.086988
C81	C	1.142375	-0.464628	-0.674845
C82	C	1.642375	0.035372	-0.174845
C83	C	1.142389	-0.213140	-0.380860
C84	C	1.642389	0.286860	0.119140
C85	C	1.142423	-0.105926	-0.380877
C86	C	1.642423	0.394074	0.119123
C87	C	1.192917	-0.526308	-0.716115
C88	C	1.692917	-0.026308	-0.216115
C89	C	1.091848	-0.402923	-0.716128
C90	C	1.591848	0.097077	-0.216128
C91	C	1.091861	-0.402895	-0.798674
C92	C	1.591861	0.097105	-0.298674
C93	C	1.142403	-0.464575	-0.839944
C94	C	1.642403	0.035425	-0.339944
C95	C	1.192930	-0.526283	-0.798669
C96	C	1.692930	-0.026283	-0.298669
C97	C	1.041329	-0.341194	-0.839956
C98	C	1.541329	0.158806	-0.339956
C99	C	1.041340	-0.341164	-0.922507
C100	C	1.541340	0.158836	-0.422507
C101	C	1.091886	-0.402840	-0.963779
C102	C	1.591886	0.097160	-0.463779
C103	C	1.142416	-0.464550	-0.922498
C104	C	1.642416	0.035450	-0.422498
C105	C	1.192957	-0.526230	-0.963768
C106	C	1.692957	-0.026230	-0.463768
C107	C	1.243492	-0.587936	-0.922489
C108	C	1.743492	-0.087936	-0.422489
C109	C	1.243476	-0.587959	-0.839940
C110	C	1.743476	-0.087959	-0.339940
C111	C	1.091902	-0.402818	-1.046327
C112	C	1.591902	0.097182	-0.546327
C113	C	1.192971	-0.526206	-1.046322
C114	C	1.692971	-0.026206	-0.546322
C115	C	1.142310	-0.464738	-0.175454
C116	C	1.642310	0.035262	0.324546
C117	C	1.142443	-0.464498	-0.087597
C118	C	1.642443	0.035502	0.412403
H119	H	0.444028	-0.576837	-0.472387
H120	H	0.944028	-0.076837	0.027613
H121	H	0.717564	-0.290908	-0.238807
H122	H	1.217564	0.209092	0.261193
H123	H	0.567865	-0.638588	-0.522836
H124	H	1.067865	-0.138588	-0.022836
H125	H	0.567786	-0.290929	-0.238827
H126	H	1.067786	0.209071	0.261173
Cl127	Cl	0.735914	-0.665925	-0.545187
Cl128	Cl	1.235914	-0.165925	-0.045187
H129	H	1.050756	-0.352579	-1.079933
H130	H	1.550756	0.147421	-0.579933
Cl131	Cl	1.028331	-0.325367	-0.664245
Cl132	Cl	1.528331	0.174633	-0.164245
H133	H	0.443974	-0.352715	-0.289300
H134	H	0.943974	0.147285	0.210700
Cl135	Cl	0.859729	-0.604133	-0.494703
Cl136	Cl	1.359729	-0.104133	0.005297
H137	H	1.234131	-0.576430	-1.079918
H138	H	1.734131	-0.076430	-0.579918
Cl139	Cl	1.307020	-0.665481	-0.974381
Cl140	Cl	1.807020	-0.165481	-0.474381
Cl141	Cl	1.307000	-0.665524	-0.788042
Cl142	Cl	1.807000	-0.165524	-0.288042
H143	H	1.234063	-0.576544	-0.682502
H144	H	1.734063	-0.076544	-0.182502
H145	H	1.000176	-0.290984	-0.806347
H146	H	1.500176	0.209016	-0.306347
Cl147	Cl	0.859665	-0.325285	-0.266908
Cl148	Cl	1.359665	0.174715	0.233092
Cl149	Cl	0.977799	-0.263609	-0.974393
Cl150	Cl	1.477799	0.236391	-0.474393
