data_functionalizedCrystal
_audit_creation_method	'MofGen! by Chris Wilmer'
_symmetry_space_group_name_H-M	'P1'
_symmetry_Int_Tables_number	1
_symmetry_cell_setting	triclinic
loop_
_symmetry_equiv_pos_as_xyz
  x,y,z
_cell_length_a	16.992694
_cell_length_b	8.559649
_cell_length_c	16.053802
_cell_angle_alpha	92.204030
_cell_angle_beta	87.249047
_cell_angle_gamma	80.223444
loop_
_atom_site_label
_atom_site_type_symbol
_atom_site_fract_x
_atom_site_fract_y
_atom_site_fract_z
O1	O	1.023824	0.329978	-0.069320
O2	O	0.795762	0.326287	-0.069345
O3	O	0.929885	0.098096	-0.069329
O4	O	0.889700	0.558168	-0.069335
O5	O	0.922506	0.110601	0.069529
O6	O	0.788383	0.338792	0.069513
O7	O	1.016444	0.342483	0.069538
Zn8	Zn	0.901242	0.342623	0.091572
Zn9	Zn	0.910964	0.326147	-0.091379
O10	O	0.882321	0.570673	0.069523
C11	C	0.763145	0.327794	0.000081
C12	C	0.676954	0.313635	0.000072
C13	C	0.618488	0.450242	0.000071
C14	C	0.537502	0.436931	0.000082
C15	C	0.514985	0.287010	0.000089
C16	C	0.573459	0.150392	0.000093
C17	C	0.654442	0.163706	0.000087
C18	C	0.274709	0.231830	0.000112
C19	C	0.193719	0.218527	0.000115
C20	C	0.157768	0.505067	0.000106
C21	C	0.238755	0.518367	0.000096
C22	C	0.297221	0.381749	0.000104
N23	N	0.432206	0.273399	0.000099
N24	N	0.379998	0.395362	0.000100
C25	C	0.929241	0.045208	0.000098
C26	C	0.938306	-0.131015	0.000095
C27	C	1.049061	0.340975	0.000110
C28	C	1.135252	0.355134	0.000114
C29	C	0.882965	0.623562	0.000093
C30	C	0.873901	0.799784	0.000091
N31	N	0.894612	0.353867	0.216432
N32	N	0.917601	0.314891	-0.216239
C33	C	0.951698	0.256811	0.260132
C34	C	0.947067	0.264692	0.347539
C35	C	0.885353	0.369639	0.391243
C36	C	0.828261	0.466699	0.347536
C37	C	0.832890	0.458808	0.260132
C38	C	0.865138	0.404060	0.652650
C39	C	0.860515	0.411947	0.740061
C40	C	0.979321	0.209937	0.740057
C41	C	0.983946	0.202063	0.652651
C42	C	0.926852	0.299117	0.608952
N43	N	0.880619	0.377701	0.480586
N44	N	0.931583	0.291046	0.519610
H45	H	0.175391	0.096437	0.000120
H46	H	1.000384	-0.206593	0.000108
O47	O	1.011681	0.154727	0.217811
C48	C	1.061083	0.070781	0.275130
H49	H	1.025992	0.070505	0.337439
H50	H	1.115286	0.130555	0.284415
C51	C	1.132329	-0.100953	0.164502
C52	C	1.089228	-0.101303	0.241029
H53	H	1.149694	-0.207100	0.143466
H54	H	1.099049	-0.044394	0.125884
H55	H	1.177493	-0.051134	0.172249
H56	H	1.044060	-0.151104	0.233278
H57	H	1.122502	-0.157875	0.279644
H58	H	0.636813	0.572324	0.000064
H59	H	0.811826	-0.124646	0.000087
O60	O	0.768236	0.568676	0.389858
C61	C	0.718853	0.652672	0.332541
H62	H	0.725193	0.581923	0.270241
H63	H	0.737506	0.772888	0.323234
C64	C	0.623359	0.764497	0.443179
C65	C	0.631141	0.677596	0.366663
H66	H	0.569255	0.779879	0.464228
H67	H	0.656631	0.707913	0.481796
H68	H	0.638908	0.864668	0.435413
H69	H	0.615602	0.577421	0.374432
H70	H	0.597865	0.734164	0.328048
H71	H	0.110157	0.616292	0.000102
H72	H	0.257081	0.640447	0.000080
O73	O	1.002426	0.170248	0.390022
C74	C	0.963985	0.071624	0.440607
H75	H	0.904183	0.058652	0.414280
H76	H	0.953413	0.126693	0.506849
C77	C	1.090507	-0.077038	0.474281
C78	C	1.017060	-0.092982	0.441942
H79	H	1.123247	-0.178573	0.475108
H80	H	1.116407	-0.010590	0.440204
H81	H	1.081687	-0.031142	0.529480
H82	H	1.025881	-0.138858	0.386741
H83	H	0.991163	-0.159441	0.476010
O84	O	1.043680	0.099959	0.609976
C85	C	1.089310	0.185894	0.559121
H86	H	1.082208	0.313416	0.585449
H87	H	1.067615	0.185443	0.493021
C88	C	1.186774	-0.048514	0.524958
C89	C	1.178057	0.108108	0.557299
H90	H	1.241517	-0.096498	0.523831
H91	H	1.156031	-0.106412	0.559218
H92	H	1.168690	-0.048868	0.469878
H93	H	1.196132	0.108458	0.612382
H94	H	1.208805	0.166005	0.523049
H95	H	0.702047	0.052465	0.000088
H96	H	0.322304	0.120586	0.000119
H97	H	0.555119	0.028324	0.000110
O98	O	1.034688	0.115717	0.782636
C99	C	1.017385	0.145206	0.869154
H100	H	0.951328	0.197580	0.881098
H101	H	1.055320	0.232646	0.893946
C102	C	1.117606	-0.075773	0.899366
C103	C	1.036471	-0.011459	0.914036
H104	H	1.129382	-0.172408	0.927054
H105	H	1.129266	-0.095638	0.841078
H106	H	1.149209	-0.002891	0.920026
H107	H	1.004870	-0.084332	0.893367
H108	H	1.024806	0.008390	0.972322
O109	O	0.800483	0.513919	0.782387
C110	C	0.751090	0.597911	0.725076
H111	H	0.757431	0.527170	0.662773
H112	H	0.769733	0.718137	0.715772
C113	C	0.655598	0.709699	0.835723
C114	C	0.663381	0.622807	0.759204
H115	H	0.601495	0.725063	0.856775
H116	H	0.688876	0.653117	0.874336
H117	H	0.671139	0.809877	0.827959
H118	H	0.647849	0.522624	0.766971
H119	H	0.630098	0.679373	0.720593
O120	O	0.777546	0.553164	0.217586
C121	C	0.815992	0.651823	0.167029
H122	H	0.881371	0.595336	0.153931
H123	H	0.812433	0.772739	0.200703
C124	C	0.694181	0.741936	0.100093
C125	C	0.774479	0.672551	0.084001
H126	H	0.668573	0.754730	0.048879
H127	H	0.668278	0.675473	0.134156
H128	H	0.691226	0.842692	0.128157
H129	H	0.777433	0.571790	0.055947
H130	H	0.800382	0.738999	0.049930
O131	O	0.480812	0.569789	0.000043
C132	C	0.518051	0.704968	0.000052
H133	H	0.582442	0.670084	-0.026243
H134	H	0.517610	0.756441	0.066666
C135	C	0.393259	0.873065	-0.022108
C136	C	0.472343	0.830222	-0.054411
H137	H	0.365063	0.950332	-0.055700
H138	H	0.368169	0.781994	-0.022111
H139	H	0.392903	0.915950	0.033403
H140	H	0.472699	0.787321	-0.109917
H141	H	0.497432	0.921290	-0.054419
H142	H	0.818650	0.483089	0.617077
