data_functionalizedCrystal
_audit_creation_method	'MofGen! by Chris Wilmer'
_symmetry_space_group_name_H-M	'P1'
_symmetry_Int_Tables_number	1
_symmetry_cell_setting	triclinic
loop_
_symmetry_equiv_pos_as_xyz
  x,y,z
_cell_length_a	15.944493
_cell_length_b	19.188905
_cell_length_c	15.021413
_cell_angle_alpha	89.985589
_cell_angle_beta	90.009890
_cell_angle_gamma	83.304801
loop_
_atom_site_label
_atom_site_type_symbol
_atom_site_fract_x
_atom_site_fract_y
_atom_site_fract_z
O1	O	0.104757	0.926413	-0.074167
O2	O	0.118897	0.723133	-0.074135
O3	O	-0.010473	0.830345	-0.074160
O4	O	0.234127	0.819201	-0.074143
O5	O	-0.010454	0.830328	0.073905
O6	O	0.118915	0.723116	0.073929
O7	O	0.104776	0.926395	0.073897
Zn8	Zn	0.111848	0.824753	0.097421
Zn9	Zn	0.111824	0.824775	-0.097660
O10	O	0.234145	0.819183	0.073921
C11	C	0.118451	0.697112	-0.000099
C12	C	0.117088	0.619603	-0.000088
C13	C	0.116422	0.583219	-0.080800
C14	C	0.115131	0.510392	-0.080811
C15	C	0.114489	0.473954	-0.000106
C16	C	0.115159	0.510347	0.080617
C17	C	0.116458	0.583171	0.080626
N18	N	0.064655	0.364807	0.059952
N19	N	0.063419	0.295627	0.059939
C20	C	0.110576	0.254538	-0.000127
N21	N	0.159005	0.285244	-0.060192
N22	N	0.160237	0.354431	-0.060181
C23	C	0.113080	0.394988	-0.000106
C24	C	0.108512	0.139187	-0.080857
C25	C	0.107226	0.066358	-0.080865
C26	C	0.107245	0.066315	0.080566
C27	C	0.108539	0.139141	0.080571
C28	C	0.109169	0.175573	-0.000143
C29	C	-0.041756	0.829881	-0.000131
C30	C	-0.135000	0.828515	-0.000142
C31	C	-0.371003	0.891623	-0.000135
C32	C	-0.421449	0.857600	-0.073133
C33	C	-0.305711	0.825985	-0.000131
C34	C	-0.421407	0.857568	0.072847
C35	C	-0.470611	0.823546	-0.000116
C36	C	-0.354929	0.791980	-0.073189
C37	C	-0.354883	0.791957	0.072856
C38	C	-0.405297	0.757886	-0.000159
C39	C	-0.210717	0.827392	-0.000140
C40	C	-0.565603	0.822133	-0.000113
C41	C	0.265429	0.819647	-0.000109
C42	C	0.358672	0.821013	-0.000104
C43	C	0.105221	0.952416	-0.000141
C44	C	0.106585	1.029925	-0.000159
N45	N	0.111865	0.824743	0.230559
N46	N	0.111801	0.824791	-0.230797
C47	C	0.171657	0.775160	0.470253
C48	C	0.187721	0.838248	0.529579
C49	C	0.111843	0.824761	0.412166
C50	C	0.095798	0.761690	0.529582
C51	C	0.111825	0.824772	0.587590
C52	C	0.127946	0.887880	0.470185
C53	C	0.035989	0.811280	0.470182
C54	C	0.052021	0.874414	0.529481
C55	C	0.111856	0.824753	0.311108
C56	C	0.111812	0.824787	0.688645
H57	H	0.117001	0.612795	0.146354
H58	H	-0.326010	0.764283	-0.134969
O59	O	-0.040433	0.797560	0.438917
C60	C	-0.029925	0.736483	0.386014
H61	H	0.037660	0.727801	0.360038
H62	H	-0.043282	0.689403	0.427777
C63	C	-0.174709	0.755755	0.338800
C64	C	-0.091701	0.745094	0.306890
H65	H	-0.212817	0.761064	0.289995
H66	H	-0.181789	0.796902	0.374445
H67	H	-0.185828	0.716519	0.373603
H68	H	-0.080580	0.784333	0.272098
H69	H	-0.084620	0.703953	0.271238
H70	H	0.082234	0.708347	0.555674
H71	H	-0.450509	0.885327	-0.134857
O72	O	-0.456093	0.890738	0.146379
C73	C	-0.515155	0.947478	0.120164
H74	H	-0.499724	0.964580	0.049945
H75	H	-0.581359	0.930569	0.121251
C76	C	-0.530037	0.988193	0.271160
C77	C	-0.511080	1.009202	0.184918
H78	H	-0.527527	1.026267	0.311105
H79	H	-0.490248	0.949965	0.288823
H80	H	-0.585206	0.974102	0.272053
H81	H	-0.455908	1.023284	0.184024
H82	H	-0.550859	1.047434	0.167257
H83	H	0.106727	0.036647	0.146278
H84	H	-0.325808	0.764254	0.134582
O85	O	0.117157	0.618669	-0.159148
C86	C	0.190654	0.652849	-0.163981
H87	H	0.215105	0.661100	-0.093901
H88	H	0.241077	0.619238	-0.203808
C89	C	0.139760	0.714311	-0.296200
C90	C	0.169789	0.724449	-0.210126
H91	H	0.126892	0.758475	-0.324668
H92	H	0.090246	0.691281	-0.292946
H93	H	0.181785	0.686299	-0.329377
H94	H	0.127761	0.752453	-0.176947
H95	H	0.219296	0.747485	-0.213376
H96	H	0.109033	0.168851	-0.146579
O97	O	0.232090	0.725257	0.439109
C98	C	0.289892	0.757194	0.386218
H99	H	0.258342	0.809602	0.360145
H100	H	0.347292	0.766306	0.428023
C101	C	0.356866	0.644610	0.339213
C102	C	0.318112	0.708975	0.307184
H103	H	0.374277	0.614866	0.290463
H104	H	0.317926	0.623092	0.374850
H105	H	0.404694	0.652212	0.374051
H106	H	0.270280	0.701373	0.272356
H107	H	0.357045	0.730491	0.271539
H108	H	0.114591	0.480763	-0.146539
H109	H	0.114638	0.480674	0.146328
O110	O	0.109137	0.174386	0.159056
C111	C	0.108314	0.126609	0.230289
H112	H	0.080799	0.077602	0.206619
H113	H	0.175553	0.111514	0.255111
C114	C	0.087552	0.221205	0.335614
C115	C	0.053750	0.161015	0.306545
H116	H	0.053898	0.242428	0.382655
H117	H	0.088109	0.253393	0.287624
H118	H	0.143583	0.208617	0.356293
H119	H	-0.002276	0.173605	0.285856
H120	H	0.053182	0.128830	0.354534
H121	H	0.106690	0.036735	-0.146593
O122	O	-0.423453	0.690375	-0.000349
C123	C	-0.389260	0.656038	-0.077403
H124	H	-0.380206	0.696588	-0.130966
H125	H	-0.325691	0.625250	-0.060678
C126	C	-0.461130	0.555541	-0.046024
C127	C	-0.450017	0.605345	-0.111814
H128	H	-0.498605	0.524269	-0.067249
H129	H	-0.484164	0.578673	0.005891
H130	H	-0.408151	0.529892	-0.032092
H131	H	-0.502993	0.630999	-0.125736
H132	H	-0.426992	0.582216	-0.163732
H133	H	-0.355592	0.948161	-0.000218
O134	O	0.264297	0.851746	0.560670
C135	C	0.327191	0.799335	0.530482
H136	H	0.297259	0.749802	0.513839
H137	H	0.358501	0.818653	0.468391
C138	C	0.430795	0.843740	0.624306
C139	C	0.394033	0.782899	0.603872
H140	H	0.472029	0.833603	0.669574
H141	H	0.388423	0.879051	0.644642
H142	H	0.456880	0.859832	0.572557
H143	H	0.367941	0.766813	0.655618
H144	H	0.436403	0.747584	0.583547
O145	O	0.144303	0.951467	0.439050
C146	C	0.144160	0.950681	0.345194
H147	H	0.157521	0.894265	0.320663
H148	H	0.079800	0.974580	0.319730
C149	C	0.196483	1.063040	0.340333
C150	C	0.212901	0.993749	0.310204
H151	H	0.238882	1.089608	0.318748
H152	H	0.196577	1.063571	0.403565
H153	H	0.142848	1.082946	0.319111
H154	H	0.266529	0.973841	0.331435
H155	H	0.212817	0.993215	0.246974
H156	H	0.001428	0.916410	0.555324
