data_functionalizedCrystal
_audit_creation_method	'MofGen! by Chris Wilmer'
_symmetry_space_group_name_H-M	'P1'
_symmetry_Int_Tables_number	1
_symmetry_cell_setting	triclinic
loop_
_symmetry_equiv_pos_as_xyz
  x,y,z
_cell_length_a	19.077105
_cell_length_b	21.295418
_cell_length_c	19.076919
_cell_angle_alpha	87.731568
_cell_angle_beta	89.923776
_cell_angle_gamma	87.723635
loop_
_atom_site_label
_atom_site_type_symbol
_atom_site_fract_x
_atom_site_fract_y
_atom_site_fract_z
Zn1	Zn	1.058254	-0.304535	0.440398
Zn2	Zn	1.558254	0.195465	0.940398
Zn3	Zn	1.062888	-0.405749	0.322885
Zn4	Zn	1.562888	0.094251	0.822885
Zn5	Zn	0.945472	-0.296103	0.318192
Zn6	Zn	1.445472	0.203897	0.818192
Zn7	Zn	0.940710	-0.405369	0.435637
Zn8	Zn	1.440710	0.094631	0.935637
O9	O	1.001831	-0.352939	0.379278
O10	O	1.501831	0.147061	0.879278
O11	O	1.157200	-0.321650	0.428766
O12	O	1.657200	0.178350	0.928766
O13	O	1.051245	-0.387834	0.223931
O14	O	1.551245	0.112166	0.723931
O15	O	0.960486	-0.209135	0.334431
O16	O	1.460486	0.290865	0.834431
O17	O	1.160605	-0.396011	0.342429
O18	O	1.660605	0.103989	0.842429
O19	O	1.043346	-0.215330	0.424216
O20	O	1.543346	0.284670	0.924216
O21	O	0.964980	-0.307277	0.220483
O22	O	1.464980	0.192723	0.720483
O23	O	0.846509	-0.306909	0.329815
O24	O	1.346509	0.193091	0.829815
O25	O	0.952370	-0.395364	0.534600
O26	O	1.452370	0.104636	1.034600
O27	O	0.843010	-0.387187	0.416101
O28	O	1.343010	0.112813	0.916101
O29	O	1.038729	-0.321282	0.538097
O30	O	1.538729	0.178718	1.038097
O31	O	1.046627	-0.493785	0.337813
O32	O	1.546627	0.006215	0.837813
O33	O	0.956863	-0.493506	0.420652
O34	O	1.456863	0.006494	0.920652
C35	C	0.819263	-0.346092	0.371933
C36	C	1.319263	0.153908	0.871933
C37	C	0.741159	-0.343179	0.368807
C38	C	1.241159	0.156821	0.868807
C39	C	0.702665	-0.383665	0.412193
C40	C	1.202665	0.116335	0.912193
C41	C	0.629278	-0.380919	0.409259
C42	C	1.129278	0.119081	0.909259
C43	C	0.594386	-0.337690	0.362936
C44	C	1.094386	0.162310	0.862936
C45	C	0.632885	-0.297200	0.319549
C46	C	1.132885	0.202800	0.819549
C47	C	0.706271	-0.299943	0.322486
C48	C	1.206271	0.200057	0.822486
C49	C	0.375100	-0.324995	0.349344
C50	C	0.875100	0.175005	0.849344
C51	C	0.301709	-0.322257	0.346409
C52	C	0.801709	0.177743	0.846409
C53	C	0.298107	-0.405975	0.436121
C54	C	0.798107	0.094025	0.936121
C55	C	0.371494	-0.408717	0.439051
C56	C	0.871494	0.091283	0.939051
C57	C	0.409986	-0.368225	0.395666
C58	C	0.909986	0.131775	0.895666
N59	N	0.519373	-0.334884	0.359935
N60	N	1.019373	0.165116	0.859935
N61	N	0.484998	-0.371028	0.398671
N62	N	0.984998	0.128972	0.898671
C63	C	1.001750	-0.516486	0.379241
C64	C	1.501750	-0.016486	0.879241
C65	C	1.001779	-0.586456	0.379251
C66	C	1.501779	-0.086456	0.879251
C67	C	1.048735	-1.086051	0.336264
C68	C	1.548735	-0.586051	0.836264
C69	C	1.048709	-1.020307	0.336246
C70	C	1.548709	-0.520307	0.836246
C71	C	1.001928	-0.987304	0.379331
C72	C	1.501928	-0.487304	0.879331
C73	C	0.955157	-1.020049	0.422424
C74	C	1.455157	-0.520049	0.922424
C75	C	0.955180	-1.085791	0.422435
C76	C	1.455180	-0.585791	0.922435
N77	N	0.993992	-0.885967	0.440598
N78	N	1.493992	-0.385967	0.940598
N79	N	0.993974	-0.823515	0.440586
N80	N	1.493974	-0.323515	0.940586
C81	C	1.001856	-0.789225	0.379299
C82	C	1.501856	-0.289225	0.879299
N83	N	1.009769	-0.819748	0.318024
N84	N	1.509769	-0.319748	0.818024
N85	N	1.009790	-0.882206	0.318037
N86	N	1.509790	-0.382206	0.818037
C87	C	1.001898	-0.916017	0.379323
C88	C	1.501898	-0.416017	0.879323
C89	C	1.048592	-0.685201	0.336186
C90	C	1.548592	-0.185201	0.836186
C91	C	1.048561	-0.619455	0.336167
C92	C	1.548561	-0.119455	0.836167
C93	C	0.955013	-0.619198	0.422351
C94	C	1.455013	-0.119198	0.922351
C95	C	0.955040	-0.684942	0.422364
C96	C	1.455040	-0.184942	0.922364
C97	C	1.001834	-0.717939	0.379282
C98	C	1.501834	-0.217939	0.879282
C99	C	1.185112	-0.359813	0.386652
C100	C	1.685112	0.140187	0.886652
C101	C	1.263215	-0.362742	0.389794
C102	C	1.763215	0.137258	0.889794
C103	C	0.994501	-0.359221	0.562558
C104	C	1.494501	0.140779	1.062558
C105	C	0.991377	-0.361898	0.640661
C106	C	1.491377	0.138102	1.140661
C107	C	1.001931	-0.188754	0.379331
C108	C	1.501931	0.311246	0.879331
C109	C	1.001973	-0.118788	0.379354
C110	C	1.501973	0.381212	0.879354
C111	C	1.009173	-0.346638	0.196713
C112	C	1.509173	0.153362	0.696713
C113	C	1.012432	-0.343789	0.118616
C114	C	1.512432	0.156211	0.618616
C115	C	1.034870	-0.324587	0.679176
C116	C	1.534870	0.175413	1.179176
C117	C	1.031927	-0.327099	0.752561
C118	C	1.531927	0.172901	1.252561
C119	C	0.985494	-0.366927	0.787431
C120	C	1.485494	0.133073	1.287431
C121	C	0.941996	-0.404239	0.748910
C122	C	1.441996	0.095761	1.248910
C123	C	0.944937	-0.401723	0.675526
C124	C	1.444937	0.098277	1.175526
C125	C	0.971875	-0.378585	1.006711
C126	C	1.471875	0.121415	1.506711
C127	C	0.968939	-0.381100	1.080101
C128	C	1.468939	0.118900	1.580101
C129	C	1.058870	-0.303959	1.083747
C130	C	1.558870	0.196041	1.583747
C131	C	1.061809	-0.301449	1.010361
C132	C	1.561809	0.198551	1.510361
C133	C	1.018309	-0.338759	0.971847
C134	C	1.518309	0.161241	1.471847
N135	N	0.982485	-0.369497	0.862443
N136	N	1.482485	0.130503	1.362443
N137	N	1.021314	-0.336184	0.896836
N138	N	1.521314	0.163816	1.396836
H139	H	0.399898	-0.443920	0.476771
H140	H	0.899898	0.056080	0.976771
H141	H	1.099622	-0.269019	0.981975
H142	H	1.599622	0.230981	1.481975
H143	H	0.931126	-0.413534	1.108489
H144	H	1.431126	0.086466	1.608489
F145	F	0.925578	-0.418294	0.965731
F146	F	1.425578	0.081706	1.465731
F147	F	0.257135	-0.449068	0.482289
F148	F	0.757135	0.050932	0.982289
H149	H	1.086836	-1.112913	0.301181
H150	H	1.586836	-0.612913	0.801181
H151	H	0.917066	-0.993174	0.457503
H152	H	1.417066	-0.493174	0.957503
H153	H	0.917100	-1.112445	0.457526
H154	H	1.417100	-0.612445	0.957526
H155	H	1.067345	-0.296718	0.783917
H156	H	1.567345	0.203282	1.283917
H157	H	0.916920	-0.592327	0.457429
H158	H	1.416920	-0.092327	0.957429
F159	F	0.892575	-0.446624	0.786023
F160	F	1.392575	0.053376	1.286023
H161	H	1.094284	-0.273582	1.115112
H162	H	1.594284	0.226418	1.615112
H163	H	0.909513	-0.432099	0.644167
H164	H	1.409513	0.067901	1.144167
F165	F	1.098389	-0.720321	0.290332
F166	F	1.598389	-0.220321	0.790332
F167	F	0.416057	-0.281898	0.303172
F168	F	0.916057	0.218102	0.803172
F169	F	0.739793	-0.429678	0.461493
F170	F	1.239793	0.070322	0.961493
H171	H	1.086789	-0.993647	0.301156
H172	H	1.586789	-0.493647	0.801156
F173	F	0.747238	-0.256851	0.276310
F174	F	1.247238	0.243149	0.776310
H175	H	1.072683	-0.292157	0.650790
H176	H	1.572683	0.207843	1.150790
F177	F	0.905275	-0.719785	0.468233
F178	F	1.405275	-0.219785	0.968233
F179	F	0.264576	-0.276248	0.297099
F180	F	0.764576	0.223752	0.797099
F181	F	0.588313	-0.424009	0.455437
F182	F	1.088313	0.075991	0.955437
F183	F	0.595749	-0.251189	0.270252
F184	F	1.095749	0.248811	0.770252
H185	H	1.086638	-0.592800	0.301074
H186	H	1.586638	-0.092800	0.801074
