data_functionalizedCrystal
_audit_creation_method	'MofGen! by Chris Wilmer'
_symmetry_space_group_name_H-M	'P1'
_symmetry_Int_Tables_number	1
_symmetry_cell_setting	triclinic
loop_
_symmetry_equiv_pos_as_xyz
  x,y,z
_cell_length_a	19.077068
_cell_length_b	19.077220
_cell_length_c	19.076919
_cell_angle_alpha	90.116798
_cell_angle_beta	94.470751
_cell_angle_gamma	85.293229
loop_
_atom_site_label
_atom_site_type_symbol
_atom_site_fract_x
_atom_site_fract_y
_atom_site_fract_z
Zn1	Zn	-0.256354	-1.047582	-0.450469
Zn2	Zn	-0.369511	-1.047495	-0.337310
Zn3	Zn	-0.255980	-0.934813	-0.328226
Zn4	Zn	-0.378926	-0.924921	-0.450401
O5	O	-0.315193	-0.988702	-0.391601
O6	O	-0.267581	-1.146062	-0.439288
O7	O	-0.350354	-1.036651	-0.237617
O8	O	-0.157219	-0.953948	-0.340669
O9	O	-0.350717	-1.145998	-0.356151
O10	O	-0.157494	-1.036799	-0.430480
O11	O	-0.266943	-0.953864	-0.230943
O12	O	-0.276072	-0.835009	-0.340603
O13	O	-0.366764	-0.937088	-0.548898
O14	O	-0.366401	-0.827741	-0.430364
O15	O	-0.276711	-1.027207	-0.548948
O16	O	-0.469570	-1.027058	-0.356085
O17	O	-0.476487	-0.937004	-0.439172
C18	C	-0.322218	-0.805837	-0.384491
C19	C	-0.325241	-0.727605	-0.381466
C20	C	-0.346899	-0.287238	-0.359809
C21	C	-0.344054	-0.360745	-0.362645
C22	C	-0.299424	-0.397528	-0.407425
C23	C	-0.257631	-0.360800	-0.449365
C24	C	-0.260473	-0.287294	-0.446525
C25	C	-0.286290	-0.617371	-0.420566
C26	C	-0.283453	-0.690882	-0.423405
C27	C	-0.369875	-0.690822	-0.336684
C28	C	-0.372716	-0.617315	-0.333850
C29	C	-0.330920	-0.580593	-0.375788
N30	N	-0.296517	-0.472665	-0.410327
N31	N	-0.333824	-0.505458	-0.372882
C32	C	-0.498649	-0.980967	-0.398623
C33	C	-0.577131	-0.977721	-0.401653
C34	C	-0.610377	-1.023116	-0.359856
C35	C	-0.684119	-1.020067	-0.362710
C36	C	-0.724614	-0.971619	-0.407358
C37	C	-0.691363	-0.926222	-0.449160
C38	C	-0.617622	-0.929275	-0.446309
C39	C	-0.945545	-0.957460	-0.420522
C40	C	-1.019291	-0.954409	-0.423368
C41	C	-1.012042	-1.048255	-0.336919
C42	C	-0.938300	-1.051301	-0.334069
C43	C	-0.905055	-1.005907	-0.375874
N44	N	-0.799990	-0.968500	-0.410275
N45	N	-0.829680	-1.009030	-0.372960
C46	C	-0.131020	-0.996487	-0.384568
C47	C	-0.052537	-0.999804	-0.381571
C48	C	-0.322829	-0.981054	-0.575173
C49	C	-0.326084	-0.977794	-0.653401
C50	C	-0.308134	-0.172282	-0.398731
C51	C	-0.305110	-0.250515	-0.401748
C52	C	-0.280729	-1.023181	-0.690180
C53	C	-0.283784	-1.020110	-0.763682
C54	C	-0.332198	-0.971655	-0.800405
C55	C	-0.377555	-0.926264	-0.763621
C56	C	-0.374496	-0.929332	-0.690120
C57	C	-0.346372	-0.957445	-1.020228
C58	C	-0.349430	-0.954382	-1.093735
C59	C	-0.255657	-1.048227	-1.093791
C60	C	-0.252605	-1.051293	-1.020288
C61	C	-0.297960	-1.005900	-0.983510
N62	N	-0.335324	-0.968517	-0.875537
N63	N	-0.294830	-1.009036	-0.908380
C64	C	-0.307533	-0.996364	-0.208743
C65	C	-0.304075	-0.999768	-0.130514
H66	H	-0.378082	-0.390642	-0.328493
H67	H	-0.213183	-1.090752	-0.990393
H68	H	-0.221290	-0.390755	-0.485823
H69	H	-0.226442	-0.257396	-0.480674
H70	H	-0.388856	-0.914922	-1.123633
H71	H	-0.383245	-0.257294	-0.323348
Cl72	Cl	-0.428803	-0.571080	-0.277533
H73	H	-1.039118	-1.085214	-0.302886
Cl74	Cl	-0.198642	-1.105286	-1.140029
H75	H	-0.403903	-0.720729	-0.302540
H76	H	-0.383313	-0.920492	-0.990293
H77	H	-0.416973	-0.886809	-0.793527
H78	H	-0.411422	-0.892367	-0.660175
H79	H	-0.724340	-0.886777	-0.485516
Cl80	Cl	-0.887397	-1.112219	-0.277949
H81	H	-0.247105	-0.720829	-0.459869
H82	H	-0.252260	-0.587481	-0.454719
H83	H	-0.577411	-1.062564	-0.323496
Cl84	Cl	-0.219865	-1.084101	-0.644021
Cl85	Cl	-1.070198	-0.893490	-0.479492
Cl86	Cl	-0.725911	-1.077140	-0.310165
Cl87	Cl	-0.575827	-0.872206	-0.498858
Cl88	Cl	-0.903761	-0.900391	-0.473076
H89	H	-0.246853	-1.057070	-0.793624
