data_functionalizedCrystal
_audit_creation_method	'MofGen! by Chris Wilmer'
_symmetry_space_group_name_H-M	'P1'
_symmetry_Int_Tables_number	1
_symmetry_cell_setting	triclinic
loop_
_symmetry_equiv_pos_as_xyz
  x,y,z
_cell_length_a	29.839131
_cell_length_b	12.759401
_cell_length_c	12.759386
_cell_angle_alpha	90.042481
_cell_angle_beta	89.929750
_cell_angle_gamma	89.960491
loop_
_atom_site_label
_atom_site_type_symbol
_atom_site_fract_x
_atom_site_fract_y
_atom_site_fract_z
Zn1	Zn	-0.178706	-1.606288	-0.593994
Zn2	Zn	-0.253887	-1.606033	-0.418295
Zn3	Zn	-0.178769	-1.430522	-0.418327
Zn4	Zn	-0.253807	-1.430496	-0.593930
O5	O	-0.216293	-1.518335	-0.506137
O6	O	-0.188686	-1.753275	-0.570701
O7	O	-0.243982	-1.582655	-0.271278
O8	O	-0.115894	-1.453955	-0.441670
O9	O	-0.243921	-1.753088	-0.441615
O10	O	-0.115847	-1.583089	-0.570732
O11	O	-0.188794	-1.453708	-0.271302
O12	O	-0.188717	-1.283498	-0.441608
O13	O	-0.243785	-1.453911	-0.740960
O14	O	-0.243847	-1.283479	-0.570623
O15	O	-0.188609	-1.583064	-0.741007
O16	O	-0.316744	-1.582630	-0.441553
O17	O	-0.316685	-1.453664	-0.570591
C18	C	-0.216280	-1.245367	-0.506113
C19	C	-0.216286	-1.128591	-0.506127
C20	C	-0.245040	-0.964021	-0.573214
C21	C	-0.245036	-1.073745	-0.573199
C22	C	-0.187541	-1.073706	-0.439058
C23	C	-0.187547	-0.963984	-0.439068
C24	C	-0.273790	-0.909182	-0.640298
C25	C	-0.302535	-0.964058	-0.707367
C26	C	-0.302531	-1.073782	-0.707352
C27	C	-0.273781	-1.128630	-0.640269
C28	C	-0.333015	-1.518145	-0.506085
C29	C	-0.382950	-1.518160	-0.506097
C30	C	-0.692611	-1.585609	-0.439045
C31	C	-0.880284	-1.585739	-0.439085
O32	O	-0.904564	-1.642937	-0.382034
N33	N	-0.903735	-1.518553	-0.506216
C34	C	-0.880264	-1.451334	-0.573346
O35	O	-0.904517	-1.394198	-0.630453
C36	C	-0.692592	-1.451210	-0.573310
C37	C	-0.669144	-1.518393	-0.506167
C38	C	-0.669162	-1.652788	-0.371908
C39	C	-0.622247	-1.652751	-0.371895
C40	C	-0.598780	-1.585535	-0.439017
C41	C	-0.622228	-1.518356	-0.506154
C42	C	-0.669123	-1.383997	-0.640444
C43	C	-0.622202	-1.383974	-0.640431
C44	C	-0.598753	-1.451158	-0.573289
C45	C	-0.551846	-1.451103	-0.573263
N46	N	-0.528395	-1.518290	-0.506132
C47	C	-0.551862	-1.585506	-0.439010
C48	C	-0.978795	-1.451402	-0.573359
C49	C	-1.025713	-1.451431	-0.573367
C50	C	-1.025729	-1.585838	-0.439107
C51	C	-0.978810	-1.585803	-0.439095
C52	C	-0.955344	-1.518588	-0.506228
C53	C	-0.453336	-1.585422	-0.438985
C54	C	-0.406417	-1.585376	-0.438975
C55	C	-0.406404	-1.450973	-0.573238
C56	C	-0.453320	-1.451015	-0.573245
C57	C	-0.476785	-1.518248	-0.506115
O58	O	-0.527537	-1.393944	-0.630292
O59	O	-0.527601	-1.642649	-0.381927
C60	C	-0.739526	-1.585647	-0.439058
C61	C	-0.762975	-1.518468	-0.506194
C62	C	-0.739508	-1.451252	-0.573317
C63	C	-0.809892	-1.518497	-0.506202
C64	C	-0.833359	-1.585713	-0.439080
C65	C	-0.809909	-1.652900	-0.371949
C66	C	-0.762993	-1.652862	-0.371935
C67	C	-0.762958	-1.384065	-0.640448
C68	C	-0.809874	-1.384107	-0.640455
C69	C	-0.833341	-1.451323	-0.573332
C70	C	-0.099114	-1.518554	-0.506212
C71	C	-0.049180	-1.518647	-0.506244
C72	C	-0.216181	-1.518513	-0.780171
C73	C	-0.216134	-1.518589	-0.896947
C74	C	-0.216302	-0.792368	-0.506157
C75	C	-0.216297	-0.909145	-0.506152
C76	C	-0.216371	-1.518217	-0.233169
C77	C	-0.216292	-1.518345	-0.116393
C78	C	-0.244775	-1.586031	-0.061466
C79	C	-0.244697	-1.586151	0.048258
C80	C	-0.187649	-1.450896	0.048118
C81	C	-0.187730	-1.450772	-0.061604
C82	C	-0.273337	-1.653604	-0.116255
C83	C	-0.301822	-1.721296	-0.061328
C84	C	-0.301744	-1.721416	0.048395
C85	C	-0.273181	-1.653844	0.103192
H86	H	-0.273783	-1.217974	-0.640256
H87	H	-0.273795	-0.819839	-0.640320
H88	H	-0.387290	-1.396243	-0.627885
H89	H	-0.273125	-1.653935	0.192537
C90	C	-0.333242	-1.795619	-0.121599
C91	C	-0.333329	-1.795494	-0.242288
C92	C	-0.364750	-1.869818	-0.302556
C93	C	-0.396083	-1.944267	-0.242135
C94	C	-0.395997	-1.944395	-0.121439
C95	C	-0.364576	-1.870071	-0.061171
H96	H	-0.310133	-1.740380	-0.287022
H97	H	-0.364813	-1.869723	-0.391904
H98	H	-0.419342	-1.999287	-0.286749
H99	H	-0.419192	-1.999509	-0.076705
H100	H	-0.364512	-1.870166	0.028177
C101	C	-0.835728	-1.726840	-0.298114
C102	C	-0.829225	-1.846271	-0.306797
C103	C	-0.855047	-1.920212	-0.232971
C104	C	-0.887372	-1.874722	-0.150463
C105	C	-0.893876	-1.755285	-0.141776
C106	C	-0.868055	-1.681344	-0.215602
H107	H	-0.805295	-1.879951	-0.367878
H108	H	-0.850231	-2.008627	-0.239402
H109	H	-0.906487	-1.929457	-0.095812
H110	H	-0.917807	-1.721605	-0.080695
H111	H	-0.872870	-1.592928	-0.209171
H112	H	-0.164394	-1.395883	0.092742
C113	C	-0.737150	-1.310119	-0.714287
C114	C	-0.743665	-1.190692	-0.705599
C115	C	-0.717860	-1.116736	-0.779441
C116	C	-0.685540	-1.162207	-0.861971
C117	C	-0.679024	-1.281640	-0.870663
C118	C	-0.704829	-1.355596	-0.796821
H119	H	-0.767591	-1.157026	-0.644502
H120	H	-0.722684	-1.028323	-0.773007
H121	H	-0.666437	-1.107460	-0.916634
H122	H	-0.655097	-1.315306	-0.931760
H123	H	-0.700005	-1.444009	-0.803256
C124	C	-0.156397	-1.376320	-0.122029
C125	C	-0.121044	-1.421223	-0.197792
C126	C	-0.089712	-1.346765	-0.258216
C127	C	-0.093733	-1.227404	-0.242878
C128	C	-0.129087	-1.182495	-0.167112
C129	C	-0.160419	-1.256953	-0.106687
H130	H	-0.118067	-1.509586	-0.209149
H131	H	-0.063541	-1.380011	-0.314303
H132	H	-0.070539	-1.172286	-0.287608
H133	H	-0.132065	-1.094131	-0.155755
H134	H	-0.186591	-1.223707	-0.050600
H135	H	-0.325945	-0.919395	-0.761977
C136	C	-0.334151	-1.134149	-0.781121
C137	C	-0.365772	-1.073823	-0.854907
C138	C	-0.397391	-1.134187	-0.928683
C139	C	-0.397389	-1.254877	-0.928673
C140	C	-0.365766	-1.315210	-0.854885
C141	C	-0.334147	-1.254846	-0.781108
H142	H	-0.365776	-0.984475	-0.854917
H143	H	-0.420801	-1.089524	-0.983307
H144	H	-0.420795	-1.299562	-0.983287
H145	H	-0.365763	-1.404558	-0.854875
H146	H	-0.310738	-1.299509	-0.726485
C147	C	-0.479114	-1.377112	-0.647102
C148	C	-0.511295	-1.422658	-0.729644
C149	C	-0.537084	-1.348764	-0.803514
C150	C	-0.530692	-1.229323	-0.794842
C151	C	-0.498509	-1.183770	-0.712297
C152	C	-0.472720	-1.257665	-0.638427
H153	H	-0.516029	-1.511081	-0.736067
H154	H	-0.560908	-1.382485	-0.864620
H155	H	-0.549782	-1.174622	-0.849525
H156	H	-0.493776	-1.095347	-0.705874
H157	H	-0.448896	-1.223943	-0.577321
H158	H	-0.164133	-1.118372	-0.384443
C159	C	-0.835663	-1.310196	-0.714317
C160	C	-0.867980	-1.227734	-0.668745
C161	C	-0.893767	-1.153832	-0.742612
C162	C	-0.887237	-1.162394	-0.862051
C163	C	-0.854919	-1.244860	-0.907630
C164	C	-0.829132	-1.318761	-0.833763
H165	H	-0.872815	-1.221393	-0.580323
H166	H	-0.917691	-1.092785	-0.708871
H167	H	-0.906326	-1.107687	-0.916732
H168	H	-0.850084	-1.251201	-0.996052
H169	H	-0.805208	-1.379808	-0.867504
C170	C	-0.155924	-0.903611	-0.365314
C171	C	-0.124293	-0.963928	-0.291542
C172	C	-0.092668	-0.903554	-0.217788
C173	C	-0.092673	-0.782864	-0.217806
C174	C	-0.124306	-0.722541	-0.291581
C175	C	-0.155931	-0.782915	-0.365335
H176	H	-0.124287	-1.053276	-0.291526
H177	H	-0.069251	-0.948210	-0.163175
H178	H	-0.069263	-0.738172	-0.163209
H179	H	-0.124311	-0.633193	-0.291596
H180	H	-0.179347	-0.738259	-0.419948
H181	H	-0.387326	-1.640084	-0.384296
H182	H	-0.273403	-1.653516	-0.205598
C183	C	-0.479143	-1.659371	-0.365137
C184	C	-0.472758	-1.650797	-0.245694
C185	C	-0.498565	-1.724738	-0.171840
C186	C	-0.530757	-1.807253	-0.217429
C187	C	-0.537143	-1.815830	-0.336878
C188	C	-0.511336	-1.741889	-0.410732
H189	H	-0.448927	-1.589712	-0.211941
H190	H	-0.493838	-1.718388	-0.083416
H191	H	-0.549861	-1.861988	-0.162758
H192	H	-0.560975	-1.876915	-0.370632
H193	H	-0.516064	-1.748238	-0.499157
H194	H	-0.688264	-1.707529	-0.317249
H195	H	-0.324941	-1.776528	0.093114
H196	H	-0.603158	-1.707461	-0.317225
H197	H	-0.959721	-1.640510	-0.384422
C198	C	-1.051502	-1.377519	-0.647216
C199	C	-1.045101	-1.258081	-0.638537
C200	C	-1.070888	-1.184171	-0.712394
C201	C	-1.103077	-1.229699	-0.794931
C202	C	-1.109480	-1.349142	-0.803614
C203	C	-1.083692	-1.423053	-0.729757
H204	H	-1.021271	-1.224374	-0.577435
H205	H	-1.066148	-1.095751	-0.705966
H206	H	-1.122166	-1.174986	-0.849605
H207	H	-1.133309	-1.382850	-0.864716
H208	H	-1.088432	-1.511473	-0.736185
C209	C	-0.737205	-1.726773	-0.298082
C210	C	-0.743734	-1.718227	-0.178641
C211	C	-0.717949	-1.792143	-0.104785
C212	C	-0.685636	-1.874606	-0.150369
C213	C	-0.679105	-1.883156	-0.269816
C214	C	-0.704890	-1.809239	-0.343673
H215	H	-0.767655	-1.657179	-0.144891
H216	H	-0.722784	-1.785814	-0.016362
H217	H	-0.666548	-1.929324	-0.095696
H218	H	-0.655183	-1.944203	-0.303566
H219	H	-0.700055	-1.815569	-0.432095
H220	H	-1.044844	-1.640569	-0.384453
H221	H	-0.959692	-1.396665	-0.628028
H222	H	-0.688206	-1.329284	-0.695114
H223	H	-0.603098	-1.329241	-0.695103
