data_functionalizedCrystal
_audit_creation_method	'MofGen! by Chris Wilmer'
_symmetry_space_group_name_H-M	'P1'
_symmetry_Int_Tables_number	1
_symmetry_cell_setting	triclinic
loop_
_symmetry_equiv_pos_as_xyz
  x,y,z
_cell_length_a	12.759401
_cell_length_b	21.295417
_cell_length_c	12.759393
_cell_angle_alpha	89.960626
_cell_angle_beta	89.982620
_cell_angle_gamma	90.030668
loop_
_atom_site_label
_atom_site_type_symbol
_atom_site_fract_x
_atom_site_fract_y
_atom_site_fract_z
Zn1	Zn	1.606128	-0.250568	-0.593926
Zn2	Zn	2.106128	0.249432	-0.093926
Zn3	Zn	1.605978	-0.355853	-0.418223
Zn4	Zn	2.105978	0.144147	0.081777
Zn5	Zn	1.430434	-0.250601	-0.418265
Zn6	Zn	1.930434	0.249399	0.081735
Zn7	Zn	1.430371	-0.355804	-0.593864
Zn8	Zn	1.930371	0.144196	-0.093864
O9	O	1.518228	-0.303206	-0.506069
O10	O	2.018228	0.196794	-0.006069
O11	O	1.753129	-0.264541	-0.570626
O12	O	2.253129	0.235459	-0.070626
O13	O	1.582655	-0.341925	-0.271207
O14	O	2.082655	0.158075	0.228793
O15	O	1.453830	-0.162508	-0.441611
O16	O	1.953830	0.337492	0.058389
O17	O	1.753019	-0.341893	-0.441538
O18	O	2.253019	0.158107	0.058462
O19	O	1.582912	-0.162483	-0.570668
O20	O	2.082912	0.337517	-0.070668
O21	O	1.453683	-0.264598	-0.271238
O22	O	1.953683	0.235402	0.228762
O23	O	1.283404	-0.264550	-0.441551
O24	O	1.783404	0.235450	0.058449
O25	O	1.453722	-0.341810	-0.740893
O26	O	1.953722	0.158190	-0.240893
O27	O	1.283358	-0.341842	-0.570562
O28	O	1.783358	0.158158	-0.070562
O29	O	1.582850	-0.264493	-0.740939
O30	O	2.082850	0.235507	-0.240939
O31	O	1.582593	-0.443935	-0.441478
O32	O	2.082593	0.056065	0.058522
O33	O	1.453576	-0.443900	-0.570521
O34	O	1.953576	0.056100	-0.070521
C35	C	1.245260	-0.303195	-0.506055
C36	C	1.745260	0.196805	-0.006055
C37	C	1.128484	-0.303205	-0.506074
C38	C	1.628484	0.196795	-0.006074
C39	C	1.073625	-0.343515	-0.573139
C40	C	1.573625	0.156485	-0.073139
C41	C	0.963901	-0.343523	-0.573151
C42	C	1.463901	0.156477	-0.073151
C43	C	0.963904	-0.262909	-0.439022
C44	C	1.463904	0.237091	0.060978
C45	C	1.073626	-0.262898	-0.439017
C46	C	1.573626	0.237102	0.060983
C47	C	1.128483	-0.383822	-0.640196
C48	C	1.628483	0.116178	-0.140196
C49	C	1.073624	-0.424136	-0.707266
C50	C	1.573624	0.075864	-0.207266
C51	C	0.963900	-0.424144	-0.707277
C52	C	1.463900	0.075856	-0.207277
C53	C	0.909034	-0.383838	-0.640219
C54	C	1.409034	0.116162	-0.140219
C55	C	1.518090	-0.466758	-0.506011
C56	C	2.018090	0.033242	-0.006011
C57	C	1.518127	-0.536726	-0.506021
C58	C	2.018127	-0.036726	-0.006021
C59	C	1.585366	-0.569591	-0.438898
C60	C	2.085366	-0.069591	0.061102
C61	C	1.585416	-0.635333	-0.438921
C62	C	2.085416	-0.135333	0.061079
C63	C	1.518207	-0.668209	-0.506058
C64	C	2.018207	-0.168209	-0.006058
C65	C	1.450963	-0.635336	-0.573195
C66	C	1.950963	-0.135336	-0.073195
C67	C	1.450923	-0.569595	-0.573177
C68	C	1.950923	-0.069595	-0.073177
N69	N	1.426299	-0.771474	-0.514062
N70	N	1.926299	-0.271474	-0.014062
N71	N	1.426340	-0.833925	-0.514073
N72	N	1.926340	-0.333925	-0.014073
C73	C	1.518324	-0.866283	-0.506118
C74	C	2.018324	-0.366283	-0.006118
N75	N	1.610268	-0.833831	-0.498130
N76	N	2.110268	-0.333831	0.001870
N77	N	1.610226	-0.771373	-0.498114
N78	N	2.110226	-0.271373	0.001886
C79	C	1.518243	-0.739494	-0.506085
C80	C	2.018243	-0.239494	-0.006085
C81	C	1.585623	-0.970433	-0.439016
C82	C	2.085623	-0.470433	0.060984
C83	C	1.585674	-1.036177	-0.439047
C84	C	2.085674	-0.536177	0.060953
C85	C	1.451212	-1.036179	-0.573315
C86	C	1.951212	-0.536179	-0.073315
C87	C	1.451170	-0.970437	-0.573289
C88	C	1.951170	-0.470437	-0.073289
C89	C	1.518374	-0.937568	-0.506134
C90	C	2.018374	-0.437568	-0.006134
C91	C	1.792261	-0.303219	-0.506084
C92	C	2.292261	0.196781	-0.006084
C93	C	1.909037	-0.303224	-0.506091
C94	C	2.409037	0.196776	-0.006091
C95	C	1.518296	-0.303142	-0.780103
C96	C	2.018296	0.196858	-0.280103
C97	C	1.518325	-0.303115	-0.896880
C98	C	2.018325	0.196885	-0.396880
C99	C	1.518395	-0.139016	-0.506151
C100	C	2.018395	0.360984	-0.006151
C101	C	1.518466	-0.069048	-0.506185
C102	C	2.018466	0.430952	-0.006185
C103	C	1.451198	-0.262843	-0.951764
C104	C	1.951198	0.237157	-0.451764
C105	C	1.451230	-0.262824	-1.061488
C106	C	1.951230	0.237176	-0.561488
C107	C	1.585524	-0.343351	-1.061434
C108	C	2.085524	0.156649	-0.561434
C109	C	1.585487	-0.343373	-0.951712
C110	C	2.085487	0.156627	-0.451712
C111	C	1.384036	-0.222586	-0.896932
C112	C	1.884036	0.277414	-0.396932
C113	C	1.316905	-0.182310	-0.951816
C114	C	1.816905	0.317690	-0.451816
C115	C	1.316937	-0.182291	-1.061541
C116	C	1.816937	0.317709	-0.561541
C117	C	1.384100	-0.222548	-1.116380
C118	C	1.884100	0.277452	-0.616380
C119	C	1.518220	-0.303225	-0.233102
C120	C	2.018220	0.196775	0.266898
C121	C	1.518395	-0.303075	-0.116326
C122	C	2.018395	0.196925	0.383674
H123	H	0.819690	-0.383842	-0.640243
H124	H	1.319690	0.116158	-0.140243
H125	H	1.640208	-0.376125	-1.106093
H126	H	2.140208	0.123875	-0.606093
Br127	Br	1.360009	-1.080789	-0.664442
Br128	Br	1.860009	-0.580789	-0.164442
H129	H	1.640174	-0.662097	-0.384261
H130	H	2.140174	-0.162097	0.115739
Br131	Br	1.359758	-0.679951	-0.664317
Br132	Br	1.859758	-0.179951	-0.164317
Br133	Br	0.889450	-0.478847	-0.798310
Br134	Br	1.389450	0.021153	-0.298310
Br135	Br	0.889444	-0.208212	-0.348020
Br136	Br	1.389444	0.291788	0.151980
H137	H	1.640435	-1.062934	-0.384389
H138	H	2.140435	-0.562934	0.115611
Br139	Br	1.359664	-0.524990	-0.664282
Br140	Br	1.859664	-0.024990	-0.164282
Br141	Br	1.148084	-0.208189	-0.348001
Br142	Br	1.648084	0.291811	0.151999
H143	H	1.118302	-0.456948	-0.761869
H144	H	1.618302	0.043052	-0.261869
Br145	Br	1.676586	-0.524986	-0.347774
Br146	Br	2.176586	-0.024986	0.152226
H147	H	1.262217	-0.149538	-0.907159
H148	H	1.762217	0.350462	-0.407159
Br149	Br	1.225808	-0.127648	-1.136025
Br150	Br	1.725808	0.372352	-0.636025
H151	H	1.640161	-0.376157	-0.907024
H152	H	2.140161	0.123843	-0.407024
H153	H	1.640348	-0.943670	-0.384338
H154	H	2.140348	-0.443670	0.115662
Br155	Br	1.383997	-0.222604	-0.748021
Br156	Br	1.883997	0.277396	-0.248021
Br157	Br	1.277393	-0.383817	-0.640178
Br158	Br	1.777393	0.116183	-0.140178
H159	H	1.396413	-0.943677	-0.627944
H160	H	1.896413	-0.443677	-0.127944
Br161	Br	1.384135	-0.222526	-1.265293
Br162	Br	1.884135	0.277474	-0.765293
