data_functionalizedCrystal
_audit_creation_method	'MofGen! by Chris Wilmer'
_symmetry_space_group_name_H-M	'P1'
_symmetry_Int_Tables_number	1
_symmetry_cell_setting	triclinic
loop_
_symmetry_equiv_pos_as_xyz
  x,y,z
_cell_length_a	18.050590
_cell_length_b	18.050590
_cell_length_c	18.050582
_cell_angle_alpha	89.976663
_cell_angle_beta	90.000767
_cell_angle_gamma	90.007719
loop_
_atom_site_label
_atom_site_type_symbol
_atom_site_fract_x
_atom_site_fract_y
_atom_site_fract_z
Zn1	Zn	1.135342	-0.295921	-0.419598
Zn2	Zn	1.468676	0.037412	-0.086264
Zn3	Zn	1.802009	0.370745	0.247069
Zn4	Zn	1.135274	-0.420105	-0.295406
Zn5	Zn	1.468607	-0.086771	0.037927
Zn6	Zn	1.801941	0.246562	0.371261
Zn7	Zn	1.011162	-0.295910	-0.295456
Zn8	Zn	1.344495	0.037424	0.037878
Zn9	Zn	1.677828	0.370757	0.371211
Zn10	Zn	1.011131	-0.420051	-0.419589
Zn11	Zn	1.344464	-0.086717	-0.086255
Zn12	Zn	1.677797	0.246616	0.247078
O13	O	1.073227	-0.357997	-0.357512
O14	O	1.406560	-0.024663	-0.024179
O15	O	1.739894	0.308670	0.309155
O16	O	1.239258	-0.312422	-0.403106
O17	O	1.572591	0.020911	-0.069773
O18	O	1.905925	0.354244	0.263560
O19	O	1.118795	-0.403648	-0.191488
O20	O	1.452128	-0.070314	0.141845
O21	O	1.785461	0.263019	0.475179
O22	O	1.027676	-0.191987	-0.311948
O23	O	1.361009	0.141347	0.021385
O24	O	1.694343	0.474680	0.354719
O25	O	1.239208	-0.403659	-0.311863
O26	O	1.572541	-0.070326	0.021470
O27	O	1.905874	0.263008	0.354803
O28	O	1.118911	-0.191995	-0.403155
O29	O	1.452244	0.141338	-0.069821
O30	O	1.785578	0.474671	0.263512
O31	O	1.027610	-0.312402	-0.191525
O32	O	1.360943	0.020931	0.141809
O33	O	1.694276	0.354265	0.475142
O34	O	0.907233	-0.312350	-0.311939
O35	O	1.240566	0.020984	0.021394
O36	O	1.573900	0.354317	0.354727
O37	O	1.027623	-0.403567	-0.523514
O38	O	1.360956	-0.070234	-0.190181
O39	O	1.694290	0.263100	0.143152
O40	O	0.907210	-0.403555	-0.403139
O41	O	1.240543	-0.070222	-0.069806
O42	O	1.573877	0.263111	0.263528
O43	O	1.118881	-0.312370	-0.523521
O44	O	1.452214	0.020964	-0.190188
O45	O	1.785548	0.354297	0.143146
O46	O	1.118765	-0.524022	-0.311854
O47	O	1.452098	-0.190689	0.021479
O48	O	1.785431	0.142645	0.354812
O49	O	1.027557	-0.523982	-0.403091
O50	O	1.360890	-0.190649	-0.069757
O51	O	1.694223	0.142684	0.263576
C52	C	0.880275	-0.357946	-0.357544
C53	C	1.213608	-0.024613	-0.024211
C54	C	1.546942	0.308721	0.309123
C55	C	0.797729	-0.357942	-0.357575
C56	C	1.131063	-0.024609	-0.024242
C57	C	1.464396	0.308725	0.309091
C58	C	0.598288	-0.407682	-0.407052
C59	C	0.931621	-0.074348	-0.073719
C60	C	1.264954	0.258985	0.259615
C61	C	0.548883	-0.339967	-0.425328
C62	C	0.882217	-0.006634	-0.091995
C63	C	1.215550	0.326700	0.241339
C64	C	0.646599	-0.357984	-0.357539
C65	C	0.979932	-0.024650	-0.024206
C66	C	1.313266	0.308683	0.309128
C67	C	0.548922	-0.425737	-0.339262
C68	C	0.882255	-0.092404	-0.005929
C69	C	1.215588	0.240929	0.327404
C70	C	0.500614	-0.358030	-0.357505
C71	C	0.833947	-0.024696	-0.024172
C72	C	1.167280	0.308637	0.309161
C73	C	0.598282	-0.290233	-0.375850
C74	C	0.931615	0.043101	-0.042517
C75	C	1.264948	0.376434	0.290816
C76	C	0.598324	-0.376049	-0.289753
C77	C	0.931658	-0.042715	0.043580
C78	C	1.264991	0.290618	0.376914
C79	C	0.548942	-0.308287	-0.308004
C80	C	0.882276	0.025046	0.025330
C81	C	1.215609	0.358380	0.358663
C82	C	0.730697	-0.357958	-0.357560
C83	C	1.064030	-0.024625	-0.024227
C84	C	1.397364	0.308709	0.309106
C85	C	0.416517	-0.358047	-0.357484
C86	C	0.749851	-0.024714	-0.024151
C87	C	1.083184	0.308619	0.309183
C88	C	1.073170	-0.550949	-0.357482
C89	C	1.406503	-0.217615	-0.024149
C90	C	1.739837	0.115718	0.309184
C91	C	1.073214	-0.633494	-0.357495
C92	C	1.406547	-0.300161	-0.024161
C93	C	1.739880	0.033172	0.309172
C94	C	1.122915	-0.832940	-0.307949
C95	C	1.456249	-0.499606	0.025384
C96	C	1.789582	-0.166273	0.358717
C97	C	1.141051	-0.882282	-0.375725
C98	C	1.474384	-0.548948	-0.042391
C99	C	1.807718	-0.215615	0.290942
C100	C	1.073256	-0.784625	-0.357524
C101	C	1.406589	-0.451291	-0.024191
C102	C	1.739922	-0.117958	0.309143
C103	C	1.055196	-0.882364	-0.289779
C104	C	1.388529	-0.549031	0.043554
C105	C	1.721862	-0.215698	0.376887
C106	C	1.073298	-0.930610	-0.357547
C107	C	1.406631	-0.597277	-0.024213
C108	C	1.739964	-0.263943	0.309120
C109	C	1.091426	-0.832880	-0.425335
C110	C	1.424759	-0.499546	-0.092002
C111	C	1.758093	-0.166213	0.241332
C112	C	1.005539	-0.832958	-0.339344
C113	C	1.338873	-0.499625	-0.006011
C114	C	1.672206	-0.166291	0.327323
C115	C	1.023649	-0.882278	-0.407166
C116	C	1.356982	-0.548944	-0.073833
C117	C	1.690316	-0.215611	0.259501
C118	C	1.073233	-0.700527	-0.357510
C119	C	1.406567	-0.367193	-0.024177
C120	C	1.739900	-0.033860	0.309157
C121	C	1.073320	-1.014706	-0.357568
C122	C	1.406653	-0.681373	-0.024235
C123	C	1.739987	-0.348040	0.309098
C124	C	1.266933	-0.358048	-0.357480
C125	C	1.600266	-0.024715	-0.024147
C126	C	1.933599	0.308619	0.309186
C127	C	1.349478	-0.358070	-0.357467
C128	C	1.682812	-0.024737	-0.024133
C129	C	2.016145	0.308597	0.309200
C130	C	1.073256	-0.357964	-0.551218
C131	C	1.406590	-0.024630	-0.217884
C132	C	1.739923	0.308703	0.115449
C133	C	1.073269	-0.357950	-0.633763
C134	C	1.406602	-0.024616	-0.300430
C135	C	1.739935	0.308717	0.032903
C136	C	1.073305	-0.164291	-0.357558
C137	C	1.406638	0.169042	-0.024225
C138	C	1.739971	0.502376	0.309109
C139	C	1.073338	-0.081745	-0.357578
C140	C	1.406671	0.251588	-0.024244
C141	C	1.740004	0.584921	0.309089
C142	C	1.023680	-0.407475	-0.833211
C143	C	1.357014	-0.074142	-0.499877
C144	C	1.690347	0.259192	-0.166544
C145	C	1.091439	-0.425641	-0.882583
C146	C	1.424772	-0.092308	-0.549250
C147	C	1.758106	0.241025	-0.215916
C148	C	1.073305	-0.357893	-0.784894
C149	C	1.406639	-0.024560	-0.451561
C150	C	1.739972	0.308774	-0.118227
C151	C	1.005584	-0.339706	-0.882603
C152	C	1.338917	-0.006373	-0.549270
C153	C	1.672251	0.326961	-0.215936
C154	C	1.073335	-0.357840	-0.930879
C155	C	1.406668	-0.024506	-0.597546
C156	C	1.740001	0.308827	-0.264212
C157	C	1.141099	-0.376095	-0.833179
C158	C	1.474432	-0.042761	-0.499846
C159	C	1.807766	0.290572	-0.166513
C160	C	1.055199	-0.290128	-0.833195
C161	C	1.388532	0.043205	-0.499862
C162	C	1.721865	0.376539	-0.166528
C163	C	1.123004	-0.308269	-0.882545
C164	C	1.456337	0.025065	-0.549212
C165	C	1.789670	0.358398	-0.215878
C166	C	1.073287	-0.357926	-0.700796
C167	C	1.406621	-0.024592	-0.367462
C168	C	1.739954	0.308741	-0.034129
C169	C	1.073360	-0.357807	-1.014976
C170	C	1.406694	-0.024474	-0.681642
C171	C	1.740027	0.308860	-0.348309
C172	C	1.073241	-0.357976	-0.164560
C173	C	1.406574	-0.024642	0.168773
C174	C	1.739908	0.308691	0.502107
C175	C	1.073372	-0.357781	-0.082014
C176	C	1.406706	-0.024447	0.251319
C177	C	1.740039	0.308886	0.584652
H178	H	0.619873	-0.232937	-0.391360
H179	H	0.953206	0.100397	-0.058026
H180	H	1.286540	0.433730	0.275307
H181	H	0.981754	-0.449460	-0.811549
H182	H	1.315087	-0.116126	-0.478216
H183	H	1.648421	0.217207	-0.144882
H184	H	1.106771	-0.482926	-0.904277
H185	H	1.440105	-0.149592	-0.570944
H186	H	1.773438	0.183741	-0.237611
H187	H	1.039903	-0.904100	-0.232479
H188	H	1.373237	-0.570767	0.100854
H189	H	1.706570	-0.237434	0.434187
H190	H	1.198399	-0.391520	-0.811561
H191	H	1.531732	-0.058187	-0.478227
H192	H	1.865066	0.275147	-0.144894
H193	H	1.039846	-0.232860	-0.811484
H194	H	1.373180	0.100473	-0.478151
H195	H	1.706513	0.433807	-0.144818
H196	H	0.620058	-0.391334	-0.232459
H197	H	0.953391	-0.058000	0.100874
H198	H	1.286724	0.275333	0.434208
H199	H	1.164925	-0.811275	-0.266069
H200	H	1.498259	-0.477942	0.067264
H201	H	1.831592	-0.144609	0.400598
H202	H	0.527412	-0.266230	-0.266118
H203	H	0.860745	0.067103	0.067215
H204	H	1.194079	0.400437	0.400549
H205	H	0.527236	-0.483016	-0.323820
H206	H	0.860569	-0.149683	0.009514
H207	H	1.193903	0.183651	0.342847
H208	H	1.165031	-0.266316	-0.904070
H209	H	1.498364	0.067017	-0.570737
H210	H	1.831697	0.400351	-0.237404
H211	H	1.198335	-0.903949	-0.391116
H212	H	1.531669	-0.570616	-0.057783
H213	H	1.865002	-0.237282	0.275551
H214	H	0.948301	-0.324346	-0.904313
H215	H	1.281634	0.008988	-0.570980
H216	H	1.614968	0.342321	-0.237646
H217	H	1.106662	-0.811235	-0.482685
H218	H	1.439995	-0.477902	-0.149351
H219	H	1.773328	-0.144569	0.183982
H220	H	0.981672	-0.903805	-0.449148
H221	H	1.315005	-0.570471	-0.115815
H222	H	1.648338	-0.237138	0.217519
H223	H	0.619957	-0.449636	-0.448970
H224	H	0.953290	-0.116303	-0.115637
H225	H	1.286623	0.217030	0.217696
H226	H	0.527166	-0.324702	-0.482639
H227	H	0.860500	0.008631	-0.149305
H228	H	1.193833	0.341965	0.184028
H229	H	0.948271	-0.811275	-0.323932
H230	H	1.281605	-0.477941	0.009401
H231	H	1.614938	-0.144608	0.342734
