data_functionalizedCrystal
_audit_creation_method	'MofGen! by Chris Wilmer'
_symmetry_space_group_name_H-M	'P1'
_symmetry_Int_Tables_number	1
_symmetry_cell_setting	triclinic
loop_
_symmetry_equiv_pos_as_xyz
  x,y,z
_cell_length_a	13.897441
_cell_length_b	11.169417
_cell_length_c	13.897449
_cell_angle_alpha	89.994686
_cell_angle_beta	89.977085
_cell_angle_gamma	90.018542
loop_
_atom_site_label
_atom_site_type_symbol
_atom_site_fract_x
_atom_site_fract_y
_atom_site_fract_z
Zn1	Zn	-0.545376	-1.834996	-0.383961
Zn2	Zn	-0.295376	-1.584996	-0.133961
Zn3	Zn	-0.045376	-1.334996	0.116039
Zn4	Zn	0.204624	-1.084996	0.366039
Zn5	Zn	-0.384099	-1.834911	-0.545283
Zn6	Zn	-0.134099	-1.584911	-0.295283
Zn7	Zn	0.115901	-1.334911	-0.045283
Zn8	Zn	0.365901	-1.084911	0.204717
Zn9	Zn	-0.384101	-1.634287	-0.384006
Zn10	Zn	-0.134101	-1.384287	-0.134006
Zn11	Zn	0.115899	-1.134287	0.115994
Zn12	Zn	0.365899	-0.884287	0.365994
Zn13	Zn	-0.545358	-1.634310	-0.545219
Zn14	Zn	-0.295358	-1.384310	-0.295219
Zn15	Zn	-0.045358	-1.134310	-0.045219
Zn16	Zn	0.204642	-0.884310	0.204781
O17	O	-0.464734	-1.734626	-0.464617
O18	O	-0.214734	-1.484626	-0.214617
O19	O	0.035266	-1.234626	0.035383
O20	O	0.285266	-0.984626	0.285383
O21	O	-0.523990	-2.002935	-0.405369
O22	O	-0.273990	-1.752935	-0.155369
O23	O	-0.023990	-1.502935	0.094631
O24	O	0.226010	-1.252935	0.344631
O25	O	-0.249118	-1.808252	-0.523935
O26	O	0.000882	-1.558252	-0.273935
O27	O	0.250882	-1.308252	-0.023935
O28	O	0.500882	-1.058252	0.226065
O29	O	-0.405503	-1.660937	-0.249019
O30	O	-0.155503	-1.410937	0.000981
O31	O	0.094497	-1.160937	0.250981
O32	O	0.344497	-0.910937	0.500981
O33	O	-0.405500	-2.002872	-0.523892
O34	O	-0.155500	-1.752872	-0.273892
O35	O	0.094500	-1.502872	-0.023892
O36	O	0.344500	-1.252872	0.226108
O37	O	-0.523991	-1.808398	-0.248986
O38	O	-0.273991	-1.558398	0.001014
O39	O	-0.023991	-1.308398	0.251014
O40	O	0.226009	-1.058398	0.501014
O41	O	-0.249119	-1.660854	-0.405446
O42	O	0.000881	-1.410854	-0.155446
O43	O	0.250881	-1.160854	0.094554
O44	O	0.500881	-0.910854	0.344554
O45	O	-0.405485	-1.466340	-0.405383
O46	O	-0.155485	-1.216340	-0.155383
O47	O	0.094515	-0.966340	0.094617
O48	O	0.344515	-0.716340	0.344617
O49	O	-0.680342	-1.660978	-0.523782
O50	O	-0.430342	-1.410978	-0.273782
O51	O	-0.180342	-1.160978	-0.023782
O52	O	0.069658	-0.910978	0.226218
O53	O	-0.523960	-1.466358	-0.523825
O54	O	-0.273960	-1.216358	-0.273825
O55	O	-0.023960	-0.966358	-0.023825
O56	O	0.226040	-0.716358	0.226175
O57	O	-0.680356	-1.808421	-0.405307
O58	O	-0.430356	-1.558421	-0.155307
O59	O	-0.180356	-1.308421	0.094693
O60	O	0.069644	-1.058421	0.344693
O61	O	-0.405482	-1.808275	-0.680256
O62	O	-0.155482	-1.558275	-0.430256
O63	O	0.094518	-1.308275	-0.180256
O64	O	0.344518	-1.058275	0.069744
O65	O	-0.523959	-1.660895	-0.680209
O66	O	-0.273959	-1.410895	-0.430209
O67	O	-0.023959	-1.160895	-0.180209
O68	O	0.226041	-0.910895	0.069791
C69	C	-0.464739	-1.734611	-0.715232
C70	C	-0.214739	-1.484611	-0.465232
C71	C	0.035261	-1.234611	-0.215232
C72	C	0.285261	-0.984611	0.034768
C73	C	-0.464774	-1.734714	-0.822446
C74	C	-0.214774	-1.484714	-0.572446
C75	C	0.035226	-1.234714	-0.322446
C76	C	0.285226	-0.984714	-0.072446
C77	C	-0.464721	-1.422801	-0.464603
C78	C	-0.214721	-1.172801	-0.214603
C79	C	0.035279	-0.922801	0.035397
C80	C	0.285279	-0.672801	0.285397
C81	C	-0.464739	-1.289401	-0.464620
C82	C	-0.214739	-1.039401	-0.214620
C83	C	0.035261	-0.789401	0.035380
C84	C	0.285261	-0.539401	0.285380
C85	C	-0.716327	-1.734711	-0.464532
C86	C	-0.466327	-1.484711	-0.214532
C87	C	-0.216327	-1.234711	0.035468
C88	C	0.033673	-0.984711	0.285468
C89	C	-0.823541	-1.734747	-0.464496
C90	C	-0.573541	-1.484747	-0.214496
C91	C	-0.323541	-1.234747	0.035504
C92	C	-0.073541	-0.984747	0.285504
C93	C	-1.019836	-1.734780	-0.464431
C94	C	-0.769836	-1.484780	-0.214431
C95	C	-0.519836	-1.234780	0.035569
C96	C	-0.269836	-0.984780	0.285569
C97	C	-0.910603	-1.734758	-0.464470
C98	C	-0.660603	-1.484758	-0.214470
C99	C	-0.410603	-1.234758	0.035530
C100	C	-0.160603	-0.984758	0.285530
C101	C	-0.214119	-1.734610	-0.464633
C102	C	0.035881	-1.484610	-0.214633
C103	C	0.285881	-1.234610	0.035367
C104	C	0.535881	-0.984610	0.285367
C105	C	-0.106906	-1.734807	-0.464397
C106	C	0.143094	-1.484807	-0.214397
C107	C	0.393094	-1.234807	0.035603
C108	C	0.643094	-0.984807	0.285603
C109	C	-0.464747	-2.047668	-0.464633
C110	C	-0.214747	-1.797668	-0.214633
C111	C	0.035253	-1.547668	0.035367
C112	C	0.285253	-1.297668	0.285367
C113	C	-0.464752	-2.181068	-0.464639
C114	C	-0.214752	-1.931068	-0.214639
C115	C	0.035248	-1.681068	0.035361
C116	C	0.285248	-1.431068	0.285361
C117	C	-0.464749	-1.734674	-0.213024
C118	C	-0.214749	-1.484674	0.036976
C119	C	0.035251	-1.234674	0.286976
C120	C	0.285251	-0.984674	0.536976
C121	C	-0.464756	-1.734695	-0.105811
C122	C	-0.214756	-1.484695	0.144189
C123	C	0.035244	-1.234695	0.394189
C124	C	0.285244	-0.984695	0.644189
C125	C	-0.464764	-1.734709	-0.018741
C126	C	-0.214764	-1.484709	0.231259
C127	C	0.035236	-1.234709	0.481259
C128	C	0.285236	-0.984709	0.731259
C129	C	-0.464772	-1.734715	0.090492
C130	C	-0.214772	-1.484715	0.340492
C131	C	0.035228	-1.234715	0.590492
C132	C	0.285228	-0.984715	0.840492
