data_functionalizedCrystal
_audit_creation_method	'MofGen! by Chris Wilmer'
_symmetry_space_group_name_H-M	'P1'
_symmetry_Int_Tables_number	1
_symmetry_cell_setting	triclinic
loop_
_symmetry_equiv_pos_as_xyz
  x,y,z
_cell_length_a	14.971482
_cell_length_b	14.044190
_cell_length_c	14.048226
_cell_angle_alpha	89.988942
_cell_angle_beta	89.994098
_cell_angle_gamma	88.402193
loop_
_atom_site_label
_atom_site_type_symbol
_atom_site_fract_x
_atom_site_fract_y
_atom_site_fract_z
O1	O	1.196683	0.123521	-0.079159
O2	O	0.937448	0.138319	-0.079165
O3	O	1.063171	-0.007069	-0.079144
O4	O	1.070960	0.268909	-0.079181
O5	O	1.063154	-0.007078	0.079178
O6	O	0.937431	0.138310	0.079156
O7	O	1.196666	0.123512	0.079162
Zn8	Zn	1.067046	0.130910	0.104296
Zn9	Zn	1.067068	0.130921	-0.104299
O10	O	1.070943	0.268900	0.079140
C11	C	0.904063	0.137653	-0.000005
C12	C	0.804609	0.135672	-0.000006
C13	C	0.757882	0.134734	0.086296
C14	C	0.664435	0.132857	0.086297
C15	C	0.617718	0.131925	-0.000005
C16	C	0.664452	0.132860	-0.086314
C17	C	0.757897	0.134730	-0.086314
C18	C	0.469683	0.128965	-0.086307
C19	C	0.376232	0.127097	-0.086307
C20	C	0.376222	0.127092	0.086304
C21	C	0.469667	0.128962	0.086304
C22	C	0.516394	0.129899	-0.000006
C23	C	1.059755	-0.042392	0.000020
C24	C	1.049591	-0.147629	0.000028
C25	C	1.103093	-0.397856	-0.000008
C26	C	1.031025	-0.340307	-0.000003
C27	C	1.041358	-0.233092	0.000014
C28	C	1.092761	-0.505082	-0.000026
C29	C	1.230051	0.124178	-0.000000
C30	C	1.329504	0.126159	-0.000005
C31	C	1.074359	0.304223	-0.000025
C32	C	1.084522	0.409460	-0.000039
N33	N	1.067037	0.130902	0.246657
N34	N	1.067084	0.130922	-0.246660
C35	C	1.122728	0.066550	0.296484
C36	C	1.122734	0.066550	0.396142
C37	C	1.067053	0.130906	0.445970
C38	C	1.011355	0.195260	0.396136
C39	C	1.011345	0.195255	0.296480
C40	C	1.011381	0.195267	0.603850
C41	C	1.011392	0.195273	0.703513
C42	C	1.122770	0.066562	0.703512
C43	C	1.122760	0.066557	0.603856
C44	C	1.067064	0.130912	0.554029
H45	H	0.961564	-0.371561	-0.000010
H46	H	1.172548	-0.366604	0.000003
O47	O	1.176845	0.003943	0.248233
C48	C	1.226015	-0.052840	0.313587
H49	H	1.189260	-0.053969	0.384634
H50	H	1.294923	-0.021943	0.324164
C51	C	1.281434	-0.153689	0.187458
C52	C	1.236288	-0.155083	0.274716
H53	H	1.287775	-0.216756	0.163480
H54	H	1.248310	-0.115432	0.143427
H55	H	1.338853	-0.127937	0.196284
H56	H	1.178866	-0.180823	0.265887
H57	H	1.269402	-0.193347	0.318746
O58	O	0.957254	0.257875	0.555593
C59	C	0.908096	0.314666	0.620940
H60	H	0.944862	0.315801	0.691971
H61	H	0.839189	0.283774	0.631559
C62	C	0.852662	0.415506	0.494784
C63	C	0.897822	0.416906	0.582023
H64	H	0.846320	0.478571	0.470778
H65	H	0.885777	0.377243	0.450758
H66	H	0.795243	0.389758	0.503645
H67	H	0.955243	0.442642	0.573158
H68	H	0.864716	0.455176	0.626047
H69	H	1.168081	0.014150	0.436711
O70	O	0.957223	0.257860	0.248222
C71	C	0.908063	0.314649	0.313568
H72	H	0.944831	0.315790	0.384597
H73	H	0.839158	0.283751	0.324191
C74	C	0.852616	0.415480	0.187411
C75	C	0.897779	0.416887	0.274648
H76	H	0.846268	0.478544	0.163403
H77	H	0.885733	0.377218	0.143385
H78	H	0.795200	0.389727	0.196275
H79	H	0.955198	0.442628	0.265781
H80	H	0.864672	0.455156	0.318672
O81	O	0.619181	0.131997	0.170216
C82	C	0.680453	0.133204	0.246387
H83	H	0.745754	0.164527	0.221077
H84	H	0.693715	0.057412	0.272941
C85	C	0.561056	0.156125	0.358998
C86	C	0.641257	0.194604	0.327914
H87	H	0.536878	0.193995	0.409291
H88	H	0.519775	0.155308	0.307681
H89	H	0.572119	0.092966	0.381120
H90	H	0.630191	0.257757	0.305782
H91	H	0.682535	0.195433	0.379230
H92	H	0.338172	0.126330	0.156580
H93	H	1.168105	0.014158	0.563286
H94	H	0.507701	0.129727	0.156578
H95	H	1.168120	0.014161	0.744088
H96	H	0.966050	0.247677	0.744078
H97	H	0.966014	0.247657	0.436711
H98	H	0.795912	0.135501	0.156573
O99	O	0.330989	0.126156	-0.170224
C100	C	0.392266	0.127405	-0.246403
H101	H	0.460185	0.098738	-0.221106
H102	H	0.398889	0.203598	-0.272948
C103	C	0.275088	0.099776	-0.359002
C104	C	0.358506	0.064560	-0.327933
H105	H	0.254262	0.061014	-0.409296
H106	H	0.233803	0.098938	-0.307680
H107	H	0.280618	0.163270	-0.381117
H108	H	0.352972	0.001072	-0.305809
H109	H	0.399789	0.065385	-0.379254
H110	H	0.507726	0.129728	-0.156589
H111	H	0.626408	0.132095	-0.156582
O112	O	0.803151	0.135688	-0.170233
C113	C	0.741883	0.134443	-0.246406
H114	H	0.673957	0.163096	-0.221109
H115	H	0.735272	0.058253	-0.272934
C116	C	0.859070	0.162106	-0.359022
C117	C	0.775644	0.197306	-0.327954
H118	H	0.879896	0.200879	-0.409327
H119	H	0.900348	0.162941	-0.307704
H120	H	0.853549	0.098615	-0.381122
H121	H	0.781168	0.260791	-0.305843
H122	H	0.734367	0.196483	-0.379271
