data_functionalizedCrystal
_audit_creation_method	'MofGen! by Chris Wilmer'
_symmetry_space_group_name_H-M	'P1'
_symmetry_Int_Tables_number	1
_symmetry_cell_setting	triclinic
loop_
_symmetry_equiv_pos_as_xyz
  x,y,z
_cell_length_a	26.210047
_cell_length_b	27.732048
_cell_length_c	27.732048
_cell_angle_alpha	97.357345
_cell_angle_beta	90.000479
_cell_angle_gamma	89.996535
loop_
_atom_site_label
_atom_site_type_symbol
_atom_site_fract_x
_atom_site_fract_y
_atom_site_fract_z
O1	O	0.042369	-0.640931	0.057510
O2	O	0.542369	-0.140931	0.557510
O3	O	0.042385	-0.500138	0.066256
O4	O	0.542385	-0.000138	0.566256
O5	O	0.042367	-0.574907	-0.008514
O6	O	0.542367	-0.074907	0.491486
O7	O	0.042387	-0.566162	0.132279
O8	O	0.542387	-0.066162	0.632279
O9	O	-0.042491	-0.574893	-0.008502
O10	O	0.457509	-0.074893	0.491498
O11	O	-0.042473	-0.500123	0.066267
O12	O	0.457527	-0.000123	0.566267
O13	O	-0.042489	-0.640917	0.057522
O14	O	0.457511	-0.140917	0.557522
Cu15	Cu	-0.050229	-0.570519	0.061896
Cu16	Cu	0.449771	-0.070519	0.561896
Cu17	Cu	0.050125	-0.570536	0.061882
Cu18	Cu	0.550125	-0.070536	0.561882
O19	O	-0.042471	-0.566147	0.132291
O20	O	0.457529	-0.066147	0.632291
C21	C	-0.000042	-0.482124	0.066078
C22	C	0.499958	0.017876	0.566078
C23	C	-0.000036	-0.428469	0.065525
C24	C	0.499964	0.071531	0.565525
N25	N	-0.120813	-0.570510	0.061905
N26	N	0.379187	-0.070510	0.561905
C27	C	-0.000064	-0.574716	-0.026515
C28	C	0.499936	-0.074716	0.473485
C29	C	-0.000068	-0.574164	-0.080170
C30	C	0.499932	-0.074164	0.419830
C31	C	-0.473336	-0.603640	0.028781
C32	C	0.026664	-0.103640	0.528781
C33	C	-0.686994	-0.603651	0.028774
C34	C	-0.186994	-0.103651	0.528774
O35	O	-0.714623	-0.631801	0.000614
O36	O	-0.214623	-0.131801	0.500614
N37	N	-0.713707	-0.570538	0.061871
N38	N	-0.213707	-0.070538	0.561871
C39	C	-0.687003	-0.537419	0.094970
C40	C	-0.187003	-0.037419	0.594970
O41	O	-0.714626	-0.509251	0.123117
O42	O	-0.214626	-0.009251	0.623117
C43	C	-0.473345	-0.537406	0.094974
C44	C	0.026655	-0.037406	0.594974
C45	C	-0.446635	-0.570524	0.061878
C46	C	0.053365	-0.070524	0.561878
C47	C	-0.446625	-0.636755	-0.004312
C48	C	0.053375	-0.136755	0.495688
C49	C	-0.393214	-0.636754	-0.004308
C50	C	0.106786	-0.136754	0.495692
C51	C	-0.366513	-0.603638	0.028789
C52	C	0.133487	-0.103638	0.528789
C53	C	-0.393223	-0.570523	0.061882
C54	C	0.106777	-0.070523	0.561882
C55	C	-0.446641	-0.504284	0.128070
C56	C	0.053359	-0.004284	0.628070
C57	C	-0.393223	-0.504283	0.128067
C58	C	0.106777	-0.004283	0.628067
C59	C	-0.366513	-0.537401	0.094971
C60	C	0.133487	-0.037401	0.594971
C61	C	-0.313111	-0.537405	0.094983
C62	C	0.186889	-0.037405	0.594983
N63	N	-0.286397	-0.570518	0.061886
N64	N	0.213603	-0.070518	0.561886
C65	C	-0.313098	-0.603634	0.028789
C66	C	0.186902	-0.103634	0.528789
C67	C	-0.799176	-0.537428	0.094966
C68	C	-0.299176	-0.037428	0.594966
C69	C	-0.852590	-0.537432	0.094965
C70	C	-0.352590	-0.037432	0.594965
C71	C	-0.852578	-0.603664	0.028769
C72	C	-0.352578	-0.103664	0.528769
C73	C	-0.799163	-0.603662	0.028773
C74	C	-0.299163	-0.103662	0.528773
C75	C	-0.772463	-0.570541	0.061869
C76	C	-0.272463	-0.070541	0.561869
C77	C	-0.200931	-0.603629	0.028800
C78	C	0.299069	-0.103629	0.528800
C79	C	-0.147514	-0.603626	0.028808
C80	C	0.352486	-0.103626	0.528808
C81	C	-0.147531	-0.537393	0.095002
C82	C	0.352469	-0.037393	0.595002
C83	C	-0.200943	-0.537397	0.094996
C84	C	0.299057	-0.037397	0.594996
C85	C	-0.227641	-0.570517	0.061891
C86	C	0.272359	-0.070517	0.561891
O87	O	-0.285449	-0.509267	0.123125
O88	O	0.214551	-0.009267	0.623125
O89	O	-0.285466	-0.631790	0.000639
O90	O	0.214534	-0.131790	0.500639
C91	C	-0.526747	-0.603641	0.028777
C92	C	-0.026747	-0.103641	0.528777
C93	C	-0.553457	-0.570527	0.061871
C94	C	-0.053457	-0.070527	0.561871
C95	C	-0.526756	-0.537410	0.094968
C96	C	-0.026756	-0.037410	0.594968
C97	C	-0.606872	-0.570530	0.061870
C98	C	-0.106872	-0.070530	0.561870
C99	C	-0.633573	-0.603646	0.028773
C100	C	-0.133573	-0.103646	0.528773
C101	C	-0.606859	-0.636759	-0.004323
C102	C	-0.106859	-0.136759	0.495677
C103	C	-0.553448	-0.636758	-0.004320
C104	C	-0.053448	-0.136758	0.495680
C105	C	-0.553470	-0.504298	0.128064
C106	C	-0.053470	-0.004298	0.628064
C107	C	-0.606881	-0.504302	0.128058
C108	C	-0.106881	-0.004302	0.628058
C109	C	-0.633582	-0.537418	0.094961
C110	C	-0.133582	-0.037418	0.594961
N111	N	0.120709	-0.570548	0.061868
N112	N	0.620709	-0.070548	0.561868
C113	C	-0.000061	-0.658931	0.057699
C114	C	0.499939	-0.158931	0.557699
C115	C	-0.000064	-0.712586	0.058252
C116	C	0.499936	-0.212586	0.558252
C117	C	-0.000053	-0.089654	0.106229
C118	C	0.499947	0.410346	0.606229
C119	C	-0.000057	0.112006	0.104178
C120	C	0.499943	0.612006	0.604178
O121	O	-0.000074	0.143262	0.141398
O122	O	0.499926	0.643262	0.641398
N123	N	-0.000063	0.131130	0.059843
N124	N	0.499937	0.631130	0.559843
C125	C	-0.000071	0.099835	0.016017
C126	C	0.499929	0.599835	0.516017
O127	O	-0.000081	0.120728	-0.021740
O128	O	0.499919	0.620728	0.478260
C129	C	-0.000069	-0.101824	0.018068
C130	C	0.499931	0.398176	0.518068
C131	C	-0.000059	-0.120944	0.062407
C132	C	0.499941	0.379056	0.562407
C133	C	-0.000043	-0.108775	0.150563
C134	C	0.499957	0.391225	0.650563
C135	C	-0.000039	-0.159187	0.151076
C136	C	0.499961	0.340813	0.651076
C137	C	-0.000045	-0.190477	0.107253
C138	C	0.499955	0.309523	0.607253
C139	C	-0.000055	-0.171356	0.062919
C140	C	0.499945	0.328644	0.562919
C141	C	-0.000081	-0.133117	-0.025757
C142	C	0.499919	0.366883	0.474243
C143	C	-0.000082	-0.183535	-0.025240
C144	C	0.499918	0.316465	0.474760
C145	C	-0.000071	-0.202655	0.019098
C146	C	0.499929	0.297345	0.519098
C147	C	-0.000057	-0.253059	0.019609
C148	C	0.499943	0.246941	0.519609
N149	N	-0.000051	-0.272183	0.063944
N150	N	0.499949	0.227817	0.563944
C151	C	-0.000045	-0.240892	0.107766
C152	C	0.499955	0.259108	0.607766
C153	C	-0.000070	0.205709	0.014943
C154	C	0.499930	0.705709	0.514943
C155	C	-0.000070	0.256124	0.014430
C156	C	0.499930	0.756124	0.514430
C157	C	-0.000057	0.268291	0.102591
C158	C	0.499943	0.768291	0.602591
C159	C	-0.000054	0.217876	0.103104
C160	C	0.499946	0.717876	0.603104
C161	C	-0.000065	0.186585	0.059278
C162	C	0.499935	0.686585	0.559278
C163	C	-0.000036	-0.346761	0.108839
C164	C	0.499964	0.153239	0.608839
C165	C	-0.000030	-0.397178	0.109347
C166	C	0.499970	0.102822	0.609347
C167	C	-0.000045	-0.409341	0.021186
C168	C	0.499955	0.090659	0.521186
C169	C	-0.000049	-0.358929	0.020678
C170	C	0.499951	0.141071	0.520678
C171	C	-0.000046	-0.327639	0.064508
C172	C	0.499954	0.172361	0.564508
O173	O	-0.000046	-0.284343	-0.017592
O174	O	0.499954	0.215657	0.482408
O175	O	-0.000047	-0.261794	0.145518
O176	O	0.499953	0.238206	0.645518
C177	C	-0.000057	-0.039242	0.105716
C178	C	0.499943	0.460758	0.605716
C179	C	-0.000067	-0.020120	0.061382
C180	C	0.499933	0.479880	0.561382
C181	C	-0.000073	-0.051411	0.017560
C182	C	0.499927	0.448589	0.517560
C183	C	-0.000066	0.030294	0.060869
C184	C	0.499934	0.530294	0.560869
C185	C	-0.000060	0.061585	0.104691
C186	C	0.499940	0.561585	0.604691
C187	C	-0.000054	0.042461	0.149026
C188	C	0.499946	0.542461	0.649026
C189	C	-0.000050	-0.007951	0.149539
C190	C	0.499950	0.492049	0.649539
C191	C	-0.000078	-0.032287	-0.026775
C192	C	0.499922	0.467713	0.473225
C193	C	-0.000082	0.018125	-0.027284
C194	C	0.499918	0.518125	0.472716
C195	C	-0.000076	0.049416	0.016538
C196	C	0.499924	0.549416	0.516538
C197	C	-0.000046	-0.614867	-0.418985
C198	C	0.499954	-0.114867	0.081015
C199	C	-0.000039	-0.612816	-0.620645
C200	C	0.499961	-0.112816	-0.120645
O201	O	-0.000021	-0.650037	-0.651900
O202	O	0.499979	-0.150037	-0.151900
N203	N	-0.000034	-0.568481	-0.639768
N204	N	0.499966	-0.068481	-0.139768
C205	C	-0.000028	-0.524656	-0.608474
C206	C	0.499972	-0.024656	-0.108474
O207	O	-0.000019	-0.486899	-0.629367
O208	O	0.499981	0.013101	-0.129367
C209	C	-0.000032	-0.526707	-0.406815
C210	C	0.499968	-0.026707	0.093185
C211	C	-0.000042	-0.571045	-0.387694
C212	C	0.499958	-0.071045	0.112306
C213	C	-0.000056	-0.659202	-0.399864
C214	C	0.499944	-0.159202	0.100136
C215	C	-0.000060	-0.659714	-0.349452
C216	C	0.499940	-0.159714	0.150548
C217	C	-0.000056	-0.615892	-0.318161
C218	C	0.499944	-0.115892	0.181839
C219	C	-0.000046	-0.571557	-0.337282
C220	C	0.499954	-0.071557	0.162718
C221	C	-0.000022	-0.482882	-0.375521
C222	C	0.499978	0.017118	0.124479
C223	C	-0.000022	-0.483399	-0.325104
C224	C	0.499978	0.016601	0.174896
C225	C	-0.000032	-0.527737	-0.305983
C226	C	0.499968	-0.027737	0.194017
C227	C	-0.000046	-0.528247	-0.255580
C228	C	0.499954	-0.028247	0.244420
N229	N	-0.000051	-0.572583	-0.236456
N230	N	0.499949	-0.072583	0.263544
C231	C	-0.000056	-0.616405	-0.267747
C232	C	0.499944	-0.116405	0.232253
C233	C	-0.000027	-0.523582	-0.714348
C234	C	0.499973	-0.023582	-0.214348
C235	C	-0.000027	-0.523069	-0.764762
C236	C	0.499973	-0.023069	-0.264762
C237	C	-0.000037	-0.611230	-0.776930
C238	C	0.499963	-0.111230	-0.276930
C239	C	-0.000041	-0.611742	-0.726514
C240	C	0.499959	-0.111742	-0.226514
C241	C	-0.000032	-0.567917	-0.695224
C242	C	0.499968	-0.067917	-0.195224
C243	C	-0.000066	-0.617477	-0.161878
C244	C	0.499934	-0.117477	0.338122
C245	C	-0.000073	-0.617986	-0.111461
C246	C	0.499927	-0.117986	0.388539
C247	C	-0.000060	-0.529825	-0.099298
C248	C	0.499940	-0.029825	0.400702
C249	C	-0.000056	-0.529316	-0.149710
C250	C	0.499944	-0.029316	0.350290
C251	C	-0.000057	-0.573147	-0.180999
C252	C	0.499943	-0.073147	0.319001
O253	O	-0.000059	-0.491047	-0.224296
O254	O	0.499941	0.008953	0.275704
O255	O	-0.000054	-0.654156	-0.246844
O256	O	0.499946	-0.154156	0.253156
C257	C	-0.000042	-0.614355	-0.469397
C258	C	0.499958	-0.114355	0.030603
C259	C	-0.000033	-0.570021	-0.488518
C260	C	0.499967	-0.070021	0.011482
C261	C	-0.000028	-0.526198	-0.457228
C262	C	0.499972	-0.026198	0.042772
C263	C	-0.000033	-0.569508	-0.538933
C264	C	0.499967	-0.069508	-0.038933
C265	C	-0.000037	-0.613330	-0.570223
C266	C	0.499963	-0.113330	-0.070223
C267	C	-0.000042	-0.657665	-0.551100
C268	C	0.499958	-0.157665	-0.051100
C269	C	-0.000046	-0.658177	-0.500688
C270	C	0.499954	-0.158177	-0.000688
C271	C	-0.000023	-0.481863	-0.476351
C272	C	0.499977	0.018137	0.023649
C273	C	-0.000019	-0.481355	-0.526764
C274	C	0.499981	0.018645	-0.026764
C275	C	-0.000024	-0.525177	-0.558054
C276	C	0.499976	-0.025177	-0.058054
C277	C	-0.000040	-0.566338	0.150292
C278	C	0.499960	-0.066338	0.650292
C279	C	-0.000032	-0.566891	0.203947
C280	C	0.499968	-0.066891	0.703947
H281	H	-0.125768	-0.630597	0.001858
H282	H	0.374232	-0.130597	0.501858
H283	H	-0.371469	-0.663720	-0.031259
H284	H	0.128531	-0.163720	0.468741
H285	H	-0.000028	-0.486964	-0.780325
H286	H	0.499972	0.013036	-0.280325
H287	H	-0.000090	-0.117558	-0.061861
H288	H	0.499910	0.382442	0.438139
H289	H	-0.000016	-0.445246	-0.542327
H290	H	0.499984	0.054754	-0.042327
H291	H	-0.000070	0.271687	-0.021674
H292	H	0.499930	0.771687	0.478326
H293	H	-0.000054	-0.694282	-0.485125
H294	H	0.499946	-0.194282	0.014875
H295	H	-0.000042	-0.023514	0.185643
H296	H	0.499958	0.476486	0.685643
H297	H	-0.000036	-0.321291	0.144530
H298	H	0.499964	0.178709	0.644530
H299	H	-0.222691	-0.510434	0.121950
H300	H	0.277309	-0.010434	0.621950
H301	H	-0.000048	-0.693347	-0.576585
H302	H	0.499952	-0.193347	-0.076585
H303	H	-0.000091	-0.209009	-0.060929
H304	H	0.499909	0.290991	0.439071
H305	H	-0.222662	-0.630598	0.001842
H306	H	0.277338	-0.130598	0.501842
H307	H	-0.125783	-0.510432	0.121951
H308	H	0.374217	-0.010432	0.621951
H309	H	-0.371487	-0.477311	0.155018
H310	H	0.128513	0.022689	0.655018
H311	H	-0.000014	-0.447710	-0.299629
H312	H	0.499986	0.052290	0.200371
H313	H	-0.000041	-0.646911	-0.802415
H314	H	0.499959	-0.146911	-0.302415
H315	H	-0.000020	-0.487892	-0.688875
H316	H	0.499980	0.012108	-0.188875
H317	H	-0.468360	-0.663722	-0.031266
H318	H	0.031640	-0.163722	0.468734
H319	H	-0.777418	-0.630629	0.001823
H320	H	-0.277418	-0.130629	0.501823
H321	H	-0.000047	0.067947	0.184708
H322	H	0.499953	0.567947	0.684708
H323	H	-0.874327	-0.630629	0.001821
H324	H	-0.374327	-0.130629	0.501821
H325	H	-0.777440	-0.510456	0.121918
H326	H	-0.277440	-0.010456	0.621918
H327	H	-0.000030	-0.174750	0.187180
H328	H	0.499970	0.325250	0.687180
H329	H	-0.874334	-0.510469	0.121920
H330	H	-0.374334	-0.010469	0.621920
H331	H	-0.000079	0.180236	-0.020747
H332	H	0.499921	0.680236	0.479253
H333	H	-0.000048	-0.434827	-0.014492
H334	H	0.499952	0.065173	0.485508
H335	H	-0.000039	-0.083302	0.186251
H336	H	0.499961	0.416698	0.686251
H337	H	-0.468381	-0.477317	0.155019
H338	H	0.031619	0.022683	0.655019
H339	H	-0.000018	-0.446177	-0.450879
H340	H	0.499982	0.053823	0.049121
H341	H	-0.628608	-0.663725	-0.031271
H342	H	-0.128608	-0.163725	0.468729
H343	H	-0.000086	0.033688	-0.063392
H344	H	0.499914	0.533688	0.436608
H345	H	-0.000062	-0.493213	-0.165279
H346	H	0.499938	0.006787	0.334721
H347	H	-0.531704	-0.663725	-0.031269
H348	H	-0.031704	-0.163725	0.468731
H349	H	-0.628625	-0.477334	0.155013
H350	H	-0.128625	0.022666	0.655013
H351	H	-0.000058	-0.694889	-0.425336
H352	H	0.499942	-0.194889	0.074664
H353	H	-0.000048	-0.647846	-0.710950
H354	H	0.499952	-0.147846	-0.210950
H355	H	-0.531734	-0.477330	0.155015
H356	H	-0.031734	0.022670	0.655015
H357	H	-0.000065	-0.653168	-0.187348
H358	H	0.499935	-0.153168	0.312652
H359	H	-0.000021	-0.412743	0.145454
H360	H	0.499979	0.087257	0.645454
H361	H	-0.000085	-0.057760	-0.062462
H362	H	0.499915	0.442240	0.437538
H363	H	-0.000049	0.202311	0.139207
H364	H	0.499951	0.702311	0.639207
H365	H	-0.000053	0.293777	0.138273
H366	H	0.499947	0.793777	0.638273
H367	H	-0.000050	-0.343360	-0.015426
H368	H	0.499950	0.156640	0.484574
H369	H	-0.000011	-0.446777	-0.391080
H370	H	0.499989	0.053223	0.108920
H371	H	-0.000082	-0.654093	-0.095896
H372	H	0.499918	-0.154093	0.404104
H373	H	-0.000066	-0.695819	-0.333889
H374	H	0.499934	-0.195819	0.166111
H375	H	-0.000058	-0.494146	-0.073812
H376	H	0.499942	0.005854	0.426188
