data_functionalizedCrystal
_audit_creation_method	'MofGen! by Chris Wilmer'
_symmetry_space_group_name_H-M	'P1'
_symmetry_Int_Tables_number	1
_symmetry_cell_setting	triclinic
loop_
_symmetry_equiv_pos_as_xyz
  x,y,z
_cell_length_a	12.759394
_cell_length_b	19.121414
_cell_length_c	12.759387
_cell_angle_alpha	92.413723
_cell_angle_beta	89.968340
_cell_angle_gamma	92.456254
loop_
_atom_site_label
_atom_site_type_symbol
_atom_site_fract_x
_atom_site_fract_y
_atom_site_fract_z
Zn1	Zn	-0.349701	1.073774	-0.525691
Zn2	Zn	-0.525423	1.073701	-0.350014
Zn3	Zn	-0.357248	0.956319	-0.357500
Zn4	Zn	-0.532833	0.956314	-0.533120
O5	O	-0.441301	1.015027	-0.441581
O6	O	-0.366752	1.172046	-0.496145
O7	O	-0.503171	1.058101	-0.203988
O8	O	-0.209223	0.971933	-0.379835
O9	O	-0.495853	1.171993	-0.367076
O10	O	-0.203679	1.058226	-0.503404
O11	O	-0.379613	0.971862	-0.209488
O12	O	-0.386799	0.858036	-0.387039
O13	O	-0.508483	0.971924	-0.679154
O14	O	-0.515801	0.858032	-0.516066
O15	O	-0.373937	1.058221	-0.673696
O16	O	-0.673429	1.058096	-0.374279
O17	O	-0.678873	0.971852	-0.508807
C18	C	-0.452924	0.832551	-0.453171
C19	C	-0.457921	0.754487	-0.458155
C20	C	-0.393003	0.717794	-0.393428
C21	C	-0.397708	0.644444	-0.398110
C22	C	-0.467326	0.607789	-0.467525
C23	C	-0.532251	0.644488	-0.532253
C24	C	-0.527551	0.717836	-0.527565
C25	C	-0.484887	0.386326	-0.485030
C26	C	-0.489580	0.312973	-0.489715
C27	C	-0.355038	0.312934	-0.355570
C28	C	-0.350340	0.386284	-0.350893
C29	C	-0.415268	0.422976	-0.415618
C30	C	-0.472134	0.532814	-0.472314
C31	C	-0.410465	0.497950	-0.410822
C32	C	-0.714271	1.014985	-0.441559
C33	C	-0.831045	1.015031	-0.441580
C34	C	-0.825318	1.104904	-0.301593
C35	C	-0.877315	1.149859	-0.231610
C36	C	-0.987033	1.149900	-0.231636
C37	C	-1.044759	1.104983	-0.301654
C38	C	-0.992763	1.060028	-0.371637
C39	C	-0.883041	1.059990	-0.371601
C40	C	-0.998489	0.970160	-0.511627
C41	C	-0.888770	0.970114	-0.511598
C42	C	-1.056215	0.925243	-0.581645
C43	C	-1.004219	0.880283	-0.651624
C44	C	-0.894493	0.880244	-0.651595
C45	C	-0.836774	0.925159	-0.581580
C46	C	-0.167264	1.015088	-0.441626
C47	C	-0.050485	1.015115	-0.441645
C48	C	-0.441195	1.015080	-0.715612
C49	C	-0.441149	1.015103	-0.832387
C50	C	-0.429634	1.198216	-0.429947
C51	C	-0.424662	1.276280	-0.424989
C52	C	-0.301055	1.104970	-0.826723
C53	C	-0.230991	1.149914	-0.878751
C54	C	-0.230952	1.149931	-0.988472
C55	C	-0.300982	1.104998	-1.046167
C56	C	-0.371045	1.060055	-0.994139
C57	C	-0.371079	1.060044	-0.884415
C58	C	-0.511133	0.970184	-0.999803
C59	C	-0.511179	0.970170	-0.890082
C60	C	-0.581163	0.925251	-1.057499
C61	C	-0.651233	0.880310	-1.005470
C62	C	-0.651270	0.880295	-0.895743
C63	C	-0.581243	0.925226	-0.838054
C64	C	-0.441329	1.015014	-0.168615
C65	C	-0.441069	1.015128	-0.051831
H66	H	-0.293657	0.416123	-0.294361
N67	N	-0.159368	1.195836	-1.041607
N68	N	-0.096842	1.235945	-0.990089
H69	H	-0.046283	1.268364	-1.027615
H70	H	-0.581271	0.925221	-0.748713
N71	N	-0.551214	0.423789	-0.551150
N72	N	-0.613364	0.391050	-0.613123
H73	H	-0.660211	0.417510	-0.659825
N74	N	-0.724700	0.925107	-0.581563
N75	N	-0.679301	0.870310	-0.563020
H76	H	-0.600147	0.870274	-0.563010
N77	N	-0.581103	0.925270	-1.169575
N78	N	-0.518542	0.965400	-1.216018
H79	H	-0.518501	0.965413	-1.295174
N80	N	-0.722838	0.834375	-0.842618
N81	N	-0.785348	0.794261	-0.894148
H82	H	-0.835895	0.761827	-0.856633
H83	H	-0.353786	0.527797	-0.354301
N84	N	-0.300914	1.105013	-1.158243
N85	N	-0.238343	1.145138	-1.204684
H86	H	-0.238293	1.145148	-1.283840
H87	H	-0.528816	0.502962	-0.528832
H88	H	-0.735980	1.104866	-0.301552
H89	H	-0.708240	0.843726	-1.052454
N90	N	-0.288710	0.275454	-0.289468
N91	N	-0.224423	0.234545	-0.329163
H92	H	-0.177576	0.208074	-0.282475
H93	H	-0.830305	1.186431	-0.174604
H94	H	-1.029368	1.186509	-0.174656
H95	H	-0.173973	1.186496	-0.831764
N96	N	-0.321872	0.755234	-0.322541
N97	N	-0.225459	0.747049	-0.330207
H98	H	-0.175220	0.773490	-0.280141
N99	N	-0.331396	0.606974	-0.331979
N100	N	-0.269241	0.639710	-0.270007
H101	H	-0.222407	0.613247	-0.223296
H102	H	-0.588940	0.614637	-0.588767
N103	N	-0.560701	0.275540	-0.560632
N104	N	-0.618666	0.308308	-0.618417
H105	H	-0.668892	0.281872	-0.668502
H106	H	-1.145553	0.925283	-0.581666
N107	N	-1.156834	1.105019	-0.301671
N108	N	-1.209389	1.050260	-0.283139
H109	H	-1.288544	1.050284	-0.283150
H110	H	-1.051227	0.843719	-0.708632
H111	H	-0.580414	0.747710	-0.580272
H112	H	-0.852163	0.843639	-0.708587
N113	N	-0.301091	1.104970	-0.714646
N114	N	-0.238568	1.145091	-0.663145
H115	H	-0.238590	1.145092	-0.583989
