data_functionalizedCrystal
_audit_creation_method	'MofGen! by Chris Wilmer'
_symmetry_space_group_name_H-M	'P1'
_symmetry_Int_Tables_number	1
_symmetry_cell_setting	triclinic
loop_
_symmetry_equiv_pos_as_xyz
  x,y,z
_cell_length_a	14.519731
_cell_length_b	17.666332
_cell_length_c	14.519709
_cell_angle_alpha	89.992588
_cell_angle_beta	96.315501
_cell_angle_gamma	90.009441
loop_
_atom_site_label
_atom_site_type_symbol
_atom_site_fract_x
_atom_site_fract_y
_atom_site_fract_z
O1	O	1.223862	0.062952	-0.120986
O2	O	1.723862	0.562952	0.379014
O3	O	0.955387	0.062953	-0.135202
O4	O	1.455387	0.562953	0.364798
O5	O	1.096743	0.062945	0.006144
O6	O	1.596743	0.562945	0.506144
O7	O	1.082506	0.062959	-0.262332
O8	O	1.582506	0.562959	0.237668
O9	O	1.096718	-0.062951	0.006151
O10	O	1.596718	0.437049	0.506151
O11	O	0.955363	-0.062944	-0.135195
O12	O	1.455363	0.437056	0.364805
O13	O	1.223837	-0.062945	-0.120979
O14	O	1.723837	0.437055	0.379021
Cu15	Cu	1.089597	-0.074440	-0.128086
Cu16	Cu	1.589597	0.425560	0.371914
Cu17	Cu	1.089627	0.074448	-0.128095
Cu18	Cu	1.589627	0.574448	0.371905
O19	O	1.082482	-0.062938	-0.262325
O20	O	1.582482	0.437062	0.237675
C21	C	0.921016	0.000005	-0.134532
C22	C	1.421016	0.500005	0.365468
C23	C	0.818635	0.000005	-0.132536
C24	C	1.318635	0.500005	0.367464
N25	N	1.089584	-0.179159	-0.128079
N26	N	1.589584	0.320841	0.371921
C27	C	0.735491	0.000008	-0.130915
C28	C	1.235491	0.500008	0.369085
C29	C	0.631182	0.000008	-0.128888
C30	C	1.131182	0.500008	0.371112
C31	C	0.548043	0.000008	-0.127280
C32	C	1.048043	0.500008	0.372720
C33	C	0.443728	0.000010	-0.125253
C34	C	0.943728	0.500010	0.374747
C35	C	1.152196	-0.218772	-0.065522
C36	C	1.652196	0.281228	0.434478
C37	C	1.152201	-0.298020	-0.065518
C38	C	1.652201	0.201980	0.434482
C39	C	1.089603	-0.337651	-0.128086
C40	C	1.589603	0.162349	0.371914
C41	C	1.026979	-0.298029	-0.190648
C42	C	1.526979	0.201971	0.309352
C43	C	1.026969	-0.218783	-0.190645
C44	C	1.526969	0.281217	0.309355
N45	N	1.077998	-0.462066	-0.209669
N46	N	1.577998	0.037934	0.290331
N47	N	1.078013	-0.537346	-0.209669
N48	N	1.578013	-0.037346	0.290331
C49	C	1.089627	-0.576415	-0.128099
C50	C	1.589627	-0.076415	0.371901
N51	N	1.101244	-0.537360	-0.046526
N52	N	1.601244	-0.037360	0.453474
N53	N	1.101234	-0.462073	-0.046526
N54	N	1.601234	0.037927	0.453474
C55	C	1.089606	-0.423581	-0.128097
C56	C	1.589606	0.076419	0.371903
C57	C	1.152249	-0.701958	-0.065532
C58	C	1.652249	-0.201958	0.434468
C59	C	1.152248	-0.781207	-0.065526
C60	C	1.652248	-0.281207	0.434474
C61	C	1.027030	-0.781214	-0.190665
C62	C	1.527030	-0.281214	0.309335
C63	C	1.027027	-0.701967	-0.190663
C64	C	1.527027	-0.201967	0.309337
C65	C	1.089641	-0.662343	-0.128097
C66	C	1.589641	-0.162343	0.371903
C67	C	1.258209	0.000005	-0.121649
C68	C	1.758209	0.500005	0.378351
C69	C	1.360589	0.000009	-0.123645
C70	C	1.860589	0.500009	0.376355
C71	C	1.096067	-0.000003	0.040507
C72	C	1.596067	0.499997	0.540507
C73	C	1.094079	-0.000003	0.142889
C74	C	1.594079	0.499997	0.642889
N75	N	1.089648	0.179167	-0.128095
N76	N	1.589648	0.679167	0.371905
C77	C	1.083157	0.000013	-0.296688
C78	C	1.583157	0.500013	0.203312
C79	C	1.085146	0.000018	-0.399070
C80	C	1.585146	0.500018	0.100930
C81	C	1.086759	0.000016	0.517785
C82	C	1.586759	0.500016	1.017785
C83	C	1.088792	0.000011	0.413477
C84	C	1.588792	0.500011	0.913477
C85	C	1.090419	0.000006	0.330340
C86	C	1.590419	0.500006	0.830340
C87	C	1.092452	0.000001	0.226025
C88	C	1.592452	0.500001	0.726025
H89	H	1.203178	-0.186513	-0.014575
H90	H	1.703178	0.313487	0.485425
O91	O	1.213111	-0.336394	-0.004708
O92	O	1.713111	0.163606	0.495292
C93	C	1.337267	-0.328029	0.119451
C94	C	1.837267	0.171971	0.619451
C95	C	1.268357	-0.284480	0.050617
C96	C	1.768357	0.215520	0.550617
H97	H	1.381939	-0.286076	0.164213
H98	H	1.881939	0.213924	0.664213
H99	H	1.383465	-0.365096	0.079574
H100	H	1.883465	0.134904	0.579574
H101	H	1.297361	-0.365164	0.165569
H102	H	1.797361	0.134836	0.665569
H103	H	1.308188	-0.247304	0.004482
H104	H	1.808188	0.252696	0.504482
H105	H	1.222160	-0.247461	0.090552
H106	H	1.722160	0.252539	0.590552
H107	H	0.976009	-0.330301	-0.241591
H108	H	1.476009	0.169699	0.258409
O109	O	0.966114	-0.180416	-0.251509
O110	O	1.466114	0.319584	0.248491
C111	C	0.841878	-0.188786	-0.375588
C112	C	1.341878	0.311214	0.124412
C113	C	0.910759	-0.232332	-0.306722
C114	C	1.410759	0.267668	0.193278
H115	H	0.797093	-0.230741	-0.420233
H116	H	1.297093	0.269259	0.079767
H117	H	0.881716	-0.151694	-0.421816
H118	H	1.381716	0.348306	0.078184
H119	H	0.795787	-0.151677	-0.335645
H120	H	1.295787	0.348323	0.164355
H121	H	0.956868	-0.269482	-0.346590
H122	H	1.456868	0.230518	0.153410
H123	H	0.870864	-0.269377	-0.260495
H124	H	1.370864	0.230623	0.239505
H125	H	1.203231	-0.669695	-0.014584
H126	H	1.703231	-0.169695	0.485416
O127	O	0.966125	-0.663446	-0.251315
O128	O	1.466125	-0.163446	0.248685
C129	C	0.840250	-0.573957	-0.270663
C130	C	1.340250	-0.073957	0.229337
C131	C	0.909157	-0.617548	-0.201871
C132	C	1.409157	-0.117548	0.298129
H133	H	0.794187	-0.536826	-0.230715
H134	H	1.294187	-0.036826	0.269285
H135	H	0.795441	-0.615856	-0.315375
H136	H	1.295441	-0.115856	0.184625
H137	H	0.880160	-0.536877	-0.316838
H138	H	1.380160	-0.036877	0.183162
H139	H	0.869322	-0.654629	-0.155636
H140	H	1.369322	-0.154629	0.344364
H141	H	0.953965	-0.575608	-0.157224
H142	H	1.453965	-0.075608	0.342776
H143	H	1.203232	-0.813460	-0.014580
H144	H	1.703232	-0.313460	0.485420
H145	H	0.976058	-0.813482	-0.241606
H146	H	1.476058	-0.313482	0.258394
