data_functionalizedCrystal
_audit_creation_method	'MofGen! by Chris Wilmer'
_symmetry_space_group_name_H-M	'P1'
_symmetry_Int_Tables_number	1
_symmetry_cell_setting	triclinic
loop_
_symmetry_equiv_pos_as_xyz
  x,y,z
_cell_length_a	6.817900
_cell_length_b	17.284796
_cell_length_c	16.255661
_cell_angle_alpha	92.022174
_cell_angle_beta	103.488922
_cell_angle_gamma	103.042616
loop_
_atom_site_label
_atom_site_type_symbol
_atom_site_fract_x
_atom_site_fract_y
_atom_site_fract_z
V1	V	-4.019767	-0.109678	-0.256621
O2	O	-4.014483	0.004615	-0.259153
O3	O	-3.964533	-0.216842	-0.247732
O4	O	-3.971418	-0.108278	-0.371797
O5	O	-4.007550	-0.104701	-0.134230
V6	V	-4.504274	-0.095973	-0.242849
O7	O	-4.278867	-0.139740	-0.286832
O8	O	-4.695371	-0.065911	-0.212638
O9	O	-4.336301	0.011192	-0.251737
O10	O	-4.626955	-0.210266	-0.240317
O11	O	-4.633887	-0.100950	-0.365240
O12	O	-4.329417	-0.097373	-0.127673
C13	C	-3.807870	-0.242958	-0.241843
C14	C	-3.843997	-0.330568	-0.235344
C15	C	-3.816651	-0.104472	-0.400099
C16	C	-3.858358	-0.104037	-0.494209
C17	C	-4.042949	-0.822479	-0.190443
C18	C	-4.009021	-0.740162	-0.196565
C19	C	-4.031578	-0.710455	-0.276372
C20	C	-4.088046	-0.763070	-0.350063
C21	C	-4.121958	-0.845385	-0.343941
C22	C	-3.934377	-0.465498	-0.302912
C23	C	-3.900465	-0.383176	-0.309029
C24	C	-3.821439	-0.360274	-0.155530
C25	C	-3.855368	-0.442592	-0.149415
C26	C	-3.911822	-0.495199	-0.223105
N27	N	-3.996905	-0.626315	-0.282631
N28	N	-3.946479	-0.579338	-0.216845
C29	C	-3.769244	-0.098838	-0.717371
C30	C	-3.921411	-0.165941	-0.782412
C31	C	-3.934794	-0.103221	-0.666511
C32	C	-3.856966	-0.035350	-0.769159
C33	C	-4.008612	-0.102429	-0.832947
C34	C	-4.086439	-0.170384	-0.730318
C35	C	-4.021936	-0.039734	-0.717054
C36	C	-4.174239	-0.106856	-0.782074
C37	C	-3.892264	-0.103678	-0.570632
C38	C	-4.051159	-0.101978	-0.928826
C39	C	-4.156306	0.037303	-0.257624
C40	C	-4.099418	0.124913	-0.264129
C41	C	-4.147526	-0.101181	-0.099366
C42	C	-4.085057	-0.101612	-0.005256
H43	H	-4.024586	-0.846660	-0.125455
N44	N	-3.923475	-0.352817	-0.390548
N45	N	-3.893198	-0.279320	-0.395999
H46	H	-3.909451	-0.257876	-0.453568
H47	H	-3.963048	-0.697331	-0.136562
N48	N	-4.111073	-0.732741	-0.431592
N49	N	-4.000685	-0.746486	-0.479238
H50	H	-4.016952	-0.725068	-0.536820
N51	N	-3.992051	-0.519216	-0.378191
N52	N	-4.012196	-0.492679	-0.449441
H53	H	-4.052938	-0.530621	-0.502612
H54	H	-3.837002	-0.466773	-0.084427
H55	H	-3.760344	0.021703	-0.786540
N56	N	-3.868699	-0.232874	-0.818265
N57	N	-4.005019	-0.283546	-0.870427
H58	H	-3.967782	-0.330816	-0.895748
N59	N	-3.554041	-0.094675	-0.681903
N60	N	-3.418615	-0.036559	-0.692745
H61	H	-3.266631	-0.033620	-0.667694
N62	N	-4.207626	-0.242047	-0.708680
N63	N	-4.194861	-0.253970	-0.632424
H64	H	-4.280443	-0.304582	-0.617139
H65	H	-3.775469	-0.317433	-0.095535
N66	N	-4.074561	0.027202	-0.681173
N67	N	-4.052115	0.037211	-0.602689
H68	H	-4.089262	0.084490	-0.577343
N69	N	-4.389583	-0.111134	-0.817344
N70	N	-4.524539	-0.169845	-0.807374
H71	H	-4.676628	-0.172870	-0.832285
N72	N	-4.179614	-0.899114	-0.419217
N73	N	-4.199738	-0.872582	-0.490469
H74	H	-4.240445	-0.910527	-0.543636
