data_functionalizedCrystal
_audit_creation_method	'MofGen! by Chris Wilmer'
_symmetry_space_group_name_H-M	'P1'
_symmetry_Int_Tables_number	1
_symmetry_cell_setting	triclinic
loop_
_symmetry_equiv_pos_as_xyz
  x,y,z
_cell_length_a	8.559649
_cell_length_b	11.026607
_cell_length_c	7.088929
_cell_angle_alpha	82.408099
_cell_angle_beta	95.325015
_cell_angle_gamma	89.182341
loop_
_atom_site_label
_atom_site_type_symbol
_atom_site_fract_x
_atom_site_fract_y
_atom_site_fract_z
O1	O	2.096118	-0.026458	-0.158957
O2	O	1.648469	0.034577	-0.158966
O3	O	1.835194	-0.169136	-0.158955
O4	O	1.909394	0.177256	-0.158968
O5	O	1.860132	-0.196415	0.159021
O6	O	1.673407	0.007298	0.159011
O7	O	2.121056	-0.053737	0.159019
Cu8	Cu	1.899509	-0.025710	0.188049
Cu9	Cu	1.870017	0.006551	-0.187995
O10	O	1.934332	0.149977	0.159009
C11	C	1.602739	0.025563	0.000021
C12	C	1.429319	0.039332	0.000018
C13	C	1.833974	-0.226711	0.000030
C14	C	1.793166	-0.357621	0.000023
C15	C	1.905841	-0.441927	0.000022
C16	C	1.863667	-0.577231	0.000014
C17	C	2.166786	-0.044723	0.000028
C18	C	2.340205	-0.058490	0.000019
C19	C	1.935551	0.207551	0.000019
C20	C	1.976358	0.338463	0.000014
N21	N	1.920263	-0.048402	0.452538
N22	N	1.849272	0.029232	-0.452485
H23	H	1.372932	0.133621	0.000004
O24	O	1.407612	-0.170888	-0.000231
C25	C	1.488194	-0.170706	-0.164937
H26	H	1.518927	-0.072918	-0.219845
H27	H	1.600514	-0.229172	-0.127896
H28	H	1.410304	-0.209880	-0.280253
O29	O	2.058102	-0.408346	0.000113
C30	C	2.066311	-0.280725	0.000067
H31	H	1.957851	-0.245743	0.060263
H32	H	2.176020	-0.259230	0.092388
H33	H	2.071701	-0.234005	-0.152482
H34	H	1.993858	-0.128853	0.534198
O35	O	1.711410	-0.610820	0.000089
C36	C	1.703193	-0.738432	0.000029
H37	H	1.821093	-0.783747	0.060231
H38	H	1.607960	-0.775773	0.092337
H39	H	1.673881	-0.758966	-0.152525
O40	O	2.128775	-0.628368	-0.000061
C41	C	2.225351	-0.733033	-0.000009
H42	H	2.153061	-0.807612	-0.060215
H43	H	2.325479	-0.708559	-0.092318
H44	H	2.275609	-0.767562	0.152543
O45	O	1.640868	-0.391128	-0.000241
C46	C	1.597641	-0.446511	-0.164955
H47	H	1.707226	-0.483812	-0.219858
H48	H	1.515426	-0.524719	-0.127927
H49	H	1.535316	-0.375789	-0.280269
O50	O	1.761699	0.125259	0.449910
C51	C	1.857111	0.200206	0.334142
H52	H	1.962926	0.144263	0.304328
H53	H	1.786597	0.236983	0.193313
H54	H	1.898963	0.279973	0.411166
