data_functionalizedCrystal
_audit_creation_method	'MofGen! by Chris Wilmer'
_symmetry_space_group_name_H-M	'P1'
_symmetry_Int_Tables_number	1
_symmetry_cell_setting	triclinic
loop_
_symmetry_equiv_pos_as_xyz
  x,y,z
_cell_length_a	14.908571
_cell_length_b	17.640280
_cell_length_c	14.908308
_cell_angle_alpha	97.330278
_cell_angle_beta	89.824947
_cell_angle_gamma	74.921313
loop_
_atom_site_label
_atom_site_type_symbol
_atom_site_fract_x
_atom_site_fract_y
_atom_site_fract_z
Zn1	Zn	1.445833	-0.413045	0.498174
Zn2	Zn	1.484886	-0.538235	0.320716
Zn3	Zn	1.300448	-0.397842	0.342463
Zn4	Zn	1.325685	-0.537295	0.462571
O5	O	1.389213	-0.471604	0.405981
O6	O	1.578484	-0.436407	0.480433
O7	O	1.466202	-0.513643	0.199068
O8	O	1.292829	-0.289105	0.387120
O9	O	1.607176	-0.528384	0.350055
O10	O	1.399643	-0.300274	0.501520
O11	O	1.330696	-0.410497	0.215045
O12	O	1.176326	-0.409585	0.352597
O13	O	1.335841	-0.526782	0.591827
O14	O	1.194867	-0.512041	0.440840
O15	O	1.424113	-0.435496	0.617984
O16	O	1.490673	-0.648865	0.315532
O17	O	1.373708	-0.648174	0.419752
C18	C	1.152545	-0.459062	0.395215
C19	C	1.051300	-0.453716	0.390626
C20	C	0.880453	-0.550508	0.473704
C21	C	0.785325	-0.545487	0.469395
C22	C	0.765915	-0.438653	0.377705
C23	C	0.861043	-0.443673	0.382014
C24	C	0.918309	-0.499603	0.430014
C25	C	1.013439	-0.504626	0.434317
C26	C	0.994026	-0.397788	0.342633
C27	C	0.898899	-0.392768	0.338324
C28	C	1.439191	-0.677239	0.361439
C29	C	1.460653	-0.765216	0.342418
C30	C	1.226523	-1.052872	0.550826
C31	C	1.246694	-1.135539	0.532924
C32	C	1.368555	-1.136202	0.424518
C33	C	1.348398	-1.053534	0.442414
C34	C	1.277380	-1.011876	0.505568
C35	C	1.399256	-1.012538	0.397156
C36	C	1.379096	-0.929876	0.415047
C37	C	1.308080	-0.888212	0.478197
C38	C	1.257221	-0.929214	0.523460
C39	C	1.470269	-1.054197	0.333997
C40	C	1.521126	-1.013201	0.288739
C41	C	1.500972	-0.930538	0.306635
C42	C	1.429955	-0.888874	0.369784
C43	C	1.551830	-0.889536	0.261372
C44	C	1.531671	-0.806875	0.279264
C45	C	1.409796	-0.806213	0.387676
C46	C	1.626806	-0.484197	0.416790
C47	C	1.728054	-0.489563	0.421396
C48	C	1.378436	-0.482730	0.638098
C49	C	1.373843	-0.487470	0.737013
C50	C	1.339064	-0.265169	0.450717
C51	C	1.317694	-0.177199	0.469781
C52	C	1.399987	-0.460468	0.174782
C53	C	1.404702	-0.455514	0.075924
C54	C	1.457124	-0.401304	0.950127
C55	C	1.452812	-0.405756	1.043067
C56	C	1.360899	-0.500821	1.015834
C57	C	1.365212	-0.496369	0.922895
C58	C	1.413328	-0.446610	0.890045
C59	C	1.417646	-0.442163	0.797102
C60	C	1.325728	-0.537224	0.769872
C61	C	1.321415	-0.541675	0.862812
H62	H	0.852260	-0.347230	0.299247
C63	C	1.035275	-0.342647	0.295119
C64	C	1.103418	-0.387532	0.230797
C65	C	1.141445	-0.336767	0.187015
H66	H	0.987645	-0.308604	0.265840
H67	H	1.062494	-0.311813	0.338335
H68	H	1.076199	-0.418352	0.187587
H69	H	1.151065	-0.421572	0.260051
H70	H	1.168663	-0.305933	0.230231
H71	H	1.093809	-0.302727	0.157742
H72	H	1.187690	-0.367214	0.143374
H73	H	1.426376	-1.170132	0.373095
H74	H	1.351972	-0.772293	0.439109
C75	C	1.286192	-0.798455	0.497436
C76	C	1.260320	-0.765844	0.417548
C77	C	1.240162	-0.683164	0.435234
H78	H	1.236596	-0.779412	0.541483
H79	H	1.339678	-0.783533	0.519563
H80	H	1.206840	-0.780760	0.395433
H81	H	1.309903	-0.784864	0.373490
H82	H	1.293648	-0.668242	0.457362
H83	H	1.190568	-0.664130	0.479283
H84	H	1.222613	-0.661028	0.381032
C85	C	1.180062	-0.884117	0.592041
C86	C	1.139827	-0.937710	0.627845
C87	C	1.068746	-0.896195	0.691016
H88	H	1.205111	-0.855543	0.639480
H89	H	1.134077	-0.848182	0.563158
H90	H	1.185804	-0.973631	0.656728
H91	H	1.114759	-0.966285	0.580428
H92	H	1.022760	-0.860260	0.662133
H93	H	1.093802	-0.867622	0.738449
H94	H	1.041432	-0.932550	0.715310
C95	C	1.469733	-0.388001	0.761506
C96	C	1.429798	-0.309725	0.800163
C97	C	1.477746	-0.259805	0.767389
H98	H	1.533052	-0.403446	0.776999
H99	H	1.466012	-0.391782	0.697552
H100	H	1.433528	-0.305948	0.864103
H101	H	1.366484	-0.294257	0.784673
H102	H	1.474025	-0.263585	0.703434
H103	H	1.541063	-0.275256	0.782884
H104	H	1.450652	-0.206688	0.793606
H105	H	0.927081	-0.596052	0.512781
H106	H	1.168699	-1.018953	0.602260
C107	C	0.703846	-0.377974	0.325465
C108	C	0.735194	-0.392057	0.234719
C109	C	0.678038	-0.336168	0.186578
H110	H	0.641755	-0.382228	0.329064
H111	H	0.705916	-0.326249	0.350759
H112	H	0.733115	-0.443768	0.209431
H113	H	0.797278	-0.387796	0.231092
H114	H	0.680108	-0.284444	0.211873
H115	H	0.615950	-0.340427	0.190185
H116	H	0.699305	-0.345711	0.125004
H117	H	0.754507	-0.586938	0.504973
C118	C	1.586910	-0.762269	0.230297
C119	C	1.631303	-0.720253	0.293671
C120	C	1.682185	-0.679146	0.248592
H121	H	1.632159	-0.798832	0.190128
H122	H	1.546055	-0.726307	0.196907
H123	H	1.672154	-0.756211	0.327046
H124	H	1.586076	-0.683677	0.333842
H125	H	1.641330	-0.643184	0.215202
H126	H	1.727429	-0.715715	0.208425
H127	H	1.712305	-0.650628	0.291585
C128	C	1.509219	-0.347152	0.914522
C129	C	1.469301	-0.268871	0.953174
C130	C	1.517259	-0.218963	0.920389
H131	H	1.572539	-0.362604	0.930011
H132	H	1.505493	-0.350936	0.850568
H133	H	1.473035	-0.265090	1.017114
H134	H	1.405985	-0.253395	0.937689
H135	H	1.513533	-0.222747	0.856435
H136	H	1.580577	-0.234422	0.935879
H137	H	1.490176	-0.165844	0.946603
H138	H	1.488473	-0.368861	1.091984
H139	H	1.205284	-1.168916	0.569795
C140	C	1.278334	-0.586466	0.704525
C141	C	1.344709	-0.637359	0.642511
C142	C	1.301086	-0.682726	0.582294
H143	H	1.249066	-0.616804	0.737288
H144	H	1.232992	-0.552374	0.672966
H145	H	1.390035	-0.671446	0.674067
H146	H	1.373981	-0.607041	0.609727
H147	H	1.255744	-0.648634	0.550735
H148	H	1.271820	-0.713059	0.615065
H149	H	1.346114	-0.717257	0.540206
C150	C	1.308729	-0.554810	1.051685
C151	C	1.314337	-0.549014	1.145936
C152	C	1.266292	-0.598739	1.178992
H153	H	1.245391	-0.539300	1.036269
H154	H	1.335687	-0.607990	1.025597
H155	H	1.287376	-0.495846	1.172014
H156	H	1.377663	-0.564530	1.161376
H157	H	1.293250	-0.651919	1.152905
H158	H	1.202957	-0.583225	1.163571
H159	H	1.270098	-0.594819	1.242944
H160	H	1.486682	-1.121505	0.319435
C161	C	1.598212	-1.058578	0.220226
C162	C	1.604991	-1.139745	0.214250
C163	C	1.675996	-1.181569	0.151148
H164	H	1.584481	-1.041569	0.162697
H165	H	1.655519	-1.048908	0.239015
H166	H	1.547696	-1.149410	0.195456
H167	H	1.618735	-1.156777	0.271763
H168	H	1.733304	-1.171899	0.169938
H169	H	1.662259	-1.164554	0.093624
H170	H	1.680611	-1.236646	0.147092
C171	C	1.075537	-0.565252	0.486600
C172	C	1.044178	-0.551117	0.577345
C173	C	1.101364	-0.606942	0.625542
H174	H	1.073522	-0.616999	0.461379
H175	H	1.137618	-0.560950	0.482972
H176	H	0.982113	-0.555426	0.580968
H177	H	1.046197	-0.499381	0.602592
H178	H	1.163445	-0.602641	0.621914
H179	H	1.099345	-0.658686	0.600313
H180	H	1.080101	-0.597355	0.687119
C181	C	1.629046	-0.934683	0.192882
C182	C	1.713337	-0.920211	0.220779
C183	C	1.784484	-0.961780	0.157701
H184	H	1.633889	-0.989799	0.188654
H185	H	1.615292	-0.917568	0.135395
H186	H	1.727088	-0.937331	0.278251
H187	H	1.708524	-0.865104	0.225001
H188	H	1.770730	-0.944665	0.100214
H189	H	1.789319	-1.016894	0.153478
H190	H	1.841682	-0.951961	0.176616
C191	C	1.269270	-0.595825	0.898345
C192	C	1.309173	-0.674097	0.859657
C193	C	1.261156	-0.724002	0.892357
H194	H	1.272941	-0.592092	0.962289
H195	H	1.205957	-0.580321	0.882808
H196	H	1.372471	-0.689597	0.875200
H197	H	1.305503	-0.677855	0.795715
H198	H	1.197842	-0.708498	0.876820
H199	H	1.264829	-0.720263	0.956301
H200	H	1.288217	-0.777115	0.866106
