data_functionalizedCrystal
_audit_creation_method	'MofGen! by Chris Wilmer'
_symmetry_space_group_name_H-M	'P1'
_symmetry_Int_Tables_number	1
_symmetry_cell_setting	triclinic
loop_
_symmetry_equiv_pos_as_xyz
  x,y,z
_cell_length_a	15.625110
_cell_length_b	15.538191
_cell_length_c	11.295483
_cell_angle_alpha	92.465302
_cell_angle_beta	103.913491
_cell_angle_gamma	66.740235
loop_
_atom_site_label
_atom_site_type_symbol
_atom_site_fract_x
_atom_site_fract_y
_atom_site_fract_z
O1	O	1.124183	0.147669	0.386503
O2	O	0.866086	0.155181	0.275034
O3	O	1.045375	0.015752	0.352461
O4	O	0.944893	0.287099	0.309075
O5	O	1.029634	0.027979	0.543714
O6	O	0.850344	0.167408	0.466287
O7	O	1.108441	0.159896	0.577756
Cu8	Cu	0.977956	0.164769	0.539484
Cu9	Cu	0.996571	0.150309	0.313305
O10	O	0.929152	0.299326	0.500328
C11	C	0.825989	0.159741	0.356742
C12	C	0.729971	0.155099	0.315273
C13	C	1.048018	-0.012926	0.452624
C14	C	1.079334	-0.116592	0.466137
C15	C	0.603216	0.141892	0.152578
C16	C	0.693439	0.146255	0.191557
C17	C	0.676285	0.159588	0.400056
C18	C	0.586057	0.155232	0.361094
C19	C	0.549530	0.146383	0.237353
C20	C	0.532371	0.159722	0.445869
C21	C	0.442152	0.155361	0.406910
C22	C	0.405620	0.146510	0.283175
C23	C	0.459312	0.142022	0.198394
C24	C	0.568902	0.168565	0.569610
C25	C	0.515216	0.173055	0.654385
C26	C	0.424993	0.168701	0.615425
C27	C	0.388461	0.159849	0.491691
C28	C	0.371302	0.173188	0.700206
C29	C	0.281083	0.168827	0.661247
C30	C	0.298243	0.155488	0.452732
C31	C	0.768227	-0.413400	0.331800
C32	C	0.797674	-0.510812	0.344520
C33	C	0.963306	-0.528453	0.416054
C34	C	0.933874	-0.431041	0.403334
C35	C	0.836333	-0.373522	0.361208
C36	C	1.001980	-0.391163	0.432742
C37	C	0.972549	-0.293759	0.420029
C38	C	0.875012	-0.236233	0.377908
C39	C	0.806902	-0.276118	0.348495
C40	C	1.099520	-0.448684	0.474877
C41	C	1.167625	-0.408805	0.504285
C42	C	1.138196	-0.311400	0.491563
C43	C	1.040659	-0.253874	0.449442
C44	C	1.206305	-0.271516	0.520977
C45	C	1.176875	-0.174112	0.508264
C46	C	1.011228	-0.156470	0.436729
C47	C	1.148538	0.155337	0.496045
C48	C	1.244557	0.159978	0.537507
C49	C	0.926509	0.328003	0.400163
C50	C	0.895194	0.431669	0.386642
N51	N	0.964869	0.174939	0.698569
N52	N	1.009667	0.140132	0.154225
C53	C	1.103890	0.066871	1.007896
C54	C	1.094005	0.074563	1.128290
C55	C	0.935209	0.198010	1.059753
C56	C	0.945095	0.190318	0.939359
C57	C	1.029439	0.124747	0.913436
C58	C	1.039327	0.117060	0.793040
C59	C	0.880530	0.240502	0.724505
C60	C	0.870644	0.248194	0.844899
H61	H	0.268496	0.148293	0.351968
N62	N	1.194841	-0.003854	0.979901
H63	H	1.226094	0.029756	0.941656
H64	H	1.240446	-0.039342	1.058046
H65	H	0.851051	-0.156921	0.367564
H66	H	0.332158	0.142960	0.251457
H67	H	0.573469	0.134698	0.051814
H68	H	0.544970	0.180256	0.755136
H69	H	0.237363	0.172501	0.730277
N70	N	0.419897	0.132494	0.064928
H71	H	0.467593	0.130317	0.017127
H72	H	0.408325	0.072774	0.055225
N73	N	1.174311	0.012147	1.230173
H74	H	1.197356	0.052150	1.291837
H75	H	1.150078	-0.026962	1.271371
H76	H	0.737145	0.142603	0.122512
N77	N	1.272826	-0.470850	0.549704
H78	H	1.311505	-0.430804	0.566401
H79	H	1.282816	-0.507113	0.627439
N80	N	0.715677	0.169143	0.533513
H81	H	0.721712	0.113685	0.583327
H82	H	0.780953	0.171254	0.545224
H83	H	0.727476	-0.229282	0.314183
N84	N	0.844239	0.268716	1.087723
H85	H	0.849275	0.264799	1.178326
H86	H	0.834900	0.333889	1.061913
H87	H	0.931801	-0.109635	0.402417
N88	N	0.666210	0.173266	0.611630
H89	H	0.665820	0.229321	0.569080
H90	H	0.681151	0.179509	0.702888
N91	N	0.779674	0.318909	0.872862
H92	H	0.784707	0.314999	0.963465
H93	H	0.770346	0.384077	0.847047
N94	N	0.663027	-0.351337	0.286362
H95	H	0.637768	-0.368955	0.202035
H96	H	0.626172	-0.359913	0.343911
H97	H	0.742205	-0.543275	0.320586
H98	H	0.819908	0.287631	0.647580
H99	H	1.042724	-0.575298	0.450358
N100	N	1.130282	0.046321	0.765073
H101	H	1.125249	0.050225	0.674469
H102	H	1.186851	0.060253	0.811268
N103	N	0.410707	0.182723	0.833665
H104	H	0.476008	0.184800	0.845482
H105	H	0.365707	0.242496	0.861375
H106	H	1.123480	-0.527996	0.485216
H107	H	1.232333	-0.141642	0.532212
N108	N	1.311502	-0.333565	0.566428
H109	H	1.333243	-0.378913	0.502407
H110	H	1.350113	-0.293458	0.583146
