data_functionalizedCrystal
_audit_creation_method	'MofGen! by Chris Wilmer'
_symmetry_space_group_name_H-M	'P1'
_symmetry_Int_Tables_number	1
_symmetry_cell_setting	triclinic
loop_
_symmetry_equiv_pos_as_xyz
  x,y,z
_cell_length_a	10.540554
_cell_length_b	14.472310
_cell_length_c	10.540539
_cell_angle_alpha	90.001155
_cell_angle_beta	84.528390
_cell_angle_gamma	89.989094
loop_
_atom_site_label
_atom_site_type_symbol
_atom_site_fract_x
_atom_site_fract_y
_atom_site_fract_z
O1	O	-1.685893	0.076791	-0.178978
O2	O	-1.316483	0.076802	-0.195815
O3	O	-1.509616	0.076795	-0.002690
O4	O	-1.492760	0.076798	-0.372102
O5	O	-1.509566	-0.076887	-0.002701
O6	O	-1.316433	-0.076880	-0.195826
O7	O	-1.685843	-0.076891	-0.178988
Cu8	Cu	-1.501133	-0.090918	-0.187408
Cu9	Cu	-1.501193	0.090829	-0.187395
O10	O	-1.492710	-0.076884	-0.372113
C11	C	-1.269155	-0.000038	-0.194554
C12	C	-1.128208	-0.000033	-0.190765
N13	N	-1.501101	-0.218749	-0.187416
C14	C	-1.091538	-0.000038	-0.049748
C15	C	-0.944938	-0.000396	-0.045761
C16	C	-0.918845	-0.087633	-0.255127
C17	C	-1.065609	-0.087697	-0.258138
C18	C	-1.065550	0.087074	-0.260177
C19	C	-0.919205	0.088216	-0.253645
C20	C	-1.501191	-0.592840	-0.187390
C21	C	-1.397496	-0.553671	-0.290374
C22	C	-1.397741	-0.446583	-0.290756
C23	C	-1.501145	-0.407249	-0.187403
C24	C	-1.633863	-0.446090	-0.217541
C25	C	-1.633282	-0.553212	-0.218275
C26	C	-1.473347	-0.553370	-0.053971
C27	C	-1.470317	-0.446242	-0.054831
C28	C	-1.501128	-0.302361	-0.187408
C29	C	-1.501217	-0.697728	-0.187388
C30	C	-0.733173	-0.000051	-0.180233
C31	C	-0.874126	-0.000051	-0.183972
C32	C	-1.508327	-0.000044	0.044608
C33	C	-1.504545	-0.000039	0.185556
N34	N	-1.501235	0.218660	-0.187377
C35	C	-1.493999	-0.000043	-0.419411
C36	C	-1.497781	-0.000042	-0.560359
C37	C	-1.359629	0.000310	0.368990
C38	C	-1.363462	-0.000036	0.222372
C39	C	-1.572412	-0.087801	0.247204
C40	C	-1.567597	-0.087875	0.393749
C41	C	-1.570523	0.086890	0.394279
C42	C	-1.571823	0.088050	0.247297
H43	H	-1.133526	0.062760	0.004404
O44	O	-1.149069	-0.083109	0.020782
H45	H	-1.071877	-0.126187	0.054499
O46	O	-1.420885	-0.589310	-0.420755
H47	H	-1.437222	-0.530122	-0.484159
H48	H	-1.524883	0.153408	0.425839
O49	O	-1.701985	-0.093182	0.457300
H50	H	-1.757126	-0.032538	0.428734
H51	H	-0.871488	-0.090643	-0.356890
O52	O	-1.118803	-0.174748	-0.194499
H53	H	-1.169040	-0.215525	-0.263549
H54	H	-0.916465	-0.063551	0.009605
H55	H	-0.915621	0.062373	0.009887
O56	O	-1.666862	-0.410550	-0.345019
H57	H	-1.678814	-0.469800	-0.409675
O58	O	-1.096133	-0.092650	-0.395064
H59	H	-1.006099	-0.094997	-0.458839
H60	H	-1.298567	-0.579456	-0.272521
O61	O	-0.877926	-0.174311	-0.190462
H62	H	-0.825752	-0.155235	-0.107661
O63	O	-1.708079	0.095066	0.215216
H64	H	-1.752707	0.157948	0.260245
H65	H	-1.522166	0.152974	0.206446
H66	H	-1.108030	0.153482	-0.216173
H67	H	-1.548952	-0.578699	0.022681
O68	O	-0.881336	0.174052	-0.185080
H69	H	-0.831328	0.153934	-0.101260
H70	H	-0.870159	0.093777	-0.354515
H71	H	-1.087735	0.087922	-0.363930
H72	H	-1.540845	-0.419471	0.025489
O73	O	-1.267115	-0.411787	-0.266762
H74	H	-1.203198	-0.471473	-0.254785
H75	H	-1.415647	-0.420948	-0.389739
O76	O	-1.347832	-0.589196	-0.015995
H77	H	-1.330403	-0.560375	0.078372
O78	O	-1.705503	0.087683	0.456831
H79	H	-1.720769	0.026499	0.519930
O80	O	-1.665544	-0.586305	-0.347205
H81	H	-1.593502	-0.559805	-0.422051
H82	H	-1.712918	-0.579121	-0.146288
O83	O	-1.709647	-0.092147	0.217581
H84	H	-1.730986	-0.031658	0.158459
O85	O	-1.340981	-0.412635	-0.024565
H86	H	-1.298824	-0.368337	-0.103600
O87	O	-1.738596	-0.412345	-0.120904
H88	H	-1.697066	-0.367419	-0.050205
H89	H	-1.310059	0.062875	0.179776
O90	O	-1.285806	0.083660	0.406899
H91	H	-1.346785	0.125726	0.476506
H92	H	-1.304104	-0.062270	0.399196
H93	H	-1.309644	-0.063049	0.180614
H94	H	-1.517398	-0.153476	0.421946
H95	H	-1.525227	-0.153108	0.204602
