data_functionalizedCrystal
_audit_creation_method	'MofGen! by Chris Wilmer'
_symmetry_space_group_name_H-M	'P1'
_symmetry_Int_Tables_number	1
_symmetry_cell_setting	triclinic
loop_
_symmetry_equiv_pos_as_xyz
  x,y,z
_cell_length_a	6.817900
_cell_length_b	14.858565
_cell_length_c	14.858340
_cell_angle_alpha	94.732201
_cell_angle_beta	104.519754
_cell_angle_gamma	104.523916
loop_
_atom_site_label
_atom_site_type_symbol
_atom_site_fract_x
_atom_site_fract_y
_atom_site_fract_z
V1	V	-4.043518	-0.129264	-0.290221
V2	V	-3.710185	0.204070	0.043112
V3	V	-3.376851	0.537403	0.376446
O4	O	-4.025342	0.005601	-0.284429
O5	O	-3.692009	0.338935	0.048904
O6	O	-3.358676	0.672268	0.382237
O7	O	-4.000085	-0.255721	-0.288493
O8	O	-3.666752	0.077612	0.044841
O9	O	-3.333419	0.410946	0.378174
O10	O	-4.000069	-0.127543	-0.416679
O11	O	-3.666736	0.205790	-0.083346
O12	O	-3.333402	0.539124	0.249988
O13	O	-4.025358	-0.123464	-0.155355
O14	O	-3.692025	0.209869	0.177978
O15	O	-3.358692	0.543203	0.511311
V16	V	-4.525861	-0.113101	-0.274059
V17	V	-4.192527	0.220233	0.059275
V18	V	-3.859194	0.553566	0.392608
O19	O	-4.307365	-0.164719	-0.325674
O20	O	-3.974032	0.168615	0.007659
O21	O	-3.640699	0.501948	0.340993
O22	O	-4.712211	-0.077646	-0.238606
O23	O	-4.378877	0.255688	0.094728
O24	O	-4.045544	0.589021	0.428061
O25	O	-4.346087	0.013357	-0.275787
O26	O	-4.012754	0.346690	0.057546
O27	O	-3.679420	0.680024	0.390880
O28	O	-4.661433	-0.247965	-0.279850
O29	O	-4.328100	0.085368	0.053483
O30	O	-3.994767	0.418701	0.386817
O31	O	-4.661417	-0.118900	-0.408924
O32	O	-4.328084	0.214433	-0.075591
O33	O	-3.994751	0.547766	0.257743
O34	O	-4.346103	-0.114821	-0.147600
O35	O	-4.012770	0.218512	0.185733
O36	O	-3.679436	0.551846	0.519066
C37	C	-3.846134	-0.286540	-0.283980
C38	C	-3.512801	0.046793	0.049353
C39	C	-3.179467	0.380126	0.382686
C40	C	-3.891942	-0.389923	-0.283410
C41	C	-3.558609	-0.056589	0.049923
C42	C	-3.225276	0.276744	0.383256
C43	C	-3.846113	-0.123035	-0.447494
C44	C	-3.512779	0.210298	-0.114161
C45	C	-3.179446	0.543631	0.219173
C46	C	-3.891905	-0.122465	-0.550876
C47	C	-3.558571	0.210868	-0.217543
C48	C	-3.225238	0.544201	0.115791
C49	C	-3.929091	-0.122001	-0.634833
C50	C	-3.595757	0.211332	-0.301500
C51	C	-3.262424	0.544665	0.031833
C52	C	-3.975757	-0.121415	-0.740161
C53	C	-3.642424	0.211918	-0.406828
C54	C	-3.309090	0.545251	-0.073495
C55	C	-4.012967	-0.120948	-0.824112
C56	C	-3.679634	0.212385	-0.490779
C57	C	-3.346300	0.545718	-0.157445
C58	C	-4.059638	-0.120364	-0.929447
C59	C	-3.726305	0.212969	-0.596114
C60	C	-3.392971	0.546303	-0.262780
C61	C	-4.059607	-0.768489	-0.281336
C62	C	-3.726273	-0.435156	0.051998
C63	C	-3.392940	-0.101823	0.385331
C64	C	-4.012949	-0.663160	-0.281912
C65	C	-3.679616	-0.329827	0.051421
C66	C	-3.346282	0.003506	0.384754
C67	C	-3.975775	-0.579209	-0.282372
C68	C	-3.642442	-0.245876	0.050961
C69	C	-3.309109	0.087458	0.384295
C70	C	-3.929116	-0.473874	-0.282951
C71	C	-3.595783	-0.140540	0.050383
C72	C	-3.262449	0.192793	0.383716
C73	C	-4.163380	0.044171	-0.280297
C74	C	-3.830047	0.377505	0.053037
C75	C	-3.496714	0.710838	0.386370
C76	C	-4.096810	0.147553	-0.280873
C77	C	-3.763477	0.480886	0.052461
C78	C	-3.430144	0.814219	0.385794
C79	C	-4.163402	-0.119332	-0.116781
C80	C	-3.830068	0.214001	0.216553
C81	C	-3.496735	0.547335	0.549886
C82	C	-4.096848	-0.119897	-0.013398
C83	C	-3.763515	0.213436	0.319935
C84	C	-3.430181	0.546770	0.653269
