data_functionalizedCrystal
_audit_creation_method	'MofGen! by Chris Wilmer'
_symmetry_space_group_name_H-M	'P1'
_symmetry_Int_Tables_number	1
_symmetry_cell_setting	triclinic
loop_
_symmetry_equiv_pos_as_xyz
  x,y,z
_cell_length_a	10.654550
_cell_length_b	27.732048
_cell_length_c	9.730223
_cell_angle_alpha	89.993758
_cell_angle_beta	89.996251
_cell_angle_gamma	83.563778
loop_
_atom_site_label
_atom_site_type_symbol
_atom_site_fract_x
_atom_site_fract_y
_atom_site_fract_z
O1	O	1.664980	0.067884	-0.114419
O2	O	1.299230	0.074351	-0.114399
O3	O	1.493465	0.000792	-0.114384
O4	O	1.470746	0.141444	-0.114435
O5	O	1.493462	0.000793	0.114196
O6	O	1.299228	0.074353	0.114181
O7	O	1.664978	0.067886	0.114161
Zn8	Zn	1.482102	0.071120	0.150463
Zn9	Zn	1.482105	0.071117	-0.150701
O10	O	1.470743	0.141445	0.114145
C11	C	1.252451	0.073878	-0.000106
C12	C	1.113067	0.072457	-0.000097
C13	C	1.031761	0.115768	-0.000133
C14	C	0.900796	0.114430	-0.000156
C15	C	0.932457	0.026466	-0.000114
C16	C	1.063419	0.027805	-0.000080
C17	C	1.013480	0.166553	-0.000163
C18	C	0.882516	0.165215	-0.000187
C19	C	1.492987	-0.017217	-0.000090
C20	C	1.491551	-0.070881	-0.000078
C21	C	1.597290	-0.409038	-0.000155
C22	C	1.591962	-0.610731	-0.000174
O23	O	1.688653	-0.641384	-0.000239
N24	N	1.476789	-0.630572	-0.000166
C25	C	1.362940	-0.599986	-0.000163
O26	O	1.264856	-0.621490	-0.000171
C27	C	1.368269	-0.398294	-0.000154
C28	C	1.483449	-0.378456	-0.000147
C29	C	1.712461	-0.389199	-0.000150
C30	C	1.713792	-0.338779	-0.000138
C31	C	1.599951	-0.308197	-0.000131
C32	C	1.484780	-0.328036	-0.000135
C33	C	1.254421	-0.367709	-0.000160
C34	C	1.255764	-0.317284	-0.000161
C35	C	1.370944	-0.297446	-0.000155
C36	C	1.372271	-0.247034	-0.000115
N37	N	1.487444	-0.227193	-0.000123
C38	C	1.601284	-0.257775	-0.000131
C39	C	1.360150	-0.705877	-0.000165
C40	C	1.358817	-0.756300	-0.000164
C41	C	1.587840	-0.767041	-0.000178
C42	C	1.589171	-0.716618	-0.000169
C43	C	1.475323	-0.686036	-0.000172
C44	C	1.604070	-0.151888	-0.000104
C45	C	1.605391	-0.101463	-0.000086
C46	C	1.376369	-0.090726	-0.000080
C47	C	1.375047	-0.141147	-0.000090
C48	C	1.488908	-0.171727	-0.000107
O49	O	1.275631	-0.216352	-0.000065
O50	O	1.699354	-0.236261	-0.000153
C51	C	1.595959	-0.459458	-0.000167
C52	C	1.480788	-0.479296	-0.000172
C53	C	1.366948	-0.448715	-0.000164
C54	C	1.479455	-0.529719	-0.000172
C55	C	1.593296	-0.560301	-0.000179
C56	C	1.708469	-0.540460	-0.000187
C57	C	1.709800	-0.490040	-0.000175
C58	C	1.251774	-0.468556	-0.000157
C59	C	1.250453	-0.518976	-0.000167
C60	C	1.364293	-0.549558	-0.000175
C61	C	1.711757	0.068360	-0.000135
C62	C	1.851141	0.069780	-0.000153
C63	C	1.471221	0.159454	-0.000152
C64	C	1.472657	0.213118	-0.000172
N65	N	1.482110	0.071121	0.355999
N66	N	1.482108	0.071112	-0.356238
C67	C	1.568138	0.038560	0.427932
C68	C	1.568135	0.038554	0.571815
C69	C	1.396071	0.103675	0.571820
C70	C	1.396069	0.103678	0.427939
C71	C	1.667482	0.000964	0.427930
C72	C	1.667479	0.000959	0.571813
H73	H	1.048457	0.182723	-0.098857
N74	N	1.704115	-0.798292	-0.000175
N75	N	1.702894	-0.843310	-0.000174
H76	H	1.785008	-0.865383	-0.000178
N77	N	1.831436	-0.318511	-0.000159
N78	N	1.832633	-0.273491	-0.000160
H79	H	1.915724	-0.259179	-0.000179
H80	H	1.805169	-0.414094	-0.000162
N81	N	1.706835	-0.696364	-0.000156
N82	N	1.808464	-0.723680	-0.000152
H83	H	1.891570	-0.709379	-0.000143
N84	N	1.132800	-0.539245	-0.000187
N85	N	1.131611	-0.584265	-0.000209
H86	H	1.048522	-0.598579	-0.000235
N87	N	0.824420	0.184465	0.123613
N88	N	0.890429	0.200001	0.216342
H89	H	0.849399	0.213594	0.303777
H90	H	1.129616	-0.007463	-0.000032
N91	N	1.824744	-0.571711	-0.000180
N92	N	1.823521	-0.616729	-0.000186
H93	H	1.905634	-0.638802	-0.000185
H94	H	1.163052	-0.292386	-0.000166
N95	N	0.881761	-0.019147	-0.000119
N96	N	0.954375	-0.057814	-0.000092
H97	H	0.918575	-0.090030	-0.000098
H98	H	1.696787	-0.176781	-0.000123
N99	N	1.243836	-0.674650	-0.000168
N100	N	1.141021	-0.692377	-0.000158
H101	H	1.058872	-0.670325	-0.000155
H102	H	1.647601	-0.036185	0.388891
H103	H	1.763642	0.009240	0.610855
N104	N	1.781246	0.015722	0.371898
N105	N	1.795461	0.017568	0.244560
H106	H	1.875806	0.027991	0.204984
H107	H	1.041976	0.186415	0.095495
N108	N	0.829168	0.189206	-0.120231
N109	N	0.898981	0.207202	-0.204794
H110	H	0.861308	0.224140	-0.289582
H111	H	1.638442	-0.034148	0.616444
N112	N	1.723051	-0.081200	-0.000055
N113	N	1.799568	-0.090436	0.096297
H114	H	1.882663	-0.076127	0.096320
H115	H	1.265026	-0.772447	-0.000146
N116	N	1.136754	-0.387957	-0.000170
N117	N	1.035131	-0.360637	-0.000178
H118	H	0.952020	-0.374935	-0.000189
H119	H	1.281258	-0.157300	-0.000057
N120	N	1.135482	-0.437322	-0.000168
N121	N	1.058660	-0.439353	-0.096515
H122	H	0.976520	-0.417295	-0.096518
N123	N	1.260092	-0.059481	-0.000113
N124	N	1.183291	-0.061508	-0.096483
H125	H	1.101169	-0.039439	-0.096521
H126	H	1.803591	-0.473893	-0.000170
N127	N	1.308165	0.136934	0.354482
N128	N	1.231351	0.165997	0.418735
H129	H	1.169261	0.189485	0.366857
H130	H	1.326018	0.130181	0.630409
