data_functionalizedCrystal
_audit_creation_method	'MofGen! by Chris Wilmer'
_symmetry_space_group_name_H-M	'P1'
_symmetry_Int_Tables_number	1
_symmetry_cell_setting	triclinic
loop_
_symmetry_equiv_pos_as_xyz
  x,y,z
_cell_length_a	14.044191
_cell_length_b	10.723024
_cell_length_c	9.198806
_cell_angle_alpha	89.996352
_cell_angle_beta	89.999488
_cell_angle_gamma	91.170177
loop_
_atom_site_label
_atom_site_type_symbol
_atom_site_fract_x
_atom_site_fract_y
_atom_site_fract_z
O1	O	-0.133040	1.670502	-0.120871
O2	O	-0.145775	1.308624	-0.120875
O3	O	-0.001387	1.484127	-0.120876
O4	O	-0.277427	1.495000	-0.120870
O5	O	-0.001387	1.484112	0.120909
O6	O	-0.145774	1.308609	0.120910
O7	O	-0.133040	1.670487	0.120914
Cu8	Cu	-0.139407	1.489547	0.142989
Cu9	Cu	-0.139407	1.489565	-0.142950
O10	O	-0.277427	1.494985	0.120915
C11	C	-0.144848	1.262025	0.000017
C12	C	-0.142075	1.123193	0.000015
C13	C	-0.222867	1.056296	0.000016
C14	C	-0.220003	0.912806	0.000014
C15	C	-0.312773	1.499749	0.000023
C16	C	-0.418091	1.513937	0.000025
C17	C	-0.667892	1.439251	0.000011
C18	C	-0.610917	1.539855	0.000015
C19	C	-0.503619	1.525431	0.000021
C20	C	-0.775200	1.453674	0.000006
C21	C	0.033958	1.479363	0.000013
C22	C	0.139277	1.465175	0.000001
C23	C	-0.133967	1.717087	0.000019
C24	C	-0.136739	1.855919	0.000011
N25	N	-0.139406	1.489543	0.344103
N26	N	-0.139401	1.489577	-0.344064
C27	C	-0.078515	1.563205	0.416300
C28	C	-0.078511	1.563224	0.583712
H29	H	-0.070786	1.074236	-0.000024
H30	H	-0.191532	1.426488	0.406231
H31	H	-0.191539	1.426514	0.593860
F32	F	-0.046329	0.931077	-0.000000
H33	H	-0.294155	1.105252	0.000026
H34	H	-0.026381	1.626252	0.354173
F35	F	-0.626322	1.312521	0.000012
F36	F	-0.310409	0.837640	0.000004
F37	F	-0.652487	1.666594	0.000018
F38	F	-0.010374	1.645664	0.664859
