data_functionalizedCrystal
_audit_creation_method	'MofGen! by Chris Wilmer'
_symmetry_space_group_name_H-M	'P1'
_symmetry_Int_Tables_number	1
_symmetry_cell_setting	triclinic
loop_
_symmetry_equiv_pos_as_xyz
  x,y,z
_cell_length_a	16.959455
_cell_length_b	21.295417
_cell_length_c	16.959447
_cell_angle_alpha	89.964807
_cell_angle_beta	89.985678
_cell_angle_gamma	90.027454
loop_
_atom_site_label
_atom_site_type_symbol
_atom_site_fract_x
_atom_site_fract_y
_atom_site_fract_z
Zn1	Zn	1.208326	-0.250648	-0.446882
Zn2	Zn	1.708326	0.249352	0.053118
Zn3	Zn	1.208225	-0.355925	-0.314692
Zn4	Zn	1.708225	0.144075	0.185308
Zn5	Zn	1.076155	-0.250668	-0.314719
Zn6	Zn	1.576155	0.249332	0.185281
Zn7	Zn	1.076096	-0.355878	-0.446831
Zn8	Zn	1.576096	0.144122	0.053169
O9	O	1.142200	-0.303280	-0.380781
O10	O	1.642200	0.196720	0.119219
O11	O	1.318924	-0.264625	-0.429357
O12	O	1.818924	0.235375	0.070643
O13	O	1.190688	-0.341990	-0.204085
O14	O	1.690688	0.158010	0.295915
O15	O	1.093755	-0.162576	-0.332284
O16	O	1.593755	0.337424	0.167716
O17	O	1.318849	-0.341971	-0.332237
O18	O	1.818849	0.158029	0.167763
O19	O	1.190861	-0.162561	-0.429383
O20	O	1.690861	0.337439	0.070617
O21	O	1.093657	-0.264658	-0.204105
O22	O	1.593657	0.235342	0.295895
O23	O	0.965536	-0.264613	-0.332234
O24	O	1.465536	0.235387	0.167766
O25	O	1.093654	-0.341891	-0.557448
O26	O	1.593654	0.158109	-0.057448
O27	O	0.965493	-0.341910	-0.429296
O28	O	1.465493	0.158090	0.070704
O29	O	1.190803	-0.264579	-0.557486
O30	O	1.690803	0.235421	-0.057486
O31	O	1.190630	-0.444008	-0.332188
O32	O	1.690630	0.055992	0.167812
O33	O	1.093555	-0.443973	-0.429269
O34	O	1.593555	0.056027	0.070731
C35	C	0.936834	-0.303259	-0.380763
C36	C	1.436834	0.196741	0.119237
C37	C	0.848978	-0.303265	-0.380774
C38	C	1.348978	0.196735	0.119226
C39	C	0.477500	-0.262998	-0.330347
C40	C	0.977500	0.237002	0.169653
C41	C	0.477504	-0.343613	-0.431261
C42	C	0.977504	0.156387	0.068739
C43	C	0.560050	-0.343604	-0.431256
C44	C	1.060050	0.156396	0.068744
C45	C	0.601325	-0.303292	-0.380795
C46	C	1.101325	0.196708	0.119205
C47	C	0.560054	-0.262989	-0.330339
C48	C	1.060054	0.237011	0.169661
C49	C	0.601327	-0.383911	-0.481705
C50	C	1.101327	0.116089	0.018295
C51	C	0.683877	-0.383904	-0.481702
C52	C	1.183877	0.116096	0.018298
C53	C	0.725154	-0.343588	-0.431244
C54	C	1.225154	0.156412	0.068756
C55	C	0.683878	-0.303283	-0.380787
C56	C	1.183878	0.196717	0.119213
C57	C	0.725153	-0.262971	-0.330326
C58	C	1.225153	0.237029	0.169674
C59	C	0.683879	-0.222662	-0.279871
C60	C	1.183879	0.277338	0.220129
C61	C	0.601330	-0.222673	-0.279881
C62	C	1.101330	0.277327	0.220119
C63	C	0.807702	-0.343577	-0.431235
C64	C	1.307702	0.156423	0.068765
C65	C	0.807707	-0.262962	-0.330318
C66	C	1.307707	0.237038	0.169682
C67	C	1.142097	-0.466831	-0.380737
C68	C	1.642097	0.033169	0.119263
C69	C	1.142125	-0.536799	-0.380745
C70	C	1.642125	-0.036799	0.119255
C71	C	1.192717	-0.569663	-0.330246
C72	C	1.692717	-0.069663	0.169754
C73	C	1.192754	-0.635406	-0.330264
C74	C	1.692754	-0.135406	0.169736
C75	C	1.142185	-0.668282	-0.380772
C76	C	1.642185	-0.168282	0.119228
C77	C	1.091589	-0.635410	-0.431281
C78	C	1.591589	-0.135410	0.068719
C79	C	1.091559	-0.569669	-0.431267
C80	C	1.591559	-0.069669	0.068733
N81	N	1.073038	-0.771544	-0.386792
N82	N	1.573038	-0.271544	0.113208
N83	N	1.073069	-0.833996	-0.386800
N84	N	1.573069	-0.333996	0.113200
C85	C	1.142273	-0.866357	-0.380818
C86	C	1.642273	-0.366357	0.119182
N87	N	1.211448	-0.833907	-0.374811
N88	N	1.711448	-0.333907	0.125189
N89	N	1.211416	-0.771449	-0.374798
N90	N	1.711416	-0.271449	0.125202
C91	C	1.142212	-0.739567	-0.380793
C92	C	1.642212	-0.239567	0.119207
C93	C	1.192910	-0.970506	-0.330335
C94	C	1.692910	-0.470506	0.169665
C95	C	1.192948	-1.036249	-0.330359
C96	C	1.692948	-0.536249	0.169641
C97	C	1.091777	-1.036253	-0.431371
C98	C	1.591777	-0.536253	0.068629
C99	C	1.091745	-0.970510	-0.431352
C100	C	1.591745	-0.470510	0.068648
C101	C	1.142311	-0.937641	-0.380830
C102	C	1.642311	-0.437641	0.119170
C103	C	1.348369	-0.303301	-0.380800
C104	C	1.848369	0.196699	0.119200
C105	C	1.436225	-0.303310	-0.380808
C106	C	1.936225	0.196690	0.119192
C107	C	1.142233	-0.303228	-0.586949
C108	C	1.642233	0.196772	-0.086949
C109	C	1.142247	-0.303205	-0.674806
C110	C	1.642247	0.196795	-0.174806
C111	C	1.142326	-0.139089	-0.380842
C112	C	1.642326	0.360911	0.119158
C113	C	1.142379	-0.069121	-0.380868
C114	C	1.642379	0.430879	0.119132
C115	C	1.091760	-0.343392	-1.046265
C116	C	1.591760	0.156608	-0.546265
C117	C	1.192923	-0.262886	-1.046299
C118	C	1.692923	0.237114	-0.546299
C119	C	1.192902	-0.262900	-0.963753
C120	C	1.692902	0.237100	-0.463753
C121	C	1.142310	-0.303160	-0.922459
C122	C	1.642310	0.196840	-0.422459
C123	C	1.091740	-0.343407	-0.963711
C124	C	1.591740	0.156593	-0.463711
C125	C	1.243478	-0.222658	-0.922495
C126	C	1.743478	0.277342	-0.422495
C127	C	1.243459	-0.222670	-0.839944
C128	C	1.743459	0.277330	-0.339944
C129	C	1.192863	-0.262928	-0.798648
C130	C	1.692863	0.237072	-0.298648
C131	C	1.142289	-0.303176	-0.839906
C132	C	1.642289	0.196824	-0.339906
C133	C	1.091698	-0.343437	-0.798612
C134	C	1.591698	0.156563	-0.298612
C135	C	1.041120	-0.383682	-0.839867
C136	C	1.541120	0.116318	-0.339867
C137	C	1.041143	-0.383665	-0.922416
C138	C	1.541143	0.116335	-0.422416
C139	C	1.192839	-0.262945	-0.716100
C140	C	1.692839	0.237055	-0.216100
C141	C	1.091677	-0.343453	-0.716058
C142	C	1.591677	0.156547	-0.216058
C143	C	1.142213	-0.303286	-0.175415
C144	C	1.642213	0.196714	0.324585
C145	C	1.142352	-0.303131	-0.087559
C146	C	1.642352	0.196869	0.412441
H147	H	0.841304	-0.376398	-0.472312
H148	H	1.341304	0.123602	0.027688
O149	O	1.241917	-0.537832	-0.281154
O150	O	1.741917	-0.037832	0.218846
C151	C	1.342235	-0.544770	-0.180937
C152	C	1.842235	-0.044770	0.319063
C153	C	1.286567	-0.580898	-0.236503
C154	C	1.786567	-0.080898	0.263497
H155	H	1.378338	-0.579573	-0.144810
H156	H	1.878338	-0.079573	0.355190
H157	H	1.383582	-0.513962	-0.217222
H158	H	1.883582	-0.013962	0.282778
H159	H	1.305950	-0.514021	-0.139600
H160	H	1.805950	-0.014021	0.360400
H161	H	1.322789	-0.611681	-0.277850
H162	H	1.822789	-0.111681	0.222150
H163	H	1.245218	-0.611667	-0.200168
H164	H	1.745218	-0.111667	0.299832
O165	O	1.241965	-0.667373	-0.281308
O166	O	1.741965	-0.167373	0.218692
C167	C	1.348654	-0.741591	-0.270739
C168	C	1.848654	-0.241591	0.229261
C169	C	1.292997	-0.705414	-0.326278
C170	C	1.792997	-0.205414	0.173722
H171	H	1.389917	-0.772365	-0.307075
H172	H	1.889917	-0.272365	0.192925
H173	H	1.384848	-0.706842	-0.234631
H174	H	1.884848	-0.206842	0.265369
H175	H	1.312357	-0.772382	-0.229384
H176	H	1.812357	-0.272382	0.270616
H177	H	1.329234	-0.674621	-0.367681
H178	H	1.829234	-0.174621	0.132319
H179	H	1.256801	-0.740197	-0.362331
H180	H	1.756801	-0.240197	0.137669
H181	H	1.050361	-0.542911	-0.472390
H182	H	1.550361	-0.042911	0.027610
O183	O	0.724099	-0.183525	-0.230928
O184	O	1.224099	0.316475	0.269072
C185	C	0.851279	-0.147825	-0.186161
C186	C	1.351279	0.352175	0.313839
C187	C	0.805824	-0.192166	-0.241640
C188	C	1.305824	0.307834	0.258360
H189	H	0.917361	-0.154805	-0.194791
H190	H	1.417361	0.345195	0.305209
H191	H	0.835143	-0.097066	-0.200163
H192	H	1.335143	0.402934	0.299837
H193	H	0.834973	-0.158809	-0.122409
H194	H	1.334973	0.341191	0.377591
H195	H	0.822105	-0.181240	-0.305411
H196	H	1.322105	0.318760	0.194589
H197	H	0.821963	-0.242912	-0.227571
H198	H	1.321963	0.257088	0.272429
H199	H	0.567714	-0.416735	-0.522782
H200	H	1.067714	0.083265	-0.022782
H201	H	1.050545	-0.943751	-0.472469
H202	H	1.550545	-0.443751	0.027531
O203	O	1.042682	-1.068278	-0.480364
O204	O	1.542682	-0.568278	0.019636
C205	C	0.997933	-1.169558	-0.525196
C206	C	1.497933	-0.669558	-0.025196
C207	C	1.053557	-1.133364	-0.469653
C208	C	1.553557	-0.633364	0.030347
H209	H	1.006718	-1.222186	-0.516568
H210	H	1.506718	-0.722186	-0.016568
H211	H	0.934181	-1.156733	-0.511258
H212	H	1.434181	-0.656733	-0.011258
H213	H	1.011761	-1.156542	-0.588932
H214	H	1.511761	-0.656542	-0.088932
H215	H	1.039800	-1.146360	-0.405899
H216	H	1.539800	-0.646360	0.094101
H217	H	1.117292	-1.146192	-0.483660
H218	H	1.617292	-0.646192	0.016340
O219	O	0.847921	-0.223822	-0.281372
O220	O	1.347921	0.276178	0.218628
C221	C	0.975091	-0.188110	-0.236594
C222	C	1.475091	0.311890	0.263406
C223	C	0.929648	-0.232456	-0.292077
C224	C	1.429648	0.267544	0.207923
H225	H	1.041175	-0.195084	-0.245219
H226	H	1.541175	0.304916	0.254781
H227	H	0.958949	-0.137352	-0.250598
H228	H	1.458949	0.362648	0.249402
H229	H	0.958782	-0.199095	-0.172844
H230	H	1.458782	0.300905	0.327156
H231	H	0.945933	-0.221528	-0.355847
H232	H	1.445933	0.278472	0.144153
H233	H	0.945793	-0.283200	-0.278006
H234	H	1.445793	0.216800	0.221994
H235	H	1.234086	-0.943742	-0.289200
H236	H	1.734086	-0.443742	0.210800
H237	H	0.443893	-0.376437	-0.472339
H238	H	0.943893	0.123563	0.027661
H239	H	1.284642	-0.189899	-0.806360
H240	H	1.784642	0.310101	-0.306360
H241	H	1.050417	-0.662182	-0.472406
H242	H	1.550417	-0.162182	0.027594
H243	H	0.717476	-0.416725	-0.522785
H244	H	1.217476	0.083275	-0.022785
H245	H	1.234151	-1.063006	-0.289238
H246	H	1.734151	-0.563006	0.210762
H247	H	1.234021	-0.230179	-0.682513
H248	H	1.734021	0.269821	-0.182513
H249	H	0.999931	-0.416465	-0.806235
H250	H	1.499931	0.083535	-0.306235
H251	H	1.050471	-0.376232	-0.682442
H252	H	1.550471	0.123768	-0.182442
H253	H	0.999968	-0.416433	-0.956013
H254	H	1.499968	0.083567	-0.456013
H255	H	1.050579	-0.376157	-1.079859
H256	H	1.550579	0.123843	-0.579859
O257	O	1.241954	-0.223715	-1.086446
O258	O	1.741954	0.276285	-0.586446
C259	C	1.252681	-0.138743	-1.179733
C260	C	1.752681	0.361257	-0.679733
C261	C	1.197061	-0.183056	-1.134298
C262	C	1.697061	0.316944	-0.634298
H263	H	1.216408	-0.105868	-1.218445
H264	H	1.716408	0.394132	-0.718445
H265	H	1.288808	-0.109933	-1.136106
H266	H	1.788808	0.390067	-0.636106
H267	H	1.294014	-0.167658	-1.218328
H268	H	1.794014	0.332342	-0.718328
H269	H	1.155680	-0.154190	-1.095702
H270	H	1.655680	0.345810	-0.595702
H271	H	1.160989	-0.211869	-1.177968
H272	H	1.660989	0.288131	-0.677968
O273	O	0.561115	-0.183576	-0.230904
O274	O	1.061115	0.316424	0.269096
C275	C	0.433940	-0.147828	-0.186243
C276	C	0.933940	0.352172	0.313757
C277	C	0.479389	-0.192149	-0.241732
C278	C	0.979389	0.307851	0.258268
H279	H	0.367857	-0.154734	-0.194990
H280	H	0.867857	0.345266	0.305010
H281	H	0.450079	-0.158810	-0.122459
H282	H	0.950079	0.341190	0.377541
H283	H	0.450246	-0.097090	-0.200241
H284	H	0.950246	0.402910	0.299759
H285	H	0.463107	-0.242902	-0.227805
H286	H	0.963107	0.257098	0.272195
H287	H	0.463246	-0.181113	-0.305500
H288	H	0.963246	0.318887	0.194500
O289	O	1.292510	-0.183490	-0.962645
O290	O	1.792510	0.316510	-0.462645
C291	C	1.303239	-0.098519	-1.055934
C292	C	1.803239	0.401481	-0.555934
C293	C	1.247618	-0.142827	-1.010493
C294	C	1.747618	0.357173	-0.510493
H295	H	1.266967	-0.065641	-1.094643
H296	H	1.766967	0.434359	-0.594643
H297	H	1.339376	-0.069712	-1.012311
H298	H	1.839376	0.430288	-0.512311
H299	H	1.344564	-0.127438	-1.094534
H300	H	1.844564	0.372562	-0.594534
H301	H	1.206245	-0.113956	-0.971892
H302	H	1.706245	0.386044	-0.471892
H303	H	1.211536	-0.171635	-1.054159
H304	H	1.711536	0.328365	-0.554159
H305	H	0.443891	-0.230178	-0.289270
H306	H	0.943891	0.269822	0.210730
