data_functionalizedCrystal
_audit_creation_method	'MofGen! by Chris Wilmer'
_symmetry_space_group_name_H-M	'P1'
_symmetry_Int_Tables_number	1
_symmetry_cell_setting	triclinic
loop_
_symmetry_equiv_pos_as_xyz
  x,y,z
_cell_length_a	10.967926
_cell_length_b	10.268362
_cell_length_c	11.026607
_cell_angle_alpha	90.004351
_cell_angle_beta	83.619246
_cell_angle_gamma	102.128526
loop_
_atom_site_label
_atom_site_type_symbol
_atom_site_fract_x
_atom_site_fract_y
_atom_site_fract_z
O1	O	1.693971	0.271885	-0.170499
O2	O	1.334345	0.191171	-0.186826
O3	O	1.484353	0.224843	-0.001762
O4	O	1.543963	0.238213	-0.355564
O5	O	1.484348	0.441443	-0.001751
O6	O	1.334340	0.407771	-0.186816
O7	O	1.693966	0.488485	-0.170489
Cu8	Cu	1.514153	0.467905	-0.178651
Cu9	Cu	1.514158	0.211751	-0.178664
O10	O	1.543959	0.454812	-0.355553
C11	C	1.287587	0.288977	-0.185634
C12	C	1.148267	0.257709	-0.182082
C13	C	1.086151	0.355973	-0.180493
C14	C	0.942157	0.323658	-0.176822
N15	N	1.514161	0.031586	-0.178664
C16	C	1.514156	-0.234086	-0.178657
C17	C	1.514156	-0.086248	-0.178665
C18	C	1.740724	0.390676	-0.171681
C19	C	1.880044	0.421936	-0.175233
C20	C	1.473353	0.330673	0.043545
C21	C	1.440570	0.323311	0.178532
N22	N	1.514158	0.648072	-0.178641
C23	C	1.554958	0.348980	-0.400861
C24	C	1.587741	0.356333	-0.535847
C25	C	1.531089	0.343625	0.251585
C26	C	1.497209	0.336016	0.391101
H27	H	0.888738	0.215599	-0.175462
H28	H	0.933461	0.529995	-0.176586
H29	H	1.094843	0.149657	-0.180722
Br30	Br	1.326223	0.297622	0.458991
H31	H	1.633669	0.366656	0.210841
H32	H	1.690328	0.379260	0.423416
H33	H	1.337991	0.300280	0.219276
H34	H	1.139574	0.464024	-0.181843
