data_functionalizedCrystal
_audit_creation_method	'MofGen! by Chris Wilmer'
_symmetry_space_group_name_H-M	'P1'
_symmetry_Int_Tables_number	1
_symmetry_cell_setting	triclinic
loop_
_symmetry_equiv_pos_as_xyz
  x,y,z
_cell_length_a	17.699083
_cell_length_b	17.038272
_cell_length_c	16.176319
_cell_angle_alpha	89.993159
_cell_angle_beta	89.998611
_cell_angle_gamma	87.197286
loop_
_atom_site_label
_atom_site_type_symbol
_atom_site_fract_x
_atom_site_fract_y
_atom_site_fract_z
O1	O	1.010620	0.098861	-0.068631
O2	O	0.791093	0.111723	-0.068658
O3	O	0.899552	-0.008521	-0.068638
O4	O	0.902161	0.219105	-0.068651
O5	O	0.899535	-0.008529	0.068855
O6	O	0.791077	0.111715	0.068835
O7	O	1.010604	0.098853	0.068862
Cu8	Cu	0.900839	0.105284	0.081403
Cu9	Cu	0.900858	0.105293	-0.081199
O10	O	0.902145	0.219098	0.068842
C11	C	0.762857	0.111258	0.000085
C12	C	0.678748	0.109876	0.000075
C13	C	0.634797	0.180457	0.000071
C14	C	0.555767	0.179153	0.000082
C15	C	0.520690	0.107267	0.000091
C16	C	0.564647	0.036681	0.000097
C17	C	0.643675	0.037986	0.000092
C18	C	0.245935	0.031418	0.000118
C19	C	0.166901	0.030119	0.000120
C20	C	0.158028	0.172585	0.000108
C21	C	0.237056	0.173890	0.000103
C22	C	0.281006	0.103304	0.000113
C23	C	0.366699	0.104719	0.000103
C24	C	0.434999	0.105852	0.000095
C25	C	0.897170	-0.037649	0.000108
C26	C	0.890090	-0.124431	0.000107
C27	C	0.955100	-0.174651	0.000116
C28	C	0.948442	-0.256191	0.000107
C29	C	0.876773	-0.287509	0.000096
C30	C	0.811758	-0.237282	0.000084
C31	C	0.818417	-0.155744	0.000087
C32	C	0.853251	-0.533228	0.000081
C33	C	0.846597	-0.614773	0.000081
C34	C	0.983282	-0.633676	0.000103
C35	C	0.989934	-0.552135	0.000110
C36	C	0.924919	-0.501916	0.000095
C37	C	0.869967	-0.370855	0.000089
C38	C	0.931726	-0.418571	0.000095
C39	C	1.038840	0.099318	0.000117
C40	C	1.122949	0.100701	0.000122
C41	C	0.904526	0.248226	0.000094
C42	C	0.911607	0.335007	0.000090
N43	N	0.900830	0.105277	0.195768
N44	N	0.900872	0.105293	-0.195564
C45	C	0.948873	0.052054	0.239041
C46	C	0.948877	0.052054	0.325588
C47	C	0.900841	0.105280	0.368861
C48	C	0.852793	0.158505	0.325582
C49	C	0.852786	0.158501	0.239036
C50	C	0.852820	0.158519	0.674610
C51	C	0.852833	0.158520	0.761162
C52	C	0.948911	0.052072	0.761162
C53	C	0.948904	0.052068	0.674617
C54	C	0.900853	0.105290	0.631345
C55	C	0.900849	0.105289	0.537501
C56	C	0.900849	0.105285	0.462703
H57	H	1.013460	-0.149159	0.000131
H58	H	0.679459	-0.019489	0.000095
H59	H	0.138344	-0.028422	0.000128
O60	O	1.018560	-0.310360	0.000131
H61	H	1.069513	-0.274884	0.000154
H62	H	0.765478	-0.114855	0.000080
H63	H	0.990079	-0.393068	0.000086
O64	O	0.508367	0.255282	0.000077
H65	H	0.447520	0.242301	0.000093
O66	O	0.274885	0.251426	0.000093
H67	H	0.337223	0.240475	0.000083
H68	H	0.987992	0.008715	0.203814
H69	H	0.988034	0.008733	0.796403
O70	O	0.110625	0.248721	0.000104
H71	H	0.123676	0.283130	0.056135
H72	H	0.987996	0.008715	0.360821
O73	O	0.801033	0.215942	0.807840
H74	H	0.767620	0.252951	0.763211
O75	O	0.734456	-0.271056	0.000069
H76	H	0.702955	-0.250870	0.056101
H77	H	0.813698	0.201856	0.639385
H78	H	0.811613	-0.396363	0.000082
O79	O	0.769296	-0.648560	0.000067
H80	H	0.737813	-0.628385	-0.055984
H81	H	0.813678	0.201840	0.360819
O82	O	0.293334	-0.044709	0.000129
H83	H	0.255663	-0.094912	0.000128
H84	H	0.988021	0.008729	0.639387
O85	O	0.526819	-0.040856	0.000109
H86	H	0.464482	-0.029907	0.000104
H87	H	0.813664	0.201839	0.203804
H88	H	1.036213	-0.674572	0.000114
O89	O	0.672630	0.257991	0.000070
H90	H	0.628788	0.306850	0.000080
H91	H	0.800310	-0.492349	0.000069
O92	O	1.067233	-0.518355	0.000103
H93	H	1.111322	-0.566976	0.000095
