data_functionalizedCrystal
_audit_creation_method	'MofGen! by Chris Wilmer'
_symmetry_space_group_name_H-M	'P1'
_symmetry_Int_Tables_number	1
_symmetry_cell_setting	triclinic
loop_
_symmetry_equiv_pos_as_xyz
  x,y,z
_cell_length_a	18.050591
_cell_length_b	19.120786
_cell_length_c	18.050583
_cell_angle_alpha	87.525261
_cell_angle_beta	89.975765
_cell_angle_gamma	92.460873
loop_
_atom_site_label
_atom_site_type_symbol
_atom_site_fract_x
_atom_site_fract_y
_atom_site_fract_z
Zn1	Zn	1.122716	-0.279681	-0.407401
Zn2	Zn	1.117327	-0.397152	-0.277906
Zn3	Zn	0.998527	-0.279704	-0.283211
Zn4	Zn	0.993193	-0.397095	-0.402044
O5	O	1.057941	-0.338408	-0.342641
O6	O	1.225925	-0.295278	-0.390245
O7	O	1.101545	-0.381606	-0.174684
O8	O	1.019488	-0.181411	-0.304147
O9	O	1.221966	-0.381584	-0.295106
O10	O	1.110729	-0.181394	-0.395389
O11	O	1.014263	-0.295318	-0.178581
O12	O	0.893895	-0.295262	-0.298953
O13	O	1.010398	-0.381486	-0.506681
O14	O	0.889977	-0.381508	-0.386259
O15	O	1.105557	-0.295223	-0.510617
O16	O	1.096372	-0.495435	-0.289912
O17	O	1.005172	-0.495393	-0.381115
C18	C	0.864990	-0.338382	-0.342601
C19	C	0.782444	-0.338388	-0.342601
C20	C	0.585105	-0.291433	-0.295240
C21	C	0.532798	-0.355499	-0.274071
C22	C	0.631312	-0.338409	-0.342633
C23	C	0.536537	-0.274365	-0.363800
C24	C	0.485327	-0.338424	-0.342664
C25	C	0.580091	-0.402509	-0.321427
C26	C	0.583836	-0.321332	-0.411189
C27	C	0.531549	-0.385442	-0.390044
C28	C	0.715411	-0.338400	-0.342614
C29	C	0.401229	-0.338441	-0.342683
C30	C	1.049629	-0.520899	-0.334373
C31	C	1.046141	-0.598970	-0.330860
C32	C	1.091971	-0.635579	-0.376754
C33	C	1.088691	-0.708934	-0.373455
C34	C	1.039584	-0.745680	-0.324258
C35	C	0.993748	-0.709066	-0.278363
C36	C	0.997025	-0.635712	-0.281666
C37	C	1.027311	-0.967166	-0.311910
C38	C	1.024039	-1.040525	-0.308608
C39	C	1.118981	-1.040388	-0.403701
C40	C	1.122257	-0.967032	-0.406997
C41	C	1.076419	-0.930425	-0.361105
C42	C	1.036231	-0.820661	-0.320883
C43	C	1.079768	-0.855445	-0.364484
C44	C	1.251645	-0.338435	-0.342681
C45	C	1.334190	-0.338446	-0.342699
C46	C	1.057984	-0.338345	-0.536349
C47	C	1.058002	-0.338319	-0.618896
C48	C	1.066305	-0.155204	-0.350958
C49	C	1.069869	-0.077134	-0.354502
C50	C	1.109799	-0.291361	-0.869865
C51	C	1.125033	-0.355452	-0.817558
C52	C	1.058052	-0.338274	-0.916019
C53	C	1.042828	-0.274209	-0.821243
C54	C	1.058029	-0.338293	-0.770033
C55	C	1.073320	-0.402398	-0.864798
C56	C	0.991086	-0.321112	-0.868489
C57	C	1.006292	-0.385247	-0.816203
C58	C	1.058067	-0.338262	-1.000118
C59	C	1.058014	-0.338311	-0.685936
C60	C	1.057943	-0.338420	-0.149688
C61	C	1.058077	-0.338249	-0.067151
H62	H	0.517270	-0.220204	-0.381663
C63	C	1.139118	-0.749200	-0.423931
N64	N	1.177105	-0.779528	-0.461950
H65	H	1.131963	-0.605665	-0.416811
H66	H	1.086270	-0.456596	-0.883936
C67	C	0.500048	-0.439181	-0.444199
N68	N	0.476318	-0.479659	-0.484985
C69	C	1.169395	-1.080662	-0.454185
N70	N	1.207365	-1.110996	-0.492213
C71	C	0.502540	-0.375025	-0.195766
N72	N	0.479751	-0.389726	-0.136786
C73	C	0.605940	-0.475708	-0.297163
N74	N	0.625412	-0.530839	-0.278884
H75	H	0.608548	-0.251749	-0.255114
H76	H	1.029961	-0.220023	-0.802012
C77	C	1.176293	-0.926617	-0.461103
N78	N	1.217000	-0.896177	-0.501850
H79	H	0.606247	-0.306857	-0.469137
C80	C	0.947175	-0.438918	-0.784620
N81	N	0.902658	-0.479347	-0.760822
C82	C	0.982281	-0.861089	-0.266702
N83	N	0.941668	-0.891541	-0.225871
C84	C	0.970012	-1.080944	-0.254489
N85	N	0.929321	-1.111388	-0.213729
C86	C	0.939775	-0.749489	-0.224202
N87	N	0.899139	-0.779935	-0.183387
H88	H	0.989989	-0.937366	-0.274541
C89	C	1.168969	-0.237823	-0.901602
N90	N	1.213537	-0.197502	-0.925507
H91	H	0.959704	-0.605906	-0.244296
H92	H	1.119749	-0.825525	-0.404542
H93	H	1.181655	-0.369979	-0.795209
H94	H	0.934481	-0.306565	-0.890854
