data_functionalizedCrystal
_audit_creation_method	'MofGen! by Chris Wilmer'
_symmetry_space_group_name_H-M	'P1'
_symmetry_Int_Tables_number	1
_symmetry_cell_setting	triclinic
loop_
_symmetry_equiv_pos_as_xyz
  x,y,z
_cell_length_a	19.288862
_cell_length_b	19.288865
_cell_length_c	17.766276
_cell_angle_alpha	89.986366
_cell_angle_beta	89.992012
_cell_angle_gamma	83.135763
loop_
_atom_site_label
_atom_site_type_symbol
_atom_site_fract_x
_atom_site_fract_y
_atom_site_fract_z
O1	O	-0.921335	-0.086645	0.062893
O2	O	-0.719075	-0.098336	0.062832
O3	O	-0.826049	0.008640	0.062849
O4	O	-0.814361	-0.193621	0.062876
O5	O	-0.826068	0.008654	-0.062339
O6	O	-0.719093	-0.098322	-0.062356
O7	O	-0.921354	-0.086631	-0.062295
Cu8	Cu	-0.820225	-0.092475	-0.073757
Cu9	Cu	-0.820203	-0.092492	0.074293
O10	O	-0.814379	-0.193607	-0.062313
C11	C	-0.693207	-0.097953	0.000230
C12	C	-0.616104	-0.096824	0.000206
C13	C	-0.571407	-0.159593	0.000224
C14	C	-0.498960	-0.158533	0.000228
C15	C	-0.471213	-0.094701	0.000230
C16	C	-0.515919	-0.031924	0.000208
C17	C	-0.588364	-0.032986	0.000196
C18	C	-0.362944	-0.044527	0.044102
C19	C	-0.290499	-0.043468	0.044118
C20	C	-0.247767	-0.091423	0.000263
C21	C	-0.277486	-0.140449	-0.043599
C22	C	-0.349932	-0.141511	-0.043611
C23	C	-0.392659	-0.093542	0.000242
C24	C	-0.124514	-0.153046	0.000284
C25	C	-0.052066	-0.151983	0.000284
C26	C	-0.069026	-0.025373	0.000271
C27	C	-0.141473	-0.026438	0.000264
C28	C	-0.169212	-0.090276	0.000274
C29	C	0.052779	-0.087016	0.000295
C30	C	-0.024324	-0.088151	0.000284
N31	N	-0.820246	-0.092463	-0.177887
C32	C	-0.825683	0.034523	0.000253
C33	C	-0.824554	0.111627	0.000246
C34	C	-0.814746	-0.219490	0.000285
C35	C	-0.815875	-0.296594	0.000297
C36	C	-0.887321	0.156324	0.000261
C37	C	-0.886261	0.228771	0.000273
C38	C	-0.822429	0.256518	0.000254
C39	C	-0.759652	0.211811	0.000243
C40	C	-0.760715	0.139366	0.000239
C41	C	-0.772255	0.364810	-0.043612
C42	C	-0.771196	0.437254	-0.043613
C43	C	-0.819149	0.479963	0.000270
C44	C	-0.868174	0.450221	0.044143
C45	C	-0.869236	0.377775	0.044139
C46	C	-0.821269	0.335072	0.000259
C47	C	-0.880771	0.603216	0.000299
C48	C	-0.879708	0.675664	0.000315
C49	C	-0.753098	0.658703	0.000278
C50	C	-0.754163	0.586256	0.000269
C51	C	-0.818001	0.558518	0.000276
N52	N	-0.820188	-0.092498	0.178424
C53	C	-0.862096	-0.134600	0.217834
C54	C	-0.862100	-0.134600	0.296636
C55	C	-0.820205	-0.092486	0.336024
C56	C	-0.778289	-0.050383	0.296604
C57	C	-0.778281	-0.050388	0.217804
C58	C	-0.818619	-0.029834	0.460847
C59	C	-0.818632	-0.029827	0.539645
C60	C	-0.820228	-0.092469	0.579071
C61	C	-0.821824	-0.155119	0.539687
C62	C	-0.821816	-0.155125	0.460887
C63	C	-0.820210	-0.092476	0.421470
C64	C	-0.862142	-0.134574	0.703927
C65	C	-0.862142	-0.134576	0.782730
C66	C	-0.778335	-0.050352	0.782697
C67	C	-0.778331	-0.050357	0.703895
C68	C	-0.820239	-0.092467	0.664515
H69	H	-0.624757	0.018129	0.000182
O70	O	-0.733161	-0.004920	0.825178
H71	H	-0.695679	-0.038242	0.861099
H72	H	-0.896263	-0.168866	0.671862
H73	H	-0.930823	0.712056	0.000332
H74	H	-0.731274	0.461464	-0.079333
O75	O	-0.231409	-0.192175	-0.090911
H76	H	-0.176041	-0.183196	-0.083544
H77	H	-0.397732	-0.005475	0.079818
H78	H	-0.896267	-0.168865	0.814817
O79	O	-0.733101	-0.004948	0.339066
H80	H	-0.748496	0.050584	0.323901
H81	H	-0.147101	-0.205027	0.000282
O82	O	-0.816895	0.037734	0.418328
H83	H	-0.864134	0.047563	0.382421
O84	O	-0.953966	0.276988	0.000279
H85	H	-0.942500	0.332024	0.000281
H86	H	-0.374126	-0.181427	-0.079327
O87	O	-0.733102	-0.004955	0.175289
H88	H	-0.703977	0.024339	0.215914
O89	O	-0.601318	-0.228449	0.000222
H90	H	-0.633928	-0.231976	0.051243
H91	H	-0.709600	0.102973	0.000226
H92	H	-0.817337	0.021187	0.571705
H93	H	-0.015674	-0.203099	0.000294
O94	O	-0.922099	0.345695	0.091470
H95	H	-0.975578	0.366794	0.073444
O96	O	-0.450738	-0.226234	0.000255
H97	H	-0.482198	-0.270803	0.000266
H98	H	-0.046435	0.026600	0.000319
H99	H	-0.939304	0.133744	0.000269
H100	H	-0.177866	0.024675	0.000253
O101	O	-0.690802	0.241731	0.000214
H102	H	-0.700608	0.299617	0.000209
O103	O	-0.733162	-0.004917	0.661380
H104	H	-0.704042	0.024381	0.702006
O105	O	-0.823534	-0.222695	0.418412
H106	H	-0.823265	-0.212170	0.356995
H107	H	-0.733204	0.330041	-0.079350
H108	H	-0.823124	-0.206128	0.571785
O109	O	-0.907287	-0.180022	0.175357
H110	H	-0.936425	-0.209303	0.216006
H111	H	-0.896226	-0.168887	0.328730
H112	H	-0.266308	-0.003551	0.079836
O113	O	-0.919906	0.496267	0.091480
H114	H	-0.891319	0.525490	0.132672
O115	O	-0.485998	0.036926	0.000210
H116	H	-0.428112	0.027119	0.000228
O117	O	-0.949621	0.573289	0.000321
H118	H	-0.993091	0.616544	0.000348
H119	H	-0.701124	0.681294	0.000266
O120	O	-0.686463	0.538040	0.000234
H121	H	-0.641897	0.569503	0.000214
