data_functionalizedCrystal
_audit_creation_method	'MofGen! by Chris Wilmer'
_symmetry_space_group_name_H-M	'P1'
_symmetry_Int_Tables_number	1
_symmetry_cell_setting	triclinic
loop_
_symmetry_equiv_pos_as_xyz
  x,y,z
_cell_length_a	10.685976
_cell_length_b	10.686285
_cell_length_c	17.077396
_cell_angle_alpha	85.608118
_cell_angle_beta	94.362269
_cell_angle_gamma	81.631153
loop_
_atom_site_label
_atom_site_type_symbol
_atom_site_fract_x
_atom_site_fract_y
_atom_site_fract_z
Zn1	Zn	1.979305	-0.653881	-0.318051
Zn2	Zn	2.479305	-0.153881	0.181949
Zn3	Zn	1.995497	-0.866141	-0.175908
Zn4	Zn	2.495497	-0.366141	0.324092
Zn5	Zn	1.767058	-0.637675	-0.197722
Zn6	Zn	2.267058	-0.137675	0.302278
Zn7	Zn	1.783339	-0.849822	-0.318056
Zn8	Zn	2.283339	-0.349822	0.181944
O9	O	1.881300	-0.751880	-0.252434
O10	O	2.381300	-0.251880	0.247566
O11	O	2.159069	-0.695649	-0.290064
O12	O	2.659069	-0.195649	0.209936
O13	O	1.965157	-0.835881	-0.068955
O14	O	2.465157	-0.335881	0.431045
O15	O	1.781623	-0.462209	-0.222811
O16	O	2.281623	0.037791	0.277189
O17	O	2.170965	-0.851595	-0.185632
O18	O	2.670965	-0.351595	0.314368
O19	O	1.937560	-0.474115	-0.311216
O20	O	2.437560	0.025885	0.188784
O21	O	1.797323	-0.668028	-0.084981
O22	O	2.297323	-0.168028	0.415019
O23	O	1.591602	-0.652205	-0.222816
O24	O	2.091602	-0.152205	0.277184
O25	O	1.809372	-0.823783	-0.427903
O26	O	2.309372	-0.323783	0.072097
O27	O	1.603564	-0.808069	-0.311225
O28	O	2.103564	-0.308069	0.188775
O29	O	1.953347	-0.679826	-0.427899
O30	O	2.453347	-0.179826	0.072101
O31	O	1.980944	-1.041592	-0.185638
O32	O	2.480944	-0.541592	0.314362
O33	O	1.825072	-1.029603	-0.290073
O34	O	2.325072	-0.529603	0.209927
C35	C	1.551529	-0.726608	-0.269389
C36	C	2.051529	-0.226608	0.230611
C37	C	1.410454	-0.715828	-0.276659
C38	C	1.910454	-0.215828	0.223341
C39	C	1.906567	-1.081654	-0.235504
C40	C	2.406567	-0.581654	0.264496
C41	C	1.917492	-1.222741	-0.228282
C42	C	2.417492	-0.722741	0.271718
C43	C	2.212358	-0.777250	-0.235414
C44	C	2.712358	-0.277250	0.264586
C45	C	2.353436	-0.788062	-0.228161
C46	C	2.853436	-0.288062	0.271839
C47	C	1.881369	-0.751792	-0.457180
C48	C	2.381369	-0.251792	0.042820
C49	C	1.881399	-0.751755	-0.544430
C50	C	2.381399	-0.251755	-0.044430
C51	C	1.855969	-0.420820	-0.269446
C52	C	2.355969	0.079180	0.230554
C53	C	1.845175	-0.279743	-0.276696
C54	C	2.345175	0.220257	0.223304
C55	C	1.956370	-0.676790	-0.585419
C56	C	2.456370	-0.176790	-0.085419
C57	C	1.956382	-0.676748	-0.667401
C58	C	2.456382	-0.176748	-0.167401
C59	C	1.881429	-0.751680	-0.708391
C60	C	2.381429	-0.251680	-0.208391
C61	C	1.806450	-0.826648	-0.667396
C62	C	2.306450	-0.326648	-0.167396
C63	C	1.806432	-0.826681	-0.585417
C64	C	2.306432	-0.326681	-0.085417
C65	C	1.806495	-0.826576	-0.838268
C66	C	2.306495	-0.326576	-0.338268
C67	C	1.806515	-0.826545	-0.920253
C68	C	2.306515	-0.326545	-0.420253
C69	C	1.956445	-0.676643	-0.920252
C70	C	2.456445	-0.176643	-0.420252
C71	C	1.956427	-0.676676	-0.838273
C72	C	2.456427	-0.176676	-0.338273
C73	C	1.881449	-0.751646	-0.797283
C74	C	2.381449	-0.251646	-0.297283
C75	C	1.881297	-0.751881	-0.048487
C76	C	2.381297	-0.251881	0.451513
C77	C	1.881485	-0.751579	0.038757
C78	C	2.381485	-0.251579	0.538757
H79	H	1.987759	-1.281882	-0.181298
H80	H	2.487759	-0.781882	0.318702
H81	H	1.774904	-1.220609	-0.323672
H82	H	2.274904	-0.720609	0.176328
H83	H	1.351343	-0.645740	-0.323746
H84	H	1.851343	-0.145740	0.176254
H85	H	2.017409	-0.615775	-0.552051
H86	H	2.517409	-0.115775	-0.052051
H87	H	2.017434	-0.615708	-0.700771
H88	H	2.517434	-0.115708	-0.200771
C89	C	2.038918	-0.594171	-0.965334
C90	C	2.538918	-0.094171	-0.465334
H91	H	2.083566	-0.549563	-0.929179
H92	H	2.583566	-0.049563	-0.429179
H93	H	1.986146	-0.535129	-1.002650
H94	H	2.486146	-0.035129	-0.502650
H95	H	2.097944	-0.646960	-0.991977
H96	H	2.597944	-0.146960	-0.491977
C97	C	1.724061	-0.908959	-0.965342
C98	C	2.224061	-0.408959	-0.465342
H99	H	1.679391	-0.953600	-0.929191
H100	H	2.179391	-0.453600	-0.429191
H101	H	1.776849	-0.967973	-0.991986
H102	H	2.276849	-0.467973	-0.491986
H103	H	1.665054	-0.856138	-1.002659
H104	H	2.165054	-0.356138	-0.502659
C105	C	2.038873	-0.594254	-0.793185
C106	C	2.538873	-0.094254	-0.293185
H107	H	2.083521	-0.549591	-0.829337
H108	H	2.583521	-0.049591	-0.329337
H109	H	2.097880	-0.647059	-0.755867
H110	H	2.597880	-0.147059	-0.255867
H111	H	1.986070	-0.535240	-0.766543
H112	H	2.486070	-0.035240	-0.266543
C113	C	1.724066	-0.909086	-0.793176
C114	C	2.224066	-0.409086	-0.293176
H115	H	1.679452	-0.953732	-0.829326
H116	H	2.179452	-0.453732	-0.329326
H117	H	1.665030	-0.856349	-0.766516
H118	H	2.165030	-0.356349	-0.266516
H119	H	1.776892	-0.968117	-0.755873
H120	H	2.276892	-0.468117	-0.255873
C121	C	1.723998	-0.909177	-0.540325
C122	C	2.223998	-0.409177	-0.040325
H123	H	1.679379	-0.953817	-0.576475
H124	H	2.179379	-0.453817	-0.076475
H125	H	1.664967	-0.856424	-0.513671
H126	H	2.164967	-0.356424	-0.013671
H127	H	1.776808	-0.968212	-0.503016
H128	H	2.276808	-0.468212	-0.003016
C129	C	1.433288	-0.882756	-0.164549
C130	C	1.933288	-0.382756	0.335451
H131	H	1.520812	-0.877822	-0.167835
H132	H	2.020812	-0.377822	0.332165
H133	H	1.418177	-0.966425	-0.172671
H134	H	1.918177	-0.466425	0.327329
H135	H	1.410150	-0.862420	-0.113889
H136	H	1.910150	-0.362420	0.386111
H137	H	1.745417	-0.887654	-0.700778
H138	H	2.245417	-0.387654	-0.200778
