data_functionalizedCrystal
_audit_creation_method	'MofGen! by Chris Wilmer'
_symmetry_space_group_name_H-M	'P1'
_symmetry_Int_Tables_number	1
_symmetry_cell_setting	triclinic
loop_
_symmetry_equiv_pos_as_xyz
  x,y,z
_cell_length_a	12.759401
_cell_length_b	12.759399
_cell_length_c	12.759386
_cell_angle_alpha	90.062842
_cell_angle_beta	90.042133
_cell_angle_gamma	90.022087
loop_
_atom_site_label
_atom_site_type_symbol
_atom_site_fract_x
_atom_site_fract_y
_atom_site_fract_z
Zn1	Zn	-1.606423	0.417934	-0.594007
Zn2	Zn	-1.606220	0.593748	-0.418326
Zn3	Zn	-1.430656	0.418078	-0.418344
Zn4	Zn	-1.430686	0.593566	-0.593965
O5	O	-1.518496	0.505832	-0.506160
O6	O	-1.753417	0.441272	-0.570714
O7	O	-1.582833	0.570581	-0.271307
O8	O	-1.454044	0.271038	-0.441671
O9	O	-1.753268	0.570442	-0.441641
O10	O	-1.583180	0.270932	-0.570730
O11	O	-1.453847	0.441517	-0.271320
O12	O	-1.283639	0.441341	-0.441629
O13	O	-1.454095	0.570132	-0.740992
O14	O	-1.283661	0.570272	-0.570658
O15	O	-1.583209	0.441096	-0.741023
O16	O	-1.582862	0.740745	-0.441600
O17	O	-1.453898	0.740612	-0.570641
C18	C	-1.245529	0.505803	-0.506141
C19	C	-1.128752	0.505816	-0.506158
C20	C	-1.073968	0.438677	-0.573469
C21	C	-0.964244	0.438683	-0.573474
C22	C	-0.964097	0.572977	-0.438855
C23	C	-1.073819	0.572965	-0.438845
C24	C	-0.814359	0.314819	-0.611241
C25	C	-0.759572	0.247689	-0.678568
C26	C	-0.795271	0.231621	-0.781108
C27	C	-0.885757	0.282697	-0.816341
C28	C	-0.940538	0.349835	-0.749019
C29	C	-0.904840	0.365884	-0.646465
C30	C	-1.223707	0.696831	-0.401089
C31	C	-1.278490	0.763974	-0.333772
C32	C	-1.242793	0.780054	-0.231231
C33	C	-1.152304	0.728995	-0.196002
C34	C	-1.097520	0.661851	-0.263319
C35	C	-1.133225	0.645770	-0.365859
C36	C	-1.518390	0.778799	-0.506137
C37	C	-1.518441	0.895576	-0.506162
C38	C	-0.792529	0.505852	-0.506176
C39	C	-0.909306	0.505835	-0.506173
C40	C	-1.451314	1.060138	-0.573311
C41	C	-1.451268	0.950414	-0.573300
C42	C	-1.585672	0.950468	-0.439037
C43	C	-1.585722	1.060190	-0.439054
C44	C	-1.413643	0.800340	-0.697150
C45	C	-1.346403	0.745452	-0.764262
C46	C	-1.243903	0.781130	-0.780309
C47	C	-1.208622	0.871694	-0.729227
C48	C	-1.275857	0.926576	-0.662107
C49	C	-1.378371	0.890900	-0.646081
C50	C	-1.623336	1.210265	-0.315203
C51	C	-1.690566	1.265149	-0.248076
C52	C	-1.793068	1.229474	-0.232019
C53	C	-1.828345	1.138906	-0.283082
C54	C	-1.761115	1.084022	-0.350209
C55	C	-1.658614	1.119705	-0.366267
C56	C	-1.518593	1.231798	-0.506198
C57	C	-1.518538	1.115022	-0.506189
C58	C	-1.518678	0.505578	-0.780194
C59	C	-1.518755	0.505470	-0.896971
C60	C	-1.518375	0.506009	-0.233193
C61	C	-1.518501	0.505821	-0.116416
C62	C	-1.450920	0.439029	-0.061611
C63	C	-1.451050	0.438851	0.048113
C64	C	-1.586344	0.572264	0.048215
C65	C	-1.586219	0.572437	-0.061506
C66	C	-1.412842	0.314982	0.197805
C67	C	-1.345245	0.248200	0.252614
C68	C	-1.242583	0.232861	0.217154
C69	C	-1.207498	0.284320	0.126887
C70	C	-1.275089	0.351110	0.072083
C71	C	-1.377766	0.366429	0.107541
C72	C	-1.624416	0.696307	-0.211200
C73	C	-1.692003	0.763103	-0.266006
C74	C	-1.794667	0.778452	-0.230548
C75	C	-1.829748	0.727012	-0.140277
C76	C	-1.762161	0.660216	-0.085471
C77	C	-1.659499	0.644865	-0.120937
H78	H	-1.023839	0.620277	-0.234626
C79	C	-1.510581	1.249507	-0.332868
H80	H	-1.475598	1.203856	-0.380167
H81	H	-1.474169	1.250669	-0.267912
H82	H	-1.512416	1.318206	-0.361440
C83	C	-1.113032	0.746677	-0.083207
H84	H	-1.158624	0.793969	-0.048158
H85	H	-1.044296	0.775245	-0.084969
H86	H	-1.111970	0.681724	-0.046898
H87	H	-0.914810	0.269617	-0.899843
C88	C	-1.526395	0.761092	-0.679504
H89	H	-1.537765	0.699289	-0.719524
H90	H	-1.574610	0.813638	-0.700813
H91	H	-1.536361	0.746111	-0.607279
C92	C	-0.903673	0.646845	-0.364824
H93	H	-0.952018	0.686823	-0.324728
H94	H	-0.860892	0.692653	-0.404938
H95	H	-0.860843	0.606627	-0.319116
H96	H	-1.663431	0.804987	-0.339510
H97	H	-1.287388	0.834758	-0.176434
H98	H	-1.849693	0.832850	-0.275178
C99	C	-1.660816	0.645550	0.108615
H100	H	-1.701053	0.685348	0.060257
H101	H	-1.620983	0.691545	0.151612
H102	H	-1.706374	0.604964	0.151226
H103	H	-1.496441	0.327455	0.226678
C104	C	-1.236519	0.407698	-0.027213
H105	H	-1.291480	0.449667	-0.054774
H106	H	-1.215894	0.357339	-0.078051
H107	H	-1.178392	0.451011	-0.010069
C108	C	-0.775091	0.332483	-0.498444
H109	H	-0.713351	0.292460	-0.487113
H110	H	-0.827674	0.311184	-0.450288
H111	H	-0.760000	0.404709	-0.488349
C112	C	-1.799922	0.984406	-0.406388
H113	H	-1.870602	0.971021	-0.387220
H114	H	-1.757438	0.926606	-0.386545
H115	H	-1.795685	0.994149	-0.480068
H116	H	-1.396615	1.104779	-0.627984
C117	C	-1.378028	0.820137	-0.372522
H118	H	-1.391455	0.800934	-0.443229
H119	H	-1.368193	0.893814	-0.368165
H120	H	-1.435855	0.800289	-0.330082
C121	C	-1.800745	0.603629	0.013826
H122	H	-1.745786	0.561658	0.041391
H123	H	-1.858879	0.560336	-0.003317
H124	H	-1.821354	0.653992	0.064675
H125	H	-1.252787	0.683735	-0.484584
H126	H	-1.247132	1.000312	-0.620518
H127	H	-1.540821	0.683805	-0.240085
C128	C	-1.942679	0.743889	-0.101271
H129	H	-1.977910	0.791028	-0.146845
H130	H	-1.941148	0.772352	-0.032462
H131	H	-1.978659	0.678697	-0.100463
H132	H	-1.014213	0.391416	-0.777703
C133	C	-1.134391	0.364809	-0.647501
H134	H	-1.086045	0.324818	-0.687582
H135	H	-1.177222	0.405019	-0.693206
H136	H	-1.177171	0.318997	-0.607379
H137	H	-1.661836	1.338897	-0.206502
C138	C	-0.735011	0.157775	-0.855162
H139	H	-0.676015	0.129654	-0.819493
H140	H	-0.712081	0.195805	-0.914864
H141	H	-0.779761	0.102287	-0.876797
C142	C	-1.168231	0.159398	0.277439
H143	H	-1.203830	0.130946	0.336271
H144	H	-1.108751	0.197779	0.300622
H145	H	-1.146262	0.104128	0.232615
C146	C	-1.376445	0.365746	-0.122009
H147	H	-1.336222	0.325935	-0.073650
H148	H	-1.330891	0.406325	-0.164620
H149	H	-1.416283	0.319746	-0.165006
C150	C	-1.941098	1.099660	-0.265427
H151	H	-1.976088	1.145324	-0.218145
H152	H	-1.939266	1.030967	-0.236856
H153	H	-1.977508	1.098499	-0.330390
H154	H	-0.685898	0.206102	-0.649872
C155	C	-1.094564	0.267451	0.087890
H156	H	-1.059337	0.220298	0.133452
H157	H	-1.058589	0.332639	0.087080
H158	H	-1.096098	0.238986	0.019075
C159	C	-1.867021	1.289839	-0.158176
H160	H	-1.933118	1.255613	-0.155927
H161	H	-1.875910	1.359334	-0.183279
H162	H	-1.837663	1.291789	-0.089757
C163	C	-1.095867	0.910931	-0.746875
H164	H	-1.060881	0.865280	-0.794171
H165	H	-1.059460	0.912095	-0.681917
H166	H	-1.097702	0.979630	-0.775448
C167	C	-1.169945	0.720760	-0.854136
H168	H	-1.205637	0.661720	-0.882262
H169	H	-1.110173	0.697889	-0.816091
H170	H	-1.148416	0.765427	-0.909620
C171	C	-1.385214	0.645845	-0.820457
H172	H	-1.455899	0.632466	-0.801306
H173	H	-1.342740	0.588041	-0.800605
H174	H	-1.380958	0.655590	-0.894136
H175	H	-1.640370	0.905812	-0.384375
H176	H	-1.373821	0.206303	0.326110
