data_functionalizedCrystal
_audit_creation_method	'MofGen! by Chris Wilmer'
_symmetry_space_group_name_H-M	'P1'
_symmetry_Int_Tables_number	1
_symmetry_cell_setting	triclinic
loop_
_symmetry_equiv_pos_as_xyz
  x,y,z
_cell_length_a	12.759401
_cell_length_b	12.759393
_cell_length_c	12.759399
_cell_angle_alpha	89.969094
_cell_angle_beta	89.980611
_cell_angle_gamma	90.017606
loop_
_atom_site_label
_atom_site_type_symbol
_atom_site_fract_x
_atom_site_fract_y
_atom_site_fract_z
Zn1	Zn	1.606263	0.593924	0.418096
Zn2	Zn	1.939597	0.927257	0.751429
Zn3	Zn	2.272930	1.260590	1.084762
Zn4	Zn	1.606153	0.418243	0.593811
Zn5	Zn	1.939486	0.751576	0.927145
Zn6	Zn	2.272820	1.084909	1.260478
Zn7	Zn	1.430562	0.418269	0.418160
Zn8	Zn	1.763895	0.751602	0.751493
Zn9	Zn	2.097229	1.084936	1.084827
Zn10	Zn	1.430553	0.593890	0.593746
Zn11	Zn	1.763886	0.927223	0.927080
Zn12	Zn	2.097219	1.260557	1.260413
O13	O	1.518383	0.506081	0.505953
O14	O	1.851716	0.839415	0.839287
O15	O	2.185049	1.172748	1.172620
O16	O	1.753270	0.570622	0.441405
O17	O	2.086603	0.903956	0.774738
O18	O	2.419936	1.237289	1.108072
O19	O	1.582818	0.271225	0.570565
O20	O	1.916152	0.604558	0.903898
O21	O	2.249485	0.937892	1.237232
O22	O	1.453919	0.441595	0.271130
O23	O	1.787253	0.774929	0.604464
O24	O	2.120586	1.108262	0.937797
O25	O	1.753189	0.441550	0.570503
O26	O	2.086522	0.774883	0.903836
O27	O	2.419855	1.108217	1.237169
O28	O	1.583006	0.570648	0.271083
O29	O	1.916340	0.903981	0.604417
O30	O	2.249673	1.237315	0.937750
O31	O	1.453812	0.271245	0.441515
O32	O	1.787146	0.604578	0.774848
O33	O	2.120479	0.937911	1.108181
O34	O	1.283540	0.441563	0.441452
O35	O	1.616873	0.774896	0.774785
O36	O	1.950206	1.108229	1.108118
O37	O	1.453903	0.740916	0.570392
O38	O	1.787237	1.074249	0.903725
O39	O	2.120570	1.407582	1.237058
O40	O	1.283533	0.570591	0.570454
O41	O	1.616866	0.903924	0.903787
O42	O	1.950200	1.237257	1.237121
O43	O	1.582997	0.740940	0.441342
O44	O	1.916330	1.074274	0.774675
O45	O	2.249664	1.407607	1.108009
O46	O	1.582809	0.441517	0.740824
O47	O	1.916143	0.774851	1.074157
O48	O	2.249476	1.108184	1.407490
O49	O	1.453796	0.570565	0.740776
O50	O	1.787130	0.903898	1.074109
O51	O	2.120463	1.237232	1.407443
C52	C	1.245415	0.506076	0.505954
C53	C	1.578749	0.839410	0.839287
C54	C	1.912082	1.172743	1.172620
C55	C	1.128639	0.506099	0.505979
C56	C	1.461972	0.839433	0.839312
C57	C	1.795305	1.172766	1.172646
C58	C	1.518461	0.780115	0.505852
C59	C	1.851795	1.113448	0.839186
C60	C	2.185128	1.446782	1.172519
C61	C	1.518495	0.896892	0.505809
C62	C	1.851828	1.230225	0.839143
C63	C	2.185162	1.563558	1.172476
C64	C	1.518318	0.506058	0.778921
C65	C	1.851652	0.839391	1.112254
C66	C	2.184985	1.172724	1.445587
C67	C	1.518387	0.506082	0.895697
C68	C	1.851720	0.839416	1.229031
C69	C	2.185054	1.172749	1.562364
C70	C	1.792416	0.506087	0.505954
C71	C	2.125749	0.839420	0.839287
C72	C	2.459083	1.172754	1.172621
C73	C	1.909193	0.506089	0.505954
C74	C	2.242526	0.839423	0.839287
C75	C	2.575859	1.172756	1.172621
C76	C	1.964098	0.573289	0.438744
C77	C	2.297432	0.906623	0.772078
C78	C	2.630765	1.239956	1.105411
C79	C	2.073822	0.573297	0.438759
C80	C	2.407156	0.906631	0.772092
C81	C	2.740489	1.239964	1.105426
C82	C	2.073725	0.438896	0.573196
C83	C	2.407059	0.772230	0.906530
C84	C	2.740392	1.105563	1.239863
C85	C	1.964003	0.438894	0.573186
C86	C	2.297337	0.772228	0.906519
C87	C	2.630670	1.105561	1.239853
C88	C	1.518365	0.233114	0.505978
C89	C	1.851698	0.566447	0.839311
C90	C	2.185032	0.899781	1.172645
C91	C	1.518535	0.116338	0.505725
C92	C	1.851868	0.449671	0.839058
C93	C	2.185202	0.783005	1.172392
C94	C	1.585719	0.951768	0.438603
C95	C	1.919052	1.285101	0.771936
C96	C	2.252386	1.618435	1.105269
C97	C	1.585737	1.061492	0.438557
C98	C	1.919070	1.394826	0.771891
C99	C	2.252404	1.728159	1.105224
C100	C	1.451303	1.061454	0.572935
C101	C	1.784637	1.394787	0.906268
C102	C	2.117970	1.728120	1.239602
C103	C	1.451281	0.951732	0.572974
C104	C	1.784614	1.285065	0.906307
C105	C	2.117948	1.618398	1.239641
C106	C	1.518476	0.506128	0.231920
C107	C	1.851809	0.839462	0.565253
C108	C	2.185143	1.172795	0.898587
C109	C	1.518516	0.506148	0.115143
C110	C	1.851849	0.839482	0.448477
C111	C	2.185182	1.172815	0.781810
C112	C	1.585641	0.438964	0.950549
C113	C	1.918974	0.772297	1.283883
C114	C	2.252307	1.105630	1.617216
C115	C	1.585708	0.438999	1.060273
C116	C	1.919041	0.772332	1.393607
C117	C	2.252375	1.105666	1.726940
C118	C	1.451259	0.573274	1.060284
C119	C	1.784592	0.906608	1.393617
C120	C	2.117926	1.239941	1.726950
C121	C	1.451198	0.573244	0.950562
C122	C	1.784531	0.906577	1.283895
C123	C	2.117864	1.239910	1.617228
H124	H	1.919475	0.628004	0.383999
H125	H	2.252808	0.961337	0.717333
H126	H	2.586142	1.294670	1.050666
H127	H	1.640474	0.384346	1.104929
H128	H	1.973808	0.717679	1.438262
H129	H	2.307141	1.051012	1.771595
H130	H	1.396583	1.106118	0.627620
H131	H	1.729916	1.439451	0.960954
H132	H	2.063249	1.772784	1.294287
H133	H	1.640446	0.907121	0.383910
H134	H	1.973779	1.240454	0.717243
H135	H	2.307113	1.573787	1.050577
H136	H	2.118522	0.628019	0.384031
H137	H	2.451855	0.961353	0.717364
H138	H	2.785189	1.294686	1.050698
H139	H	2.118366	0.384187	0.627932
H140	H	2.451699	0.717520	0.961265
H141	H	2.785032	1.050853	1.294599
H142	H	1.919298	0.384171	0.627922
H143	H	2.252631	0.717505	0.961256
H144	H	2.585964	1.050838	1.294589
H145	H	1.640476	1.106168	0.383829
H146	H	1.973809	1.439501	0.717162
H147	H	2.307142	1.772835	1.050496
H148	H	1.396532	0.907050	0.627701
H149	H	1.729865	1.240383	0.961035
H150	H	2.063198	1.573716	1.294368
H151	H	1.396432	0.627905	0.905898
H152	H	1.729765	0.961238	1.239232
H153	H	2.063098	1.294571	1.572565
H154	H	1.640352	0.384279	0.905881
H155	H	1.973685	0.717612	1.239214
H156	H	2.307018	1.050945	1.572548
H157	H	1.396555	0.627953	1.104968
H158	H	1.729888	0.961286	1.438301
H159	H	2.063221	1.294620	1.771634
