data_functionalizedCrystal
_audit_creation_method	'MofGen! by Chris Wilmer'
_symmetry_space_group_name_H-M	'P1'
_symmetry_Int_Tables_number	1
_symmetry_cell_setting	triclinic
loop_
_symmetry_equiv_pos_as_xyz
  x,y,z
_cell_length_a	10.654556
_cell_length_b	13.262508
_cell_length_c	9.130313
_cell_angle_alpha	105.913806
_cell_angle_beta	89.998135
_cell_angle_gamma	84.460031
loop_
_atom_site_label
_atom_site_type_symbol
_atom_site_fract_x
_atom_site_fract_y
_atom_site_fract_z
O1	O	1.667066	0.147454	-0.062999
O2	O	1.301516	0.161492	-0.057422
O3	O	1.493490	0.001752	-0.121043
O4	O	1.475092	0.307194	0.000623
O5	O	1.493477	0.001748	0.122554
O6	O	1.301503	0.161488	0.186175
O7	O	1.667053	0.147449	0.180598
Cu8	Cu	1.484277	0.154468	0.205629
Cu9	Cu	1.484292	0.154473	-0.082453
O10	O	1.475079	0.307189	0.244220
C11	C	1.254717	0.160458	0.063964
C12	C	1.115290	0.157370	0.062728
C13	C	0.918774	0.153024	-0.071777
C14	C	1.049782	0.155919	-0.070633
C15	C	1.049786	0.155914	0.194950
C16	C	0.918782	0.153011	0.193801
C17	C	1.492453	-0.037361	-0.014827
C18	C	1.489368	-0.153898	-0.061257
C19	C	1.480638	-0.482420	0.339021
C20	C	1.483526	-0.372927	0.382646
C21	C	1.484988	-0.318164	0.271674
C22	C	1.483559	-0.372906	0.117070
C23	C	1.480661	-0.482409	0.073441
C24	C	1.485010	-0.318153	0.006094
C25	C	1.483582	-0.372894	-0.148511
C26	C	1.480684	-0.482387	-0.192132
C27	C	1.479223	-0.537150	-0.081160
C28	C	1.487909	-0.208650	0.049723
C29	C	1.487931	-0.208638	-0.215858
C30	C	1.485043	-0.318132	-0.259483
C31	C	1.713852	0.148484	0.059209
C32	C	1.853279	0.151572	0.060435
C33	C	1.476116	0.346302	0.138000
C34	C	1.479201	0.462839	0.184420
N35	N	1.484275	0.154463	0.408250
N36	N	1.484304	0.154470	-0.285077
C37	C	1.569310	0.083761	0.456742
C38	C	1.569322	0.083761	0.610079
C39	C	1.399260	0.225176	0.666422
C40	C	1.399243	0.225170	0.513085
H41	H	0.865455	0.151828	0.301470
C42	C	1.489542	-0.148405	-0.337936
N43	N	1.490755	-0.103030	-0.429877
C44	C	0.846728	0.151427	-0.218488
N45	N	0.792466	0.150220	-0.328998
C46	C	1.662837	0.005973	0.341424
N47	N	1.733281	-0.052622	0.254568
H48	H	1.484703	-0.328365	0.508524
C49	C	1.479179	-0.542606	-0.362204
N50	N	1.478075	-0.587965	-0.490304
C51	C	1.121843	0.157553	0.341666
N52	N	1.176112	0.158809	0.452185
C53	C	1.662857	0.005973	0.663407
N54	N	1.733307	-0.052623	0.703570
C55	C	1.305728	0.302947	0.781753
N56	N	1.235277	0.361525	0.868619
H57	H	1.483878	-0.362718	-0.385364
H58	H	1.329991	0.282745	0.473602
C59	C	1.489488	-0.148448	0.219783
N60	N	1.490682	-0.103105	0.347883
C61	C	1.476042	-0.657599	-0.129140
N62	N	1.473643	-0.748324	-0.165274
H63	H	1.103102	0.157100	-0.178295
H64	H	1.487337	-0.229009	0.307203
H65	H	1.479439	-0.527017	0.429357
