data_functionalizedCrystal
_audit_creation_method	'MofGen! by Chris Wilmer'
_symmetry_space_group_name_H-M	'P1'
_symmetry_Int_Tables_number	1
_symmetry_cell_setting	triclinic
loop_
_symmetry_equiv_pos_as_xyz
  x,y,z
_cell_length_a	11.026607
_cell_length_b	14.421503
_cell_length_c	11.026607
_cell_angle_alpha	89.992800
_cell_angle_beta	108.586017
_cell_angle_gamma	90.008865
loop_
_atom_site_label
_atom_site_type_symbol
_atom_site_fract_x
_atom_site_fract_y
_atom_site_fract_z
O1	O	1.726737	0.077109	0.533608
O2	O	1.360157	0.077111	0.472844
O3	O	1.513066	0.077107	0.319936
O4	O	1.573829	0.077113	0.686516
O5	O	1.513039	-0.077117	0.319958
O6	O	1.360131	-0.077113	0.472866
O7	O	1.726711	-0.077114	0.533630
Cu8	Cu	1.543419	-0.091195	0.503250
Cu9	Cu	1.543450	0.091192	0.503224
O10	O	1.573803	-0.077110	0.686538
C11	C	1.312485	-0.000001	0.461645
C12	C	1.170471	-0.000000	0.428228
N13	N	1.543406	-0.219476	0.503270
C14	C	1.116821	0.000002	0.520498
C15	C	0.970043	0.000003	0.485962
C16	C	1.472677	-0.469128	0.573930
C17	C	1.593227	-0.530931	0.623818
C18	C	1.543431	-0.408638	0.503246
C19	C	1.422916	-0.530929	0.453395
C20	C	1.543445	-0.591359	0.503224
C21	C	1.664052	-0.469080	0.553203
C22	C	1.493654	-0.469072	0.382714
C23	C	1.614277	-0.530847	0.432571
C24	C	1.543422	-0.303377	0.503262
C25	C	1.543467	-0.696618	0.503210
C26	C	1.774384	-0.000000	0.544828
C27	C	1.916398	0.000005	0.578245
C28	C	1.501843	-0.000004	0.272287
C29	C	1.468426	-0.000000	0.130273
N30	N	1.543470	0.219473	0.503196
C31	C	1.560695	0.000001	0.076624
C32	C	1.526160	0.000004	-0.070155
C33	C	1.585026	0.000003	0.734187
C34	C	1.618443	0.000005	0.876200
H35	H	0.907314	0.000025	0.381393
H36	H	1.320993	-0.558099	0.411244
O37	O	1.685377	-0.000042	0.151640
C38	C	1.692102	-0.000020	0.281491
H39	H	1.599413	-0.029217	0.290846
H40	H	1.776006	-0.044797	0.338793
H41	H	1.706325	0.073968	0.319835
O42	O	1.191519	0.000127	0.645290
C43	C	1.165237	0.080014	0.706269
H44	H	1.065436	0.106645	0.651518
H45	H	1.170113	0.062052	0.808402
H46	H	1.238907	0.135943	0.708197
H47	H	1.451511	-0.441880	0.280813
O48	O	1.343633	-0.000120	0.055578
C49	C	1.282628	-0.080006	0.081880
H50	H	1.337372	-0.106641	0.181687
H51	H	1.180502	-0.062041	0.077003
H52	H	1.280678	-0.135933	0.008222
O53	O	1.685559	-0.563024	0.361089
C54	C	1.607797	-0.616836	0.259077
H55	H	1.503428	-0.595950	0.238269
H56	H	1.637358	-0.604708	0.170251
H57	H	1.619725	-0.693361	0.286219
O58	O	1.643484	-0.563513	0.745322
C59	C	1.643825	-0.661267	0.743493
H60	H	1.642087	-0.686474	0.644969
H61	H	1.733879	-0.687995	0.818894
H62	H	1.555790	-0.688379	0.765136
O63	O	0.991079	0.000134	0.703048
C64	C	0.964779	0.080024	0.764011
H65	H	0.864981	0.106651	0.709241
H66	H	0.969637	0.062067	0.866140
H67	H	1.038450	0.135954	0.765947
O68	O	1.401472	-0.000033	-0.145166
C69	C	1.394746	-0.000004	-0.275017
H70	H	1.487423	-0.029202	-0.284370
H71	H	1.310824	-0.044775	-0.332314
H72	H	1.380553	0.073987	-0.313370
O73	O	1.785612	-0.436658	0.603736
C74	C	1.784130	-0.338898	0.603201
H75	H	1.685522	-0.313336	0.600654
H76	H	1.859233	-0.311920	0.693293
H77	H	1.806435	-0.312385	0.515225
H78	H	1.723013	0.000074	-0.061072
O79	O	1.095589	0.000164	0.303501
C80	C	1.017786	0.080025	0.278685
H81	H	1.063858	0.135853	0.352104
H82	H	1.007148	0.106836	0.178556
H83	H	0.919439	0.061966	0.285326
H84	H	1.412934	-0.442029	0.633784
