data_functionalizedCrystal
_audit_creation_method	'MofGen! by Chris Wilmer'
_symmetry_space_group_name_H-M	'P1'
_symmetry_Int_Tables_number	1
_symmetry_cell_setting	triclinic
loop_
_symmetry_equiv_pos_as_xyz
  x,y,z
_cell_length_a	14.749905
_cell_length_b	10.654550
_cell_length_c	10.654550
_cell_angle_alpha	95.515069
_cell_angle_beta	75.903006
_cell_angle_gamma	104.086232
loop_
_atom_site_label
_atom_site_type_symbol
_atom_site_fract_x
_atom_site_fract_y
_atom_site_fract_z
O1	O	-0.079764	-1.692356	0.200930
O2	O	-0.079782	-1.326883	0.217741
O3	O	-0.079766	-1.518021	0.026594
O4	O	-0.079779	-1.501219	0.392077
O5	O	0.079906	-1.468930	-0.022518
O6	O	0.079890	-1.277792	0.168629
O7	O	0.079908	-1.643265	0.151818
Zn8	Zn	0.105251	-1.452734	0.152426
Zn9	Zn	-0.105124	-1.517414	0.217133
O10	O	0.079893	-1.452127	0.342965
C11	C	0.000052	-1.255540	0.191952
C12	C	0.000046	-1.116099	0.188262
N13	N	0.248826	-1.408601	0.108265
N14	N	-0.248699	-1.561557	0.261285
C15	C	0.399605	-1.285461	-0.014988
C16	C	0.299092	-1.316348	0.015938
C17	C	0.299061	-1.469999	0.169706
C18	C	0.399576	-1.439121	0.138797
C19	C	0.449840	-1.346852	0.046448
C20	C	0.449811	-1.500512	0.200234
C21	C	0.550317	-1.469640	0.169322
C22	C	0.600588	-1.377378	0.076974
C23	C	0.550346	-1.315981	0.015537
C24	C	0.399545	-1.592787	0.292576
C25	C	0.449781	-1.654177	0.354012
C26	C	0.550288	-1.623300	0.323108
C27	C	0.600559	-1.531038	0.230760
C28	C	0.600531	-1.684697	0.384545
C29	C	0.701037	-1.653826	0.353634
C30	C	0.701065	-1.500166	0.199848
C31	C	0.000069	-1.492241	-0.044759
C32	C	0.000067	-1.488550	-0.184202
C33	C	0.000072	-1.714609	0.177608
C34	C	0.000072	-1.854052	0.181300
C35	C	0.000044	-1.036614	0.300804
C36	C	0.000061	-0.905588	0.297322
C37	C	0.000076	-0.933546	0.068748
C38	C	0.000066	-1.064568	0.072229
C39	C	0.000072	-1.601090	-0.263689
C40	C	0.000061	-1.597617	-0.394707
C41	C	0.000043	-1.369053	-0.366738
C42	C	0.000048	-1.372529	-0.235721
C43	C	0.000055	-1.477908	0.414319
C44	C	0.000051	-1.481601	0.553764
H45	H	0.741993	-1.425020	0.124660
Cl46	Cl	0.462801	-1.169452	-0.131075
Cl47	Cl	0.000065	-1.739104	-0.494628
H48	H	0.000041	-1.280881	-0.170998
H49	H	0.000087	-1.695562	-0.221747
Cl50	Cl	0.000018	-1.223207	-0.431514
Cl51	Cl	0.235942	-1.239193	-0.061341
H52	H	0.682427	-1.352251	0.051801
H53	H	0.591274	-1.240835	-0.059651
H54	H	0.000099	-0.891571	-0.025724
Cl55	Cl	0.764194	-1.731010	0.430862
Cl56	Cl	0.000076	-1.164498	-0.069267
H57	H	0.258123	-1.545129	0.244894
Cl58	Cl	0.273193	-1.631598	0.331434
H59	H	0.000062	-0.840875	0.388965
H60	H	0.408842	-1.729307	0.429200
H61	H	0.559591	-1.759832	0.459727
H62	H	0.000035	-1.078564	0.395283
