data_functionalizedCrystal
_audit_creation_method	'MofGen! by Chris Wilmer'
_symmetry_space_group_name_H-M	'P1'
_symmetry_Int_Tables_number	1
_symmetry_cell_setting	triclinic
loop_
_symmetry_equiv_pos_as_xyz
  x,y,z
_cell_length_a	13.339071
_cell_length_b	14.044190
_cell_length_c	11.804365
_cell_angle_alpha	102.923601
_cell_angle_beta	74.875833
_cell_angle_gamma	104.410527
loop_
_atom_site_label
_atom_site_type_symbol
_atom_site_fract_x
_atom_site_fract_y
_atom_site_fract_z
O1	O	1.405399	0.472645	-0.099104
O2	O	1.105103	0.408757	-0.099094
O3	O	1.250735	0.301533	-0.099076
O4	O	1.259767	0.579869	-0.099123
O5	O	1.212393	0.329721	0.098975
O6	O	1.066760	0.436945	0.098957
O7	O	1.367056	0.500833	0.098947
Cu8	Cu	1.213407	0.471463	0.117035
Cu9	Cu	1.258752	0.438127	-0.117183
O10	O	1.221424	0.608057	0.098928
C11	C	1.047268	0.412059	-0.000067
C12	C	0.932062	0.379891	-0.000062
C13	C	0.882304	0.279577	-0.000041
C14	C	0.774063	0.249350	-0.000042
C15	C	0.715567	0.319434	-0.000055
C16	C	0.765323	0.419751	-0.000068
C17	C	0.873576	0.449980	-0.000076
C18	C	0.706839	0.489837	-0.000090
C19	C	0.756594	0.590154	-0.000103
C20	C	0.864837	0.620379	-0.000110
C21	C	0.923333	0.550294	-0.000097
C22	C	0.598585	0.459608	-0.000082
C23	C	0.589857	0.630012	-0.000117
C24	C	0.698098	0.660239	-0.000116
C25	C	1.227616	0.279275	-0.000047
C26	C	1.215841	0.170954	-0.000036
C27	C	1.277826	-0.063039	-0.000084
C28	C	1.194340	-0.027365	-0.000073
C29	C	1.206306	0.082990	-0.000052
C30	C	1.265862	-0.173404	-0.000105
C31	C	1.424892	0.497531	-0.000083
C32	C	1.540100	0.529698	-0.000096
C33	C	1.244544	0.630315	-0.000104
C34	C	1.256321	0.738634	-0.000122
N35	N	1.181522	0.494911	0.281772
N36	N	1.290645	0.414673	-0.281919
C37	C	1.367213	0.358347	0.655744
C38	C	1.391333	0.340604	0.531086
C39	C	1.338882	0.379179	0.468751
C40	C	1.262307	0.435501	0.531087
C41	C	1.238191	0.453252	0.655758
C42	C	1.209860	0.474084	0.468765
C43	C	1.133285	0.530406	0.531101
C44	C	1.109172	0.548153	0.655760
C45	C	1.161623	0.509578	0.718094
C46	C	1.233976	0.456333	0.344094
C47	C	1.104954	0.551238	0.344108
C48	C	1.080834	0.568981	0.468767
H49	H	0.558085	0.377930	-0.000072
H50	H	1.011471	0.574902	-0.000091
C51	C	1.386517	0.007658	-0.000065
C52	C	1.398481	0.119586	-0.000036
C53	C	1.507169	0.190298	-0.000011
C54	C	1.603893	0.149081	-0.000015
C55	C	1.591932	0.037147	-0.000045
C56	C	1.483244	-0.033565	-0.000070
H57	H	1.326878	0.150103	-0.000032
H58	H	1.516023	0.273159	0.000011
H59	H	1.684351	0.201425	0.000003
H60	H	1.663535	0.006630	-0.000048
H61	H	1.474390	-0.116426	-0.000091
H62	H	1.409918	0.326951	0.706505
C63	C	0.919564	0.730728	-0.000122
C64	C	0.972866	0.789576	0.102718
C65	C	1.027586	0.899926	0.102712
C66	C	1.029005	0.951430	-0.000133
C67	C	0.975701	0.892582	-0.102980
C68	C	0.920981	0.782232	-0.102975
H69	H	0.971817	0.751450	0.178857
H70	H	1.067045	0.943489	0.178847
H71	H	1.069513	1.033118	-0.000137
H72	H	0.976750	0.930708	-0.179119
H73	H	0.881522	0.738669	-0.179109
C74	C	1.365404	0.359656	0.331626
C75	C	1.278254	0.304113	0.263096
C76	C	1.304775	0.284582	0.125965
C77	C	1.418445	0.320594	0.057363
C78	C	1.505603	0.376140	0.125892
C79	C	1.479082	0.395671	0.263024
H80	H	1.194102	0.277452	0.313879
H81	H	1.240255	0.243463	0.075235
H82	H	1.438078	0.306136	-0.044150
H83	H	1.589755	0.402802	0.075109
H84	H	1.543602	0.436790	0.313753
H85	H	0.627433	0.294817	-0.000055
H86	H	1.296323	0.410476	0.293351
H87	H	1.453680	0.294749	0.480336
C88	C	1.047249	0.593673	0.275553
C89	C	0.925783	0.563393	0.292723
C90	C	0.868087	0.605827	0.224159
C91	C	0.931858	0.678542	0.138424
C92	C	1.053332	0.708825	0.121250
C93	C	1.111028	0.666391	0.189814
H94	H	0.878569	0.509562	0.356193
H95	H	0.778163	0.583409	0.236873
H96	H	0.889148	0.709954	0.087668
H97	H	1.100545	0.762656	0.057780
H98	H	1.200951	0.688810	0.177100
H99	H	0.929943	0.222524	-0.000039
H100	H	0.738625	0.741919	-0.000127
H101	H	0.542230	0.687080	-0.000128
H102	H	1.113879	-0.079702	-0.000078
C103	C	0.719340	0.139007	-0.000028
C104	C	0.717916	0.087511	0.102825
C105	C	0.663193	-0.022839	0.102838
C106	C	0.609895	-0.081692	-0.000002
C107	C	0.611318	-0.030196	-0.102863
C108	C	0.666040	0.080154	-0.102876
H109	H	0.757372	0.131078	0.178960
H110	H	0.662141	-0.060960	0.178983
H111	H	0.569387	-0.163380	0.000007
H112	H	0.571861	-0.073763	-0.178998
H113	H	0.667092	0.118275	-0.179021
H114	H	1.141982	0.524021	0.819602
H115	H	1.046829	0.594023	0.706514
H116	H	1.018485	0.614839	0.519537
