data_functionalizedCrystal
_audit_creation_method	'MofGen! by Chris Wilmer'
_symmetry_space_group_name_H-M	'P1'
_symmetry_Int_Tables_number	1
_symmetry_cell_setting	triclinic
loop_
_symmetry_equiv_pos_as_xyz
  x,y,z
_cell_length_a	19.121424
_cell_length_b	19.120786
_cell_length_c	11.169409
_cell_angle_alpha	87.520717
_cell_angle_beta	92.410610
_cell_angle_gamma	95.008527
loop_
_atom_site_label
_atom_site_type_symbol
_atom_site_fract_x
_atom_site_fract_y
_atom_site_fract_z
Zn1	Zn	1.063742	-0.234161	-0.584242
Zn2	Zn	1.563742	0.265839	-0.084242
Zn3	Zn	1.058625	-0.351861	-0.375324
Zn4	Zn	1.558625	0.148139	0.124676
Zn5	Zn	0.946070	-0.239225	-0.391744
Zn6	Zn	1.446070	0.260775	0.108256
Zn7	Zn	0.941026	-0.356822	-0.584139
Zn8	Zn	1.441026	0.143178	-0.084139
O9	O	1.002366	-0.295517	-0.483862
O10	O	1.502366	0.204483	0.016138
O11	O	1.161525	-0.245578	-0.549700
O12	O	1.661525	0.254422	-0.049700
O13	O	1.043663	-0.336962	-0.209552
O14	O	1.543663	0.163038	0.290448
O15	O	0.965931	-0.140081	-0.424193
O16	O	1.465931	0.359919	0.075807
O17	O	1.157766	-0.332051	-0.396209
O18	O	1.657766	0.167949	0.103791
O19	O	1.052385	-0.136360	-0.565621
O20	O	1.552385	0.363640	-0.065621
O21	O	0.960969	-0.254210	-0.221615
O22	O	1.460969	0.245790	0.278385
O23	O	0.846939	-0.259021	-0.424094
O24	O	1.346939	0.240979	0.075906
O25	O	0.957335	-0.340508	-0.752103
O26	O	1.457335	0.159492	-0.252103
O27	O	0.843233	-0.345419	-0.565446
O28	O	1.343233	0.154581	-0.065446
O29	O	1.047494	-0.250389	-0.752179
O30	O	1.547494	0.249611	-0.252179
O31	O	1.038773	-0.450991	-0.396110
O32	O	1.538773	0.049009	0.103890
O33	O	0.952374	-0.454637	-0.549525
O34	O	1.452374	0.045363	-0.049525
C35	C	0.819556	-0.303308	-0.496541
C36	C	1.319556	0.196692	0.003459
C37	C	0.741348	-0.306659	-0.501992
C38	C	1.241348	0.193341	-0.001992
C39	C	0.298927	-0.327843	-0.536606
C40	C	0.798927	0.172157	-0.036606
C41	C	0.372411	-0.324700	-0.531461
C42	C	0.872411	0.175300	-0.031461
C43	C	0.411063	-0.278074	-0.455427
C44	C	0.911063	0.221926	0.044573
C45	C	0.376226	-0.234593	-0.384524
C46	C	0.876226	0.265407	0.115476
C47	C	0.302743	-0.237739	-0.389663
C48	C	0.802743	0.262261	0.110337
C49	C	0.633029	-0.266323	-0.436228
C50	C	1.133029	0.233677	0.063772
C51	C	0.706517	-0.263179	-0.431097
C52	C	1.206517	0.236821	0.068903
C53	C	0.702697	-0.353288	-0.578034
C54	C	1.202697	0.146712	-0.078034
C55	C	0.629213	-0.356427	-0.583171
C56	C	1.129213	0.143573	-0.083171
C57	C	0.594383	-0.312948	-0.512264
C58	C	1.094383	0.187052	-0.012264
C59	C	0.486175	-0.274859	-0.450169
C60	C	0.986175	0.225141	0.049831
C61	C	0.519271	-0.316167	-0.517516
C62	C	1.019271	0.183833	-0.017516
C63	C	0.994490	-0.478346	-0.471049
C64	C	1.494490	0.021654	0.028951
C65	C	0.991185	-0.556558	-0.465603
C66	C	1.491185	-0.056558	0.034397
C67	C	1.034611	-0.591306	-0.536743
C68	C	1.534611	-0.091306	-0.036743
C69	C	1.031503	-0.664795	-0.531629
C70	C	1.531503	-0.164795	-0.031629
C71	C	0.984972	-0.703534	-0.455367
C72	C	1.484972	-0.203534	0.044633
C73	C	0.941542	-0.668781	-0.384224
C74	C	1.441542	-0.168781	0.115776
C75	C	0.944647	-0.595294	-0.389346
C76	C	1.444647	-0.095294	0.110654
C77	C	0.973343	-0.925518	-0.436221
C78	C	1.473343	-0.425518	0.063779
C79	C	0.970243	-0.999010	-0.431102
C80	C	1.470243	-0.499010	0.068898
C81	C	1.060203	-0.995019	-0.578509
C82	C	1.560203	-0.495019	-0.078509
C83	C	1.063307	-0.921530	-0.583619
C84	C	1.563307	-0.421530	-0.083619
C85	C	1.019874	-0.886784	-0.512481
C86	C	1.519874	-0.386784	-0.012481
C87	C	0.981795	-0.778651	-0.450134
C88	C	1.481795	-0.278651	0.049866
C89	C	1.023048	-0.811668	-0.517720
C90	C	1.523048	-0.311668	-0.017720
C91	C	1.185889	-0.287696	-0.471135
C92	C	1.685889	0.212304	0.028865
C93	C	1.264096	-0.284363	-0.465711
C94	C	1.764096	0.215637	0.034289
C95	C	1.002423	-0.295437	-0.796906
C96	C	1.502423	0.204563	-0.296906
C97	C	1.002447	-0.295402	-0.930307
C98	C	1.502447	0.204598	-0.430307
C99	C	1.010291	-0.111974	-0.496750
C100	C	1.510291	0.388026	0.003250
C101	C	1.013669	-0.033758	-0.502242
C102	C	1.513669	0.466242	-0.002242
C103	C	1.002351	-0.295545	-0.172036
C104	C	1.502351	0.204455	0.327964
C105	C	1.002471	-0.295375	-0.038641
C106	C	1.502471	0.204625	0.461359
H107	H	0.407702	-0.196631	-0.322609
H108	H	0.907702	0.303369	0.177391
H109	H	0.487798	-0.354132	-0.579419
H110	H	0.987798	0.145868	-0.079419
O111	O	1.113494	-0.879738	-0.665862
O112	O	1.613494	-0.379738	-0.165862
H113	H	1.150717	-0.844731	-0.612017
H114	H	1.650717	-0.344731	-0.112017
H115	H	0.731064	-0.388687	-0.635762
H116	H	1.231064	0.111313	-0.135762
H117	H	1.072504	-0.559769	-0.598838
H118	H	1.572504	-0.059769	-0.098838
O119	O	0.891360	-0.710569	-0.301968
O120	O	1.391360	-0.210569	0.198032
H121	H	0.836723	-0.698871	-0.327288
H122	H	1.336723	-0.198871	0.172712
H123	H	0.400768	-0.360108	-0.589189
H124	H	0.900768	0.139892	-0.089189
O125	O	0.897816	-0.557810	-0.312608
O126	O	1.397816	-0.057810	0.187392
H127	H	0.864944	-0.597092	-0.258706
H128	H	1.364944	-0.097092	0.241294
O129	O	1.107041	-1.032499	-0.655238
O130	O	1.607041	-0.532499	-0.155238
H131	H	1.139920	-0.993215	-0.709121
H132	H	1.639920	-0.493215	-0.209121
O133	O	0.587518	-0.406871	-0.664905
O134	O	1.087518	0.093129	-0.164905
H135	H	0.624082	-0.436637	-0.713235
H136	H	1.124082	0.063363	-0.213235
H137	H	0.517654	-0.236895	-0.388263
H138	H	1.017654	0.263105	0.111737
H139	H	1.066870	-0.693083	-0.589549
H140	H	1.566870	-0.193083	-0.089549
O141	O	0.748210	-0.212891	-0.349079
O142	O	1.248210	0.287109	0.150921
H143	H	0.711645	-0.183190	-0.300626
H144	H	1.211645	0.316810	0.199374
H145	H	0.943912	-0.810201	-0.388038
H146	H	1.443912	-0.310201	0.111962
O147	O	0.926503	-0.888056	-0.359477
O148	O	1.426503	-0.388056	0.140523
H149	H	0.892092	-0.856117	-0.417951
H150	H	1.392092	-0.356117	0.082049
H151	H	0.604679	-0.230922	-0.378485
H152	H	1.104679	0.269078	0.121515
O153	O	0.920049	-1.040799	-0.348855
O154	O	1.420049	-0.540799	0.151145
H155	H	0.890363	-1.004292	-0.300257
H156	H	1.390363	-0.504292	0.199743
O157	O	0.265169	-0.190840	-0.313205
O158	O	0.765169	0.309160	0.186795
H159	H	0.304390	-0.157883	-0.259479
H160	H	0.804390	0.342117	0.240521
O161	O	1.073241	-0.769891	-0.599962
O162	O	1.573241	-0.269891	-0.099962
H163	H	1.043151	-0.737748	-0.665498
H164	H	1.543151	-0.237748	-0.165498
H165	H	0.267463	-0.365807	-0.598528
H166	H	0.767463	0.134193	-0.098528
