data_functionalizedCrystal
_audit_creation_method	'MofGen! by Chris Wilmer'
_symmetry_space_group_name_H-M	'P1'
_symmetry_Int_Tables_number	1
_symmetry_cell_setting	triclinic
loop_
_symmetry_equiv_pos_as_xyz
  x,y,z
_cell_length_a	16.992694
_cell_length_b	16.974813
_cell_length_c	8.140239
_cell_angle_alpha	86.341924
_cell_angle_beta	90.002898
_cell_angle_gamma	87.024634
loop_
_atom_site_label
_atom_site_type_symbol
_atom_site_fract_x
_atom_site_fract_y
_atom_site_fract_z
O1	O	1.040209	0.167648	-0.158692
O2	O	0.811925	0.165809	-0.158496
O3	O	0.932431	0.052027	-0.143335
O4	O	0.919703	0.281429	-0.173852
O5	O	0.932424	0.052025	0.129892
O6	O	0.811919	0.165807	0.114732
O7	O	1.040202	0.167646	0.114536
Zn8	Zn	0.926059	0.166726	0.158014
Zn9	Zn	0.926068	0.166728	-0.201974
O10	O	0.919696	0.281428	0.099376
C11	C	0.782712	0.163442	-0.021573
C12	C	0.695675	0.156382	-0.020653
C13	C	0.931944	0.022537	-0.002803
C14	C	0.930491	-0.065331	0.008874
C15	C	0.645361	0.224498	-0.029713
C16	C	0.563582	0.217860	-0.028807
C17	C	0.532118	0.143105	-0.018854
C18	C	0.582439	0.074985	-0.009788
C19	C	0.664216	0.081623	-0.010682
C20	C	0.288550	0.115591	-0.015150
C21	C	0.206766	0.108957	-0.014261
C22	C	0.187915	0.251833	-0.033277
C23	C	0.269695	0.258465	-0.034180
C24	C	0.320008	0.190344	-0.025106
N25	N	0.448527	0.136319	-0.017933
N26	N	0.403598	0.197132	-0.026015
C27	C	0.929815	-0.106607	-0.134575
C28	C	0.928445	-0.189168	-0.123599
C29	C	0.927758	-0.230453	0.030829
C30	C	0.928433	-0.189172	0.174289
C31	C	0.929797	-0.106612	0.163311
C32	C	0.923674	-0.477372	0.079634
C33	C	0.922312	-0.559939	0.090601
C34	C	0.922324	-0.559929	-0.207288
C35	C	0.923692	-0.477367	-0.218253
C36	C	0.924362	-0.436093	-0.074793
N37	N	0.926361	-0.314845	0.042053
N38	N	0.925754	-0.351703	-0.086018
C39	C	1.069415	0.170013	-0.022390
C40	C	1.156452	0.177073	-0.023321
C41	C	0.920184	0.310918	-0.041160
C42	C	0.921636	0.398786	-0.052848
N43	N	0.926059	0.166724	0.403697
N44	N	0.926074	0.166724	-0.447656
H45	H	0.670972	0.285370	-0.037820
C46	C	0.927680	-0.234584	0.344156
H47	H	0.926780	-0.289666	0.330152
H48	H	0.882204	-0.217915	0.403133
H49	H	0.973608	-0.224193	0.403974
C50	C	0.927687	-0.234567	-0.281393
H51	H	0.928296	-0.198155	-0.374936
H52	H	0.881451	-0.263624	-0.283718
H53	H	0.972854	-0.269921	-0.282890
C54	C	0.924438	-0.431959	-0.388123
H55	H	0.923831	-0.468366	-0.471987
H56	H	0.970667	-0.402890	-0.398177
H57	H	0.879263	-0.396613	-0.399014
C58	C	0.132573	0.326761	-0.043250
H59	H	0.163025	0.372231	-0.049318
H60	H	0.100283	0.327144	0.051980
H61	H	0.100278	0.327140	-0.138592
C62	C	0.719562	0.006696	-0.000733
H63	H	0.689112	-0.038776	0.005305
H64	H	0.751863	0.006314	0.094591
H65	H	0.751847	0.006320	-0.095982
H66	H	0.930378	-0.072999	-0.260327
H67	H	0.924235	-0.443778	0.196449
H68	H	0.329506	0.060122	-0.007759
H69	H	0.921749	-0.593550	0.216361
C70	C	0.930543	-0.061209	0.321105
H71	H	0.929945	-0.097620	0.414649
H72	H	0.885375	-0.025861	0.322584
H73	H	0.976779	-0.032144	0.323442
H74	H	0.522619	0.273327	-0.036187
H75	H	0.295306	0.319338	-0.042305
H76	H	0.181152	0.048080	-0.006157
H77	H	0.556814	0.014118	-0.001660
H78	H	0.921776	-0.593543	-0.324085
