data_functionalizedCrystal
_audit_creation_method	'MofGen! by Chris Wilmer'
_symmetry_space_group_name_H-M	'P1'
_symmetry_Int_Tables_number	1
_symmetry_cell_setting	triclinic
loop_
_symmetry_equiv_pos_as_xyz
  x,y,z
_cell_length_a	10.654541
_cell_length_b	9.483335
_cell_length_c	11.026607
_cell_angle_alpha	101.384097
_cell_angle_beta	96.534973
_cell_angle_gamma	80.603309
loop_
_atom_site_label
_atom_site_type_symbol
_atom_site_fract_x
_atom_site_fract_y
_atom_site_fract_z
O1	O	1.689560	0.120839	0.189574
O2	O	1.327612	0.120851	0.205849
O3	O	1.478589	0.120841	0.020806
O4	O	1.538583	0.120849	0.374618
O5	O	1.509282	-0.120937	-0.016858
O6	O	1.358305	-0.120927	0.168185
O7	O	1.720253	-0.120939	0.151911
Cu8	Cu	1.542082	-0.143009	0.156609
Cu9	Cu	1.505783	0.142921	0.201151
O10	O	1.569277	-0.120928	0.336954
C11	C	1.295901	-0.000036	0.185823
C12	C	1.155681	-0.000031	0.182251
C13	C	1.482867	-0.000046	-0.043330
C14	C	1.449872	-0.000040	-0.178320
C15	C	1.175738	-0.000008	0.403522
C16	C	1.119891	0.000010	0.512475
C17	C	0.988143	0.000011	0.509111
C18	C	0.912237	-0.000010	0.396781
C19	C	0.968084	-0.000027	0.287828
C20	C	1.099836	-0.000024	0.291205
C21	C	0.948029	-0.000061	0.066558
C22	C	1.079776	-0.000052	0.069921
C23	C	0.872123	-0.000082	-0.045772
C24	C	0.927969	-0.000089	-0.154726
C25	C	1.059725	-0.000089	-0.151357
C26	C	1.135623	-0.000070	-0.039032
C27	C	1.751964	-0.000048	0.171937
C28	C	1.892182	-0.000044	0.175511
N29	N	1.567621	-0.344117	0.125280
C30	C	1.534572	-0.583746	0.165841
C31	C	1.513293	-0.416338	0.191919
N32	N	1.480252	0.344029	0.232470
C33	C	1.540975	-0.000041	-0.251360
C34	C	1.506875	-0.000034	-0.390880
C35	C	1.564998	-0.000039	0.401090
C36	C	1.597992	-0.000035	0.536082
H37	H	1.283011	0.000023	0.406278
Cl38	Cl	1.290467	-0.000020	-0.241235
H39	H	1.181708	0.000023	0.603931
Cl40	Cl	1.663759	-0.439978	0.007398
Cl41	Cl	1.417172	-0.320477	0.309814
Cl42	Cl	1.630706	-0.679609	0.047963
H43	H	0.942675	0.000015	0.597828
Cl44	Cl	1.700377	-0.000037	-0.188441
Cl45	Cl	1.347464	-0.000014	-0.453789
H46	H	1.701227	0.000070	-0.423150
H47	H	0.804964	-0.000026	0.394048
Cl48	Cl	0.706496	-0.000087	-0.050003
H49	H	0.866157	-0.000105	-0.246176
Cl50	Cl	1.301251	-0.000061	-0.034786
Cl51	Cl	1.129922	-0.000122	-0.288337
Cl52	Cl	1.384134	-0.560104	0.350359
