data_functionalizedCrystal
_audit_creation_method	'MofGen! by Chris Wilmer'
_symmetry_space_group_name_H-M	'P1'
_symmetry_Int_Tables_number	1
_symmetry_cell_setting	triclinic
loop_
_symmetry_equiv_pos_as_xyz
  x,y,z
_cell_length_a	21.395362
_cell_length_b	18.215405
_cell_length_c	21.395355
_cell_angle_alpha	89.980149
_cell_angle_beta	89.956060
_cell_angle_gamma	90.040762
loop_
_atom_site_label
_atom_site_type_symbol
_atom_site_fract_x
_atom_site_fract_y
_atom_site_fract_z
Zn1	Zn	0.957885	-0.292758	-0.354580
Zn2	Zn	1.457885	0.207242	0.145420
Zn3	Zn	0.957798	-0.415806	-0.249800
Zn4	Zn	1.457798	0.084194	0.250200
Zn5	Zn	0.853100	-0.292792	-0.249781
Zn6	Zn	1.353100	0.207208	0.250219
Zn7	Zn	0.853080	-0.415821	-0.354505
Zn8	Zn	1.353080	0.084179	0.145495
O9	O	0.905466	-0.354294	-0.302166
O10	O	1.405466	0.145706	0.197834
O11	O	1.045551	-0.309060	-0.340720
O12	O	1.545551	0.190940	0.159280
O13	O	0.943882	-0.399496	-0.162119
O14	O	1.443882	0.100504	0.337881
O15	O	0.867045	-0.189803	-0.263706
O16	O	1.367045	0.310197	0.236294
O17	O	1.045487	-0.399463	-0.263739
O18	O	1.545487	0.100537	0.236261
O19	O	0.944030	-0.189778	-0.340702
O20	O	1.444030	0.310222	0.159298
O21	O	0.866960	-0.309118	-0.162106
O22	O	1.366960	0.190882	0.337894
O23	O	0.765419	-0.309133	-0.263634
O24	O	1.265419	0.190867	0.236366
O25	O	0.867010	-0.399488	-0.442193
O26	O	1.367010	0.100512	0.057807
O27	O	0.765404	-0.399522	-0.340573
O28	O	1.265404	0.100478	0.159427
O29	O	0.944010	-0.309074	-0.442248
O30	O	1.444010	0.190926	0.057752
O31	O	0.943862	-0.518792	-0.263666
O32	O	1.443862	-0.018792	0.236334
O33	O	0.866926	-0.518803	-0.340592
O34	O	1.366926	-0.018803	0.159408
C35	C	0.742678	-0.354333	-0.302094
C36	C	1.242678	0.145667	0.197906
C37	C	0.673037	-0.354367	-0.302077
C38	C	1.173037	0.145633	0.197923
C39	C	0.640332	-0.401495	-0.342080
C40	C	1.140332	0.098505	0.157920
C41	C	0.574897	-0.401477	-0.342108
C42	C	1.074897	0.098523	0.157892
C43	C	0.542168	-0.354339	-0.302122
C44	C	1.042168	0.145661	0.197878
C45	C	0.574881	-0.307202	-0.262117
C46	C	1.074881	0.192798	0.237883
C47	C	0.640315	-0.307216	-0.262094
C48	C	1.140315	0.192784	0.237906
C49	C	0.438443	-0.348410	-0.245717
C50	C	0.938443	0.151590	0.254283
C51	C	0.373010	-0.348401	-0.245738
C52	C	0.873010	0.151599	0.254262
C53	C	0.340348	-0.354291	-0.302191
C54	C	0.840348	0.145709	0.197809
C55	C	0.373126	-0.360205	-0.358625
C56	C	0.873126	0.139795	0.141375
C57	C	0.438560	-0.360219	-0.358602
C58	C	0.938560	0.139781	0.141398
C59	C	0.471216	-0.354318	-0.302142
C60	C	0.971216	0.145682	0.197858
C61	C	0.236691	-0.401402	-0.342228
C62	C	0.736691	0.098598	0.157772
C63	C	0.171254	-0.401379	-0.342256
C64	C	0.671254	0.098621	0.157744
C65	C	0.171239	-0.307107	-0.262260
C66	C	0.671239	0.192893	0.237740
C67	C	0.236675	-0.307127	-0.262236
C68	C	0.736675	0.192873	0.237764
C69	C	0.269396	-0.354278	-0.302219
C70	C	0.769396	0.145722	0.197781
C71	C	0.905399	-0.545500	-0.302136
C72	C	1.405399	-0.045500	0.197864
C73	C	0.905428	-0.627299	-0.302144
C74	C	1.405428	-0.127299	0.197856
C75	C	0.945583	-0.815463	-0.262163
C76	C	1.445583	-0.315463	0.237837
C77	C	0.945611	-0.892322	-0.262178
C78	C	1.445611	-0.392322	0.237822
C79	C	0.865428	-0.892373	-0.342215
C80	C	1.365428	-0.392373	0.157785
C81	C	0.865404	-0.815516	-0.342203
C82	C	1.365404	-0.315516	0.157797
C83	C	0.905480	-0.777063	-0.302173
C84	C	1.405480	-0.277063	0.197827
C85	C	0.905533	-0.930779	-0.302200
C86	C	1.405533	-0.430779	0.197800
C87	C	0.905563	-1.014112	-0.302217
C88	C	1.405563	-0.514112	0.197783
C89	C	0.905451	-0.693724	-0.302157
C90	C	1.405451	-0.193724	0.197843
C91	C	1.068889	-0.354256	-0.302240
C92	C	1.568889	0.145744	0.197760
C93	C	1.138530	-0.354239	-0.302271
C94	C	1.638530	0.145761	0.197729
C95	C	0.905518	-0.354279	-0.465590
C96	C	1.405518	0.145721	0.034410
C97	C	0.905540	-0.354273	-0.535231
C98	C	1.405540	0.145727	-0.035231
C99	C	0.905549	-0.162341	-0.302210
C100	C	1.405549	0.337659	0.197790
C101	C	0.905585	-0.080542	-0.302229
C102	C	1.405585	0.419458	0.197771
C103	C	0.945632	-0.307192	-0.567974
C104	C	1.445632	0.192808	-0.067974
C105	C	0.945631	-0.307161	-0.633409
C106	C	1.445631	0.192839	-0.133409
C107	C	0.905545	-0.354223	-0.666099
C108	C	1.405545	0.145777	-0.166099
C109	C	0.865445	-0.401307	-0.633349
C110	C	1.365445	0.098693	-0.133349
C111	C	0.865442	-0.401332	-0.567914
C112	C	1.365442	0.098668	-0.067914
C113	C	0.900574	-0.420488	-0.769762
C114	C	1.400574	0.079512	-0.269762
C115	C	0.900581	-0.420465	-0.835195
C116	C	1.400581	0.079535	-0.335195
C117	C	0.905548	-0.354145	-0.867920
C118	C	1.405548	0.145855	-0.367920
C119	C	0.910522	-0.287847	-0.835205
C120	C	1.410522	0.212153	-0.335205
C121	C	0.910520	-0.287872	-0.769770
C122	C	1.410520	0.212128	-0.269770
C123	C	0.905542	-0.354200	-0.737052
C124	C	1.405542	0.145800	-0.237052
C125	C	0.945642	-0.307026	-0.971616
C126	C	1.445642	0.192974	-0.471616
C127	C	0.945637	-0.306993	-1.037052
C128	C	1.445637	0.193007	-0.537052
C129	C	0.865454	-0.401146	-1.036990
C130	C	1.365454	0.098854	-0.536990
C131	C	0.865455	-0.401172	-0.971555
C132	C	1.365455	0.098828	-0.471555
C133	C	0.905553	-0.354113	-0.938872
C134	C	1.405553	0.145887	-0.438872
C135	C	0.905450	-0.354256	-0.139379
C136	C	1.405450	0.145744	0.360621
C137	C	0.905549	-0.354055	-0.069738
C138	C	1.405549	0.145945	0.430262
H139	H	0.263334	-0.439792	-0.374787
H140	H	0.763334	0.060208	0.125213
H141	H	0.832747	-0.784248	-0.374787
H142	H	1.332747	-0.284248	0.125213
C143	C	0.676326	-0.453372	-0.386046
C144	C	1.176326	0.046628	0.113954
H145	H	0.719981	-0.446642	-0.380297
H146	H	1.219981	0.053358	0.119703
H147	H	0.665664	-0.442694	-0.428169
H148	H	1.165664	0.057306	0.071831
H149	H	0.665545	-0.502796	-0.376781
H150	H	1.165545	-0.002796	0.123219
C151	C	0.989716	-0.934562	-0.218161
C152	C	1.489716	-0.434562	0.281839
H153	H	0.983995	-0.985843	-0.223902
H154	H	1.483995	-0.485843	0.276098
H155	H	0.980559	-0.922003	-0.176051
H156	H	1.480559	-0.422003	0.323949
H157	H	1.031809	-0.921908	-0.227381
H158	H	1.531809	-0.421908	0.272619
C159	C	0.821350	-0.453076	-0.669302
C160	C	1.321350	0.046924	-0.169302
H161	H	0.797468	-0.481116	-0.640427
H162	H	1.297468	0.018884	-0.140427
H163	H	0.845304	-0.485127	-0.694844
H164	H	1.345304	0.014873	-0.194844
H165	H	0.794063	-0.424915	-0.694808
H166	H	1.294063	0.075085	-0.194808
H167	H	0.548264	-0.439854	-0.374685
H168	H	1.048264	0.060146	0.125315
C169	C	0.135279	-0.453233	-0.386253
C170	C	0.635279	0.046767	0.113747
H171	H	0.164141	-0.481322	-0.410053
H172	H	0.664141	0.018678	0.089947
H173	H	0.109801	-0.425136	-0.413611
H174	H	0.609801	0.074864	0.086389
H175	H	0.109706	-0.485246	-0.362230
H176	H	0.609706	0.014754	0.137770
H177	H	0.144592	-0.268723	-0.229705
H178	H	0.644592	0.231277	0.270295
C179	C	0.272651	-0.255295	-0.218225
C180	C	0.772651	0.244705	0.281775
H181	H	0.243789	-0.227222	-0.194410
H182	H	0.743789	0.272778	0.305590
H183	H	0.298230	-0.223276	-0.242230
H184	H	0.798230	0.276724	0.257770
H185	H	0.298123	-0.283413	-0.190871
H186	H	0.798123	0.216587	0.309129
C187	C	0.821344	-0.934671	-0.386243
C188	C	1.321344	-0.434671	0.113757
H189	H	0.797461	-0.900791	-0.410074
H190	H	1.297461	-0.400791	0.089926
H191	H	0.794066	-0.964703	-0.362246
H192	H	1.294066	-0.464703	0.137754
H193	H	0.845311	-0.964603	-0.413580
H194	H	1.345311	-0.464603	0.086420
H195	H	0.978282	-0.268872	-0.541367
H196	H	1.478282	0.231128	-0.041367
H197	H	0.465246	-0.365033	-0.404553
H198	H	0.965246	0.134967	0.095447
C199	C	0.336957	-0.341948	-0.183663
C200	C	0.836957	0.158052	0.316337
H201	H	0.293309	-0.342808	-0.191759
H202	H	0.793309	0.157192	0.308241
H203	H	0.347675	-0.297124	-0.163668
H204	H	0.847675	0.202876	0.336332
H205	H	0.347638	-0.381959	-0.157266
H206	H	0.847638	0.118041	0.342734
C207	C	0.989739	-0.255376	-0.669434
C208	C	1.489739	0.244624	-0.169434
H209	H	1.013622	-0.227357	-0.640597
H210	H	1.513622	0.272643	-0.140597
H211	H	0.965792	-0.223304	-0.694947
H212	H	1.465792	0.276696	-0.194947
H213	H	1.017025	-0.283525	-0.694976
H214	H	1.517025	0.216475	-0.194976
H215	H	0.914568	-0.233890	-0.743136
H216	H	1.414568	0.266110	-0.243136
H217	H	0.978217	-0.784156	-0.229569
H218	H	1.478217	-0.284156	0.270431
H219	H	0.914568	-0.233843	-0.861848
H220	H	1.414568	0.266157	-0.361848
C221	C	0.895110	-0.493443	-0.733767
C222	C	1.395110	0.006557	-0.233767
H223	H	0.895815	-0.483963	-0.690112
H224	H	1.395815	0.016037	-0.190112
H225	H	0.929180	-0.524387	-0.744515
H226	H	1.429180	-0.024387	-0.244515
H227	H	0.856953	-0.516979	-0.744463
H228	H	1.356953	-0.016979	-0.244463
C229	C	0.474366	-0.341891	-0.183618
C230	C	0.974366	0.158109	0.316382
H231	H	0.445474	-0.338365	-0.150013
H232	H	0.945474	0.161635	0.349987
H233	H	0.499913	-0.299230	-0.184510
H234	H	0.999913	0.200770	0.315490
H235	H	0.499865	-0.384055	-0.178017
H236	H	0.999865	0.115945	0.321983
H237	H	0.978288	-0.268704	-0.945003
H238	H	1.478288	0.231296	-0.445003
H239	H	0.978283	-0.268650	-1.063711
H240	H	1.478283	0.231350	-0.563711
C241	C	0.895108	-0.493387	-0.871176
C242	C	1.395108	0.006613	-0.371176
H243	H	0.892137	-0.532887	-0.842316
H244	H	1.392137	-0.032887	-0.342316
H245	H	0.931013	-0.499845	-0.896729
H246	H	1.431013	0.000155	-0.396729
H247	H	0.858787	-0.492422	-0.896675
H248	H	1.358787	0.007578	-0.396675
H249	H	0.832808	-0.439457	-1.063606
H250	H	1.332808	0.060543	-0.563606
C251	C	0.538882	-0.255351	-0.218133
C252	C	1.038882	0.244649	0.281867
H253	H	0.495228	-0.262097	-0.223871
H254	H	0.995228	0.237903	0.276129
H255	H	0.549653	-0.205923	-0.227377
H256	H	1.049653	0.294077	0.272623
H257	H	0.549552	-0.266054	-0.176013
H258	H	1.049552	0.233946	0.323987
C259	C	0.676291	-0.255377	-0.218086
C260	C	1.176291	0.244623	0.281914
H261	H	0.647430	-0.227302	-0.194273
H262	H	1.147430	0.272698	0.305727
H263	H	0.701871	-0.223362	-0.242093
H264	H	1.201871	0.276638	0.257907
H265	H	0.701762	-0.283494	-0.190731
H266	H	1.201762	0.216506	0.309269
H267	H	0.832812	-0.439515	-0.944895
H268	H	1.332812	0.060485	-0.444895
H269	H	0.832791	-0.439669	-0.541255
H270	H	1.332791	0.060331	-0.041255
H271	H	0.346534	-0.365000	-0.404594
H272	H	0.846534	0.135000	0.095406
