data_functionalizedCrystal
_audit_creation_method	'MofGen! by Chris Wilmer'
_symmetry_space_group_name_H-M	'P1'
_symmetry_Int_Tables_number	1
_symmetry_cell_setting	triclinic
loop_
_symmetry_equiv_pos_as_xyz
  x,y,z
_cell_length_a	23.532407
_cell_length_b	23.532407
_cell_length_c	15.186229
_cell_angle_alpha	89.991614
_cell_angle_beta	90.001988
_cell_angle_gamma	82.848678
loop_
_atom_site_label
_atom_site_type_symbol
_atom_site_fract_x
_atom_site_fract_y
_atom_site_fract_z
O1	O	0.755259	0.069134	-0.073128
O2	O	1.255259	0.569134	0.426872
O3	O	0.589395	0.079137	-0.073155
O4	O	1.089395	0.579137	0.426845
O5	O	0.677329	-0.008796	-0.073124
O6	O	1.177329	0.491204	0.426876
O7	O	0.667325	0.157067	-0.073158
O8	O	1.167325	0.657067	0.426842
O9	O	0.677323	-0.008797	0.073333
O10	O	1.177323	0.491203	0.573333
O11	O	0.589389	0.079136	0.073303
O12	O	1.089389	0.579136	0.573303
O13	O	0.755253	0.069133	0.073330
O14	O	1.255253	0.569133	0.573330
Zn15	Zn	0.672320	0.074134	0.096569
Zn16	Zn	1.172320	0.574134	0.596569
Zn17	Zn	0.672328	0.074136	-0.096394
Zn18	Zn	1.172328	0.574136	0.403606
O19	O	0.667320	0.157066	0.073299
O20	O	1.167320	0.657066	0.573299
C21	C	0.568176	0.078882	0.000071
C22	C	1.068176	0.578882	0.500071
C23	C	0.504959	0.078116	0.000061
C24	C	1.004959	0.578116	0.500061
C25	C	0.105856	0.125350	0.000091
C26	C	0.605856	0.625350	0.500091
C27	C	0.046456	0.124638	0.000097
C28	C	0.546456	0.624638	0.500097
O29	O	0.009711	0.168424	0.000120
O30	O	0.509711	0.668424	0.500120
N31	N	0.023830	0.072362	0.000106
N32	N	0.523830	0.572362	0.500106
C33	C	0.060607	0.020794	0.000119
C34	C	0.560607	0.520794	0.500119
O35	O	0.035908	-0.023737	0.000128
O36	O	0.535908	0.476263	0.500128
C37	C	0.120006	0.021506	0.000120
C38	C	0.620006	0.521506	0.500120
C39	C	0.142629	0.073785	0.000101
C40	C	0.642629	0.573785	0.500101
C41	C	0.128479	0.177625	0.000074
C42	C	0.628479	0.677625	0.500074
C43	C	0.187876	0.178336	0.000067
C44	C	0.687876	0.678336	0.500067
C45	C	0.224649	0.126772	0.000077
C46	C	0.724649	0.626772	0.500077
C47	C	0.202025	0.074496	0.000094
C48	C	0.702025	0.574496	0.500094
C49	C	0.156783	-0.030062	0.000138
C50	C	0.656783	0.469938	0.500138
C51	C	0.216185	-0.029345	0.000140
C52	C	0.716185	0.470655	0.500140
C53	C	0.238808	0.022934	0.000122
C54	C	0.738808	0.522934	0.500122
C55	C	0.298194	0.023643	0.000097
C56	C	0.798194	0.523643	0.500097
N57	N	0.320820	0.075920	0.000088
N58	N	0.820820	0.575920	0.500088
C59	C	0.284048	0.127484	0.000078
C60	C	0.784048	0.627484	0.500078
C61	C	-0.064135	0.019302	0.000119
C62	C	0.435865	0.519302	0.500119
C63	C	-0.123533	0.018589	0.000112
C64	C	0.376467	0.518589	0.500112
C65	C	-0.137680	0.122434	0.000091
C66	C	0.362320	0.622434	0.500091
C67	C	-0.078281	0.123146	0.000092
C68	C	0.421719	0.623146	0.500092
C69	C	-0.041509	0.071578	0.000109
C70	C	0.458491	0.571578	0.500109
C71	C	0.408784	0.128974	0.000062
C72	C	0.908784	0.628974	0.500062
C73	C	0.468186	0.129680	0.000051
C74	C	0.968186	0.629680	0.500051
C75	C	0.482329	0.025836	0.000076
C76	C	0.982329	0.525836	0.500076
C77	C	0.422932	0.025129	0.000082
C78	C	0.922932	0.525129	0.500082
C79	C	0.386160	0.076702	0.000078
C80	C	0.886160	0.576702	0.500078
O81	O	0.334974	-0.020119	0.000078
O82	O	0.834974	0.479881	0.500078
O83	O	0.308755	0.172007	0.000080
O84	O	0.808755	0.672007	0.500080
C85	C	0.677071	-0.030013	0.000107
C86	C	1.177071	0.469987	0.500107
C87	C	0.676305	-0.093230	0.000113
C88	C	1.176305	0.406770	0.500113
C89	C	0.723539	-0.492333	0.000073
C90	C	1.223539	0.007667	0.500073
C91	C	0.722827	-0.551733	0.000066
C92	C	1.222827	-0.051733	0.500066
O93	O	0.766613	-0.588478	0.000041
O94	O	1.266613	-0.088478	0.500041
N95	N	0.670551	-0.574359	0.000058
N96	N	1.170551	-0.074359	0.500058
C97	C	0.618983	-0.537582	0.000048
C98	C	1.118983	-0.037582	0.500048
O99	O	0.574452	-0.562281	0.000040
O100	O	1.074452	-0.062281	0.500040
C101	C	0.619695	-0.478182	0.000049
C102	C	1.119695	0.021818	0.500049
C103	C	0.671974	-0.455560	0.000065
C104	C	1.171974	0.044440	0.500065
C105	C	0.775814	-0.469710	0.000089
C106	C	1.275814	0.030290	0.500089
C107	C	0.776525	-0.410313	0.000097
C108	C	1.276525	0.089687	0.500097
C109	C	0.724961	-0.373540	0.000090
C110	C	1.224961	0.126460	0.500090
C111	C	0.672685	-0.396164	0.000074
C112	C	1.172685	0.103836	0.500074
C113	C	0.568127	-0.441406	0.000032
C114	C	1.068127	0.058594	0.500032
C115	C	0.568844	-0.382004	0.000032
C116	C	1.068844	0.117996	0.500032
C117	C	0.621123	-0.359381	0.000049
C118	C	1.121123	0.140619	0.500049
C119	C	0.621832	-0.299995	0.000075
C120	C	1.121832	0.200005	0.500075
N121	N	0.674109	-0.277368	0.000083
N122	N	1.174109	0.222632	0.500083
C123	C	0.725673	-0.314141	0.000090
C124	C	1.225673	0.185859	0.500090
C125	C	0.617491	-0.662324	0.000045
C126	C	1.117491	-0.162324	0.500045
C127	C	0.616778	-0.721722	0.000051
C128	C	1.116778	-0.221722	0.500051
C129	C	0.720623	-0.735869	0.000068
C130	C	1.220623	-0.235869	0.500068
C131	C	0.721335	-0.676470	0.000068
C132	C	1.221335	-0.176470	0.500068
C133	C	0.669767	-0.639698	0.000053
C134	C	1.169767	-0.139698	0.500053
C135	C	0.727163	-0.189405	0.000109
C136	C	1.227163	0.310595	0.500109
C137	C	0.727869	-0.130003	0.000121
C138	C	1.227869	0.369997	0.500121
C139	C	0.624025	-0.115860	0.000100
C140	C	1.124025	0.384140	0.500100
C141	C	0.623318	-0.175257	0.000092
C142	C	1.123318	0.324743	0.500092
C143	C	0.674891	-0.212029	0.000094
C144	C	1.174891	0.287971	0.500094
O145	O	0.578070	-0.263215	0.000097
O146	O	1.078070	0.236785	0.500097
O147	O	0.770196	-0.289433	0.000087
O148	O	1.270196	0.210567	0.500087
C149	C	0.776472	0.069388	0.000102
C150	C	1.276472	0.569388	0.500102
C151	C	0.839689	0.070154	0.000106
C152	C	1.339689	0.570154	0.500106
C153	C	0.667577	0.178283	0.000066
C154	C	1.167577	0.678283	0.500066
C155	C	0.668343	0.241500	0.000054
C156	C	1.168343	0.741500	0.500054
N157	N	0.672319	0.074133	0.228262
N158	N	1.172319	0.574133	0.728262
N159	N	0.672334	0.074133	-0.228087
N160	N	1.172334	0.574133	0.271913
C161	C	0.711269	0.035209	0.453998
C162	C	1.211269	0.535209	0.953998
C163	C	0.711271	0.035208	0.546188
C164	C	1.211271	0.535208	1.046188
C165	C	0.633379	0.113059	0.546170
C166	C	1.133379	0.613059	1.046170
C167	C	0.633375	0.113057	0.453982
C168	C	1.133375	0.613057	0.953982
C169	C	0.672323	0.074133	0.407899
C170	C	1.172323	0.574133	0.907899
C171	C	0.672329	0.074133	0.592276
C172	C	1.172329	0.574133	1.092276
C173	C	0.672331	0.074132	0.692232
C174	C	1.172331	0.574132	1.192232
C175	C	0.672321	0.074133	0.307936
C176	C	1.172321	0.574133	0.807936
H177	H	0.206289	0.220908	0.000052
H178	H	0.706289	0.720908	0.500052
H179	H	0.770443	-0.111587	0.000137
H180	H	1.270443	0.388413	0.500137
H181	H	0.512280	-0.016146	0.000081
H182	H	1.012280	0.483854	0.500081
H183	H	0.404512	-0.017441	0.000084
H184	H	0.904512	0.482559	0.500084
H185	H	0.769159	-0.219337	0.000106
H186	H	1.269159	0.280663	0.500106
F187	F	0.752721	-0.006221	0.595248
F188	F	1.252721	0.493779	1.095248
H189	H	-0.167632	0.164421	0.000087
H190	H	0.332368	0.664421	0.500087
H191	H	0.526850	-0.352066	0.000019
H192	H	1.026850	0.147934	0.500019
F193	F	0.832169	-0.386245	0.000096
F194	F	1.332169	0.113755	0.500096
H195	H	0.742982	0.003514	0.416479
H196	H	1.242982	0.503514	0.916479
H197	H	0.601670	0.144751	0.583701
H198	H	1.101670	0.644751	1.083701
F199	F	0.591920	0.154484	0.404916
F200	F	1.091920	0.654484	0.904916
H201	H	0.378851	0.170970	0.000061
H202	H	0.878851	0.670970	0.500061
F203	F	0.492259	0.185326	0.000029
F204	F	0.992259	0.685326	0.500029
H205	H	0.098544	0.219617	0.000069
H206	H	0.598544	0.719617	0.500069
F207	F	0.132720	-0.085706	0.000145
F208	F	0.632720	0.414294	0.500145
H209	H	0.580748	-0.193677	0.000103
H210	H	1.080748	0.306323	0.500103
H211	H	0.574207	-0.740136	0.000053
H212	H	1.074207	-0.240136	0.500053
F213	F	-0.054210	0.178789	0.000075
F214	F	0.445790	0.678789	0.500075
F215	F	0.830701	-0.508838	0.000096
F216	F	1.330701	-0.008838	0.500096
H217	H	0.525555	-0.459814	0.000013
H218	H	1.025555	0.040186	0.500013
H219	H	0.763906	-0.658056	0.000081
H220	H	1.263906	-0.158056	0.500081
F221	F	0.255318	-0.084233	0.000161
F222	F	0.755318	0.415767	0.500161
F223	F	-0.025003	-0.035587	0.000129
F224	F	0.474997	0.464413	0.500129
F225	F	-0.147603	-0.037054	0.000111
F226	F	0.352397	0.462946	0.500111
F227	F	0.562602	-0.623192	0.000038
F228	F	1.062602	-0.123192	0.500038
F229	F	0.775503	-0.775016	0.000071
F230	F	1.275503	-0.275016	0.500071
H231	H	0.582043	-0.085909	0.000097
H232	H	1.082043	0.414091	0.500097
