data_functionalizedCrystal
_audit_creation_method	'MofGen! by Chris Wilmer'
_symmetry_space_group_name_H-M	'P1'
_symmetry_Int_Tables_number	1
_symmetry_cell_setting	triclinic
loop_
_symmetry_equiv_pos_as_xyz
  x,y,z
_cell_length_a	17.000373
_cell_length_b	17.019294
_cell_length_c	9.130313
_cell_angle_alpha	93.884772
_cell_angle_beta	89.997747
_cell_angle_gamma	100.494335
loop_
_atom_site_label
_atom_site_type_symbol
_atom_site_fract_x
_atom_site_fract_y
_atom_site_fract_z
O1	O	-1.056066	0.028427	0.125434
O2	O	-0.556066	0.528427	0.625434
O3	O	-0.824300	0.057060	0.129036
O4	O	-0.324300	0.557060	0.629036
O5	O	-0.946649	-0.072538	0.112689
O6	O	-0.446649	0.427462	0.612689
O7	O	-0.933717	0.158025	0.141782
O8	O	-0.433717	0.658025	0.641782
O9	O	-0.946648	-0.072545	-0.130911
O10	O	-0.446648	0.427455	0.369089
O11	O	-0.824299	0.057053	-0.114563
O12	O	-0.324299	0.557053	0.385437
O13	O	-1.056065	0.028420	-0.118166
O14	O	-0.556065	0.528420	0.381834
Cu15	Cu	-0.940182	0.042736	-0.138607
Cu16	Cu	-0.440182	0.542736	0.361393
Cu17	Cu	-0.940183	0.042744	0.149478
Cu18	Cu	-0.440183	0.542744	0.649478
O19	O	-0.933716	0.158018	-0.101818
O20	O	-0.433716	0.658018	0.398182
C21	C	-0.794644	0.058594	0.007429
C22	C	-0.294644	0.558594	0.507429
C23	C	-0.706280	0.063167	0.008003
C24	C	-0.206280	0.563167	0.508003
C25	C	-0.946158	-0.101897	-0.012812
C26	C	-0.446158	0.398103	0.487188
C27	C	-0.944688	-0.189366	-0.023840
C28	C	-0.444688	0.310634	0.476160
C29	C	-0.674335	-0.007206	-0.000881
C30	C	-0.174335	0.492794	0.499119
C31	C	-0.591307	-0.002905	-0.000331
C32	C	-0.091307	0.497095	0.499669
C33	C	-0.540226	0.071772	0.009092
C34	C	-0.040226	0.571772	0.509092
C35	C	-0.572177	0.142151	0.017981
C36	C	-0.072177	0.642151	0.517981
C37	C	-0.655203	0.137848	0.017442
C38	C	-0.155203	0.637848	0.517442
C39	C	-0.289061	0.088391	0.011189
C40	C	0.210939	0.588391	0.511189
C41	C	-0.206030	0.092688	0.011723
C42	C	0.293970	0.592688	0.511723
C43	C	-0.225166	-0.052368	-0.006587
C44	C	0.274834	0.447632	0.493413
C45	C	-0.308193	-0.056664	-0.007134
C46	C	0.191807	0.443336	0.492866
C47	C	-0.340136	0.013715	0.001763
C48	C	0.159864	0.513715	0.501763
C49	C	-0.455358	0.076171	0.009650
C50	C	0.044642	0.576171	0.509650
C51	C	-0.425003	0.009315	0.001215
C52	C	0.074997	0.509315	0.501215
C53	C	-0.943999	-0.230450	0.103764
C54	C	-0.443999	0.269550	0.603764
C55	C	-0.942612	-0.312635	0.093397
C56	C	-0.442612	0.187365	0.593397
C57	C	-0.941920	-0.353735	-0.044575
C58	C	-0.441920	0.146265	0.455425
C59	C	-0.942606	-0.312644	-0.172189
C60	C	-0.442606	0.187356	0.327811
C61	C	-0.943987	-0.230460	-0.161821
C62	C	-0.443987	0.269540	0.338179
C63	C	-0.937745	-0.601879	-0.082522
C64	C	-0.437745	-0.101879	0.417478
C65	C	-0.936366	-0.684070	-0.092881
C66	C	-0.436366	-0.184070	0.407119
C67	C	-0.936371	-0.684055	0.172707
C68	C	-0.436371	-0.184055	0.672707
C69	C	-0.937757	-0.601870	0.183062
C70	C	-0.437757	-0.101870	0.683062
C71	C	-0.938438	-0.560785	0.055449
C72	C	-0.438438	-0.060785	0.555449
C73	C	-0.940505	-0.437742	-0.055174
C74	C	-0.440505	0.062258	0.444826
C75	C	-0.939848	-0.476779	0.066050
C76	C	-0.439848	0.023221	0.566050
C77	C	-0.085721	0.026886	0.003434
C78	C	0.414279	0.526886	0.503434
C79	C	-0.174084	0.022314	0.002839
C80	C	0.325916	0.522314	0.502839
C81	C	-0.934207	0.187377	0.023686
C82	C	-0.434207	0.687377	0.523686
C83	C	-0.935677	0.274845	0.034724
C84	C	-0.435677	0.774845	0.534724
N85	N	-0.940184	0.042744	0.352100
N86	N	-0.440184	0.542744	0.852100
C87	C	-0.994460	-0.014544	0.421526
C88	C	-0.494460	0.485456	0.921526
C89	C	-0.994462	-0.014549	0.574862
C90	C	-0.494462	0.485451	1.074862
C91	C	-0.885905	0.100027	0.589334
C92	C	-0.385905	0.600027	1.089334
C93	C	-0.885908	0.100035	0.436001
C94	C	-0.385908	0.600035	0.936001
C95	C	-1.057131	-0.080696	0.413171
C96	C	-0.557131	0.419304	0.913171
C97	C	-1.057133	-0.080701	0.566508
C98	C	-0.557133	0.419299	1.066508
N99	N	-0.940184	0.042733	0.658770
N100	N	-0.440184	0.542733	1.158770
H101	H	-0.715921	-0.068016	-0.008561
H102	H	-0.215921	0.431984	0.491439
H103	H	-0.530579	0.202954	0.025664
H104	H	-0.030579	0.702954	0.525664
H105	H	-0.681211	0.195154	0.024669
H106	H	-0.181211	0.695154	0.524669
H107	H	-0.841716	0.146672	0.657663
H108	H	-0.341716	0.646672	1.157663
H109	H	-0.940406	-0.443311	0.178386
H110	H	-0.440406	0.056689	0.678386
H111	H	-0.199149	-0.109667	-0.013813
H112	H	0.300851	0.390333	0.486187
H113	H	-1.114698	-0.065877	0.615946
H114	H	-0.614698	0.434123	1.115946
H115	H	-0.938316	-0.568441	-0.186435
H116	H	-0.438316	-0.068441	0.313565
H117	H	-1.118136	-0.071827	0.372691
H118	H	-0.618136	0.428173	0.872691
H119	H	-1.038466	-0.136573	0.358542
H120	H	-0.538466	0.363427	0.858542
H121	H	-0.944537	-0.197007	-0.265730
H122	H	-0.444537	0.302993	0.234270
H123	H	-0.939944	-0.471215	-0.167512
H124	H	-0.439944	0.028785	0.332488
H125	H	-0.841719	0.146690	0.379478
H126	H	-0.341719	0.646690	0.879478
H127	H	-0.565302	-0.060211	-0.007564
H128	H	-0.065302	0.439789	0.492436
H129	H	-0.349779	-0.117473	-0.014814
H130	H	0.150221	0.382527	0.485186
H131	H	-1.044254	-0.140365	0.600577
H132	H	-0.544254	0.359635	1.100577
H133	H	-0.935798	-0.717531	-0.205240
H134	H	-0.435798	-0.217531	0.294760
H135	H	-0.164440	0.153502	0.019391
H136	H	0.335560	0.653502	0.519391
H137	H	-0.466597	-0.051486	-0.006449
H138	H	0.033403	0.448514	0.493551
H139	H	-0.315059	0.145698	0.018443
H140	H	0.184941	0.645698	0.518443
H141	H	-0.942038	-0.346114	-0.284529
H142	H	-0.442038	0.153886	0.215471
H143	H	-0.413759	0.136972	0.017321
H144	H	0.086241	0.636972	0.517321
H145	H	-0.944567	-0.196993	0.216116
H146	H	-0.444567	0.303007	0.716116
H147	H	-0.942055	-0.346083	0.197307
H148	H	-0.442055	0.153917	0.697307
H149	H	-0.938321	-0.568412	0.295414
H150	H	-0.438321	-0.068412	0.795414
H151	H	-0.935814	-0.717515	0.276602
H152	H	-0.435814	-0.217515	0.776602
