data_functionalizedCrystal
_audit_creation_method	'MofGen! by Chris Wilmer'
_symmetry_space_group_name_H-M	'P1'
_symmetry_Int_Tables_number	1
_symmetry_cell_setting	triclinic
loop_
_symmetry_equiv_pos_as_xyz
  x,y,z
_cell_length_a	14.395555
_cell_length_b	21.606444
_cell_length_c	21.606444
_cell_angle_alpha	60.001013
_cell_angle_beta	89.998800
_cell_angle_gamma	59.998460
loop_
_atom_site_label
_atom_site_type_symbol
_atom_site_fract_x
_atom_site_fract_y
_atom_site_fract_z
Zr1	Zr	0.894911	0.677418	-0.081166
O2	O	0.746589	0.806538	-0.179991
O3	O	0.940382	0.548299	-0.050874
O4	O	0.940392	0.677414	-0.179988
O5	O	0.746568	0.677427	0.050974
O6	O	1.093267	0.677410	-0.179982
O7	O	0.746578	0.677424	-0.050877
O8	O	1.093247	0.446447	0.050978
O9	O	0.746587	0.908389	-0.179987
O10	O	1.073861	0.601404	-0.037947
O11	O	0.959765	0.601410	0.038058
O12	O	0.959778	0.753426	-0.113956
O13	O	0.845682	0.753431	-0.037951
Zr14	Zr	1.138712	0.677416	0.081282
Zr15	Zr	1.138728	0.677411	-0.081158
Zr16	Zr	0.894895	0.677423	0.081274
Zr17	Zr	0.894909	0.839859	-0.081161
Zr18	Zr	1.138715	0.514975	0.081277
O19	O	1.093242	0.806534	0.050990
O20	O	1.093265	0.806528	-0.179978
O21	O	0.746566	0.806545	0.050978
O22	O	1.287035	0.548296	0.180107
O23	O	1.287058	0.548289	-0.050862
O24	O	0.940359	0.548306	0.180094
O25	O	1.287055	0.677407	-0.050858
O26	O	1.093231	0.677420	0.180104
O27	O	0.940357	0.677424	0.180098
O28	O	1.287045	0.677410	0.050993
O29	O	0.940389	0.908383	-0.179980
O30	O	1.093235	0.446451	0.180096
O31	O	1.287036	0.446445	0.180103
O32	O	1.287049	0.446441	0.050985
O33	O	0.746574	0.908393	-0.050869
O34	O	0.940376	0.908387	-0.050862
O35	O	1.073846	0.601408	0.114072
O36	O	1.187942	0.601403	0.038067
O37	O	1.073858	0.753424	-0.037942
O38	O	0.959763	0.753430	0.038063
C39	C	1.016815	0.474229	0.000051
C40	C	1.016816	0.405269	0.000049
C41	C	0.711834	0.677426	0.000047
C42	C	0.608328	0.677429	0.000044
C43	C	1.076370	0.372868	-0.039626
C44	C	1.076374	0.308068	-0.039621
C45	C	1.016817	0.275674	0.000055
C46	C	0.957261	0.308078	0.039736
C47	C	0.957264	0.372872	0.039735
C48	C	0.957247	0.046768	0.039742
C49	C	0.957246	-0.018029	0.039738
C50	C	1.076358	-0.018035	-0.039614
C51	C	1.076361	0.046759	-0.039615
C52	C	1.016810	0.079153	0.000068
C53	C	1.016808	0.149416	0.000064
C54	C	1.016811	0.205418	0.000056
C55	C	0.485536	0.760318	-0.041393
C56	C	0.454704	0.718880	-0.071426
C57	C	0.454737	0.718864	0.030071
C58	C	0.578860	0.635991	-0.030031
C59	C	0.578889	0.635986	0.071506
C60	C	0.548130	0.594488	0.041491
C61	C	1.321789	0.677408	0.000069
C62	C	1.425296	0.677405	0.000072
C63	C	1.016832	0.677411	-0.203129
C64	C	1.016839	0.677409	-0.272089
C65	C	1.016809	0.880605	0.000065
C66	C	1.016807	0.949565	0.000067
C67	C	0.932565	0.677429	-0.695397
C68	C	0.932575	0.677422	-0.630597
C69	C	1.016801	0.677418	-0.598200
C70	C	1.101029	0.677411	-0.630601
C71	C	1.101023	0.677412	-0.695396
C72	C	1.101057	0.677409	-0.369290
C73	C	1.101055	0.677412	-0.304491
C74	C	0.932609	0.677420	-0.304491
C75	C	0.932603	0.677420	-0.369286
C76	C	1.016834	0.677409	-0.401679
C77	C	1.016823	0.677414	-0.471941
C78	C	1.016808	0.677419	-0.527943
C79	C	1.016792	0.677423	0.203245
C80	C	1.016785	0.677425	0.272205
C81	C	1.321792	0.474220	0.000062
C82	C	1.425300	0.405257	0.000064
C83	C	1.016795	0.474235	0.203239
C84	C	1.016789	0.405276	0.272196
C85	C	1.321772	0.474226	0.203250
C86	C	1.425273	0.405264	0.272211
C87	C	0.711851	0.880608	-0.203134
C88	C	0.608350	0.949570	-0.272095
C89	C	0.711831	0.880614	0.000054
C90	C	0.608324	0.949577	0.000052
C91	C	1.016829	0.880599	-0.203123
C92	C	1.016834	0.949557	-0.272080
C93	C	1.414359	0.372871	-0.039621
C94	C	1.511606	0.308082	-0.039635
C95	C	1.619793	0.275675	0.000041
C96	C	1.630731	0.308066	0.039727
C97	C	1.533485	0.372859	0.039736
C98	C	1.076335	0.372892	0.344265
C99	C	1.076326	0.308108	0.409064
C100	C	1.016776	0.275704	0.401793
C101	C	0.957222	0.308095	0.329717
C102	C	0.957226	0.372883	0.264920
C103	C	1.533445	0.372876	0.264922
C104	C	1.630704	0.308089	0.329712
C105	C	1.619789	0.275686	0.401791
C106	C	1.511606	0.308080	0.409079
C107	C	1.414349	0.372871	0.344289
C108	C	0.500178	0.981965	-0.264806
C109	C	0.402919	1.046773	-0.329596
C110	C	0.413834	1.079179	-0.401675
C111	C	0.522018	1.046781	-0.408963
C112	C	0.619275	0.981979	-0.344173
C113	C	0.619264	0.981969	0.039730
C114	C	0.522017	1.046777	0.039726
C115	C	0.413831	1.079186	0.000048
C116	C	0.402892	1.046792	-0.039635
C117	C	0.500138	0.981990	-0.039634
C118	C	1.076396	0.981940	-0.264785
C119	C	1.076423	1.046725	-0.329572
C120	C	1.016882	1.079131	-0.401653
C121	C	0.957319	1.046741	-0.408947
C122	C	0.957298	0.981953	-0.344161
H123	H	1.124863	0.399243	-0.071939
H124	H	0.863998	0.677425	-0.604219
O125	O	1.309248	0.404459	0.351337
C126	C	1.249393	0.495256	0.316223
H127	H	1.312478	0.513010	0.313220
H128	H	1.195629	0.513871	0.350593
H129	H	1.191674	0.532307	0.256462
O130	O	1.735870	0.276568	0.322758
C131	C	1.819382	0.212427	0.395393
H132	H	1.781490	0.223056	0.438349
H133	H	1.894356	0.217712	0.394662
H134	H	1.849832	0.144648	0.411902
H135	H	0.491269	0.955584	-0.206121
O136	O	0.850696	0.677577	-0.400860
C137	C	0.789089	0.752959	-0.476042
H138	H	0.797332	0.805659	-0.482867
H139	H	0.695608	0.778265	-0.489428
H140	H	0.824509	0.735912	-0.516626
H141	H	0.460095	0.830408	-0.076489
O142	O	0.297924	1.078108	-0.322372
C143	C	0.309158	1.035611	-0.244858
H144	H	0.395947	0.969937	-0.210319
H145	H	0.239414	1.024440	-0.235825
H146	H	0.301198	1.078091	-0.225752
O147	O	0.850762	0.677539	-0.273009
C148	C	0.789129	0.752944	-0.273239
H149	H	0.843397	0.778073	-0.276097
H150	H	0.766207	0.735988	-0.219198
H151	H	0.707948	0.805743	-0.324608
O152	O	1.134236	0.276723	-0.078233
C153	C	1.186818	0.319198	-0.113242
H154	H	1.140109	0.384875	-0.121096
H155	H	1.183608	0.330364	-0.170879
H156	H	1.279254	0.276706	-0.076063
O157	O	1.501215	0.276472	0.479155
C158	C	1.610260	0.212354	0.534768
H159	H	1.674712	0.184036	0.509500
H160	H	1.609212	0.157829	0.584734
H161	H	1.635034	0.243349	0.555041
H162	H	0.334632	1.131945	-0.454425
H163	H	0.632221	0.600983	-0.055484
O164	O	0.390767	0.760794	0.060233
C165	C	0.281689	0.832490	0.006168
H166	H	0.286087	0.853483	-0.053145
H167	H	0.250535	0.889312	0.011089
H168	H	0.220240	0.812653	0.016843
H169	H	0.908774	0.281693	0.072045
H170	H	0.908740	0.399241	0.206241
H171	H	0.530892	1.073174	-0.467657
H172	H	1.169646	0.677407	-0.278114
O173	O	0.724266	0.950574	-0.351395
C174	C	0.713029	0.993092	-0.428908
H175	H	0.626233	1.019802	-0.463454
H176	H	0.782760	0.944492	-0.437954
H177	H	0.721008	1.049362	-0.447996
O178	O	0.724264	0.950616	0.078289
C179	C	0.713044	0.993100	0.113319
H180	H	0.626261	1.058778	0.082192
H181	H	0.782797	1.004261	0.111187
H182	H	0.721001	0.950614	0.174902
H183	H	1.016907	1.131886	-0.454400
O184	O	1.735742	0.276693	0.078289
C185	C	1.724564	0.319143	0.113345
H186	H	1.637797	0.384833	0.082229
H187	H	1.794342	0.330277	0.111229
H188	H	1.732515	0.276646	0.174924
H189	H	0.530946	1.073141	0.072043
O190	O	0.319488	1.142103	0.000161
C191	C	0.352358	1.163751	0.043680
H192	H	0.442128	1.106914	0.085629
H193	H	0.290926	1.177213	0.075984
H194	H	0.350600	1.224628	0.004619
O195	O	1.134160	0.950618	-0.194810
C196	C	1.090364	1.019758	-0.186496
H197	H	1.046757	1.084577	-0.244822
H198	H	1.162848	1.009979	-0.152415
H199	H	1.026076	1.020628	-0.155529
H200	H	0.314794	1.073190	-0.071939
O201	O	0.489643	0.950368	-0.078060
C202	C	0.542289	0.859583	-0.027116
H203	H	0.608580	0.832097	0.025103
H204	H	0.585450	0.826002	-0.055898
H205	H	0.475409	0.847240	-0.009357
O206	O	1.134110	1.078338	-0.322574
C207	C	1.057656	1.169128	-0.357665
H208	H	0.979287	1.196615	-0.401836
H209	H	1.100874	1.202693	-0.386416
H210	H	1.030986	1.181492	-0.313118
H211	H	0.908762	0.073133	0.072058
H212	H	1.124854	0.073135	-0.071926
O213	O	0.899643	1.078215	-0.479010
C214	C	0.976111	1.062363	-0.518854
H215	H	1.054505	1.054271	-0.494092
H216	H	0.932926	1.119929	-0.581205
H217	H	1.002734	1.000074	-0.513484
O218	O	0.899490	0.950407	-0.351118
C219	C	0.912181	0.886305	-0.278486
H220	H	0.992635	0.857917	-0.235524
H221	H	0.918927	0.831825	-0.279218
H222	H	0.835245	0.917336	-0.261985
O223	O	1.134200	-0.049635	-0.078090
C224	C	1.121413	-0.113758	-0.069597
H225	H	1.099481	-0.142094	-0.016009
H226	H	1.204305	-0.168269	-0.065052
H227	H	1.050115	-0.082763	-0.120861
O228	O	0.850654	0.677587	-0.726969
C229	C	0.789044	0.752970	-0.802150
H230	H	0.797291	0.805669	-0.808976
H231	H	0.695562	0.778277	-0.815532
H232	H	0.824455	0.735924	-0.842736
H233	H	0.908745	-0.044403	0.072050
O234	O	1.182914	0.677457	-0.400684
C235	C	1.257259	0.677443	-0.358188
H236	H	1.211886	0.704994	-0.325773
H237	H	1.284428	0.719720	-0.398044
H238	H	1.335579	0.607606	-0.316384
H239	H	1.124829	0.399268	0.350200
H240	H	0.908766	0.399254	0.072040
H241	H	1.698968	0.222916	0.000028
O242	O	1.016941	0.212739	0.464820
C243	C	1.082251	0.191125	0.529985
H244	H	1.145216	0.208984	0.515102
H245	H	1.130737	0.117892	0.575750
H246	H	1.023616	0.229018	0.551799
O247	O	0.390797	0.760809	-0.143532
C248	C	0.356754	0.848181	-0.187048
H249	H	0.358750	0.868688	-0.147912
H250	H	0.266676	0.892686	-0.228469
H251	H	0.417306	0.853822	-0.219953
O252	O	0.578927	0.510751	0.083298
C253	C	0.698581	0.452297	0.112004
H254	H	0.736459	0.486720	0.075057
H255	H	0.725243	0.393166	0.111630
H256	H	0.730798	0.429739	0.172536
H257	H	0.632398	0.600986	0.131916
H258	H	1.169613	0.677402	-0.604217
H259	H	1.169604	0.677407	-0.721773
O260	O	0.899286	0.276732	0.322526
C261	C	0.846749	0.319183	0.245022
H262	H	0.834936	0.384866	0.210451
H263	H	0.760251	0.330331	0.236003
H264	H	0.902574	0.276680	0.225940
H265	H	1.326277	0.399257	-0.071939
O266	O	1.134287	0.276715	0.479016
C267	C	1.186833	0.319219	0.471530
H268	H	1.198618	0.345909	0.413708
H269	H	1.273345	0.270615	0.517996
H270	H	1.131030	0.375502	0.476834
O271	O	1.543919	0.404424	0.078235
C272	C	1.434899	0.468540	0.069765
H273	H	1.370419	0.496906	0.016171
H274	H	1.435992	0.523033	0.065246
H275	H	1.410128	0.437529	0.121027
O276	O	1.500763	0.276687	-0.078193
C277	C	1.384420	0.319196	-0.113213
H278	H	1.332574	0.345891	-0.082082
H279	H	1.370856	0.270593	-0.111076
H280	H	1.355751	0.375476	-0.174797
H281	H	1.698991	0.222929	0.454541
O282	O	1.544157	0.404173	0.194935
C283	C	1.604106	0.334997	0.186662
H284	H	1.657829	0.270201	0.245000
H285	H	1.661870	0.344764	0.152533
H286	H	1.541099	0.334089	0.155763
