data_functionalizedCrystal
_audit_creation_method	'MofGen! by Chris Wilmer'
_symmetry_space_group_name_H-M	'P1'
_symmetry_Int_Tables_number	1
_symmetry_cell_setting	triclinic
loop_
_symmetry_equiv_pos_as_xyz
  x,y,z
_cell_length_a	23.532407
_cell_length_b	22.010155
_cell_length_c	13.339070
_cell_angle_alpha	90.008079
_cell_angle_beta	80.760980
_cell_angle_gamma	90.005729
loop_
_atom_site_label
_atom_site_type_symbol
_atom_site_fract_x
_atom_site_fract_y
_atom_site_fract_z
O1	O	0.775026	0.050484	-0.122594
O2	O	0.612023	0.050493	-0.140334
O3	O	0.674817	0.050488	0.015611
O4	O	0.712232	0.050489	-0.278540
O5	O	0.674805	-0.050563	0.015588
O6	O	0.612011	-0.050557	-0.140358
O7	O	0.775014	-0.050566	-0.122618
Cu8	Cu	0.693511	-0.059788	-0.131490
Cu9	Cu	0.693526	0.059715	-0.131462
O10	O	0.712220	-0.050561	-0.278563
C11	C	0.590728	-0.000031	-0.139894
C12	C	0.527292	-0.000027	-0.138536
C13	C	0.245345	-0.000044	-0.040649
C14	C	0.304948	-0.000044	-0.041911
O15	O	0.329175	-0.000065	0.035741
N16	N	0.342520	-0.000039	-0.134621
C17	C	0.320485	-0.000041	-0.226075
O18	O	0.357915	-0.000038	-0.305047
C19	C	0.260882	-0.000046	-0.224812
C20	C	0.223313	-0.000044	-0.132096
C21	C	0.207776	-0.000043	0.052059
C22	C	0.148177	-0.000042	0.053320
C23	C	0.126146	-0.000042	-0.038127
C24	C	0.163714	-0.000043	-0.130835
C25	C	0.238848	-0.000052	-0.316265
C26	C	0.179241	-0.000057	-0.314994
C27	C	0.141672	-0.000055	-0.222278
C28	C	0.082083	-0.000042	-0.221021
N29	N	0.044512	-0.000047	-0.128311
C30	C	0.066543	-0.000047	-0.036864
C31	C	0.445654	-0.000033	-0.228719
C32	C	0.505255	-0.000024	-0.229983
C33	C	0.489715	-0.000028	-0.045819
C34	C	0.430112	-0.000032	-0.044557
C35	C	0.408082	-0.000037	-0.136010
C36	C	-0.058620	-0.000044	-0.034222
C37	C	-0.118224	-0.000041	-0.032969
C38	C	-0.102678	-0.000040	-0.217132
C39	C	-0.043079	-0.000040	-0.218386
C40	C	-0.021052	-0.000044	-0.126923
O41	O	0.057815	-0.000023	-0.298632
O42	O	0.029106	-0.000058	0.042096
N43	N	0.693505	-0.143841	-0.131509
C44	C	0.721335	-0.563623	-0.062419
C45	C	0.721336	-0.627230	-0.062412
O46	O	0.744977	-0.660124	-0.003683
N47	N	0.693522	-0.659048	-0.131441
C48	C	0.665699	-0.627255	-0.200474
O49	O	0.642041	-0.660159	-0.259187
C50	C	0.665695	-0.563648	-0.200476
C51	C	0.693516	-0.531834	-0.131449
C52	C	0.749153	-0.531808	0.006603
C53	C	0.749152	-0.468205	0.006594
C54	C	0.721333	-0.436416	-0.062436
C55	C	0.693515	-0.468231	-0.131458
C56	C	0.637869	-0.531856	-0.269504
C57	C	0.637866	-0.468246	-0.269498
C58	C	0.665687	-0.436431	-0.200472
C59	C	0.665695	-0.372839	-0.200496
N60	N	0.693510	-0.341021	-0.131467
C61	C	0.721329	-0.372810	-0.062437
C62	C	0.665710	-0.760833	-0.200465
C63	C	0.665718	-0.824438	-0.200469
C64	C	0.721354	-0.824409	-0.062406
C65	C	0.721350	-0.760803	-0.062407
C66	C	0.693525	-0.729015	-0.131436
C67	C	0.721325	-0.239238	-0.062461
C68	C	0.721324	-0.175630	-0.062478
C69	C	0.665686	-0.175664	-0.200538
C70	C	0.665689	-0.239267	-0.200525
C71	C	0.693510	-0.271053	-0.131478
O72	O	0.642064	-0.339905	-0.259193
O73	O	0.744977	-0.339898	-0.003725
C74	C	0.796309	-0.000041	-0.123058
C75	C	0.859745	-0.000041	-0.124416
C76	C	0.668491	-0.000036	0.053225
C77	C	0.649652	-0.000033	0.165338
N78	N	0.693535	0.143768	-0.131435
C79	C	0.718546	-0.000036	-0.316177
C80	C	0.737385	-0.000035	-0.428290
C81	C	0.796133	-0.000041	0.531603
C82	C	0.813835	-0.000048	0.426268
C83	C	0.772790	-0.000044	0.361030
C84	C	0.714041	-0.000034	0.401138
C85	C	0.696338	-0.000032	0.506483
C86	C	0.672995	-0.000034	0.335911
C87	C	0.614246	-0.000024	0.376018
C88	C	0.596546	-0.000022	0.481353
C89	C	0.637590	-0.000026	0.546591
C90	C	0.690699	-0.000036	0.230565
C91	C	0.590904	-0.000027	0.205446
C92	C	0.573202	-0.000020	0.310780
H93	H	0.507663	-0.000028	0.028642
Cl94	Cl	0.847724	-0.000058	0.613618
H95	H	0.535840	-0.000017	-0.305482
H96	H	0.743979	-0.265111	-0.006235
H97	H	0.738533	-0.000045	0.197921
Cl98	Cl	0.887687	-0.000048	0.375854
H99	H	0.743981	-0.149728	-0.006269
H100	H	0.787207	-0.000049	0.275263
H101	H	0.525368	-0.000012	0.343451
H102	H	0.771804	-0.442305	0.062804
Cl103	Cl	0.417966	-0.000031	-0.343702
Cl104	Cl	0.151551	-0.000065	-0.429972
H105	H	-0.012489	-0.000041	-0.293883
Cl106	Cl	0.615338	0.000055	0.679018
H107	H	0.643042	-0.265171	-0.256742
Cl108	Cl	0.382889	-0.000034	0.072004
H109	H	0.744004	-0.734903	-0.006199
Cl110	Cl	0.286064	-0.000054	-0.432829
Cl111	Cl	0.522690	-0.000017	0.531771
H112	H	0.771806	-0.557685	0.062820
H113	H	0.643071	-0.850337	-0.256688
H114	H	0.615206	-0.442367	-0.325710
Cl115	Cl	0.539302	-0.000026	0.123440
H116	H	-0.148811	-0.000038	0.042534
Cl117	Cl	0.756325	-0.864385	0.024377
Cl118	Cl	0.602890	-0.571839	-0.356281
H119	H	-0.040693	-0.000047	0.040256
Cl120	Cl	0.630733	-0.720877	-0.287262
Cl121	Cl	0.630715	-0.135691	-0.287316
H122	H	0.225707	-0.000045	0.126530
Cl123	Cl	0.100956	-0.000035	0.169883
H124	H	-0.120627	-0.000037	-0.291586
