data_functionalizedCrystal
_audit_creation_method	'MofGen! by Chris Wilmer'
_symmetry_space_group_name_H-M	'P1'
_symmetry_Int_Tables_number	1
_symmetry_cell_setting	triclinic
loop_
_symmetry_equiv_pos_as_xyz
  x,y,z
_cell_length_a	23.096457
_cell_length_b	12.477989
_cell_length_c	12.477989
_cell_angle_alpha	60.281621
_cell_angle_beta	89.998350
_cell_angle_gamma	55.725385
loop_
_atom_site_label
_atom_site_type_symbol
_atom_site_fract_x
_atom_site_fract_y
_atom_site_fract_z
Zr1	Zr	0.513499	1.187009	-0.067892
O2	O	0.406483	1.433395	-0.234510
O3	O	0.551366	0.957193	-0.027643
O4	O	0.534569	1.210909	-0.250132
O5	O	0.430774	1.155047	0.175800
O6	O	0.629849	1.210913	-0.250139
O7	O	0.423280	1.179678	-0.012020
O8	O	0.659896	0.757061	0.147854
O9	O	0.400726	1.608899	-0.222193
O10	O	0.632508	1.045585	0.002600
O11	O	0.566995	1.027200	0.142773
O12	O	0.547218	1.325918	-0.119180
O13	O	0.481704	1.307533	0.020993
Zr14	Zr	0.677412	1.147730	0.231648
Zr15	Zr	0.665460	1.187015	-0.067903
Zr16	Zr	0.525451	1.147724	0.231659
Zr17	Zr	0.504319	1.466917	-0.048249
Zr18	Zr	0.686593	0.867821	0.212005
O19	O	0.639545	1.377546	0.191399
O20	O	0.622551	1.433403	-0.234525
O21	O	0.423477	1.377537	0.191414
O22	O	0.784429	0.901344	0.398266
O23	O	0.767435	0.957202	-0.027658
O24	O	0.568360	0.901335	0.398281
O25	O	0.760137	1.179692	-0.012044
O26	O	0.656343	1.123829	0.413888
O27	O	0.561063	1.123826	0.413895
O28	O	0.767631	1.155060	0.175776
O29	O	0.521515	1.608904	-0.222201
O30	O	0.669397	0.725835	0.385958
O31	O	0.790185	0.725840	0.385949
O32	O	0.780685	0.757066	0.147846
O33	O	0.410227	1.577673	0.015911
O34	O	0.531015	1.577678	0.015902
O35	O	0.643694	1.008820	0.282936
O36	O	0.709207	1.027206	0.142763
O37	O	0.623917	1.307539	0.020983
O38	O	0.558403	1.289154	0.161156
C39	C	0.606939	0.817246	0.057307
C40	C	0.610837	0.698417	0.048968
C41	C	0.405376	1.167362	0.081891
C42	C	0.340865	1.167359	0.081896
C43	C	0.355079	1.021034	0.145451
C44	C	0.294464	1.021031	0.145456
C45	C	0.219634	1.167364	0.081881
C46	C	0.205421	1.313708	0.018324
C47	C	0.266036	1.313705	0.018332
N48	N	0.088748	1.284763	-0.030059
N49	N	0.031169	1.284756	-0.030064
C50	C	0.036999	1.167381	0.081857
N51	N	0.102592	1.049991	0.193780
N52	N	0.160177	1.049994	0.193782
C53	C	0.153901	1.167384	0.081867
C54	C	-0.014509	1.021043	0.145424
C55	C	-0.075127	1.021045	0.145434
C56	C	-0.164171	1.313728	0.018289
C57	C	-0.103552	1.313720	0.018292
C58	C	-0.028724	1.167373	0.081856
C59	C	0.785535	1.167377	0.081865
C60	C	0.850047	1.167380	0.081860
C61	C	0.580506	1.216508	-0.292815
C62	C	0.575432	1.233186	-0.419982
C63	C	0.583972	1.517493	0.106449
C64	C	0.580075	1.636321	0.114788
C65	C	0.610406	1.118230	0.456571
C66	C	0.615480	1.101553	0.583739
C67	C	0.797019	0.817254	0.057294
C68	C	0.865427	0.698428	0.048950
C69	C	0.621889	0.768107	0.432000
C70	C	0.630861	0.632601	0.550828
C71	C	0.811969	0.768115	0.431987
C72	C	0.885451	0.632611	0.550810
C73	C	0.378943	1.566624	-0.268231
C74	C	0.305460	1.702127	-0.387054
C75	C	0.393893	1.517485	0.106463
C76	C	0.325484	1.636311	0.114806
C77	C	0.569022	1.566632	-0.268244
C78	C	0.560051	1.702138	-0.387072
C79	C	0.857516	0.652221	-0.028145
C80	C	0.921786	0.540590	-0.036011
C81	C	0.993967	0.475160	0.033225
C82	C	1.001876	0.521377	0.110323
C83	C	0.937607	0.633014	0.118181
C84	C	0.954164	0.578574	0.533442
C85	C	1.023213	0.451271	0.645080
C86	C	1.023549	0.378000	0.774083
C87	C	0.954830	0.432048	0.791449
C88	C	0.885781	0.559357	0.679814
C89	C	0.236747	1.756178	-0.369685
C90	C	0.167697	1.883515	-0.481320
C91	C	0.167361	1.956793	-0.610323
C92	C	0.236080	1.902737	-0.627690
C93	C	0.305129	1.775409	-0.516056
C94	C	0.333394	1.682531	0.191889
C95	C	0.269122	1.794197	0.199725
C96	C	0.196941	1.859632	0.130485
C97	C	0.189032	1.813409	0.053392
C98	C	0.253303	1.701754	0.045550
H99	H	0.640155	0.660673	-0.013772
H100	H	0.254456	1.432864	-0.033418
H101	H	0.550751	0.674076	0.177512
Br102	Br	0.237183	1.656753	-0.194623
Br103	Br	0.511799	1.442305	-0.587452
Br104	Br	0.759564	0.741001	-0.122126
H105	H	-0.115131	1.432875	-0.033471
Br106	Br	0.456629	0.822422	0.231722
Br107	Br	0.955299	0.332592	0.966535
Br108	Br	0.911034	0.477888	-0.140646
Br109	Br	0.087046	0.822435	0.231692
H110	H	-0.063545	0.901883	0.197198
Br111	Br	0.103867	1.512304	-0.067944
Br112	Br	0.091066	1.902225	-0.040565
H113	H	-0.225098	1.432876	-0.033476
Br114	Br	0.431346	1.593754	0.285868
H115	H	1.046293	0.384257	0.026816
Br116	Br	0.679095	0.892443	-0.248800
H117	H	0.679590	0.501982	0.590840
H118	H	1.060654	0.468087	0.166691
Br119	Br	0.948358	0.695699	0.222826
H120	H	0.953904	0.638215	0.428411
H121	H	0.246852	1.664125	-0.017216
Br122	Br	1.116464	0.377945	0.621480
Br123	Br	1.117265	0.205224	0.925577
H124	H	0.829836	0.603336	0.693973
H125	H	0.111750	1.927505	-0.467154
H126	H	0.306039	0.901872	0.197211
Br127	Br	0.073644	2.129595	-0.761815
H128	H	0.235797	1.962416	-0.732737
Br129	Br	0.398379	1.702065	-0.539653
Br130	Br	0.500736	0.881748	0.543566
H131	H	0.275577	1.831811	0.262506
H132	H	0.144614	1.950547	0.136882
