data_functionalizedCrystal
_audit_creation_method	'MofGen! by Chris Wilmer'
_symmetry_space_group_name_H-M	'P1'
_symmetry_Int_Tables_number	1
_symmetry_cell_setting	triclinic
loop_
_symmetry_equiv_pos_as_xyz
  x,y,z
_cell_length_a	16.956984
_cell_length_b	16.992695
_cell_length_c	16.053802
_cell_angle_alpha	92.741074
_cell_angle_beta	87.610701
_cell_angle_gamma	83.360821
loop_
_atom_site_label
_atom_site_type_symbol
_atom_site_fract_x
_atom_site_fract_y
_atom_site_fract_z
O1	O	1.063242	0.028849	-0.069433
O2	O	1.563242	0.528849	0.430567
O3	O	0.832831	0.056264	-0.069434
O4	O	1.332831	0.556264	0.430566
O5	O	0.947113	-0.071526	-0.069427
O6	O	1.447113	0.428474	0.430573
O7	O	0.948961	0.156639	-0.069441
O8	O	1.448961	0.656639	0.430559
O9	O	0.940821	-0.064519	0.069431
O10	O	1.440821	0.435481	0.569431
O11	O	0.826539	0.063271	0.069424
O12	O	1.326539	0.563271	0.569424
O13	O	1.056950	0.035855	0.069425
O14	O	1.556950	0.535855	0.569425
Zn15	Zn	0.940746	0.050676	0.091471
Zn16	Zn	1.440746	0.550676	0.591471
Zn17	Zn	0.949036	0.041444	-0.091481
Zn18	Zn	1.449036	0.541444	0.408519
O19	O	0.942669	0.163646	0.069418
O20	O	1.442669	0.663646	0.569418
C21	C	0.800067	0.061171	-0.000005
C22	C	1.300067	0.561171	0.499995
C23	C	0.711812	0.065345	-0.000006
C24	C	1.211812	0.565345	0.499994
C25	C	0.675280	-0.004440	0.000000
C26	C	1.175280	0.495560	0.500000
C27	C	0.592356	-0.000514	-0.000006
C28	C	1.092356	0.499486	0.499994
C29	C	0.545964	0.073198	-0.000012
C30	C	1.045964	0.573198	0.499988
C31	C	0.582501	0.142989	-0.000020
C32	C	1.082501	0.642989	0.499980
C33	C	0.665424	0.139062	-0.000020
C34	C	1.165424	0.639062	0.499980
C35	C	0.297430	0.092637	-0.000019
C36	C	0.797430	0.592637	0.499981
C37	C	0.214501	0.096559	-0.000017
C38	C	0.714501	0.596559	0.499983
C39	C	0.224362	-0.046944	-0.000004
C40	C	0.724362	0.453056	0.499996
C41	C	0.307286	-0.050864	0.000001
C42	C	0.807286	0.449136	0.500001
C43	C	0.343816	0.018925	-0.000012
C44	C	0.843816	0.518925	0.499988
N45	N	0.461201	0.077213	-0.000016
N46	N	0.961201	0.577213	0.499984
N47	N	0.428578	0.014909	-0.000014
N48	N	0.928578	0.514909	0.499986
C49	C	0.941590	-0.097081	0.000002
C50	C	1.441590	0.402919	0.500002
C51	C	0.934500	-0.183666	0.000002
C52	C	1.434500	0.316334	0.500002
C53	C	1.002914	-0.238341	0.000003
C54	C	1.502914	0.261659	0.500003
C55	C	0.996248	-0.319696	-0.000005
C56	C	1.496248	0.180304	0.499995
C57	C	0.921165	-0.346374	-0.000008
C58	C	1.421165	0.153626	0.499992
C59	C	0.852745	-0.291692	-0.000012
C60	C	1.352745	0.208308	0.499988
C61	C	0.859413	-0.210339	-0.000010
C62	C	1.359413	0.289661	0.499990
C63	C	0.893530	-0.588181	-0.000020
C64	C	1.393530	-0.088181	0.499980
C65	C	0.886867	-0.669540	-0.000019
C66	C	1.386867	-0.169540	0.499981
C67	C	1.030371	-0.697538	-0.000014
C68	C	1.530371	-0.197538	0.499986
C69	C	1.037031	-0.616182	-0.000007
C70	C	1.537031	-0.116182	0.499993
C71	C	0.968612	-0.561508	-0.000015
C72	C	1.468612	-0.061508	0.499985
N73	N	0.914349	-0.429531	-0.000014
N74	N	1.414349	0.070469	0.499986
N75	N	0.975429	-0.478353	-0.000016
N76	N	1.475429	0.021647	0.499984
C77	C	1.089715	0.030948	-0.000006
C78	C	1.589715	0.530948	0.499994
C79	C	1.177970	0.026774	-0.000011
C80	C	1.677970	0.526774	0.499989
C81	C	0.948191	0.189201	-0.000013
C82	C	1.448191	0.689201	0.499987
C83	C	0.955282	0.275785	-0.000018
C84	C	1.455282	0.775785	0.499982
N85	N	0.935094	0.056975	0.216331
N86	N	1.435094	0.556975	0.716331
N87	N	0.954694	0.035138	-0.216341
N88	N	1.454694	0.535138	0.283659
C89	C	0.983741	0.002617	0.260028
C90	C	1.483741	0.502617	0.760028
C91	C	0.979795	0.007031	0.347435
C92	C	1.479795	0.507031	0.847435
C93	C	0.927206	0.065806	0.391143
C94	C	1.427206	0.565806	0.891143
C95	C	0.878553	0.120167	0.347440
C96	C	1.378553	0.620167	0.847440
C97	C	0.882496	0.115749	0.260035
C98	C	1.382496	0.615749	0.760035
C99	C	0.909984	0.085081	0.652551
C100	C	1.409984	0.585081	1.152551
C101	C	0.906047	0.089496	0.739962
C102	C	1.406047	0.589496	1.239962
C103	C	1.007288	-0.023642	0.739952
C104	C	1.507288	0.476358	1.239952
C105	C	1.011229	-0.028051	0.652545
C106	C	1.511229	0.471949	1.152545
C107	C	0.962573	0.026307	0.608849
C108	C	1.462573	0.526307	1.108849
N109	N	0.923173	0.070321	0.480486
N110	N	1.423173	0.570321	0.980486
N111	N	0.966603	0.021788	0.519508
N112	N	1.466603	0.521788	1.019508
H113	H	0.713047	-0.064464	0.000008
H114	H	1.213047	0.435536	0.500008
H115	H	1.098172	-0.594468	-0.000004
H116	H	1.598172	-0.094468	0.499996
O117	O	0.830018	0.174366	0.212894
O118	O	1.330018	0.674366	0.712894
H119	H	0.867650	0.208155	0.173042
H120	H	1.367650	0.708155	0.673042
O121	O	0.184957	-0.122212	0.000006
O122	O	0.684957	0.377788	0.500006
H123	H	0.231148	-0.174127	0.000017
H124	H	0.731148	0.325873	0.500017
H125	H	0.562616	-0.057340	-0.000002
H126	H	1.062616	0.442660	0.499998
H127	H	0.544722	0.203006	-0.000030
H128	H	1.044722	0.703006	0.499970
H129	H	1.046900	-0.067898	0.775536
H130	H	1.546900	0.432102	1.275536
H131	H	0.345053	-0.110889	0.000009
H132	H	0.845053	0.389111	0.500009
O133	O	0.336829	0.167905	-0.000027
O134	O	0.836829	0.667905	0.499973
H135	H	0.371816	0.172398	0.056566
H136	H	0.871816	0.672398	0.556566
H137	H	0.825722	-0.691256	-0.000009
H138	H	1.325722	-0.191256	0.499991
H139	H	0.837817	-0.543674	-0.000026
H140	H	1.337817	-0.043674	0.499974
H141	H	1.019406	-0.037232	0.383013
H142	H	1.519406	0.462768	0.883013
H143	H	0.695167	0.195888	-0.000021
H144	H	1.195167	0.695888	0.499979
O145	O	1.083897	-0.209568	-0.000002
O146	O	1.583897	0.290432	0.499998
H147	H	1.130350	-0.261258	-0.000013
H148	H	1.630350	0.238742	0.499987
O149	O	0.164459	0.176066	-0.000032
O150	O	0.664459	0.676066	0.499968
H151	H	0.203792	0.223936	-0.000050
H152	H	0.703792	0.723936	0.499950
H153	H	1.054051	-0.075911	0.616960
H154	H	1.554051	0.424089	1.116960
O155	O	1.040455	-0.060792	0.212900
O156	O	1.540455	0.439208	0.712900
H157	H	1.006395	-0.098602	0.173098
H158	H	1.506395	0.401398	0.673098
O159	O	0.849313	0.152884	0.787110
O160	O	1.349313	0.652884	1.287110
H161	H	0.816134	0.189934	0.742043
H162	H	1.316134	0.689934	1.242043
O163	O	1.070036	-0.378669	0.000010
O164	O	1.570036	0.121331	0.500010
H165	H	1.123365	-0.346450	0.000028
H166	H	1.623365	0.153550	0.500028
O167	O	0.785624	-0.151361	-0.000002
O168	O	1.285624	0.348639	0.499998
H169	H	0.732293	-0.183577	0.000005
H170	H	1.232293	0.316423	0.500005
H171	H	0.835730	0.168021	0.383032
H172	H	1.335730	0.668021	0.883032
O173	O	0.857516	0.143713	0.605427
O174	O	1.357516	0.643713	1.105427
H175	H	0.820295	0.185330	0.650506
H176	H	1.320295	0.685330	1.150506
H177	H	0.791611	-0.313420	-0.000020
H178	H	1.291611	0.186580	0.499980
O179	O	1.104165	-0.756506	-0.000011
O180	O	1.604165	-0.256506	0.499989
H181	H	1.086918	-0.817559	-0.000018
H182	H	1.586918	-0.317559	0.499982
