data_functionalizedCrystal
_audit_creation_method	'MofGen! by Chris Wilmer'
_symmetry_space_group_name_H-M	'P1'
_symmetry_Int_Tables_number	1
_symmetry_cell_setting	triclinic
loop_
_symmetry_equiv_pos_as_xyz
  x,y,z
_cell_length_a	16.625548
_cell_length_b	13.897441
_cell_length_c	13.897448
_cell_angle_alpha	90.030599
_cell_angle_beta	90.018760
_cell_angle_gamma	90.021870
loop_
_atom_site_label
_atom_site_type_symbol
_atom_site_fract_x
_atom_site_fract_y
_atom_site_fract_z
Zn1	Zn	1.232718	0.545410	-0.383957
Zn2	Zn	1.566051	0.878744	-0.050623
Zn3	Zn	1.899384	1.212077	0.282710
Zn4	Zn	1.232629	0.384112	-0.545278
Zn5	Zn	1.565962	0.717445	-0.211945
Zn6	Zn	1.899296	1.050778	0.121388
Zn7	Zn	1.097876	0.384126	-0.384002
Zn8	Zn	1.431210	0.717459	-0.050669
Zn9	Zn	1.764543	1.050792	0.282665
Zn10	Zn	1.097861	0.545361	-0.545214
Zn11	Zn	1.431194	0.878695	-0.211881
Zn12	Zn	1.764528	1.212028	0.121452
O13	O	1.165271	0.464752	-0.464613
O14	O	1.498604	0.798086	-0.131279
O15	O	1.831938	1.131419	0.202054
O16	O	1.345538	0.524029	-0.405364
O17	O	1.678872	0.857362	-0.072031
O18	O	2.012205	1.190695	0.261303
O19	O	1.214723	0.249132	-0.523930
O20	O	1.548056	0.582465	-0.190597
O21	O	1.881390	0.915799	0.142736
O22	O	1.115807	0.405547	-0.249014
O23	O	1.449140	0.738880	0.084319
O24	O	1.782473	1.072213	0.417652
O25	O	1.345473	0.405523	-0.523886
O26	O	1.678806	0.738857	-0.190553
O27	O	2.012140	1.072190	0.142780
O28	O	1.214874	0.524042	-0.248981
O29	O	1.548207	0.857375	0.084352
O30	O	1.881541	1.190709	0.417686
O31	O	1.115721	0.249142	-0.405441
O32	O	1.449054	0.582475	-0.072108
O33	O	1.782388	0.915809	0.261225
O34	O	0.985042	0.405499	-0.405379
O35	O	1.318375	0.738832	-0.072046
O36	O	1.651709	1.072166	0.261287
O37	O	1.115781	0.680349	-0.523777
O38	O	1.449114	1.013683	-0.190444
O39	O	1.782447	1.347016	0.142889
O40	O	0.985031	0.523958	-0.523821
O41	O	1.318364	0.857291	-0.190488
O42	O	1.651697	1.190625	0.142845
O43	O	1.214859	0.680386	-0.405302
O44	O	1.548193	1.013719	-0.071969
O45	O	1.881526	1.347052	0.261365
O46	O	1.214708	0.405476	-0.680251
O47	O	1.548042	0.738809	-0.346918
O48	O	1.881375	1.072142	-0.013585
O49	O	1.115695	0.523945	-0.680204
O50	O	1.449028	0.857278	-0.346871
O51	O	1.782361	1.190611	-0.013538
C52	C	0.955780	0.464725	-0.464599
C53	C	1.289113	0.798059	-0.131266
C54	C	1.622447	1.131392	0.202068
C55	C	0.866159	0.464737	-0.464616
C56	C	1.199492	0.798070	-0.131283
C57	C	1.532826	1.131403	0.202050
C58	C	1.165328	0.716345	-0.464528
C59	C	1.498662	1.049679	-0.131194
C60	C	1.831995	1.383012	0.202139
C61	C	1.165353	0.823559	-0.464491
C62	C	1.498686	1.156893	-0.131158
C63	C	1.832019	1.490226	0.202175
C64	C	1.165212	0.464724	-0.715227
C65	C	1.498545	0.798058	-0.381894
C66	C	1.831879	1.131391	-0.048561
C67	C	1.165261	0.464745	-0.822441
C68	C	1.498594	0.798078	-0.489108
C69	C	1.831927	1.131411	-0.155774
C70	C	0.537983	0.464778	-0.464623
C71	C	0.871317	0.798111	-0.131289
C72	C	1.204650	1.131445	0.202044
C73	C	0.629292	0.464763	-0.464618
C74	C	0.962625	0.798097	-0.131285
C75	C	1.295959	1.131430	0.202048
C76	C	0.702068	0.464757	-0.464620
C77	C	1.035402	0.798090	-0.131287
C78	C	1.368735	1.131423	0.202047
C79	C	0.793383	0.464743	-0.464615
C80	C	1.126716	0.798077	-0.131281
C81	C	1.460049	1.131410	0.202052
C82	C	1.375580	0.464780	-0.464627
C83	C	1.708913	0.798113	-0.131294
C84	C	2.042247	1.131447	0.202039
C85	C	1.465201	0.464792	-0.464634
C86	C	1.798534	0.798125	-0.131300
C87	C	2.131868	1.131458	0.202033
C88	C	1.165260	0.214138	-0.464628
C89	C	1.498594	0.547471	-0.131295
C90	C	1.831927	0.880805	0.202039
C91	C	1.165392	0.106925	-0.464393
C92	C	1.498726	0.440258	-0.131059
C93	C	1.832059	0.773591	0.202274
C94	C	1.165374	1.019855	-0.464426
C95	C	1.498708	1.353188	-0.131093
C96	C	1.832041	1.686521	0.202241
C97	C	1.165360	0.910622	-0.464465
C98	C	1.498693	1.243955	-0.131132
C99	C	1.832026	1.577289	0.202202
C100	C	1.165345	0.464805	-1.018736
C101	C	1.498679	0.798139	-0.685403
C102	C	1.832012	1.131472	-0.352069
C103	C	1.165296	0.464774	-0.909504
C104	C	1.498629	0.798108	-0.576170
C105	C	1.831963	1.131441	-0.242837
C106	C	1.165352	0.464801	-0.213020
C107	C	1.498685	0.798135	0.120314
C108	C	1.832019	1.131468	0.453647
C109	C	1.165387	0.464822	-0.105806
C110	C	1.498720	0.798156	0.227527
C111	C	1.832053	1.131489	0.560861
