data_functionalizedCrystal
_audit_creation_method	'MofGen! by Chris Wilmer'
_symmetry_space_group_name_H-M	'P1'
_symmetry_Int_Tables_number	1
_symmetry_cell_setting	triclinic
loop_
_symmetry_equiv_pos_as_xyz
  x,y,z
_cell_length_a	17.077404
_cell_length_b	19.077068
_cell_length_c	17.077396
_cell_angle_alpha	92.267122
_cell_angle_beta	89.980499
_cell_angle_gamma	92.327269
loop_
_atom_site_label
_atom_site_type_symbol
_atom_site_fract_x
_atom_site_fract_y
_atom_site_fract_z
Zn1	Zn	1.187475	-0.280197	-0.456376
Zn2	Zn	1.687475	0.219803	0.043624
Zn3	Zn	1.182097	-0.397901	-0.330375
Zn4	Zn	1.682097	0.102099	0.169625
Zn5	Zn	1.056205	-0.280222	-0.325125
Zn6	Zn	1.556205	0.219778	0.174875
Zn7	Zn	1.050892	-0.397859	-0.461596
Zn8	Zn	1.550892	0.102141	0.038404
O9	O	1.119167	-0.339045	-0.393368
O10	O	1.619167	0.160955	0.106632
O11	O	1.296608	-0.295818	-0.439674
O12	O	1.796608	0.204182	0.060326
O13	O	1.165371	-0.382318	-0.219833
O14	O	1.665371	0.117682	0.280167
O15	O	1.078093	-0.181727	-0.338154
O16	O	1.578093	0.318273	0.161846
O17	O	1.292657	-0.382294	-0.347101
O18	O	1.792657	0.117706	0.152899
O19	O	1.174536	-0.181709	-0.434583
O20	O	1.674536	0.318291	0.065417
O21	O	1.072878	-0.295860	-0.215976
O22	O	1.572878	0.204140	0.284024
O23	O	0.945654	-0.295819	-0.343216
O24	O	1.445654	0.204181	0.156784
O25	O	1.069036	-0.382223	-0.570750
O26	O	1.569036	0.117777	-0.070750
O27	O	0.941750	-0.382247	-0.443481
O28	O	1.441750	0.117753	0.056519
O29	O	1.169383	-0.295777	-0.566914
O30	O	1.669383	0.204223	-0.066914
O31	O	1.160218	-0.496386	-0.352163
O32	O	1.660218	0.003614	0.147837
O33	O	1.063822	-0.496356	-0.448571
O34	O	1.563822	0.003644	0.051429
C35	C	0.915220	-0.339032	-0.393346
C36	C	1.415220	0.160968	0.106654
C37	C	0.827970	-0.339043	-0.393356
C38	C	1.327970	0.160957	0.106644
C39	C	0.784964	-0.384114	-0.445486
C40	C	1.284964	0.115886	0.054514
C41	C	0.702984	-0.384116	-0.445499
C42	C	1.202984	0.115884	0.054501
C43	C	0.664010	-0.339050	-0.393376
C44	C	1.164010	0.160950	0.106624
C45	C	0.707021	-0.293974	-0.341243
C46	C	1.207021	0.206026	0.158757
C47	C	0.789000	-0.293969	-0.341235
C48	C	1.289000	0.206031	0.158765
C49	C	0.536151	-0.293988	-0.341263
C50	C	1.036151	0.206012	0.158737
C51	C	0.454166	-0.293993	-0.341270
C52	C	0.954166	0.206007	0.158730
C53	C	0.450134	-0.384134	-0.445526
C54	C	0.950134	0.115866	0.054474
C55	C	0.532113	-0.384130	-0.445518
C56	C	1.032113	0.115870	0.054482
C57	C	0.575119	-0.339055	-0.393384
C58	C	1.075119	0.160945	0.106616
C59	C	1.110881	-0.521909	-0.401521
C60	C	1.610881	-0.021909	0.098479
C61	C	1.107408	-0.600139	-0.405035
C62	C	1.607408	-0.100139	0.094965
C63	C	1.156004	-0.636884	-0.356533
C64	C	1.656004	-0.136884	0.143467
C65	C	1.152742	-0.710389	-0.359843
C66	C	1.652742	-0.210389	0.140157
C67	C	1.100880	-0.747148	-0.411651
C68	C	1.600880	-0.247148	0.088349
C69	C	1.052283	-0.710398	-0.460158
C70	C	1.552283	-0.210398	0.039842
C71	C	1.055549	-0.636894	-0.456852
C72	C	1.555549	-0.136894	0.043148
C73	C	1.085729	-0.966982	-0.426921
C74	C	1.585729	-0.466982	0.073079
C75	C	1.082465	-1.040491	-0.430222
C76	C	1.582465	-0.540491	0.069778
C77	C	1.182926	-1.040478	-0.329907
C78	C	1.682926	-0.540478	0.170093
C79	C	1.186184	-0.966973	-0.326602
C80	C	1.686184	-0.466973	0.173398
C81	C	1.137590	-0.930229	-0.375112
C82	C	1.637590	-0.430229	0.124888
N83	N	1.097543	-0.822282	-0.415033
N84	N	1.597543	-0.322282	0.084967
N85	N	1.140931	-0.855096	-0.371733
N86	N	1.640931	-0.355096	0.128267
C87	C	1.323911	-0.339058	-0.393391
C88	C	1.823911	0.160942	0.106609
C89	C	1.411160	-0.339064	-0.393400
C90	C	1.911160	0.160936	0.106600
C91	C	1.119217	-0.338993	-0.598110
C92	C	1.619217	0.161007	-0.098110
C93	C	1.119238	-0.338971	-0.685359
C94	C	1.619238	0.161029	-0.185359
C95	C	1.127507	-0.155467	-0.385201
C96	C	1.627507	0.344533	0.114799
C97	C	1.131061	-0.077237	-0.381720
C98	C	1.631061	0.422763	0.118280
C99	C	1.171491	-0.293955	-0.724353
C100	C	1.671491	0.206045	-0.224353
C101	C	1.171501	-0.293931	-0.806332
C102	C	1.671501	0.206069	-0.306332
C103	C	1.119262	-0.338928	-0.849316
C104	C	1.619262	0.161072	-0.349316
C105	C	1.067004	-0.383946	-0.810317
C106	C	1.567004	0.116054	-0.310317
C107	C	1.066990	-0.383965	-0.728339
C108	C	1.566990	0.116035	-0.228339
C109	C	1.067038	-0.383904	-0.981185
C110	C	1.567038	0.116096	-0.481185
C111	C	1.067052	-0.383885	-1.063169
C112	C	1.567052	0.116115	-0.563169
C113	C	1.171549	-0.293870	-1.059179
C114	C	1.671549	0.206130	-0.559179
C115	C	1.171535	-0.293889	-0.977201
C116	C	1.671535	0.206111	-0.477201
C117	C	1.119277	-0.338908	-0.938207
C118	C	1.619277	0.161092	-0.438207
C119	C	1.119165	-0.339046	-0.189420
C120	C	1.619165	0.160954	0.310580
C121	C	1.119305	-0.338869	-0.102163
C122	C	1.619305	0.161131	0.397837
H123	H	1.198232	-0.606960	-0.314342
H124	H	1.698232	-0.106960	0.185658
H125	H	0.422436	-0.257288	-0.298836
H126	H	0.922436	0.242712	0.201164
H127	H	0.816690	-0.420815	-0.487928
H128	H	1.316690	0.079185	0.012072
H129	H	1.222490	-1.070403	-0.290414
H130	H	1.722490	-0.570403	0.209586
C131	C	1.026280	-1.080495	-0.486525
C132	C	1.526280	-0.580495	0.013475
C133	C	1.068829	-1.122647	-0.538751
C134	C	1.568829	-0.622647	-0.038751
C135	C	1.017099	-1.159517	-0.590616
C136	C	1.517099	-0.659517	-0.090616
H137	H	0.997784	-1.048169	-0.515024
H138	H	1.497784	-0.548169	-0.015024
H139	H	0.990830	-1.109252	-0.457777
H140	H	1.490830	-0.609252	0.042223
H141	H	1.104265	-1.093893	-0.567496
H142	H	1.604265	-0.593893	-0.067496
H143	H	1.097323	-1.154987	-0.510275
H144	H	1.597323	-0.654987	-0.010275
H145	H	0.981649	-1.188274	-0.561868
H146	H	1.481649	-0.688274	-0.061868
H147	H	0.988605	-1.127185	-0.619109
H148	H	1.488605	-0.627185	-0.119109
H149	H	1.045960	-1.188126	-0.626053
H150	H	1.545960	-0.688126	-0.126053
H151	H	1.046160	-0.937071	-0.466418
H152	H	1.546160	-0.437071	0.033582
C153	C	0.656430	-0.433137	-0.502121
C154	C	1.156430	0.066863	-0.002121
C155	C	0.708107	-0.472623	-0.547744
C156	C	1.208107	0.027377	-0.047744
C157	C	0.665250	-0.517800	-0.599905
C158	C	1.165250	-0.017800	-0.099905
H159	H	0.625672	-0.406343	-0.535257
H160	H	1.125672	0.093657	-0.035257
H161	H	0.623068	-0.463804	-0.473415
H162	H	1.123068	0.036196	0.026585
H163	H	0.741455	-0.441960	-0.576447
H164	H	1.241455	0.058040	-0.076447
H165	H	0.738865	-0.499432	-0.514629
H166	H	1.238865	0.000568	-0.014629
H167	H	0.631888	-0.548467	-0.571199
H168	H	1.131888	-0.048467	-0.071199
H169	H	0.634494	-0.491000	-0.633035
H170	H	1.134494	0.009000	-0.133035
H171	H	0.700305	-0.544601	-0.630861
H172	H	1.200305	-0.044601	-0.130861
H173	H	0.563843	-0.420830	-0.487957
H174	H	1.063843	0.079170	0.012043
H175	H	1.010059	-0.740332	-0.502345
H176	H	1.510059	-0.240332	-0.002345
H177	H	1.024468	-0.420581	-0.845321
H178	H	1.524468	0.079419	-0.345321
C179	C	1.010236	-0.432928	-0.686144
C180	C	1.510236	0.067072	-0.186144
C181	C	0.964509	-0.472349	-0.741333
C182	C	1.464509	0.027651	-0.241333
C183	C	0.912226	-0.517470	-0.702494
C184	C	1.412226	-0.017470	-0.202494
H185	H	0.977175	-0.406096	-0.652957
H186	H	1.477175	0.093904	-0.152957
H187	H	1.038855	-0.463639	-0.655557
H188	H	1.538855	0.036361	-0.155557
H189	H	0.935892	-0.441642	-0.771907
H190	H	1.435892	0.058358	-0.271907
H191	H	0.997548	-0.499195	-0.774522
H192	H	1.497548	0.000805	-0.274522
H193	H	0.940845	-0.548180	-0.671907
H194	H	1.440845	-0.048180	-0.171907
H195	H	0.879171	-0.490632	-0.669308
H196	H	1.379171	0.009368	-0.169308
H197	H	0.881199	-0.544226	-0.739933
H198	H	1.381199	-0.044226	-0.239933
H199	H	1.214032	-0.257315	-0.689361
H200	H	1.714032	0.242685	-0.189361
H201	H	1.024513	-0.420524	-1.098164
H202	H	1.524513	0.079476	-0.598164
C203	C	1.228407	-0.245075	-1.101478
C204	C	1.728407	0.254925	-0.601478
C205	C	1.305375	-0.260424	-1.082257
C206	C	1.805375	0.239576	-0.582257
C207	C	1.357772	-0.215500	-1.121222
C208	C	1.857772	0.284500	-0.621222
H209	H	1.219173	-0.197762	-1.085970
H210	H	1.719173	0.302238	-0.585970
H211	H	1.220981	-0.251512	-1.156464
H212	H	1.720981	0.248488	-0.656464
H213	H	1.312798	-0.253980	-1.027283
H214	H	1.812798	0.246020	-0.527283
H215	H	1.314634	-0.307728	-1.097767
H216	H	1.814634	0.192272	-0.597767
H217	H	1.350347	-0.221937	-1.176208
H218	H	1.850347	0.278063	-0.676208
H219	H	1.348531	-0.168190	-1.105711
H220	H	1.848531	0.331810	-0.605711
H221	H	1.410001	-0.225912	-1.108192
H222	H	1.910001	0.274088	-0.608192
H223	H	1.015978	-0.606976	-0.496348
H224	H	1.515978	-0.106976	0.003652
C225	C	1.228117	-0.244981	-0.930437
C226	C	1.728117	0.255019	-0.430437
C227	C	1.185698	-0.199892	-0.881356
C228	C	1.685698	0.300108	-0.381356
C229	C	1.237790	-0.154826	-0.838262
C230	C	1.737790	0.345174	-0.338262
H231	H	1.259253	-0.218098	-0.965314
H232	H	1.759253	0.281902	-0.465314
H233	H	1.261087	-0.271882	-0.899607
H234	H	1.761087	0.228118	-0.399607
H235	H	1.152742	-0.172994	-0.912183
H236	H	1.652742	0.327006	-0.412183
H237	H	1.154564	-0.226755	-0.846463
H238	H	1.654564	0.273245	-0.346463
H239	H	1.270759	-0.181727	-0.807432
H240	H	1.770759	0.318273	-0.307432
H241	H	1.268923	-0.127949	-0.873145
H242	H	1.768923	0.372051	-0.373145
H243	H	1.209016	-0.124233	-0.804950
H244	H	1.709016	0.375767	-0.304950
H245	H	1.214052	-0.257276	-0.838078
H246	H	1.714052	0.242724	-0.338078
H247	H	0.415115	-0.420834	-0.487978
H248	H	0.915115	0.079166	0.012022
C249	C	0.582704	-0.245029	-0.284567
C250	C	1.082704	0.254971	0.215433
C251	C	0.531027	-0.205579	-0.238903
C252	C	1.031027	0.294421	0.261097
C253	C	0.573883	-0.160485	-0.186655
C254	C	1.073883	0.339515	0.313345
H255	H	0.616094	-0.214330	-0.313184
H256	H	1.116094	0.285670	0.186816
H257	H	0.613431	-0.271903	-0.251471
H258	H	1.113431	0.228097	0.248529
H259	H	0.500313	-0.178707	-0.271994
H260	H	1.000313	0.321293	0.228006
H261	H	0.497636	-0.236260	-0.210269
H262	H	0.997636	0.263740	0.289731
H263	H	0.604610	-0.187359	-0.153560
H264	H	1.104610	0.312641	0.346440
H265	H	0.607271	-0.129790	-0.215278
H266	H	1.107271	0.370210	0.284722
H267	H	0.538827	-0.133717	-0.155661
H268	H	1.038827	0.366283	0.344339
C269	C	0.835652	-0.245126	-0.284505
C270	C	1.335652	0.254874	0.215495
C271	C	0.815003	-0.260378	-0.207492
C272	C	1.315003	0.239622	0.292508
C273	C	0.857969	-0.215403	-0.155211
C274	C	1.357969	0.284597	0.344789
H275	H	0.824399	-0.197825	-0.293865
H276	H	1.324399	0.302175	0.206135
H277	H	0.890064	-0.251584	-0.291914
H278	H	1.390064	0.248416	0.208086
H279	H	0.760604	-0.253914	-0.200086
H280	H	1.260604	0.246086	0.299914
H281	H	0.826258	-0.307672	-0.198106
H282	H	1.326258	0.192328	0.301894
H283	H	0.912381	-0.221861	-0.162620
H284	H	1.412381	0.278139	0.337380
H285	H	0.846713	-0.168104	-0.164579
H286	H	1.346713	0.331896	0.335421
H287	H	0.843971	-0.225749	-0.102952
H288	H	1.343971	0.274251	0.397048
C289	C	1.205537	-0.750157	-0.307088
C290	C	1.705537	-0.250157	0.192912
C291	C	1.251635	-0.702233	-0.260991
C292	C	1.751635	-0.202233	0.239009
C293	C	1.300274	-0.738841	-0.212375
C294	C	1.800274	-0.238841	0.287625
H295	H	1.238523	-0.778788	-0.338345
H296	H	1.738523	-0.278788	0.161655
H297	H	1.174269	-0.778861	-0.274109
H298	H	1.674269	-0.278861	0.225891
H299	H	1.282900	-0.673541	-0.293965
H300	H	1.782900	-0.173541	0.206035
H301	H	1.218670	-0.673601	-0.229718
H302	H	1.718670	-0.173601	0.270282
H303	H	1.269006	-0.767545	-0.179396
H304	H	1.769006	-0.267545	0.320604
H305	H	1.333254	-0.767471	-0.243638
H306	H	1.833254	-0.267471	0.256362
H307	H	1.331552	-0.706330	-0.181087
H308	H	1.831552	-0.206330	0.318913
H309	H	0.675282	-0.257277	-0.298808
H310	H	1.175282	0.242723	0.201192
C311	C	1.010283	-0.432873	-0.938992
C312	C	1.510283	0.067127	-0.438992
C313	C	0.964559	-0.472297	-0.994181
C314	C	1.464559	0.027703	-0.494181
C315	C	0.912288	-0.517428	-0.955343
C316	C	1.412288	-0.017428	-0.455343
H317	H	0.977219	-0.406048	-0.905801
H318	H	1.477219	0.093952	-0.405801
H319	H	1.038910	-0.463581	-0.908409
H320	H	1.538910	0.036419	-0.408409
H321	H	0.935934	-0.441592	-1.024751
H322	H	1.435934	0.058408	-0.524751
H323	H	0.997602	-0.499136	-1.027374
H324	H	1.497602	0.000864	-0.527374
H325	H	0.940915	-0.548136	-0.924760
H326	H	1.440915	-0.048136	-0.424760
H327	H	0.879229	-0.490597	-0.922153
H328	H	1.379229	0.009403	-0.422153
H329	H	0.881263	-0.544187	-0.992782
H330	H	1.381263	-0.044187	-0.492782
H331	H	1.228414	-0.937045	-0.284416
H332	H	1.728414	-0.437045	0.215584
