data_functionalizedCrystal
_audit_creation_method	'MofGen! by Chris Wilmer'
_symmetry_space_group_name_H-M	'P1'
_symmetry_Int_Tables_number	1
_symmetry_cell_setting	triclinic
loop_
_symmetry_equiv_pos_as_xyz
  x,y,z
_cell_length_a	12.759401
_cell_length_b	19.121063
_cell_length_c	12.759393
_cell_angle_alpha	92.402917
_cell_angle_beta	89.981504
_cell_angle_gamma	92.469017
loop_
_atom_site_label
_atom_site_type_symbol
_atom_site_fract_x
_atom_site_fract_y
_atom_site_fract_z
Zn1	Zn	1.588321	-0.279568	-0.611771
Zn2	Zn	1.580680	-0.397037	-0.443567
Zn3	Zn	1.412621	-0.279605	-0.436113
Zn4	Zn	1.405080	-0.396983	-0.619205
O5	O	1.496676	-0.338298	-0.527664
O6	O	1.734328	-0.295158	-0.589467
O7	O	1.558345	-0.381497	-0.295559
O8	O	1.442282	-0.181316	-0.453184
O9	O	1.728714	-0.381462	-0.465888
O10	O	1.571368	-0.181289	-0.582240
O11	O	1.434872	-0.295221	-0.290083
O12	O	1.264600	-0.295168	-0.460392
O13	O	1.429429	-0.381370	-0.765237
O14	O	1.259060	-0.381405	-0.594909
O15	O	1.564056	-0.295106	-0.759776
O16	O	1.551032	-0.495314	-0.473095
O17	O	1.422020	-0.495274	-0.602136
C18	C	1.223709	-0.338285	-0.527649
C19	C	1.106932	-0.338297	-0.527668
C20	C	1.049208	-0.383272	-0.597605
C21	C	0.939483	-0.383281	-0.597616
C22	C	0.945216	-0.293337	-0.457747
C23	C	1.054939	-0.293325	-0.457741
C24	C	1.101200	-0.428244	-0.667532
C25	C	1.043476	-0.473224	-0.737473
C26	C	0.933751	-0.473233	-0.737485
C27	C	0.881751	-0.428262	-0.667556
C28	C	1.484907	-0.520778	-0.539254
C29	C	1.479969	-0.598844	-0.544247
C30	C	1.544871	-0.635516	-0.479464
C31	C	1.540233	-0.708867	-0.484167
C32	C	1.470686	-0.745544	-0.553648
C33	C	1.405781	-0.708866	-0.618438
C34	C	1.410426	-0.635517	-0.613740
C35	C	1.453305	-0.967013	-0.571195
C36	C	1.448663	-1.040368	-0.575886
C37	C	1.583116	-1.040364	-0.441616
C38	C	1.587750	-0.967013	-0.436920
C39	C	1.522849	-0.930341	-0.501714
C40	C	1.465941	-0.820521	-0.558454
C41	C	1.527600	-0.855366	-0.496912
C42	C	1.770708	-0.338312	-0.527680
C43	C	1.887484	-0.338318	-0.527686
C44	C	1.496754	-0.338227	-0.801693
C45	C	1.496787	-0.338197	-0.918468
C46	C	1.508518	-0.155106	-0.516052
C47	C	1.513565	-0.077040	-0.511103
C48	C	1.566897	-0.293275	-0.970488
C49	C	1.566923	-0.293250	-1.080210
C50	C	1.426727	-0.383075	-1.085884
C51	C	1.426696	-0.383096	-0.976163
C52	C	1.636987	-0.248377	-0.912792
C53	C	1.707103	-0.203452	-0.964812
C54	C	1.707130	-0.203426	-1.074535
C55	C	1.637040	-0.248326	-1.132237
C56	C	1.496661	-0.338318	-0.254698
C57	C	1.496844	-0.338151	-0.137911
H58	H	1.593082	-0.738723	-0.431413
H59	H	1.392042	-1.070228	-0.632484
O60	O	1.110857	-0.249621	-0.389696
C61	C	1.041442	-0.209925	-0.327985
H62	H	0.961373	-0.238694	-0.326112
H63	H	1.073600	-0.202372	-0.244744
H64	H	1.033222	-0.156612	-0.363196
O65	O	0.775158	-0.428358	-0.667705
C66	C	0.735357	-0.477671	-0.744467
H67	H	0.795930	-0.518732	-0.761654
H68	H	0.660195	-0.504282	-0.714429
H69	H	0.717762	-0.449878	-0.819388
O70	O	1.358491	-0.426640	-0.925582
C71	C	1.293211	-0.386670	-0.859560
H72	H	1.290303	-0.331345	-0.889117
H73	H	1.210717	-0.412072	-0.859925
H74	H	1.325822	-0.384274	-0.776251
O75	O	1.207781	-0.428297	-0.667357
C76	C	1.243240	-0.446227	-0.567745
H77	H	1.178022	-0.476815	-0.526182
H78	H	1.314482	-0.479905	-0.577310
H79	H	1.265891	-0.396463	-0.519196
H80	H	1.644380	-0.937152	-0.380343
H81	H	1.636976	-0.248394	-0.823451
O82	O	1.390210	-0.931316	-0.633972
C83	C	1.325053	-0.888970	-0.571381
H84	H	1.362849	-0.878005	-0.491093
H85	H	1.314216	-0.837374	-0.610858
H86	H	1.245408	-0.917286	-0.561580
O87	O	0.894539	-0.249729	-0.389850
C88	C	0.785317	-0.259375	-0.404867
H89	H	0.766862	-0.313604	-0.442595
H90	H	0.743899	-0.254561	-0.325877
H91	H	0.756870	-0.217760	-0.458269
O92	O	1.646318	-1.075907	-0.378733
C93	C	1.752153	-1.057921	-0.400659
H94	H	1.757672	-1.004642	-0.437640
H95	H	1.799468	-1.055422	-0.324719
H96	H	1.784901	-1.099154	-0.457345
O97	O	1.094148	-0.516881	-0.805301
C98	C	1.203371	-0.507218	-0.790315
H99	H	1.219809	-0.484151	-0.707825
H100	H	1.241688	-0.559829	-0.800650
H101	H	1.236938	-0.469863	-0.850350
O102	O	0.877835	-0.516986	-0.805463
C103	C	0.947259	-0.556660	-0.867196
H104	H	1.025301	-0.559049	-0.824300
H105	H	0.912002	-0.612010	-0.881781
H106	H	0.960612	-0.531005	-0.945423
O107	O	1.612485	-0.599815	-0.412109
C108	C	1.683019	-0.557329	-0.469261
H109	H	1.646619	-0.546314	-0.548142
H110	H	1.700389	-0.505767	-0.423174
H111	H	1.759083	-0.585550	-0.482682
H112	H	1.349159	-0.738734	-0.675015
O113	O	1.775273	-0.159882	-1.125193
C114	C	1.840576	-0.199859	-1.191181
H115	H	1.800084	-0.253079	-1.210983
H116	H	1.856521	-0.171234	-1.266527
H117	H	1.917926	-0.207589	-1.149394
H118	H	1.764161	-0.166892	-0.917823
H119	H	1.357577	-0.605658	-0.666494
O120	O	1.595097	-0.819818	-0.429278
C121	C	1.571028	-0.837794	-0.325696
H122	H	1.527276	-0.891077	-0.326893
H123	H	1.646715	-0.840280	-0.278802
H124	H	1.519632	-0.796562	-0.287634
H125	H	1.409314	-0.850391	-0.615023
H126	H	1.637056	-0.248293	-1.221580
H127	H	1.369663	-0.419629	-1.132874
