data_functionalizedCrystal
_audit_creation_method	'MofGen! by Chris Wilmer'
_symmetry_space_group_name_H-M	'P1'
_symmetry_Int_Tables_number	1
_symmetry_cell_setting	triclinic
loop_
_symmetry_equiv_pos_as_xyz
  x,y,z
_cell_length_a	21.395362
_cell_length_b	25.639239
_cell_length_c	21.395364
_cell_angle_alpha	90.004705
_cell_angle_beta	90.036401
_cell_angle_gamma	90.054564
loop_
_atom_site_label
_atom_site_type_symbol
_atom_site_fract_x
_atom_site_fract_y
_atom_site_fract_z
Zn1	Zn	0.957778	-0.208065	0.354582
Zn2	Zn	1.457778	0.291935	0.854582
Zn3	Zn	0.957680	-0.295463	0.249803
Zn4	Zn	1.457680	0.204537	0.749803
Zn5	Zn	0.853007	-0.208067	0.249783
Zn6	Zn	1.353007	0.291933	0.749783
Zn7	Zn	0.852948	-0.295496	0.354508
Zn8	Zn	1.352948	0.204504	0.854508
O9	O	0.905353	-0.251773	0.302169
O10	O	1.405353	0.248227	0.802169
O11	O	1.045443	-0.219644	0.340722
O12	O	1.545443	0.280356	0.840722
O13	O	0.943778	-0.283857	0.162122
O14	O	1.443778	0.216143	0.662122
O15	O	0.866971	-0.134902	0.263708
O16	O	1.366971	0.365098	0.763708
O17	O	1.045371	-0.283855	0.263741
O18	O	1.545371	0.216145	0.763741
O19	O	0.943946	-0.134900	0.340703
O20	O	1.443946	0.365100	0.840703
O21	O	0.866876	-0.219648	0.162108
O22	O	1.366876	0.280352	0.662108
O23	O	0.765321	-0.219680	0.263636
O24	O	1.265321	0.280320	0.763636
O25	O	0.866870	-0.283911	0.442195
O26	O	1.366870	0.216089	0.942195
O27	O	0.765278	-0.283913	0.340576
O28	O	1.265278	0.216087	0.840576
O29	O	0.943888	-0.219676	0.442250
O30	O	1.443888	0.280324	0.942250
O31	O	0.943721	-0.368632	0.263669
O32	O	1.443721	0.131368	0.763669
O33	O	0.866775	-0.368657	0.340595
O34	O	1.366775	0.131343	0.840595
C35	C	0.742565	-0.251800	0.302096
C36	C	1.242565	0.248200	0.802096
C37	C	0.672924	-0.251825	0.302080
C38	C	1.172924	0.248175	0.802080
C39	C	0.640205	-0.285315	0.342083
C40	C	1.140205	0.214685	0.842083
C41	C	0.574769	-0.285303	0.342111
C42	C	1.074769	0.214697	0.842111
C43	C	0.542056	-0.251805	0.302125
C44	C	1.042056	0.248195	0.802125
C45	C	0.574783	-0.218308	0.262119
C46	C	1.074783	0.281692	0.762119
C47	C	0.640217	-0.218318	0.262096
C48	C	1.140217	0.281682	0.762096
C49	C	0.438339	-0.247581	0.245719
C50	C	0.938339	0.252419	0.745719
C51	C	0.372906	-0.247574	0.245741
C52	C	0.872906	0.252426	0.745741
C53	C	0.340235	-0.251771	0.302194
C54	C	0.840235	0.248229	0.802194
C55	C	0.373005	-0.255984	0.358627
C56	C	0.873005	0.244016	0.858627
C57	C	0.438439	-0.255994	0.358605
C58	C	0.938439	0.244006	0.858605
C59	C	0.471103	-0.251790	0.302145
C60	C	0.971103	0.248210	0.802145
C61	C	0.236563	-0.285249	0.342230
C62	C	0.736563	0.214751	0.842230
C63	C	0.171127	-0.285233	0.342259
C64	C	0.671127	0.214767	0.842259
C65	C	0.171142	-0.218240	0.262262
C66	C	0.671142	0.281760	0.762262
C67	C	0.236577	-0.218254	0.262238
C68	C	0.736577	0.281746	0.762238
C69	C	0.269284	-0.251761	0.302222
C70	C	0.769284	0.248239	0.802222
C71	C	0.905248	-0.387615	0.302140
C72	C	1.405248	0.112385	0.802140
C73	C	0.905260	-0.445729	0.302149
C74	C	1.405260	0.054271	0.802149
C75	C	0.945524	-0.806067	0.262182
C76	C	1.445524	-0.306067	0.762182
C77	C	0.945548	-0.860672	0.262190
C78	C	1.445548	-0.360672	0.762190
O79	O	0.979672	-0.888887	0.228177
O80	O	1.479672	-0.388887	0.728177
N81	N	0.905463	-0.888012	0.302210
N82	N	1.405463	-0.388012	0.802210
C83	C	0.865356	-0.860745	0.342229
C84	C	1.365356	-0.360745	0.842229
O85	O	0.831264	-0.889014	0.376271
O86	O	1.331264	-0.389014	0.876271
C87	C	0.865335	-0.806142	0.342224
C88	C	1.365335	-0.306142	0.842224
C89	C	0.905418	-0.778804	0.302196
C90	C	1.405418	-0.278804	0.802196
C91	C	0.985604	-0.778730	0.222158
C92	C	1.485604	-0.278730	0.722158
C93	C	0.985578	-0.724129	0.222149
C94	C	1.485578	-0.224129	0.722149
C95	C	0.945473	-0.696866	0.262164
C96	C	1.445473	-0.196866	0.762164
C97	C	0.905393	-0.724204	0.302187
C98	C	1.405393	-0.224204	0.802187
C99	C	0.825232	-0.778876	0.382245
C100	C	1.325232	-0.278876	0.882245
C101	C	0.825215	-0.724269	0.382237
C102	C	1.325215	-0.224269	0.882237
C103	C	0.865298	-0.696931	0.342209
C104	C	1.365298	-0.196931	0.842209
C105	C	0.865262	-0.642340	0.342193
C106	C	1.365262	-0.142340	0.842193
N107	N	0.905347	-0.615000	0.302173
N108	N	1.405347	-0.115000	0.802173
C109	C	0.945452	-0.642263	0.262158
C110	C	1.445452	-0.142263	0.762158
C111	C	0.865403	-0.975416	0.342239
C112	C	1.365403	-0.475416	0.842239
C113	C	0.865420	-1.030018	0.342242
C114	C	1.365420	-0.530018	0.842242
C115	C	0.945613	-1.029941	0.262203
C116	C	1.445613	-0.529941	0.762203
C117	C	0.945592	-0.975337	0.262198
C118	C	1.445592	-0.475337	0.762198
C119	C	0.905488	-0.948075	0.302219
C120	C	1.405488	-0.448075	0.802219
C121	C	0.945396	-0.527598	0.262142
C122	C	1.445396	-0.027598	0.762142
C123	C	0.945365	-0.472992	0.262134
C124	C	1.445365	0.027008	0.762134
C125	C	0.865175	-0.473074	0.342175
C126	C	1.365175	0.026926	0.842175
C127	C	0.865203	-0.527675	0.342180
C128	C	1.365203	-0.027675	0.842180
C129	C	0.905319	-0.554935	0.302161
C130	C	1.405319	-0.054935	0.802161
O131	O	0.831157	-0.614090	0.376190
O132	O	1.331157	-0.114090	0.876190
O133	O	0.979545	-0.613987	0.228128
O134	O	1.479545	-0.113987	0.728128
C135	C	1.068776	-0.251745	0.302242
C136	C	1.568776	0.248255	0.802242
C137	C	1.138418	-0.251734	0.302273
C138	C	1.638418	0.248266	0.802273
C139	C	0.905384	-0.251797	0.465592
C140	C	1.405384	0.248203	0.965592
C141	C	0.905397	-0.251807	0.535233
C142	C	1.405397	0.248193	1.035233
C143	C	0.905476	-0.115400	0.302211
C144	C	1.405476	0.384600	0.802211
C145	C	0.905528	-0.057286	0.302230
C146	C	1.405528	0.442714	0.802230
C147	C	0.945494	-0.218366	0.567976
C148	C	1.445494	0.281634	1.067976
C149	C	0.945485	-0.218357	0.633411
C150	C	1.445485	0.281643	1.133411
C151	C	0.905384	-0.251800	0.666102
C152	C	1.405384	0.248200	1.166102
C153	C	0.865279	-0.285243	0.633351
C154	C	1.365279	0.214757	1.133351
C155	C	0.865285	-0.285247	0.567917
C156	C	1.365285	0.214753	1.067917
C157	C	0.900387	-0.298900	0.769765
C158	C	1.400387	0.201100	1.269765
C159	C	0.900385	-0.298897	0.835198
C160	C	1.400385	0.201103	1.335198
C161	C	0.905361	-0.251787	0.867922
C162	C	1.405361	0.248213	1.367922
C163	C	0.910353	-0.204679	0.835206
C164	C	1.410353	0.295321	1.335206
C165	C	0.910359	-0.204683	0.769772
C166	C	1.410359	0.295317	1.269772
C167	C	0.905373	-0.251799	0.737054
C168	C	1.405373	0.248201	1.237054
C169	C	0.945451	-0.218334	0.971618
C170	C	1.445451	0.281666	1.471618
C171	C	0.945437	-0.218324	1.037054
C172	C	1.445437	0.281676	1.537054
C173	C	0.865235	-0.285215	1.036993
C174	C	1.365235	0.214785	1.536993
C175	C	0.865245	-0.285220	0.971557
C176	C	1.365245	0.214780	1.471557
C177	C	0.905357	-0.251780	0.938874
C178	C	1.405357	0.248220	1.438874
C179	C	0.905326	-0.251764	1.139381
C180	C	1.405326	0.248236	1.639381
C181	C	0.905335	-0.251766	1.069740
C182	C	1.405335	0.248234	1.569740
H183	H	0.548144	-0.191032	0.229563
H184	H	1.048144	0.308968	0.729563
H185	H	0.832597	-0.312455	0.944898
H186	H	1.332597	0.187545	1.444898
H187	H	0.792589	-0.801125	0.414837
H188	H	1.292589	-0.301125	0.914837
C189	C	0.336866	-0.242935	0.183664
C190	C	0.836866	0.257065	0.683664
N191	N	0.309722	-0.239439	0.136905
N192	N	0.809722	0.260561	0.636905
C193	C	0.894924	-0.350729	0.733774
C194	C	1.394924	0.149271	1.233774
N195	N	0.890814	-0.389766	0.706667
N196	N	1.390814	0.110234	1.206667
C197	C	0.135161	-0.181392	0.218277
C198	C	0.635161	0.318608	0.718277
N199	N	0.108056	-0.153636	0.185147
N200	N	0.608056	0.346364	0.685147
C201	C	0.989458	-0.442924	0.218096
C202	C	1.489458	0.057076	0.718096
N203	N	1.022668	-0.420279	0.184927
N204	N	1.522668	0.079721	0.684927
C205	C	1.029723	-0.808710	0.178132
C206	C	1.529723	-0.308710	0.678132
N207	N	1.062953	-0.831288	0.144964
N208	N	1.562953	-0.331288	0.644964
H209	H	0.832578	-0.312439	1.063609
H210	H	1.332578	0.187561	1.563609
H211	H	0.832627	-0.312471	0.659972
H212	H	1.332627	0.187529	1.159972
C213	C	0.989610	-0.181574	0.532028
C214	C	1.489610	0.318426	1.032028
N215	N	1.022835	-0.153859	0.504950
N216	N	1.522835	0.346141	1.004950
H217	H	0.832630	-0.312479	0.541258
H218	H	1.332630	0.187521	1.041258
C219	C	0.272570	-0.181416	0.218226
C220	C	0.772570	0.318584	0.718226
N221	N	0.299679	-0.153667	0.185074
N222	N	0.799679	0.346333	0.685074
H223	H	1.018219	-0.701874	0.189557
H224	H	1.518219	-0.201874	0.689557
H225	H	0.464935	-0.244161	0.199745
H226	H	0.964935	0.255839	0.699745
H227	H	0.792558	-0.702075	0.414829
H228	H	1.292558	-0.202075	0.914829
C229	C	0.135135	-0.322081	0.386263
C230	C	0.635135	0.177919	0.886263
N231	N	0.108026	-0.349839	0.419404
N232	N	0.608026	0.150161	0.919404
C233	C	0.676210	-0.181477	0.218085
C234	C	1.176210	0.318523	0.718085
N235	N	0.703320	-0.153729	0.184933
N236	N	1.203320	0.346271	0.684933
H237	H	0.832567	-0.549934	0.374776
H238	H	1.332567	-0.049934	0.874776
H239	H	0.978231	-0.953082	0.229604
H240	H	1.478231	-0.453082	0.729604
C241	C	0.894894	-0.350717	0.871179
C242	C	1.394894	0.149283	1.371179
N243	N	0.890756	-0.389749	0.898279
N244	N	1.390756	0.110251	1.398279
C245	C	0.474483	-0.260629	0.420680
C246	C	0.974483	0.239371	0.920680
N247	N	0.501632	-0.264119	0.467437
N248	N	1.001632	0.235881	0.967437
C249	C	0.821064	-0.443075	0.386191
C250	C	1.321064	0.056925	0.886191
N251	N	0.787843	-0.420477	0.419349
N252	N	1.287843	0.079523	0.919349
H253	H	0.978063	-0.549787	0.229556
H254	H	1.478063	-0.049787	0.729556
C255	C	0.989600	-0.181571	0.669435
C256	C	1.489600	0.318429	1.169435
N257	N	1.022830	-0.153864	0.696567
N258	N	1.522830	0.346136	1.196567
C259	C	0.989735	-1.059940	0.218191
C260	C	1.489735	-0.559940	0.718191
N261	N	1.022966	-1.082538	0.185044
N262	N	1.522966	-0.582538	0.685044
H263	H	0.978108	-0.191102	0.945005
H264	H	1.478108	0.308898	1.445005
H265	H	0.666831	-0.312599	0.374641
H266	H	1.166831	0.187401	0.874641
H267	H	0.914406	-0.166318	0.861849
H268	H	1.414406	0.333682	1.361849
H269	H	0.832775	-1.052272	0.374830
H270	H	1.332775	-0.552272	0.874830
C271	C	0.821285	-0.945432	0.386271
C272	C	1.321285	-0.445432	0.886271
N273	N	0.788058	-0.922851	0.419439
N274	N	1.288058	-0.422851	0.919439
H275	H	0.978088	-0.191089	1.063712
H276	H	1.478088	0.308911	1.563712
C277	C	0.538771	-0.322148	0.386117
C278	C	1.038771	0.177852	0.886117
N279	N	0.511658	-0.349901	0.419261
N280	N	1.011658	0.150099	0.919261
C281	C	0.337072	-0.260599	0.420731
C282	C	0.837072	0.239401	0.920731
N283	N	0.310004	-0.264074	0.467506
N284	N	0.810004	0.235926	0.967506
C285	C	0.272543	-0.322101	0.386220
C286	C	0.772543	0.177899	0.886220
N287	N	0.299641	-0.349858	0.419354
N288	N	0.799641	0.150142	0.919354
C289	C	0.915841	-0.152865	0.733787
C290	C	1.415841	0.347135	1.233787
N291	N	0.919966	-0.113834	0.706683
N292	N	1.419966	0.386166	1.206683
