data_functionalizedCrystal
_audit_creation_method	'MofGen! by Chris Wilmer'
_symmetry_space_group_name_H-M	'P1'
_symmetry_Int_Tables_number	1
_symmetry_cell_setting	triclinic
loop_
_symmetry_equiv_pos_as_xyz
  x,y,z
_cell_length_a	19.121063
_cell_length_b	19.121321
_cell_length_c	12.759393
_cell_angle_alpha	92.419100
_cell_angle_beta	92.403718
_cell_angle_gamma	89.929715
loop_
_atom_site_label
_atom_site_type_symbol
_atom_site_fract_x
_atom_site_fract_y
_atom_site_fract_z
Zn1	Zn	-0.324722	1.059826	-0.547052
Zn2	Zn	-0.441971	1.054727	-0.379159
Zn3	Zn	-0.319762	0.942588	-0.378553
Zn4	Zn	-0.436928	0.937556	-0.561952
O5	O	-0.380846	0.998674	-0.466679
O6	O	-0.344461	1.157251	-0.518799
O7	O	-0.425796	1.039823	-0.232061
O8	O	-0.222317	0.962379	-0.394416
O9	O	-0.430604	1.153505	-0.395448
O10	O	-0.225960	1.048514	-0.518211
O11	O	-0.336009	0.957435	-0.231616
O12	O	-0.331118	0.843819	-0.408864
O13	O	-0.422008	0.953804	-0.706993
O14	O	-0.417199	0.840123	-0.543606
O15	O	-0.339570	1.043635	-0.696046
O16	O	-0.539406	1.034945	-0.409896
O17	O	-0.535700	0.948860	-0.544193
C18	C	-0.373074	0.816535	-0.477786
C19	C	-0.369766	0.738614	-0.482564
C20	C	-0.348755	0.298008	-0.512860
C21	C	-0.351876	0.371223	-0.508365
C22	C	-0.398213	0.405874	-0.441782
C23	C	-0.441437	0.367306	-0.379697
C24	C	-0.438318	0.294093	-0.384198
C25	C	-0.409871	0.626833	-0.424980
C26	C	-0.412985	0.700051	-0.420482
C27	C	-0.323425	0.703963	-0.549152
C28	C	-0.320308	0.630748	-0.553642
C29	C	-0.363534	0.592187	-0.491561
C30	C	-0.401403	0.480711	-0.437184
C31	C	-0.360347	0.517351	-0.496165
C32	C	-0.562991	0.990822	-0.478749
C33	C	-0.640916	0.987527	-0.483943
C34	C	-0.679433	1.030833	-0.416516
C35	C	-0.752653	1.027738	-0.421407
C36	C	-0.787353	0.981333	-0.493722
C37	C	-0.748831	0.938024	-0.561156
C38	C	-0.675613	0.941123	-0.556269
C39	C	-1.008328	0.969735	-0.511978
C40	C	-1.081551	0.966638	-0.516858
C41	C	-1.085367	1.056353	-0.377109
C42	C	-1.012148	1.059445	-0.372224
C43	C	-0.973632	1.016139	-0.439662
C44	C	-0.862195	0.978166	-0.498721
C45	C	-0.898792	1.019309	-0.434667
C46	C	-0.197990	1.006577	-0.454584
C47	C	-0.120068	1.009944	-0.449430
C48	C	-0.380780	0.998727	-0.740705
C49	C	-0.380752	0.998750	-0.857478
C50	C	-0.388649	1.181526	-0.455529
C51	C	-0.391974	1.259446	-0.450777
C52	C	-0.333967	0.955881	-1.021829
C53	C	-0.333991	0.955864	-0.912108
C54	C	-0.427486	1.041660	-0.912576
C55	C	-0.427458	1.041680	-1.022295
C56	C	-0.287209	0.912987	-1.076453
C57	C	-0.240474	0.870078	-1.021363
C58	C	-0.240498	0.870061	-0.911642
C59	C	-0.287257	0.912954	-0.857010
C60	C	-0.380863	0.998665	-0.193713
C61	C	-0.380699	0.998786	-0.076919
H62	H	-0.288233	0.735367	-0.599695
C63	C	-0.860619	1.070353	-0.355122
N64	N	-0.831861	1.108796	-0.295203
C65	C	-0.973982	1.110477	-0.292646
N66	N	-0.945235	1.148906	-0.232695
C67	C	-0.478922	1.088833	-0.852477
N68	N	-0.517668	1.124362	-0.807212
C69	C	-0.633245	0.893483	-0.630446
N70	N	-0.601334	0.857600	-0.686320
H71	H	-0.890456	0.940382	-0.557598
H72	H	-0.450720	0.728262	-0.366260
H73	H	-0.479168	0.395524	-0.325488
C74	C	-0.189038	0.822902	-1.081460
N75	N	-0.150296	0.787368	-1.126723
H76	H	-1.109802	0.928857	-0.575763
C77	C	-0.965972	0.922133	-0.586214
N78	N	-0.934067	0.886290	-0.642152
H79	H	-0.287185	0.912995	-1.165794
C80	C	-0.189087	0.822863	-0.851046
N81	N	-0.150365	0.787309	-0.805407
H82	H	-0.465510	1.076618	-1.067150
C83	C	-0.641270	1.081882	-0.336961
N84	N	-0.612527	1.120335	-0.277040
H85	H	-0.311018	0.269801	-0.567072
H86	H	-0.287269	0.912941	-0.767667
H87	H	-0.282578	0.602540	-0.607865
C88	C	-0.457410	0.584425	-0.356670
N89	N	-0.493215	0.552481	-0.305210
C90	C	-0.485861	0.251674	-0.315899
N91	N	-0.521672	0.219726	-0.264456
C92	C	-0.304326	0.413638	-0.576653
N93	N	-0.268507	0.445586	-0.628087
H94	H	-0.322622	0.489135	-0.550381
C95	C	-1.127740	1.103988	-0.302935
N96	N	-1.159656	1.139870	-0.247066
C97	C	-0.787004	0.886975	-0.640700
N98	N	-0.815756	0.848521	-0.700610
H99	H	-0.439128	0.508932	-0.382968
H100	H	-0.784010	1.063003	-0.366500
