data_functionalizedCrystal
_audit_creation_method	'MofGen! by Chris Wilmer'
_symmetry_space_group_name_H-M	'P1'
_symmetry_Int_Tables_number	1
_symmetry_cell_setting	triclinic
loop_
_symmetry_equiv_pos_as_xyz
  x,y,z
_cell_length_a	11.792254
_cell_length_b	11.792241
_cell_length_c	10.268362
_cell_angle_alpha	90.003482
_cell_angle_beta	90.005938
_cell_angle_gamma	95.803993
loop_
_atom_site_label
_atom_site_type_symbol
_atom_site_fract_x
_atom_site_fract_y
_atom_site_fract_z
O1	O	0.155569	-1.506909	0.108174
O2	O	0.655569	-1.006909	0.608174
O3	O	0.171602	-1.176569	0.108205
O4	O	0.671602	-0.676569	0.608205
O5	O	-0.001584	-1.349748	0.108180
O6	O	0.498416	-0.849748	0.608180
O7	O	0.328755	-1.333730	0.108200
O8	O	0.828755	-0.833730	0.608200
O9	O	-0.001594	-1.349746	-0.108421
O10	O	0.498406	-0.849746	0.391579
O11	O	0.171592	-1.176567	-0.108396
O12	O	0.671592	-0.676567	0.391604
O13	O	0.155559	-1.506907	-0.108426
O14	O	0.655559	-1.006907	0.391574
Cu15	Cu	0.163575	-1.341737	-0.128188
Cu16	Cu	0.663575	-0.841737	0.371812
Cu17	Cu	0.163587	-1.341739	0.127967
Cu18	Cu	0.663587	-0.841739	0.627967
O19	O	0.328745	-1.333728	-0.108401
O20	O	0.828745	-0.833728	0.391599
C21	C	0.170590	-1.134277	-0.000092
C22	C	0.670590	-0.634277	0.499908
C23	C	0.167576	-1.008263	-0.000080
C24	C	0.667576	-0.508263	0.499920
N25	N	0.163566	-1.341743	-0.308354
N26	N	0.663566	-0.841743	0.191646
C27	C	-0.043880	-1.348738	-0.000120
C28	C	0.456120	-0.848738	0.499880
C29	C	-0.169893	-1.345718	-0.000119
C30	C	0.330107	-0.845718	0.499881
C31	C	-0.272229	-1.343264	-0.000114
C32	C	0.227771	-0.843264	0.499886
C33	C	-0.400616	-1.340196	-0.000102
C34	C	0.099384	-0.840196	0.499898
C35	C	0.371041	-1.334738	-0.000098
C36	C	0.871041	-0.834738	0.499902
C37	C	0.497054	-1.337758	-0.000091
C38	C	0.997054	-0.837758	0.499909
C39	C	0.156571	-1.549199	-0.000127
C40	C	0.656571	-1.049199	0.499873
C41	C	0.159586	-1.675213	-0.000130
C42	C	0.659586	-1.175213	0.499870
C43	C	0.162033	-0.777551	-0.000118
C44	C	0.662033	-0.277551	0.499882
C45	C	0.165112	-0.905936	-0.000097
C46	C	0.665112	-0.405936	0.499903
N47	N	0.163587	-1.341742	0.308133
N48	N	0.663587	-0.841742	0.808133
C49	C	0.163580	-1.341739	0.573803
C50	C	0.663580	-0.841739	1.073803
C51	C	0.163587	-1.341737	0.425965
C52	C	0.663587	-0.841737	0.925965
