data_functionalizedCrystal
_audit_creation_method	'MofGen! by Chris Wilmer'
_symmetry_space_group_name_H-M	'P1'
_symmetry_Int_Tables_number	1
_symmetry_cell_setting	triclinic
loop_
_symmetry_equiv_pos_as_xyz
  x,y,z
_cell_length_a	13.033293
_cell_length_b	14.909383
_cell_length_c	13.032268
_cell_angle_alpha	100.828334
_cell_angle_beta	89.079182
_cell_angle_gamma	94.324214
loop_
_atom_site_label
_atom_site_type_symbol
_atom_site_fract_x
_atom_site_fract_y
_atom_site_fract_z
Zn1	Zn	1.514582	-0.281167	-0.802348
Zn2	Zn	2.014582	0.218833	-0.302348
Zn3	Zn	1.543770	-0.411040	-0.640013
Zn4	Zn	2.043770	0.088960	-0.140013
Zn5	Zn	1.364168	-0.276395	-0.608170
Zn6	Zn	1.864168	0.223605	-0.108170
Zn7	Zn	1.352181	-0.448714	-0.792849
Zn8	Zn	1.852181	0.051286	-0.292849
O9	O	1.443675	-0.354329	-0.710845
O10	O	1.943675	0.145671	-0.210845
O11	O	1.661583	-0.284626	-0.798116
O12	O	2.161583	0.215374	-0.298116
O13	O	1.537178	-0.375415	-0.490563
O14	O	2.037178	0.124585	0.009437
O15	O	1.376922	-0.150559	-0.624577
O16	O	1.876922	0.349441	-0.124577
O17	O	1.683028	-0.380043	-0.678850
O18	O	2.183028	0.119957	-0.178850
O19	O	1.487430	-0.154065	-0.767239
O20	O	1.987430	0.345935	-0.267239
O21	O	1.405225	-0.276492	-0.467167
O22	O	1.905225	0.223508	0.032833
O23	O	1.219449	-0.313023	-0.615366
O24	O	1.719449	0.186977	-0.115366
O25	O	1.356491	-0.444253	-0.939336
O26	O	1.856491	0.055747	-0.439336
O27	O	1.210642	-0.439625	-0.751049
O28	O	1.710642	0.060375	-0.251049
O29	O	1.475807	-0.321157	-0.946315
O30	O	1.975807	0.178843	-0.446315
O31	O	1.525554	-0.542506	-0.669639
O32	O	2.025554	-0.042506	-0.169639
O33	O	1.384794	-0.570185	-0.781927
O34	O	1.884794	-0.070185	-0.281927
C35	C	1.177933	-0.379895	-0.678722
C36	C	1.677933	0.120105	-0.178722
C37	C	1.064246	-0.390857	-0.665006
C38	C	1.564246	0.109143	-0.165006
C39	C	1.002944	-0.348631	-0.718005
C40	C	1.502944	0.151369	-0.218005
C41	C	0.885442	-0.359959	-0.703830
C42	C	1.385442	0.140041	-0.203830
C43	C	1.457066	-0.589138	-0.728233
C44	C	1.957066	-0.089138	-0.228233
C45	C	1.462884	-0.689585	-0.735718
C46	C	1.962884	-0.189585	-0.235718
C47	C	1.358879	-0.874813	-0.601121
C48	C	1.858879	-0.374813	-0.101121
C49	C	1.364342	-0.969192	-0.608150
C50	C	1.864342	-0.469192	-0.108150
C51	C	1.479280	-0.972724	-0.756800
C52	C	1.979280	-0.472724	-0.256800
C53	C	1.473816	-0.878345	-0.749771
C54	C	1.973816	-0.378345	-0.249771
C55	C	1.413612	-0.829393	-0.671930
C56	C	1.913612	-0.329393	-0.171930
C57	C	1.408144	-0.735013	-0.664906
C58	C	1.908144	-0.235013	-0.164906
C59	C	1.523087	-0.738545	-0.813550
C60	C	2.023087	-0.238545	-0.313550
C61	C	1.528550	-0.832924	-0.820579
C62	C	2.028550	-0.332924	-0.320579
C63	C	1.710455	-0.328664	-0.743095
C64	C	2.210455	0.171336	-0.243095
C65	C	1.824140	-0.317727	-0.756837
C66	C	2.324140	0.182273	-0.256837
C67	C	1.411556	-0.387439	-0.981534
C68	C	1.911556	0.112561	-0.481534
C69	C	1.397869	-0.401549	-1.096886
C70	C	1.897869	0.098451	-0.596886
C71	C	1.430258	-0.118603	-0.693415
C72	C	1.930258	0.381397	-0.193415
C73	C	1.424540	-0.018151	-0.685988
C74	C	1.924540	0.481849	-0.185988
C75	C	1.450801	-0.346934	-1.151766
C76	C	1.950801	0.153066	-0.651766
C77	C	1.436656	-0.361516	-1.270988
C78	C	1.936656	0.138484	-0.770988
C79	C	1.475725	-0.321277	-0.441212
C80	C	1.975725	0.178723	0.058788
C81	C	1.489596	-0.306893	-0.325866
C82	C	1.989596	0.193107	0.174134
H83	H	1.037450	-0.304089	-0.773871
H84	H	1.537450	0.195911	-0.273871
H85	H	0.850940	-0.404499	-0.647955
H86	H	1.350940	0.095501	-0.147955
H87	H	0.858641	-0.273180	-0.812705
H88	H	1.358641	0.226820	-0.312705
H89	H	1.029740	-0.435393	-0.609134
H90	H	1.529740	0.064607	-0.109134
C91	C	1.341918	-0.681167	-0.579281
C92	C	1.841918	-0.181167	-0.079281
N93	N	1.292037	-0.640612	-0.514784
N94	N	1.792037	-0.140612	-0.014784
H95	H	1.528304	-1.012595	-0.820167
H96	H	2.028304	-0.512595	-0.320167
H97	H	1.309850	-0.834957	-0.537747
H98	H	1.809850	-0.334957	-0.037747
H99	H	1.319773	-1.006169	-0.550490
H100	H	1.819773	-0.506169	-0.050490
H101	H	1.577570	-0.872793	-0.883952
H102	H	2.077570	-0.372793	-0.383952
C103	C	1.583298	-0.688575	-0.891445
C104	C	2.083298	-0.188575	-0.391445
N105	N	1.628645	-0.650938	-0.950115
N106	N	2.128645	-0.150938	-0.450115
H107	H	1.506587	-0.289378	-1.110487
H108	H	2.006587	0.210622	-0.610487
C109	C	1.361277	-0.439271	-1.326743
C110	C	1.861277	0.060729	-0.826743
N111	N	1.304502	-0.497835	-1.368739
N112	N	1.804502	0.002165	-0.868739
C113	C	1.564973	-0.229136	-1.270113
C114	C	2.064973	0.270864	-0.770113
N115	N	1.621748	-0.170571	-1.228119
N116	N	2.121748	0.329429	-0.728119
C117	C	1.322493	-0.479300	-1.152645
C118	C	1.822493	0.020700	-0.652645
N119	N	1.265719	-0.537864	-1.194641
N120	N	1.765719	-0.037864	-0.694641
