data_functionalizedCrystal
_audit_creation_method	'MofGen! by Chris Wilmer'
_symmetry_space_group_name_H-M	'P1'
_symmetry_Int_Tables_number	1
_symmetry_cell_setting	triclinic
loop_
_symmetry_equiv_pos_as_xyz
  x,y,z
_cell_length_a	23.532407
_cell_length_b	27.731996
_cell_length_c	22.010155
_cell_angle_alpha	89.998256
_cell_angle_beta	89.996931
_cell_angle_gamma	82.735033
loop_
_atom_site_label
_atom_site_type_symbol
_atom_site_fract_x
_atom_site_fract_y
_atom_site_fract_z
O1	O	0.755125	0.058673	-0.050457
O2	O	1.255125	0.558673	0.449543
O3	O	0.589242	0.067164	-0.050476
O4	O	1.089242	0.567164	0.449524
O5	O	0.677351	-0.007472	-0.050453
O6	O	1.177351	0.492528	0.449547
O7	O	0.667016	0.133309	-0.050480
O8	O	1.167016	0.633309	0.449520
O9	O	0.677335	-0.007461	0.050597
O10	O	1.177335	0.492539	0.550597
O11	O	0.589226	0.067175	0.050574
O12	O	1.089226	0.567175	0.550574
O13	O	0.755109	0.058685	0.050593
O14	O	1.255109	0.558685	0.550593
Cu15	Cu	0.672166	0.062931	0.059810
Cu16	Cu	1.172166	0.562931	0.559810
Cu17	Cu	0.672185	0.062918	-0.059693
Cu18	Cu	1.172185	0.562918	0.440307
O19	O	0.667000	0.133320	0.050570
O20	O	1.167000	0.633320	0.550570
C21	C	0.568019	0.066953	0.000047
C22	C	1.068019	0.566953	0.500047
C23	C	0.504803	0.066303	0.000040
C24	C	1.004803	0.566303	0.500040
C25	C	0.105606	0.106394	0.000060
C26	C	0.605606	0.606394	0.500060
C27	C	0.046207	0.105790	0.000064
C28	C	0.546207	0.605790	0.500064
O29	O	0.009375	0.142955	0.000079
O30	O	0.509375	0.642955	0.500079
N31	N	0.023685	0.061419	0.000071
N32	N	0.523685	0.561419	0.500071
C33	C	0.060566	0.017649	0.000081
C34	C	0.560566	0.517649	0.500081
O35	O	0.035955	-0.020147	0.000089
O36	O	0.535955	0.479853	0.500089
C37	C	0.119963	0.018253	0.000082
C38	C	0.619963	0.518253	0.500082
C39	C	0.142482	0.062627	0.000068
C40	C	0.642482	0.562627	0.500068
C41	C	0.128124	0.150764	0.000047
C42	C	0.628124	0.650764	0.500047
C43	C	0.187519	0.151368	0.000042
C44	C	0.687519	0.651368	0.500042
C45	C	0.224395	0.107601	0.000050
C46	C	0.724395	0.607601	0.500050
C47	C	0.201876	0.063231	0.000063
C48	C	0.701876	0.563231	0.500063
C49	C	0.156843	-0.025516	0.000096
C50	C	0.656843	0.474484	0.500096
C51	C	0.216244	-0.024908	0.000097
C52	C	0.716244	0.475092	0.500097
C53	C	0.238762	0.019466	0.000083
C54	C	0.738762	0.519466	0.500083
C55	C	0.298147	0.020068	0.000066
C56	C	0.798147	0.520068	0.500066
N57	N	0.320669	0.064439	0.000059
N58	N	0.820669	0.564439	0.500059
C59	C	0.283793	0.108206	0.000051
C60	C	0.783793	0.608206	0.500051
C61	C	-0.064174	0.016383	0.000081
C62	C	0.435826	0.516383	0.500081
C63	C	-0.123570	0.015778	0.000077
C64	C	0.376430	0.515778	0.500077
C65	C	-0.137925	0.103920	0.000060
C66	C	0.362075	0.603920	0.500060
C67	C	-0.078528	0.104524	0.000061
C68	C	0.421472	0.604524	0.500061
C69	C	-0.041652	0.060754	0.000074
C70	C	0.458348	0.560754	0.500074
C71	C	0.408526	0.109470	0.000040
C72	C	0.908526	0.609470	0.500040
C73	C	0.467927	0.110070	0.000032
C74	C	0.967927	0.610070	0.500032
C75	C	0.482277	0.021929	0.000052
C76	C	0.982277	0.521929	0.500052
C77	C	0.422881	0.021329	0.000056
C78	C	0.922881	0.521329	0.500056
C79	C	0.386007	0.065103	0.000052
C80	C	0.886007	0.565103	0.500052
O81	O	0.335014	-0.017077	0.000054
O82	O	0.835014	0.482923	0.500054
O83	O	0.308412	0.145996	0.000051
O84	O	0.808412	0.645996	0.500051
C85	C	0.677131	-0.025474	0.000074
C86	C	1.177131	0.474526	0.500074
C87	C	0.676491	-0.079131	0.000080
C88	C	1.176491	0.420869	0.500080
C89	C	0.672477	-0.411860	-0.055032
C90	C	1.172477	0.088140	0.444968
C91	C	0.670049	-0.613522	-0.055043
C92	C	1.170049	-0.113522	0.444957
O93	O	0.669718	-0.639598	-0.101889
O94	O	1.169718	-0.139598	0.398111
N95	N	0.669738	-0.638733	0.000039
N96	N	1.169738	-0.138733	0.500039
C97	C	0.670031	-0.613526	0.055127
C98	C	1.170031	-0.113526	0.555127
O99	O	0.669706	-0.639596	0.101978
O100	O	1.169706	-0.139596	0.601978
C101	C	0.672456	-0.411864	0.055138
C102	C	1.172456	0.088136	0.555138
C103	C	0.672772	-0.386656	0.000052
C104	C	1.172772	0.113344	0.500052
C105	C	0.672792	-0.386652	-0.110113
C106	C	1.172792	0.113348	0.389887
C107	C	0.673403	-0.336239	-0.110110
C108	C	1.173403	0.163761	0.389890
C109	C	0.673697	-0.311036	-0.055026
C110	C	1.173697	0.188964	0.444974
C111	C	0.673382	-0.336244	0.000055
C112	C	1.173382	0.163756	0.500055
C113	C	0.672745	-0.386657	0.110226
C114	C	1.172745	0.113343	0.610226
C115	C	0.673349	-0.336239	0.110223
C116	C	1.173349	0.163761	0.610223
C117	C	0.673665	-0.311030	0.055138
C118	C	1.173665	0.188970	0.555138
C119	C	0.674287	-0.260628	0.055143
C120	C	1.174287	0.239372	0.555143
N121	N	0.674597	-0.235417	0.000061
N122	N	1.174597	0.264583	0.500061
C123	C	0.674302	-0.260620	-0.055023
C124	C	1.174302	0.239380	0.444977
C125	C	0.668760	-0.719401	0.055118
C126	C	1.168760	-0.219401	0.555118
C127	C	0.668155	-0.769816	0.055116
C128	C	1.168155	-0.269816	0.555116
C129	C	0.668171	-0.769809	-0.055055
C130	C	1.168171	-0.269809	0.444945
C131	C	0.668780	-0.719393	-0.055052
C132	C	1.168780	-0.219393	0.444948
C133	C	0.669070	-0.694190	0.000036
C134	C	1.169070	-0.194190	0.500036
C135	C	0.675584	-0.154751	-0.055012
C136	C	1.175584	0.345249	0.444988
C137	C	0.676197	-0.104335	-0.055004
C138	C	1.176197	0.395665	0.444996
C139	C	0.676177	-0.104347	0.055167
C140	C	1.176177	0.395653	0.555167
C141	C	0.675568	-0.154759	0.055159
C142	C	1.175568	0.345241	0.555159
C143	C	0.675269	-0.179960	0.000064
C144	C	1.175269	0.320040	0.500064
O145	O	0.674612	-0.234520	0.101965
O146	O	1.174612	0.265480	0.601965
O147	O	0.674615	-0.234540	-0.101867
O148	O	1.174615	0.265460	0.398133
C149	C	0.671867	-0.462272	-0.055036
C150	C	1.171867	0.037728	0.444964
C151	C	0.671551	-0.487480	0.000046
C152	C	1.171551	0.012520	0.500046
C153	C	0.671846	-0.462277	0.055130
C154	C	1.171846	0.037723	0.555130
C155	C	0.670946	-0.537896	0.000043
C156	C	1.170946	-0.037896	0.500043
C157	C	0.670652	-0.563099	-0.055041
C158	C	1.170652	-0.063099	0.444959
C159	C	0.670962	-0.537888	-0.110123
C160	C	1.170962	-0.037888	0.389877
C161	C	0.671572	-0.487476	-0.110120
C162	C	1.171572	0.012524	0.389880
C163	C	0.671536	-0.487488	0.110212
C164	C	1.171536	0.012512	0.610212
C165	C	0.670926	-0.537900	0.110204
C166	C	1.170926	-0.037900	0.610204
C167	C	0.670632	-0.563104	0.055120
C168	C	1.170632	-0.063104	0.555120
C169	C	0.776333	0.058895	0.000069
C170	C	1.276333	0.558895	0.500069
C171	C	0.839549	0.059545	0.000072
C172	C	1.339549	0.559545	0.500072
C173	C	0.667221	0.151323	0.000041
C174	C	1.167221	0.651323	0.500041
C175	C	0.667860	0.204980	0.000031
C176	C	1.167860	0.704980	0.500031
N177	N	0.672157	0.062940	0.143863
N178	N	1.172157	0.562940	0.643863
N179	N	0.672199	0.062905	-0.143746
N180	N	1.172199	0.562905	0.356254
C181	C	0.711202	0.029874	0.563653
C182	C	1.211202	0.529874	1.063653
C183	C	0.711205	0.029870	0.627260
C184	C	1.211205	0.529870	1.127260
O185	O	0.744379	0.001762	0.660160
O186	O	1.244379	0.501762	1.160160
N187	N	0.672185	0.062907	0.659070
N188	N	1.172185	0.562907	1.159070
C189	C	0.633156	0.095947	0.627269
C190	C	1.133156	0.595947	1.127269
O191	O	0.599967	0.124047	0.660166
O192	O	1.099967	0.624047	1.160166
C193	C	0.633151	0.095948	0.563663
C194	C	1.133151	0.595948	1.063663
C195	C	0.672177	0.062911	0.531856
C196	C	1.172177	0.562911	1.031856
C197	C	0.750225	-0.003160	0.531846
C198	C	1.250225	0.496840	1.031846
C199	C	0.750223	-0.003156	0.468243
C200	C	1.250223	0.496844	0.968243
C201	C	0.711198	0.029882	0.436446
C202	C	1.211198	0.529882	0.936446
C203	C	0.672175	0.062916	0.468253
C204	C	1.172175	0.562916	0.968253
C205	C	0.594120	0.128984	0.531863
C206	C	1.094120	0.628984	1.031863
C207	C	0.594118	0.128982	0.468252
C208	C	1.094118	0.628982	0.968252
C209	C	0.633144	0.095946	0.436445
C210	C	1.133144	0.595946	0.936445
C211	C	0.633148	0.095958	0.372853
C212	C	1.133148	0.595958	0.872853
N213	N	0.672168	0.062920	0.341043
N214	N	1.172168	0.562920	0.841043
C215	C	0.711193	0.029882	0.372840
C216	C	1.211193	0.529882	0.872840
C217	C	0.633169	0.095943	0.760847
C218	C	1.133169	0.595943	1.260847
C219	C	0.633176	0.095945	0.824452
C220	C	1.133176	0.595945	1.324452
C221	C	0.711224	0.029867	0.824439
C222	C	1.211224	0.529867	1.324439
C223	C	0.711219	0.029868	0.760832
C224	C	1.211219	0.529868	1.260832
C225	C	0.672189	0.062905	0.729037
C226	C	1.172189	0.562905	1.229037
C227	C	0.711186	0.029894	0.239268
C228	C	1.211186	0.529894	0.739268
C229	C	0.711182	0.029902	0.175660
C230	C	1.211182	0.529902	0.675660
C231	C	0.633132	0.095978	0.175678
C232	C	1.133132	0.595978	0.675678
C233	C	0.633138	0.095971	0.239282
C234	C	1.133138	0.595971	0.739282
C235	C	0.672167	0.062925	0.271075
C236	C	1.172167	0.562925	0.771075
O237	O	0.599989	0.124050	0.339912
O238	O	1.099989	0.624050	0.839912
O239	O	0.744372	0.001783	0.339935
O240	O	1.244372	0.501783	0.839935
H241	H	-0.141899	-0.020355	0.000078
H242	H	0.358101	0.479645	0.500078
H243	H	0.668999	-0.698885	0.099980
H244	H	1.168999	-0.198885	0.599980
H245	H	-0.060198	0.140657	0.000053
H246	H	0.439802	0.640657	0.500053
H247	H	0.672488	-0.407173	0.155082
H248	H	1.172488	0.092827	0.655082
H249	H	0.601403	0.122851	0.850345
H250	H	1.101403	0.622851	1.350345
C251	C	0.551183	0.165324	0.566836
C252	C	1.051183	0.665324	1.066836
N253	N	0.518838	0.192695	0.593176
N254	N	1.018838	0.692695	1.093176
H255	H	-0.167961	0.139557	0.000056
H256	H	0.332039	0.639557	0.500056
H257	H	0.378510	0.145116	0.000038
H258	H	0.878510	0.645116	0.500038
C259	C	0.676496	-0.076612	0.115756
C260	C	1.176496	0.423388	0.615756
N261	N	0.676730	-0.055720	0.161393
N262	N	1.176730	0.444280	0.661393
C263	C	-0.023615	-0.031770	0.000086
C264	C	0.476385	0.468230	0.500086
N265	N	0.006931	-0.068039	0.000089
N266	N	0.506931	0.431961	0.500089
H267	H	0.138520	-0.061650	0.000108
H268	H	0.638520	0.438350	0.500108
C269	C	0.673670	-0.308518	0.170827
C270	C	1.173670	0.191482	0.670827
N271	N	0.673915	-0.287640	0.216473
N272	N	1.173915	0.212360	0.716473
C273	C	0.551186	0.165332	0.433281
C274	C	1.051186	0.665332	0.933281
N275	N	0.518853	0.192713	0.406942
N276	N	1.018853	0.692713	0.906942
H277	H	0.601365	0.122877	0.265179
H278	H	1.101365	0.622877	0.765179
C279	C	0.673744	-0.308516	-0.170709
C280	C	1.173744	0.191484	0.329291
N281	N	0.673998	-0.287638	-0.216356
N282	N	1.173998	0.212362	0.283644
C283	C	0.675226	-0.182489	0.115755
C284	C	1.175226	0.317511	0.615755
N285	N	0.674962	-0.203372	0.161398
N286	N	1.174962	0.296628	0.661398
H287	H	0.205847	0.187502	0.000030
H288	H	0.705847	0.687502	0.500030
C289	C	0.675266	-0.182466	-0.115619
C290	C	1.175266	0.317534	0.384381
N291	N	0.675032	-0.203341	-0.161267
N292	N	1.175032	0.296659	0.338733
C293	C	0.256804	-0.073059	0.000109
C294	C	0.756804	0.426941	0.500109
N295	N	0.287353	-0.109327	0.000116
N296	N	0.787353	0.390673	0.500116
H297	H	0.782000	-0.030058	0.442350
H298	H	1.282000	0.469942	0.942350
H299	H	0.404547	-0.014804	0.000058
H300	H	0.904547	0.485196	0.500058
H301	H	0.512312	-0.013705	0.000056
H302	H	1.012312	0.486295	0.500056
C303	C	0.676543	-0.076609	-0.115605
C304	C	1.176543	0.423391	0.384395
N305	N	0.676801	-0.055727	-0.161248
N306	N	1.176801	0.444273	0.338752
H307	H	0.782004	-0.030066	0.557729
H308	H	1.282004	0.469934	1.057729
H309	H	0.672550	-0.407167	-0.154972
H310	H	1.172550	0.092833	0.345028
H311	H	0.098105	0.186406	0.000042
H312	H	0.598105	0.686406	0.500042
H313	H	0.669037	-0.698872	-0.099908
H314	H	1.169037	-0.198872	0.400092
C315	C	0.754147	-0.006477	0.725851
C316	C	1.254147	0.493523	1.225851
N317	N	0.786481	-0.033856	0.699506
N318	N	1.286481	0.466144	1.199506
C319	C	0.667842	-0.797542	-0.115649
C320	C	1.167842	-0.297542	0.384351
N321	N	0.667589	-0.818432	-0.161285
N322	N	1.167589	-0.318432	0.338715
H323	H	0.601360	0.122878	0.149780
H324	H	1.101360	0.622878	0.649780
C325	C	0.671916	-0.459753	-0.170719
C326	C	1.171916	0.040247	0.329281
N327	N	0.672173	-0.438875	-0.216366
N328	N	1.172173	0.061125	0.283634
H329	H	0.667906	-0.790338	0.099972
H330	H	1.167906	-0.290338	0.599972
H331	H	0.670725	-0.558418	-0.154975
H332	H	1.170725	-0.058418	0.345025
C333	C	0.670577	-0.565623	0.170807
C334	C	1.170577	-0.065623	0.670807
N335	N	0.670308	-0.586502	0.216452
N336	N	1.170308	-0.086502	0.716452
C337	C	0.754122	-0.006458	0.274232
C338	C	1.254122	0.493542	0.774232
N339	N	0.786463	-0.033835	0.300566
N340	N	1.286463	0.466165	0.800566
H341	H	0.671777	-0.466972	0.155069
H342	H	1.171777	0.033028	0.655069
C343	C	0.754149	-0.006479	0.859427
C344	C	1.254149	0.493521	1.359427
N345	N	0.786477	-0.033853	0.885783
N346	N	1.286477	0.466147	1.385783
C347	C	0.492693	0.158886	0.000021
C348	C	0.992693	0.658886	0.500021
N349	N	0.511344	0.195654	0.000016
N350	N	1.011344	0.695654	0.500016
C351	C	0.754114	-0.006444	0.140676
C352	C	1.254114	0.493556	0.640676
N353	N	0.786448	-0.033820	0.114329
N354	N	1.286448	0.466180	0.614329
H355	H	0.601387	0.122850	0.734962
H356	H	1.101387	0.622850	1.234962
