data_functionalizedCrystal
_audit_creation_method	'MofGen! by Chris Wilmer'
_symmetry_space_group_name_H-M	'P1'
_symmetry_Int_Tables_number	1
_symmetry_cell_setting	triclinic
loop_
_symmetry_equiv_pos_as_xyz
  x,y,z
_cell_length_a	14.185569
_cell_length_b	10.654541
_cell_length_c	15.625325
_cell_angle_alpha	95.645030
_cell_angle_beta	85.696956
_cell_angle_gamma	103.285283
loop_
_atom_site_label
_atom_site_type_symbol
_atom_site_fract_x
_atom_site_fract_y
_atom_site_fract_z
O1	O	0.034297	-1.654832	0.134942
O2	O	0.030272	-1.290601	0.146031
O3	O	0.076124	-1.467528	0.019961
O4	O	-0.011556	-1.477904	0.261011
O5	O	-0.077167	-1.519795	-0.017276
O6	O	-0.123019	-1.342867	0.108793
O7	O	-0.118994	-1.707099	0.097704
Cu8	Cu	-0.135003	-1.529755	0.099848
Cu9	Cu	0.046281	-1.467944	0.143886
O10	O	-0.164847	-1.530171	0.223773
C11	C	-0.046077	-1.269844	0.126598
C12	C	-0.045188	-1.130125	0.124165
N13	N	-0.262509	-1.573239	0.068874
C14	C	0.010707	-1.488947	-0.029522
C15	C	0.044166	-1.474882	-0.121490
C16	C	-0.701790	-1.296709	0.265821
C17	C	-0.798280	-1.329657	0.242364
C18	C	-0.757654	-1.486366	0.130772
C19	C	-0.661158	-1.453427	0.154217
C20	C	-0.633234	-1.358599	0.221743
C21	C	-0.592602	-1.515317	0.110139
C22	C	-0.496115	-1.482385	0.133585
C23	C	-0.468184	-1.387563	0.201110
C24	C	-0.536747	-1.325667	0.245189
C25	C	-0.620529	-1.610152	0.042617
C26	C	-0.551973	-1.672041	-0.001461
C27	C	-0.455483	-1.639103	0.021981
C28	C	-0.427551	-1.544281	0.089506
C29	C	-0.386919	-1.700999	-0.022098
C30	C	-0.290432	-1.668067	0.001348
C31	C	-0.331065	-1.511349	0.112952
N32	N	0.173789	-1.424469	0.174854
C33	C	-0.042644	-1.727855	0.117137
C34	C	-0.043526	-1.867572	0.119572
C35	C	-0.100010	-1.119149	0.274916
C36	C	-0.127000	-1.048021	0.349146
C37	C	-0.126166	-0.916745	0.346854
C38	C	-0.098341	-0.856594	0.270323
C39	C	-0.071351	-0.927721	0.196094
C40	C	-0.072186	-1.058999	0.198395
C41	C	-0.016536	-0.938699	0.045342
C42	C	-0.017364	-1.069974	0.047634
C43	C	0.011289	-0.878548	-0.031188
C44	C	0.038286	-0.949673	-0.105418
C45	C	0.037451	-1.080958	-0.103123
C46	C	0.009626	-1.141101	-0.026595
C47	C	-0.263599	-1.571117	-0.525454
C48	C	-0.232143	-1.557901	-0.611868
C49	C	-0.065035	-1.500924	-0.571264
C50	C	-0.096477	-1.514128	-0.484844
C51	C	-0.195759	-1.549227	-0.461947
C52	C	-0.028638	-1.492238	-0.421336
C53	C	-0.060077	-1.505449	-0.334924
C54	C	-0.159355	-1.540550	-0.312020
C55	C	-0.227199	-1.562437	-0.375535
C56	C	0.070645	-1.457149	-0.444236
C57	C	0.138484	-1.435259	-0.380729
C58	C	0.107045	-1.448461	-0.294314
C59	C	0.007767	-1.483561	-0.271410
C60	C	0.174889	-1.426573	-0.230799
C61	C	0.143449	-1.439784	-0.144387
C62	C	-0.023673	-1.496772	-0.184998
C63	C	-0.099428	-1.508752	0.273258
C64	C	-0.132881	-1.522815	0.365227
H65	H	-0.389618	-1.360755	0.220202
O66	O	0.008720	-1.282695	-0.024124
H67	H	-0.015171	-1.312569	0.041558
H68	H	-0.699097	-1.636966	0.023533
H69	H	-0.514011	-1.248438	0.300170
O70	O	-0.671658	-1.194427	0.338653
H71	H	-0.735539	-1.156921	0.365370
H72	H	-0.149657	-1.097012	0.411455
O73	O	-0.130758	-1.534632	-0.160291
H74	H	-0.167301	-1.461091	-0.179724
O75	O	-0.155273	-0.840016	0.426912
H76	H	-0.174757	-0.903888	0.480515
O77	O	0.068286	-0.884795	-0.187953
H78	H	0.086911	-0.956305	-0.239187
O79	O	-0.417052	-1.803288	-0.094918
H80	H	-0.353171	-1.840801	-0.121626
O81	O	-0.097455	-0.715008	0.267843
H82	H	-0.046586	-0.656707	0.314944
H83	H	0.011961	-0.771657	-0.033050
O84	O	-0.305330	-1.581526	-0.680360
H85	H	-0.292501	-1.661557	-0.727580
H86	H	0.059426	-1.138864	-0.163571
O87	O	-0.193224	-1.554829	-0.218811
H88	H	-0.240097	-1.485962	-0.197860
O89	O	0.281967	-1.388722	-0.255506
H90	H	0.313496	-1.292922	-0.222294
O91	O	0.042046	-1.463057	-0.595960
H92	H	0.052512	-1.457537	-0.666716
H93	H	-0.308046	-1.590976	-0.356888
O94	O	-0.216478	-1.734805	-0.046194
H95	H	-0.252102	-1.806266	-0.097094
O96	O	-0.370683	-1.608972	-0.500745
H97	H	-0.412580	-1.621980	-0.559422
O98	O	0.104585	-1.442907	-0.537433
H99	H	0.074326	-1.367036	-0.562107
H100	H	0.219321	-1.406687	-0.399385
O101	O	0.216611	-1.416164	-0.075880
H102	H	0.290930	-1.389523	-0.106317
H103	H	-0.308328	-1.434121	0.167933
O104	O	-0.100906	-1.260739	0.277386
H105	H	-0.124793	-1.290619	0.343069
H106	H	-0.780402	-1.563580	0.075794
O107	O	-0.872227	-1.262893	0.289904
H108	H	-0.836594	-1.191416	0.340791
H109	H	-0.574721	-1.749255	-0.056439
