data_functionalizedCrystal
_audit_creation_method	'MofGen! by Chris Wilmer'
_symmetry_space_group_name_H-M	'P1'
_symmetry_Int_Tables_number	1
_symmetry_cell_setting	triclinic
loop_
_symmetry_equiv_pos_as_xyz
  x,y,z
_cell_length_a	23.532361
_cell_length_b	23.532407
_cell_length_c	12.376457
_cell_angle_alpha	101.199798
_cell_angle_beta	78.785205
_cell_angle_gamma	82.839173
loop_
_atom_site_label
_atom_site_type_symbol
_atom_site_fract_x
_atom_site_fract_y
_atom_site_fract_z
O1	O	0.766248	0.058041	-0.093900
O2	O	0.600385	0.068069	-0.093928
O3	O	0.688316	-0.019875	-0.093892
O4	O	0.678317	0.145985	-0.093935
O5	O	0.666341	0.002081	0.094111
O6	O	0.578410	0.090025	0.094075
O7	O	0.744274	0.079997	0.094104
Zn8	Zn	0.657853	0.088497	0.123939
Zn9	Zn	0.686806	0.059569	-0.123763
O10	O	0.656343	0.167941	0.094068
C11	C	0.568181	0.078795	0.000070
C12	C	0.504964	0.078039	0.000060
C13	C	0.243698	0.062768	-0.102413
C14	C	0.303098	0.063482	-0.102416
O15	O	0.344011	0.053654	-0.189570
N16	N	0.320825	0.075812	0.000065
C17	C	0.279149	0.087422	0.102555
O18	O	0.299682	0.097974	0.189723
C19	C	0.219751	0.086703	0.102557
C20	C	0.202026	0.074378	0.000070
C21	C	0.225973	0.050444	-0.204892
C22	C	0.166576	0.049730	-0.204889
C23	C	0.124905	0.061341	-0.102406
C24	C	0.142630	0.073665	0.000073
C25	C	0.178076	0.098308	0.205046
C26	C	0.118675	0.097588	0.205039
C27	C	0.100951	0.085264	0.102552
C28	C	0.041563	0.084562	0.102559
N29	N	0.023836	0.072233	0.000078
C30	C	0.065507	0.060622	-0.102404
C31	C	0.403890	0.088929	0.102544
C32	C	0.463287	0.089652	0.102543
C33	C	0.487232	0.065712	-0.102429
C34	C	0.427834	0.064993	-0.102427
C35	C	0.386163	0.076600	0.000063
C36	C	-0.059230	0.059125	-0.102390
C37	C	-0.118633	0.058415	-0.102377
C38	C	-0.142572	0.082353	0.102594
C39	C	-0.083175	0.083066	0.102582
C40	C	-0.041504	0.071449	0.000081
O41	O	0.000618	0.094383	0.189668
O42	O	0.044966	0.050064	-0.189557
C43	C	0.677073	-0.030113	0.000112
C44	C	0.676306	-0.093329	0.000121
C45	C	0.723547	-0.492446	0.000067
C46	C	0.722837	-0.551847	0.000058
O47	O	0.766628	-0.588603	0.000024
N48	N	0.670560	-0.574465	0.000050
C49	C	0.618992	-0.537681	0.000039
O50	O	0.574462	-0.562374	0.000030
C51	C	0.619704	-0.478281	0.000040
C52	C	0.671983	-0.455665	0.000059
C53	C	0.775822	-0.469829	0.000085
C54	C	0.776532	-0.410432	0.000096
C55	C	0.724967	-0.373651	0.000088
C56	C	0.672693	-0.396268	0.000070
C57	C	0.568138	-0.441499	0.000020
C58	C	0.568854	-0.382096	0.000020
C59	C	0.621133	-0.359480	0.000040
C60	C	0.621838	-0.300090	0.000073
N61	N	0.674115	-0.277472	0.000081
C62	C	0.725679	-0.314252	0.000089
C63	C	0.617501	-0.662423	0.000036
C64	C	0.616787	-0.721820	0.000043
C65	C	0.720633	-0.735983	0.000060
C66	C	0.721345	-0.676584	0.000061
C67	C	0.669778	-0.639805	0.000044
C68	C	0.727166	-0.189513	0.000113
C69	C	0.727871	-0.130109	0.000128
C70	C	0.624027	-0.115953	0.000105
C71	C	0.623321	-0.175350	0.000096
C72	C	0.674896	-0.212130	0.000096
O73	O	0.578071	-0.263300	0.000103
O74	O	0.770204	-0.289553	0.000083
C75	C	0.776477	0.069270	0.000103
C76	C	0.839696	0.070026	0.000106
C77	C	0.667585	0.178178	0.000061
C78	C	0.668353	0.241393	0.000045
N79	N	0.638097	0.108239	0.292989
N80	N	0.706565	0.039822	-0.292814
C81	C	0.752424	-0.006017	0.648021
C82	C	0.766248	-0.019835	0.529687
C83	C	0.734211	0.012182	0.470506
C84	C	0.688349	0.058020	0.529672
C85	C	0.674527	0.071842	0.648018
C86	C	0.656314	0.090041	0.470503
C87	C	0.610452	0.135879	0.529669
C88	C	0.596632	0.149699	0.648003
C89	C	0.628668	0.117681	0.707183
C90	C	0.670136	0.076219	0.352158
C91	C	0.592239	0.154079	0.352155
C92	C	0.578415	0.167896	0.470489
H93	H	0.413408	0.054957	-0.185881
H94	H	0.617412	0.128930	0.803541
H95	H	-0.025308	0.049667	-0.185856
C96	C	0.271806	0.037672	-0.317634
C97	C	0.309180	0.084334	-0.345845
C98	C	0.355009	0.071567	-0.458595
C99	C	0.363466	0.012137	-0.543133
C100	C	0.326091	-0.034529	-0.514925
C101	C	0.280262	-0.021761	-0.402175
H102	H	0.302921	0.128331	-0.283262
H103	H	0.382676	0.106112	-0.479476
H104	H	0.397391	0.002686	-0.626597
H105	H	0.332350	-0.078526	-0.577507
H106	H	0.252595	-0.056307	-0.381294
H107	H	0.152152	0.039692	-0.288345
H108	H	0.541073	0.205219	0.518676
C109	C	0.482776	0.103211	0.215284
C110	C	0.457976	0.162443	0.299826
C111	C	0.477462	0.175997	0.412572
C112	C	0.521748	0.130318	0.440777
C113	C	0.546551	0.071082	0.356233
C114	C	0.527065	0.057529	0.243487
H115	H	0.425191	0.196261	0.278949
H116	H	0.459101	0.219847	0.475157
H117	H	0.536173	0.140351	0.524238
H118	H	0.579336	0.037265	0.377110
H119	H	0.545426	0.013678	0.180902
C120	C	-0.138127	0.044856	-0.215120
C121	C	-0.113332	-0.014380	-0.299652
C122	C	-0.132824	-0.027940	-0.412391
C123	C	-0.177111	0.017736	-0.440599
C124	C	-0.201909	0.076976	-0.356066
C125	C	-0.182417	0.090536	-0.243326
H126	H	-0.080545	-0.048196	-0.278772
H127	H	-0.114466	-0.071794	-0.474968
H128	H	-0.191540	0.007698	-0.524056
H129	H	-0.234696	0.110791	-0.376945
H130	H	-0.200775	0.134389	-0.180749
C131	C	0.559279	-0.746693	0.000038
C132	C	0.555915	-0.796971	-0.097593
C133	C	0.498405	-0.821843	-0.097604
C134	C	0.444259	-0.796435	0.000016
C135	C	0.447621	-0.746154	0.097654
C136	C	0.505131	-0.721283	0.097665
H137	H	0.595999	-0.815782	-0.169863
H138	H	0.495917	-0.859064	-0.169883
H139	H	0.401687	-0.814847	0.000007
H140	H	0.407537	-0.727344	0.169924
H141	H	0.507619	-0.684061	0.169943
C142	C	0.816690	-0.070255	0.464603
C143	C	0.869619	-0.057729	0.383233
C144	C	0.920063	-0.108153	0.318145
C145	C	0.917578	-0.171102	0.334428
C146	C	0.864647	-0.183630	0.415802
C147	C	0.814203	-0.133207	0.480889
H148	H	0.871460	-0.011128	0.371176
H149	H	0.959246	-0.098878	0.257906
H150	H	0.954920	-0.208428	0.286246
H151	H	0.862806	-0.230232	0.427858
H152	H	0.775020	-0.142482	0.541128
H153	H	0.084748	0.107045	0.288501
C154	C	0.787663	-0.041232	0.713115
C155	C	0.838107	-0.091653	0.648040
C156	C	0.873350	-0.126871	0.713134
C157	C	0.858149	-0.111667	0.843303
C158	C	0.807702	-0.061244	0.908385
C159	C	0.772459	-0.026026	0.843291
H160	H	0.849361	-0.102910	0.551675
H161	H	0.910694	-0.164198	0.664956
H162	H	0.884238	-0.137737	0.891489
H163	H	0.796447	-0.049987	1.004750
H164	H	0.735115	0.011301	0.891470
H165	H	0.521172	0.056257	-0.185876
H166	H	0.769164	-0.219453	0.000108
C167	C	0.197554	0.111842	0.317798
C168	C	0.172749	0.171061	0.402379
C169	C	0.192221	0.184585	0.515144
C170	C	0.236499	0.138890	0.543327
C171	C	0.261307	0.079667	0.458744
C172	C	0.241834	0.066143	0.345980
H173	H	0.139969	0.204891	0.381517
H174	H	0.173856	0.228426	0.577757
H175	H	0.250913	0.148901	0.626802
H176	H	0.294086	0.045838	0.479606
H177	H	0.260199	0.022303	0.283366
C178	C	0.832548	-0.510281	0.000102
C179	C	0.834931	-0.541664	0.097736
C180	C	0.891661	-0.582109	0.097764
C181	C	0.946008	-0.591171	0.000157
C182	C	0.943627	-0.559788	-0.097484
C183	C	0.886897	-0.519342	-0.097512
H184	H	0.794699	-0.534956	0.169996
H185	H	0.893423	-0.605341	0.170045
H186	H	0.988003	-0.621111	0.000178
H187	H	0.983860	-0.566495	-0.169745
H188	H	0.885135	-0.496110	-0.169793
H189	H	0.369963	0.098389	0.186008
C190	C	0.834040	-0.385559	0.000101
C191	C	0.860221	-0.358069	-0.097524
C192	C	0.917733	-0.333201	-0.097525
C193	C	0.949065	-0.335823	0.000098
C194	C	0.922884	-0.363315	0.097730
C195	C	0.865372	-0.388183	0.097731
H196	H	0.837027	-0.356126	-0.169797
H197	H	0.937113	-0.312849	-0.169800
H198	H	0.991639	-0.317414	0.000097
H199	H	0.946078	-0.365257	0.170003
H200	H	0.845992	-0.408534	0.170006
C201	C	0.777358	-0.776450	0.000059
C202	C	0.779736	-0.807845	0.097678
C203	C	0.836457	-0.848312	0.097678
C204	C	0.890800	-0.857384	0.000058
C205	C	0.888423	-0.825988	-0.097568
C206	C	0.831702	-0.785521	-0.097568
H207	H	0.739507	-0.801130	0.169948
H208	H	0.838216	-0.871553	0.169947
H209	H	0.932788	-0.887341	0.000058
H210	H	0.928652	-0.832703	-0.169838
H211	H	0.829943	-0.762280	-0.169838
H212	H	0.707477	0.038898	0.303995
H213	H	0.575505	-0.632479	0.000032
C214	C	0.510628	-0.466362	-0.000008
C215	C	0.456477	-0.440947	0.097597
C216	C	0.398962	-0.465808	0.097567
C217	C	0.395599	-0.516083	-0.000070
C218	C	0.449752	-0.541501	-0.097683
C219	C	0.507266	-0.516640	-0.097652
H220	H	0.458965	-0.403728	0.169880
H221	H	0.358875	-0.446992	0.169827
H222	H	0.353023	-0.534486	-0.000093
H223	H	0.447263	-0.578720	-0.169966
H224	H	0.547354	-0.535457	-0.169912
H225	H	0.559293	0.187027	0.696176
H226	H	-0.068746	0.093113	0.186036
H227	H	-0.176512	0.091808	0.186033
H228	H	0.770444	-0.111699	0.000147
C229	C	0.567308	-0.075489	0.000088
C230	C	0.512958	-0.066412	0.097693
C231	C	0.456239	-0.025949	0.097663
C232	C	0.453872	0.005437	0.000030
C233	C	0.508224	-0.003639	-0.097582
C234	C	0.564942	-0.044102	-0.097553
H235	H	0.514709	-0.089647	0.169973
H236	H	0.416004	-0.019231	0.169923
H237	H	0.411886	0.035390	0.000008
H238	H	0.506473	0.019596	-0.169863
H239	H	0.605177	-0.050820	-0.169812
H240	H	0.763915	-0.658174	0.000076
H241	H	0.526861	-0.352153	0.000005
H242	H	0.580748	-0.193761	0.000111
H243	H	0.745468	0.000930	0.374153
H244	H	0.566153	0.180151	0.303971
