data_functionalizedCrystal
_audit_creation_method	'MofGen! by Chris Wilmer'
_symmetry_space_group_name_H-M	'P1'
_symmetry_Int_Tables_number	1
_symmetry_cell_setting	triclinic
loop_
_symmetry_equiv_pos_as_xyz
  x,y,z
_cell_length_a	12.827893
_cell_length_b	13.897447
_cell_length_c	12.827885
_cell_angle_alpha	90.031004
_cell_angle_beta	90.019272
_cell_angle_gamma	90.019501
loop_
_atom_site_label
_atom_site_type_symbol
_atom_site_fract_x
_atom_site_fract_y
_atom_site_fract_z
Zn1	Zn	1.597640	-0.383969	0.590840
Zn2	Zn	1.597521	-0.545295	0.416096
Zn3	Zn	1.422881	-0.384016	0.416113
Zn4	Zn	1.422854	-0.545224	0.590796
O5	O	1.510224	-0.464626	0.503462
O6	O	1.743860	-0.405380	0.567671
O7	O	1.574316	-0.523951	0.269863
O8	O	1.446124	-0.249028	0.439317
O9	O	1.743773	-0.523905	0.439288
O10	O	1.574518	-0.248994	0.567687
O11	O	1.446009	-0.405460	0.269875
O12	O	1.276641	-0.405390	0.439274
O13	O	1.446077	-0.523783	0.737038
O14	O	1.276621	-0.523829	0.567613
O15	O	1.574492	-0.405310	0.737070
O16	O	1.574290	-0.680267	0.439245
O17	O	1.445963	-0.680215	0.567597
C18	C	1.238714	-0.464607	0.503442
C19	C	1.122561	-0.464623	0.503458
C20	C	1.070794	-0.523321	0.566866
C21	C	0.950743	-0.523338	0.566884
C22	C	1.510139	-0.715240	0.503437
C23	C	1.510198	-0.822454	0.503462
C24	C	1.510249	-0.909524	0.503486
C25	C	1.510322	-1.018756	0.503513
C26	C	1.782794	-0.464645	0.503482
C27	C	1.898947	-0.464654	0.503491
C28	C	1.510295	-0.464533	0.776032
C29	C	1.510325	-0.464494	0.892185
C30	C	1.510338	-0.213033	0.503509
C31	C	1.510386	-0.105819	0.503529
C32	C	1.510213	-0.464649	0.231952
C33	C	1.510385	-0.464416	0.115799
C34	C	1.573876	-0.405858	0.943986
C35	C	1.573908	-0.405816	1.064036
H36	H	0.906225	-0.573595	0.621167
H37	H	1.628320	-0.355619	1.108583
H38	H	1.628255	-0.355686	0.899457
F39	F	1.129027	-0.588996	0.637804
H40	H	0.943459	-0.414400	0.449198
H41	H	1.455978	-0.514623	1.071259
F42	F	1.064327	-0.398946	0.432522
H43	H	1.455935	-0.514656	0.936713
