data_functionalizedCrystal
_audit_creation_method	'MofGen! by Chris Wilmer'
_symmetry_space_group_name_H-M	'P1'
_symmetry_Int_Tables_number	1
_symmetry_cell_setting	triclinic
loop_
_symmetry_equiv_pos_as_xyz
  x,y,z
_cell_length_a	14.519709
_cell_length_b	15.500227
_cell_length_c	14.519731
_cell_angle_alpha	92.832636
_cell_angle_beta	83.684499
_cell_angle_gamma	87.156413
loop_
_atom_site_label
_atom_site_type_symbol
_atom_site_fract_x
_atom_site_fract_y
_atom_site_fract_z
O1	O	-1.228152	0.071822	-0.116623
O2	O	-0.959678	0.071851	-0.130858
O3	O	-1.101022	0.071828	0.010496
O4	O	-1.086807	0.071846	-0.257977
O5	O	-1.092445	-0.072059	0.001952
O6	O	-0.951101	-0.072036	-0.139402
O7	O	-1.219575	-0.072065	-0.125167
Cu8	Cu	-1.084555	-0.085188	-0.133064
Cu9	Cu	-1.094698	0.084975	-0.122960
O10	O	-1.078230	-0.072042	-0.266521
C11	C	-0.921030	-0.000089	-0.134466
C12	C	-0.818649	-0.000078	-0.132477
C13	C	-0.443750	-0.000114	-0.125160
C14	C	-0.548059	-0.000104	-0.127192
C15	C	-0.631196	-0.000095	-0.128818
C16	C	-0.735512	-0.000086	-0.130851
N17	N	-1.077427	-0.204872	-0.140171
C18	C	-1.137340	-0.250159	-0.080296
C19	C	-1.131958	-0.340731	-0.085679
C20	C	-1.066667	-0.386014	-0.150942
C21	C	-1.006747	-0.340722	-0.210819
C22	C	-1.012125	-0.250151	-0.205431
C23	C	-1.047292	-0.659478	-0.170336
C24	C	-1.041920	-0.750055	-0.175721
C25	C	-1.167131	-0.750058	-0.050580
C26	C	-1.172507	-0.659485	-0.045201
C27	C	-1.112584	-0.614201	-0.105075
C28	C	-1.061166	-0.478594	-0.156447
C29	C	-1.118081	-0.521623	-0.099564
C30	C	-0.258223	-0.000121	-0.121558
C31	C	-0.360605	-0.000120	-0.123547
C32	C	-1.096068	-0.000116	0.040584
C33	C	-1.094072	-0.000116	0.142964
N34	N	-1.101833	0.204659	-0.115847
C35	C	-1.083185	-0.000096	-0.296608
C36	C	-1.085181	-0.000090	-0.398988
C37	C	-1.092450	-0.000114	0.226108
C38	C	-1.090424	-0.000107	0.330417
C39	C	-1.088816	-0.000101	0.413557
C40	C	-1.086790	-0.000096	0.517872
H41	H	-1.190512	-0.213294	-0.027157
H42	H	-0.988748	-0.786921	-0.228870
H43	H	-0.998501	-0.622614	-0.219089
H44	H	-1.180744	-0.377602	-0.036924
N45	N	-1.231758	-0.798899	0.013996
H46	H	-1.218447	-0.863147	0.000683
H47	H	-1.221935	-0.783080	0.080384
H48	H	-1.171239	-0.484750	-0.046424
N49	N	-0.936317	-0.389559	-0.281204
H50	H	-0.942001	-0.453807	-0.275534
H51	H	-0.948017	-0.373714	-0.345710
H52	H	-1.225673	-0.622617	0.007940
N53	N	-0.947500	-0.201302	-0.270004
H54	H	-0.905322	-0.243731	-0.312166
H55	H	-0.985100	-0.163710	-0.308619
H56	H	-1.008005	-0.515471	-0.209587
