data_functionalizedCrystal
_audit_creation_method	'MofGen! by Chris Wilmer'
_symmetry_space_group_name_H-M	'P1'
_symmetry_Int_Tables_number	1
_symmetry_cell_setting	triclinic
loop_
_symmetry_equiv_pos_as_xyz
  x,y,z
_cell_length_a	17.019282
_cell_length_b	10.489741
_cell_length_c	8.965430
_cell_angle_alpha	89.992413
_cell_angle_beta	86.121988
_cell_angle_gamma	96.037271
loop_
_atom_site_label
_atom_site_type_symbol
_atom_site_fract_x
_atom_site_fract_y
_atom_site_fract_z
O1	O	1.047604	-0.162406	-0.010573
O2	O	0.818056	-0.183149	0.018926
O3	O	0.938053	0.012908	0.003496
O4	O	0.927606	-0.358463	0.004856
O5	O	0.938046	0.012926	-0.244582
O6	O	0.818049	-0.183130	-0.229152
O7	O	1.047597	-0.162388	-0.258651
Cu8	Cu	0.932822	-0.172758	-0.266553
Cu9	Cu	0.932830	-0.172779	0.026828
O10	O	0.927600	-0.358445	-0.243222
C11	C	0.788659	-0.182356	-0.101336
C12	C	0.701075	-0.180008	-0.090081
C13	C	0.937260	0.060436	-0.120440
C14	C	0.934900	0.202025	-0.120134
C15	C	0.659929	-0.178892	-0.220024
C16	C	0.577636	-0.176665	-0.209453
C17	C	0.536490	-0.175563	-0.068938
C18	C	0.577642	-0.176676	0.061015
C19	C	0.659934	-0.178894	0.050443
C20	C	0.288022	-0.168859	-0.030251
C21	C	0.205724	-0.166645	-0.019688
C22	C	0.205724	-0.166631	-0.290158
C23	C	0.288017	-0.168857	-0.300718
C24	C	0.329162	-0.169963	-0.170765
C25	C	0.452373	-0.173291	-0.058129
C26	C	0.413278	-0.172226	-0.181575
C27	C	1.076994	-0.163180	-0.138386
C28	C	1.164578	-0.165529	-0.149631
N29	N	0.932822	-0.172742	-0.472902
C30	C	0.928392	-0.405972	-0.119282
C31	C	0.930752	-0.547562	-0.119578
C32	C	0.858549	0.268885	-0.110312
C33	C	0.894613	0.361622	-0.237262
C34	C	0.894638	0.361578	0.007321
C35	C	0.970995	0.292897	-0.247190
C36	C	0.971009	0.292844	-0.002495
C37	C	1.007129	0.385554	-0.129483
C38	C	0.987882	-0.081372	-0.676652
C39	C	1.004476	-0.196241	-0.579302
C40	C	0.916263	-0.057881	-0.568049
C41	C	0.949466	-0.287712	-0.671667
C42	C	0.861222	-0.149277	-0.660419
C43	C	0.877786	-0.264230	-0.563110
N44	N	0.932836	-0.172785	0.233176
H45	H	0.693423	-0.179799	-0.334447
N46	N	1.080435	-0.221202	-0.534209
N47	N	1.107972	-0.323315	-0.571352
H48	H	1.161620	-0.340939	-0.539510
H49	H	0.963543	-0.384890	-0.716935
N50	N	1.011490	0.254942	-0.382271
N51	N	1.081951	0.298079	-0.413732
H52	H	1.110549	0.271272	-0.509134
N53	N	0.785271	-0.124330	-0.705544
N54	N	0.725014	-0.197574	-0.664155
H55	H	0.671372	-0.179945	-0.696021
H56	H	0.831228	-0.341600	-0.513760
H57	H	1.069961	0.436032	-0.137625
N58	N	0.455319	-0.173369	-0.325088
N59	N	0.494476	-0.264474	-0.360251
H60	H	0.524176	-0.265290	-0.461606
N61	N	0.854096	0.399891	-0.361779
N62	N	0.889337	0.475609	-0.457866
H63	H	0.860719	0.502635	-0.545802
N64	N	0.898671	0.063981	-0.511018
N65	N	0.895273	0.083199	-0.373250
H66	H	0.882853	0.169267	-0.332974
N67	N	1.046331	0.015471	-0.738902
N68	N	1.117683	0.011444	-0.716137
H69	H	1.158965	0.079834	-0.760102
H70	H	0.544140	-0.175734	-0.315267
N71	N	0.854100	0.399778	0.142241
N72	N	0.793364	0.456541	0.136455
H73	H	0.764729	0.483518	0.231736
N74	N	1.011502	0.254577	0.122043
N75	N	0.985490	0.276194	0.252299
H76	H	1.014083	0.249167	0.340268
N77	N	0.330035	-0.169971	-0.444261
N78	N	0.314080	-0.259566	-0.532777
H79	H	0.343753	-0.260348	-0.634160
N80	N	0.163708	-0.165476	-0.422908
N81	N	0.200456	-0.166451	-0.548358
H82	H	0.170784	-0.165630	-0.642121
N83	N	0.163704	-0.165494	0.123863
N84	N	0.179657	-0.075871	0.212342
H85	H	0.149980	-0.075057	0.313720
N86	N	0.779797	0.205288	-0.100350
N87	N	0.733714	0.223209	-0.199293
H88	H	0.678096	0.178293	-0.192264
H89	H	0.544135	-0.175770	0.175426
N90	N	0.330031	-0.169988	0.102503
N91	N	0.293281	-0.169008	0.227950
H92	H	0.322953	-0.169806	0.321716
H93	H	0.693434	-0.179805	0.156257
N94	N	0.410341	-0.172150	0.085399
N95	N	0.371189	-0.081045	0.120589
H96	H	0.341501	-0.080234	0.221956
