data_functionalizedCrystal
_audit_creation_method	'MofGen! by Chris Wilmer'
_symmetry_space_group_name_H-M	'P1'
_symmetry_Int_Tables_number	1
_symmetry_cell_setting	triclinic
loop_
_symmetry_equiv_pos_as_xyz
  x,y,z
_cell_length_a	12.759401
_cell_length_b	25.639239
_cell_length_c	12.759393
_cell_angle_alpha	89.964642
_cell_angle_beta	89.980732
_cell_angle_gamma	90.040211
loop_
_atom_site_label
_atom_site_type_symbol
_atom_site_fract_x
_atom_site_fract_y
_atom_site_fract_z
Zn1	Zn	1.606074	-0.208107	-0.593980
Zn2	Zn	1.605897	-0.295552	-0.418283
Zn3	Zn	1.430378	-0.208134	-0.418315
Zn4	Zn	1.430291	-0.295516	-0.593921
O5	O	1.518160	-0.251827	-0.506125
O6	O	1.753071	-0.219711	-0.570685
O7	O	1.582576	-0.283982	-0.271266
O8	O	1.453795	-0.134966	-0.441656
O9	O	1.752941	-0.283956	-0.441601
O10	O	1.582878	-0.134946	-0.570716
O11	O	1.453623	-0.219757	-0.271290
O12	O	1.283345	-0.219722	-0.441598
O13	O	1.453647	-0.283895	-0.740950
O14	O	1.283282	-0.283921	-0.570615
O15	O	1.582794	-0.219676	-0.740993
O16	O	1.582492	-0.368712	-0.441544
O17	O	1.453475	-0.368686	-0.570584
C18	C	1.245192	-0.251821	-0.506104
C19	C	1.128416	-0.251831	-0.506120
C20	C	1.517983	-0.387670	-0.506077
C21	C	1.518004	-0.445784	-0.506091
C22	C	1.073548	-0.285310	-0.573193
C23	C	0.963824	-0.285312	-0.573214
C24	C	0.963845	-0.218354	-0.439079
C25	C	1.073567	-0.218350	-0.439065
C26	C	0.813909	-0.304073	-0.697071
C27	C	0.759037	-0.337561	-0.764135
C28	C	0.794592	-0.388586	-0.780073
C29	C	0.885016	-0.406133	-0.728931
C30	C	0.939881	-0.372649	-0.661860
C31	C	0.904329	-0.321617	-0.645942
C32	C	1.223484	-0.199594	-0.315206
C33	C	1.278352	-0.166111	-0.248129
C34	C	1.242800	-0.115086	-0.232180
C35	C	1.152373	-0.097540	-0.283303
C36	C	1.097505	-0.131022	-0.350380
C37	C	1.133065	-0.182048	-0.366331
C38	C	1.585514	-0.806148	-0.439048
C39	C	1.585555	-0.860752	-0.439062
O40	O	1.642771	-0.888990	-0.382007
N41	N	1.518345	-0.888066	-0.506194
C42	C	1.451097	-0.860773	-0.573324
O43	O	1.393933	-0.889020	-0.630428
C44	C	1.451062	-0.806170	-0.573315
C45	C	1.518269	-0.778859	-0.506171
C46	C	1.652717	-0.778837	-0.371910
C47	C	1.652674	-0.724236	-0.371895
C48	C	1.585429	-0.696947	-0.439018
C49	C	1.518227	-0.724258	-0.506156
C50	C	1.383820	-0.778878	-0.640449
C51	C	1.383792	-0.724271	-0.640435
C52	C	1.450999	-0.696960	-0.573291
C53	C	1.450939	-0.642368	-0.573263
N54	N	1.518150	-0.615054	-0.506131
C55	C	1.585395	-0.642344	-0.439008
C56	C	1.451176	-0.975444	-0.573341
C57	C	1.451204	-1.030046	-0.573346
C58	C	1.585664	-1.030021	-0.439085
C59	C	1.585630	-0.975418	-0.439075
C60	C	1.518386	-0.948130	-0.506208
C61	C	1.585300	-0.527679	-0.438981
C62	C	1.585249	-0.473073	-0.438969
C63	C	1.450793	-0.473103	-0.573233
C64	C	1.450840	-0.527703	-0.573242
C65	C	1.518102	-0.554990	-0.506112
O66	O	1.393755	-0.614096	-0.630292
O67	O	1.642558	-0.614090	-0.381925
C68	C	1.792193	-0.251834	-0.506146
C69	C	1.908970	-0.251837	-0.506156
C70	C	1.518231	-0.251779	-0.780158
C71	C	1.518261	-0.251758	-0.896935
C72	C	1.518366	-0.115454	-0.506196
C73	C	1.518454	-0.057340	-0.506226
C74	C	1.451069	-0.285158	-1.061507
C75	C	1.451035	-0.285180	-0.951783
C76	C	1.585518	-0.218308	-0.951817
C77	C	1.585546	-0.218283	-1.061539
C78	C	1.327062	-0.303890	-0.801816
C79	C	1.259816	-0.337345	-0.746939
C80	C	1.243617	-0.388353	-0.782530
C81	C	1.294677	-0.405917	-0.872998
C82	C	1.361930	-0.372465	-0.927871
C83	C	1.378110	-0.321449	-0.892280
C84	C	1.709521	-0.199579	-1.211507
C85	C	1.776780	-0.166129	-1.266382
C86	C	1.792990	-0.115120	-1.230792
C87	C	1.741948	-0.097558	-1.140321
C88	C	1.674689	-0.131008	-1.085446
C89	C	1.658477	-0.182016	-1.121044
C90	C	1.518150	-0.251838	-0.233157
C91	C	1.518323	-0.251712	-0.116381
H92	H	1.118203	-0.312571	-0.627796
H93	H	0.919174	-0.191096	-0.384484
C94	C	1.377835	-0.185412	-0.191905
N95	N	1.452771	-0.199947	-0.149566
C96	C	1.303140	-0.078262	-0.158360
N97	N	1.348579	-0.050527	-0.102755
C98	C	1.169640	-0.425151	-0.722164
N99	N	1.113916	-0.452865	-0.676694
C100	C	1.659565	-0.945381	-0.365215
N101	N	1.715258	-0.922760	-0.309582
H102	H	1.707403	-0.702003	-0.317224
C103	C	1.691675	-0.255689	-1.250678
N104	N	1.678233	-0.297950	-1.280185
C105	C	1.377261	-1.060082	-0.647199
N106	N	1.321569	-1.082704	-0.702833
H107	H	1.252447	-0.241142	-0.328196
H108	H	1.707481	-0.801050	-0.317251
C109	C	1.659644	-1.060050	-0.365256
N110	N	1.715363	-1.082669	-0.309653
H111	H	1.639977	-0.450838	-0.384288
C112	C	0.998035	-0.111719	-0.406623
N113	N	0.923117	-0.097179	-0.448986
C114	C	1.309817	-0.694257	-0.714289
N115	N	1.254097	-0.671652	-0.769915
C116	C	0.659578	-0.318255	-0.820395
N117	N	0.584666	-0.303716	-0.862769
H118	H	1.396409	-0.953228	-0.628006
C119	C	1.376905	-0.557746	-0.647099
N120	N	1.321225	-0.580371	-0.702739
C121	C	1.309888	-0.808908	-0.714318
N122	N	1.254200	-0.831526	-0.769962
C123	C	1.376831	-0.443074	-0.647069
N124	N	1.321129	-0.420455	-0.702689
C125	C	1.377113	-0.321926	-1.121830
N126	N	1.321404	-0.349619	-1.167262
C127	C	1.418090	-0.391781	-1.027384
N128	N	1.460383	-0.406330	-1.102343
C129	C	1.276860	-0.462032	-0.912138
N130	N	1.263436	-0.504298	-0.941622
H131	H	0.749908	-0.415851	-0.834679
C132	C	1.618535	-0.111687	-0.985928
N133	N	1.576239	-0.097134	-0.910973
H134	H	1.013502	-0.386936	-0.620221
C135	C	1.344863	-0.247776	-0.762666
N136	N	1.358271	-0.205510	-0.733172
H137	H	1.218242	-0.323040	-0.673279
H138	H	0.784959	-0.262523	-0.684111
C139	C	0.924112	-0.462267	-0.746458
N140	N	0.953562	-0.504549	-0.759661
H141	H	1.123413	-0.055994	-0.270300
C142	C	1.866990	-0.078328	-1.291153
N143	N	1.922723	-0.050615	-1.336614
H144	H	1.640073	-0.549889	-0.384320
C145	C	1.659465	-0.181541	-0.891480
N146	N	1.715165	-0.153849	-0.846035
C147	C	1.759778	-0.041445	-1.101169
N148	N	1.773212	0.000820	-1.071682
H149	H	1.818345	-0.180433	-1.340046
