data_functionalizedCrystal
_audit_creation_method	'MofGen! by Chris Wilmer'
_symmetry_space_group_name_H-M	'P1'
_symmetry_Int_Tables_number	1
_symmetry_cell_setting	triclinic
loop_
_symmetry_equiv_pos_as_xyz
  x,y,z
_cell_length_a	15.944551
_cell_length_b	15.995350
_cell_length_c	15.021413
_cell_angle_alpha	90.004882
_cell_angle_beta	90.009811
_cell_angle_gamma	96.504444
loop_
_atom_site_label
_atom_site_type_symbol
_atom_site_fract_x
_atom_site_fract_y
_atom_site_fract_z
O1	O	-1.114505	0.107995	0.073931
O2	O	-0.864505	0.357995	0.323931
O3	O	-0.614505	0.607995	0.573931
O4	O	-0.364505	0.857995	0.823931
O5	O	-0.869955	0.121309	0.073952
O6	O	-0.619955	0.371309	0.323952
O7	O	-0.369955	0.621309	0.573952
O8	O	-0.119955	0.871309	0.823952
O9	O	-0.998915	-0.007235	0.073944
O10	O	-0.748915	0.242765	0.323944
O11	O	-0.498915	0.492765	0.573944
O12	O	-0.248915	0.742765	0.823944
O13	O	-0.985545	0.236539	0.073939
O14	O	-0.735545	0.486539	0.323939
O15	O	-0.485545	0.736539	0.573939
O16	O	-0.235545	0.986539	0.823939
O17	O	-0.998929	-0.007252	-0.074120
O18	O	-0.748929	0.242748	0.175880
O19	O	-0.498929	0.492748	0.425880
O20	O	-0.248929	0.742748	0.675880
O21	O	-0.869969	0.121292	-0.074112
O22	O	-0.619969	0.371292	0.175888
O23	O	-0.369969	0.621292	0.425888
O24	O	-0.119969	0.871292	0.675888
O25	O	-1.114520	0.107978	-0.074133
O26	O	-0.864520	0.357978	0.175867
O27	O	-0.614520	0.607978	0.425867
O28	O	-0.364520	0.857978	0.675867
Zn29	Zn	-0.992247	0.114632	-0.097631
Zn30	Zn	-0.742247	0.364632	0.152369
Zn31	Zn	-0.492247	0.614632	0.402369
Zn32	Zn	-0.242247	0.864632	0.652369
Zn33	Zn	-0.992228	0.114655	0.097450
Zn34	Zn	-0.742228	0.364655	0.347450
Zn35	Zn	-0.492228	0.614655	0.597450
Zn36	Zn	-0.242228	0.864655	0.847450
O37	O	-0.985560	0.236522	-0.074126
O38	O	-0.735560	0.486522	0.175874
O39	O	-0.485560	0.736522	0.425874
O40	O	-0.235560	0.986522	0.675874
C41	C	-0.838668	0.120748	-0.000077
C42	C	-0.588668	0.370748	0.249923
C43	C	-0.338668	0.620748	0.499923
C44	C	-0.088668	0.870748	0.749923
C45	C	-0.745422	0.119091	-0.000069
C46	C	-0.495422	0.369091	0.249931
C47	C	-0.245422	0.619091	0.499931
C48	C	0.004578	0.869091	0.749931
C49	C	-0.998370	-0.038438	-0.000085
C50	C	-0.748370	0.211562	0.249915
C51	C	-0.498370	0.461562	0.499915
C52	C	-0.248370	0.711562	0.749915
C53	C	-0.996712	-0.131389	-0.000076
C54	C	-0.746712	0.118611	0.249924
C55	C	-0.496712	0.368611	0.499924
C56	C	-0.246712	0.618611	0.749924
C57	C	-1.145806	0.108539	-0.000102
C58	C	-0.895806	0.358539	0.249898
C59	C	-0.645806	0.608539	0.499898
C60	C	-0.395806	0.858539	0.749898
C61	C	-1.239052	0.110196	-0.000105
C62	C	-0.989052	0.360196	0.249895
C63	C	-0.739052	0.610196	0.499895
C64	C	-0.489052	0.860196	0.749895
C65	C	-0.530570	0.035452	-0.000084
C66	C	-0.280570	0.285452	0.249916
C67	C	-0.030570	0.535452	0.499916
C68	C	0.219430	0.785452	0.749916
C69	C	-0.469541	0.074300	0.072919
C70	C	-0.219541	0.324300	0.322919
C71	C	0.030459	0.574300	0.572919
C72	C	0.280459	0.824300	0.822919
C73	C	-0.574697	0.116093	-0.000079
C74	C	-0.324697	0.366093	0.249921
C75	C	-0.074697	0.616093	0.499921
C76	C	0.175303	0.866093	0.749921
C77	C	-0.469577	0.074302	-0.073061
C78	C	-0.219577	0.324302	0.176939
C79	C	0.030423	0.574302	0.426939
C80	C	0.280423	0.824302	0.676939
C81	C	-0.409784	0.113192	-0.000093
C82	C	-0.159784	0.363192	0.249907
C83	C	0.090216	0.613192	0.499907
C84	C	0.340216	0.863192	0.749907
C85	C	-0.514895	0.154963	0.072984
C86	C	-0.264895	0.404963	0.322984
C87	C	-0.014895	0.654963	0.572984
C88	C	0.235105	0.904963	0.822984
C89	C	-0.514938	0.154953	-0.073062
C90	C	-0.264938	0.404953	0.176938
C91	C	-0.014938	0.654953	0.426938
C92	C	0.235062	0.904953	0.676938
C93	C	-0.453926	0.193859	-0.000041
C94	C	-0.203926	0.443859	0.249959
C95	C	0.046074	0.693859	0.499959
C96	C	0.296074	0.943859	0.749959
C97	C	-0.669699	0.117762	-0.000070
C98	C	-0.419699	0.367762	0.249930
C99	C	-0.169699	0.617762	0.499930
C100	C	0.080301	0.867762	0.749930
C101	C	-0.314783	0.111529	-0.000096
C102	C	-0.064783	0.361529	0.249904
C103	C	0.185217	0.611529	0.499904
C104	C	0.435217	0.861529	0.749904
C105	C	-0.986105	0.267726	-0.000094
C106	C	-0.736105	0.517726	0.249906
C107	C	-0.486105	0.767726	0.499906
C108	C	-0.236105	1.017726	0.749906
C109	C	-0.987762	0.360676	-0.000097
C110	C	-0.737762	0.610676	0.249903
C111	C	-0.487762	0.860676	0.499903
C112	C	-0.237762	1.110676	0.749903
N113	N	-0.992266	0.114616	-0.230769
N114	N	-0.742266	0.364616	0.019231
N115	N	-0.492266	0.614616	0.269231
N116	N	-0.242266	0.864616	0.519231
C117	C	-0.993713	0.698424	-0.000084
C118	C	-0.743713	0.948424	0.249916
C119	C	-0.493713	1.198424	0.499916
C120	C	-0.243713	1.448424	0.749916
C121	C	-1.085556	0.650995	0.000239
C122	C	-0.835556	0.900995	0.250239
C123	C	-0.585556	1.150995	0.500239
C124	C	-0.335556	1.400995	0.750239
C125	C	-1.083899	0.554305	-0.000100
C126	C	-0.833899	0.804305	0.249900
C127	C	-0.583899	1.054305	0.499900
C128	C	-0.333899	1.304305	0.749900
C129	C	-0.990761	0.530863	-0.000090
C130	C	-0.740761	0.780863	0.249910
C131	C	-0.490761	1.030863	0.499910
C132	C	-0.240761	1.280863	0.749910
C133	C	-0.945469	0.571934	-0.084635
C134	C	-0.695469	0.821934	0.165365
C135	C	-0.445469	1.071934	0.415365
C136	C	-0.195469	1.321934	0.665365
C137	C	-0.947777	0.668570	-0.084701
C138	C	-0.697777	0.918570	0.165299
C139	C	-0.447777	1.168570	0.415299
C140	C	-0.197777	1.418570	0.665299
C141	C	-0.945863	0.668937	0.083676
C142	C	-0.695863	0.918937	0.333676
C143	C	-0.445863	1.168937	0.583676
C144	C	-0.195863	1.418937	0.833676
C145	C	-0.945885	0.571991	0.084789
C146	C	-0.695885	0.821991	0.334789
C147	C	-0.445885	1.071991	0.584789
C148	C	-0.195885	1.321991	0.834789
C149	C	-0.989088	0.436166	-0.000096
C150	C	-0.739088	0.686166	0.249904
C151	C	-0.489088	0.936166	0.499904
C152	C	-0.239088	1.186166	0.749904
C153	C	-0.995384	0.793122	-0.000083
C154	C	-0.745384	1.043122	0.249917
C155	C	-0.495384	1.293122	0.499917
C156	C	-0.245384	1.543122	0.749917
N157	N	-0.992216	0.114664	0.230588
N158	N	-0.742216	0.364664	0.480588
N159	N	-0.492216	0.614664	0.730588
N160	N	-0.242216	0.864664	0.980588
C161	C	-0.932473	0.173983	0.470269
C162	C	-0.682473	0.423983	0.720269
C163	C	-0.432473	0.673983	0.970269
C164	C	-0.182473	0.923983	1.220269
C165	C	-0.916366	0.098261	0.529609
C166	C	-0.666366	0.348261	0.779609
C167	C	-0.416366	0.598261	1.029609
C168	C	-0.166366	0.848261	1.279609
C169	C	-0.992232	0.114646	0.412194
C170	C	-0.742232	0.364646	0.662194
C171	C	-0.492232	0.614646	0.912194
C172	C	-0.242232	0.864646	1.162194
C173	C	-1.008316	0.190351	0.529596
C174	C	-0.758316	0.440351	0.779596
C175	C	-0.508316	0.690351	1.029596
C176	C	-0.258316	0.940351	1.279596
C177	C	-0.992246	0.114636	0.587618
C178	C	-0.742246	0.364636	0.837618
C179	C	-0.492246	0.614636	1.087618
C180	C	-0.242246	0.864636	1.337618
C181	C	-0.976088	0.038887	0.470228
C182	C	-0.726088	0.288887	0.720228
C183	C	-0.476088	0.538887	0.970228
C184	C	-0.226088	0.788887	1.220228
C185	C	-1.068071	0.131026	0.470210
C186	C	-0.818071	0.381026	0.720210
C187	C	-0.568071	0.631026	0.970210
C188	C	-0.318071	0.881026	1.220210
C189	C	-1.051997	0.055250	0.529523
C190	C	-0.801997	0.305250	0.779523
C191	C	-0.551997	0.555250	1.029523
C192	C	-0.301997	0.805250	1.279523
C193	C	-0.992222	0.114654	0.311137
C194	C	-0.742222	0.364654	0.561137
C195	C	-0.492222	0.614654	0.811137
C196	C	-0.242222	0.864654	1.061137
C197	C	-0.992257	0.114620	0.688674
C198	C	-0.742257	0.364620	0.938674
C199	C	-0.492257	0.614620	1.188674
C200	C	-0.242257	0.864620	1.438674
H201	H	-0.563907	-0.031473	0.000008
H202	H	-0.313907	0.218527	0.250008
H203	H	-0.063907	0.468527	0.500008
H204	H	0.186093	0.718527	0.750008
Cl205	Cl	-0.402721	0.297291	0.000016
Cl206	Cl	-0.152721	0.547291	0.250016
Cl207	Cl	0.097279	0.797291	0.500016
Cl208	Cl	0.347279	1.047291	0.750016
H209	H	-0.535073	0.189026	-0.134785
H210	H	-0.285073	0.439026	0.115215
H211	H	-0.035073	0.689026	0.365215
H212	H	0.214927	0.939026	0.615215
Cl213	Cl	-0.992207	0.700664	0.182616
Cl214	Cl	-0.742207	0.950664	0.432616
Cl215	Cl	-0.492207	1.200664	0.682616
Cl216	Cl	-0.242207	1.450664	0.932616
H217	H	-0.534875	0.189052	0.134769
H218	H	-0.284875	0.439052	0.384769
H219	H	-0.034875	0.689052	0.634769
H220	H	0.215125	0.939052	0.884769
H221	H	-0.976946	0.543559	-0.147560
H222	H	-0.726946	0.793559	0.102440
H223	H	-0.476946	1.043559	0.352440
H224	H	-0.226946	1.293559	0.602440
Cl225	Cl	-0.996939	0.529850	0.181358
Cl226	Cl	-0.746939	0.779850	0.431358
Cl227	Cl	-0.496939	1.029850	0.681358
Cl228	Cl	-0.246939	1.279850	0.931358
H229	H	-1.119750	0.526439	-0.060818
H230	H	-0.869750	0.776439	0.189182
H231	H	-0.619750	1.026439	0.439182
H232	H	-0.369750	1.276439	0.689182
Cl233	Cl	-1.142227	0.679611	0.093850
Cl234	Cl	-0.892227	0.929611	0.343850
Cl235	Cl	-0.642227	1.179611	0.593850
Cl236	Cl	-0.392227	1.429611	0.843850
Cl237	Cl	-0.841315	0.717962	0.084567
Cl238	Cl	-0.591315	0.967962	0.334567
Cl239	Cl	-0.341315	1.217962	0.584567
Cl240	Cl	-0.091315	1.467962	0.834567
Cl241	Cl	-0.854392	0.251374	0.430094
Cl242	Cl	-0.604392	0.501374	0.680094
Cl243	Cl	-0.354392	0.751374	0.930094
Cl244	Cl	-0.104392	1.001374	1.180094
Cl245	Cl	-0.998787	0.696827	-0.182286
Cl246	Cl	-0.748787	0.946827	0.067714
Cl247	Cl	-0.498787	1.196827	0.317714
Cl248	Cl	-0.248787	1.446827	0.567714
H249	H	-0.852238	0.084401	0.555706
H250	H	-0.602238	0.334401	0.805706
H251	H	-0.352238	0.584401	1.055706
H252	H	-0.102238	0.834401	1.305706
H253	H	-0.962415	-0.025154	0.444260
H254	H	-0.712415	0.224846	0.694260
H255	H	-0.462415	0.474846	0.944260
H256	H	-0.212415	0.724846	1.194260
H257	H	-1.122141	0.670665	-0.060000
H258	H	-0.872141	0.920665	0.190000
H259	H	-0.622141	1.170665	0.440000
H260	H	-0.372141	1.420665	0.690000
H261	H	-1.102543	0.005011	0.555377
H262	H	-0.852543	0.255011	0.805377
H263	H	-0.602543	0.505011	1.055377
H264	H	-0.352543	0.755011	1.305377
H265	H	-1.021925	0.254379	0.555658
H266	H	-0.771925	0.504379	0.805658
H267	H	-0.521925	0.754379	1.055658
H268	H	-0.271925	1.004379	1.305658
Cl269	Cl	-0.438487	0.021655	0.168212
Cl270	Cl	-0.188487	0.271655	0.418212
Cl271	Cl	0.061513	0.521655	0.668212
Cl272	Cl	0.311513	0.771655	0.918212
Cl273	Cl	-0.839825	0.550122	-0.089483
Cl274	Cl	-0.589825	0.800122	0.160517
Cl275	Cl	-0.339825	1.050122	0.410517
Cl276	Cl	-0.089825	1.300122	0.660517
H277	H	-1.119507	0.525887	0.060502
H278	H	-0.869507	0.775887	0.310502
H279	H	-0.619507	1.025887	0.560502
H280	H	-0.369507	1.275887	0.810502
H281	H	-1.132179	0.144915	0.444098
H282	H	-0.882179	0.394915	0.694098
H283	H	-0.632179	0.644915	0.944098
H284	H	-0.382179	0.894915	1.194098
H285	H	-0.880348	0.700814	-0.088538
H286	H	-0.630348	0.950814	0.161462
H287	H	-0.380348	1.200814	0.411462
H288	H	-0.130348	1.450814	0.661462
Cl289	Cl	-0.438580	0.021611	-0.168347
Cl290	Cl	-0.188580	0.271611	0.081653
Cl291	Cl	0.061420	0.521611	0.331653
Cl292	Cl	0.311420	0.771611	0.581653
H293	H	-0.877966	0.556621	0.089904
H294	H	-0.627966	0.806621	0.339904
H295	H	-0.377966	1.056621	0.589904
H296	H	-0.127966	1.306621	0.839904
