data_functionalizedCrystal
_audit_creation_method	'MofGen! by Chris Wilmer'
_symmetry_space_group_name_H-M	'P1'
_symmetry_Int_Tables_number	1
_symmetry_cell_setting	triclinic
loop_
_symmetry_equiv_pos_as_xyz
  x,y,z
_cell_length_a	10.686220
_cell_length_b	25.639239
_cell_length_c	10.686551
_cell_angle_alpha	85.590528
_cell_angle_beta	90.308082
_cell_angle_gamma	94.420676
loop_
_atom_site_label
_atom_site_type_symbol
_atom_site_fract_x
_atom_site_fract_y
_atom_site_fract_z
Zn1	Zn	1.972159	-0.127472	-0.562366
Zn2	Zn	1.955834	-0.222109	-0.352592
Zn3	Zn	1.746264	-0.140848	-0.368681
Zn4	Zn	1.762265	-0.221050	-0.578370
O5	O	1.859130	-0.177870	-0.465502
O6	O	2.145540	-0.134872	-0.521108
O7	O	1.914505	-0.217371	-0.179180
O8	O	1.776365	-0.065903	-0.394409
O9	O	2.133546	-0.204401	-0.366988
O10	O	1.942329	-0.056076	-0.536709
O11	O	1.760535	-0.157668	-0.191000
O12	O	1.572839	-0.156641	-0.409928
O13	O	1.803636	-0.202595	-0.751793
O14	O	1.584595	-0.215565	-0.563985
O15	O	1.957844	-0.133844	-0.740035
O16	O	1.930021	-0.295139	-0.382506
O17	O	1.787807	-0.294361	-0.548384
C18	C	1.533200	-0.187440	-0.490440
C19	C	1.393768	-0.191545	-0.501138
C20	C	1.858915	-0.313720	-0.465461
C21	C	1.858941	-0.371833	-0.465476
C22	C	1.933401	-0.732571	-0.379250
C23	C	1.933451	-0.787174	-0.379263
O24	O	1.996536	-0.815738	-0.305904
N25	N	1.859357	-0.814099	-0.465568
C26	C	1.785218	-0.786419	-0.551874
O27	O	1.722201	-0.814336	-0.625286
C28	C	1.785176	-0.731818	-0.551866
C29	C	1.859265	-0.704895	-0.465547
C30	C	2.007485	-0.705649	-0.292939
C31	C	2.007433	-0.651050	-0.292925
C32	C	1.933297	-0.623374	-0.379222
C33	C	1.859213	-0.650297	-0.465533
C34	C	1.711045	-0.704138	-0.638177
C35	C	1.711010	-0.649533	-0.638162
C36	C	1.785099	-0.622611	-0.551843
C37	C	1.785025	-0.568023	-0.551816
N38	N	1.859119	-0.541097	-0.465510
C39	C	1.933255	-0.568773	-0.379213
C40	C	1.785314	-0.901087	-0.551887
C41	C	1.785349	-0.955688	-0.551890
C42	C	1.933583	-0.956438	-0.379280
C43	C	1.933541	-0.901836	-0.379272
C44	C	1.859408	-0.874161	-0.465581
C45	C	1.933139	-0.454112	-0.379189
C46	C	1.933077	-0.399509	-0.379179
C47	C	1.784847	-0.398763	-0.551793
C48	C	1.784904	-0.453362	-0.551799
C49	C	1.859060	-0.481035	-0.465493
O50	O	1.721976	-0.539424	-0.625140
O51	O	1.996274	-0.540849	-0.305825
C52	C	2.186333	-0.168263	-0.440468
C53	C	2.325768	-0.164169	-0.429800
C54	C	1.884346	-0.166610	-0.792704
C55	C	1.895092	-0.161811	-0.932138
C56	C	1.859383	-0.041486	-0.465568
C57	C	1.859490	0.016632	-0.465597
C58	C	1.834084	-0.189046	-0.139567
C59	C	1.823582	-0.193690	-0.000116
H60	H	1.374220	-0.137590	-0.360538
H61	H	1.345309	-0.218129	-0.570396
H62	H	1.993408	-0.377591	-0.308884
C63	C	1.629455	-0.619092	-0.733104
C64	C	1.691289	-0.576530	-0.827480
C65	C	1.609732	-0.546091	-0.922418
C66	C	1.466340	-0.558213	-0.922980
C67	C	1.404498	-0.600776	-0.828601
C68	C	1.486055	-0.631216	-0.733663
H69	H	1.797443	-0.567555	-0.827067
H70	H	1.655513	-0.514583	-0.992284
H71	H	1.405967	-0.535679	-0.993259
H72	H	1.298344	-0.609751	-0.829014
H73	H	1.440275	-0.662724	-0.663797
H74	H	1.964545	-0.130848	-0.980617
C75	C	1.729762	-0.235521	-0.934642
C76	C	1.588523	-0.234833	-0.963452
C77	C	1.494702	-0.276665	-0.897970
C78	C	1.542119	-0.319185	-0.803677
C79	C	1.683365	-0.319875	-0.774862
C80	C	1.777187	-0.278043	-0.840345
H81	H	1.553416	-0.203356	-1.033257
H82	H	1.390142	-0.276154	-0.919301
H83	H	1.472667	-0.350151	-0.755203
H84	H	1.718473	-0.351352	-0.705057
H85	H	1.881746	-0.278554	-0.819014
H86	H	1.993527	-0.476637	-0.308913
C87	C	2.089039	-0.736086	-0.197997
C88	C	2.027199	-0.778641	-0.103610
C89	C	2.108750	-0.809074	-0.008652
C90	C	2.252141	-0.796950	-0.008081
C91	C	2.313989	-0.754393	-0.102471
C92	C	2.232437	-0.723960	-0.197429
H93	H	1.921046	-0.787618	-0.104030
H94	H	2.062966	-0.840578	0.061221
H95	H	2.312510	-0.819478	0.062212
H96	H	2.420142	-0.745416	-0.102052
H97	H	2.278222	-0.692456	-0.267303
C98	C	2.088948	-0.621442	-0.197980
C99	C	2.067854	-0.634189	-0.056139
C100	C	2.149379	-0.604585	0.038809
C101	C	2.251999	-0.562235	-0.008085
C102	C	2.273097	-0.549486	-0.149933
C103	C	2.191572	-0.579089	-0.244880
H104	H	1.991885	-0.665541	-0.021419
H105	H	2.133760	-0.614023	0.143814
H106	H	2.312349	-0.540321	0.062201
H107	H	2.349066	-0.518134	-0.184653
H108	H	2.207191	-0.569652	-0.349886
H109	H	1.724483	-0.376221	-0.622052
C110	C	2.015145	-0.986888	-0.284357
C111	C	2.015193	-1.046947	-0.284383
C112	C	2.096748	-1.077398	-0.189466
C113	C	2.178255	-1.047790	-0.094522
C114	C	2.178210	-0.987728	-0.094492
C115	C	2.096655	-0.957276	-0.189409
H116	H	1.954853	-1.068867	-0.354670
H117	H	2.096780	-1.121860	-0.189489
H118	H	2.238627	-1.070332	-0.024258
H119	H	2.238550	-0.965807	-0.024205
H120	H	2.096623	-0.912814	-0.189386
H121	H	1.993871	-0.879919	-0.308984
C122	C	1.703839	-0.985299	-0.646833
C123	C	1.622295	-0.954849	-0.741753
C124	C	1.540789	-0.984458	-0.836706
C125	C	1.540827	-1.044517	-0.836739
C126	C	1.622374	-1.074971	-0.741816
C127	C	1.703880	-1.045362	-0.646863
H128	H	1.622264	-0.910387	-0.741732
H129	H	1.480423	-0.961914	-0.906974
H130	H	1.480492	-1.066435	-0.907028
H131	H	1.622405	-1.119433	-0.741837
H132	H	1.764247	-1.067906	-0.576595
C133	C	1.703745	-0.870647	-0.646822
C134	C	1.560353	-0.882770	-0.647369
C135	C	1.478786	-0.852334	-0.742305
C136	C	1.540611	-0.809776	-0.836694
C137	C	1.684010	-0.797651	-0.836151
C138	C	1.765577	-0.828087	-0.741215
H139	H	1.514580	-0.914276	-0.577493
H140	H	1.372633	-0.861310	-0.742706
H141	H	1.480231	-0.787245	-0.906971
H142	H	1.729784	-0.766145	-0.906026
H143	H	1.871731	-0.819111	-0.740813
H144	H	1.650707	-0.726050	-0.708462
H145	H	1.724579	-0.475283	-0.622091
