data_functionalizedCrystal
_audit_creation_method	'MofGen! by Chris Wilmer'
_symmetry_space_group_name_H-M	'P1'
_symmetry_Int_Tables_number	1
_symmetry_cell_setting	triclinic
loop_
_symmetry_equiv_pos_as_xyz
  x,y,z
_cell_length_a	25.639243
_cell_length_b	25.639239
_cell_length_c	25.639233
_cell_angle_alpha	89.980699
_cell_angle_beta	89.984038
_cell_angle_gamma	90.042008
loop_
_atom_site_label
_atom_site_type_symbol
_atom_site_fract_x
_atom_site_fract_y
_atom_site_fract_z
Zn1	Zn	0.799223	-0.208176	-0.295654
Zn2	Zn	0.799145	-0.295595	-0.208217
Zn3	Zn	0.711799	-0.208180	-0.208227
Zn4	Zn	0.711743	-0.295587	-0.295617
O5	O	0.755478	-0.251885	-0.251929
O6	O	0.872378	-0.219775	-0.284066
O7	O	0.787550	-0.284004	-0.135053
O8	O	0.723452	-0.135014	-0.219844
O9	O	0.872321	-0.284001	-0.219827
O10	O	0.787682	-0.135012	-0.284076
O11	O	0.723377	-0.219781	-0.135061
O12	O	0.638627	-0.219772	-0.219808
O13	O	0.723357	-0.283987	-0.368787
O14	O	0.638586	-0.283990	-0.284013
O15	O	0.787628	-0.219767	-0.368814
O16	O	0.787496	-0.368759	-0.219791
O17	O	0.723282	-0.368753	-0.284003
C18	C	0.619635	-0.251881	-0.251908
C19	C	0.561521	-0.251892	-0.251911
C20	C	0.201182	-0.218495	-0.285434
C21	C	0.146578	-0.218494	-0.285437
O22	O	0.118361	-0.190088	-0.313913
N23	N	0.119239	-0.251883	-0.251943
C24	C	0.146507	-0.285271	-0.218440
O25	O	0.118239	-0.313670	-0.189951
C26	C	0.201110	-0.285268	-0.218434
C27	C	0.228446	-0.251881	-0.251934
C28	C	0.228518	-0.185109	-0.318931
C29	C	0.283119	-0.185111	-0.318928
C30	C	0.310383	-0.218497	-0.285428
C31	C	0.283047	-0.251882	-0.251932
C32	C	0.228377	-0.318653	-0.184929
C33	C	0.282984	-0.318647	-0.184926
C34	C	0.310320	-0.285260	-0.218426
C35	C	0.364912	-0.285270	-0.218429
N36	N	0.392251	-0.251881	-0.251923
C37	C	0.364987	-0.218494	-0.285423
C38	C	0.031836	-0.285273	-0.218453
C39	C	-0.022766	-0.285279	-0.218461
C40	C	-0.022691	-0.218501	-0.285458
C41	C	0.031912	-0.218499	-0.285452
C42	C	0.059175	-0.251884	-0.251947
C43	C	0.479652	-0.218500	-0.285415
C44	C	0.534257	-0.218506	-0.285411
C45	C	0.534177	-0.285281	-0.218413
C46	C	0.479577	-0.285278	-0.218418
C47	C	0.452315	-0.251883	-0.251921
O48	O	0.393163	-0.313659	-0.189966
O49	O	0.393261	-0.190095	-0.313903
C50	C	0.755388	-0.387727	-0.251903
C51	C	0.755398	-0.445841	-0.251910
C52	C	0.722035	-0.697044	-0.285353
C53	C	0.722016	-0.642440	-0.285347
O54	O	0.693564	-0.614211	-0.313764
N55	N	0.755464	-0.615115	-0.251937
C56	C	0.788937	-0.642398	-0.218535
O57	O	0.817386	-0.614142	-0.190118
C58	C	0.788959	-0.697001	-0.218545
C59	C	0.755505	-0.724323	-0.251953
C60	C	0.688584	-0.724366	-0.318759
C61	C	0.688603	-0.778966	-0.318764
C62	C	0.722073	-0.806245	-0.285364
C63	C	0.755524	-0.778923	-0.251958
C64	C	0.822434	-0.724283	-0.185145
C65	C	0.822453	-0.778890	-0.185158
C66	C	0.788999	-0.806211	-0.218566
C67	C	0.789012	-0.860803	-0.218563
N68	N	0.755564	-0.888127	-0.251972
C69	C	0.722094	-0.860848	-0.285373
C70	C	0.788890	-0.527727	-0.218519
C71	C	0.788866	-0.473125	-0.218507
C72	C	0.721945	-0.473170	-0.285320
C73	C	0.721967	-0.527774	-0.285329
C74	C	0.755442	-0.555052	-0.251929
C75	C	0.722136	-0.975513	-0.285381
C76	C	0.722156	-1.030119	-0.285382
C77	C	0.789079	-1.030068	-0.218571
C78	C	0.789057	-0.975468	-0.218568
C79	C	0.755584	-0.948191	-0.251977
O80	O	0.817451	-0.889066	-0.190162
O81	O	0.693655	-0.889110	-0.313791
C82	C	0.891851	-0.251888	-0.251950
C83	C	0.949965	-0.251890	-0.251959
C84	C	0.755495	-0.251875	-0.388302
C85	C	0.755502	-0.251871	-0.446416
C86	C	0.755582	-0.115512	-0.251965
C87	C	0.755626	-0.057397	-0.251981
C88	C	0.789010	-0.218333	-0.806799
C89	C	0.789016	-0.218318	-0.861403
O90	O	0.817464	-0.189864	-0.889657
N91	N	0.755559	-0.251749	-0.888698
C92	C	0.722090	-0.285192	-0.861387
O93	O	0.693632	-0.313626	-0.889617
C94	C	0.722081	-0.285204	-0.806783
C95	C	0.755544	-0.251775	-0.779491
C96	C	0.822470	-0.184906	-0.779506
C97	C	0.822464	-0.184921	-0.724906
C98	C	0.788998	-0.218363	-0.697598
C99	C	0.755538	-0.251790	-0.724890
C100	C	0.688610	-0.318644	-0.779472
C101	C	0.688603	-0.318653	-0.724865
C102	C	0.722066	-0.285224	-0.697573
C103	C	0.722067	-0.285247	-0.642982
N104	N	0.755524	-0.251817	-0.615686
C105	C	0.788990	-0.218375	-0.642994
C106	C	0.722110	-0.285165	-0.976057
C107	C	0.722121	-0.285157	-1.030660
C108	C	0.789047	-0.218282	-1.030672
C109	C	0.789038	-0.218293	-0.976069
C110	C	0.755567	-0.251735	-0.948762
C111	C	0.788975	-0.218410	-0.528329
C112	C	0.788968	-0.218429	-0.473724
C113	C	0.722040	-0.285302	-0.473716
C114	C	0.722049	-0.285285	-0.528316
C115	C	0.755518	-0.251834	-0.555622
O116	O	0.693632	-0.313686	-0.614693
O117	O	0.817437	-0.189941	-0.614757
C118	C	0.755491	-0.251856	-0.116086
C119	C	0.755585	-0.251713	-0.057972
H120	H	0.206129	-0.345840	-0.157649
H121	H	0.305179	-0.345834	-0.157641
H122	H	0.849712	-0.157699	-0.702689
O123	O	0.309589	-0.152623	-0.351481
C124	C	0.273807	-0.123167	-0.381052
H125	H	0.234878	-0.121335	-0.359640
H126	H	0.289607	-0.081977	-0.386699
H127	H	0.268000	-0.142368	-0.420729
O128	O	0.689510	-0.446643	-0.317826
C129	C	0.719248	-0.415001	-0.351606
H130	H	0.760429	-0.431413	-0.354876
H131	H	0.700313	-0.414378	-0.391826
H132	H	0.721048	-0.373625	-0.335434
O133	O	0.560868	-0.186045	-0.317881
C134	C	0.592459	-0.152222	-0.288175
H135	H	0.600615	-0.170603	-0.248519
H136	H	0.630867	-0.145246	-0.309485
H137	H	0.571441	-0.113468	-0.282501
O138	O	0.821477	-0.185733	-1.057227
C139	C	0.791732	-0.151969	-1.088817
H140	H	0.750555	-0.148748	-1.072352
H141	H	0.810667	-0.111729	-1.089445
H142	H	0.789922	-0.168125	-1.130198
O143	O	0.058294	-0.317787	-0.185966
C144	C	0.044904	-0.369911	-0.197296
H145	H	0.029910	-0.372608	-0.239062
H146	H	0.080789	-0.395739	-0.192740
H147	H	0.013185	-0.383536	-0.169246
H148	H	0.816286	-0.191071	-0.953851
O149	O	0.453100	-0.317731	-0.185833
C150	C	0.488876	-0.347211	-0.156278
H151	H	0.527815	-0.325794	-0.154507
H152	H	0.473084	-0.352728	-0.115074
H153	H	0.494658	-0.386947	-0.175354
O154	O	0.202015	-0.152622	-0.351402
C155	C	0.170430	-0.118811	-0.321711
H156	H	0.186864	-0.115516	-0.280534
H157	H	0.169853	-0.078605	-0.340700
H158	H	0.129033	-0.134972	-0.319891
O159	O	0.656081	-0.351046	-0.806037
C160	C	0.622329	-0.321274	-0.837612
H161	H	0.640799	-0.281650	-0.845803
H162	H	0.615311	-0.342565	-0.876004
H163	H	0.583584	-0.315532	-0.816563
O164	O	0.689570	-0.317651	-1.057087
C165	C	0.660044	-0.347178	-1.021269
H166	H	0.658249	-0.325770	-0.982348
H167	H	0.618846	-0.352752	-1.037034
H168	H	0.679161	-0.386889	-1.015460
O169	O	0.689593	-0.948966	-0.317760
C170	C	0.655821	-0.917442	-0.287959
H171	H	0.674287	-0.909251	-0.248355
H172	H	0.648779	-0.879047	-0.309250
H173	H	0.617090	-0.938536	-0.282174
O174	O	0.560748	-0.317661	-0.185888
C175	C	0.614803	-0.310505	-0.193081
H176	H	0.622290	-0.270182	-0.210283
H177	H	0.635542	-0.313985	-0.153911
H178	H	0.630287	-0.341560	-0.220863
O179	O	0.689642	-1.056577	-0.317887
C180	C	0.660091	-1.020787	-0.347357
H181	H	0.681493	-0.981841	-0.349181
H182	H	0.654491	-1.036549	-0.388548
H183	H	0.620393	-1.015030	-0.328172
O184	O	0.656093	-0.805422	-0.351270
C185	C	0.626544	-0.769626	-0.380737
H186	H	0.647947	-0.730681	-0.382555
H187	H	0.620945	-0.785383	-0.421931
H188	H	0.586845	-0.763871	-0.361553
O189	O	0.656143	-0.697849	-0.351262
C190	C	0.685864	-0.666202	-0.385053
H191	H	0.727050	-0.682601	-0.388327
H192	H	0.666922	-0.665592	-0.425270
H193	H	0.687653	-0.624823	-0.368887
O194	O	0.855046	-0.805326	-0.152737
C195	C	0.907141	-0.791925	-0.164227
H196	H	0.908190	-0.752272	-0.184327
H197	H	0.930614	-0.790041	-0.126517
H198	H	0.924745	-0.822626	-0.191126
H199	H	0.661341	-0.345880	-0.702635
O200	O	0.689499	-0.317777	-0.554751
C201	C	0.659972	-0.347309	-0.518936
H202	H	0.658177	-0.325905	-0.480013
H203	H	0.618774	-0.352881	-0.534702
H204	H	0.679089	-0.387020	-0.513132
O205	O	0.821421	-0.554142	-0.186018
C206	C	0.850943	-0.518311	-0.156540
H207	H	0.829510	-0.479414	-0.154709
H208	H	0.856554	-0.534096	-0.115351
H209	H	0.890638	-0.512448	-0.175722
O210	O	0.821284	-0.446565	-0.185994
C211	C	0.791532	-0.415018	-0.152199
H212	H	0.750359	-0.431515	-0.148934
H213	H	0.810469	-0.414401	-0.111980
H214	H	0.789709	-0.373628	-0.168355
O215	O	0.689457	-0.554231	-0.317834
C216	C	0.659903	-0.518438	-0.347299
H217	H	0.681304	-0.479491	-0.349118
H218	H	0.654304	-0.534195	-0.388492
H219	H	0.620205	-0.512686	-0.328113
H220	H	0.816327	-1.052289	-0.191376
H221	H	0.849675	-0.702045	-0.157942
H222	H	-0.044900	-0.191315	-0.312733
O223	O	0.689673	-0.317684	-0.949475
C224	C	0.719412	-0.351471	-0.917902
H225	H	0.759045	-0.333031	-0.909724
H226	H	0.698102	-0.358492	-0.879503
H227	H	0.725134	-0.390210	-0.938945
O228	O	0.689609	-0.317811	-0.447121
C229	C	0.719352	-0.351592	-0.415547
H230	H	0.758991	-0.333156	-0.407387
H231	H	0.698054	-0.358599	-0.377139
H232	H	0.725063	-0.390338	-0.436581
O233	O	0.821596	-0.949005	-0.186094
C234	C	0.851127	-0.984794	-0.156602
H235	H	0.852937	-1.023706	-0.178023
H236	H	0.892320	-0.968977	-0.151058
H237	H	0.832006	-0.990638	-0.116877
O238	O	0.821537	-0.185902	-0.554768
C239	C	0.851056	-0.156397	-0.518961
H240	H	0.852838	-0.177827	-0.480038
H241	H	0.892259	-0.150817	-0.534738
H242	H	0.831941	-0.116688	-0.513152
O243	O	0.058407	-0.186090	-0.318064
C244	C	0.045085	-0.197606	-0.370154
H245	H	0.005427	-0.217712	-0.371203
H246	H	0.043246	-0.159907	-0.393668
H247	H	0.075806	-0.224509	-0.387713
O248	O	0.453256	-0.186047	-0.318011
C249	C	0.489101	-0.156576	-0.347564
H250	H	0.528007	-0.177999	-0.349324
H251	H	0.473350	-0.151063	-0.388772
H252	H	0.494932	-0.116837	-0.328493
H253	H	-0.045019	-0.312472	-0.191188
O254	O	0.821398	-0.185922	-0.447158
C255	C	0.791649	-0.152151	-0.415585
H256	H	0.752015	-0.170598	-0.407391
H257	H	0.812948	-0.145145	-0.377194
H258	H	0.785929	-0.113404	-0.436637
H259	H	0.849722	-0.157671	-0.801735
