data_functionalizedCrystal
_audit_creation_method	'MofGen! by Chris Wilmer'
_symmetry_space_group_name_H-M	'P1'
_symmetry_Int_Tables_number	1
_symmetry_cell_setting	triclinic
loop_
_symmetry_equiv_pos_as_xyz
  x,y,z
_cell_length_a	25.639239
_cell_length_b	19.077148
_cell_length_c	19.077174
_cell_angle_alpha	94.517322
_cell_angle_beta	92.270789
_cell_angle_gamma	92.265757
loop_
_atom_site_label
_atom_site_type_symbol
_atom_site_fract_x
_atom_site_fract_y
_atom_site_fract_z
Zn1	Zn	-0.254047	-1.093621	-0.441845
Zn2	Zn	0.245953	-0.593621	0.058155
Zn3	Zn	-0.337819	-1.088778	-0.323951
Zn4	Zn	0.162181	-0.588778	0.176049
Zn5	Zn	-0.246737	-0.971008	-0.319241
Zn6	Zn	0.253263	-0.471008	0.180759
Zn7	Zn	-0.337784	-0.975672	-0.437067
Zn8	Zn	0.162216	-0.475672	0.062933
O9	O	-0.294097	-1.032270	-0.380526
O10	O	0.205903	-0.532270	0.119474
O11	O	-0.268234	-1.191627	-0.430177
O12	O	0.231766	-0.691627	0.069823
O13	O	-0.322693	-1.069177	-0.224677
O14	O	0.177307	-0.569177	0.275323
O15	O	-0.174545	-0.987348	-0.335533
O16	O	0.325455	-0.487348	0.164467
O17	O	-0.329781	-1.188069	-0.343561
O18	O	0.170219	-0.688069	0.156439
O19	O	-0.179915	-1.077431	-0.425610
O20	O	0.320085	-0.577431	0.074390
O21	O	-0.255775	-0.982652	-0.221216
O22	O	0.244225	-0.482652	0.278784
O23	O	-0.255741	-0.872978	-0.330900
O24	O	0.244259	-0.372978	0.169100
O25	O	-0.329720	-0.995296	-0.536350
O26	O	0.170280	-0.495296	-0.036350
O27	O	-0.322632	-0.876404	-0.417466
O28	O	0.177368	-0.376404	0.082534
O29	O	-0.268199	-1.081953	-0.539861
O30	O	0.231801	-0.581953	-0.039861
O31	O	-0.410977	-1.073699	-0.338928
O32	O	0.089023	-0.573699	0.161072
O33	O	-0.410951	-0.990600	-0.422033
O34	O	0.089049	-0.490600	0.077967
C35	C	-0.288390	-0.849112	-0.373154
C36	C	0.211610	-0.349112	0.126846
C37	C	-0.285962	-0.770757	-0.370016
C38	C	0.214038	-0.270757	0.129984
C39	C	-0.268524	-0.329509	-0.347526
C40	C	0.231476	0.170491	0.152474
C41	C	-0.270809	-0.403132	-0.350478
C42	C	0.229191	0.096868	0.149522
C43	C	-0.306830	-0.441741	-0.396951
C44	C	0.193170	0.058259	0.103049
C45	C	-0.340566	-0.406723	-0.440480
C46	C	0.159434	0.093277	0.059520
C47	C	-0.338279	-0.333101	-0.437531
C48	C	0.161721	0.166899	0.062469
C49	C	-0.317410	-0.662118	-0.410597
C50	C	0.182590	-0.162118	0.089403
C51	C	-0.319696	-0.735744	-0.413541
C52	C	0.180304	-0.235744	0.086459
C53	C	-0.249937	-0.732149	-0.323539
C54	C	0.250063	-0.232149	0.176461
C55	C	-0.247655	-0.658526	-0.320592
C56	C	0.252345	-0.158526	0.179408
C57	C	-0.281389	-0.623515	-0.364124
C58	C	0.218611	-0.123515	0.135876
N59	N	-0.309168	-0.516995	-0.399967
N60	N	0.190832	-0.016995	0.100033
N61	N	-0.279049	-0.548262	-0.361110
N62	N	0.220951	-0.048262	0.138890
C63	C	-0.429935	-1.032150	-0.380489
C64	C	0.070065	-0.532150	0.119511
C65	C	-0.488050	-1.032164	-0.380499
C66	C	0.011950	-0.532164	0.119501
C67	C	-0.848423	-1.075660	-0.337335
C68	C	-0.348423	-0.575660	0.162665
C69	C	-0.903029	-1.075687	-0.337345
C70	C	-0.403029	-0.575687	0.162655
O71	O	-0.931270	-1.112545	-0.300604
O72	O	-0.431270	-0.612545	0.199396
N73	N	-0.930341	-1.032395	-0.380578
N74	N	-0.430341	-0.532395	0.119422
C75	C	-0.903045	-0.989078	-0.423808
C76	C	-0.403045	-0.489078	0.076192
O77	O	-0.931291	-0.952258	-0.460582
O78	O	-0.431291	-0.452258	0.039418
C79	C	-0.848441	-0.989054	-0.423801
C80	C	-0.348441	-0.489054	0.076199
C81	C	-0.821132	-1.032344	-0.380560
C82	C	-0.321132	-0.532344	0.119440
C83	C	-0.821114	-1.118946	-0.294098
C84	C	-0.321114	-0.618946	0.205902
C85	C	-0.766512	-1.118917	-0.294087
C86	C	-0.266512	-0.618917	0.205913
C87	C	-0.739220	-1.075602	-0.337312
C88	C	-0.239220	-0.575602	0.162688
C89	C	-0.766530	-1.032315	-0.380549
C90	C	-0.266530	-0.532315	0.119451
C91	C	-0.821147	-0.945741	-0.467034
C92	C	-0.321147	-0.445741	0.032966
C93	C	-0.766539	-0.945722	-0.467023
C94	C	-0.266539	-0.445722	0.032977
C95	C	-0.739229	-0.989012	-0.423783
C96	C	-0.239229	-0.489012	0.076217
C97	C	-0.684636	-0.988971	-0.423763
C98	C	-0.184636	-0.488971	0.076237
N99	N	-0.657324	-1.032263	-0.380530
N100	N	-0.157324	-0.532263	0.119470
C101	C	-0.684616	-1.075578	-0.337305
C102	C	-0.184616	-0.575578	0.162695
C103	C	-1.017718	-0.989132	-0.423821
C104	C	-0.517718	-0.489132	0.076179
C105	C	-1.072321	-0.989151	-0.423825
C106	C	-0.572321	-0.489151	0.076175
C107	C	-1.072301	-1.075761	-0.337363
C108	C	-0.572301	-0.575761	0.162637
C109	C	-1.017697	-1.075738	-0.337356
C110	C	-0.517697	-0.575738	0.162644
C111	C	-0.990406	-1.032424	-0.380588
C112	C	-0.490406	-0.532424	0.119412
C113	C	-0.569948	-1.075514	-0.337284
C114	C	-0.069948	-0.575514	0.162716
C115	C	-0.515341	-1.075479	-0.337274
C116	C	-0.015341	-0.575479	0.162726
C117	C	-0.515367	-0.988872	-0.423739
C118	C	-0.015367	-0.488872	0.076261
C119	C	-0.569968	-0.988904	-0.423746
C120	C	-0.069968	-0.488904	0.076254
C121	C	-0.597258	-1.032230	-0.380516
C122	C	-0.097258	-0.532230	0.119484
O123	O	-0.656360	-0.952135	-0.460487
O124	O	-0.156360	-0.452135	0.039513
O125	O	-0.656364	-1.112399	-0.300543
O126	O	-0.156364	-0.612399	0.199457
C127	C	-0.157730	-1.032410	-0.380579
C128	C	0.342270	-0.532410	0.119421
C129	C	-0.099618	-1.032469	-0.380602
C130	C	0.400382	-0.532469	0.119398
C131	C	-0.299771	-1.039685	-0.564400
C132	C	0.200229	-0.539685	-0.064400
C133	C	-0.302189	-1.042845	-0.642755
C134	C	0.197811	-0.542845	-0.142755
C135	C	-0.299824	-0.216142	-0.387920
C136	C	0.200176	0.283858	0.112080
C137	C	-0.302258	-0.294496	-0.391051
C138	C	0.197742	0.205504	0.108949
C139	C	-0.268486	-0.999283	-0.677765
C140	C	0.231514	-0.499283	-0.177765
C141	C	-0.270762	-1.002249	-0.751389
C142	C	0.229238	-0.502249	-0.251389
C143	C	-0.306740	-1.048782	-0.790002
C144	C	0.193260	-0.548782	-0.290002
C145	C	-0.340447	-1.092346	-0.754987
C146	C	0.159553	-0.592346	-0.254987
C147	C	-0.338173	-1.089376	-0.681364
C148	C	0.161827	-0.589376	-0.181364
C149	C	-0.317280	-1.062494	-1.010382
C150	C	0.182720	-0.562494	-0.510382
C151	C	-0.319550	-1.065462	-1.084010
C152	C	0.180450	-0.565462	-0.584010
C153	C	-0.249866	-0.975364	-1.080407
C154	C	0.250134	-0.475364	-0.580407
C155	C	-0.247593	-0.972401	-1.006783
C156	C	0.252407	-0.472401	-0.506783
C157	C	-0.281302	-1.015962	-0.971775
C158	C	0.218698	-0.515962	-0.471775
N159	N	-0.309066	-1.051817	-0.865257
N160	N	0.190934	-0.551817	-0.365257
N161	N	-0.278977	-1.012923	-0.896521
N162	N	0.221023	-0.512923	-0.396521
C163	C	-0.288408	-1.024923	-0.197370
C164	C	0.211592	-0.524923	0.302630
C165	C	-0.285847	-1.021900	-0.119019
C166	C	0.214153	-0.521900	0.380981
H167	H	-0.222473	-0.760663	-0.288099
H168	H	0.277527	-0.260663	0.211901
O169	O	-0.991148	-0.947007	-0.465714
O170	O	-0.491148	-0.447007	0.034286
C171	C	-0.956963	-0.899859	-0.423706
C172	C	-0.456963	-0.399859	0.076294
H173	H	-0.947898	-0.922609	-0.371306
H174	H	-0.447898	-0.422609	0.128694
H175	H	-0.976187	-0.847323	-0.413812
H176	H	-0.476187	-0.347323	0.086188
C177	C	-0.917030	-0.860651	-0.526324
C178	C	-0.417030	-0.360651	-0.026324
C179	C	-0.905893	-0.888596	-0.461968
C180	C	-0.405893	-0.388596	0.038032
H181	H	-0.885528	-0.853700	-0.549926
H182	H	-0.385528	-0.353700	-0.049926
H183	H	-0.940062	-0.892413	-0.554626
H184	H	-0.440062	-0.392413	-0.054626
H185	H	-0.933051	-0.816873	-0.518070
H186	H	-0.433051	-0.316873	-0.018070
H187	H	-0.889878	-0.932376	-0.470223
H188	H	-0.389878	-0.432376	0.029777
H189	H	-0.882856	-0.856841	-0.433668
H190	H	-0.382856	-0.356841	0.066332
O191	O	-0.238009	-0.960031	-0.785484
O192	O	0.261991	-0.460031	-0.285484
C193	C	-0.206800	-1.001912	-0.829698
C194	C	0.293200	-0.501912	-0.329698
H195	H	-0.227241	-1.055765	-0.842864
H196	H	0.272759	-0.555765	-0.342864
H197	H	-0.167415	-1.008546	-0.801664
H198	H	0.332585	-0.508546	-0.301664
C199	C	-0.173195	-0.899810	-0.881905
C200	C	0.326805	-0.399810	-0.381905
C201	C	-0.198303	-0.965951	-0.898081
C202	C	0.301697	-0.465951	-0.398081
H203	H	-0.167951	-0.877627	-0.924086
H204	H	0.332049	-0.377627	-0.424086
H205	H	-0.194219	-0.871593	-0.852116
H206	H	0.305781	-0.371593	-0.352116
H207	H	-0.140377	-0.905348	-0.858542
H208	H	0.359623	-0.405348	-0.358542
H209	H	-0.231123	-0.960412	-0.921436
H210	H	0.268877	-0.460412	-0.421436
H211	H	-0.177284	-0.994167	-0.927876
H212	H	0.322716	-0.494167	-0.427876
H213	H	-0.218326	-0.627096	-0.282744
H214	H	0.281674	-0.127096	0.217256
H215	H	-0.592205	-0.953656	-0.458958
H216	H	-0.092205	-0.453656	0.041042
O217	O	-0.991223	-1.117753	-0.295256
O218	O	-0.491223	-0.617753	0.204744
C219	C	-1.001941	-1.099561	-0.224367
C220	C	-0.501941	-0.599561	0.275633
H221	H	-1.040717	-1.072415	-0.221801
H222	H	-0.540717	-0.572415	0.278199
H223	H	-0.969380	-1.062368	-0.199130
H224	H	-0.469380	-0.562368	0.300870
C225	C	-0.957628	-1.199941	-0.187639
C226	C	-0.457628	-0.699941	0.312361
C227	C	-1.005256	-1.166605	-0.184487
C228	C	-0.505256	-0.666605	0.315513
H229	H	-0.959670	-1.241296	-0.163038
H230	H	-0.459670	-0.741296	0.336962
H231	H	-0.950405	-1.212197	-0.235398
H232	H	-0.450405	-0.712197	0.264602
H233	H	-0.930498	-1.168940	-0.166609
H234	H	-0.430498	-0.668940	0.333391
H235	H	-1.032383	-1.197603	-0.205525
H236	H	-0.532383	-0.697603	0.294475
H237	H	-1.012483	-1.154356	-0.136731
H238	H	-0.512483	-0.654356	0.363269
H239	H	-0.369894	-0.438163	-0.478322
H240	H	0.130106	0.061837	0.021678
H241	H	-0.365614	-1.124854	-0.652861
H242	H	0.134386	-0.624854	-0.152861
H243	H	-0.493137	-0.953603	-0.458930
H244	H	0.006863	-0.453603	0.041070
H245	H	-0.365747	-0.304595	-0.472975
H246	H	0.134253	0.195405	0.027025
O247	O	-0.354743	-0.773275	-0.458590
O248	O	0.145257	-0.273275	0.041410
C249	C	-0.388539	-0.814210	-0.420074
C250	C	0.111461	-0.314210	0.079926
H251	H	-0.389300	-0.789766	-0.363656
H252	H	0.110700	-0.289766	0.136344
H253	H	-0.374032	-0.869924	-0.419917
H254	H	0.125968	-0.369924	0.080083
C255	C	-0.443089	-0.846708	-0.523718
C256	C	0.056911	-0.346708	-0.023718
C257	C	-0.444028	-0.816682	-0.454426
C258	C	0.055972	-0.316682	0.045574
H259	H	-0.477317	-0.848236	-0.544909
H260	H	0.022683	-0.348236	-0.044909
H261	H	-0.420319	-0.819131	-0.549668
H262	H	0.079681	-0.319131	-0.049668
H263	H	-0.430997	-0.893133	-0.523578
H264	H	0.069003	-0.393133	-0.023578
H265	H	-0.456113	-0.770255	-0.454569
H266	H	0.043887	-0.270255	0.045431
H267	H	-0.466801	-0.844251	-0.428477
H268	H	0.033199	-0.344251	0.071523
H269	H	-0.348849	-1.103358	-1.115447
H270	H	0.151151	-0.603358	-0.615447
O271	O	-0.596394	-1.117703	-0.295327
O272	O	-0.096394	-0.617703	0.204673
C273	C	-0.585654	-1.188564	-0.313631
C274	C	-0.085654	-0.688564	0.186369
H275	H	-0.546884	-1.191064	-0.340793
H276	H	-0.046884	-0.691064	0.159207
H277	H	-0.618216	-1.213767	-0.350845
H278	H	-0.118216	-0.713767	0.149155
C279	C	-0.629927	-1.225479	-0.213300
C280	C	-0.129927	-0.725479	0.286700
C281	C	-0.582307	-1.228549	-0.246657
C282	C	-0.082307	-0.728549	0.253343
H283	H	-0.627864	-1.250145	-0.171989
H284	H	-0.127864	-0.750145	0.328011
H285	H	-0.637164	-1.177738	-0.200970
H286	H	-0.137164	-0.677738	0.299030
H287	H	-0.657057	-1.246480	-0.244319
H288	H	-0.157057	-0.746480	0.255681
H289	H	-0.555179	-1.207540	-0.215641
H290	H	-0.055179	-0.707540	0.284359
H291	H	-0.575064	-1.276287	-0.258980
H292	H	-0.075064	-0.776287	0.241020
O293	O	-0.350239	-0.628223	-0.452898
O294	O	0.149761	-0.128223	0.047102
C295	C	-0.382517	-0.678090	-0.494552
C296	C	0.117483	-0.178090	0.005448
H297	H	-0.385023	-0.729398	-0.467774
H298	H	0.114977	-0.229398	0.032226
H299	H	-0.365341	-0.688106	-0.548460
H300	H	0.134659	-0.188106	-0.048460
C301	C	-0.434517	-0.586706	-0.536293
C302	C	0.065483	-0.086706	-0.036293
C303	C	-0.437598	-0.649722	-0.503400
C304	C	0.062402	-0.149722	-0.003400
H305	H	-0.468492	-0.569207	-0.541755
H306	H	0.031508	-0.069207	-0.041755
H307	H	-0.412769	-0.553109	-0.508232
H308	H	0.087231	-0.053109	-0.008232
H309	H	-0.420201	-0.595061	-0.581213
H310	H	0.079799	-0.095061	-0.081213
H311	H	-0.451908	-0.641364	-0.458478
H312	H	0.048092	-0.141364	0.041522
H313	H	-0.459349	-0.683317	-0.531454
H314	H	0.040651	-0.183317	-0.031454
H315	H	-0.843373	-0.910487	-0.502242
H316	H	-0.343373	-0.410487	-0.002242
O317	O	-0.488785	-1.117431	-0.295190
O318	O	0.011215	-0.617431	0.204810
C319	C	-0.454582	-1.075482	-0.248014
C320	C	0.045418	-0.575482	0.251986
H321	H	-0.469218	-1.019794	-0.241383
H322	H	0.030782	-0.519794	0.258617
H323	H	-0.413789	-1.073896	-0.269698
H324	H	0.086211	-0.573896	0.230302
C325	C	-0.434578	-1.175426	-0.184290
C326	C	0.065422	-0.675426	0.315710
C327	C	-0.452557	-1.107030	-0.176141
C328	C	0.047443	-0.607030	0.323859
H329	H	-0.433327	-1.194886	-0.139956
H330	H	0.066673	-0.694886	0.360044
H331	H	-0.457620	-1.203688	-0.216075
H332	H	0.042380	-0.703688	0.283925
H333	H	-0.400586	-1.174095	-0.202363
H334	H	0.099414	-0.674095	0.297637
H335	H	-0.486551	-1.108363	-0.158078
H336	H	0.013449	-0.608363	0.341922
H337	H	-0.429521	-1.078768	-0.144352
H338	H	0.070479	-0.578768	0.355648
H339	H	-1.094532	-1.111034	-0.302169
H340	H	-0.594532	-0.611034	0.197831
H341	H	-0.344734	-1.097957	-0.981887
H342	H	0.155266	-0.597957	-0.481887
O343	O	-0.740109	-0.903581	-0.509043
O344	O	-0.240109	-0.403581	-0.009043
C345	C	-0.775928	-0.865398	-0.547221
C346	C	-0.275928	-0.365398	-0.047221
H347	H	-0.813894	-0.861833	-0.518250
H348	H	-0.313894	-0.361833	-0.018250
H349	H	-0.784158	-0.893340	-0.601816
H350	H	-0.284158	-0.393340	-0.101816
C351	C	-0.706022	-0.795139	-0.589890
C352	C	-0.206022	-0.295139	-0.089890
C353	C	-0.752651	-0.790755	-0.554305
C354	C	-0.252651	-0.290755	-0.054305
H355	H	-0.691664	-0.749096	-0.594264
H356	H	-0.191664	-0.249096	-0.094264
H357	H	-0.681890	-0.820865	-0.564172
H358	H	-0.181890	-0.320865	-0.064172
H359	H	-0.712887	-0.818427	-0.635383
H360	H	-0.212887	-0.318427	-0.135383
H361	H	-0.745785	-0.767475	-0.508810
H362	H	-0.245785	-0.267475	-0.008810
H363	H	-0.776782	-0.765023	-0.580016
H364	H	-0.276782	-0.265023	-0.080016
O365	O	-0.740070	-1.161043	-0.252070
O366	O	-0.240070	-0.661043	0.247930
C367	C	-0.775876	-1.199264	-0.213916
C368	C	-0.275876	-0.699264	0.286084
H369	H	-0.815755	-1.202852	-0.242900
H370	H	-0.315755	-0.702852	0.257100
H371	H	-0.779263	-1.171341	-0.159315
H372	H	-0.279263	-0.671341	0.340685
C373	C	-0.707564	-1.269484	-0.171243
C374	C	-0.207564	-0.769484	0.328757
C375	C	-0.756544	-1.273895	-0.206845
C376	C	-0.256544	-0.773895	0.293155
H377	H	-0.695639	-1.315519	-0.166878
H378	H	-0.195639	-0.815519	0.333122
H379	H	-0.683440	-1.243732	-0.196946
H380	H	-0.183440	-0.743732	0.303054
H381	H	-0.710393	-1.246212	-0.125746
H382	H	-0.210393	-0.746212	0.374254
H383	H	-0.753713	-1.297159	-0.252343
H384	H	-0.253713	-0.797159	0.247657
H385	H	-0.780667	-1.299653	-0.181149
H386	H	-0.280667	-0.799653	0.318851
H387	H	-0.843329	-1.154223	-0.258899
H388	H	-0.343329	-0.654223	0.241101
O389	O	-1.098767	-0.947074	-0.465889
O390	O	-0.598767	-0.447074	0.034111
C391	C	-1.062961	-0.908826	-0.504021
C392	C	-0.562961	-0.408826	-0.004021
H393	H	-1.024990	-0.937782	-0.507635
H394	H	-0.524990	-0.437782	-0.007635
H395	H	-1.054739	-0.854262	-0.476005
H396	H	-0.554739	-0.354262	0.023995
C397	C	-1.132887	-0.866073	-0.574197
C398	C	-0.632887	-0.366073	-0.074197
C399	C	-1.086251	-0.901641	-0.578641
C400	C	-0.586251	-0.401641	-0.078641
H401	H	-1.147253	-0.861638	-0.620225
H402	H	-0.647253	-0.361638	-0.120225
H403	H	-1.157010	-0.891839	-0.548505
H404	H	-0.657010	-0.391839	-0.048505
H405	H	-1.126028	-0.820607	-0.550848
H406	H	-0.626028	-0.320607	-0.050848
H407	H	-1.093111	-0.947109	-0.601982
H408	H	-0.593111	-0.447109	-0.101982
H409	H	-1.062129	-0.875882	-0.604338
H410	H	-0.562129	-0.375882	-0.104338
H411	H	-0.239186	-0.961395	-0.646332
H412	H	0.260814	-0.461395	-0.146332
H413	H	-0.218297	-0.934507	-0.975349
H414	H	0.281703	-0.434507	-0.475349
H415	H	-0.222422	-0.939898	-1.108918
H416	H	0.277578	-0.439898	-0.608918
H417	H	-0.369744	-1.130230	-0.786431
H418	H	0.130256	-0.630230	-0.286431
H419	H	-0.239192	-0.298079	-0.309682
H420	H	0.260808	0.201921	0.190318
H421	H	-0.243341	-0.431636	-0.315032
H422	H	0.256659	0.068364	0.184968
