data_functionalizedCrystal
_audit_creation_method	'MofGen! by Chris Wilmer'
_symmetry_space_group_name_H-M	'P1'
_symmetry_Int_Tables_number	1
_symmetry_cell_setting	triclinic
loop_
_symmetry_equiv_pos_as_xyz
  x,y,z
_cell_length_a	27.440280
_cell_length_b	14.809374
_cell_length_c	14.809374
_cell_angle_alpha	61.589507
_cell_angle_beta	98.947344
_cell_angle_gamma	55.123895
loop_
_atom_site_label
_atom_site_type_symbol
_atom_site_fract_x
_atom_site_fract_y
_atom_site_fract_z
Zr1	Zr	0.343966	1.187594	-0.307065
O2	O	0.231881	1.413982	-0.488681
O3	O	0.393586	0.961219	-0.226663
O4	O	0.355563	1.187592	-0.453026
O5	O	0.282539	1.187607	-0.111887
O6	O	0.435766	1.187574	-0.453029
O7	O	0.269904	1.187610	-0.262318
O8	O	0.503783	0.782635	-0.048107
O9	O	0.214521	1.592546	-0.516809
O10	O	0.456166	1.054312	-0.222249
O11	O	0.405741	1.054323	-0.109982
O12	O	0.360973	1.320848	-0.376495
O13	O	0.310547	1.320859	-0.264228
Zr14	Zr	0.492031	1.187562	-0.067149
Zr15	Zr	0.471881	1.187566	-0.307070
Zr16	Zr	0.364116	1.187590	-0.067145
Zr17	Zr	0.316280	1.472383	-0.351926
Zr18	Zr	0.519717	0.902773	-0.022289
O19	O	0.442410	1.413937	-0.147551
O20	O	0.413759	1.413943	-0.488687
O21	O	0.260532	1.413976	-0.147545
O22	O	0.604116	0.961173	0.114466
O23	O	0.575465	0.961180	-0.226669
O24	O	0.422238	0.961213	0.114472
O25	O	0.553458	1.187549	-0.262328
O26	O	0.480434	1.187564	0.078811
O27	O	0.400231	1.187582	0.078814
O28	O	0.566092	1.187546	-0.111897
O29	O	0.316197	1.592524	-0.516812
O30	O	0.519800	0.782632	0.142598
O31	O	0.621475	0.782610	0.142594
O32	O	0.605458	0.782613	-0.048110
O33	O	0.230538	1.592543	-0.326104
O34	O	0.332214	1.592521	-0.326108
O35	O	0.475024	1.054308	0.002281
O36	O	0.525450	1.054297	-0.109986
O37	O	0.430256	1.320833	-0.264232
O38	O	0.379830	1.320844	-0.151965
C39	C	0.452629	0.831351	-0.130993
C40	C	0.464383	0.710451	-0.111949
C41	C	0.411929	0.750048	-0.196942
C42	C	0.424075	0.625094	-0.177261
C43	C	0.257996	1.187613	-0.187102
C44	C	0.203693	1.187624	-0.187100
C45	C	-0.139958	1.187545	-0.269977
C46	C	-0.190975	1.187534	-0.269976
O47	O	-0.223262	1.187478	-0.340425
N48	N	-0.209533	1.187536	-0.187104
C49	C	-0.177065	1.187532	-0.104219
O50	O	-0.197534	1.187531	-0.033729
C51	C	-0.126046	1.187532	-0.104215
C52	C	-0.107496	1.187547	-0.187101
C53	C	-0.121408	1.187558	-0.352856
C54	C	-0.070396	1.187572	-0.352858
C55	C	-0.037934	1.187573	-0.269982
C56	C	-0.056484	1.187560	-0.187104
C57	C	-0.093575	1.187518	-0.021324
C58	C	-0.042552	1.187517	-0.021326
C59	C	-0.024003	1.187531	-0.104213
C60	C	0.026990	1.187575	-0.104230
N61	N	0.045548	1.187574	-0.187102
C62	C	0.013086	1.187573	-0.269978
C63	C	-0.284210	1.187530	-0.104233
C64	C	-0.335233	1.187541	-0.104242
C65	C	-0.349138	1.187540	-0.269998
C66	C	-0.298118	1.187540	-0.269994
C67	C	-0.265652	1.187528	-0.187105
C68	C	0.120216	1.187603	-0.269977
C69	C	0.171231	1.187623	-0.269976
C70	C	0.185135	1.187616	-0.104216
C71	C	0.134121	1.187604	-0.104222
C72	C	0.101664	1.187592	-0.187107
O73	O	0.059309	1.187625	-0.033814
O74	O	0.033570	1.187554	-0.340444
C75	C	0.578000	1.187543	-0.187113
C76	C	0.632304	1.187531	-0.187115
C77	C	0.392793	1.187583	-0.487211
C78	C	0.384239	1.187585	-0.589063
C79	C	0.383367	1.543805	-0.243221
C80	C	0.371614	1.664705	-0.262266
C81	C	0.422416	1.187577	-0.634474
C82	C	0.413576	1.187579	-0.739743
C83	C	0.443203	1.187573	0.112996
C84	C	0.451758	1.187571	0.214849
C85	C	0.612631	0.831316	-0.130999
C86	C	0.678688	0.710404	-0.111956
C87	C	0.477835	0.831345	0.169110
C88	C	0.498142	0.710443	0.290007
C89	C	0.637837	0.831311	0.169105
C90	C	0.712448	0.710397	0.290000
C91	C	0.198160	1.543845	-0.543319
C92	C	0.123549	1.664759	-0.664214
C93	C	0.223365	1.543840	-0.243216
C94	C	0.157309	1.664752	-0.262259
C95	C	0.358162	1.543810	-0.543325
C96	C	0.337854	1.664713	-0.664222
C97	C	0.673543	0.653631	-0.161624
C98	C	0.735602	0.540037	-0.143756
C99	C	0.802807	0.483211	-0.076212
C100	C	0.807950	0.539996	-0.026545
C101	C	0.745890	0.653595	-0.044421
C102	C	0.543845	0.653659	0.405392
C103	C	0.562924	0.540074	0.518994
C104	C	0.536302	0.483269	0.517210
C105	C	0.490594	0.540065	0.401812
C106	C	0.471512	0.653655	0.288212
C107	C	0.773813	0.653609	0.288171
C108	C	0.843920	0.540013	0.401753
C109	C	0.852662	0.483200	0.517164
C110	C	0.791289	0.539999	0.518989
C111	C	0.721183	0.653601	0.405407
C112	C	0.062183	1.721561	-0.662388
C113	C	-0.007928	1.835192	-0.775976
C114	C	-0.016670	1.892011	-0.891387
C115	C	0.044703	1.835204	-0.893211
C116	C	0.114811	1.721583	-0.779626
C117	C	0.162452	1.721537	-0.212603
C118	C	0.100388	1.835163	-0.230502
C119	C	0.033182	1.891992	-0.298049
C120	C	0.028040	1.835202	-0.347712
C121	C	0.090102	1.721587	-0.329820
C122	C	0.364488	1.721482	-0.662396
C123	C	0.345421	1.835067	-0.775980
C124	C	0.299715	1.891889	-0.891390
C125	C	0.273082	1.835108	-0.893211
C126	C	0.292154	1.721517	-0.779627
H127	H	0.518284	0.584043	-0.024614
Br128	Br	0.487811	1.187544	-0.569378
Br129	Br	0.348191	1.187575	-0.804817
H130	H	0.367112	1.881286	-0.774473
Br131	Br	0.281772	0.875392	-0.407857
H132	H	0.468922	0.493797	0.400379
H133	H	0.551846	0.390777	0.609720
Br134	Br	0.513924	0.414405	-0.031689
H135	H	-0.073761	1.984528	-0.983866
H136	H	0.490993	1.187554	-0.746094
H137	H	0.093795	1.187591	-0.337468
Br138	Br	0.761969	0.730696	0.131557
Br139	Br	0.318857	1.187581	-0.654140
Br140	Br	0.074027	1.644470	-0.505773
H141	H	-0.055294	1.187577	-0.420348
Br142	Br	0.947813	0.329025	0.671302
Br143	Br	0.196399	1.187652	-0.382477
H144	H	-0.350340	1.187553	-0.036763
H145	H	0.618825	0.699897	-0.216638
Br146	Br	0.032826	1.912329	-1.049852
Br147	Br	-0.165455	1.187553	-0.465344
Br148	Br	0.198091	1.644501	-0.782126
H149	H	-0.057892	1.881425	-0.774466
Br150	Br	0.001510	1.187492	0.091179
H151	H	0.358030	0.876456	-0.284282
Br152	Br	-0.272950	1.187559	-0.382486
Br153	Br	0.083110	1.644527	-0.397213
H154	H	-0.375577	1.187536	-0.337479
H155	H	0.731401	0.493816	-0.184204
Br156	Br	0.253651	1.644441	-0.120930
H157	H	0.893885	0.493779	0.400246
H158	H	0.798418	0.493725	0.612971
H159	H	0.671221	0.699823	0.406914
H160	H	0.853334	0.390709	-0.061665
Br161	Br	0.107384	1.912207	-0.163090
Br162	Br	0.899163	0.462854	0.065123
H163	H	-0.257782	1.187533	-0.036738
H164	H	-0.017347	1.984505	-0.312609
H165	H	-0.108670	1.187505	0.046170
Br166	Br	0.426519	1.644393	-0.505785
Br167	Br	0.108938	1.187615	0.008253
Br168	Br	0.752887	0.730624	0.023003
Br169	Br	0.579988	0.730719	0.407849
H170	H	0.235866	1.881390	-0.987193
Br171	Br	0.229196	1.187624	0.008252
H172	H	0.600144	0.493844	0.612944
Br173	Br	0.409487	0.730700	0.131625
Br174	Br	-0.063173	1.912341	-0.439377
H175	H	0.284191	1.984382	-0.983868
Br176	Br	0.255994	1.644499	-0.782129
