data_functionalizedCrystal
_audit_creation_method	'MofGen! by Chris Wilmer'
_symmetry_space_group_name_H-M	'P1'
_symmetry_Int_Tables_number	1
_symmetry_cell_setting	triclinic
loop_
_symmetry_equiv_pos_as_xyz
  x,y,z
_cell_length_a	17.077402
_cell_length_b	12.759401
_cell_length_c	12.759386
_cell_angle_alpha	90.041215
_cell_angle_beta	89.934127
_cell_angle_gamma	89.978594
loop_
_atom_site_label
_atom_site_type_symbol
_atom_site_fract_x
_atom_site_fract_y
_atom_site_fract_z
Zn1	Zn	-0.312255	-1.606418	-0.593991
Zn2	Zn	-0.443617	-1.606218	-0.418305
Zn3	Zn	-0.312365	-1.430653	-0.418328
Zn4	Zn	-0.443478	-1.430682	-0.593944
O5	O	-0.377929	-1.518493	-0.506142
O6	O	-0.329693	-1.753413	-0.570696
O7	O	-0.426311	-1.582834	-0.271287
O8	O	-0.202503	-1.454040	-0.441659
O9	O	-0.426204	-1.753266	-0.441620
O10	O	-0.202422	-1.583174	-0.570718
O11	O	-0.329880	-1.453847	-0.271303
O12	O	-0.329745	-1.283636	-0.441613
O13	O	-0.425966	-1.454089	-0.740972
O14	O	-0.426073	-1.283657	-0.570638
O15	O	-0.329557	-1.583202	-0.741006
O16	O	-0.553446	-1.582862	-0.441575
O17	O	-0.553343	-1.453896	-0.570616
C18	C	-0.377906	-1.245526	-0.506124
C19	C	-0.377916	-1.128749	-0.506141
C20	C	-0.428152	-1.073925	-0.573212
C21	C	-0.428159	-0.964201	-0.573222
C22	C	-0.327690	-0.964134	-0.439080
C23	C	-0.327680	-1.073856	-0.439077
C24	C	-0.478388	-1.128818	-0.640276
C25	C	-0.528630	-1.073995	-0.707352
C26	C	-0.528636	-0.964271	-0.707362
C27	C	-0.478401	-0.909370	-0.640296
C28	C	-0.581877	-1.518389	-0.506111
C29	C	-0.669126	-1.518440	-0.506133
C30	C	-0.710007	-1.585644	-0.573388
C31	C	-0.791987	-1.585688	-0.573410
C32	C	-0.833086	-1.518533	-0.506171
C33	C	-0.792200	-1.451322	-0.438913
C34	C	-0.710221	-1.451273	-0.438897
C35	C	-0.963070	-1.451430	-0.438950
C36	C	-1.045054	-1.451480	-0.438964
C37	C	-1.044836	-1.585844	-0.573463
C38	C	-0.962857	-1.585796	-0.573447
C39	C	-0.921977	-1.518586	-0.506187
C40	C	-0.173184	-1.518626	-0.506196
C41	C	-0.085935	-1.518683	-0.506219
C42	C	-0.377734	-1.518671	-0.780176
C43	C	-0.377651	-1.518747	-0.896953
C44	C	-0.377944	-0.792526	-0.506157
C45	C	-0.377932	-0.909303	-0.506154
C46	C	-0.378066	-1.518376	-0.233174
C47	C	-0.377928	-1.518503	-0.116398
C48	C	-0.427696	-1.586210	-0.061475
C49	C	-0.427560	-1.586330	0.048249
C50	C	-0.327881	-1.451033	0.048116
C51	C	-0.328022	-1.450909	-0.061605
C52	C	-0.477603	-1.653804	-0.116268
C53	C	-0.527374	-1.721517	-0.061344
C54	C	-0.527238	-1.721637	0.048379
C55	C	-0.477330	-1.654044	0.103180
H56	H	-0.569524	-1.118702	-0.761961
Br57	Br	-0.477160	-1.654190	0.252092
Br58	Br	-0.259498	-1.148267	-0.348053
H59	H	-0.568011	-1.776544	-0.105970
Br60	Br	-0.260146	-1.359316	0.122488
Br61	Br	-0.907589	-1.360216	-0.347667
H62	H	-0.825269	-1.640420	-0.628168
H63	H	-0.825668	-1.396639	-0.384170
H64	H	-0.569540	-0.919636	-0.761986
H65	H	-0.567769	-1.776766	0.093095
Br66	Br	-0.478403	-0.760457	-0.640323
Br67	Br	-0.260462	-1.359042	-0.136151
H68	H	-0.286792	-0.919425	-0.384478
Br69	Br	-0.907081	-1.676943	-0.664692
Br70	Br	-0.478387	-1.277729	-0.640260
H71	H	-0.676936	-1.396548	-0.384132
Br72	Br	-0.654238	-1.676796	-0.664637
H73	H	-1.078125	-1.640568	-0.628229
H74	H	-1.078514	-1.396792	-0.384217
H75	H	-0.477718	-1.653716	-0.205610
