data_functionalizedCrystal
_audit_creation_method	'MofGen! by Chris Wilmer'
_symmetry_space_group_name_H-M	'P1'
_symmetry_Int_Tables_number	1
_symmetry_cell_setting	triclinic
loop_
_symmetry_equiv_pos_as_xyz
  x,y,z
_cell_length_a	16.109301
_cell_length_b	16.992695
_cell_length_c	15.186229
_cell_angle_alpha	89.995943
_cell_angle_beta	89.999362
_cell_angle_gamma	87.064852
loop_
_atom_site_label
_atom_site_type_symbol
_atom_site_fract_x
_atom_site_fract_y
_atom_site_fract_z
O1	O	1.109856	0.100784	-0.073174
O2	O	0.868631	0.113326	-0.073188
O3	O	0.988276	-0.007088	-0.073174
O4	O	0.990210	0.221197	-0.073188
O5	O	0.988268	-0.007089	0.073284
O6	O	0.868622	0.113324	0.073270
O7	O	1.109847	0.100782	0.073284
Zn8	Zn	0.989233	0.107053	0.096530
Zn9	Zn	0.989245	0.107055	-0.096434
O10	O	0.990202	0.221196	0.073270
C11	C	0.837618	0.112817	0.000039
C12	C	0.745221	0.111294	0.000034
C13	C	0.527480	0.179203	0.000040
C14	C	0.440664	0.177766	0.000046
C15	C	0.451005	0.034899	0.000051
C16	C	0.537819	0.036337	0.000051
C17	C	0.576055	0.108492	0.000042
C18	C	0.402424	0.105616	0.000047
C19	C	0.308294	0.104057	0.000053
C20	C	0.670191	0.110051	0.000037
C21	C	0.985784	-0.036300	0.000055
C22	C	0.978361	-0.123343	0.000054
C23	C	1.049987	-0.173601	0.000059
C24	C	1.043007	-0.255386	0.000050
C25	C	0.964400	-0.286911	0.000043
C26	C	0.892768	-0.236645	0.000035
C27	C	0.899749	-0.154862	0.000038
C28	C	0.935467	-0.530501	0.000029
C29	C	0.928491	-0.612291	0.000029
C30	C	1.078731	-0.631026	0.000043
C31	C	1.085704	-0.549240	0.000051
C32	C	1.014073	-0.498982	0.000038
N33	N	0.957263	-0.370508	0.000037
N34	N	1.021210	-0.415387	0.000038
C35	C	1.140860	0.101291	0.000055
C36	C	1.233257	0.102814	0.000054
C37	C	0.992694	0.250408	0.000039
C38	C	1.000118	0.337451	0.000034
N39	N	0.989232	0.107051	0.228223
N40	N	0.989253	0.107051	-0.228127
C41	C	1.042231	0.053750	0.453952
C42	C	1.042234	0.053748	0.546141
C43	C	0.936247	0.160355	0.546138
C44	C	0.936241	0.160352	0.453950
C45	C	0.989238	0.107051	0.407859
C46	C	0.989246	0.107051	0.592237
C47	C	0.989249	0.107050	0.692193
C48	C	0.989235	0.107051	0.307897
H49	H	0.401118	0.235347	0.000046
O50	O	0.564756	0.249222	-0.000003
C51	C	0.651798	0.235333	0.000017
H52	H	0.668100	0.174141	-0.027709
H53	H	0.676190	0.239124	0.070280
C54	C	0.671884	0.372856	-0.023366
C55	C	0.691907	0.297701	-0.057427
H56	H	0.696627	0.411329	-0.058797
H57	H	0.613243	0.382215	-0.023377
H58	H	0.692212	0.376004	0.035185
H59	H	0.671570	0.294551	-0.115973
H60	H	0.750546	0.288343	-0.057428
O61	O	0.865802	-0.481799	0.000068
C62	C	0.794929	-0.527165	0.000045
H63	H	0.811980	-0.588211	0.027770
H64	H	0.771089	-0.532976	-0.070217
C65	C	0.705739	-0.411426	0.023432
C66	C	0.726679	-0.486402	0.057491
H67	H	0.663637	-0.386281	0.058863
H68	H	0.753487	-0.380861	0.023444
H69	H	0.685877	-0.416279	-0.035120
H70	H	0.746550	-0.481547	0.116037
H71	H	0.678932	-0.516965	0.057490
O72	O	0.413955	-0.035236	-0.000067
C73	C	0.438301	-0.078326	-0.075929
H74	H	0.499866	-0.056970	-0.101214
H75	H	0.388727	-0.069227	-0.129046
C76	C	0.373083	-0.192765	-0.021836
C77	C	0.448702	-0.166539	-0.052886
H78	H	0.379496	-0.247180	-0.007624
H79	H	0.356678	-0.163734	0.029273
H80	H	0.331779	-0.185176	-0.066105
H81	H	0.490002	-0.174119	-0.008614
H82	H	0.465115	-0.195574	-0.103987
O83	O	0.585098	-0.032305	-0.000067
C84	C	0.635611	-0.035751	-0.075928
H85	H	0.644125	0.026486	-0.101218
H86	H	0.604708	-0.071555	-0.129042
C87	C	0.710577	-0.151661	-0.021824
C88	C	0.721040	-0.075220	-0.052880
H89	H	0.763272	-0.176011	-0.007609
H90	H	0.676543	-0.149342	0.029284
H91	H	0.684822	-0.181488	-0.066090
H92	H	0.746785	-0.045392	-0.008610
H93	H	0.755080	-0.077536	-0.103981
H94	H	0.893100	0.203753	0.583674
H95	H	1.113997	-0.147941	0.000071
O96	O	1.112669	-0.304095	0.000101
C97	C	1.183545	-0.258734	0.000093
H98	H	1.166493	-0.197692	0.027820
H99	H	1.207397	-0.252911	-0.070165
C100	C	1.272725	-0.374481	0.023486
C101	C	1.251783	-0.299510	0.057547
H102	H	1.314820	-0.399635	0.058922
H103	H	1.224975	-0.405043	0.023488
H104	H	1.292597	-0.369618	-0.035062
H105	H	1.231903	-0.304374	0.116089
H106	H	1.299532	-0.268950	0.057557
H107	H	0.893084	0.203756	0.416419
H108	H	1.149714	-0.523580	0.000057
H109	H	1.137048	-0.671954	0.000051
H110	H	1.085384	0.010345	0.583667
H111	H	0.864477	-0.637954	0.000037
O112	O	1.093613	0.001846	0.409237
C113	C	1.074933	-0.075762	0.431821
H114	H	1.008341	-0.076138	0.457155
H115	H	1.119472	-0.098769	0.485351
C116	C	1.166110	-0.128488	0.318842
C117	C	1.084317	-0.128951	0.349951
H118	H	1.171901	-0.161299	0.268343
H119	H	1.178698	-0.076202	0.303629
H120	H	1.203216	-0.147659	0.363458
H121	H	1.047213	-0.109771	0.305340
H122	H	1.071723	-0.181235	0.365155
H123	H	0.828765	-0.262319	0.000023
H124	H	0.841423	-0.113942	0.000033
