data_functionalizedCrystal
_audit_creation_method	'MofGen! by Chris Wilmer'
_symmetry_space_group_name_H-M	'P1'
_symmetry_Int_Tables_number	1
_symmetry_cell_setting	triclinic
loop_
_symmetry_equiv_pos_as_xyz
  x,y,z
_cell_length_a	10.868271
_cell_length_b	11.792241
_cell_length_c	11.792254
_cell_angle_alpha	84.196007
_cell_angle_beta	89.995741
_cell_angle_gamma	89.994719
loop_
_atom_site_label
_atom_site_type_symbol
_atom_site_fract_x
_atom_site_fract_y
_atom_site_fract_z
O1	O	-0.102322	0.155637	1.506900
O2	O	0.231012	0.488970	1.840233
O3	O	0.564345	0.822304	2.173566
O4	O	-0.102324	0.171655	1.176561
O5	O	0.231009	0.504988	1.509894
O6	O	0.564342	0.838322	1.843227
O7	O	-0.102314	-0.001524	1.349747
O8	O	0.231019	0.331809	1.683080
O9	O	0.564352	0.665142	2.016413
O10	O	-0.102332	0.328816	1.333714
O11	O	0.231002	0.662149	1.667047
O12	O	0.564335	0.995483	2.000380
O13	O	0.102330	-0.001531	1.349732
O14	O	0.435664	0.331802	1.683066
O15	O	0.768997	0.665136	2.016399
O16	O	0.102320	0.171648	1.176546
O17	O	0.435653	0.504981	1.509880
O18	O	0.768987	0.838315	1.843213
O19	O	0.102323	0.155630	1.506885
O20	O	0.435656	0.488963	1.840219
O21	O	0.768990	0.822297	2.173552
Zn22	Zn	0.134813	0.163638	1.341714
Zn23	Zn	0.468147	0.496971	1.675047
Zn24	Zn	0.801480	0.830305	2.008380
Zn25	Zn	-0.134815	0.163647	1.341733
Zn26	Zn	0.198518	0.496980	1.675066
Zn27	Zn	0.531852	0.830314	2.008399
O28	O	0.102313	0.328809	1.333699
O29	O	0.435646	0.662143	1.667033
O30	O	0.768980	0.995476	2.000366
C31	C	-0.000002	0.170642	1.134263
C32	C	0.333331	0.503976	1.467596
C33	C	0.666664	0.837309	1.800929
C34	C	-0.000003	0.167622	1.008250
C35	C	0.333330	0.500956	1.341583
C36	C	0.666663	0.834289	1.674916
N37	N	0.318827	0.163631	1.341709
N38	N	0.652161	0.496965	1.675042
N39	N	0.985494	0.830298	2.008376
N40	N	-0.318829	0.163645	1.341746
N41	N	0.014504	0.496978	1.675079
N42	N	0.347838	0.830312	2.008413
C43	C	0.000008	-0.043819	1.348732
C44	C	0.333341	0.289515	1.682066
C45	C	0.666674	0.622848	2.015399
C46	C	0.000006	-0.169832	1.345718
C47	C	0.333340	0.163501	1.679051
C48	C	0.666673	0.496834	2.012385
C49	C	0.569833	0.163645	1.341727
C50	C	0.903167	0.496978	1.675060
C51	C	1.236500	0.830311	2.008393
C52	C	0.430156	0.163640	1.341713
C53	C	0.763489	0.496974	1.675046
C54	C	1.096823	0.830307	2.008380
C55	C	-0.000014	-0.400545	1.340175
C56	C	0.333319	-0.067212	1.673508
C57	C	0.666652	0.266122	2.006842
C58	C	-0.000003	-0.272160	1.343255
C59	C	0.333330	0.061174	1.676588
C60	C	0.666664	0.394507	2.009921
C61	C	-0.000012	0.371104	1.334714
C62	C	0.333322	0.704437	1.668047
C63	C	0.666655	1.037770	2.001380
C64	C	-0.000019	0.497118	1.337728
C65	C	0.333315	0.830451	1.671061
C66	C	0.666648	1.163784	2.004395
C67	C	-0.000008	0.165168	0.905913
C68	C	0.333325	0.498502	1.239247
C69	C	0.666658	0.831835	1.572580
C70	C	-0.000009	0.162100	0.777527
C71	C	0.333324	0.495433	1.110860
C72	C	0.666658	0.828767	1.444193
C73	C	-0.000002	0.156643	1.549183
C74	C	0.333331	0.489976	1.882517
C75	C	0.666665	0.823309	2.215850
C76	C	-0.000009	0.159663	1.675196
C77	C	0.333324	0.492996	2.008530
C78	C	0.666658	0.826329	2.341863
