data_functionalizedCrystal
_audit_creation_method	'MofGen! by Chris Wilmer'
_symmetry_space_group_name_H-M	'P1'
_symmetry_Int_Tables_number	1
_symmetry_cell_setting	triclinic
loop_
_symmetry_equiv_pos_as_xyz
  x,y,z
_cell_length_a	18.050591
_cell_length_b	25.639239
_cell_length_c	18.050582
_cell_angle_alpha	89.975362
_cell_angle_beta	89.979078
_cell_angle_gamma	90.034692
loop_
_atom_site_label
_atom_site_type_symbol
_atom_site_fract_x
_atom_site_fract_y
_atom_site_fract_z
Zn1	Zn	1.135238	-0.208240	-0.420021
Zn2	Zn	1.468572	0.125094	-0.086687
Zn3	Zn	1.801905	0.458427	0.246646
Zn4	Zn	1.135126	-0.295667	-0.295826
Zn5	Zn	1.468460	0.037666	0.037507
Zn6	Zn	1.801793	0.370999	0.370840
Zn7	Zn	1.011058	-0.208242	-0.295832
Zn8	Zn	1.344391	0.125092	0.037502
Zn9	Zn	1.677724	0.458425	0.370835
Zn10	Zn	1.010983	-0.295640	-0.419962
Zn11	Zn	1.344316	0.037693	-0.086628
Zn12	Zn	1.677650	0.371027	0.246705
O13	O	1.073101	-0.251947	-0.357910
O14	O	1.406435	0.081386	-0.024577
O15	O	1.739768	0.414719	0.308757
O16	O	1.239148	-0.219848	-0.403568
O17	O	1.572482	0.113485	-0.070235
O18	O	1.905815	0.446819	0.263098
O19	O	1.118653	-0.284083	-0.191902
O20	O	1.451986	0.049251	0.141431
O21	O	1.785320	0.382584	0.474764
O22	O	1.027609	-0.135076	-0.312333
O23	O	1.360942	0.198257	0.021001
O24	O	1.694275	0.531590	0.354334
O25	O	1.239066	-0.284081	-0.312323
O26	O	1.572399	0.049253	0.021010
O27	O	1.905733	0.382586	0.354343
O28	O	1.118844	-0.135075	-0.403574
O29	O	1.452177	0.198259	-0.070241
O30	O	1.785510	0.531592	0.263093
O31	O	1.027500	-0.219851	-0.191906
O32	O	1.360833	0.113482	0.141427
O33	O	1.694167	0.446815	0.474760
O34	O	0.907123	-0.219825	-0.312276
O35	O	1.240457	0.113509	0.021058
O36	O	1.573790	0.446842	0.354391
O37	O	1.027481	-0.284034	-0.523894
O38	O	1.360815	0.049300	-0.190561
O39	O	1.694148	0.382633	0.142772
O40	O	0.907068	-0.284036	-0.403473
O41	O	1.240402	0.049298	-0.070140
O42	O	1.573735	0.382631	0.263193
O43	O	1.118771	-0.219821	-0.523938
O44	O	1.452105	0.113512	-0.190604
O45	O	1.785438	0.446846	0.142729
O46	O	1.118580	-0.368829	-0.312266
O47	O	1.451914	-0.035496	0.021067
O48	O	1.785247	0.297838	0.354401
O49	O	1.027373	-0.368809	-0.403468
O50	O	1.360706	-0.035475	-0.070135
O51	O	1.694039	0.297858	0.263199
C52	C	0.880149	-0.251928	-0.357869
C53	C	1.213483	0.081406	-0.024536
C54	C	1.546816	0.414739	0.308798
C55	C	0.797604	-0.251932	-0.357869
C56	C	1.130937	0.081401	-0.024536
C57	C	1.464270	0.414735	0.308798
C58	C	0.598161	-0.216974	-0.308390
C59	C	0.931495	0.116360	0.024943
C60	C	1.264828	0.449693	0.358277
C61	C	0.548729	-0.264661	-0.290112
C62	C	0.882062	0.068672	0.043222
C63	C	1.215396	0.402006	0.376555
C64	C	0.646473	-0.251948	-0.357903
C65	C	0.979806	0.081385	-0.024569
C66	C	1.313140	0.414719	0.308764
C67	C	0.548824	-0.204277	-0.376179
C68	C	0.882157	0.129056	-0.042846
C69	C	1.215490	0.462390	0.290487
C70	C	0.500488	-0.251959	-0.357934
C71	C	0.833821	0.081374	-0.024600
C72	C	1.167155	0.414708	0.308733
C73	C	0.598128	-0.299660	-0.339589
C74	C	0.931462	0.033673	-0.006255
C75	C	1.264795	0.367006	0.327078
C76	C	0.598227	-0.239244	-0.425688
C77	C	0.931560	0.094089	-0.092355
C78	C	1.264894	0.427423	0.240979
C79	C	0.548817	-0.286965	-0.407435
C80	C	0.882151	0.046369	-0.074102
C81	C	1.215484	0.379702	0.259231
C82	C	0.730571	-0.251941	-0.357883
C83	C	1.063905	0.081393	-0.024550
C84	C	1.397238	0.414726	0.308784
C85	C	0.416392	-0.251971	-0.357954
C86	C	0.749725	0.081362	-0.024620
C87	C	1.083058	0.414695	0.308713
C88	C	1.072977	-0.387790	-0.357876
C89	C	1.406310	-0.054456	-0.024543
C90	C	1.739643	0.278877	0.308791
C91	C	1.072991	-0.445904	-0.357886
C92	C	1.406324	-0.112570	-0.024553
C93	C	1.739658	0.220763	0.308780
C94	C	1.120717	-0.806265	-0.310502
C95	C	1.454051	-0.472932	0.022831
C96	C	1.787384	-0.139598	0.356164
C97	C	1.120746	-0.860869	-0.310512
C98	C	1.454079	-0.527536	0.022821
C99	C	1.787413	-0.194202	0.356154
O100	O	1.161195	-0.889104	-0.270187
O101	O	1.494528	-0.555771	0.063146
O102	O	1.827862	-0.222438	0.396479
N103	N	1.073232	-0.888186	-0.357959
N104	N	1.406565	-0.554853	-0.024626
N105	N	1.739899	-0.221520	0.308707
C106	C	1.025691	-0.860896	-0.405405
C107	C	1.359025	-0.527563	-0.072072
C108	C	1.692358	-0.194230	0.261262
O109	O	0.985280	-0.889145	-0.445764
O110	O	1.318613	-0.555812	-0.112431
O111	O	1.651947	-0.222479	0.220903
C112	C	1.025667	-0.806293	-0.405398
C113	C	1.359000	-0.472960	-0.072065
C114	C	1.692334	-0.139626	0.261268
C115	C	1.073179	-0.778979	-0.357943
C116	C	1.406512	-0.445645	-0.024609
C117	C	1.739845	-0.112312	0.308724
C118	C	1.168226	-0.778951	-0.263051
C119	C	1.501559	-0.445617	0.070282
C120	C	1.834892	-0.112284	0.403615
C121	C	1.168196	-0.724350	-0.263040
C122	C	1.501529	-0.391017	0.070293
C123	C	1.834862	-0.057683	0.403626
C124	C	1.120657	-0.697064	-0.310481
C125	C	1.453991	-0.363730	0.022853
C126	C	1.787324	-0.030397	0.356186
C127	C	1.073149	-0.724378	-0.357932
C128	C	1.406482	-0.391045	-0.024599
C129	C	1.739815	-0.057711	0.308735
C130	C	0.978131	-0.779004	-0.452847
C131	C	1.311464	-0.445670	-0.119514
C132	C	1.644797	-0.112337	0.213820
C133	C	0.978111	-0.724397	-0.452837
C134	C	1.311444	-0.391063	-0.119503
C135	C	1.644777	-0.057730	0.213830
C136	C	1.025622	-0.697083	-0.405381
C137	C	1.358956	-0.363749	-0.072048
C138	C	1.692289	-0.030416	0.261286
C139	C	1.025580	-0.642491	-0.405362
C140	C	1.358914	-0.309158	-0.072028
C141	C	1.692247	0.024175	0.261305
N142	N	1.073094	-0.615174	-0.357914
N143	N	1.406428	-0.281841	-0.024581
N144	N	1.739761	0.051492	0.308752
C145	C	1.120633	-0.642460	-0.310474
C146	C	1.453966	-0.309127	0.022859
C147	C	1.787299	0.024206	0.356193
C148	C	1.025747	-0.975567	-0.405416
C149	C	1.359081	-0.642233	-0.072083
C150	C	1.692414	-0.308900	0.261250
C151	C	1.025768	-1.030169	-0.405420
C152	C	1.359101	-0.696836	-0.072087
C153	C	1.692434	-0.363502	0.261247
C154	C	1.120823	-1.030138	-0.310528
C155	C	1.454157	-0.696805	0.022805
C156	C	1.787490	-0.363472	0.356139
C157	C	1.120799	-0.975535	-0.310521
C158	C	1.454132	-0.642202	0.022812
C159	C	1.787465	-0.308868	0.356145
C160	C	1.073261	-0.948250	-0.357969
C161	C	1.406595	-0.614916	-0.024636
C162	C	1.739928	-0.281583	0.308697
C163	C	1.120566	-0.527795	-0.310455
C164	C	1.453899	-0.194462	0.022879
C165	C	1.787233	0.138871	0.356212
C166	C	1.120530	-0.473190	-0.310446
C167	C	1.453863	-0.139857	0.022887
C168	C	1.787196	0.193477	0.356221
C169	C	1.025477	-0.473226	-0.405340
C170	C	1.358810	-0.139892	-0.072007
C171	C	1.692144	0.193441	0.261326
C172	C	1.025510	-0.527826	-0.405347
C173	C	1.358843	-0.194493	-0.072013
C174	C	1.692177	0.138840	0.261320
C175	C	1.073061	-0.555110	-0.357901
C176	C	1.406394	-0.221776	-0.024568
C177	C	1.739727	0.111557	0.308765
O178	O	0.985154	-0.614222	-0.445668
O179	O	1.318488	-0.280888	-0.112335
O180	O	1.651821	0.052445	0.220999
O181	O	1.161044	-0.614205	-0.270129
O182	O	1.494377	-0.280871	0.063204
O183	O	1.827711	0.052462	0.396538
C184	C	1.266807	-0.251967	-0.357952
C185	C	1.600140	0.081366	-0.024618
C186	C	1.933474	0.414700	0.308715
C187	C	1.349353	-0.251976	-0.357970
C188	C	1.682686	0.081358	-0.024636
C189	C	2.016019	0.414691	0.308697
C190	C	1.073131	-0.251924	-0.551616
C191	C	1.406464	0.081409	-0.218282
C192	C	1.739797	0.414743	0.115051
C193	C	1.073143	-0.251914	-0.634162
C194	C	1.406476	0.081419	-0.300828
C195	C	1.739810	0.414753	0.032505
C196	C	1.073247	-0.115574	-0.357961
C197	C	1.406580	0.217759	-0.024627
C198	C	1.739914	0.551093	0.308706
C199	C	1.073309	-0.057460	-0.357982
C200	C	1.406642	0.275873	-0.024649
C201	C	1.739976	0.609207	0.308685
C202	C	1.023537	-0.286785	-0.833589
C203	C	1.356871	0.046548	-0.500256
C204	C	1.690204	0.379881	-0.166922
C205	C	1.091289	-0.299569	-0.882987
C206	C	1.424623	0.033764	-0.549653
C207	C	1.757956	0.367098	-0.216320
C208	C	1.073180	-0.251874	-0.785292
C209	C	1.406513	0.081459	-0.451959
C210	C	1.739846	0.414792	-0.118625
C211	C	1.005465	-0.239076	-0.882976
C212	C	1.338798	0.094257	-0.549643
C213	C	1.672132	0.427591	-0.216309
C214	C	1.073209	-0.251837	-0.931277
C215	C	1.406542	0.081497	-0.597944
C216	C	1.739876	0.414830	-0.264611
C217	C	1.140967	-0.264683	-0.833603
C218	C	1.474300	0.068650	-0.500269
C219	C	1.807634	0.401984	-0.166936
C220	C	1.055097	-0.204168	-0.833588
C221	C	1.388430	0.129166	-0.500254
C222	C	1.721764	0.462499	-0.166921
C223	C	1.122896	-0.216933	-0.882963
C224	C	1.456229	0.116400	-0.549630
C225	C	1.789562	0.449733	-0.216297
C226	C	1.073162	-0.251897	-0.701194
C227	C	1.406495	0.081436	-0.367860
C228	C	1.739828	0.414769	-0.034527
C229	C	1.073235	-0.251814	-1.015374
C230	C	1.406568	0.081520	-0.682041
C231	C	1.739901	0.414853	-0.348707
C232	C	1.073115	-0.251933	-0.164958
C233	C	1.406449	0.081401	0.168375
C234	C	1.739782	0.414734	0.501709
C235	C	1.073247	-0.251795	-0.082413
C236	C	1.406580	0.081538	0.250921
C237	C	1.739913	0.414871	0.584254
H238	H	1.159219	-0.450952	-0.271799
H239	H	1.492553	-0.117619	0.061534
H240	H	1.825886	0.215714	0.394867
C241	C	0.519567	-0.149807	-0.397049
C242	C	0.852900	0.183526	-0.063716
C243	C	1.186233	0.516860	0.269618
N244	N	0.497534	-0.108779	-0.412763
N245	N	0.830867	0.224554	-0.079430
N246	N	1.164200	0.557888	0.253904
H247	H	0.619827	-0.187429	-0.266473
H248	H	0.953160	0.145905	0.066860
H249	H	1.286493	0.479238	0.400193
C250	C	0.627263	-0.354145	-0.318627
C251	C	0.960596	-0.020812	0.014706
C252	C	1.293930	0.312521	0.348039
N253	N	0.649209	-0.395182	-0.302836
N254	N	0.982543	-0.061848	0.030497
N255	N	1.315876	0.271485	0.363831
C256	C	1.220457	-0.694311	-0.210829
C257	C	1.553790	-0.360978	0.122504
C258	C	1.887124	-0.027645	0.455838
N259	N	1.259821	-0.671690	-0.171499
N260	N	1.593154	-0.338356	0.161835
N261	N	1.926488	-0.005023	0.495168
H262	H	0.527288	-0.316580	-0.449320
H263	H	0.860621	0.016753	-0.115986
H264	H	1.193955	0.350087	0.217347
H265	H	0.939401	-0.702184	-0.491477
H266	H	1.272734	-0.368850	-0.158144
H267	H	1.606067	-0.035517	0.175190
C268	C	1.179690	-0.177027	-0.912068
C269	C	1.513024	0.156306	-0.578735
C270	C	1.846357	0.489640	-0.245402
N271	N	1.222470	-0.146972	-0.933992
N272	N	1.555804	0.186362	-0.600658
N273	N	1.889137	0.519695	-0.267325
H274	H	0.948187	-0.228267	-0.904665
H275	H	1.281520	0.105067	-0.571331
H276	H	1.614854	0.438400	-0.237998
C277	C	0.627630	-0.224695	-0.503088
C278	C	0.960963	0.108639	-0.169755
C279	C	1.294296	0.441972	0.163579
N280	N	0.649779	-0.213730	-0.561385
N281	N	0.983113	0.119603	-0.228051
N282	N	1.316446	0.452937	0.105282
H283	H	1.198261	-0.275538	-0.812006
H284	H	1.531595	0.057795	-0.478672
H285	H	1.864928	0.391129	-0.145339
H286	H	1.159288	-0.550003	-0.271822
H287	H	1.492621	-0.216670	0.061511
H288	H	1.825954	0.116663	0.394845
H289	H	0.987072	-1.052404	-0.444056
H290	H	1.320405	-0.719070	-0.110723
H291	H	1.653738	-0.385737	0.222611
C292	C	1.220523	-0.808957	-0.210854
C293	C	1.553856	-0.475623	0.122479
C294	C	1.887189	-0.142290	0.455812
N295	N	1.259911	-0.831554	-0.171531
N296	N	1.593244	-0.498221	0.161802
N297	N	1.926577	-0.164887	0.495136
C298	C	1.111974	-0.354050	-0.912305
C299	C	1.445307	-0.020717	-0.578971
C300	C	1.778641	0.312617	-0.245638
N301	N	1.127549	-0.395086	-0.934385
N302	N	1.460882	-0.061753	-0.601052
N303	N	1.794215	0.271581	-0.267719
C304	C	0.966887	-0.326722	-0.804284
C305	C	1.300221	0.006611	-0.470950
C306	C	1.633554	0.339944	-0.137617
N307	N	0.924226	-0.356804	-0.782205
N308	N	1.257559	-0.023471	-0.448872
N309	N	1.590892	0.309862	-0.115538
C310	C	1.173067	-0.945494	-0.258319
C311	C	1.506401	-0.612161	0.075014
C312	C	1.839734	-0.278828	0.408347
N313	N	1.212439	-0.922871	-0.219000
N314	N	1.545773	-0.589537	0.114334
N315	N	1.879106	-0.256204	0.447667
H316	H	1.159534	-1.052365	-0.271902
H317	H	1.492868	-0.719031	0.061431
H318	H	1.826201	-0.385698	0.394765
C319	C	0.519352	-0.279186	-0.212688
C320	C	0.852685	0.054147	0.120645
C321	C	1.186019	0.387480	0.453979
N322	N	0.497226	-0.290123	-0.154371
N323	N	0.830559	0.043211	0.178962
N324	N	1.163893	0.376544	0.512295
C325	C	0.973452	-0.945558	-0.457620
C326	C	1.306785	-0.612225	-0.124286
C327	C	1.640119	-0.278891	0.209047
N328	N	0.934067	-0.922958	-0.496943
N329	N	1.267400	-0.589625	-0.163610
N330	N	1.600734	-0.256291	0.169724
H331	H	1.039765	-0.163851	-0.811873
H332	H	1.373098	0.169482	-0.478539
H333	H	1.706431	0.502816	-0.145206
H334	H	0.939438	-0.801234	-0.491487
H335	H	1.272771	-0.467900	-0.158154
H336	H	1.606104	-0.134567	0.175180
H337	H	0.986824	-0.550067	-0.443991
H338	H	1.320158	-0.216733	-0.110658
H339	H	1.653491	0.116600	0.222676
H340	H	0.986769	-0.451001	-0.443964
H341	H	1.320103	-0.117667	-0.110630
H342	H	1.653436	0.215666	0.222703
