data_functionalizedCrystal
_audit_creation_method	'MofGen! by Chris Wilmer'
_symmetry_space_group_name_H-M	'P1'
_symmetry_Int_Tables_number	1
_symmetry_cell_setting	triclinic
loop_
_symmetry_equiv_pos_as_xyz
  x,y,z
_cell_length_a	15.995292
_cell_length_b	15.995350
_cell_length_c	15.072220
_cell_angle_alpha	89.998899
_cell_angle_beta	89.986330
_cell_angle_gamma	96.519505
loop_
_atom_site_label
_atom_site_type_symbol
_atom_site_fract_x
_atom_site_fract_y
_atom_site_fract_z
O1	O	1.111026	-0.107689	-0.073802
O2	O	0.867244	-0.121068	-0.073798
O3	O	0.995799	0.007511	-0.073799
O4	O	0.982471	-0.236267	-0.073801
O5	O	0.995767	0.007503	0.073766
O6	O	0.867213	-0.121075	0.073767
O7	O	1.110994	-0.107696	0.073763
Zn8	Zn	0.989098	-0.114387	0.097194
Zn9	Zn	0.989140	-0.114377	-0.097229
O10	O	0.982440	-0.236275	0.073764
C11	C	0.836033	-0.120527	-0.000015
C12	C	0.743080	-0.118894	-0.000014
C13	C	0.405341	-0.112893	-0.000024
C14	C	0.428654	-0.205697	-0.000354
C15	C	0.525329	-0.207461	-0.000017
C16	C	0.572897	-0.115871	-0.000019
C17	C	0.543777	-0.069477	0.084245
C18	C	0.446987	-0.068360	0.084312
C19	C	0.447168	-0.066457	-0.083497
C20	C	0.543660	-0.069896	-0.084607
C21	C	0.667593	-0.117549	-0.000014
C22	C	0.310646	-0.111212	-0.000023
C23	C	1.142206	-0.108237	-0.000022
C24	C	1.235159	-0.109870	-0.000029
C25	C	0.995232	0.038702	-0.000018
C26	C	0.993580	0.131652	-0.000023
C27	C	0.983006	-0.267466	-0.000018
C28	C	0.984658	-0.360416	-0.000019
N29	N	0.989076	-0.114393	0.229883
C30	C	0.987648	0.469398	-0.000020
C31	C	0.896094	0.421945	-0.000350
C32	C	0.897746	0.325255	-0.000017
C33	C	0.990591	0.301838	-0.000022
C34	C	1.035730	0.342921	0.084242
C35	C	1.033430	0.439556	0.084313
C36	C	1.035358	0.439923	-0.083496
C37	C	1.035336	0.342978	-0.084610
C38	C	0.992259	0.207141	-0.000021
C39	C	0.985983	0.564095	-0.000016
N40	N	0.989169	-0.114365	-0.229918
C41	C	0.989139	-0.114374	0.589085
C42	C	0.920120	-0.182943	0.551478
C43	C	0.920279	-0.183193	0.448653
C44	C	0.989107	-0.114383	0.410880
C45	C	1.076474	-0.133447	0.448170
C46	C	1.076087	-0.133934	0.551028
C47	C	0.971569	-0.026538	0.551186
C48	C	0.969564	-0.027124	0.448322
C49	C	0.989094	-0.114387	0.310167
C50	C	0.989157	-0.114372	0.689798
H51	H	0.543720	-0.244020	0.060489
H52	H	0.420156	-0.100496	0.147302
C53	C	0.882744	-0.007577	0.415391
C54	C	0.865798	-0.000997	0.315205
C55	C	0.778980	0.018546	0.282263
C56	C	0.709107	0.031508	0.349507
C57	C	0.726051	0.024927	0.449699
C58	C	0.812870	0.005385	0.482641
H59	H	0.917524	-0.010592	0.265422
H60	H	0.766437	0.023417	0.208094
H61	H	0.644838	0.045974	0.325121
H62	H	0.674325	0.034523	0.499482
H63	H	0.825412	0.000514	0.556810
C64	C	0.993341	0.304577	0.168965
C65	C	1.026458	0.334768	0.260785
C66	C	0.984064	0.296426	0.345505
C67	C	0.908553	0.227892	0.338404
C68	C	0.875432	0.197697	0.246580
C69	C	0.917826	0.236040	0.161860
H70	H	1.082360	0.385504	0.266045
H71	H	1.008582	0.318779	0.413480
H72	H	0.877170	0.199509	0.401119
H73	H	0.819530	0.146961	0.241320
H74	H	0.893308	0.213687	0.093885
H75	H	1.005438	0.460459	-0.147364
C76	C	0.427321	0.023559	0.089499
C77	C	0.499660	0.095712	0.093571
C78	C	0.479998	0.187628	0.098770
C79	C	0.387997	0.207390	0.099898
C80	C	0.315652	0.135234	0.095826
C81	C	0.335314	0.043319	0.090626
H82	H	0.567770	0.081085	0.092737
H83	H	0.533553	0.241042	0.101785
H84	H	0.373442	0.275431	0.103746
H85	H	0.247541	0.149862	0.096660
H86	H	0.281758	-0.010095	0.087612
H87	H	0.575645	-0.002079	0.087377
C88	C	1.096996	-0.220472	0.583432
C89	C	1.113929	-0.288654	0.515718
C90	C	1.134836	-0.375195	0.548117
C91	C	1.138809	-0.393553	0.648230
C92	C	1.121876	-0.325368	0.715951
C93	C	1.100969	-0.238828	0.683552
H94	H	1.110988	-0.275066	0.441603
H95	H	1.147371	-0.425669	0.497986
H96	H	1.154286	-0.457615	0.672214
H97	H	1.124817	-0.338957	0.790066
H98	H	1.088434	-0.188353	0.733683
C99	C	0.849803	0.286839	-0.081610
C100	C	0.772274	0.221480	-0.069175
C101	C	0.724324	0.183065	-0.150766
C102	C	0.753902	0.210010	-0.244793
C103	C	0.831435	0.275373	-0.257233
C104	C	0.879385	0.313787	-0.175641
H105	H	0.750375	0.201530	0.000433
H106	H	0.666929	0.134679	-0.141558
H107	H	0.718407	0.181573	-0.305193
H108	H	0.853334	0.295322	-0.326841
H109	H	0.936780	0.362173	-0.184850
C110	C	0.887354	-0.001782	0.586261
C111	C	0.857028	0.082196	0.557819
C112	C	0.772809	0.106940	0.592894
C113	C	0.718914	0.047707	0.656410
C114	C	0.749239	-0.036275	0.684855
C115	C	0.833458	-0.061020	0.649781
H116	H	0.896925	0.126048	0.510797
H117	H	0.750361	0.169110	0.571836
H118	H	0.656570	0.066025	0.682375
H119	H	0.709342	-0.080128	0.731877
H120	H	0.855906	-0.123189	0.670838
H121	H	1.016568	0.026291	0.422614
C122	C	0.846672	0.446960	-0.081989
C123	C	0.888839	0.510784	-0.149356
C124	C	0.839419	0.535799	-0.231003
C125	C	0.747833	0.496989	-0.245283
C126	C	0.705662	0.433161	-0.177914
C127	C	0.755081	0.408146	-0.096267
H128	H	0.956640	0.539517	-0.138788
H129	H	0.870638	0.583049	-0.280875
H130	H	0.711250	0.515506	-0.305723
H131	H	0.637860	0.404428	-0.188482
H132	H	0.723863	0.360896	-0.046395
C133	C	0.570847	-0.113008	0.168968
C134	C	0.619337	-0.190587	0.161867
C135	C	0.646404	-0.234123	0.246588
C136	C	0.624982	-0.200080	0.338408
C137	C	0.576490	-0.122496	0.345512
C138	C	0.549423	-0.078960	0.260792
H139	H	0.635197	-0.215792	0.093893
H140	H	0.682301	-0.291556	0.241328
H141	H	0.645019	-0.232308	0.401123
H142	H	0.560630	-0.097291	0.413486
H143	H	0.513526	-0.021527	0.266051
C144	C	0.408962	-0.105711	-0.169765
C145	C	0.364680	-0.051548	-0.235428
C146	C	0.326445	-0.090806	-0.321681
C147	C	0.332492	-0.184227	-0.342271
C148	C	0.376775	-0.238395	-0.276605
C149	C	0.415010	-0.199137	-0.190353
H150	H	0.360203	0.017612	-0.220189
H151	H	0.293663	-0.050707	-0.370291
H152	H	0.304188	-0.213288	-0.406120
H153	H	0.381253	-0.307555	-0.291845
H154	H	0.447792	-0.239236	-0.141743
H155	H	1.021900	0.024489	0.575504
H156	H	1.103940	0.328809	0.087372
H157	H	0.400671	-0.241465	-0.060784
C158	C	0.551047	-0.256549	-0.081617
C159	C	0.531964	-0.226164	-0.175637
C160	C	0.557672	-0.275258	-0.257239
C161	C	0.602463	-0.354737	-0.244822
C162	C	0.621549	-0.385126	-0.150799
C163	C	0.595841	-0.336032	-0.069196
H164	H	0.498805	-0.167326	-0.184832
H165	H	0.543543	-0.252762	-0.326842
H166	H	0.621494	-0.391079	-0.305229
H167	H	0.654708	-0.443965	-0.141603
H168	H	0.609970	-0.358529	0.000407
C169	C	0.389447	-0.253765	0.080826
C170	C	0.446383	-0.291041	0.149223
C171	C	0.407177	-0.339107	0.230403
C172	C	0.311035	-0.349897	0.243186
C173	C	0.254093	-0.312619	0.174787
C174	C	0.293299	-0.264553	0.093607
H175	H	0.517559	-0.283055	0.139762
H176	H	0.449330	-0.366702	0.281037
H177	H	0.282012	-0.385478	0.303281
H178	H	0.182918	-0.320606	0.184248
H179	H	0.251147	-0.236958	0.042973
C180	C	0.935112	-0.270503	0.586351
C181	C	0.933936	-0.287899	0.686858
C182	C	0.948954	-0.375456	0.721720
C183	C	0.965148	-0.445616	0.656074
C184	C	0.966324	-0.428221	0.555560
C185	C	0.951306	-0.340665	0.520699
H186	H	0.921949	-0.235961	0.735458
H187	H	0.948083	-0.388332	0.796127
H188	H	0.976265	-0.510430	0.681881
H189	H	0.978312	-0.480160	0.506960
H190	H	0.952177	-0.327789	0.446292
H191	H	1.002334	0.315725	-0.146947
H192	H	1.129050	-0.085960	0.575902
C193	C	0.568760	-0.115525	-0.168827
C194	C	0.615584	-0.194162	-0.160869
C195	C	0.640688	-0.239794	-0.245087
C196	C	0.618969	-0.206790	-0.337263
C197	C	0.572142	-0.128149	-0.345225
C198	C	0.547038	-0.082517	-0.261007
H199	H	0.631665	-0.218597	-0.092631
H200	H	0.675353	-0.298009	-0.239192
H201	H	0.637552	-0.240569	-0.399606
H202	H	0.556062	-0.103714	-0.413463
H203	H	0.512374	-0.024302	-0.266902
C204	C	0.846858	0.448394	0.080832
C205	C	0.878929	0.433182	0.175137
C206	C	0.829697	0.459634	0.256321
C207	C	0.748394	0.501298	0.243199
C208	C	0.716318	0.516512	0.148890
C209	C	0.765550	0.490060	0.067706
H210	H	0.939119	0.402338	0.184855
H211	H	0.853442	0.448371	0.326135
H212	H	0.711949	0.520879	0.303296
H213	H	0.656129	0.547356	0.139173
H214	H	0.741805	0.501322	-0.002107
C215	C	0.588202	0.020418	-0.091480
C216	C	0.536134	0.095700	-0.091757
C217	C	0.580679	0.186016	-0.098618
C218	C	0.677293	0.201052	-0.105202
C219	C	0.729368	0.125768	-0.104925
C220	C	0.684822	0.035451	-0.098064
H221	H	0.464609	0.084572	-0.086882
H222	H	0.542130	0.241746	-0.098822
H223	H	0.710269	0.267910	-0.110281
H224	H	0.800892	0.136896	-0.109800
H225	H	0.723371	-0.020279	-0.097860
H226	H	0.433174	0.001853	-0.084068
H227	H	0.861997	0.297380	0.060491
H228	H	1.000488	0.457848	0.147305
H229	H	1.102861	0.471698	-0.084066
H230	H	1.100648	0.471818	0.088132
C231	C	1.126805	0.322245	-0.091498
C232	C	1.162630	0.267353	-0.020113
C233	C	1.254103	0.246619	-0.026995
C234	C	1.309750	0.280777	-0.105261
C235	C	1.273926	0.335672	-0.176651
C236	C	1.182453	0.356406	-0.169770
H237	H	1.121436	0.242064	0.037829
H238	H	1.280622	0.205982	0.025853
H239	H	1.377463	0.265428	-0.110356
H240	H	1.315120	0.360960	-0.234594
H241	H	1.155934	0.397043	-0.222618
H242	H	0.854969	-0.171775	0.576241
C243	C	0.935440	-0.271248	0.415394
C244	C	1.012489	-0.282077	0.357002
C245	C	1.027656	-0.370135	0.323745
C246	C	0.965774	-0.447364	0.348880
C247	C	0.888720	-0.436537	0.407276
C248	C	0.873553	-0.348479	0.440532
H249	H	1.058302	-0.224905	0.338392
H250	H	1.084696	-0.378149	0.280517
H251	H	0.977001	-0.512550	0.324262
H252	H	0.842906	-0.493709	0.425885
H253	H	0.816513	-0.340465	0.483760
C254	C	1.147520	-0.067780	0.415112
C255	C	1.126982	0.004091	0.353727
C256	C	1.198027	0.069758	0.320667
C257	C	1.289611	0.063555	0.348993
C258	C	1.310154	-0.008319	0.410382
C259	C	1.239109	-0.073986	0.443442
H260	H	1.059182	0.008685	0.332755
H261	H	1.182819	0.122963	0.275223
H262	H	1.342202	0.112166	0.324520
H263	H	1.377953	-0.012913	0.431353
H264	H	1.254317	-0.127191	0.488886
H265	H	1.092327	-0.196774	0.422400
H266	H	0.855337	-0.171838	0.423443
