data_functionalizedCrystal
_audit_creation_method	'MofGen! by Chris Wilmer'
_symmetry_space_group_name_H-M	'P1'
_symmetry_Int_Tables_number	1
_symmetry_cell_setting	triclinic
loop_
_symmetry_equiv_pos_as_xyz
  x,y,z
_cell_length_a	17.019282
_cell_length_b	17.038272
_cell_length_c	14.750779
_cell_angle_alpha	76.426773
_cell_angle_beta	106.379547
_cell_angle_gamma	87.241387
loop_
_atom_site_label
_atom_site_type_symbol
_atom_site_fract_x
_atom_site_fract_y
_atom_site_fract_z
O1	O	1.054843	0.097971	0.007401
O2	O	1.554843	0.597971	0.507401
O3	O	0.822178	0.114778	-0.011841
O4	O	1.322178	0.614778	0.488159
O5	O	0.937129	-0.007417	-0.002326
O6	O	1.437129	0.492583	0.497674
O7	O	0.939892	0.220166	-0.002113
O8	O	1.439892	0.720166	0.497887
O9	O	0.969625	-0.041956	0.160014
O10	O	1.469625	0.458044	0.660014
O11	O	0.854674	0.080238	0.150499
O12	O	1.354674	0.580238	0.650499
O13	O	1.087339	0.063432	0.169741
O14	O	1.587339	0.563432	0.669741
Zn15	Zn	0.976166	0.066351	0.185895
Zn16	Zn	1.476166	0.566351	0.685895
Zn17	Zn	0.933351	0.111858	-0.027995
Zn18	Zn	1.433351	0.611858	0.472005
O19	O	0.972387	0.185627	0.160227
O20	O	1.472387	0.685627	0.660227
C21	C	0.808509	0.097554	0.066855
C22	C	1.308509	0.597554	0.566855
C23	C	0.719366	0.097683	0.059483
C24	C	1.219366	0.597683	0.559483
C25	C	0.695205	0.078913	0.144513
C26	C	1.195205	0.578913	0.644513
C27	C	0.611447	0.079021	0.137589
C28	C	1.111447	0.579021	0.637589
C29	C	0.551851	0.097904	0.045634
C30	C	1.051851	0.597904	0.545634
C31	C	0.576017	0.116672	-0.039403
C32	C	1.076017	0.616672	0.460597
C33	C	0.659774	0.116559	-0.032478
C34	C	1.159774	0.616559	0.467522
C35	C	0.298072	0.099183	0.020297
C36	C	0.798072	0.599183	0.520297
C37	C	0.214310	0.099298	0.013379
C38	C	0.714310	0.599298	0.513379
C39	C	0.249746	0.061645	0.190372
C40	C	0.749746	0.561645	0.690372
C41	C	0.333503	0.061538	0.197289
C42	C	0.833503	0.561538	0.697289
C43	C	0.357662	0.080302	0.112252
C44	C	0.857662	0.580302	0.612252
C45	C	0.466236	0.098017	0.038554
C46	C	0.966236	0.598017	0.538554
C47	C	0.443276	0.080183	0.119333
C48	C	0.943276	0.580183	0.619333
C49	C	0.950862	-0.053768	0.078636
C50	C	1.450862	0.446232	0.578636
C51	C	0.943357	-0.140423	0.078015
C52	C	1.443357	0.359577	0.578015
C53	C	1.012258	-0.191811	0.083714
C54	C	1.512258	0.308189	0.583714
C55	C	1.005200	-0.273229	0.083121
C56	C	1.505200	0.226771	0.583121
C57	C	0.929242	-0.303259	0.076836
C58	C	1.429242	0.196741	0.576836
C59	C	0.860335	-0.251863	0.071133
C60	C	1.360335	0.248137	0.571133
C61	C	0.867392	-0.170445	0.071719
C62	C	1.367392	0.329555	0.571719
C63	C	0.904308	-0.548553	0.074761
C64	C	1.404308	-0.048553	0.574761
C65	C	0.897257	-0.629978	0.074178
C66	C	1.397257	-0.129978	0.574178
C67	C	1.042123	-0.651338	0.086164
C68	C	1.542123	-0.151338	0.586164
C69	C	1.049175	-0.569918	0.086756
C70	C	1.549175	-0.069918	0.586756
C71	C	0.980267	-0.518529	0.081048
C72	C	1.480267	-0.018529	0.581048
C73	C	0.922026	-0.386481	0.076233
C74	C	1.422026	0.113519	0.576233
C75	C	0.987481	-0.435306	0.081644
C76	C	1.487481	0.064694	0.581644
C77	C	1.101007	0.080656	0.091043
C78	C	1.601007	0.580656	0.591043
C79	C	1.190149	0.080529	0.098409
C80	C	1.690149	0.580529	0.598409
C81	C	0.958655	0.231978	0.079263
C82	C	1.458655	0.731978	0.579263
C83	C	0.966158	0.318634	0.079877
C84	C	1.466158	0.818634	0.579877
N85	N	1.005391	0.035293	0.331870
N86	N	1.505391	0.535293	0.831870
N87	N	0.904132	0.142910	-0.173969
N88	N	1.404132	0.642910	0.326031
C89	C	0.822507	0.229615	0.668551
C90	C	1.322507	0.729615	1.168551
C91	C	0.842992	0.207857	0.770746
C92	C	1.342992	0.707857	1.270746
C93	C	0.944807	0.099692	0.779135
C94	C	1.444807	0.599692	1.279135
C95	C	0.924327	0.121439	0.676939
C96	C	1.424327	0.621439	1.176939
C97	C	0.863177	0.186402	0.621655
C98	C	1.363177	0.686402	1.121655
C99	C	0.964997	0.078226	0.630043
C100	C	1.464997	0.578226	1.130043
C101	C	0.944522	0.099974	0.527856
C102	C	1.444522	0.599974	1.027856
C103	C	0.883376	0.164935	0.472565
C104	C	1.383376	0.664935	0.972565
C105	C	0.842702	0.208150	0.519468
C106	C	1.342702	0.708150	1.019468
C107	C	1.026151	0.013267	0.685330
C108	C	1.526151	0.513267	1.185330
C109	C	1.066821	-0.029947	0.638433
C110	C	1.566821	0.470053	1.138433
C111	C	1.046342	-0.008203	0.536244
C112	C	1.546342	0.491797	1.036244
C113	C	0.985196	0.056759	0.480953
C114	C	1.485196	0.556759	0.980953
C115	C	1.087016	-0.051417	0.489341
C116	C	1.587016	0.448583	0.989341
C117	C	1.066541	-0.029669	0.387154
C118	C	1.566541	0.470331	0.887154
C119	C	0.964721	0.078507	0.378766
C120	C	1.464721	0.578507	0.878766
H121	H	0.679443	0.131844	-0.101719
H122	H	1.179443	0.631844	0.398281
Cl123	Cl	0.581076	0.055438	0.244490
Cl124	Cl	1.081076	0.555438	0.744490
H125	H	0.317731	0.114460	-0.048946
H126	H	0.817731	0.614460	0.451054
H127	H	0.848198	-0.506721	0.070113
H128	H	1.348198	-0.006721	0.570113
Cl129	Cl	0.791856	0.262195	0.829693
Cl130	Cl	1.291856	0.762195	1.329693
H131	H	0.743723	0.063543	0.219393
H132	H	1.243723	0.563543	0.719393
H133	H	1.074113	-0.167369	0.088838
H134	H	1.574113	0.332631	0.588838
Cl135	Cl	0.408419	0.037804	0.312894
Cl136	Cl	0.908419	0.537804	0.812894
H137	H	0.792901	0.261044	0.474452
H138	H	1.292901	0.761044	0.974452
Cl139	Cl	0.857638	0.192279	0.344100
Cl140	Cl	1.357638	0.692279	0.844100
Cl141	Cl	0.501097	0.140382	-0.155005
Cl142	Cl	1.001097	0.640382	0.344995
Cl143	Cl	1.128743	-0.715945	0.093336
Cl144	Cl	1.628743	-0.215945	0.593336
Cl145	Cl	1.117674	-0.083995	0.328198
Cl146	Cl	1.617674	0.416005	0.828198
H147	H	0.798486	-0.276318	0.066010
H148	H	1.298486	0.223682	0.566010
H149	H	0.417704	0.113391	-0.036316
H150	H	0.917704	0.613391	0.463684
H151	H	0.835403	-0.654427	0.069076
H152	H	1.335403	-0.154427	0.569076
Cl153	Cl	0.826537	-0.424239	0.068327
Cl154	Cl	1.326537	0.075761	0.568327
Cl155	Cl	1.143695	-0.111610	0.707940
Cl156	Cl	1.643695	0.388390	1.207940
H157	H	0.491803	0.064805	0.194202
H158	H	0.991803	0.564805	0.694202
H159	H	0.811285	-0.128605	0.067078
H160	H	1.311285	0.371395	0.567078
Cl161	Cl	1.021681	0.018029	0.848642
Cl162	Cl	1.521681	0.518029	1.348642
Cl163	Cl	0.219370	0.038053	0.297268
Cl164	Cl	0.719370	0.538053	0.797268
Cl165	Cl	0.139389	0.123041	-0.102231
Cl166	Cl	0.639389	0.623041	0.397769
Cl167	Cl	1.091824	-0.337829	0.090289
Cl168	Cl	1.591824	0.162171	0.590289
H169	H	1.042822	-0.004435	0.768537
H170	H	1.542822	0.495565	1.268537
H171	H	1.136811	-0.104305	0.534367
H172	H	1.636811	0.395695	1.034367
Cl173	Cl	0.745621	0.311277	0.599046
Cl174	Cl	1.245621	0.811277	1.099046
Cl175	Cl	1.144663	-0.532167	0.094626
Cl176	Cl	1.644663	-0.032167	0.594626
H177	H	1.049322	-0.410848	0.086740
H178	H	1.549322	0.089152	0.586740
H179	H	0.914920	0.131401	0.333751
H180	H	1.414920	0.631401	0.833751
