data_functionalizedCrystal
_audit_creation_method	'MofGen! by Chris Wilmer'
_symmetry_space_group_name_H-M	'P1'
_symmetry_Int_Tables_number	1
_symmetry_cell_setting	triclinic
loop_
_symmetry_equiv_pos_as_xyz
  x,y,z
_cell_length_a	19.288864
_cell_length_b	15.186229
_cell_length_c	19.288865
_cell_angle_alpha	89.991032
_cell_angle_beta	96.863755
_cell_angle_gamma	90.017200
loop_
_atom_site_label
_atom_site_type_symbol
_atom_site_fract_x
_atom_site_fract_y
_atom_site_fract_z
O1	O	0.921347	0.073521	-0.086647
O2	O	1.421347	0.573521	0.413353
O3	O	0.719087	0.073462	-0.098336
O4	O	1.219087	0.573462	0.401664
O5	O	0.826061	0.073476	0.008639
O6	O	1.326061	0.573476	0.508639
O7	O	0.814373	0.073507	-0.193621
O8	O	1.314373	0.573507	0.306379
O9	O	0.826054	-0.072981	0.008641
O10	O	1.326054	0.427019	0.508641
O11	O	0.719079	-0.072995	-0.098334
O12	O	1.219079	0.427005	0.401666
O13	O	0.921340	-0.072936	-0.086645
O14	O	1.421340	0.427064	0.413355
Zn15	Zn	0.820209	-0.096219	-0.092489
Zn16	Zn	1.320209	0.403781	0.407511
Zn17	Zn	0.820218	0.096745	-0.092491
Zn18	Zn	1.320218	0.596745	0.407509
O19	O	0.814365	-0.072950	-0.193620
O20	O	1.314365	0.427050	0.306380
C21	C	0.693207	0.000226	-0.097959
C22	C	1.193207	0.500226	0.402041
C23	C	0.616103	0.000202	-0.096830
C24	C	1.116103	0.500202	0.403170
N25	N	0.820207	-0.227912	-0.092488
N26	N	1.320207	0.272088	0.407512
C27	C	0.571407	0.000226	-0.159598
C28	C	1.071407	0.500226	0.340402
C29	C	0.498960	0.000236	-0.158537
C30	C	0.998960	0.500236	0.341463
C31	C	0.471212	0.000239	-0.094705
C32	C	0.971212	0.500239	0.405295
C33	C	0.515918	0.000211	-0.031929
C34	C	1.015918	0.500211	0.468071
C35	C	0.588364	0.000192	-0.032991
C36	C	1.088364	0.500192	0.467009
C37	C	0.362953	0.051572	-0.044526
C38	C	0.862953	0.551572	0.455474
C39	C	0.290508	0.051595	-0.043466
C40	C	0.790508	0.551595	0.456534
C41	C	0.247767	0.000292	-0.091425
C42	C	0.747767	0.500292	0.408575
C43	C	0.277477	-0.051024	-0.140456
C44	C	0.777477	0.448976	0.359544
C45	C	0.349922	-0.051042	-0.141518
C46	C	0.849922	0.448958	0.358482
C47	C	0.392658	0.000259	-0.093546
C48	C	0.892658	0.500259	0.406454
C49	C	0.124514	0.000325	-0.153047
C50	C	0.624514	0.500325	0.346953
C51	C	0.052066	0.000329	-0.151984
C52	C	0.552066	0.500329	0.348016
C53	C	0.069026	0.000313	-0.025374
C54	C	0.569026	0.500313	0.474626
C55	C	0.141473	0.000300	-0.026439
C56	C	0.641473	0.500300	0.473561
C57	C	0.169212	0.000310	-0.090278
C58	C	0.669212	0.500310	0.409722
C59	C	0.867592	-0.453628	-0.045135
C60	C	1.367592	0.046372	0.454865
C61	C	0.867594	-0.545818	-0.045133
C62	C	1.367594	-0.045818	0.454867
C63	C	0.772835	-0.545839	-0.139842
C64	C	1.272835	-0.045839	0.360158
C65	C	0.772830	-0.453651	-0.139840
C66	C	1.272830	0.046349	0.360160
C67	C	0.820213	-0.407548	-0.092487
C68	C	1.320213	0.092452	0.407513
C69	C	0.820220	-0.591926	-0.092488
C70	C	1.320220	-0.091926	0.407512
C71	C	0.820222	-0.691882	-0.092486
C72	C	1.320222	-0.191882	0.407514
C73	C	0.820210	-0.307586	-0.092488
C74	C	1.320210	0.192414	0.407512
C75	C	0.947220	0.000302	-0.087022
C76	C	1.447220	0.500302	0.412978
C77	C	1.024324	0.000331	-0.088151
C78	C	1.524324	0.500331	0.411849
C79	C	0.825682	0.000244	0.034516
C80	C	1.325682	0.500244	0.534516
C81	C	0.824553	0.000236	0.111620
C82	C	1.324553	0.500236	0.611620
N83	N	0.820225	0.228437	-0.092488
N84	N	1.320225	0.728437	0.407512
C85	C	0.814745	0.000283	-0.219497
C86	C	1.314745	0.500283	0.280503
C87	C	0.815874	0.000297	-0.296601
C88	C	1.315874	0.500297	0.203399
C89	C	0.887321	0.000250	0.156316
C90	C	1.387321	0.500250	0.656316
C91	C	0.886260	0.000264	0.228763
C92	C	1.386260	0.500264	0.728763
C93	C	0.822428	0.000246	0.256511
C94	C	1.322428	0.500246	0.756511
C95	C	0.759652	0.000237	0.211805
C96	C	1.259652	0.500237	0.711805
C97	C	0.760714	0.000232	0.139359
C98	C	1.260714	0.500232	0.639359
C99	C	0.772246	-0.051069	0.364799
C100	C	1.272246	0.448931	0.864799
C101	C	0.771186	-0.051070	0.437243
C102	C	1.271186	0.448930	0.937243
C103	C	0.819148	0.000265	0.479956
C104	C	1.319148	0.500265	0.979956
C105	C	0.868182	0.051589	0.450218
C106	C	1.368182	0.551589	0.950218
C107	C	0.869244	0.051584	0.377772
C108	C	1.369244	0.551584	0.877772
C109	C	0.821269	0.000252	0.335065
C110	C	1.321269	0.500252	0.835065
C111	C	0.880770	0.000295	0.603209
C112	C	1.380770	0.500295	1.103209
C113	C	0.879707	0.000314	0.675657
C114	C	1.379707	0.500314	1.175657
C115	C	0.753097	0.000278	0.658697
C116	C	1.253097	0.500278	1.158697
C117	C	0.754162	0.000268	0.586250
C118	C	1.254162	0.500268	1.086250
C119	C	0.818000	0.000272	0.558511
C120	C	1.318000	0.500272	1.058511
H121	H	0.593987	0.000236	-0.211580
H122	H	1.093987	0.500236	0.288420
Cl123	Cl	0.713260	-0.395716	-0.199370
Cl124	Cl	1.213260	0.104284	0.300630
H125	H	0.907237	0.093391	0.484994
H126	H	1.407237	0.593391	0.984994
H127	H	0.731257	-0.092856	0.461450
H128	H	1.231257	0.407144	0.961450
Cl129	Cl	0.961023	0.000295	0.568333
Cl130	Cl	1.461023	0.500295	1.068333
Cl131	Cl	0.927157	-0.603745	0.014399
Cl132	Cl	1.427157	-0.103745	0.514399
H133	H	0.930822	0.000330	0.712049
H134	H	1.430822	0.500330	1.212049
Cl135	Cl	0.927155	-0.395674	0.014397
Cl136	Cl	1.427155	0.104326	0.514397
Cl137	Cl	0.967575	0.000281	0.121448
Cl138	Cl	1.467575	0.500281	0.621448
H139	H	0.909168	0.093375	0.353562
H140	H	1.409168	0.593375	0.853562
H141	H	0.734259	-0.583386	-0.178397
H142	H	1.234259	-0.083386	0.321603
Cl143	Cl	-0.004125	0.000354	-0.230900
Cl144	Cl	0.495875	0.500354	0.269100
H145	H	0.937375	0.000279	0.265162
H146	H	1.437375	0.500279	0.765162
H147	H	0.266324	0.093383	-0.003545
H148	H	0.766324	0.593383	0.496455
H149	H	0.701123	0.000268	0.681288
H150	H	1.201123	0.500268	1.181288
H151	H	0.703049	0.000251	0.549857
H152	H	1.203049	0.500251	1.049857
Cl153	Cl	0.644557	0.000164	0.045924
Cl154	Cl	1.144557	0.500164	0.545924
Cl155	Cl	0.711946	-0.115614	0.311109
Cl156	Cl	1.211946	0.384386	0.811109
H157	H	0.707679	0.000224	0.234401
H158	H	1.207679	0.500224	0.734401
H159	H	0.462561	0.000252	-0.209652
H160	H	0.962561	0.500252	0.290348
H161	H	0.374109	-0.092828	-0.181438
H162	H	0.874109	0.407172	0.318562
H163	H	0.242678	-0.092800	-0.179508
H164	H	0.742678	0.407200	0.320492
H165	H	0.709599	0.000220	0.102967
H166	H	1.209599	0.500220	0.602967
H167	H	0.397748	0.093354	-0.005471
H168	H	0.897748	0.593354	0.494529
Cl169	Cl	0.197666	0.000275	0.052474
Cl170	Cl	0.697666	0.500275	0.552474
Cl171	Cl	0.034151	0.000307	0.054873
Cl172	Cl	0.534151	0.500307	0.554873
Cl173	Cl	0.159390	0.000329	-0.233300
Cl174	Cl	0.659390	0.500329	0.266700
H175	H	0.493322	0.000226	0.020044
H176	H	0.993322	0.500226	0.520044
