data_functionalizedCrystal
_audit_creation_method	'MofGen! by Chris Wilmer'
_symmetry_space_group_name_H-M	'P1'
_symmetry_Int_Tables_number	1
_symmetry_cell_setting	triclinic
loop_
_symmetry_equiv_pos_as_xyz
  x,y,z
_cell_length_a	19.077236
_cell_length_b	25.639240
_cell_length_c	19.077271
_cell_angle_alpha	87.662821
_cell_angle_beta	90.072744
_cell_angle_gamma	92.325142
loop_
_atom_site_label
_atom_site_type_symbol
_atom_site_fract_x
_atom_site_fract_y
_atom_site_fract_z
Zn1	Zn	1.058265	-0.163493	-0.440512
Zn2	Zn	1.308265	0.086507	-0.190512
Zn3	Zn	1.558265	0.336507	0.059488
Zn4	Zn	1.808265	0.586507	0.309488
Zn5	Zn	1.062887	-0.254299	-0.322981
Zn6	Zn	1.312887	-0.004299	-0.072981
Zn7	Zn	1.562887	0.245701	0.177019
Zn8	Zn	1.812887	0.495701	0.427019
Zn9	Zn	0.945478	-0.170516	-0.318288
Zn10	Zn	1.195478	0.079484	-0.068288
Zn11	Zn	1.445478	0.329484	0.181712
Zn12	Zn	1.695478	0.579484	0.431712
Zn13	Zn	0.940707	-0.254543	-0.435722
Zn14	Zn	1.190707	-0.004543	-0.185722
Zn15	Zn	1.440707	0.245457	0.064278
Zn16	Zn	1.690707	0.495457	0.314278
O17	O	1.001834	-0.210713	-0.379376
O18	O	1.251834	0.039287	-0.129376
O19	O	1.501834	0.289287	0.120624
O20	O	1.751834	0.539287	0.370624
O21	O	1.157212	-0.172497	-0.428890
O22	O	1.407212	0.077503	-0.178890
O23	O	1.657212	0.327503	0.071110
O24	O	1.907212	0.577503	0.321110
O25	O	1.051243	-0.246022	-0.224025
O26	O	1.301243	0.003978	0.025975
O27	O	1.551243	0.253978	0.275975
O28	O	1.801243	0.503978	0.525975
O29	O	0.960502	-0.096416	-0.334542
O30	O	1.210502	0.153584	-0.084542
O31	O	1.460502	0.403584	0.165458
O32	O	1.710502	0.653584	0.415458
O33	O	1.160608	-0.239212	-0.342541
O34	O	1.410608	0.010788	-0.092541
O35	O	1.660608	0.260788	0.157459
O36	O	1.910608	0.510788	0.407459
O37	O	1.043365	-0.091256	-0.424339
O38	O	1.293365	0.158744	-0.174339
O39	O	1.543365	0.408744	0.075661
O40	O	1.793365	0.658744	0.325661
O41	O	0.964983	-0.184467	-0.220577
O42	O	1.214983	0.065533	0.029423
O43	O	1.464983	0.315533	0.279423
O44	O	1.714983	0.565533	0.529423
O45	O	0.846511	-0.184704	-0.329897
O46	O	1.096511	0.065296	-0.079897
O47	O	1.346511	0.315296	0.170103
O48	O	1.596511	0.565296	0.420103
O49	O	0.952370	-0.239628	-0.534691
O50	O	1.202370	0.010372	-0.284691
O51	O	1.452370	0.260372	-0.034691
O52	O	1.702370	0.510372	0.215309
O53	O	0.843006	-0.246438	-0.416175
O54	O	1.093006	0.003562	-0.166175
O55	O	1.343006	0.253562	0.083825
O56	O	1.593006	0.503562	0.333825
O57	O	1.038739	-0.172734	-0.538210
O58	O	1.288739	0.077266	-0.288210
O59	O	1.538739	0.327266	-0.038210
O60	O	1.788739	0.577266	0.211790
O61	O	1.046617	-0.327500	-0.337896
O62	O	1.296617	-0.077500	-0.087896
O63	O	1.546617	0.172500	0.162104
O64	O	1.796617	0.422500	0.412104
O65	O	0.956852	-0.327679	-0.420726
O66	O	1.206852	-0.077679	-0.170726
O67	O	1.456852	0.172321	0.079274
O68	O	1.706852	0.422321	0.329274
C69	C	0.819261	-0.216360	-0.372007
C70	C	1.069261	0.033640	-0.122007
C71	C	1.319261	0.283640	0.127993
C72	C	1.569261	0.533640	0.377993
C73	C	0.741155	-0.218788	-0.368871
C74	C	0.991155	0.031212	-0.118871
C75	C	1.241155	0.281212	0.131129
C76	C	1.491155	0.531212	0.381129
C77	C	0.702690	-0.185245	-0.412424
C78	C	0.952690	0.064755	-0.162424
C79	C	1.202690	0.314755	0.087576
C80	C	1.452690	0.564755	0.337576
C81	C	0.629301	-0.187524	-0.409472
C82	C	0.879301	0.062476	-0.159472
C83	C	1.129301	0.312476	0.090528
C84	C	1.379301	0.562476	0.340528
C85	C	0.594378	-0.223349	-0.362970
C86	C	0.844378	0.026651	-0.112970
C87	C	1.094378	0.276651	0.137030
C88	C	1.344378	0.526651	0.387030
C89	C	0.632848	-0.256893	-0.319412
C90	C	0.882848	-0.006893	-0.069412
C91	C	1.132848	0.243107	0.180588
C92	C	1.382848	0.493107	0.430588
C93	C	0.706236	-0.254611	-0.322362
C94	C	0.956236	-0.004611	-0.072362
C95	C	1.206236	0.245389	0.177638
C96	C	1.456236	0.495389	0.427638
C97	C	0.375083	-0.233891	-0.349318
C98	C	0.625083	0.016109	-0.099318
C99	C	0.875083	0.266109	0.150682
C100	C	1.125083	0.516109	0.400682
C101	C	0.301690	-0.236171	-0.346373
C102	C	0.551690	0.013829	-0.096373
C103	C	0.801690	0.263829	0.153627
C104	C	1.051690	0.513829	0.403627
C105	C	0.298148	-0.166801	-0.436432
C106	C	0.548148	0.083199	-0.186432
C107	C	0.798148	0.333199	0.063568
C108	C	1.048148	0.583199	0.313568
C109	C	0.371537	-0.164524	-0.439381
C110	C	0.621537	0.085476	-0.189381
C111	C	0.871537	0.335476	0.060619
C112	C	1.121537	0.585476	0.310619
C113	C	0.410001	-0.198067	-0.395820
C114	C	0.660001	0.051933	-0.145820
C115	C	0.910001	0.301933	0.104180
C116	C	1.160001	0.551933	0.354180
N117	N	0.519363	-0.225680	-0.359953
N118	N	0.769363	0.024320	-0.109953
N119	N	1.019363	0.274320	0.140047
N120	N	1.269363	0.524320	0.390047
N121	N	0.485015	-0.195732	-0.398835
N122	N	0.735015	0.054268	-0.148835
N123	N	0.985015	0.304268	0.101165
N124	N	1.235015	0.554268	0.351165
C125	C	1.001737	-0.346560	-0.379317
C126	C	1.251737	-0.096560	-0.129317
C127	C	1.501737	0.153440	0.120683
C128	C	1.751737	0.403440	0.370683
C129	C	1.001759	-0.404673	-0.379318
C130	C	1.251759	-0.154673	-0.129318
C131	C	1.501759	0.095327	0.120682
C132	C	1.751759	0.345327	0.370682
C133	C	1.045000	-0.762304	-0.426215
C134	C	1.295000	-0.512304	-0.176215
C135	C	1.545000	-0.262304	0.073785
C136	C	1.795000	-0.012304	0.323785
C137	C	1.045021	-0.816907	-0.426230
C138	C	1.295021	-0.566907	-0.176230
C139	C	1.545021	-0.316907	0.073770
C140	C	1.795021	-0.066907	0.323770
O141	O	1.081670	-0.842827	-0.466043
O142	O	1.331670	-0.592827	-0.216043
O143	O	1.581670	-0.342827	0.033957
O144	O	1.831670	-0.092827	0.283957
N145	N	1.001929	-0.846947	-0.379448
N146	N	1.251929	-0.596947	-0.129448
N147	N	1.501929	-0.346947	0.120552
N148	N	1.751929	-0.096947	0.370552
C149	C	0.958809	-0.822380	-0.332651
C150	C	1.208809	-0.572380	-0.082651
C151	C	1.458809	-0.322380	0.167349
C152	C	1.708809	-0.072380	0.417349
O153	O	0.922157	-0.852945	-0.292861
O154	O	1.172157	-0.602945	-0.042861
O155	O	1.422157	-0.352945	0.207139
O156	O	1.672157	-0.102945	0.457139
C157	C	0.958786	-0.767778	-0.332640
C158	C	1.208786	-0.517778	-0.082640
C159	C	1.458786	-0.267778	0.167360
C160	C	1.708786	-0.017778	0.417360
C161	C	1.001885	-0.737741	-0.379421
C162	C	1.251885	-0.487741	-0.129421
C163	C	1.501885	-0.237741	0.120579
C164	C	1.751885	0.012259	0.370579
C165	C	1.088096	-0.732268	-0.472993
C166	C	1.338096	-0.482268	-0.222993
C167	C	1.588096	-0.232268	0.027007
C168	C	1.838096	0.017732	0.277007
C169	C	1.088077	-0.677668	-0.472977
C170	C	1.338077	-0.427668	-0.222977
C171	C	1.588077	-0.177668	0.027023
C172	C	1.838077	0.072332	0.277023
C173	C	1.044962	-0.653105	-0.426183
C174	C	1.294962	-0.403105	-0.176183
C175	C	1.544962	-0.153105	0.073817
C176	C	1.794962	0.096895	0.323817
C177	C	1.001866	-0.683142	-0.379405
C178	C	1.251866	-0.433142	-0.129405
C179	C	1.501866	-0.183142	0.120595
C180	C	1.751866	0.066858	0.370595
C181	C	0.915663	-0.743212	-0.285848
C182	C	1.165663	-0.493212	-0.035848
C183	C	1.415663	-0.243212	0.214152
C184	C	1.665663	0.006788	0.464152
C185	C	0.915643	-0.688606	-0.285841
C186	C	1.165643	-0.438606	-0.035841
C187	C	1.415643	-0.188606	0.214159
C188	C	1.665643	0.061394	0.464159
C189	C	0.958742	-0.658569	-0.332622
C190	C	1.208742	-0.408569	-0.082622
C191	C	1.458742	-0.158569	0.167378
C192	C	1.708742	0.091431	0.417378
C193	C	0.958732	-0.603979	-0.332595
C194	C	1.208732	-0.353979	-0.082595
C195	C	1.458732	-0.103979	0.167405
C196	C	1.708732	0.146021	0.417405
N197	N	1.001823	-0.573940	-0.379378
N198	N	1.251823	-0.323940	-0.129378
N199	N	1.501823	-0.073940	0.120622
N200	N	1.751823	0.176060	0.370622
C201	C	1.044938	-0.598503	-0.426172
C202	C	1.294938	-0.348503	-0.176172
C203	C	1.544938	-0.098503	0.073828
C204	C	1.794938	0.151497	0.323828
C205	C	0.958860	-0.937048	-0.332679
C206	C	1.208860	-0.687048	-0.082679
C207	C	1.458860	-0.437048	0.167321
C208	C	1.708860	-0.187048	0.417321
C209	C	0.958887	-0.991650	-0.332686
C210	C	1.208887	-0.741650	-0.082686
C211	C	1.458887	-0.491650	0.167314
C212	C	1.708887	-0.241650	0.417314
C213	C	1.045098	-0.986173	-0.426267
C214	C	1.295098	-0.736173	-0.176267
C215	C	1.545098	-0.486173	0.073733
C216	C	1.795098	-0.236173	0.323733
C217	C	1.045074	-0.931571	-0.426255
C218	C	1.295074	-0.681571	-0.176255
C219	C	1.545074	-0.431571	0.073745
C220	C	1.795074	-0.181571	0.323745
C221	C	1.001952	-0.907009	-0.379462
C222	C	1.251952	-0.657009	-0.129462
C223	C	1.501952	-0.407009	0.120538
C224	C	1.751952	-0.157009	0.370538
C225	C	1.044895	-0.483840	-0.426134
C226	C	1.294895	-0.233840	-0.176134
C227	C	1.544895	0.016160	0.073866
C228	C	1.794895	0.266160	0.323866
C229	C	1.044874	-0.429236	-0.426111
C230	C	1.294874	-0.179236	-0.176111
C231	C	1.544874	0.070764	0.073889
C232	C	1.794874	0.320764	0.323889
C233	C	0.958661	-0.434718	-0.332534
C234	C	1.208661	-0.184718	-0.082534
C235	C	1.458661	0.065282	0.167466
C236	C	1.708661	0.315282	0.417466
C237	C	0.958684	-0.489317	-0.332554
C238	C	1.208684	-0.239317	-0.082554
C239	C	1.458684	0.010683	0.167446
C240	C	1.708684	0.260683	0.417446
C241	C	1.001803	-0.513877	-0.379359
C242	C	1.251803	-0.263877	-0.129359
C243	C	1.501803	-0.013877	0.120641
C244	C	1.751803	0.236123	0.370641
O245	O	0.922099	-0.578024	-0.292804
O246	O	1.172099	-0.328024	-0.042804
O247	O	1.422099	-0.078024	0.207196
O248	O	1.672099	0.171976	0.457196
O249	O	1.081577	-0.567932	-0.465962
O250	O	1.331577	-0.317932	-0.215962
O251	O	1.581577	-0.067932	0.034038
O252	O	1.831577	0.182068	0.284038
C253	C	1.185120	-0.205044	-0.386774
C254	C	1.435120	0.044956	-0.136774
C255	C	1.685120	0.294956	0.113226
C256	C	1.935120	0.544956	0.363226
C257	C	1.263225	-0.202628	-0.389926
C258	C	1.513225	0.047372	-0.139926
C259	C	1.763225	0.297372	0.110074
C260	C	2.013225	0.547372	0.360074
C261	C	0.994507	-0.205425	-0.562660
C262	C	1.244507	0.044575	-0.312660
C263	C	1.494507	0.294575	-0.062660
C264	C	1.744507	0.544575	0.187340
C265	C	0.991385	-0.203172	-0.640765
C266	C	1.241385	0.046828	-0.390765
C267	C	1.491385	0.296828	-0.140765
C268	C	1.741385	0.546828	0.109235
C269	C	1.001950	-0.074334	-0.379451
C270	C	1.251950	0.175666	-0.129451
C271	C	1.501950	0.425666	0.120549
C272	C	1.751950	0.675666	0.370549
C273	C	1.001999	-0.016217	-0.379483
C274	C	1.251999	0.233783	-0.129483
C275	C	1.501999	0.483783	0.120517
C276	C	1.751999	0.733783	0.370517
C277	C	0.968990	-0.187052	-1.080220
C278	C	1.218990	0.062948	-0.830220
C279	C	1.468990	0.312948	-0.580220
C280	C	1.718990	0.562948	-0.330220
C281	C	0.971927	-0.189167	-1.006833
C282	C	1.221927	0.060833	-0.756833
C283	C	1.471927	0.310833	-0.506833
C284	C	1.721927	0.560833	-0.256833
C285	C	1.018303	-0.222276	-0.971933
C286	C	1.268303	0.027724	-0.721933
C287	C	1.518303	0.277724	-0.471933
C288	C	1.768303	0.527724	-0.221933
C289	C	1.061749	-0.253268	-1.010425
C290	C	1.311749	-0.003268	-0.760425
C291	C	1.561749	0.246732	-0.510425
C292	C	1.811749	0.496732	-0.260425
C293	C	1.058815	-0.251149	-1.083812
C294	C	1.308815	-0.001149	-0.833812
C295	C	1.558815	0.248851	-0.583812
C296	C	1.808815	0.498851	-0.333812
C297	C	1.031897	-0.232045	-0.752644
C298	C	1.281897	0.017955	-0.502644
C299	C	1.531897	0.267955	-0.252644
C300	C	1.781897	0.517955	-0.002644
C301	C	1.034826	-0.234162	-0.679252
C302	C	1.284826	0.015838	-0.429252
C303	C	1.534826	0.265838	-0.179252
C304	C	1.784826	0.515838	0.070748
C305	C	0.945005	-0.170061	-0.675664
C306	C	1.195005	0.079939	-0.425664
C307	C	1.445005	0.329939	-0.175664
C308	C	1.695005	0.579939	0.074336
C309	C	0.942072	-0.167948	-0.749052
C310	C	1.192072	0.082052	-0.499052
C311	C	1.442072	0.332052	-0.249052
C312	C	1.692072	0.582052	0.000948
C313	C	0.985521	-0.198937	-0.787538
C314	C	1.235521	0.051063	-0.537538
C315	C	1.485521	0.301063	-0.287538
C316	C	1.735521	0.551063	-0.037538
N317	N	1.021305	-0.224440	-0.896919
N318	N	1.271305	0.025560	-0.646919
N319	N	1.521305	0.275560	-0.396919
N320	N	1.771305	0.525560	-0.146919
N321	N	0.982522	-0.196770	-0.862551
N322	N	1.232522	0.053230	-0.612551
N323	N	1.482522	0.303230	-0.362551
N324	N	1.732522	0.553230	-0.112551
C325	C	1.009173	-0.215941	-0.196806
C326	C	1.259173	0.034059	0.053194
C327	C	1.509173	0.284059	0.303194
C328	C	1.759173	0.534059	0.553194
C329	C	1.012432	-0.218043	-0.118707
C330	C	1.262432	0.031957	0.131293
C331	C	1.512432	0.281957	0.381293
C332	C	1.762432	0.531957	0.631293
H333	H	0.406391	-0.261204	-0.313848
H334	H	0.656391	-0.011204	-0.063848
H335	H	0.906391	0.238796	0.186152
H336	H	1.156391	0.488796	0.436152
H337	H	0.936552	-0.163932	-0.975499
H338	H	1.186552	0.086068	-0.725499
H339	H	1.436552	0.336068	-0.475499
H340	H	1.686552	0.586068	-0.225499
F341	F	0.919630	-0.151813	-1.117356
F342	F	1.169630	0.098187	-0.867356
F343	F	1.419630	0.348187	-0.617356
F344	F	1.669630	0.598187	-0.367356
H345	H	0.923559	-0.414710	-0.294433
H346	H	1.173559	-0.164710	-0.044433
H347	H	1.423559	0.085290	0.205567
H348	H	1.673559	0.335290	0.455567
H349	H	0.880566	-0.767659	-0.247754
H350	H	1.130566	-0.517659	0.002246
H351	H	1.380566	-0.267659	0.252246
H352	H	1.630566	-0.017659	0.502246
H353	H	0.604408	-0.286060	-0.281546
H354	H	0.854408	-0.036060	-0.031546
H355	H	1.104408	0.213940	0.218454
H356	H	1.354408	0.463940	0.468454
F357	F	0.739851	-0.147117	-0.461922
F358	F	0.989851	0.102883	-0.211922
F359	F	1.239851	0.352883	0.038078
F360	F	1.489851	0.602883	0.288078
H361	H	1.094191	-0.276384	-1.115147
H362	H	1.344191	-0.026384	-0.865147
H363	H	1.594191	0.223616	-0.615147
H364	H	1.844191	0.473616	-0.365147
F365	F	0.892680	-0.132734	-0.786188
F366	F	1.142680	0.117266	-0.536188
F367	F	1.392680	0.367266	-0.286188
F368	F	1.642680	0.617266	-0.036188
F369	F	1.090946	-0.899608	-0.476046
F370	F	1.340946	-0.649608	-0.226046
F371	F	1.590946	-0.399608	0.023954
F372	F	1.840946	-0.149608	0.273954
F373	F	1.084185	-0.269405	-0.642111
F374	F	1.334185	-0.019405	-0.392111
F375	F	1.584185	0.230595	-0.142111
F376	F	1.834185	0.480595	0.107889
F377	F	0.264524	-0.274312	-0.296890
F378	F	0.514524	-0.024312	-0.046890
F379	F	0.764524	0.225688	0.203110
F380	F	1.014524	0.475688	0.453110
F381	F	0.869744	-0.662469	-0.236036
F382	F	1.119744	-0.412469	0.013964
F383	F	1.369744	-0.162469	0.263964
F384	F	1.619744	0.087531	0.513964
H385	H	0.737553	-0.281925	-0.286896
H386	H	0.987553	-0.031925	-0.036896
H387	H	1.237553	0.218075	0.213104
H388	H	1.487553	0.468075	0.463104
F389	F	1.133945	-0.645707	-0.522772
F390	F	1.383945	-0.395707	-0.272772
F391	F	1.633945	-0.145707	-0.022772
F392	F	1.883945	0.104293	0.227228
F393	F	0.588368	-0.151824	-0.455829
F394	F	0.838368	0.098176	-0.205829
F395	F	1.088368	0.348176	0.044171
F396	F	1.338368	0.598176	0.294171
H397	H	0.923799	-1.016101	-0.294585
H398	H	1.173799	-0.766101	-0.044585
H399	H	1.423799	-0.516101	0.205415
H400	H	1.673799	-0.266101	0.455415
H401	H	1.079973	-0.404782	-0.464206
H402	H	1.329973	-0.154782	-0.214206
H403	H	1.579973	0.095218	0.035794
H404	H	1.829973	0.345218	0.285794
H405	H	1.080002	-0.503830	-0.464252
H406	H	1.330002	-0.253830	-0.214252
H407	H	1.580002	-0.003830	0.035748
H408	H	1.830002	0.246170	0.285748
H409	H	0.923595	-0.513774	-0.294455
H410	H	1.173595	-0.263774	-0.044455
H411	H	1.423595	-0.013774	0.205545
H412	H	1.673595	0.236226	0.455545
H413	H	0.909632	-0.144830	-0.644321
H414	H	1.159632	0.105170	-0.394321
H415	H	1.409632	0.355170	-0.144321
H416	H	1.659632	0.605170	0.105679
H417	H	1.067274	-0.257281	-0.783970
H418	H	1.317274	-0.007281	-0.533970
H419	H	1.567274	0.242719	-0.283970
H420	H	1.817274	0.492719	-0.033970
H421	H	0.399966	-0.135353	-0.477250
H422	H	0.649966	0.114647	-0.227250
H423	H	0.899966	0.364647	0.022750
H424	H	1.149966	0.614647	0.272750
F425	F	1.111111	-0.288501	-0.973281
F426	F	1.361111	-0.038501	-0.723281
F427	F	1.611111	0.211499	-0.473281
F428	F	1.861111	0.461499	-0.223281
H429	H	0.266823	-0.139492	-0.471896
H430	H	0.516823	0.110508	-0.221896
H431	H	0.766823	0.360508	0.028104
H432	H	1.016823	0.610508	0.278104
F433	F	1.133986	-0.758401	-0.522805
F434	F	1.383986	-0.508401	-0.272805
F435	F	1.633986	-0.258401	-0.022805
F436	F	1.883986	-0.008401	0.227195
F437	F	1.090984	-1.012324	-0.476070
F438	F	1.340984	-0.762324	-0.226070
F439	F	1.590984	-0.512324	0.023930
F440	F	1.840984	-0.262324	0.273930
H441	H	0.923747	-0.917053	-0.294569
H442	H	1.173747	-0.667053	-0.044569
H443	H	1.423747	-0.417053	0.205431
H444	H	1.673747	-0.167053	0.455431
