data_functionalizedCrystal
_audit_creation_method	'MofGen! by Chris Wilmer'
_symmetry_space_group_name_H-M	'P1'
_symmetry_Int_Tables_number	1
_symmetry_cell_setting	triclinic
loop_
_symmetry_equiv_pos_as_xyz
  x,y,z
_cell_length_a	12.645331
_cell_length_b	19.121063
_cell_length_c	12.645323
_cell_angle_alpha	92.408124
_cell_angle_beta	89.977324
_cell_angle_gamma	92.467980
loop_
_atom_site_label
_atom_site_type_symbol
_atom_site_fract_x
_atom_site_fract_y
_atom_site_fract_z
Zn1	Zn	1.602654	-0.279627	-0.617388
Zn2	Zn	2.102654	0.220373	-0.117388
Zn3	Zn	1.594942	-0.397086	-0.447665
Zn4	Zn	2.094942	0.102914	0.052335
Zn5	Zn	1.425367	-0.279651	-0.440134
Zn6	Zn	1.925367	0.220349	0.059866
Zn7	Zn	1.417760	-0.397040	-0.624877
Zn8	Zn	1.917760	0.102960	-0.124877
O9	O	1.510181	-0.338351	-0.532516
O10	O	2.010181	0.161649	-0.032516
O11	O	1.749978	-0.295217	-0.594892
O12	O	2.249978	0.204783	-0.094892
O13	O	1.572404	-0.381537	-0.298321
O14	O	2.072404	0.118463	0.201679
O15	O	1.455295	-0.181363	-0.457361
O16	O	1.955295	0.318637	0.042639
O17	O	1.744312	-0.381514	-0.470197
O18	O	2.244312	0.118486	0.029803
O19	O	1.585547	-0.181346	-0.587589
O20	O	2.085547	0.318654	-0.087589
O21	O	1.447818	-0.295258	-0.292788
O22	O	1.947818	0.204742	0.207212
O23	O	1.276011	-0.295213	-0.464623
O24	O	1.776011	0.204787	0.035377
O25	O	1.442330	-0.381436	-0.772230
O26	O	1.942330	0.118564	-0.272230
O27	O	1.270422	-0.381459	-0.600353
O28	O	1.770422	0.118541	-0.100353
O29	O	1.578171	-0.295173	-0.766727
O30	O	2.078171	0.204827	-0.266727
O31	O	1.565027	-0.495364	-0.477459
O32	O	2.065027	0.004636	0.022541
O33	O	1.434852	-0.495330	-0.607656
O34	O	1.934852	0.004670	-0.107656
C35	C	1.234752	-0.338334	-0.532485
C36	C	1.734752	0.161666	-0.032485
C37	C	1.116921	-0.338344	-0.532497
C38	C	1.616921	0.161656	-0.032497
C39	C	1.498306	-0.520831	-0.544210
C40	C	1.998306	-0.020831	-0.044210
C41	C	1.493323	-0.598897	-0.549248
C42	C	1.993323	-0.098897	-0.049248
C43	C	0.952854	-0.283838	-0.447545
C44	C	1.452854	0.216162	0.052455
C45	C	1.075405	-0.283979	-0.447195
C46	C	1.575405	0.216021	0.052805
C47	C	1.067618	-0.412331	-0.506730
C48	C	1.567618	0.087669	-0.006730
C49	C	0.945039	-0.412033	-0.506155
C50	C	1.445039	0.087967	-0.006155
C51	C	0.950986	-0.319567	-0.643576
C52	C	1.450986	0.180433	-0.143576
C53	C	1.073698	-0.317914	-0.642847
C54	C	1.573698	0.182086	-0.142847
C55	C	1.558810	-0.635567	-0.483885
C56	C	2.058810	-0.135567	0.016115
C57	C	1.554130	-0.708918	-0.488629
C58	C	2.054130	-0.208918	0.011371
C59	C	1.483957	-0.745598	-0.558733
C60	C	1.983957	-0.245598	-0.058733
C61	C	1.418467	-0.708923	-0.624104
C62	C	1.918467	-0.208923	-0.124104
C63	C	1.423154	-0.635573	-0.619364
C64	C	1.923154	-0.135573	-0.119364
C65	C	1.466419	-0.967067	-0.576438
C66	C	1.966419	-0.467067	-0.076438
C67	C	1.461736	-1.040422	-0.581171
C68	C	1.961736	-0.540422	-0.081171
C69	C	1.597400	-1.040412	-0.445697
C70	C	2.097400	-0.540412	0.054303
C71	C	1.602076	-0.967061	-0.440959
C72	C	2.102076	-0.467061	0.059041
C73	C	1.536590	-0.930392	-0.506334
C74	C	2.036590	-0.430392	-0.006334
C75	C	1.479169	-0.820575	-0.563582
C76	C	1.979169	-0.320575	-0.063582
C77	C	1.541384	-0.855417	-0.501489
C78	C	2.041384	-0.355417	-0.001489
C79	C	1.786685	-0.338368	-0.532549
C80	C	2.286685	0.161632	-0.032549
C81	C	1.904514	-0.338375	-0.532563
C82	C	2.404514	0.161625	-0.032563
C83	C	1.510262	-0.338296	-0.809018
C84	C	2.010262	0.161704	-0.309018
C85	C	1.510297	-0.338273	-0.926847
C86	C	2.010297	0.161727	-0.426847
C87	C	1.522130	-0.155158	-0.520800
C88	C	2.022130	0.344842	-0.020800
C89	C	1.527222	-0.077092	-0.515807
C90	C	2.027222	0.422908	-0.015807
C91	C	1.424603	-0.392285	-1.097856
C92	C	1.924603	0.107715	-0.597856
C93	C	1.424801	-0.392553	-0.975313
C94	C	1.924801	0.107447	-0.475313
C95	C	1.620698	-0.358362	-0.972656
C96	C	2.120698	0.141638	-0.472656
C97	C	1.620225	-0.358700	-1.095276
C98	C	2.120225	0.141300	-0.595276
C99	C	1.486666	-0.263871	-1.089271
C100	C	1.986666	0.236129	-0.589271
C101	C	1.484145	-0.264317	-0.966693
C102	C	1.984145	0.235683	-0.466693
C103	C	1.510164	-0.338354	-0.257087
C104	C	2.010164	0.161646	0.242913
C105	C	1.510347	-0.338179	-0.139246
C106	C	2.010347	0.161821	0.360754
H107	H	1.109052	-0.229114	-0.462801
H108	H	1.609052	0.270886	0.037199
H109	H	1.106322	-0.263468	-0.662363
H110	H	1.606322	0.236532	-0.162363
Cl111	Cl	0.899215	-0.436656	-0.381072
Cl112	Cl	1.399215	0.063344	0.118928
Cl113	Cl	1.721752	-0.300460	-1.137365
Cl114	Cl	2.221752	0.199540	-0.637365
Cl115	Cl	1.113321	-0.437382	-0.383033
Cl116	Cl	1.613321	0.062618	0.116967
Cl117	Cl	1.298175	-0.373142	-0.927588
Cl118	Cl	1.798175	0.126858	-0.427588
H119	H	0.923516	-0.266557	-0.667927
H120	H	1.423516	0.233443	-0.167927
H121	H	1.101976	-0.354739	-0.709195
H122	H	1.601976	0.145261	-0.209195
H123	H	1.607456	-0.738771	-0.435402
H124	H	2.107456	-0.238771	0.064598
H125	H	0.919439	-0.359290	-0.706863
H126	H	1.419439	0.140710	-0.206863
Cl127	Cl	1.358738	-0.240929	-0.920280
Cl128	Cl	1.858738	0.259071	-0.420280
Cl129	Cl	1.679726	-1.086514	-0.363524
Cl130	Cl	2.179726	-0.586514	0.136476
H131	H	1.342333	-0.379835	-1.126531
H132	H	1.842333	0.120165	-0.626531
Cl133	Cl	1.647026	-0.589462	-0.395743
Cl134	Cl	2.147026	-0.089462	0.104257
Cl135	Cl	1.653254	-0.441350	-0.930604
Cl136	Cl	2.153254	0.058650	-0.430604
Cl137	Cl	1.364925	-0.235602	-1.135164
Cl138	Cl	1.864925	0.264398	-0.635164
H139	H	0.926948	-0.228808	-0.462935
H140	H	1.426948	0.271192	0.037065
Cl141	Cl	1.690312	-0.920954	-0.352840
Cl142	Cl	2.190312	-0.420954	0.147160
Cl143	Cl	1.721659	-0.299445	-0.923897
Cl144	Cl	2.221659	0.200555	-0.423897
H145	H	1.439685	-0.447029	-1.132188
H146	H	1.939685	0.052971	-0.632188
H147	H	1.094090	-0.454052	-0.566917
H148	H	1.594090	0.045948	-0.066917
Cl149	Cl	1.448397	-0.477596	-0.935503
Cl150	Cl	1.948397	0.022404	-0.435503
Cl151	Cl	1.119375	-0.303168	-0.320032
Cl152	Cl	1.619375	0.196832	0.179968
H153	H	1.404605	-1.070285	-0.638276
H154	H	1.904605	-0.570285	-0.138276
Cl155	Cl	1.574123	-0.198786	-0.915229
Cl156	Cl	2.074123	0.301214	-0.415229
Cl157	Cl	1.384091	-0.920979	-0.658622
Cl158	Cl	1.884091	-0.420979	-0.158622
H159	H	1.640858	-0.413021	-1.127372
H160	H	2.140858	0.086979	-0.627372
Cl161	Cl	0.895071	-0.476897	-0.597978
Cl162	Cl	1.395071	0.023103	-0.097978
H163	H	1.361335	-0.738794	-0.681188
H164	H	1.861335	-0.238794	-0.181188
Cl165	Cl	1.583174	-0.201634	-1.130071
Cl166	Cl	2.083174	0.298366	-0.630071
H167	H	1.422032	-0.850448	-0.620658
H168	H	1.922032	-0.350448	-0.120658
Cl169	Cl	1.629603	-0.809304	-0.413366
Cl170	Cl	2.129603	-0.309304	0.086634
Cl171	Cl	0.903982	-0.302803	-0.321127
Cl172	Cl	1.403982	0.197197	0.178873
Cl173	Cl	1.340827	-0.589474	-0.701542
Cl174	Cl	1.840827	-0.089474	-0.201542
