data_functionalizedCrystal
_audit_creation_method	'MofGen! by Chris Wilmer'
_symmetry_space_group_name_H-M	'P1'
_symmetry_Int_Tables_number	1
_symmetry_cell_setting	triclinic
loop_
_symmetry_equiv_pos_as_xyz
  x,y,z
_cell_length_a	13.032831
_cell_length_b	16.120444
_cell_length_c	16.120256
_cell_angle_alpha	95.616860
_cell_angle_beta	86.057501
_cell_angle_gamma	86.079645
loop_
_atom_site_label
_atom_site_type_symbol
_atom_site_fract_x
_atom_site_fract_y
_atom_site_fract_z
Zn1	Zn	1.523142	-0.519561	-0.651752
Zn2	Zn	1.773142	-0.269561	-0.401752
Zn3	Zn	2.023142	-0.019561	-0.151752
Zn4	Zn	2.273142	0.230439	0.098248
Zn5	Zn	1.523010	-0.652233	-0.519049
Zn6	Zn	1.773010	-0.402233	-0.269049
Zn7	Zn	2.023010	-0.152233	-0.019049
Zn8	Zn	2.273010	0.097767	0.230951
Zn9	Zn	1.359933	-0.495049	-0.494607
Zn10	Zn	1.609933	-0.245049	-0.244607
Zn11	Zn	1.859933	0.004951	0.005393
Zn12	Zn	2.109933	0.254951	0.255393
Zn13	Zn	1.341469	-0.639875	-0.639430
Zn14	Zn	1.591469	-0.389875	-0.389430
Zn15	Zn	1.841469	-0.139875	-0.139430
Zn16	Zn	2.091469	0.110125	0.110570
O17	O	1.436888	-0.576680	-0.576210
O18	O	1.686888	-0.326680	-0.326210
O19	O	1.936888	-0.076680	-0.076210
O20	O	2.186888	0.173320	0.173790
O21	O	1.667404	-0.552591	-0.649535
O22	O	1.917404	-0.302591	-0.399535
O23	O	2.167404	-0.052591	-0.149535
O24	O	2.417404	0.197409	0.100465
O25	O	1.509049	-0.626296	-0.399662
O26	O	1.759049	-0.376296	-0.149662
O27	O	2.009049	-0.126296	0.100338
O28	O	2.259049	0.123704	0.350338
O29	O	1.389366	-0.382166	-0.510381
O30	O	1.639366	-0.132166	-0.260381
O31	O	1.889366	0.117834	-0.010381
O32	O	2.139366	0.367834	0.239619
O33	O	1.667306	-0.650065	-0.552039
O34	O	1.917306	-0.400065	-0.302039
O35	O	2.167306	-0.150065	-0.052039
O36	O	2.417306	0.099935	0.197961
O37	O	1.509275	-0.400176	-0.625834
O38	O	1.759275	-0.150176	-0.375834
O39	O	2.009275	0.099824	-0.125834
O40	O	2.259275	0.349824	0.124166
O41	O	1.389237	-0.510813	-0.381704
O42	O	1.639237	-0.260813	-0.131704
O43	O	1.889237	-0.010813	0.118296
O44	O	2.139237	0.239187	0.368296
O45	O	1.213204	-0.498830	-0.498432
O46	O	1.463204	-0.248830	-0.248432
O47	O	1.713204	0.001170	0.001568
O48	O	1.963204	0.251170	0.251568
O49	O	1.357897	-0.629002	-0.757209
O50	O	1.607897	-0.379002	-0.507209
O51	O	1.857897	-0.129002	-0.257209
O52	O	2.107897	0.120998	-0.007209
O53	O	1.199639	-0.605233	-0.604832
O54	O	1.449639	-0.355233	-0.354832
O55	O	1.699639	-0.105233	-0.104832
O56	O	1.949639	0.144767	0.145168
O57	O	1.491371	-0.540608	-0.766263
O58	O	1.741371	-0.290608	-0.516263
O59	O	1.991371	-0.040608	-0.266263
O60	O	2.241371	0.209392	-0.016263
O61	O	1.491145	-0.766728	-0.540090
O62	O	1.741145	-0.516728	-0.290090
O63	O	1.991145	-0.266728	-0.040090
O64	O	2.241145	-0.016728	0.209910
O65	O	1.357768	-0.757649	-0.628533
O66	O	1.607768	-0.507649	-0.378533
O67	O	1.857768	-0.257649	-0.128533
O68	O	2.107768	-0.007649	0.121467
C69	C	1.169012	-0.548031	-0.547643
C70	C	1.419012	-0.298031	-0.297643
C71	C	1.669012	-0.048031	-0.047643
C72	C	1.919012	0.201969	0.202357
C73	C	1.054410	-0.535796	-0.535443
C74	C	1.304410	-0.285796	-0.285443
C75	C	1.554410	-0.035796	-0.035443
C76	C	1.804410	0.214204	0.214557
C77	C	0.996633	-0.583066	-0.582577
C78	C	1.246633	-0.333066	-0.332577
C79	C	1.496633	-0.083066	-0.082577
C80	C	1.746633	0.166934	0.167423
C81	C	0.878186	-0.570421	-0.569969
C82	C	1.128186	-0.320421	-0.319969
C83	C	1.378186	-0.070421	-0.069969
C84	C	1.628186	0.179579	0.180031
C85	C	1.422465	-0.792305	-0.585648
C86	C	1.672465	-0.542305	-0.335648
C87	C	1.922465	-0.292305	-0.085648
C88	C	2.172465	-0.042305	0.164352
C89	C	1.416388	-0.884561	-0.589723
C90	C	1.666388	-0.634561	-0.339723
C91	C	1.916388	-0.384561	-0.089723
C92	C	2.166388	-0.134561	0.160277
C93	C	1.468658	-1.099057	-0.555273
C94	C	1.718658	-0.849057	-0.305273
C95	C	1.968658	-0.599057	-0.055273
C96	C	2.218658	-0.349057	0.194727
C97	C	1.405309	-1.053473	-0.597175
C98	C	1.655309	-0.803473	-0.347175
C99	C	1.905309	-0.553473	-0.097175
C100	C	2.155309	-0.303473	0.152825
C101	C	1.411475	-0.959482	-0.593028
C102	C	1.661475	-0.709482	-0.343028
C103	C	1.911475	-0.459482	-0.093028
C104	C	2.161475	-0.209482	0.156972
C105	C	1.462494	-1.193056	-0.559419
C106	C	1.712494	-0.943056	-0.309419
C107	C	1.962494	-0.693056	-0.059419
C108	C	2.212494	-0.443056	0.190581
C109	C	1.705811	-0.605441	-0.604888
C110	C	1.955811	-0.355441	-0.354888
C111	C	2.205811	-0.105441	-0.104888
C112	C	2.455811	0.144559	0.145112
C113	C	1.820410	-0.617697	-0.617109
C114	C	2.070410	-0.367697	-0.367109
C115	C	2.320410	-0.117697	-0.117109
C116	C	2.570410	0.132303	0.132891
C117	C	1.422589	-0.586161	-0.792693
C118	C	1.672589	-0.336161	-0.542693
C119	C	1.922589	-0.086161	-0.292693
C120	C	2.172589	0.163839	-0.042693
C121	C	1.416496	-0.590201	-0.884946
C122	C	1.666496	-0.340201	-0.634946
C123	C	1.916496	-0.090201	-0.384946
C124	C	2.166496	0.159799	-0.134946
C125	C	1.451395	-0.360217	-0.566756
C126	C	1.701395	-0.110217	-0.316756
C127	C	1.951395	0.139783	-0.066756
C128	C	2.201395	0.389783	0.183244
C129	C	1.457577	-0.267973	-0.562727
C130	C	1.707577	-0.017973	-0.312727
C131	C	1.957577	0.232027	-0.062727
C132	C	2.207577	0.482027	0.187273
C133	C	1.468665	-0.555589	-1.099430
C134	C	1.718665	-0.305589	-0.849430
C135	C	1.968665	-0.055589	-0.599430
C136	C	2.218665	0.194411	-0.349430
C137	C	1.405338	-0.597540	-1.053842
C138	C	1.655338	-0.347540	-0.803842
C139	C	1.905338	-0.097540	-0.553842
C140	C	2.155338	0.152460	-0.303842
C141	C	1.411548	-0.593455	-0.959859
C142	C	1.661548	-0.343455	-0.709859
C143	C	1.911548	-0.093455	-0.459859
C144	C	2.161548	0.156545	-0.209859
C145	C	1.462457	-0.559672	-1.193421
C146	C	1.712457	-0.309672	-0.943421
C147	C	1.962457	-0.059672	-0.693421
C148	C	2.212457	0.190328	-0.443421
C149	C	1.451196	-0.567182	-0.360572
C150	C	1.701196	-0.317182	-0.110572
C151	C	1.951196	-0.067182	0.139428
C152	C	2.201196	0.182818	0.389428
C153	C	1.457504	-0.562929	-0.268331
C154	C	1.707504	-0.312929	-0.018331
C155	C	1.957504	-0.062929	0.231669
C156	C	2.207504	0.187071	0.481669
H157	H	1.034857	-0.632893	-0.632267
H158	H	1.284857	-0.382893	-0.382267
H159	H	1.534857	-0.132893	-0.132267
H160	H	1.784857	0.117107	0.117733
Cl161	Cl	1.559554	-0.495394	-1.050713
Cl162	Cl	1.809554	-0.245394	-0.800713
Cl163	Cl	2.059554	0.004606	-0.550713
Cl164	Cl	2.309554	0.254606	-0.300713
Cl165	Cl	1.314421	-1.102200	-0.657367
Cl166	Cl	1.564421	-0.852200	-0.407367
Cl167	Cl	1.814421	-0.602200	-0.157367
Cl168	Cl	2.064421	-0.352200	0.092633
Cl169	Cl	1.314433	-0.657729	-1.102556
Cl170	Cl	1.564433	-0.407729	-0.852556
Cl171	Cl	1.814433	-0.157729	-0.602556
Cl172	Cl	2.064433	0.092271	-0.352556
Cl173	Cl	0.819185	-0.493477	-0.493253
Cl174	Cl	1.069185	-0.243477	-0.243253
Cl175	Cl	1.319185	0.006523	0.006747
Cl176	Cl	1.569185	0.256523	0.256747
Cl177	Cl	0.879408	-0.694625	-0.693841
Cl178	Cl	1.129408	-0.444625	-0.443841
Cl179	Cl	1.379408	-0.194625	-0.193841
Cl180	Cl	1.629408	0.055375	0.056159
H181	H	1.016186	-0.485963	-0.485759
H182	H	1.266186	-0.235963	-0.235759
H183	H	1.516186	0.014037	0.014241
H184	H	1.766186	0.264037	0.264241
H185	H	1.527518	-1.067497	-0.516287
H186	H	1.777518	-0.817497	-0.266287
H187	H	2.027518	-0.567497	-0.016287
H188	H	2.277518	-0.317497	0.233713
