data_functionalizedCrystal
_audit_creation_method	'MofGen! by Chris Wilmer'
_symmetry_space_group_name_H-M	'P1'
_symmetry_Int_Tables_number	1
_symmetry_cell_setting	triclinic
loop_
_symmetry_equiv_pos_as_xyz
  x,y,z
_cell_length_a	19.188930
_cell_length_b	18.266242
_cell_length_c	19.188940
_cell_angle_alpha	89.993204
_cell_angle_beta	96.853253
_cell_angle_gamma	90.022918
loop_
_atom_site_label
_atom_site_type_symbol
_atom_site_fract_x
_atom_site_fract_y
_atom_site_fract_z
O1	O	0.926152	0.061117	-0.087168
O2	O	1.176152	0.311117	0.162832
O3	O	1.426152	0.561117	0.412832
O4	O	1.676152	0.811117	0.662832
O5	O	0.722841	0.061067	-0.098903
O6	O	0.972841	0.311067	0.151097
O7	O	1.222841	0.561067	0.401097
O8	O	1.472841	0.811067	0.651097
O9	O	0.830360	0.061088	0.008620
O10	O	1.080360	0.311088	0.258620
O11	O	1.330360	0.561088	0.508620
O12	O	1.580360	0.811088	0.758620
O13	O	0.818633	0.061096	-0.194691
O14	O	1.068633	0.311096	0.055309
O15	O	1.318633	0.561096	0.305309
O16	O	1.568633	0.811096	0.555309
O17	O	0.830342	-0.060674	0.008625
O18	O	1.080342	0.189326	0.258625
O19	O	1.330342	0.439326	0.508625
O20	O	1.580342	0.689326	0.758625
O21	O	0.722823	-0.060695	-0.098897
O22	O	0.972823	0.189305	0.151103
O23	O	1.222823	0.439305	0.401103
O24	O	1.472823	0.689305	0.651103
O25	O	0.926134	-0.060645	-0.087163
O26	O	1.176134	0.189355	0.162837
O27	O	1.426134	0.439355	0.412837
O28	O	1.676134	0.689355	0.662837
Zn29	Zn	0.824476	-0.080002	-0.093029
Zn30	Zn	1.074476	0.169998	0.156971
Zn31	Zn	1.324476	0.419998	0.406971
Zn32	Zn	1.574476	0.669998	0.656971
Zn33	Zn	0.824500	0.080424	-0.093036
Zn34	Zn	1.074500	0.330424	0.156964
Zn35	Zn	1.324500	0.580424	0.406964
Zn36	Zn	1.574500	0.830424	0.656964
O37	O	0.818615	-0.060666	-0.194685
O38	O	1.068615	0.189334	0.055315
O39	O	1.318615	0.439334	0.305315
O40	O	1.568615	0.689334	0.555315
C41	C	0.696821	0.000179	-0.098520
C42	C	0.946821	0.250179	0.151480
C43	C	1.196821	0.500179	0.401480
C44	C	1.446821	0.750179	0.651480
C45	C	0.619317	0.000160	-0.097379
C46	C	0.869317	0.250160	0.152621
C47	C	1.119317	0.500160	0.402621
C48	C	1.369317	0.750160	0.652621
N49	N	0.824465	-0.189489	-0.093024
N50	N	1.074465	0.060511	0.156976
N51	N	1.324465	0.310511	0.406976
N52	N	1.574465	0.560511	0.656976
C53	C	0.574395	0.000174	-0.160470
C54	C	0.824395	0.250174	0.089530
C55	C	1.074395	0.500174	0.339530
C56	C	1.324395	0.750174	0.589530
C57	C	0.501571	0.000182	-0.159398
C58	C	0.751571	0.250182	0.090602
C59	C	1.001571	0.500182	0.340602
C60	C	1.251571	0.750182	0.590602
C61	C	0.473672	0.000191	-0.095232
C62	C	0.723672	0.250191	0.154768
C63	C	0.973672	0.500191	0.404768
C64	C	1.223672	0.750191	0.654768
C65	C	0.518604	0.000173	-0.032133
C66	C	0.768604	0.250173	0.217867
C67	C	1.018604	0.500173	0.467867
C68	C	1.268604	0.750173	0.717867
C69	C	0.591426	0.000157	-0.033207
C70	C	0.841426	0.250157	0.216793
C71	C	1.091426	0.500157	0.466793
C72	C	1.341426	0.750157	0.716793
N73	N	0.365697	0.041659	-0.046187
N74	N	0.615697	0.291659	0.203813
N75	N	0.865697	0.541659	0.453813
N76	N	1.115697	0.791659	0.703813
N77	N	0.296518	0.041675	-0.045172
N78	N	0.546518	0.291675	0.204828
N79	N	0.796518	0.541675	0.454828
N80	N	1.046518	0.791675	0.704828
C81	C	0.254264	0.000236	-0.091994
C82	C	0.504264	0.250236	0.158006
C83	C	0.754264	0.500236	0.408006
C84	C	1.004264	0.750236	0.658006
N85	N	0.283800	-0.041212	-0.139881
N86	N	0.533800	0.208788	0.110119
N87	N	0.783800	0.458788	0.360119
N88	N	1.033800	0.708788	0.610119
N89	N	0.352985	-0.041225	-0.140898
N90	N	0.602985	0.208775	0.109102
N91	N	0.852985	0.458775	0.359102
N92	N	1.102985	0.708775	0.609102
C93	C	0.394710	0.000207	-0.094061
C94	C	0.644710	0.250207	0.155939
C95	C	0.894710	0.500207	0.405939
C96	C	1.144710	0.750207	0.655939
C97	C	0.130377	0.000257	-0.153927
C98	C	0.380377	0.250257	0.096073
C99	C	0.630377	0.500257	0.346073
C100	C	0.880377	0.750257	0.596073
C101	C	0.057553	0.000261	-0.152853
C102	C	0.307553	0.250261	0.097147
C103	C	0.557553	0.500261	0.347147
C104	C	0.807553	0.750261	0.597147
C105	C	0.074587	0.000259	-0.025586
C106	C	0.324587	0.250259	0.224414
C107	C	0.574587	0.500259	0.474414
C108	C	0.824587	0.750259	0.724414
C109	C	0.147410	0.000248	-0.026662
C110	C	0.397410	0.250248	0.223338
C111	C	0.647410	0.500248	0.473338
C112	C	0.897410	0.750248	0.723338
C113	C	0.175301	0.000251	-0.090835
C114	C	0.425301	0.250251	0.159165
C115	C	0.675301	0.500251	0.409165
C116	C	0.925301	0.750251	0.659165
C117	C	0.872090	-0.227789	-0.045436
C118	C	1.122090	0.022211	0.204564
C119	C	1.372090	0.272211	0.454564
C120	C	1.622090	0.522211	0.704564
C121	C	0.872094	-0.304434	-0.045433
C122	C	1.122094	-0.054434	0.204567
C123	C	1.372094	0.195566	0.454567
C124	C	1.622094	0.445566	0.704567
C125	C	0.824480	-0.342776	-0.093029
C126	C	1.074480	-0.092776	0.156971
C127	C	1.324480	0.157224	0.406971
C128	C	1.574480	0.407224	0.656971
C129	C	0.776846	-0.304467	-0.140620
C130	C	1.026846	-0.054467	0.109380
C131	C	1.276846	0.195533	0.359380
C132	C	1.526846	0.445533	0.609380
C133	C	0.776838	-0.227824	-0.140618
C134	C	1.026838	0.022176	0.109382
C135	C	1.276838	0.272176	0.359382
C136	C	1.526838	0.522176	0.609382
N137	N	0.815407	-0.463107	-0.154836
N138	N	1.065407	-0.213107	0.095164
N139	N	1.315407	0.036893	0.345164
N140	N	1.565407	0.286893	0.595164
N141	N	0.815418	-0.535916	-0.154837
N142	N	1.065418	-0.285916	0.095163
N143	N	1.315418	-0.035916	0.345163
N144	N	1.565418	0.214084	0.595163
C145	C	0.824500	-0.573699	-0.093039
C146	C	1.074500	-0.323699	0.156961
C147	C	1.324500	-0.073699	0.406961
C148	C	1.574500	0.176301	0.656961
N149	N	0.833583	-0.535923	-0.031239
N150	N	1.083583	-0.285923	0.218761
N151	N	1.333583	-0.035923	0.468761
N152	N	1.583583	0.214077	0.718761
N153	N	0.833575	-0.463108	-0.031240
N154	N	1.083575	-0.213108	0.218760
N155	N	1.333575	0.036892	0.468760
N156	N	1.583575	0.286892	0.718760
C157	C	0.824483	-0.425883	-0.093037
C158	C	1.074483	-0.175883	0.156963
C159	C	1.324483	0.074117	0.406963
C160	C	1.574483	0.324117	0.656963
C161	C	0.872132	-0.695105	-0.045444
C162	C	1.122132	-0.445105	0.204556
C163	C	1.372132	-0.195105	0.454556
C164	C	1.622132	0.054895	0.704556
C165	C	0.872132	-0.771752	-0.045440
C166	C	1.122132	-0.521752	0.204560
C167	C	1.372132	-0.271752	0.454560
C168	C	1.622132	-0.021752	0.704560
C169	C	0.776887	-0.771784	-0.140634
C170	C	1.026887	-0.521784	0.109366
C171	C	1.276887	-0.271784	0.359366
C172	C	1.526887	-0.021784	0.609366
C173	C	0.776884	-0.695139	-0.140632
C174	C	1.026884	-0.445139	0.109368
C175	C	1.276884	-0.195139	0.359368
C176	C	1.526884	0.054861	0.609368
C177	C	0.824510	-0.656804	-0.093038
C178	C	1.074510	-0.406804	0.156962
C179	C	1.324510	-0.156804	0.406962
C180	C	1.574510	0.093196	0.656962
C181	C	0.952154	0.000244	-0.087546
C182	C	1.202154	0.250244	0.162454
C183	C	1.452154	0.500244	0.412454
C184	C	1.702154	0.750244	0.662454
C185	C	1.029659	0.000268	-0.088686
C186	C	1.279659	0.250268	0.161314
C187	C	1.529659	0.500268	0.411314
C188	C	1.779659	0.750268	0.661314
C189	C	0.829970	0.000207	0.034633
C190	C	1.079970	0.250207	0.284633
C191	C	1.329970	0.500207	0.534633
C192	C	1.579970	0.750207	0.784633
C193	C	0.828827	0.000207	0.112138
C194	C	1.078827	0.250207	0.362138
C195	C	1.328827	0.500207	0.612138
C196	C	1.578827	0.750207	0.862138
N197	N	0.824517	0.189911	-0.093036
N198	N	1.074517	0.439911	0.156964
N199	N	1.324517	0.689911	0.406964
N200	N	1.574517	0.939911	0.656964
C201	C	0.819005	0.000217	-0.220699
C202	C	1.069005	0.250217	0.029301
C203	C	1.319005	0.500217	0.279301
C204	C	1.569005	0.750217	0.529301
C205	C	0.820148	0.000221	-0.298203
C206	C	1.070148	0.250221	-0.048203
C207	C	1.320148	0.500221	0.201797
C208	C	1.570148	0.750221	0.451797
C209	C	0.820683	-0.066150	0.665400
C210	C	1.070683	0.183850	0.915400
C211	C	1.320683	0.433850	1.165400
C212	C	1.570683	0.683850	1.415400
C213	C	0.821749	-0.066154	0.592575
C214	C	1.071749	0.183846	0.842575
C215	C	1.321749	0.433846	1.092575
C216	C	1.571749	0.683846	1.342575
C217	C	0.822296	0.000218	0.556153
C218	C	1.072296	0.250218	0.806153
C219	C	1.322296	0.500218	1.056153
C220	C	1.572296	0.750218	1.306153
C221	C	0.821758	0.066598	0.592558
C222	C	1.071758	0.316598	0.842558
C223	C	1.321758	0.566598	1.092558
C224	C	1.571758	0.816598	1.342558
C225	C	0.820684	0.066600	0.665380
C226	C	1.070684	0.316600	0.915380
C227	C	1.320684	0.566600	1.165380
C228	C	1.570684	0.816600	1.415380
N229	N	0.863719	0.049630	0.447127
N230	N	1.113719	0.299630	0.697127
N231	N	1.363719	0.549630	0.947127
N232	N	1.613719	0.799630	1.197127
N233	N	0.864741	0.049623	0.377949
N234	N	1.114741	0.299623	0.627949
N235	N	1.364741	0.549623	0.877949
N236	N	1.614741	0.799623	1.127949
C237	C	0.825530	0.000216	0.336744
C238	C	1.075530	0.250216	0.586744
C239	C	1.325530	0.500216	0.836744
C240	C	1.575530	0.750216	1.086744
N241	N	0.785267	-0.049196	0.367331
N242	N	1.035267	0.200804	0.617331
N243	N	1.285267	0.450804	0.867331
N244	N	1.535267	0.700804	1.117331
N245	N	0.784248	-0.049192	0.436515
N246	N	1.034248	0.200808	0.686515
N247	N	1.284248	0.450808	0.936515
N248	N	1.534248	0.700808	1.186515
C249	C	0.823460	0.000223	0.477189
C250	C	1.073460	0.250223	0.727189
C251	C	1.323460	0.500223	0.977189
C252	C	1.573460	0.750223	1.227189
C253	C	0.827219	-0.066164	0.221382
C254	C	1.077219	0.183836	0.471382
C255	C	1.327219	0.433836	0.721382
C256	C	1.577219	0.683836	0.971382
C257	C	0.828282	-0.066166	0.148555
C258	C	1.078282	0.183834	0.398555
C259	C	1.328282	0.433834	0.648555
C260	C	1.578282	0.683834	0.898555
C261	C	0.828297	0.066589	0.148541
C262	C	1.078297	0.316589	0.398541
C263	C	1.328297	0.566589	0.648541
C264	C	1.578297	0.816589	0.898541
C265	C	0.827228	0.066588	0.221365
C266	C	1.077228	0.316588	0.471365
C267	C	1.327228	0.566588	0.721365
C268	C	1.577228	0.816588	0.971365
C269	C	0.826692	0.000209	0.257781
C270	C	1.076692	0.250209	0.507781
C271	C	1.326692	0.500209	0.757781
C272	C	1.576692	0.750209	1.007781
H273	H	0.597098	0.000178	-0.212724
H274	H	0.847098	0.250178	0.037276
H275	H	1.097098	0.500178	0.287276
H276	H	1.347098	0.750178	0.537276
F277	F	0.726148	-0.187061	-0.191269
F278	F	0.976148	0.062939	0.058731
F279	F	1.226148	0.312939	0.308731
F280	F	1.476148	0.562939	0.558731
F281	F	0.044900	0.000261	0.042704
F282	F	0.294900	0.250261	0.292704
F283	F	0.544900	0.500261	0.542704
F284	F	0.794900	0.750261	0.792704
F285	F	0.639237	0.000142	0.033946
F286	F	0.889237	0.250142	0.283946
F287	F	1.139237	0.500142	0.533946
F288	F	1.389237	0.750142	0.783946
F289	F	0.822323	-0.136799	0.553831
F290	F	1.072323	0.113201	0.803831
F291	F	1.322323	0.363201	1.053831
F292	F	1.572323	0.613201	1.303831
H293	H	0.738106	-0.663953	-0.179385
H294	H	0.988106	-0.413953	0.070615
H295	H	1.238106	-0.163953	0.320615
H296	H	1.488106	0.086047	0.570615
H297	H	0.020977	0.000268	-0.204231
H298	H	0.270977	0.250268	0.045769
H299	H	0.520977	0.500268	0.295769
H300	H	0.770977	0.750268	0.545769
H301	H	0.910868	-0.196579	-0.006681
H302	H	1.160868	0.053421	0.243319
H303	H	1.410868	0.303421	0.493319
H304	H	1.660868	0.553421	0.743319
H305	H	0.910910	-0.663892	-0.006688
H306	H	1.160910	-0.413892	0.243312
H307	H	1.410910	-0.163892	0.493312
H308	H	1.660910	0.086108	0.743312
F309	F	0.488911	0.000178	0.036156
F310	F	0.738911	0.250178	0.286156
F311	F	0.988911	0.500178	0.536156
F312	F	1.238911	0.750178	0.786156
F313	F	0.922819	-0.812515	0.005215
F314	F	1.172819	-0.562515	0.255215
F315	F	1.422819	-0.312515	0.505215
F316	F	1.672819	-0.062515	0.755215
H317	H	0.910877	-0.335623	-0.006680
H318	H	1.160877	-0.085623	0.243320
H319	H	1.410877	0.164377	0.493320
H320	H	1.660877	0.414377	0.743320
H321	H	0.183987	0.000240	0.024713
H322	H	0.433987	0.250240	0.274713
H323	H	0.683987	0.500240	0.524713
H324	H	0.933987	0.750240	0.774713
F325	F	0.826665	0.137231	0.260104
F326	F	1.076665	0.387231	0.510104
F327	F	1.326665	0.637231	0.760104
F328	F	1.576665	0.887231	1.010104
H329	H	0.828734	0.120630	0.118885
H330	H	1.078734	0.370630	0.368885
H331	H	1.328734	0.620630	0.618885
H332	H	1.578734	0.870630	0.868885
H333	H	0.820246	-0.120201	0.695046
H334	H	1.070246	0.129799	0.945046
H335	H	1.320246	0.379799	1.195046
H336	H	1.570246	0.629799	1.445046
F337	F	0.453753	0.000195	-0.226550
F338	F	0.703753	0.250195	0.023450
F339	F	0.953753	0.500195	0.273450
F340	F	1.203753	0.750195	0.523450
F341	F	0.726209	-0.812587	-0.191285
F342	F	0.976209	-0.562587	0.058715
F343	F	1.226209	-0.312587	0.308715
F344	F	1.476209	-0.062587	0.558715
F345	F	0.160063	0.000255	-0.222224
F346	F	0.410063	0.250255	0.027776
F347	F	0.660063	0.500255	0.277776
F348	F	0.910063	0.750255	0.527776
F349	F	0.726170	-0.345274	-0.191274
F350	F	0.976170	-0.095274	0.058726
F351	F	1.226170	0.154726	0.308726
F352	F	1.476170	0.404726	0.558726
H353	H	0.822200	0.120638	0.562898
H354	H	1.072200	0.370638	0.812898
H355	H	1.322200	0.620638	1.062898
H356	H	1.572200	0.870638	1.312898
F357	F	0.820116	0.137245	0.704118
F358	F	1.070116	0.387245	0.954118
F359	F	1.320116	0.637245	1.204118
F360	F	1.570116	0.887245	1.454118
F361	F	0.826646	-0.136809	0.260141
F362	F	1.076646	0.113191	0.510141
F363	F	1.326646	0.363191	0.760141
F364	F	1.576646	0.613191	1.010141
H365	H	0.828715	-0.120216	0.118922
H366	H	1.078715	0.129784	0.368922
H367	H	1.328715	0.379784	0.618922
H368	H	1.578715	0.629784	0.868922
