data_functionalizedCrystal
_audit_creation_method	'MofGen! by Chris Wilmer'
_symmetry_space_group_name_H-M	'P1'
_symmetry_Int_Tables_number	1
_symmetry_cell_setting	triclinic
loop_
_symmetry_equiv_pos_as_xyz
  x,y,z
_cell_length_a	14.971486
_cell_length_b	27.732025
_cell_length_c	14.048226
_cell_angle_alpha	90.008094
_cell_angle_beta	89.998499
_cell_angle_gamma	83.123799
loop_
_atom_site_label
_atom_site_type_symbol
_atom_site_fract_x
_atom_site_fract_y
_atom_site_fract_z
O1	O	1.185942	0.062992	-0.079020
O2	O	1.685942	0.562992	0.420980
O3	O	0.925422	0.070535	-0.079042
O4	O	1.425422	0.570535	0.420958
O5	O	1.063784	-0.003597	-0.079059
O6	O	1.563784	0.496403	0.420941
O7	O	1.047580	0.137123	-0.079002
O8	O	1.547580	0.637123	0.420998
O9	O	1.063767	-0.003601	0.079262
O10	O	1.563767	0.496399	0.579262
O11	O	0.925405	0.070530	0.079280
O12	O	1.425405	0.570530	0.579280
O13	O	1.185926	0.062987	0.079302
O14	O	1.685926	0.562987	0.579302
Zn15	Zn	1.055663	0.066758	0.104428
Zn16	Zn	1.555663	0.566758	0.604428
Zn17	Zn	1.055685	0.066764	-0.104168
Zn18	Zn	1.555685	0.566764	0.395832
O19	O	1.047564	0.137119	0.079319
O20	O	1.547564	0.637119	0.579319
C21	C	0.892094	0.070195	0.000115
C22	C	1.392094	0.570195	0.500115
C23	C	0.792813	0.069184	0.000105
C24	C	1.292813	0.569184	0.500105
C25	C	0.734893	0.112735	0.000124
C26	C	1.234893	0.612735	0.500124
C27	C	0.641609	0.111782	0.000138
C28	C	1.141609	0.611782	0.500138
C29	C	0.606247	0.067278	0.000126
C30	C	1.106247	0.567278	0.500126
C31	C	0.664174	0.023725	0.000110
C32	C	1.164174	0.523725	0.500110
C33	C	0.757456	0.024678	0.000103
C34	C	1.257456	0.524678	0.500103
C35	C	0.469743	0.021741	0.000122
C36	C	0.969743	0.521741	0.500122
C37	C	0.376454	0.020787	0.000128
C38	C	0.876454	0.520787	0.500128
C39	C	0.353896	0.108845	0.000157
C40	C	0.853896	0.608845	0.500157
C41	C	0.447178	0.109798	0.000150
C42	C	0.947178	0.609798	0.500150
C43	C	0.505099	0.066244	0.000132
C44	C	1.005099	0.566244	0.500132
C45	C	1.063439	-0.021608	0.000092
C46	C	1.563439	0.478392	0.500092
C47	C	1.062424	-0.075268	0.000064
C48	C	1.562424	0.424732	0.500064
C49	C	1.055222	-0.458464	-0.086182
C50	C	1.555222	0.041536	0.413818
C51	C	1.059020	-0.256787	-0.086213
C52	C	1.559020	0.243213	0.413787
O53	O	1.059555	-0.230716	-0.159611
O54	O	1.559555	0.269284	0.340389
N55	N	1.059486	-0.231566	0.000086
N56	N	1.559486	0.268434	0.500086
C57	C	1.059008	-0.256768	0.086398
C58	C	1.559008	0.243232	0.586398
O59	O	1.059501	-0.230689	0.159799
O60	O	1.559501	0.269311	0.659799
C61	C	1.055217	-0.458445	0.086427
C62	C	1.555217	0.041555	0.586427
C63	C	1.054742	-0.483662	0.000123
C64	C	1.554742	0.016338	0.500123
C65	C	1.054748	-0.483682	-0.172479
C66	C	1.554748	0.016318	0.327521
C67	C	1.053794	-0.534098	-0.172471
C68	C	1.553794	-0.034098	0.327529
C69	C	1.053314	-0.559296	-0.086165
C70	C	1.553314	-0.059296	0.413835
C71	C	1.053788	-0.534078	0.000132
C72	C	1.553788	-0.034078	0.500132
C73	C	1.054745	-0.483646	0.172739
C74	C	1.554745	0.016354	0.672739
C75	C	1.053800	-0.534068	0.172738
C76	C	1.553800	-0.034068	0.672738
C77	C	1.053325	-0.559286	0.086434
C78	C	1.553325	-0.059286	0.586434
C79	C	1.052353	-0.609692	0.086446
C80	C	1.552353	-0.109692	0.586446
N81	N	1.051887	-0.634913	0.000147
N82	N	1.551887	-0.134913	0.500147
C83	C	1.052367	-0.609715	-0.086158
C84	C	1.552367	-0.109715	0.413842
C85	C	1.060997	-0.150885	0.086377
C86	C	1.560997	0.349115	0.586377
C87	C	1.061943	-0.100466	0.086369
C88	C	1.561943	0.399534	0.586369
C89	C	1.061957	-0.100489	-0.086242
C90	C	1.561957	0.399511	0.413758
C91	C	1.061004	-0.150908	-0.086233
C92	C	1.561004	0.349092	0.413767
C93	C	1.060531	-0.176106	0.000078
C94	C	1.560531	0.323894	0.500078
C95	C	1.050362	-0.715592	-0.086134
C96	C	1.550362	-0.215592	0.413866
C97	C	1.049404	-0.766012	-0.086118
C98	C	1.549404	-0.266012	0.413882
C99	C	1.049396	-0.765985	0.086492
C100	C	1.549396	-0.265985	0.586492
C101	C	1.050349	-0.715569	0.086477
C102	C	1.550349	-0.215569	0.586477
C103	C	1.050835	-0.690374	0.000156
C104	C	1.550835	-0.190374	0.500156
O105	O	1.051828	-0.635796	0.159805
O106	O	1.551828	-0.135796	0.659805
O107	O	1.051895	-0.635804	-0.159549
O108	O	1.551895	-0.135804	0.340451
C109	C	1.056177	-0.408048	-0.086191
C110	C	1.556177	0.091952	0.413809
C111	C	1.056651	-0.382831	0.000106
C112	C	1.556651	0.117169	0.500106
C113	C	1.056170	-0.408029	0.086412
C114	C	1.556170	0.091971	0.586412
C115	C	1.057597	-0.332412	0.000099
C116	C	1.557597	0.167588	0.500099
C117	C	1.058077	-0.307214	-0.086206
C118	C	1.558077	0.192786	0.413794
C119	C	1.057611	-0.332435	-0.172505
C120	C	1.557611	0.167565	0.327495
C121	C	1.056657	-0.382851	-0.172496
C122	C	1.556657	0.117149	0.327504
C123	C	1.056636	-0.382808	0.172710
C124	C	1.556636	0.117192	0.672710
C125	C	1.057589	-0.332392	0.172695
C126	C	1.557589	0.167608	0.672695
C127	C	1.058070	-0.307194	0.086389
C128	C	1.558070	0.192806	0.586389
C129	C	1.219253	0.063327	0.000142
C130	C	1.719253	0.563327	0.500142
C131	C	1.318534	0.064338	0.000146
C132	C	1.818534	0.564338	0.500146
C133	C	1.047909	0.155130	0.000166
C134	C	1.547909	0.655130	0.500166
C135	C	1.048924	0.208790	0.000188
C136	C	1.548924	0.708790	0.500188
N137	N	1.055655	0.066754	0.246788
N138	N	1.555655	0.566754	0.746788
N139	N	1.055700	0.066764	-0.246528
N140	N	1.555700	0.566764	0.253472
C141	C	1.116940	0.033942	0.296599
C142	C	1.616940	0.533942	0.796599
C143	C	1.116946	0.033942	0.396256
C144	C	1.616946	0.533942	0.896256
C145	C	1.055670	0.066756	0.446102
C146	C	1.555670	0.566756	0.946102
C147	C	0.994378	0.099570	0.396284
C148	C	1.494378	0.599570	0.896284
C149	C	0.994369	0.099567	0.296628
C150	C	1.494369	0.599567	0.796628
C151	C	0.994404	0.099573	0.603999
C152	C	1.494404	0.599573	1.103999
C153	C	0.994414	0.099576	0.703661
C154	C	1.494414	0.599576	1.203661
C155	C	1.116982	0.033948	0.703626
C156	C	1.616982	0.533948	1.203626
C157	C	1.116972	0.033945	0.603971
C158	C	1.616972	0.533945	1.103971
C159	C	1.055681	0.066759	0.554160
C160	C	1.555681	0.566759	1.054160
H161	H	1.049014	-0.786542	-0.156400
H162	H	1.549014	-0.286542	0.343600
Br163	Br	1.062592	-0.066281	-0.203370
Br164	Br	1.562592	0.433719	0.296630
H165	H	1.050700	-0.695033	0.156753
H166	H	1.550700	-0.195033	0.656753
Br167	Br	0.782875	0.173136	0.000130
Br168	Br	1.282875	0.673136	0.500130
Br169	Br	0.328462	-0.039611	0.000143
Br170	Br	0.828462	0.460389	0.500143
Br171	Br	1.058262	-0.298227	-0.289633
Br172	Br	1.558262	0.201773	0.210367
Br173	Br	0.836064	-0.034429	0.000086
Br174	Br	1.336064	0.465571	0.500086
Br175	Br	1.060360	-0.185127	-0.203364
Br176	Br	1.560360	0.314873	0.296636
Br177	Br	1.062562	-0.066246	0.203501
Br178	Br	1.562562	0.433754	0.703501
Br179	Br	1.051023	-0.681407	-0.203285
Br180	Br	1.551023	-0.181407	0.296715
Br181	Br	0.495170	0.170197	0.000152
Br182	Br	0.995170	0.670197	0.500152
Br183	Br	1.058220	-0.298173	0.289833
Br184	Br	1.558220	0.201827	0.789833
Br185	Br	1.200139	-0.010584	0.536320
Br186	Br	1.700139	0.489416	1.036320
Br187	Br	1.055376	-0.449434	0.289873
Br188	Br	1.555376	0.050566	0.789873
Br189	Br	0.911250	0.144112	0.771302
Br190	Br	1.411250	0.644112	1.271302
Br191	Br	1.200117	-0.010591	0.463860
Br192	Br	1.700117	0.489409	0.963860
Br193	Br	0.548350	-0.037369	0.000103
Br194	Br	1.048350	0.462631	0.500103
H195	H	1.053414	-0.554626	-0.242749
H196	H	1.553414	-0.054626	0.257251
H197	H	0.635375	-0.012511	0.000114
H198	H	1.135375	0.487489	0.500114
Br199	Br	0.911217	0.144106	0.536401
Br200	Br	1.411217	0.644106	1.036401
Br201	Br	0.911209	0.144101	0.463928
Br202	Br	1.411209	0.644101	0.963928
H203	H	1.055143	-0.463172	-0.242764
H204	H	1.555143	0.036828	0.257236
Br205	Br	0.275290	0.167954	0.000180
Br206	Br	0.775290	0.667954	0.500180
Br207	Br	0.911186	0.144097	0.229028
Br208	Br	1.411186	0.644097	0.729028
H209	H	1.166887	0.007229	0.744188
H210	H	1.666887	0.507229	1.244188
H211	H	1.166842	0.007223	0.256021
H212	H	1.666842	0.507223	0.756021
H213	H	1.060612	-0.171396	0.156666
H214	H	1.560612	0.328604	0.656666
Br215	Br	1.053164	-0.568263	0.289882
Br216	Br	1.553164	-0.068263	0.789882
Br217	Br	1.048734	-0.800191	0.203616
Br218	Br	1.548734	-0.300191	0.703616
H219	H	0.594454	0.147245	0.000152
H220	H	1.094454	0.647245	0.500152
H221	H	1.056270	-0.403378	-0.242774
H222	H	1.556270	0.096622	0.257226
H223	H	1.056247	-0.403319	0.242992
H224	H	1.556247	0.096681	0.742992
