data_functionalizedCrystal
_audit_creation_method	'MofGen! by Chris Wilmer'
_symmetry_space_group_name_H-M	'P1'
_symmetry_Int_Tables_number	1
_symmetry_cell_setting	triclinic
loop_
_symmetry_equiv_pos_as_xyz
  x,y,z
_cell_length_a	11.792241
_cell_length_b	9.065215
_cell_length_c	7.540329
_cell_angle_alpha	89.999899
_cell_angle_beta	89.999420
_cell_angle_gamma	95.395944
loop_
_atom_site_label
_atom_site_type_symbol
_atom_site_fract_x
_atom_site_fract_y
_atom_site_fract_z
O1	O	-0.166418	1.958835	0.147440
O2	O	-0.180073	1.529422	0.147446
O3	O	-0.008132	1.754549	0.147453
O4	O	-0.338358	1.733708	0.147432
O5	O	-0.008123	1.754548	-0.147512
O6	O	-0.180063	1.529420	-0.147519
O7	O	-0.166408	1.958834	-0.147526
Cu8	Cu	-0.173235	1.744127	-0.174455
Cu9	Cu	-0.173246	1.744129	0.174375
O10	O	-0.338349	1.733706	-0.147533
C11	C	-0.178756	1.474447	-0.000036
C12	C	-0.174835	1.310640	-0.000032
C13	C	-0.380652	1.735016	-0.000053
C14	C	-0.506687	1.738935	-0.000061
C15	C	-0.737439	1.746140	-0.000016
C16	C	-0.609032	1.742137	-0.000041
C17	C	0.034171	1.753239	-0.000023
C18	C	0.160206	1.749321	-0.000003
C19	C	-0.167725	2.013809	-0.000040
C20	C	-0.171646	2.177615	-0.000032
N21	N	-0.173246	1.744131	0.419724
N22	N	-0.173226	1.744136	-0.419804
