data_functionalizedCrystal
_audit_creation_method	'MofGen! by Chris Wilmer'
_symmetry_space_group_name_H-M	'P1'
_symmetry_Int_Tables_number	1
_symmetry_cell_setting	triclinic
loop_
_symmetry_equiv_pos_as_xyz
  x,y,z
_cell_length_a	12.759401
_cell_length_b	15.297327
_cell_length_c	12.759393
_cell_angle_alpha	99.641734
_cell_angle_beta	89.981504
_cell_angle_gamma	99.706546
loop_
_atom_site_label
_atom_site_type_symbol
_atom_site_fract_x
_atom_site_fract_y
_atom_site_fract_z
Zn1	Zn	1.533799	-0.359102	-0.666297
Zn2	Zn	1.503249	-0.509990	-0.521002
Zn3	Zn	1.358091	-0.359150	-0.490645
Zn4	Zn	1.327659	-0.509920	-0.696630
O5	O	1.430699	-0.434541	-0.593643
O6	O	1.676766	-0.379127	-0.647033
O7	O	1.483944	-0.490029	-0.369964
O8	O	1.406921	-0.232898	-0.488547
O9	O	1.654320	-0.489984	-0.540286
O10	O	1.536012	-0.232864	-0.617597
O11	O	1.377297	-0.379208	-0.347661
O12	O	1.207035	-0.379140	-0.517960
O13	O	1.355053	-0.489865	-0.839617
O14	O	1.184677	-0.489911	-0.669295
O15	O	1.506503	-0.379060	-0.817332
O16	O	1.454435	-0.636226	-0.569698
O17	O	1.325430	-0.636175	-0.698731
C18	C	1.157735	-0.434524	-0.593626
C19	C	1.040956	-0.434539	-0.593648
C20	C	1.383343	-0.668934	-0.640823
C21	C	1.363180	-0.769208	-0.661042
C22	C	0.974461	-0.492309	-0.672355
C23	C	0.864734	-0.492321	-0.672369
C24	C	0.888009	-0.376788	-0.514958
C25	C	0.997734	-0.376773	-0.514949
C26	C	0.961022	-0.559014	-0.763233
C27	C	0.851295	-0.559025	-0.763247
C28	C	1.575241	-1.051846	-0.449495
C29	C	1.594185	-0.957633	-0.430493
C30	C	1.536436	-0.910523	-0.488129
C31	C	1.459739	-0.957634	-0.564769
C32	C	1.440787	-1.051856	-0.583767
C33	C	1.401982	-0.910532	-0.622401
C34	C	1.325285	-0.957643	-0.699042
C35	C	1.306338	-1.051856	-0.718037
C36	C	1.364087	-1.098967	-0.660401
C37	C	1.420933	-0.816310	-0.603403
C38	C	1.286480	-0.816320	-0.737676
C39	C	1.267536	-0.910532	-0.756677
C40	C	1.704729	-0.434558	-0.593662
C41	C	1.821504	-0.434565	-0.593670
C42	C	1.430791	-0.434450	-0.867659
C43	C	1.430831	-0.434411	-0.984427
C44	C	1.478269	-0.199232	-0.546302
C45	C	1.498541	-0.098957	-0.526129
C46	C	1.509701	-0.376709	-1.027686
C47	C	1.509733	-0.376676	-1.137404
C48	C	1.352019	-0.492055	-1.160596
C49	C	1.351984	-0.492083	-1.050879
C50	C	1.600759	-0.310099	-1.014298
C51	C	1.600790	-0.310066	-1.124015
C52	C	1.430681	-0.434566	-0.320681
C53	C	1.430897	-0.434351	-0.203862
H54	H	0.852804	-0.329757	-0.450885
O55	O	0.985831	-0.638079	-0.744213
C56	C	1.125061	-0.723086	-0.723876
C57	C	1.097114	-0.633492	-0.745404
H58	H	1.215032	-0.719414	-0.724854
H59	H	1.094930	-0.735946	-0.642777
H60	H	1.085892	-0.780255	-0.788142
H61	H	1.136274	-0.576267	-0.681204
H62	H	1.127224	-0.620710	-0.826536
O63	O	1.275540	-0.548050	-1.225306
C64	C	1.205657	-0.599104	-1.404601
C65	C	1.292345	-0.535655	-1.331444
H66	H	1.219201	-0.589091	-1.490425
H67	H	1.209391	-0.671875	-1.397742
H68	H	1.124148	-0.583271	-1.379773
H69	H	1.373895	-0.551407	-1.356223
H70	H	1.288517	-0.462903	-1.338312
H71	H	0.807405	-0.628879	-0.755382
O72	O	1.000912	-0.536729	-0.855906
C73	C	0.963330	-0.496260	-1.024830
C74	C	0.918019	-0.521465	-0.919920
H75	H	0.896329	-0.483930	-1.076624
H76	H	1.025780	-0.432590	-1.006894
H77	H	1.001426	-0.553670	-1.068670
H78	H	0.879868	-0.464114	-0.876027
H79	H	0.855620	-0.585163	-0.937928
O80	O	1.631391	-1.097469	-0.393386
C81	C	1.766789	-1.087532	-0.258246
C82	C	1.703254	-1.035752	-0.321702
H83	H	1.824921	-1.037657	-0.200290
H84	H	1.709746	-1.131685	-0.212104
H85	H	1.812788	-1.131600	-0.315429
H86	H	1.657250	-0.991635	-0.264594
H87	H	1.760351	-0.991657	-0.367858
H88	H	1.239453	-0.777962	-0.784606
H89	H	0.822330	-0.534085	-0.835577
H90	H	1.483380	-0.777960	-0.541002
H91	H	1.551863	-0.833810	-0.472652
H92	H	1.585071	-0.243682	-1.144695
O93	O	1.062173	-0.320617	-0.438397
C94	C	1.073686	-0.205970	-0.282322
C95	C	1.000584	-0.269541	-0.368941
H96	H	1.023923	-0.164644	-0.226157
H97	H	1.116671	-0.247271	-0.235539
H98	H	1.134603	-0.158884	-0.321197
H99	H	0.939606	-0.316639	-0.330153
H100	H	0.957676	-0.228183	-0.415715
H101	H	1.593087	-0.240232	-0.970472
H102	H	1.287757	-0.539066	-1.015663
O103	O	1.668543	-0.911835	-0.355933
C104	C	1.704138	-0.805511	-0.192696
C105	C	1.619809	-0.857336	-0.277049
H106	H	1.664773	-0.761422	-0.128909
H107	H	1.742147	-0.855326	-0.154684
H108	H	1.767948	-0.761369	-0.232096
H109	H	1.555935	-0.901479	-0.237730
H110	H	1.581884	-0.807473	-0.315055
O111	O	1.345786	-1.190488	-0.679031
C112	C	1.345512	-1.325599	-0.807045
C113	C	1.366292	-1.221953	-0.786088
H114	H	1.362061	-1.351070	-0.893604
H115	H	1.399997	-1.351218	-0.752762
H116	H	1.259012	-1.351242	-0.790292
H117	H	1.452763	-1.196233	-0.802852
H118	H	1.311739	-1.196395	-0.840362
H119	H	1.243874	-1.090211	-0.780430
O120	O	1.193036	-0.956440	-0.831048
C121	C	1.104311	-1.101594	-0.919861
C122	C	1.188693	-1.049717	-0.835590
H123	H	1.100788	-1.177017	-0.923576
H124	H	1.023277	-1.083213	-0.897633
H125	H	1.126454	-1.082949	-1.000822
H126	H	1.166650	-1.068334	-0.754598
H127	H	1.269705	-1.068102	-0.857908
H128	H	1.672977	-0.335145	-0.985305
H129	H	1.678385	-0.328779	-1.157562
