data_functionalizedCrystal
_audit_creation_method	'MofGen! by Chris Wilmer'
_symmetry_space_group_name_H-M	'P1'
_symmetry_Int_Tables_number	1
_symmetry_cell_setting	triclinic
loop_
_symmetry_equiv_pos_as_xyz
  x,y,z
_cell_length_a	12.759401
_cell_length_b	16.625545
_cell_length_c	12.759393
_cell_angle_alpha	90.032830
_cell_angle_beta	90.020938
_cell_angle_gamma	90.027083
loop_
_atom_site_label
_atom_site_type_symbol
_atom_site_fract_x
_atom_site_fract_y
_atom_site_fract_z
Zn1	Zn	1.606187	-0.320930	0.594003
Zn2	Zn	1.606045	-0.455784	0.418316
Zn3	Zn	1.430486	-0.320973	0.418338
Zn4	Zn	1.430444	-0.455728	0.593953
O5	O	1.518291	-0.388354	0.506153
O6	O	1.753189	-0.338824	0.570709
O7	O	1.582714	-0.437943	0.271298
O8	O	1.453870	-0.208135	0.441671
O9	O	1.753085	-0.437901	0.441633
O10	O	1.582957	-0.208103	0.570731
O11	O	1.453732	-0.338897	0.271314
O12	O	1.283459	-0.338843	0.441622
O13	O	1.453799	-0.437805	0.740981
O14	O	1.283429	-0.437847	0.570646
O15	O	1.582917	-0.338770	0.741018
O16	O	1.582674	-0.568609	0.441585
O17	O	1.453661	-0.568568	0.570624
C18	C	1.245323	-0.388344	0.506132
C19	C	1.128547	-0.388359	0.506148
C20	C	1.073696	-0.439989	0.573225
C21	C	0.963972	-0.439992	0.573245
C22	C	0.963958	-0.336733	0.439104
C23	C	1.073680	-0.336727	0.439089
C24	C	1.518176	-0.597844	0.506120
C25	C	1.518224	-0.687466	0.506141
C26	C	1.518265	-0.760248	0.506161
C27	C	1.518326	-0.851556	0.506185
C28	C	1.518380	-0.924333	0.506198
C29	C	1.518440	-1.015647	0.506219
C30	C	1.792324	-0.388364	0.506174
C31	C	1.909100	-0.388369	0.506183
C32	C	1.518369	-0.388276	0.780186
C33	C	1.518403	-0.388243	0.896963
C34	C	1.518434	-0.178045	0.506209
C35	C	1.518495	-0.088424	0.506233
C36	C	1.518273	-0.388373	0.233185
C37	C	1.518443	-0.388178	0.116409
C38	C	1.585639	-0.336667	0.951846
C39	C	1.585657	-0.336632	1.061570
C40	C	1.451199	-0.439757	1.061519
C41	C	1.451177	-0.439787	0.951797
H42	H	0.919273	-0.294697	0.384505
C43	C	1.133077	-0.496068	0.646153
C44	C	1.061551	-0.541267	0.704922
C45	C	1.116210	-0.592927	0.772129
H46	H	1.175846	-0.531234	0.605998
H47	H	1.175895	-0.465280	0.692051
H48	H	1.018751	-0.572053	0.659030
H49	H	1.018779	-0.506123	0.745098
H50	H	1.159028	-0.562139	0.818027
H51	H	1.158977	-0.628088	0.731965
H52	H	1.067688	-0.623595	0.812018
H53	H	1.396417	-0.481785	0.907110
C54	C	1.378108	-0.495754	1.120866
C55	C	1.319200	-0.540913	1.049313
C56	C	1.251850	-0.592502	1.103942
H57	H	1.418167	-0.530947	1.163667
H58	H	1.332305	-0.464915	1.163649
H59	H	1.364998	-0.571750	1.006547
H60	H	1.279120	-0.505741	1.006510
H61	H	1.206047	-0.561663	1.146725
H62	H	1.291917	-0.627690	1.146741
H63	H	1.211866	-0.623143	1.055402
H64	H	1.640406	-0.294633	1.106250
C65	C	0.904365	-0.495916	0.646201
C66	C	0.841456	-0.450328	0.713678
C67	C	0.786543	-0.501818	0.780913
H68	H	0.861436	-0.531027	0.606059
H69	H	0.952727	-0.526648	0.686196
H70	H	0.793101	-0.419609	0.673688
H71	H	0.884360	-0.415219	0.753844
H72	H	0.834904	-0.532551	0.820907
H73	H	0.743619	-0.536927	0.740762
H74	H	0.743860	-0.470895	0.826710
C75	C	1.133051	-0.280638	0.366142
C76	C	1.061520	-0.235442	0.307391
C77	C	1.116174	-0.183773	0.240179
H78	H	1.175895	-0.245471	0.406292
H79	H	1.175793	-0.311420	0.320233
H80	H	1.018796	-0.204662	0.353294
H81	H	1.018674	-0.270588	0.267219
H82	H	1.158916	-0.214555	0.194270
H83	H	1.159016	-0.148611	0.280338
H84	H	1.067649	-0.153107	0.200302
H85	H	1.640376	-0.294695	0.907203
