data_functionalizedCrystal
_audit_creation_method	'MofGen! by Chris Wilmer'
_symmetry_space_group_name_H-M	'P1'
_symmetry_Int_Tables_number	1
_symmetry_cell_setting	triclinic
loop_
_symmetry_equiv_pos_as_xyz
  x,y,z
_cell_length_a	21.295419
_cell_length_b	21.295417
_cell_length_c	16.625539
_cell_angle_alpha	90.032326
_cell_angle_beta	90.020582
_cell_angle_gamma	90.044503
loop_
_atom_site_label
_atom_site_type_symbol
_atom_site_fract_x
_atom_site_fract_y
_atom_site_fract_z
Zn1	Zn	0.962335	-0.250359	0.455887
Zn2	Zn	0.962246	-0.355633	0.321045
Zn3	Zn	0.857065	-0.250409	0.321068
Zn4	Zn	0.857029	-0.355622	0.455835
O5	O	0.909668	-0.303006	0.388459
O6	O	1.050412	-0.264308	0.438013
O7	O	0.948271	-0.341700	0.208216
O8	O	0.871082	-0.162313	0.338983
O9	O	1.050347	-0.341652	0.338945
O10	O	0.948423	-0.162277	0.438035
O11	O	0.870995	-0.264392	0.208232
O12	O	0.768971	-0.264381	0.338932
O13	O	0.871020	-0.341634	0.568674
O14	O	0.768944	-0.341681	0.437945
O15	O	0.948387	-0.264298	0.568713
O16	O	0.948236	-0.443721	0.338894
O17	O	0.870933	-0.443713	0.437923
C18	C	0.746117	-0.303036	0.388436
C19	C	0.676149	-0.303064	0.388446
C20	C	0.643338	-0.262857	0.440110
C21	C	0.577596	-0.262840	0.440113
C22	C	0.544666	-0.303041	0.388460
C23	C	0.577484	-0.343251	0.336786
C24	C	0.643226	-0.343263	0.336778
N25	N	0.441392	-0.358120	0.382160
N26	N	0.378940	-0.358107	0.382172
C27	C	0.346592	-0.303009	0.388478
N28	N	0.379053	-0.247922	0.394788
N29	N	0.441510	-0.247936	0.394781
C30	C	0.473381	-0.303033	0.388462
C31	C	0.242496	-0.262780	0.440149
C32	C	0.176752	-0.262762	0.440146
C33	C	0.176642	-0.343179	0.336823
C34	C	0.242384	-0.343191	0.336821
C35	C	0.275307	-0.302993	0.388488
C36	C	0.909588	-0.466557	0.388418
C37	C	0.909611	-0.536525	0.388427
C38	C	0.949860	-0.569316	0.440040
C39	C	0.949882	-0.635059	0.440060
C40	C	0.909663	-0.668008	0.388453
C41	C	0.869406	-0.635209	0.336836
C42	C	0.869381	-0.569468	0.336824
N43	N	0.904907	-0.771273	0.317887
N44	N	0.904935	-0.833724	0.317902
C45	C	0.909736	-0.866083	0.388489
N46	N	0.914521	-0.833630	0.459063
N47	N	0.914496	-0.771173	0.459048
C48	C	0.909685	-0.739293	0.388461
C49	C	0.950011	-0.970159	0.440128
C50	C	0.950029	-1.035903	0.440149
C51	C	0.869556	-1.036052	0.336918
C52	C	0.869535	-0.970310	0.336904
C53	C	0.909766	-0.937367	0.388508
C54	C	1.073859	-0.302976	0.388482
C55	C	1.143827	-0.302963	0.388492
C56	C	0.909709	-0.302959	0.598768
C57	C	0.909727	-0.302939	0.688389
C58	C	0.909766	-0.138815	0.388517
C59	C	0.909808	-0.068847	0.388542
C60	C	0.909664	-0.303007	0.178968
C61	C	0.909768	-0.302850	0.089347
C62	C	0.909756	-0.302868	1.016565
C63	C	0.909746	-0.302890	0.925256
C64	C	0.909742	-0.302904	0.852480
C65	C	0.909731	-0.302925	0.761165
H66	H	0.550877	-0.230095	0.482183
O67	O	0.830371	-0.537543	0.286642
C68	C	0.866221	-0.499518	0.234584
H69	H	0.913910	-0.489600	0.263074
H70	H	0.873171	-0.524880	0.174844
C71	C	0.772998	-0.449298	0.184938
C72	C	0.831569	-0.437112	0.219934
H73	H	0.751623	-0.410805	0.175898
H74	H	0.748845	-0.474918	0.220008
H75	H	0.778798	-0.470435	0.135159
H76	H	0.825769	-0.415983	0.269716
H77	H	0.855721	-0.411487	0.184872
O78	O	0.545568	-0.382392	0.286652
C79	C	0.561570	-0.445152	0.304136
H80	H	0.609313	-0.446495	0.335121
H81	H	0.524566	-0.466390	0.345547
C82	C	0.505903	-0.481557	0.187385
C83	C	0.564545	-0.483206	0.225435
H84	H	0.507736	-0.505031	0.138840
H85	H	0.495121	-0.439274	0.175607
H86	H	0.475073	-0.499254	0.221902
H87	H	0.595372	-0.465502	0.190923
H88	H	0.575333	-0.525486	0.237206
O89	O	0.988847	-0.537250	0.490213
C90	C	0.952970	-0.499249	0.542259
H91	H	0.905274	-0.489469	0.513764
H92	H	0.946037	-0.524564	0.602006
C93	C	1.046157	-0.448768	0.591893
C94	C	0.987578	-0.436751	0.556891
H95	H	1.067505	-0.410217	0.600923
H96	H	1.070329	-0.474371	0.556831
H97	H	1.040371	-0.469866	0.641678
H98	H	0.993366	-0.415661	0.507103
H99	H	0.963408	-0.411143	0.591945
O100	O	0.274385	-0.223672	0.490358
C101	C	0.231324	-0.188187	0.535971
H102	H	0.184454	-0.185961	0.502951
H103	H	0.224326	-0.211300	0.597153
C104	C	0.314620	-0.123941	0.588309
C105	C	0.257055	-0.121204	0.547750
H106	H	0.330493	-0.082624	0.595579
H107	H	0.343632	-0.147850	0.557582
H108	H	0.308781	-0.143205	0.639290
H109	H	0.262896	-0.101948	0.496767
H110	H	0.228045	-0.097291	0.578470
H111	H	0.982767	-0.943336	0.482150
H112	H	0.982652	-0.661762	0.482099
O113	O	0.830462	-0.938356	0.286836
C114	C	0.839075	-0.873266	0.297875
H115	H	0.859661	-0.864229	0.360124
H116	H	0.872612	-0.854598	0.250085
C117	C	0.750091	-0.850691	0.213950
C118	C	0.775369	-0.839591	0.290407
H119	H	0.710795	-0.829918	0.209340
H120	H	0.744289	-0.894543	0.206510
H121	H	0.778044	-0.835134	0.174133
H122	H	0.747420	-0.855155	0.330221
H123	H	0.781165	-0.795741	0.297854
O124	O	0.830247	-0.667185	0.286790
C125	C	0.767495	-0.651174	0.304323
H126	H	0.764282	-0.633071	0.368731
H127	H	0.751043	-0.613057	0.261069
C128	C	0.729457	-0.731863	0.215794
C129	C	0.725510	-0.709634	0.294903
H130	H	0.703558	-0.767923	0.209981
H131	H	0.771735	-0.742649	0.203979
H132	H	0.715748	-0.700094	0.179758
H133	H	0.739226	-0.741400	0.330937
H134	H	0.683234	-0.698855	0.306725
O135	O	0.830451	-1.068118	0.286901
C136	C	0.789777	-1.106151	0.332772
H137	H	0.811958	-1.115941	0.393903
H138	H	0.743117	-1.080859	0.341576
C139	C	0.751169	-1.156611	0.213328
C140	C	0.778416	-1.168640	0.288407
H141	H	0.744158	-1.195156	0.185961
H142	H	0.778570	-1.130986	0.182423
H143	H	0.712289	-1.135533	0.220675
H144	H	0.817299	-1.189710	0.281059
H145	H	0.751021	-1.194270	0.319310
H146	H	0.982803	-1.062600	0.482182
H147	H	0.669939	-0.376005	0.294706
H148	H	0.150039	-0.230017	0.482216
O149	O	0.675248	-0.223834	0.490403
C150	C	0.659211	-0.237677	0.570736
H151	H	0.611458	-0.261874	0.572356
H152	H	0.696193	-0.270070	0.597815
C153	C	0.714892	-0.146637	0.617728
C154	C	0.656239	-0.176351	0.619718
H155	H	0.713062	-0.108809	0.647944
H156	H	0.725699	-0.137311	0.563607
H157	H	0.745704	-0.173637	0.640293
H158	H	0.625430	-0.149355	0.597145
H159	H	0.645427	-0.185671	0.673837
O160	O	0.144732	-0.382319	0.286685
C161	C	0.160731	-0.445079	0.304171
H162	H	0.208471	-0.446423	0.335162
H163	H	0.123723	-0.466317	0.345577
C164	C	0.105072	-0.481482	0.187413
C165	C	0.163711	-0.483133	0.225470
H166	H	0.106908	-0.504957	0.138868
H167	H	0.094291	-0.439200	0.175633
H168	H	0.074239	-0.499179	0.221926
H169	H	0.194541	-0.465429	0.190961
H170	H	0.174497	-0.525413	0.237242
O171	O	0.274328	-0.382287	0.286753
C172	C	0.312319	-0.423007	0.332563
H173	H	0.322210	-0.400866	0.393717
H174	H	0.286940	-0.469660	0.341317
C175	C	0.362592	-0.461568	0.213056
C176	C	0.374745	-0.434372	0.288165
H177	H	0.401098	-0.468582	0.185669
H178	H	0.336995	-0.434137	0.182193
H179	H	0.341441	-0.500443	0.220362
H180	H	0.395888	-0.395495	0.280858
H181	H	0.400347	-0.461798	0.319026
