data_functionalizedCrystal
_audit_creation_method	'MofGen! by Chris Wilmer'
_symmetry_space_group_name_H-M	'P1'
_symmetry_Int_Tables_number	1
_symmetry_cell_setting	triclinic
loop_
_symmetry_equiv_pos_as_xyz
  x,y,z
_cell_length_a	11.792254
_cell_length_b	19.288840
_cell_length_c	18.366186
_cell_angle_alpha	89.983729
_cell_angle_beta	90.001772
_cell_angle_gamma	96.337693
loop_
_atom_site_label
_atom_site_type_symbol
_atom_site_fract_x
_atom_site_fract_y
_atom_site_fract_z
O1	O	-0.141446	0.922171	-0.060664
O2	O	-0.160575	0.720017	-0.060638
O3	O	0.014234	0.825995	-0.060655
O4	O	-0.316255	0.816193	-0.060647
O5	O	0.014243	0.825977	0.060444
O6	O	-0.160566	0.719999	0.060461
O7	O	-0.141437	0.922153	0.060435
Zn8	Zn	-0.151000	0.821073	0.079675
Zn9	Zn	-0.151012	0.821097	-0.079878
O10	O	-0.316246	0.816175	0.060452
C11	C	-0.159960	0.694128	-0.000085
C12	C	-0.158126	0.617013	-0.000076
C13	C	-0.157250	0.580814	-0.066089
C14	C	-0.155515	0.508358	-0.066098
C15	C	-0.154633	0.472104	-0.000090
C16	C	-0.155515	0.508311	0.065932
C17	C	-0.157262	0.580765	0.065939
C18	C	-0.085385	0.362373	0.050470
C19	C	-0.083631	0.289921	0.050460
C20	C	-0.149250	0.248630	-0.000109
C21	C	-0.216608	0.279801	-0.050680
C22	C	-0.218355	0.352256	-0.050673
C23	C	-0.152739	0.393539	-0.000090
C24	C	-0.146494	0.133865	-0.066136
C25	C	-0.144766	0.061406	-0.066143
C26	C	-0.144755	0.061362	0.065889
C27	C	-0.146495	0.133818	0.065893
C28	C	-0.147359	0.170066	-0.000121
C29	C	-0.358532	0.816802	-0.000097
C30	C	-0.484517	0.818650	-0.000095
C31	C	-0.586830	0.820151	-0.000099
C32	C	-0.715188	0.822029	-0.000108
C33	C	0.056520	0.825369	-0.000108
C34	C	0.182505	0.823521	-0.000115
C35	C	-0.142052	0.948042	-0.000120
C36	C	-0.143886	1.025157	-0.000134
N37	N	-0.150992	0.821062	0.188566
N38	N	-0.151011	0.821114	-0.188770
C39	C	-0.073624	0.868005	0.226659
C40	C	-0.073619	0.868009	0.302887
C41	C	-0.151001	0.821077	0.341019
C42	C	-0.228375	0.774126	0.302917
C43	C	-0.228370	0.774118	0.226691
C44	C	-0.254413	0.812370	0.461783
C45	C	-0.254419	0.812382	0.538008
C46	C	-0.151015	0.821097	0.576127
C47	C	-0.047601	0.829815	0.538011
C48	C	-0.047596	0.829807	0.461785
C49	C	-0.151014	0.821080	0.423674
C50	C	-0.073636	0.868047	0.696874
C51	C	-0.073629	0.868047	0.773104
C52	C	-0.228395	0.774167	0.773132
C53	C	-0.228391	0.774164	0.696904
C54	C	-0.151013	0.821108	0.658780
H55	H	-0.154803	0.478879	-0.119855
Br56	Br	-0.309768	0.394559	-0.119300
Br57	Br	0.092744	0.841630	0.410059
H58	H	-0.338625	0.805288	0.569035
H59	H	-0.147210	0.163378	-0.119890
H60	H	-0.010621	0.906271	0.804119
Br61	Br	-0.394763	0.800611	0.410057
H62	H	-0.291373	0.735891	0.195675
H63	H	-0.144059	0.031934	-0.119901
Br64	Br	-0.333402	0.710466	0.824876
H65	H	-0.291379	0.735912	0.333968
H66	H	-0.270046	0.246183	-0.091856
H67	H	0.036600	0.836911	0.569046
Br68	Br	-0.333398	0.710455	0.645201
Br69	Br	-0.143575	0.012167	0.155473
Br70	Br	-0.158425	0.630004	-0.155680
H71	H	-0.147201	0.163292	0.119649
Br72	Br	0.007754	0.247621	0.119106
H73	H	-0.031947	0.395987	0.091653
H74	H	-0.010615	0.906237	0.333908
H75	H	-0.154800	0.478788	0.119676
H76	H	-0.157977	0.610238	0.119697
H77	H	-0.010616	0.906227	0.195621
Br78	Br	0.031380	0.931754	0.645132
