data_functionalizedCrystal
_audit_creation_method	'MofGen! by Chris Wilmer'
_symmetry_space_group_name_H-M	'P1'
_symmetry_Int_Tables_number	1
_symmetry_cell_setting	triclinic
loop_
_symmetry_equiv_pos_as_xyz
  x,y,z
_cell_length_a	16.992694
_cell_length_b	9.482900
_cell_length_c	16.992695
_cell_angle_alpha	80.026204
_cell_angle_beta	90.668223
_cell_angle_gamma	99.926526
loop_
_atom_site_label
_atom_site_type_symbol
_atom_site_fract_x
_atom_site_fract_y
_atom_site_fract_z
O1	O	1.062330	0.120712	0.155377
O2	O	1.562330	0.620712	0.655377
O3	O	0.833934	0.120755	0.153542
O4	O	1.333934	0.620755	0.653542
O5	O	0.947215	0.120722	0.040261
O6	O	1.447215	0.620722	0.540261
O7	O	0.949049	0.120745	0.268659
O8	O	1.449049	0.620745	0.768659
O9	O	0.924211	-0.121064	0.063369
O10	O	1.424211	0.378936	0.563369
O11	O	0.810930	-0.121031	0.176651
O12	O	1.310930	0.378969	0.676651
O13	O	1.039326	-0.121074	0.178486
O14	O	1.539326	0.378926	0.678486
Cu15	Cu	0.923028	-0.143129	0.179678
Cu16	Cu	1.423028	0.356871	0.679678
Cu17	Cu	0.950232	0.142810	0.152350
Cu18	Cu	1.450232	0.642810	0.652350
O19	O	0.926045	-0.121041	0.291767
O20	O	1.426045	0.378959	0.791767
C21	C	0.793072	-0.000133	0.162740
C22	C	1.293072	0.499867	0.662740
C23	C	0.705589	-0.000117	0.155710
C24	C	1.205589	0.499883	0.655710
N25	N	0.903899	-0.344244	0.198900
N26	N	1.403899	0.155756	0.698900
C27	C	0.659599	-0.000111	0.223527
C28	C	1.159599	0.499889	0.723527
C29	C	0.577396	-0.000132	0.216920
C30	C	1.077396	0.499868	0.716920
C31	C	0.541186	-0.000148	0.142494
C32	C	1.041186	0.499852	0.642494
C33	C	0.587183	-0.000158	0.074672
C34	C	1.087183	0.499842	0.574672
C35	C	0.669383	-0.000147	0.081281
C36	C	1.169383	0.499853	0.581281
C37	C	0.295868	-0.000189	0.115104
C38	C	0.795868	0.499811	0.615104
C39	C	0.213662	-0.000195	0.108500
C40	C	0.713662	0.499805	0.608500
C41	C	0.203881	-0.000172	0.250749
C42	C	0.703881	0.499828	0.750749
C43	C	0.286085	-0.000153	0.257350
C44	C	0.786085	0.499847	0.757350
C45	C	0.332073	-0.000171	0.189529
C46	C	0.832073	0.499829	0.689529
N47	N	0.457163	-0.000164	0.135739
N48	N	0.957163	0.499836	0.635739
N49	N	0.416094	-0.000164	0.196286
N50	N	0.916094	0.499836	0.696286
C51	C	0.944585	-0.416455	0.158015
C52	C	1.444585	0.083545	0.658015
C53	C	0.928675	-0.583868	0.174014
C54	C	1.428675	-0.083868	0.674014
C55	C	1.080188	-0.000183	0.169288
C56	C	1.580188	0.499817	0.669288
C57	C	1.167672	-0.000190	0.176317
C58	C	1.667672	0.499810	0.676317
C59	C	0.933358	-0.000170	0.022455
C60	C	1.433358	0.499830	0.522455
C61	C	0.926329	-0.000169	-0.065030
C62	C	1.426329	0.499831	0.434970
N63	N	0.969367	0.343925	0.133123
N64	N	1.469367	0.843925	0.633123
C65	C	0.994146	-0.000183	-0.111019
C66	C	1.494146	0.499817	0.388981
C67	C	0.987538	-0.000168	-0.193222
C68	C	1.487538	0.499832	0.306778
C69	C	0.913112	-0.000149	-0.229432
C70	C	1.413112	0.499851	0.270568
C71	C	0.845291	-0.000130	-0.183436
C72	C	1.345291	0.499870	0.316564
C73	C	0.851900	-0.000135	-0.101237
C74	C	1.351900	0.499865	0.398763
C75	C	0.885720	-0.000124	-0.474748
C76	C	1.385720	0.499876	0.025252
C77	C	0.879116	-0.000124	-0.556954
C78	C	1.379116	0.499876	-0.056954
C79	C	1.021364	-0.000158	-0.566733
C80	C	1.521364	0.499842	-0.066733
C81	C	1.027966	-0.000172	-0.484531
C82	C	1.527966	0.499828	0.015469
C83	C	0.960145	-0.000145	-0.438544
C84	C	1.460145	0.499855	0.061456
N85	N	0.906356	-0.000138	-0.313455
N86	N	1.406356	0.499862	0.186545
N87	N	0.966903	-0.000146	-0.354523
N88	N	1.466903	0.499854	0.145477
C89	C	0.939903	-0.000146	0.309573
C90	C	1.439903	0.499854	0.809573
C91	C	0.946932	-0.000138	0.397057
C92	C	1.446932	0.499862	0.897057
H93	H	0.689075	-0.000097	0.284133
H94	H	1.189075	0.499903	0.784133
H95	H	0.882059	-0.645979	0.220861
H96	H	1.382059	-0.145979	0.720861
H97	H	1.088571	-0.000187	-0.455055
H98	H	1.588571	0.499813	0.044945
N99	N	1.006308	-0.334165	0.095946
N100	N	1.506308	0.165835	0.595946
H101	H	1.049106	-0.270989	0.122116
H102	H	1.549106	0.229011	0.622116
H103	H	1.031216	-0.405429	0.070867
H104	H	1.531216	0.094571	0.570867
N105	N	0.842152	-0.426514	0.260950
N106	N	1.342152	0.073486	0.760950
H107	H	0.868544	-0.489661	0.303623
H108	H	1.368544	0.010339	0.803623
H109	H	0.817204	-0.355233	0.285975
H110	H	1.317204	0.144767	0.785975
N111	N	0.812573	-0.000104	-0.425154
N112	N	1.312573	0.499896	0.074846
H113	H	0.788858	0.089531	-0.445890
H114	H	1.288858	0.589531	0.054110
H115	H	0.771858	-0.089789	-0.428775
H116	H	1.271858	0.410211	0.071225
H117	H	1.054750	-0.000207	-0.081543
H118	H	1.554750	0.499793	0.418457
N119	N	0.798837	-0.000094	-0.596008
N120	N	1.298837	0.499906	-0.096008
H121	H	0.801459	0.089534	-0.638461
H122	H	1.301459	0.589534	-0.138461
H123	H	0.784440	-0.089786	-0.621280
H124	H	1.284440	0.410214	-0.121280
N125	N	1.060682	-0.000192	-0.242825
N126	N	1.560682	0.499808	0.257175
H127	H	1.108832	-0.000217	-0.207411
H128	H	1.608832	0.499783	0.292589
H129	H	1.052503	-0.089825	-0.268579
H130	H	1.552503	0.410175	0.231421
N131	N	0.765017	-0.000100	-0.222488
N132	N	1.265017	0.499900	0.277512
H133	H	0.771118	-0.000105	-0.281539
H134	H	1.271118	0.499895	0.218461
H135	H	0.726586	-0.089727	-0.197418
H136	H	1.226586	0.410273	0.302582
H137	H	1.015977	-0.593964	0.086269
H138	H	1.515977	-0.093964	0.586269
H139	H	1.076579	-0.000177	-0.604185
H140	H	1.576579	0.499823	-0.104185
H141	H	0.796677	-0.000123	-0.063793
H142	H	1.296677	0.499877	0.436207
N143	N	0.345473	-0.000181	0.041959
N144	N	0.845473	0.499819	0.541959
H145	H	0.371275	-0.089808	0.050094
H146	H	0.871275	0.410192	0.550094
H147	H	0.310018	-0.000128	-0.006160
H148	H	0.810018	0.499872	0.493840
N149	N	0.154288	-0.000171	0.323903
N150	N	0.654288	0.499829	0.823903
H151	H	0.128482	0.089452	0.315773
H152	H	0.628482	0.589452	0.815773
H153	H	0.111491	-0.089867	0.332865
H154	H	0.611491	0.410133	0.832865
N155	N	0.527776	-0.000290	0.290081
N156	N	1.027776	0.499710	0.790081
H157	H	0.563184	-0.000323	0.338237
H158	H	1.063184	0.499677	0.838237
H159	H	0.501930	0.089283	0.281932
H160	H	1.001930	0.589283	0.781932
H161	H	0.557692	-0.000191	0.014075
H162	H	1.057692	0.499809	0.514075
N163	N	0.325141	-0.000108	0.337621
N164	N	0.825141	0.499892	0.837621
H165	H	0.283532	-0.000101	0.379582
H166	H	0.783532	0.499899	0.879582
H167	H	0.350520	-0.089728	0.352038
H168	H	0.850520	0.410272	0.852038
H169	H	0.184184	-0.000207	0.047890
H170	H	0.684184	0.499793	0.547890
N171	N	0.718990	-0.000164	0.008137
N172	N	1.218990	0.499836	0.508137
H173	H	0.683579	-0.000175	-0.040015
H174	H	1.183579	0.499825	0.459985
H175	H	0.761831	0.089469	-0.000790
H176	H	1.261831	0.589469	0.499210
