data_functionalizedCrystal
_audit_creation_method	'MofGen! by Chris Wilmer'
_symmetry_space_group_name_H-M	'P1'
_symmetry_Int_Tables_number	1
_symmetry_cell_setting	triclinic
loop_
_symmetry_equiv_pos_as_xyz
  x,y,z
_cell_length_a	10.489711
_cell_length_b	10.489716
_cell_length_c	13.930277
_cell_angle_alpha	89.999515
_cell_angle_beta	89.991249
_cell_angle_gamma	84.528072
loop_
_atom_site_label
_atom_site_type_symbol
_atom_site_fract_x
_atom_site_fract_y
_atom_site_fract_z
O1	O	1.694065	0.179788	-0.079856
O2	O	1.322863	0.196721	-0.079850
O3	O	1.516927	0.002654	-0.079856
O4	O	1.500001	0.373855	-0.079849
O5	O	1.516900	0.002649	0.079805
O6	O	1.322836	0.196716	0.079812
O7	O	1.694038	0.179784	0.079806
Zn8	Zn	1.508432	0.188249	0.105159
Zn9	Zn	1.508468	0.188255	-0.105203
O10	O	1.499974	0.373851	0.079813
C11	C	1.275317	0.195448	-0.000018
C12	C	1.133686	0.191646	-0.000016
C13	C	0.951289	0.308352	-0.000025
C14	C	1.043454	0.250058	-0.078746
C15	C	1.043400	0.250022	0.078668
C16	C	0.973513	0.126514	-0.078823
C17	C	0.973450	0.126495	0.078662
C18	C	1.065587	0.068111	-0.000079
C19	C	1.515642	-0.044880	-0.000028
C20	C	1.511837	-0.186511	-0.000037
C21	C	1.630843	-0.284198	-0.000031
C22	C	1.567971	-0.361549	-0.078749
C23	C	1.567916	-0.361518	0.078666
C24	C	1.449014	-0.261997	-0.078820
C25	C	1.448978	-0.261960	0.078665
C26	C	1.386018	-0.339263	-0.000073
C27	C	1.741584	0.181057	-0.000028
C28	C	1.883215	0.184859	-0.000036
C29	C	1.501259	0.421385	-0.000018
C30	C	1.505064	0.563016	-0.000015
N31	N	1.508417	0.188245	0.248725
N32	N	1.508494	0.188250	-0.248769
C33	C	1.422533	0.274154	0.700997
C34	C	1.594439	0.102347	0.700960
C35	C	1.594423	0.102343	0.600465
C36	C	1.508463	0.188247	0.550231
C37	C	1.422518	0.274155	0.600492
C38	C	1.680376	0.016445	0.550196
C39	C	1.680365	0.016438	0.449694
C40	C	1.594397	0.102337	0.399458
C41	C	1.508448	0.188248	0.449726
C42	C	1.422488	0.274152	0.399491
C43	C	1.336531	0.360058	0.449757
C44	C	1.336550	0.360054	0.550256
C45	C	1.594378	0.102341	0.298959
C46	C	1.422472	0.274153	0.298986
H47	H	1.115053	-0.033485	-0.000120
H48	H	1.282425	-0.363682	-0.000113
Cl49	Cl	1.702437	-0.005639	0.235774
Cl50	Cl	1.091174	0.330724	0.181420
Cl51	Cl	0.874551	0.465059	-0.000139
Cl52	Cl	1.091303	0.330730	-0.181500
Cl53	Cl	0.925536	0.045884	0.181418
Cl54	Cl	1.790658	-0.246109	-0.000153
H55	H	0.942721	0.074312	-0.145454
H56	H	1.618219	-0.405048	-0.145302
Cl57	Cl	1.228504	0.468046	0.613449
Cl58	Cl	1.645495	-0.428644	0.181413
Cl59	Cl	1.371517	-0.195137	-0.181686
Cl60	Cl	1.314473	0.382141	0.764183
H61	H	1.398773	-0.218439	0.145221
H62	H	1.352468	0.344103	0.258092
Cl63	Cl	1.228479	0.468056	0.386595
Cl64	Cl	1.702507	-0.005634	0.764109
Cl65	Cl	1.788444	-0.091537	0.613344
H66	H	1.750354	-0.053511	0.408773
