data_functionalizedCrystal
_audit_creation_method	'MofGen! by Chris Wilmer'
_symmetry_space_group_name_H-M	'P1'
_symmetry_Int_Tables_number	1
_symmetry_cell_setting	triclinic
loop_
_symmetry_equiv_pos_as_xyz
  x,y,z
_cell_length_a	15.995292
_cell_length_b	17.019294
_cell_length_c	15.072220
_cell_angle_alpha	86.119892
_cell_angle_beta	89.986330
_cell_angle_gamma	83.431263
loop_
_atom_site_label
_atom_site_type_symbol
_atom_site_fract_x
_atom_site_fract_y
_atom_site_fract_z
O1	O	1.110906	0.101456	-0.081557
O2	O	1.610906	0.601456	0.418443
O3	O	0.867109	0.114060	-0.082516
O4	O	1.367109	0.614060	0.417484
O5	O	0.995808	-0.007076	-0.073259
O6	O	1.495808	0.492924	0.426741
O7	O	0.982208	0.222591	-0.090814
O8	O	1.482208	0.722591	0.409186
O9	O	0.995776	-0.007069	0.074306
O10	O	1.495776	0.492931	0.574306
O11	O	0.867078	0.114066	0.065049
O12	O	1.367078	0.614066	0.565049
O13	O	1.110874	0.101462	0.066008
O14	O	1.610874	0.601462	0.566008
Zn15	Zn	0.988971	0.107765	0.088957
Zn16	Zn	1.488971	0.607765	0.588957
Zn17	Zn	0.989013	0.107757	-0.105465
Zn18	Zn	1.489013	0.607757	0.394535
O19	O	0.982176	0.222598	0.056751
O20	O	1.482176	0.722598	0.556751
C21	C	0.835898	0.113550	-0.008694
C22	C	1.335898	0.613550	0.491306
C23	C	0.742947	0.112012	-0.008575
C24	C	1.242947	0.612012	0.491425
C25	C	0.995275	-0.036461	0.002768
C26	C	1.495275	0.463539	0.502768
C27	C	0.993727	-0.124031	0.009457
C28	C	1.493727	0.375969	0.509457
C29	C	0.405216	0.106358	-0.008153
C30	C	0.905216	0.606358	0.491847
C31	C	0.428424	0.193791	-0.015165
C32	C	0.928424	0.693791	0.484835
C33	C	0.525098	0.195452	-0.014956
C34	C	1.025098	0.695452	0.485044
C35	C	0.572768	0.109164	-0.008363
C36	C	1.072768	0.609164	0.491637
C37	C	0.543700	0.065456	0.079242
C38	C	1.043700	0.565456	0.579242
C39	C	0.446911	0.064403	0.079389
C40	C	0.946911	0.564403	0.579389
C41	C	0.447093	0.062610	-0.088283
C42	C	0.947093	0.562610	0.411717
C43	C	0.543582	0.065850	-0.089640
C44	C	1.043582	0.565850	0.410360
C45	C	0.667462	0.110745	-0.008478
C46	C	1.167462	0.610745	0.491522
C47	C	0.310522	0.104775	-0.008031
C48	C	0.810522	0.604775	0.491969
C49	C	0.993019	-0.165171	-0.067838
C50	C	1.493019	0.334829	0.432162
C51	C	0.991559	-0.247451	-0.061551
C52	C	1.491559	0.252549	0.438449
C53	C	0.990813	-0.288591	0.022031
C54	C	1.490813	0.211409	0.522031
C55	C	0.991519	-0.247445	0.099332
C56	C	1.491519	0.252555	0.599332
C57	C	0.992973	-0.165166	0.093044
C58	C	1.492973	0.334834	0.593044
C59	C	0.986416	-0.537022	0.045041
C60	C	1.486416	-0.037022	0.545041
C61	C	0.984965	-0.619307	0.051323
C62	C	1.484965	-0.119307	0.551323
C63	C	0.985003	-0.619307	-0.109561
C64	C	1.485003	-0.119307	0.390439
C65	C	0.986463	-0.537027	-0.115842
C66	C	1.486463	-0.037027	0.384158
C67	C	0.987164	-0.495888	-0.038541
C68	C	1.487164	0.004112	0.461459
C69	C	0.989323	-0.372695	0.028460
C70	C	1.489323	0.127305	0.528460
C71	C	0.988647	-0.411784	-0.044970
C72	C	1.488647	0.088216	0.455030
C73	C	1.142085	0.101972	-0.007816
C74	C	1.642085	0.601972	0.492184
C75	C	1.235036	0.103510	-0.007941
C76	C	1.735036	0.603510	0.492059
C77	C	0.982708	0.251983	-0.019278
C78	C	1.482708	0.751983	0.480722
C79	C	0.984256	0.339553	-0.025972
C80	C	1.484256	0.839553	0.474028
N81	N	0.988948	0.107771	0.221646
N82	N	1.488948	0.607771	0.721646
N83	N	0.989042	0.107745	-0.238153
N84	N	1.489042	0.607745	0.261847
C85	C	0.989011	0.107753	0.580849
C86	C	1.489011	0.607753	1.080849
C87	C	0.919916	0.172353	0.538305
C88	C	1.419916	0.672353	1.038305
C89	C	0.920074	0.172589	0.435461
C90	C	1.420074	0.672589	0.935461
C91	C	0.988979	0.107762	0.402644
C92	C	1.488979	0.607762	0.902644
C93	C	1.076325	0.125722	0.438561
C94	C	1.576325	0.625722	0.938561
C95	C	1.075938	0.126181	0.541384
C96	C	1.575938	0.626181	1.041384
C97	C	0.971539	0.025002	0.549275
C98	C	1.471539	0.525002	1.049275
C99	C	0.969534	0.025554	0.446369
C100	C	1.469534	0.525554	0.946369
C101	C	0.988967	0.107766	0.301930
C102	C	1.488967	0.607766	0.801930
C103	C	0.989029	0.107752	0.681562
C104	C	1.489029	0.607752	1.181562
H105	H	0.544097	0.229679	-0.077978
H106	H	1.044097	0.729679	0.422022
C107	C	0.390562	0.239319	-0.100281
C108	C	0.890562	0.739319	0.399719
N109	N	0.362039	0.273612	-0.164394
N110	N	0.862039	0.773612	0.335606
C111	C	1.096742	0.207716	0.567551
C112	C	1.596742	0.707716	1.067551
N113	N	1.112405	0.269132	0.587255
N114	N	1.612405	0.769132	1.087255
C115	C	1.097642	0.206328	0.397599
C116	C	1.597642	0.706328	0.897599
N117	N	1.113691	0.267045	0.366750
N118	N	1.613691	0.767045	0.866750
C119	C	0.887350	0.001682	0.586138
C120	C	1.387350	0.501682	1.086138
N121	N	0.823934	-0.015874	0.613902
N122	N	1.323934	0.484126	1.113902
C123	C	0.568643	0.108837	-0.177144
C124	C	1.068643	0.608837	0.322856
N125	N	0.587528	0.141215	-0.243051
N126	N	1.087528	0.641215	0.256949
C127	C	0.882728	0.007141	0.414859
C128	C	1.382728	0.507141	0.914859
N129	N	0.817345	-0.006725	0.391121
N130	N	1.317345	0.493275	0.891121
C131	C	1.033128	-0.042430	0.416853
C132	C	1.533128	0.457570	0.916853
N133	N	1.081039	-0.093634	0.394629
N134	N	1.581039	0.406366	0.894629
H135	H	0.930909	0.233417	0.559476
H136	H	1.430909	0.733417	1.059476
H137	H	0.989249	-0.378284	-0.113023
H138	H	1.489249	0.121716	0.386977
C139	C	0.586881	-0.020315	0.090053
C140	C	1.086881	0.479685	0.590053
N141	N	0.619416	-0.084914	0.098201
N142	N	1.119416	0.415086	0.598201
H143	H	0.563709	0.095814	0.139632
H144	H	1.063709	0.595814	0.639632
H145	H	0.399353	0.227307	0.042363
H146	H	0.899353	0.727307	0.542363
H147	H	0.988719	-0.406201	0.096513
H148	H	1.488719	0.093799	0.596513
H149	H	0.931221	0.233998	0.406153
H150	H	1.431221	0.733998	0.906153
H151	H	1.021928	-0.023071	0.577267
H152	H	1.521928	0.476929	1.077267
C153	C	0.408903	0.099615	-0.177396
C154	C	0.908903	0.599615	0.322604
N155	N	0.380139	0.127497	-0.244513
N156	N	0.880139	0.627497	0.255487
H157	H	0.984353	-0.652801	0.119389
H158	H	1.484353	-0.152801	0.619389
H159	H	0.543448	0.229895	0.042918
H160	H	1.043448	0.729895	0.542918
H161	H	0.420044	0.094679	0.140066
H162	H	0.920044	0.594679	0.640066
C163	C	0.990857	-0.292710	-0.146582
C164	C	1.490857	0.207290	0.353418
N165	N	0.990356	-0.326803	-0.210630
N166	N	1.490356	0.173197	0.289370
C167	C	1.147494	0.065054	0.579663
C168	C	1.647494	0.565054	1.079663
N169	N	1.201399	0.019023	0.608489
N170	N	1.701399	0.519023	1.108489
H171	H	1.128965	0.079922	0.417592
H172	H	1.628965	0.579922	0.917592
H173	H	0.993538	-0.131669	0.155986
H174	H	1.493538	0.368331	0.655986
C175	C	0.831916	0.158154	0.572864
C176	C	1.331916	0.658154	1.072864
N177	N	0.765633	0.147462	0.598905
N178	N	1.265633	0.647462	1.098905
C179	C	0.588216	-0.019242	-0.090009
C180	C	1.088216	0.480758	0.409991
N181	N	0.621833	-0.083337	-0.090279
N182	N	1.121833	0.416663	0.409721
C183	C	0.427352	-0.022199	0.091182
C184	C	0.927352	0.477801	0.591182
N185	N	0.412625	-0.087426	0.100069
N186	N	0.912625	0.412574	0.600069
H187	H	0.987071	-0.503536	-0.183903
H188	H	1.487071	-0.003536	0.316097
H189	H	0.433177	-0.001746	-0.083935
H190	H	0.933177	0.498254	0.416065
C191	C	0.993840	-0.119924	-0.159787
C192	C	1.493840	0.380076	0.340213
N193	N	0.994454	-0.085847	-0.229045
N194	N	1.494454	0.414153	0.270955
C195	C	0.990692	-0.292702	0.191274
C196	C	1.490692	0.207298	0.691274
N197	N	0.990071	-0.326788	0.260527
N198	N	1.490071	0.173212	0.760527
H199	H	0.987004	-0.503538	0.107985
H200	H	1.487004	-0.003538	0.607985
H201	H	0.984431	-0.652811	-0.172495
H202	H	1.484431	-0.152811	0.327505
C203	C	0.832354	0.158151	0.402505
C204	C	1.332354	0.658151	0.902505
N205	N	0.766277	0.147281	0.377687
N206	N	1.266277	0.647281	0.877687
