data_functionalizedCrystal
_audit_creation_method	'MofGen! by Chris Wilmer'
_symmetry_space_group_name_H-M	'P1'
_symmetry_Int_Tables_number	1
_symmetry_cell_setting	triclinic
loop_
_symmetry_equiv_pos_as_xyz
  x,y,z
_cell_length_a	10.654562
_cell_length_b	7.681481
_cell_length_c	10.654550
_cell_angle_alpha	95.796615
_cell_angle_beta	84.487503
_cell_angle_gamma	84.223280
loop_
_atom_site_label
_atom_site_type_symbol
_atom_site_fract_x
_atom_site_fract_y
_atom_site_fract_z
O1	O	1.656052	0.146540	0.188270
O2	O	1.290577	0.146517	0.205058
O3	O	1.481718	0.146522	0.013925
O4	O	1.464911	0.146534	0.379403
O5	O	1.505244	-0.146335	-0.009654
O6	O	1.314103	-0.146340	0.181479
O7	O	1.679578	-0.146318	0.164691
Zn8	Zn	1.500575	-0.192826	0.169341
Zn9	Zn	1.469579	0.193026	0.200408
O10	O	1.488437	-0.146323	0.355824
C11	C	1.255543	0.000086	0.192032
C12	C	1.116101	0.000077	0.188333
C13	C	1.063393	-0.159545	0.173756
C14	C	0.932368	-0.159516	0.170294
C15	C	0.906769	0.159773	0.195991
C16	C	1.037793	0.159742	0.199445
C17	C	1.078171	-0.343885	0.158925
C18	C	0.947146	-0.343855	0.155463
N19	N	1.521739	-0.456160	0.148139
C20	C	1.714612	0.000118	0.177717
C21	C	1.854053	0.000138	0.181417
N22	N	1.448426	0.456359	0.221600
C23	C	1.492247	0.000096	-0.044663
C24	C	1.488554	0.000102	-0.184106
C25	C	1.601095	0.000103	-0.263586
C26	C	1.597618	0.000115	-0.394606
C27	C	1.369049	0.000117	-0.366653
C28	C	1.372527	0.000118	-0.235635
C29	C	1.733058	0.000095	-0.279726
C30	C	1.729580	0.000107	-0.410746
C31	C	1.477908	0.000108	0.414412
C32	C	1.481599	0.000113	0.553856
H33	H	0.842995	0.289766	0.205038
H34	H	1.373588	-0.468446	0.296583
H35	H	1.596591	-0.531364	0.073160
C36	C	1.248727	0.000127	-0.148207
C37	C	1.141761	0.152206	-0.142451
C38	C	1.017955	0.152215	-0.055025
C39	C	1.001115	0.000145	0.026646
C40	C	1.108085	-0.151944	0.020893
C41	C	1.231891	-0.151953	-0.066534
H42	H	1.154224	0.264787	-0.202911
H43	H	0.938768	0.264803	-0.050767
H44	H	0.909466	0.000152	0.091364
H45	H	1.095622	-0.264525	0.081353
H46	H	1.311077	-0.264541	-0.070792
C47	C	1.241426	0.000127	-0.423341
C48	C	1.219812	-0.151938	-0.521820
C49	C	1.092185	-0.151929	-0.578505
C50	C	0.986173	0.000147	-0.536711
C51	C	1.007783	0.152224	-0.438227
C52	C	1.135410	0.152214	-0.381542
H53	H	1.298291	-0.264524	-0.552763
H54	H	1.076188	-0.264507	-0.651409
H55	H	0.891696	0.000154	-0.578673
H56	H	0.929304	0.264810	-0.407284
H57	H	1.151407	0.264793	-0.308637
C58	C	1.789475	0.165658	-0.226717
C59	C	1.831437	0.299138	-0.316357
C60	C	1.887850	0.464697	-0.263347
C61	C	1.902301	0.496776	-0.120697
C62	C	1.860338	0.363292	-0.031048
C63	C	1.803925	0.197733	-0.084058
H64	H	1.820740	0.275394	-0.421963
H65	H	1.918913	0.563511	-0.329712
H66	H	1.944061	0.619333	-0.081455
H67	H	1.871035	0.387036	0.074558
H68	H	1.772862	0.098920	-0.017694
H69	H	1.785237	-0.126353	-0.254278
C70	C	1.810034	-0.165456	-0.480504
C71	C	1.748011	-0.298910	-0.565494
C72	C	1.828458	-0.464467	-0.635253
C73	C	1.970928	-0.496568	-0.620021
C74	C	2.032959	-0.363110	-0.535027
C75	C	1.952511	-0.197554	-0.465269
H76	H	1.642540	-0.275150	-0.576773
H77	H	1.782539	-0.563261	-0.698171
H78	H	2.030480	-0.619123	-0.671661
H79	H	2.138430	-0.386871	-0.523749
H80	H	1.998431	-0.098760	-0.402351
H81	H	1.130117	-0.414677	0.066431
H82	H	1.080704	0.289722	0.211295
H83	H	0.922153	-0.401059	0.059263
H84	H	1.112340	-0.401079	0.245916
H85	H	0.906545	-0.414621	0.236562
H86	H	1.759303	0.126557	-0.446207
