data_functionalizedCrystal
_audit_creation_method	'MofGen! by Chris Wilmer'
_symmetry_space_group_name_H-M	'P1'
_symmetry_Int_Tables_number	1
_symmetry_cell_setting	triclinic
loop_
_symmetry_equiv_pos_as_xyz
  x,y,z
_cell_length_a	14.853567
_cell_length_b	10.868271
_cell_length_c	14.853567
_cell_angle_alpha	89.998659
_cell_angle_beta	96.365070
_cell_angle_gamma	90.001344
loop_
_atom_site_label
_atom_site_type_symbol
_atom_site_fract_x
_atom_site_fract_y
_atom_site_fract_z
O1	O	1.196364	0.102227	-0.117705
O2	O	0.933905	0.102247	-0.131726
O3	O	1.072145	0.102240	0.006514
O4	O	1.058124	0.102233	-0.255945
O5	O	1.072134	-0.102405	0.006520
O6	O	0.933894	-0.102398	-0.131721
O7	O	1.196353	-0.102418	-0.117699
Zn8	Zn	1.065122	-0.134900	-0.124709
Zn9	Zn	1.065137	0.134728	-0.124716
O10	O	1.058113	-0.102411	-0.255940
C11	C	0.900311	-0.000073	-0.131088
C12	C	0.800227	-0.000065	-0.129184
C13	C	0.387693	-0.000090	-0.039019
C14	C	0.366412	-0.000093	-0.203251
C15	C	0.460446	-0.000089	-0.205041
C16	C	0.518108	-0.000084	-0.123819
C17	C	0.481736	-0.000083	-0.040806
C18	C	0.496825	-0.000078	-0.288053
C19	C	0.590864	-0.000073	-0.289846
C20	C	0.648528	-0.000076	-0.208623
C21	C	0.612150	-0.000076	-0.125607
C22	C	0.669812	-0.000071	-0.044384
C23	C	0.633437	-0.000080	0.038633
C24	C	0.539399	-0.000086	0.040417
C25	C	0.742565	-0.000070	-0.210407
C26	C	0.763855	-0.000064	-0.046172
N27	N	1.065118	-0.318914	-0.124704
C28	C	1.065132	-0.569920	-0.124714
C29	C	1.065121	-0.430242	-0.124711
C30	C	1.229947	-0.000096	-0.118337
C31	C	1.330031	-0.000095	-0.120241
C32	C	1.071504	-0.000079	0.040106
C33	C	1.069601	-0.000068	0.140189
N34	N	1.065147	0.318743	-0.124715
C35	C	1.058754	-0.000090	-0.289531
C36	C	1.060657	-0.000092	-0.389615
C37	C	0.979435	-0.000085	0.552723
C38	C	1.143668	-0.000097	0.574004
C39	C	1.145458	-0.000090	0.479971
C40	C	1.064235	-0.000082	0.422309
C41	C	0.981223	-0.000081	0.458680
C42	C	1.228469	-0.000103	0.443591
C43	C	1.230262	-0.000097	0.349552
C44	C	1.149039	-0.000081	0.291889
C45	C	1.066023	-0.000079	0.328266
C46	C	0.984800	-0.000071	0.270604
C47	C	0.901783	-0.000060	0.306979
C48	C	0.899999	-0.000065	0.401017
C49	C	1.150823	-0.000076	0.197851
C50	C	0.986588	-0.000067	0.176561
H51	H	0.772178	-0.000065	-0.277998
O52	O	0.440944	-0.000020	-0.367030
C53	C	0.493211	-0.000036	-0.440684
H54	H	0.563364	0.038712	-0.417887
H55	H	0.458592	0.059382	-0.497594
H56	H	0.499941	-0.098210	-0.466128
O57	O	0.822802	-0.000105	0.251092
C58	C	0.749144	-0.000059	0.303354
H59	H	0.771930	-0.038803	0.373510
H60	H	0.692227	-0.059465	0.268735
H61	H	0.723714	0.098124	0.310076
H62	H	0.810798	-0.000064	0.019971
O63	O	0.310439	0.000124	-0.282169
C64	C	0.326958	0.106094	-0.332577
H65	H	0.359040	0.180175	-0.285025
H66	H	0.260286	0.141670	-0.368646
H67	H	0.374903	0.082130	-0.384819
H68	H	0.832411	-0.000057	0.430643
H69	H	0.680397	-0.000068	0.104764
H70	H	1.297860	-0.000105	0.319944
H71	H	1.209795	-0.000113	0.620958
H72	H	0.620472	-0.000065	-0.357443
O73	O	1.307447	-0.000161	0.499473
C74	C	1.381100	-0.000138	0.447205
H75	H	1.358304	-0.038888	0.377053
H76	H	1.438012	-0.059550	0.481826
H77	H	1.406542	0.098039	0.440472
H78	H	0.920445	-0.000056	0.129618
H79	H	0.509774	-0.000123	0.108005
H80	H	1.218414	-0.000093	0.168238
O81	O	0.352214	-0.000043	0.041542
C82	C	0.256850	-0.000089	0.025711
H83	H	0.234853	0.038652	-0.044617
H84	H	0.227906	0.059318	0.078835
H85	H	0.230676	-0.098272	0.030113
O86	O	0.898874	-0.000130	0.588202
C87	C	0.914706	-0.000097	0.683567
H88	H	0.985030	-0.038846	0.705561
H89	H	0.861577	-0.059505	0.712508
H90	H	0.910311	0.098083	0.709745
