data_functionalizedCrystal
_audit_creation_method	'MofGen! by Chris Wilmer'
_symmetry_space_group_name_H-M	'P1'
_symmetry_Int_Tables_number	1
_symmetry_cell_setting	triclinic
loop_
_symmetry_equiv_pos_as_xyz
  x,y,z
_cell_length_a	19.805405
_cell_length_b	19.805407
_cell_length_c	19.805399
_cell_angle_alpha	90.020409
_cell_angle_beta	90.029301
_cell_angle_gamma	90.028350
loop_
_atom_site_label
_atom_site_type_symbol
_atom_site_fract_x
_atom_site_fract_y
_atom_site_fract_z
Zn1	Zn	-0.269444	1.034736	0.382727
Zn2	Zn	-0.019444	1.284736	0.632727
Zn3	Zn	0.230556	1.534736	0.882727
Zn4	Zn	0.480556	1.784736	1.132727
Zn5	Zn	-0.382632	1.034651	0.269535
Zn6	Zn	-0.132632	1.284651	0.519535
Zn7	Zn	0.117368	1.534651	0.769535
Zn8	Zn	0.367368	1.784651	1.019535
Zn9	Zn	-0.269466	0.921550	0.269550
Zn10	Zn	-0.019466	1.171550	0.519550
Zn11	Zn	0.230534	1.421550	0.769550
Zn12	Zn	0.480534	1.671550	1.019550
Zn13	Zn	-0.382600	0.921514	0.382680
Zn14	Zn	-0.132600	1.171514	0.632680
Zn15	Zn	0.117400	1.421514	0.882680
Zn16	Zn	0.367400	1.671514	1.132680
O17	O	-0.326036	0.978113	0.326123
O18	O	-0.076036	1.228113	0.576123
O19	O	0.173964	1.478113	0.826123
O20	O	0.423964	1.728113	1.076123
O21	O	-0.284463	1.129441	0.367725
O22	O	-0.034463	1.379441	0.617725
O23	O	0.215537	1.629441	0.867725
O24	O	0.465537	1.879441	1.117725
O25	O	-0.367643	1.019627	0.174820
O26	O	-0.117643	1.269627	0.424820
O27	O	0.132357	1.519627	0.674820
O28	O	0.382357	1.769627	0.924820
O29	O	-0.174747	0.936616	0.284588
O30	O	0.075253	1.186616	0.534588
O31	O	0.325253	1.436616	0.784588
O32	O	0.575253	1.686616	1.034588
O33	O	-0.367622	1.129378	0.284564
O34	O	-0.117622	1.379378	0.534564
O35	O	0.132378	1.629378	0.784564
O36	O	0.382378	1.879378	1.034564
O37	O	-0.174730	1.019772	0.367739
O38	O	0.075270	1.269772	0.617739
O39	O	0.325270	1.519772	0.867739
O40	O	0.575270	1.769772	1.117739
O41	O	-0.284501	0.936533	0.174831
O42	O	-0.034501	1.186533	0.424831
O43	O	0.215499	1.436533	0.674831
O44	O	0.465499	1.686533	0.924831
O45	O	-0.284470	0.826829	0.284543
O46	O	-0.034470	1.076829	0.534543
O47	O	0.215530	1.326829	0.784543
O48	O	0.465530	1.576829	1.034543
O49	O	-0.367567	0.936553	0.477403
O50	O	-0.117567	1.186553	0.727403
O51	O	0.132433	1.436553	0.977403
O52	O	0.382433	1.686553	1.227403
O53	O	-0.367589	0.826802	0.367660
O54	O	-0.117589	1.076802	0.617660
O55	O	0.132411	1.326802	0.867660
O56	O	0.382411	1.576802	1.117660
O57	O	-0.284431	1.019737	0.477437
O58	O	-0.034431	1.269737	0.727437
O59	O	0.215569	1.519737	0.977437
O60	O	0.465569	1.769737	1.227437
O61	O	-0.477345	1.019592	0.284518
O62	O	-0.227345	1.269592	0.534518
O63	O	0.022655	1.519592	0.784518
O64	O	0.272655	1.769592	1.034518
O65	O	-0.477321	0.936471	0.367646
O66	O	-0.227321	1.186471	0.617646
O67	O	0.022679	1.436471	0.867646
O68	O	0.272679	1.686471	1.117646
C69	C	-0.326029	0.802257	0.326098
C70	C	-0.076029	1.052257	0.576098
C71	C	0.173971	1.302257	0.826098
C72	C	0.423971	1.552257	1.076098
C73	C	-0.326042	0.727025	0.326104
C74	C	-0.076042	0.977025	0.576104
C75	C	0.173958	1.227025	0.826104
C76	C	0.423958	1.477025	1.076104
C77	C	-0.282816	0.265270	0.369517
C78	C	-0.032816	0.515270	0.619517
C79	C	0.217184	0.765270	0.869517
C80	C	0.467184	1.015270	1.119517
C81	C	-0.282817	0.335958	0.369513
C82	C	-0.032817	0.585958	0.619513
C83	C	0.217183	0.835958	0.869513
C84	C	0.467183	1.085958	1.119513
C85	C	-0.326046	0.371263	0.326145
C86	C	-0.076046	0.621263	0.576145
C87	C	0.173954	0.871263	0.826145
C88	C	0.423954	1.121263	1.076145
C89	C	-0.369281	0.335876	0.282784
C90	C	-0.119281	0.585876	0.532784
C91	C	0.130719	0.835876	0.782784
C92	C	0.380719	1.085876	1.032784
C93	C	-0.369283	0.265188	0.282793
C94	C	-0.119283	0.515188	0.532793
C95	C	0.130717	0.765188	0.782793
C96	C	0.380717	1.015188	1.032793
C97	C	-0.369276	0.620949	0.282748
C98	C	-0.119276	0.870949	0.532748
C99	C	0.130724	1.120949	0.782748
C100	C	0.380724	1.370949	1.032748
C101	C	-0.369270	0.691641	0.282741
C102	C	-0.119270	0.941641	0.532741
C103	C	0.130730	1.191641	0.782741
C104	C	0.380730	1.441641	1.032741
C105	C	-0.282810	0.691719	0.369468
C106	C	-0.032810	0.941719	0.619468
C107	C	0.217190	1.191719	0.869468
C108	C	0.467190	1.441719	1.119468
C109	C	-0.282812	0.621031	0.369477
C110	C	-0.032812	0.871031	0.619477
C111	C	0.217188	1.121031	0.869477
C112	C	0.467188	1.371031	1.119477
C113	C	-0.326049	0.585650	0.326119
C114	C	-0.076049	0.835650	0.576119
C115	C	0.173951	1.085650	0.826119
C116	C	0.423951	1.335650	1.076119
C117	C	-0.326048	0.509002	0.326125
C118	C	-0.076048	0.759002	0.576125
C119	C	0.173952	1.009002	0.826125
C120	C	0.423952	1.259002	1.076125
C121	C	-0.326044	0.447910	0.326134
C122	C	-0.076044	0.697910	0.576134
C123	C	0.173956	0.947910	0.826134
C124	C	0.423956	1.197910	1.076134
C125	C	-0.501892	0.978036	0.326090
C126	C	-0.251892	1.228036	0.576090
C127	C	-0.001892	1.478036	0.826090
C128	C	0.248108	1.728036	1.076090
C129	C	-0.577124	0.978066	0.326099
C130	C	-0.327124	1.228066	0.576099
C131	C	-0.077124	1.478066	0.826099
C132	C	0.172876	1.728066	1.076099
C133	C	-0.612458	1.021389	0.282860
C134	C	-0.362458	1.271389	0.532860
C135	C	-0.112458	1.521389	0.782860
C136	C	0.137542	1.771389	1.032860
C137	C	-0.683146	1.021418	0.282875
C138	C	-0.433146	1.271418	0.532875
C139	C	-0.183146	1.521418	0.782875
C140	C	0.066854	1.771418	1.032875
C141	C	-0.718499	0.978119	0.326126
C142	C	-0.468499	1.228119	0.576126
C143	C	-0.218499	1.478119	0.826126
C144	C	0.031501	1.728119	1.076126
C145	C	-0.683160	0.934794	0.369370
C146	C	-0.433160	1.184794	0.619370
C147	C	-0.183160	1.434794	0.869370
C148	C	0.066840	1.684794	1.119370
C149	C	-0.612473	0.934769	0.369357
C150	C	-0.362473	1.184769	0.619357
C151	C	-0.112473	1.434769	0.869357
C152	C	0.137527	1.684769	1.119357
C153	C	-0.968233	0.934894	0.369420
C154	C	-0.718233	1.184894	0.619420
C155	C	-0.468233	1.434894	0.869420
C156	C	-0.218233	1.684894	1.119420
C157	C	-1.038926	0.934921	0.369427
C158	C	-0.788926	1.184921	0.619427
C159	C	-0.538926	1.434921	0.869427
C160	C	-0.288926	1.684921	1.119427
C161	C	-1.038906	1.021542	0.282937
C162	C	-0.788906	1.271542	0.532937
C163	C	-0.538906	1.521542	0.782937
C164	C	-0.288906	1.771542	1.032937
C165	C	-0.968219	1.021518	0.282925
C166	C	-0.718219	1.271518	0.532925
C167	C	-0.468219	1.521518	0.782925
C168	C	-0.218219	1.771518	1.032925
C169	C	-0.932886	0.978195	0.326171
C170	C	-0.682886	1.228195	0.576171
C171	C	-0.432886	1.478195	0.826171
C172	C	-0.182886	1.728195	1.076171
C173	C	-0.856238	0.978166	0.326155
C174	C	-0.606238	1.228166	0.576155
C175	C	-0.356238	1.478166	0.826155
C176	C	-0.106238	1.728166	1.076155
C177	C	-0.795146	0.978145	0.326139
C178	C	-0.545146	1.228145	0.576139
C179	C	-0.295146	1.478145	0.826139
C180	C	-0.045146	1.728145	1.076139
C181	C	-0.149493	0.978207	0.326171
C182	C	0.100507	1.228207	0.576171
C183	C	0.350507	1.478207	0.826171
C184	C	0.600507	1.728207	1.076171
C185	C	-0.074261	0.978248	0.326191
C186	C	0.175739	1.228248	0.576191
C187	C	0.425739	1.478248	0.826191
C188	C	0.675739	1.728248	1.076191
C189	C	-0.325993	0.978151	0.502666
C190	C	-0.075993	1.228151	0.752666
C191	C	0.174007	1.478151	1.002666
C192	C	0.424007	1.728151	1.252666
C193	C	-0.325975	0.978167	0.577898
C194	C	-0.075975	1.228167	0.827898
C195	C	0.174025	1.478167	1.077898
C196	C	0.424025	1.728167	1.327898
C197	C	-0.326043	1.154655	0.326148
C198	C	-0.076043	1.404655	0.576148
C199	C	0.173957	1.654655	0.826148
C200	C	0.423957	1.904655	1.076148
C201	C	-0.326046	1.229887	0.326158
C202	C	-0.076046	1.479887	0.576158
C203	C	0.173954	1.729887	0.826158
C204	C	0.423954	1.979887	1.076158
C205	C	-0.326029	0.978114	0.150267
C206	C	-0.076029	1.228114	0.400267
C207	C	0.173971	1.478114	0.650267
C208	C	0.423971	1.728114	0.900267
C209	C	-0.325857	0.978229	0.075035
C210	C	-0.075857	1.228229	0.325035
C211	C	0.174143	1.478229	0.575035
C212	C	0.424143	1.728229	0.825035
C213	C	-0.282684	1.021481	0.613261
C214	C	-0.032684	1.271481	0.863261
C215	C	0.217316	1.521481	1.113261
C216	C	0.467316	1.771481	1.363261
C217	C	-0.282664	1.021488	0.683949
C218	C	-0.032664	1.271488	0.933949
C219	C	0.217336	1.521488	1.183949
C220	C	0.467336	1.771488	1.433949
C221	C	-0.325939	0.978184	0.719273
C222	C	-0.075939	1.228184	0.969273
C223	C	0.174061	1.478184	1.219273
C224	C	0.424061	1.728184	1.469273
C225	C	-0.369232	0.934864	0.683905
C226	C	-0.119232	1.184864	0.933905
C227	C	0.130768	1.434864	1.183905
C228	C	0.380768	1.684864	1.433905
C229	C	-0.369248	0.934854	0.613218
C230	C	-0.119248	1.184854	0.863218
C231	C	0.130752	1.434854	1.113218
C232	C	0.380752	1.684854	1.363218
C233	C	-0.369169	0.934902	0.968979
C234	C	-0.119169	1.184902	1.218979
C235	C	0.130831	1.434902	1.468979
C236	C	0.380831	1.684902	1.718979
C237	C	-0.369151	0.934917	1.039671
C238	C	-0.119151	1.184917	1.289671
C239	C	0.130849	1.434917	1.539671
C240	C	0.380849	1.684917	1.789671
C241	C	-0.282586	1.021536	1.039710
C242	C	-0.032586	1.271536	1.289710
C243	C	0.217414	1.521536	1.539710
C244	C	0.467414	1.771536	1.789710
C245	C	-0.282601	1.021527	0.969023
C246	C	-0.032601	1.271527	1.219023
C247	C	0.217399	1.521527	1.469023
C248	C	0.467399	1.771527	1.719023
C249	C	-0.325891	0.978205	0.933661
C250	C	-0.075891	1.228205	1.183661
C251	C	0.174109	1.478205	1.433661
C252	C	0.424109	1.728205	1.683661
C253	C	-0.325911	0.978197	0.857012
C254	C	-0.075911	1.228197	1.107012
C255	C	0.174089	1.478197	1.357012
C256	C	0.424089	1.728197	1.607012
C257	C	-0.325923	0.978194	0.795921
C258	C	-0.075923	1.228194	1.045921
C259	C	0.174077	1.478194	1.295921
C260	C	0.424077	1.728194	1.545921
H261	H	-0.404481	0.592150	0.247441
H262	H	-0.154481	0.842150	0.497441
H263	H	0.095519	1.092150	0.747441
H264	H	0.345519	1.342150	0.997441
Br265	Br	-0.224131	0.739739	0.428314
Br266	Br	0.025869	0.989739	0.678314
Br267	Br	0.275869	1.239739	0.928314
Br268	Br	0.525869	1.489739	1.178314
Br269	Br	-0.223873	1.080303	0.921086
Br270	Br	0.026127	1.330303	1.171086
Br271	Br	0.276127	1.580303	1.421086
Br272	Br	0.526127	1.830303	1.671086
Br273	Br	-0.920291	0.876100	0.428111
Br274	Br	-0.670291	1.126100	0.678111
Br275	Br	-0.420291	1.376100	0.928111
Br276	Br	-0.170291	1.626100	1.178111
H277	H	-0.404482	0.364626	0.247475
H278	H	-0.154482	0.614626	0.497475
H279	H	0.095518	0.864626	0.747475
H280	H	0.345518	1.114626	0.997475
H281	H	-0.404493	0.899576	0.584426
H282	H	-0.154493	1.149576	0.834426
H283	H	0.095507	1.399576	1.084426
H284	H	0.345507	1.649576	1.334426
H285	H	-0.404487	0.236381	0.247486
H286	H	-0.154487	0.486381	0.497486
H287	H	0.095513	0.736381	0.747486
H288	H	0.345513	0.986381	0.997486
Br289	Br	-0.731139	0.876037	0.428074
Br290	Br	-0.481139	1.126037	0.678074
Br291	Br	-0.231139	1.376037	0.928074
Br292	Br	0.018861	1.626037	1.178074
Br293	Br	-0.427918	0.876107	0.920996
Br294	Br	-0.177918	1.126107	1.170996
Br295	Br	0.072082	1.376107	1.420996
Br296	Br	0.322082	1.626107	1.670996
Br297	Br	-0.564485	1.080148	0.224152
Br298	Br	-0.314485	1.330148	0.474152
Br299	Br	-0.064485	1.580148	0.724152
Br300	Br	0.185515	1.830148	0.974152
Br301	Br	-0.427959	0.876088	0.731844
Br302	Br	-0.177959	1.126088	0.981844
Br303	Br	0.072041	1.376088	1.231844
Br304	Br	0.322041	1.626088	1.481844
Br305	Br	-0.731097	1.080220	0.224195
Br306	Br	-0.481097	1.330220	0.474195
Br307	Br	-0.231097	1.580220	0.724195
Br308	Br	0.018903	1.830220	0.974195
Br309	Br	-0.920243	1.080280	0.224224
Br310	Br	-0.670243	1.330280	0.474224
Br311	Br	-0.420243	1.580280	0.724224
Br312	Br	-0.170243	1.830280	0.974224
Br313	Br	-0.224139	0.217363	0.428372
Br314	Br	0.025861	0.467363	0.678372
Br315	Br	0.275861	0.717363	0.928372
Br316	Br	0.525861	0.967363	1.178372
H317	H	-1.067683	1.056820	0.247726
H318	H	-0.817683	1.306820	0.497726
H319	H	-0.567683	1.556820	0.747726
H320	H	-0.317683	1.806820	0.997726
H321	H	-0.247414	1.056761	0.712739
H322	H	0.002586	1.306761	0.962739
H323	H	0.252586	1.556761	1.212739
H324	H	0.502586	1.806761	1.462739
Br325	Br	-1.086905	0.876155	0.428129
Br326	Br	-0.836905	1.126155	0.678129
Br327	Br	-0.586905	1.376155	0.928129
Br328	Br	-0.336905	1.626155	1.178129
H329	H	-0.247446	1.056747	0.584505
H330	H	0.002554	1.306747	0.834505
H331	H	0.252554	1.556747	1.084505
H332	H	0.502554	1.806747	1.334505
H333	H	-0.247335	1.056809	1.068510
H334	H	0.002665	1.306809	1.318510
H335	H	0.252665	1.556809	1.568510
H336	H	0.502665	1.806809	1.818510
Br337	Br	-0.224139	0.573121	0.428332
Br338	Br	0.025861	0.823121	0.678332
Br339	Br	0.275861	1.073121	0.928332
Br340	Br	0.525861	1.323121	1.178332
H341	H	-0.404392	0.899650	1.068430
H342	H	-0.154392	1.149650	1.318430
H343	H	0.095608	1.399650	1.568430
H344	H	0.345608	1.649650	1.818430
H345	H	-0.404475	0.720384	0.247424
H346	H	-0.154475	0.970384	0.497424
H347	H	0.095525	1.220384	0.747424
H348	H	0.345525	1.470384	0.997424
Br349	Br	-0.224150	0.383975	0.428365
Br350	Br	0.025850	0.633975	0.678365
Br351	Br	0.275850	0.883975	0.928365
Br352	Br	0.525850	1.133975	1.178365
Br353	Br	-0.564519	0.875976	0.428046
Br354	Br	-0.314519	1.125976	0.678046
Br355	Br	-0.064519	1.375976	0.928046
Br356	Br	0.185481	1.625976	1.178046
