data_functionalizedCrystal
_audit_creation_method	'MofGen! by Chris Wilmer'
_symmetry_space_group_name_H-M	'P1'
_symmetry_Int_Tables_number	1
_symmetry_cell_setting	triclinic
loop_
_symmetry_equiv_pos_as_xyz
  x,y,z
_cell_length_a	16.120484
_cell_length_b	13.897449
_cell_length_c	13.897441
_cell_angle_alpha	89.973931
_cell_angle_beta	87.134365
_cell_angle_gamma	87.074300
loop_
_atom_site_label
_atom_site_type_symbol
_atom_site_fract_x
_atom_site_fract_y
_atom_site_fract_z
Zn1	Zn	-0.331881	-1.455180	0.564961
Zn2	Zn	0.001452	-1.121847	0.898294
Zn3	Zn	0.334785	-0.788514	1.231627
Zn4	Zn	-0.471313	-1.446873	0.411830
Zn5	Zn	-0.137979	-1.113539	0.745164
Zn6	Zn	0.195354	-0.780206	1.078497
Zn7	Zn	-0.331918	-1.293867	0.403666
Zn8	Zn	0.001415	-0.960534	0.737000
Zn9	Zn	0.334749	-0.627201	1.070333
Zn10	Zn	-0.471255	-1.285653	0.573065
Zn11	Zn	-0.137921	-0.952320	0.906398
Zn12	Zn	0.195412	-0.618986	1.239731
O13	O	-0.401592	-1.370393	0.488381
O14	O	-0.068258	-1.037060	0.821714
O15	O	0.265075	-0.703727	1.155047
O16	O	-0.350386	-1.589059	0.544673
O17	O	-0.017053	-1.255726	0.878006
O18	O	0.316280	-0.922393	1.211340
O19	O	-0.452861	-1.426537	0.275768
O20	O	-0.119528	-1.093204	0.609101
O21	O	0.213805	-0.759870	0.942435
O22	O	-0.215248	-1.322181	0.418254
O23	O	0.118086	-0.988847	0.751588
O24	O	0.451419	-0.655514	1.084921
O25	O	-0.452826	-1.582956	0.432169
O26	O	-0.119493	-1.249622	0.765502
O27	O	0.213841	-0.916289	1.098835
O28	O	-0.215221	-1.440697	0.536757
O29	O	0.118113	-1.107363	0.870090
O30	O	0.451446	-0.774030	1.203423
O31	O	-0.350448	-1.314125	0.269770
O32	O	-0.017115	-0.980792	0.603103
O33	O	0.316218	-0.647458	0.936437
O34	O	-0.350392	-1.157797	0.426112
O35	O	-0.017059	-0.824463	0.759445
O36	O	0.316275	-0.491130	1.092779
O37	O	-0.452727	-1.308180	0.706969
O38	O	-0.119394	-0.974847	1.040302
O39	O	0.213940	-0.641513	1.373636
O40	O	-0.452762	-1.151762	0.550568
O41	O	-0.119429	-0.818428	0.883902
O42	O	0.213904	-0.485095	1.217235
O43	O	-0.350330	-1.432731	0.701015
O44	O	-0.016997	-1.099398	1.034349
O45	O	0.316337	-0.766065	1.367682
O46	O	-0.587971	-1.418572	0.440027
O47	O	-0.254637	-1.085239	0.773360
O48	O	0.078696	-0.751905	1.106693
O49	O	-0.587928	-1.300124	0.558485
O50	O	-0.254595	-0.966791	0.891818
O51	O	0.078739	-0.633458	1.225151
C52	C	-0.401575	-1.119780	0.488334
C53	C	-0.068242	-0.786447	0.821668
C54	C	0.265091	-0.453113	1.155001
C55	C	-0.401589	-1.012565	0.488339
C56	C	-0.068255	-0.679232	0.821672
C57	C	0.265078	-0.345899	1.155005
C58	C	-0.401590	-0.925495	0.488351
C59	C	-0.068257	-0.592162	0.821684
C60	C	0.265076	-0.258829	1.155017
C61	C	-0.401595	-0.816263	0.488375
C62	C	-0.068261	-0.482929	0.821708
C63	C	0.265072	-0.149596	1.155042
C64	C	-0.618199	-1.357581	0.501042
C65	C	-0.284866	-1.024248	0.834375
C66	C	0.048467	-0.690915	1.167709
C67	C	-0.710865	-1.352189	0.506491
C68	C	-0.377532	-1.018855	0.839824
C69	C	-0.044198	-0.685522	1.173157
C70	C	-0.880526	-1.342349	0.516459
C71	C	-0.547193	-1.009015	0.849792
C72	C	-0.213859	-0.675682	1.183125
C73	C	-0.921817	-1.398611	0.460318
C74	C	-0.588483	-1.065278	0.793651
C75	C	-0.255150	-0.731944	1.126985
C76	C	-1.016222	-1.393136	0.465864
C77	C	-0.682889	-1.059803	0.799198
C78	C	-0.349555	-0.726469	1.132531
C79	C	-0.786112	-1.347822	0.510914
C80	C	-0.452779	-1.014489	0.844247
C81	C	-0.119446	-0.681156	1.177580
C82	C	-0.184138	-1.383282	0.475691
C83	C	0.149195	-1.049948	0.809024
C84	C	0.482528	-0.716615	1.142357
C85	C	-0.091473	-1.388774	0.470283
C86	C	0.241861	-1.055440	0.803617
C87	C	0.575194	-0.722107	1.136950
C88	C	-0.401518	-1.370466	0.739969
C89	C	-0.068185	-1.037133	1.073303
C90	C	0.265149	-0.703799	1.406636
C91	C	-0.401487	-1.370497	0.847181
C92	C	-0.068153	-1.037164	1.180515
C93	C	0.265180	-0.703830	1.513848
C94	C	-0.401605	-0.621985	0.488416
C95	C	-0.068272	-0.288652	0.821749
C96	C	0.265061	0.044681	1.155082
C97	C	-0.401602	-0.729200	0.488400
C98	C	-0.068269	-0.395866	0.821733
C99	C	0.265064	-0.062533	1.155067
C100	C	-0.401605	-1.370380	0.237767
C101	C	-0.068272	-1.037047	0.571100
C102	C	0.265062	-0.703713	0.904434
C103	C	-0.401401	-1.370550	0.130542
C104	C	-0.068068	-1.037216	0.463875
C105	C	0.265265	-0.703883	0.797208
C106	C	-0.401430	-1.370527	1.043473
C107	C	-0.068097	-1.037193	1.376807
C108	C	0.265236	-0.703860	1.710140
C109	C	-0.401464	-1.370507	0.934243
C110	C	-0.068131	-1.037174	1.267576
C111	C	0.265203	-0.703840	1.600910
H112	H	-0.886266	-1.450890	0.408089
H113	H	-0.552933	-1.117556	0.741422
H114	H	-0.219599	-0.784223	1.074755
C115	C	-0.928551	-1.271716	0.587004
C116	C	-0.595218	-0.938382	0.920337
C117	C	-0.261884	-0.605049	1.253670
N118	N	-0.964733	-1.218511	0.640132
N119	N	-0.631400	-0.885178	0.973466
N120	N	-0.298067	-0.551845	1.306799
