data_functionalizedCrystal
_audit_creation_method	'MofGen! by Chris Wilmer'
_symmetry_space_group_name_H-M	'P1'
_symmetry_Int_Tables_number	1
_symmetry_cell_setting	triclinic
loop_
_symmetry_equiv_pos_as_xyz
  x,y,z
_cell_length_a	19.077713
_cell_length_b	16.625547
_cell_length_c	19.076919
_cell_angle_alpha	92.276735
_cell_angle_beta	94.658599
_cell_angle_gamma	87.732996
loop_
_atom_site_label
_atom_site_type_symbol
_atom_site_fract_x
_atom_site_fract_y
_atom_site_fract_z
Zn1	Zn	-0.296667	1.227387	-0.409952
Zn2	Zn	-0.409812	1.237695	-0.296806
Zn3	Zn	-0.291951	1.097767	-0.292073
Zn4	Zn	-0.414508	1.097707	-0.414641
O5	O	-0.353234	1.165139	-0.353368
O6	O	-0.311684	1.341587	-0.394962
O7	O	-0.390239	1.223472	-0.197531
O8	O	-0.193934	1.110672	-0.303767
O9	O	-0.394811	1.349160	-0.311833
O10	O	-0.197399	1.205904	-0.390372
O11	O	-0.303646	1.120667	-0.194054
O12	O	-0.308200	0.984927	-0.308314
O13	O	-0.402815	1.110571	-0.512666
O14	O	-0.398242	0.984883	-0.398363
O15	O	-0.316237	1.205846	-0.509221
O16	O	-0.509077	1.223414	-0.316380
O17	O	-0.512527	1.120566	-0.402952
C18	C	-0.353219	0.955649	-0.353334
C19	C	-0.353230	0.866028	-0.353337
C20	C	-0.353232	0.793246	-0.353346
C21	C	-0.353237	0.701937	-0.353364
C22	C	-0.353244	0.629160	-0.353382
C23	C	-0.353249	0.537845	-0.353399
C24	C	-0.536380	1.173123	-0.360704
C25	C	-0.614731	1.176612	-0.363866
C26	C	-1.055954	1.201630	-0.386523
C27	C	-0.982335	1.198344	-0.383545
C28	C	-0.943786	1.147161	-0.336936
C29	C	-0.978861	1.099267	-0.293296
C30	C	-1.052479	1.102558	-0.296270
C31	C	-0.723424	1.132010	-0.323200
C32	C	-0.649801	1.128720	-0.320230
C33	C	-0.653280	1.227798	-0.410479
C34	C	-0.726900	1.231081	-0.413452
C35	C	-0.761968	1.183191	-0.369810
N36	N	-0.868535	1.143798	-0.333893
N37	N	-0.837217	1.186558	-0.372849
C38	C	-0.169374	1.157145	-0.346019
C39	C	-0.091024	1.153738	-0.342887
C40	C	-0.360576	1.157052	-0.537237
C41	C	-0.363705	1.153606	-0.615591
C42	C	-0.353250	1.375447	-0.353402
C43	C	-0.353257	1.465068	-0.353417
C44	C	-0.320100	1.201589	-0.650609
C45	C	-0.323037	1.198341	-0.724231
C46	C	-0.369582	1.147114	-0.762833
C47	C	-0.413189	1.099125	-0.727809
C48	C	-0.410248	1.102370	-0.654189
C49	C	-0.383208	1.132088	-0.983207
C50	C	-0.386148	1.128849	-1.056832
C51	C	-0.295995	1.228064	-1.053249
C52	C	-0.293061	1.231308	-0.979627
C53	C	-0.336664	1.183316	-0.944610
N54	N	-0.372587	1.143795	-0.838086
N55	N	-0.333656	1.186632	-0.869358
C56	C	-0.345870	1.173239	-0.170213
C57	C	-0.342543	1.176832	-0.091851
H58	H	-1.087336	1.243300	-0.424484
H59	H	-0.255160	1.273025	-0.948203
H60	H	-0.282200	1.243307	-0.619185
Br61	Br	-0.442384	1.066955	-0.935692
Br62	Br	-1.100074	1.037566	-0.237043
H63	H	-0.445748	1.063288	-0.625677
Br64	Br	-0.263890	1.263503	-0.771755
Br65	Br	-0.597485	1.059260	-0.256965
H66	H	-0.953781	1.237341	-0.419076
Br67	Br	-0.236820	1.293191	-1.100776
Br68	Br	-0.449318	1.059319	-1.109221
Br69	Br	-0.476354	1.029596	-0.780197
H70	H	-0.758281	1.272770	-0.451398
H71	H	-0.751968	1.093014	-0.287663
Br72	Br	-0.926545	1.029809	-0.230035
Br73	Br	-0.605684	1.292788	-0.469706
