data_functionalizedCrystal
_audit_creation_method	'MofGen! by Chris Wilmer'
_symmetry_space_group_name_H-M	'P1'
_symmetry_Int_Tables_number	1
_symmetry_cell_setting	triclinic
loop_
_symmetry_equiv_pos_as_xyz
  x,y,z
_cell_length_a	13.897448
_cell_length_b	13.897449
_cell_length_c	10.685986
_cell_angle_alpha	94.349164
_cell_angle_beta	85.588833
_cell_angle_gamma	90.018972
loop_
_atom_site_label
_atom_site_type_symbol
_atom_site_fract_x
_atom_site_fract_y
_atom_site_fract_z
Zn1	Zn	-0.342062	1.432917	-0.713457
Zn2	Zn	-0.008729	1.766251	-0.380124
Zn3	Zn	0.324604	2.099584	-0.046790
Zn4	Zn	-0.515773	1.445169	-0.502449
Zn5	Zn	-0.182440	1.778503	-0.169116
Zn6	Zn	0.150894	2.111836	0.164217
Zn7	Zn	-0.354496	1.283963	-0.502471
Zn8	Zn	-0.021163	1.617297	-0.169138
Zn9	Zn	0.312171	1.950630	0.164195
Zn10	Zn	-0.503324	1.271592	-0.713397
Zn11	Zn	-0.169991	1.604925	-0.380063
Zn12	Zn	0.163342	1.938258	-0.046730
O13	O	-0.428914	1.358410	-0.607944
O14	O	-0.095581	1.691744	-0.274610
O15	O	0.237753	2.025077	0.058723
O16	O	-0.365112	1.569523	-0.685482
O17	O	-0.031779	1.902857	-0.352149
O18	O	0.301555	2.236190	-0.018815
O19	O	-0.504792	1.434090	-0.325872
O20	O	-0.171459	1.767424	0.007462
O21	O	0.161874	2.100757	0.340795
O22	O	-0.217863	1.303772	-0.530494
O23	O	0.115470	1.637106	-0.197160
O24	O	0.448804	1.970439	0.136173
O25	O	-0.492736	1.578525	-0.530456
O26	O	-0.159403	1.911858	-0.197122
O27	O	0.173930	2.245191	0.136211
O28	O	-0.208728	1.413208	-0.685504
O29	O	0.124605	1.746541	-0.352170
O30	O	0.457939	2.079875	-0.018837
O31	O	-0.386303	1.315653	-0.325888
O32	O	-0.052969	1.648986	0.007445
O33	O	0.280364	1.982319	0.340779
O34	O	-0.374232	1.147341	-0.530435
O35	O	-0.040899	1.480675	-0.197102
O36	O	0.292435	1.814008	0.136231
O37	O	-0.471519	1.282687	-0.889985
O38	O	-0.138186	1.616020	-0.556652
O39	O	0.195147	1.949353	-0.223318
O40	O	-0.483576	1.138252	-0.685401
O41	O	-0.150242	1.471585	-0.352068
O42	O	0.183091	1.804919	-0.018734
O43	O	-0.353041	1.401212	-0.890029
O44	O	-0.019708	1.734545	-0.556696
O45	O	0.313626	2.067879	-0.223363
O46	O	-0.649105	1.422094	-0.530397
O47	O	-0.315772	1.755427	-0.197064
O48	O	0.017561	2.088761	0.136269
O49	O	-0.639959	1.294567	-0.685380
O50	O	-0.306626	1.627900	-0.352046
O51	O	0.026707	1.961234	-0.018713
C52	C	-0.428903	1.107798	-0.607915
C53	C	-0.095569	1.441131	-0.274581
C54	C	0.237764	1.774464	0.058752
C55	C	-0.428919	1.000583	-0.607932
C56	C	-0.095586	1.333916	-0.274599
C57	C	0.237747	1.667249	0.058734
C58	C	-0.679530	1.358342	-0.607907
C59	C	-0.346197	1.691675	-0.274574
C60	C	-0.012864	2.025009	0.058760
C61	C	-0.786743	1.358399	-0.607934
C62	C	-0.453409	1.691732	-0.274600
C63	C	-0.120076	2.025065	0.058733
C64	C	-0.428921	0.804286	-0.607965
C65	C	-0.095588	1.137619	-0.274632
C66	C	0.237746	1.470952	0.058701
C67	C	-0.428917	0.913519	-0.607944
C68	C	-0.095584	1.246853	-0.274610
C69	C	0.237749	1.580186	0.058723
C70	C	-0.983033	1.358495	-0.608013
C71	C	-0.649700	1.691829	-0.274679
C72	C	-0.316366	2.025162	0.058654
C73	C	-0.873803	1.358439	-0.607973
C74	C	-0.540470	1.691772	-0.274639
C75	C	-0.207136	2.025105	0.058694
C76	C	-0.177317	1.358504	-0.608008
C77	C	0.156016	1.691837	-0.274674
C78	C	0.489350	2.025170	0.058659
C79	C	-0.070102	1.358543	-0.608035
C80	C	0.263232	1.691877	-0.274702
C81	C	0.596565	2.025210	0.058631
C82	C	-0.409505	1.339203	-0.937073
C83	C	-0.076171	1.672536	-0.603739
C84	C	0.257162	2.005869	-0.270406
C85	C	-0.401234	1.331017	-1.077328
C86	C	-0.067900	1.664351	-0.743995
C87	C	0.265433	1.997684	-0.410661
C88	C	-0.428926	1.610002	-0.607973
C89	C	-0.095592	1.943335	-0.274640
C90	C	0.237741	2.276668	0.058694
C91	C	-0.428931	1.717215	-0.607986
C92	C	-0.095597	2.050548	-0.274652
C93	C	0.237736	2.383881	0.058681
C94	C	-0.448178	1.377599	-0.280095
C95	C	-0.114845	1.710932	0.053239
C96	C	0.218489	2.044266	0.386572
C97	C	-0.456177	1.385971	-0.139840
C98	C	-0.122844	1.719304	0.193493
C99	C	0.210489	2.052638	0.526826
H100	H	-0.347867	1.277712	-1.131108
H101	H	-0.014534	1.611045	-0.797774
H102	H	0.318800	1.944379	-0.464441
H103	H	-0.509539	1.439288	-1.086054
H104	H	-0.176206	1.772621	-0.752721
H105	H	0.157127	2.105954	-0.419387
