data_functionalizedCrystal
_audit_creation_method	'MofGen! by Chris Wilmer'
_symmetry_space_group_name_H-M	'P1'
_symmetry_Int_Tables_number	1
_symmetry_cell_setting	triclinic
loop_
_symmetry_equiv_pos_as_xyz
  x,y,z
_cell_length_a	13.033293
_cell_length_b	13.032868
_cell_length_c	21.395355
_cell_angle_alpha	97.163312
_cell_angle_beta	97.215283
_cell_angle_gamma	74.808508
loop_
_atom_site_label
_atom_site_type_symbol
_atom_site_fract_x
_atom_site_fract_y
_atom_site_fract_z
Zn1	Zn	1.570223	0.216991	0.490551
Zn2	Zn	1.547507	0.394607	0.397561
Zn3	Zn	1.392573	0.239526	0.373953
Zn4	Zn	1.369974	0.417100	0.490472
O5	O	1.470069	0.317056	0.438134
O6	O	1.715855	0.221708	0.488130
O7	O	1.526906	0.374053	0.306749
O8	O	1.435103	0.087888	0.379573
O9	O	1.699166	0.352202	0.419810
O10	O	1.565621	0.071332	0.465237
O11	O	1.413076	0.260115	0.289404
O12	O	1.240929	0.281926	0.379496
O13	O	1.396586	0.390538	0.578163
O14	O	1.224326	0.412389	0.465102
O15	O	1.543708	0.243518	0.578221
O16	O	1.504993	0.546239	0.419733
O17	O	1.374559	0.562765	0.487994
C18	C	1.194085	0.352045	0.419729
C19	C	1.076015	0.367038	0.411871
C20	C	1.031620	0.309258	0.442237
C21	C	0.909588	0.324753	0.434117
C22	C	1.434888	0.593041	0.456433
C23	C	1.419934	0.711097	0.464288
C24	C	1.477860	0.755511	0.434048
C25	C	1.462406	0.877527	0.442167
C26	C	1.747130	0.281932	0.456612
C27	C	1.865197	0.266964	0.464486
C28	C	1.470160	0.317024	0.601562
C29	C	1.470199	0.317010	0.671205
C30	C	1.505382	1.039994	0.419771
C31	C	1.520340	0.921938	0.411923
C32	C	1.470049	0.317004	0.275341
C33	C	1.470254	0.316693	0.205692
C34	C	1.546803	0.240454	0.703949
C35	C	1.546807	0.240409	0.769382
C36	C	1.470216	0.316936	0.802069
C37	C	1.393598	0.393498	0.769317
C38	C	1.393590	0.393535	0.703885
C39	C	1.449636	0.413645	0.911527
C40	C	1.449652	0.413609	0.976958
C41	C	1.470237	0.316823	1.003883
C42	C	1.490828	0.220067	0.965370
C43	C	1.490820	0.220104	0.899938
C44	C	1.470217	0.316904	0.873020
C45	C	1.546850	0.240212	1.107577
C46	C	1.546847	0.240166	1.173009
C47	C	1.393643	0.393264	1.172944
C48	C	1.393641	0.393302	1.107512
C49	C	1.470250	0.316776	1.074832
H50	H	0.917528	0.206014	0.496494
H51	H	1.538898	0.703206	0.402151
H52	H	1.401373	0.929831	0.474071
H53	H	1.023680	0.427976	0.379861
C54	C	1.602801	0.851284	0.368824
N55	N	1.664908	0.798066	0.336362
C56	C	1.337477	0.781757	0.507383
N57	N	1.275366	0.834977	0.539842
H58	H	1.331235	0.455804	0.795935
H59	H	1.331205	0.455875	0.677224
C60	C	1.631063	0.156261	0.668004
N61	N	1.694524	0.092843	0.640928
H62	H	1.609185	0.178062	0.796047
C63	C	1.513455	0.113676	0.857575
N64	N	1.530498	0.033512	0.825667
H65	H	1.507592	0.141255	0.987291
C66	C	1.309374	0.477524	1.071492
N67	N	1.245897	0.540962	1.044362
C68	C	1.631112	0.156025	1.071626
N69	N	1.694578	0.092614	1.044549
H70	H	1.609226	0.177819	1.199668
H71	H	1.331272	0.455565	1.199556
C72	C	1.427001	0.520042	1.019316
N73	N	1.409936	0.600210	1.051219
C74	C	1.427010	0.520123	0.881918
N75	N	1.409976	0.600320	0.859618
H76	H	0.857257	0.385695	0.402104
C77	C	1.102318	0.226924	0.485478
N78	N	1.155567	0.164909	0.518048
