data_functionalizedCrystal
_audit_creation_method	'MofGen! by Chris Wilmer'
_symmetry_space_group_name_H-M	'P1'
_symmetry_Int_Tables_number	1
_symmetry_cell_setting	triclinic
loop_
_symmetry_equiv_pos_as_xyz
  x,y,z
_cell_length_a	28.938199
_cell_length_b	28.937346
_cell_length_c	28.934044
_cell_angle_alpha	60.005004
_cell_angle_beta	60.009897
_cell_angle_gamma	59.994060
loop_
_atom_site_label
_atom_site_type_symbol
_atom_site_fract_x
_atom_site_fract_y
_atom_site_fract_z
O1	O	0.064043	-0.675186	0.564597
O2	O	0.564043	-0.175186	1.064597
O3	O	0.024124	-0.525682	0.454913
O4	O	0.524124	-0.025682	0.954913
O5	O	0.118795	-0.620275	0.454833
O6	O	0.618795	-0.120275	0.954833
O7	O	-0.030629	-0.580593	0.564678
O8	O	0.469371	-0.080593	1.064678
O9	O	0.150204	-0.588870	0.486157
O10	O	0.650204	-0.088870	0.986157
O11	O	0.055533	-0.494276	0.486238
O12	O	0.555533	0.005724	0.986238
O13	O	0.095452	-0.643780	0.595921
O14	O	0.595452	-0.143780	1.095921
Cu15	Cu	0.078360	-0.566161	0.543940
Cu16	Cu	0.578360	-0.066161	1.043940
Cu17	Cu	0.041215	-0.603301	0.506895
Cu18	Cu	0.541215	-0.103301	1.006895
O19	O	0.000780	-0.549187	0.596002
O20	O	0.500780	-0.049187	1.096002
N21	N	0.104487	-0.540042	0.569998
N22	N	0.604487	-0.040042	1.069998
N23	N	0.015094	-0.629425	0.480837
N24	N	0.515094	-0.129425	0.980837
C25	C	0.165467	-0.323909	0.630915
C26	C	0.665467	0.176091	1.130915
C27	C	0.165587	-0.479117	0.786068
C28	C	0.665587	0.020883	1.286068
C29	C	0.165481	-0.479095	0.630906
C30	C	0.665481	0.020905	1.130906
C31	C	0.320696	-0.479083	0.630835
C32	C	0.820696	0.020917	1.130835
C33	C	0.182557	-0.375118	0.647971
C34	C	0.682557	0.124882	1.147971
C35	C	0.182626	-0.462038	0.734858
C36	C	0.682626	0.037962	1.234858
C37	C	0.269485	-0.462018	0.647928
C38	C	0.769485	0.037982	1.147928
C39	C	0.182566	-0.462025	0.647966
C40	C	0.682566	0.037975	1.147966
C41	C	0.143714	-0.258726	0.609206
C42	C	0.643714	0.241274	1.109206
C43	C	0.143738	-0.500820	0.609192
C44	C	0.643738	-0.000820	1.109192
C45	C	0.204309	-0.440300	0.669680
C46	C	0.704309	0.059700	1.169680
C47	C	0.415481	-0.462740	0.580919
C48	C	0.915481	0.037260	1.080919
C49	C	0.474732	-0.482485	0.561145
C50	C	0.974732	0.017515	1.061145
C51	C	0.474757	-0.578356	0.597704
C52	C	0.974757	-0.078356	1.097704
C53	C	0.415508	-0.558609	0.617479
C54	C	0.915508	-0.058609	1.117479
C55	C	0.157989	-0.229089	0.550957
C56	C	0.657989	0.270911	1.050957
C57	C	0.138212	-0.169834	0.531225
C58	C	0.638212	0.330166	1.031225
C59	C	0.089890	-0.169857	0.627992
C60	C	0.589890	0.330143	1.127992
C61	C	0.109667	-0.229112	0.647725
C62	C	0.609667	0.270888	1.147725
C63	C	0.085482	-0.486515	0.623535
C64	C	0.585482	0.013485	1.123535
C65	C	0.065722	-0.506265	0.603789
C66	C	0.565722	-0.006265	1.103789
C67	C	0.162467	-0.554625	0.555370
C68	C	0.662467	-0.054625	1.055370
C69	C	0.182230	-0.534875	0.575110
C70	C	0.682230	-0.034875	1.075110
C71	C	0.085661	-0.486557	0.880902
C72	C	0.585661	0.013443	1.380902
C73	C	0.065952	-0.506323	0.940155
C74	C	0.565952	-0.006323	1.440155
C75	C	0.162734	-0.554693	0.940102
C76	C	0.662734	-0.054693	1.440102
C77	C	0.182441	-0.534928	0.880847
C78	C	0.682441	-0.034928	1.380847
C79	C	0.143904	-0.500859	0.851249
C80	C	0.643904	-0.000859	1.351249
C81	C	0.385871	-0.500801	0.609083
C82	C	0.885871	-0.000801	1.109083
C83	C	-0.110907	-0.668480	0.441278
C84	C	0.389093	-0.168480	0.941278
C85	C	-0.024049	-0.668588	0.441475
C86	C	0.475951	-0.168588	0.941475
C87	C	-0.045729	-0.690282	0.419668
C88	C	0.454271	-0.190282	0.919668
C89	C	-0.062146	-0.785032	0.469507
C90	C	0.437854	-0.285032	0.969507
C91	C	-0.042446	-0.844287	0.489286
C92	C	0.457554	-0.344287	0.989286
C93	C	0.053426	-0.844399	0.452899
C94	C	0.553426	-0.344399	0.952899
C95	C	0.033725	-0.785144	0.433120
C96	C	0.533725	-0.285144	0.933120
C97	C	-0.140617	-0.682751	0.499509
C98	C	0.359383	-0.182751	0.999509
C99	C	-0.199867	-0.662928	0.519152
C100	C	0.300133	-0.162928	1.019152
C101	C	-0.199694	-0.614571	0.422330
C102	C	0.300306	-0.114571	0.922330
C103	C	-0.140443	-0.634393	0.402687
C104	C	0.359557	-0.134393	0.902687
C105	C	-0.038320	-0.610337	0.427144
C106	C	0.461680	-0.110337	0.927144
C107	C	-0.018610	-0.590621	0.446974
C108	C	0.481390	-0.090621	0.946974
C109	C	0.029642	-0.687402	0.495454
C110	C	0.529642	-0.187402	0.995454
C111	C	0.009933	-0.707121	0.475630
C112	C	0.509933	-0.207121	0.975630
C113	C	-0.038148	-0.610347	0.324832
C114	C	0.461852	-0.110347	0.824832
C115	C	-0.018301	-0.590634	0.265579
C116	C	0.481699	-0.090634	0.765579
C117	C	0.030035	-0.687421	0.265643
C118	C	0.530035	-0.187421	0.765643
C119	C	0.010190	-0.707133	0.324897
C120	C	0.510190	-0.207133	0.824897
C121	C	-0.023903	-0.668595	0.354491
C122	C	0.476097	-0.168595	0.854491
C123	C	-0.024062	-0.755463	0.441426
C124	C	0.475938	-0.255463	0.941426
N125	N	0.503527	-0.540005	0.569810
N126	N	1.003527	-0.040005	1.069810
O127	O	0.684453	-0.545211	0.434650
O128	O	1.184453	-0.045211	0.934650
O129	O	0.684643	-0.655237	0.584005
O130	O	1.184643	-0.155237	1.084005
O131	O	0.684567	-0.654986	0.489282
O132	O	1.184567	-0.154986	0.989282
O133	O	0.684529	-0.545462	0.529373
O134	O	1.184529	-0.045462	1.029373
O135	O	0.590438	-0.623674	0.520735
O136	O	1.090438	-0.123674	1.020735
O137	O	0.590513	-0.623924	0.615457
O138	O	1.090513	-0.123924	1.115457
O139	O	0.590323	-0.513899	0.466102
O140	O	1.090323	-0.013899	0.966102
Cu141	Cu	0.581823	-0.566053	0.543652
Cu142	Cu	1.081823	-0.066053	1.043652
Cu143	Cu	0.693143	-0.603083	0.506456
Cu144	Cu	1.193143	-0.103083	1.006456
O145	O	0.590399	-0.514149	0.560825
O146	O	1.090399	-0.014149	1.060825
N147	N	0.771439	-0.629131	0.480292
N148	N	1.271439	-0.129131	0.980292
N149	N	0.104456	-0.141061	0.570015
N150	N	0.604456	0.358939	1.070015
O151	O	-0.030629	0.039964	0.564688
O152	O	0.469371	0.539964	1.064688
O153	O	0.118732	0.039984	0.454661
O154	O	0.618732	0.539984	0.954661
O155	O	0.023980	0.039958	0.454946
O156	O	0.523980	0.539958	0.954946
O157	O	0.064123	0.039990	0.564403
O158	O	0.564123	0.539990	1.064403
O159	O	0.055392	-0.054179	0.486321
O160	O	0.555392	0.445821	0.986321
O161	O	0.150144	-0.054153	0.486036
O162	O	0.650144	0.445847	0.986036
O163	O	0.000784	-0.054173	0.596063
O164	O	0.500784	0.445827	1.096063
Cu165	Cu	0.078332	-0.062759	0.543914
Cu166	Cu	0.578332	0.437241	1.043914
Cu167	Cu	0.041183	0.048570	0.506810
Cu168	Cu	0.541183	0.548570	1.006810
O169	O	0.095535	-0.054147	0.595778
O170	O	0.595535	0.445853	1.095778
N171	N	0.015053	0.126872	0.480710
N172	N	0.515053	0.626872	0.980710
N173	N	0.104760	-0.540096	0.968910
N174	N	0.604760	-0.040096	1.468910
O175	O	0.099447	-0.675167	1.149923
O176	O	0.599447	-0.175167	1.649923
O177	O	-0.010552	-0.525757	1.149951
O178	O	0.489448	-0.025757	1.649951
O179	O	-0.010297	-0.620493	1.149918
O180	O	0.489703	-0.120493	1.649918
O181	O	0.099192	-0.580431	1.149956
O182	O	0.599192	-0.080431	1.649956
O183	O	0.021064	-0.589100	1.055785
O184	O	0.521064	-0.089100	1.555785
O185	O	0.020809	-0.494365	1.055818
O186	O	0.520809	0.005635	1.555818
O187	O	0.130808	-0.643774	1.055790
O188	O	0.630808	-0.143774	1.555790
Cu189	Cu	0.078672	-0.566203	1.047209
Cu190	Cu	0.578672	-0.066203	1.547209
Cu191	Cu	0.041584	-0.603328	1.158532
Cu192	Cu	0.541584	-0.103328	1.658532
O193	O	0.130553	-0.549038	1.055823
O194	O	0.630553	-0.049038	1.555823
N195	N	0.015495	-0.629442	1.236831
N196	N	0.515495	-0.129442	1.736831
C197	C	0.036087	-0.491140	0.455465
C198	C	0.536087	0.008860	0.955465
C199	C	0.153325	-0.608283	0.455364
C200	C	0.653325	-0.108283	0.955364
C201	C	0.083488	-0.678322	0.595370
C202	C	0.583488	-0.178322	1.095370
C203	C	-0.033750	-0.561180	0.595470
C204	C	0.466250	-0.061180	1.095470
C205	C	0.637601	-0.654732	0.618548
C206	C	1.137601	-0.154732	1.118548
C207	C	0.637509	-0.654422	0.501245
C208	C	1.137509	-0.154422	1.001245
C209	C	0.637362	-0.514403	0.431560
C210	C	1.137362	-0.014403	0.931560
C211	C	0.637458	-0.514713	0.548862
C212	C	1.137458	-0.014713	1.048862
C213	C	0.153215	-0.006966	0.455158
C214	C	0.653215	0.493034	0.955158
C215	C	0.035916	-0.007114	0.455550
C216	C	0.535916	0.492886	0.955550
C217	C	-0.033739	-0.007106	0.595527
C218	C	0.466261	0.492894	1.095527
C219	C	0.083600	-0.007076	0.595174
C220	C	0.583600	0.492924	1.095174
C221	C	-0.010020	-0.491238	1.102888
C222	C	0.489980	0.008762	1.602888
C223	C	-0.009698	-0.608550	1.102828
C224	C	0.490302	-0.108550	1.602828
C225	C	0.130276	-0.678293	1.102853
C226	C	0.630276	-0.178293	1.602853
C227	C	0.129961	-0.560974	1.102892
C228	C	0.629961	-0.060974	1.602892
H229	H	0.054276	-0.458811	0.856808
H230	H	0.554276	0.041189	1.356808
H231	H	0.164358	-0.552401	1.102897
H232	H	0.664358	-0.052401	1.602897
H233	H	-0.116252	-0.622767	0.355267
H234	H	0.383748	-0.122767	0.855267
O235	O	0.204563	-0.618454	0.414280
O236	O	0.704563	-0.118454	0.914280
C237	C	0.239731	-0.674075	0.434734
C238	C	0.739731	-0.174075	0.934734
H239	H	0.224372	-0.689064	0.482944
H240	H	0.724372	-0.189064	0.982944
H241	H	0.238174	-0.703345	0.420396
H242	H	0.738174	-0.203345	0.920396
C243	C	0.319859	-0.656636	0.352106
C244	C	0.819859	-0.156636	0.852106
C245	C	0.300998	-0.675044	0.411319
C246	C	0.800998	-0.175044	0.911319
H247	H	0.357652	-0.657235	0.337661
H248	H	0.857652	-0.157235	0.837661
H249	H	0.296166	-0.619164	0.338325
H250	H	0.796166	-0.119164	0.838325
H251	H	0.318557	-0.681031	0.340166
H252	H	0.818557	-0.181031	0.840166
H253	H	0.302294	-0.650646	0.423259
H254	H	0.802294	-0.150646	0.923259
H255	H	0.324693	-0.712512	0.425102
H256	H	0.824693	-0.212512	0.925102
O257	O	-0.084923	-0.551035	0.636640
O258	O	0.415077	-0.051035	1.136640
C259	C	-0.095052	-0.505219	0.649699
C260	C	0.404948	-0.005219	1.149699
H261	H	-0.053026	-0.500671	0.637178
H262	H	0.446974	-0.000671	1.137178
H263	H	-0.122369	-0.464645	0.625400
H264	H	0.377631	0.035355	1.125400
C265	C	-0.177603	-0.521712	0.729083
C266	C	0.322397	-0.021712	1.229083
C267	C	-0.125985	-0.516129	0.713708
C268	C	0.374015	-0.016129	1.213708
H269	H	-0.196687	-0.528440	0.768566
H270	H	0.303313	-0.028440	1.268566
H271	H	-0.170781	-0.552578	0.720284
H272	H	0.329219	-0.052578	1.220284
H273	H	-0.200360	-0.487899	0.708829
H274	H	0.299640	0.012101	1.208829
H275	H	-0.103227	-0.549945	0.733957
H276	H	0.396773	-0.049945	1.233957
H277	H	-0.132804	-0.485269	0.722512
H278	H	0.367196	0.014731	1.222512
O279	O	0.238839	-0.548834	0.561139
O280	O	0.738839	-0.048834	1.061139
C281	C	0.268575	-0.583110	0.526807
C282	C	0.768575	-0.083110	1.026807
H283	H	0.240323	-0.604664	0.534385
H284	H	0.740323	-0.104664	1.034385
H285	H	0.281305	-0.555758	0.480399
H286	H	0.781305	-0.055758	0.980399
C287	C	0.356724	-0.601912	0.532451
C288	C	0.856724	-0.101912	1.032451
C289	C	0.322026	-0.628388	0.541762
C290	C	0.822026	-0.128388	1.041762
H291	H	0.389696	-0.629840	0.541674
H292	H	0.889696	-0.129840	1.041674
H293	H	0.336691	-0.578818	0.555579
H294	H	0.836691	-0.078818	1.055579
H295	H	0.367326	-0.579119	0.493778
H296	H	0.867326	-0.079119	0.993778
H297	H	0.311418	-0.651174	0.580436
H298	H	0.811418	-0.151174	1.080436
H299	H	0.342058	-0.651487	0.518641
H300	H	0.842058	-0.151487	1.018641
H301	H	0.637649	-0.689271	0.661445
H302	H	1.137649	-0.189271	1.161445
O303	O	-0.084954	-0.007004	0.636687
O304	O	0.415046	0.492996	1.136687
C305	C	-0.127638	0.041739	0.617335
C306	C	0.372362	0.541739	1.117335
H307	H	-0.108361	0.075812	0.582079
H308	H	0.391639	0.575812	1.082079
H309	H	-0.147658	0.030707	0.600458
H310	H	0.352342	0.530707	1.100458
C311	C	-0.196934	0.022008	0.709920
C312	C	0.303066	0.522008	1.209920
C313	C	-0.173259	0.063860	0.666621
C314	C	0.326741	0.563860	1.166621
H315	H	-0.225077	0.035652	0.740323
H316	H	0.274923	0.535652	1.240323
H317	H	-0.168178	-0.010832	0.722958
H318	H	0.331822	0.489168	1.222958
H319	H	-0.213614	0.012818	0.695849
H320	H	0.286386	0.512818	1.195849
H321	H	-0.156574	0.073043	0.680691
H322	H	0.343426	0.573043	1.180691
H323	H	-0.202013	0.096702	0.653587
H324	H	0.297987	0.596702	1.153587
H325	H	0.092195	-0.007066	0.629560
H326	H	0.592195	0.492934	1.129560
O327	O	0.093649	-0.729599	0.636418
O328	O	0.593649	-0.229599	1.136418
C329	C	0.106956	-0.772226	0.616985
C330	C	0.606956	-0.272226	1.116985
H331	H	0.088717	-0.752917	0.581819
H332	H	0.588717	-0.252917	1.081819
H333	H	0.154884	-0.792129	0.599963
H334	H	0.654884	-0.292129	1.099963
C335	C	0.103789	-0.841705	0.709448
C336	C	0.603789	-0.341705	1.209448
C337	C	0.081383	-0.817990	0.666260
C338	C	0.581383	-0.317990	1.166260
H339	H	0.088017	-0.869936	0.739843
H340	H	0.588017	-0.369936	1.239843
H341	H	0.094826	-0.812987	0.722540
H342	H	0.594826	-0.312987	1.222540
H343	H	0.143728	-0.858286	0.695256
H344	H	0.643728	-0.358286	1.195256
H345	H	0.041446	-0.801403	0.680451
H346	H	0.541446	-0.301403	1.180451
H347	H	0.090339	-0.846706	0.653171
H348	H	0.590339	-0.346706	1.153171
H349	H	0.498884	-0.625426	0.604536
H350	H	0.998884	-0.125426	1.104536
H351	H	0.637300	-0.479859	0.388668
H352	H	1.137300	0.020141	0.888668
H353	H	0.637525	-0.688829	0.492664
H354	H	1.137525	-0.188829	0.992664
O355	O	0.023868	-0.763725	0.489578
O356	O	0.523868	-0.263725	0.989578
C357	C	0.058076	-0.793508	0.523987
C358	C	0.558076	-0.293508	1.023987
H359	H	0.079621	-0.765286	0.516487
H360	H	0.579621	-0.265286	1.016487
H361	H	0.030675	-0.806246	0.570372
H362	H	0.530675	-0.306246	1.070372
C363	C	0.076894	-0.881623	0.518258
C364	C	0.576894	-0.381623	1.018258
C365	C	0.103359	-0.846961	0.509042
C366	C	0.603359	-0.346961	1.009042
H367	H	0.104824	-0.914597	0.509042
H368	H	0.604824	-0.414597	1.009042
H369	H	0.053845	-0.861558	0.495078
H370	H	0.553845	-0.361558	0.995078
H371	H	0.054060	-0.892232	0.556912
H372	H	0.554060	-0.392232	1.056912
H373	H	0.126186	-0.836348	0.470387
H374	H	0.626186	-0.336348	0.970387
H375	H	0.126412	-0.867026	0.532215
H376	H	0.626412	-0.367026	1.032215
H377	H	-0.044080	-0.617108	1.102779
H378	H	0.455920	-0.117108	1.602779
H379	H	0.637450	-0.480310	0.557440
H380	H	1.137450	0.019690	1.057440
H381	H	0.196022	-0.006699	0.420530
H382	H	0.696022	0.493301	0.920530
O383	O	0.025816	-0.439885	0.414418
O384	O	0.525816	0.060115	0.914418
C385	C	-0.029802	-0.404773	0.434960
C386	C	0.470198	0.095227	0.934960
H387	H	-0.056622	-0.432086	0.471310
H388	H	0.443378	0.067914	0.971310
H389	H	-0.028948	-0.376202	0.450699
H390	H	0.471052	0.123798	0.950699
C391	C	-0.022542	-0.334571	0.342387
C392	C	0.477458	0.165429	0.842387
C393	C	-0.055483	-0.368118	0.387030
C394	C	0.444517	0.131882	0.887030
H395	H	-0.038383	-0.311959	0.312822
H396	H	0.461617	0.188041	0.812822
H397	H	0.014930	-0.358225	0.328548
H398	H	0.514930	0.141775	0.828548
H399	H	-0.021833	-0.310767	0.355511
H400	H	0.478167	0.189233	0.855511
H401	H	-0.056186	-0.391926	0.373908
H402	H	0.443814	0.108074	0.873908
H403	H	-0.092956	-0.344467	0.400866
H404	H	0.407044	0.155533	0.900866
H405	H	0.027318	-0.007118	0.421162
H406	H	0.527318	0.492882	0.921162
H407	H	-0.044554	-0.448327	1.102896
H408	H	0.455446	0.051673	1.602896
H409	H	0.164813	-0.721202	1.102837
H410	H	0.664813	-0.221202	1.602837
H411	H	0.194117	-0.582425	0.964198
H412	H	0.694117	-0.082425	1.464198
O413	O	0.009354	-0.492346	0.968868
O414	O	0.509354	0.007654	1.468868
C415	C	-0.020428	-0.458047	0.930034
C416	C	0.479572	0.041953	1.430034
H417	H	0.007810	-0.436500	0.887791
H418	H	0.507810	0.063500	1.387791
H419	H	-0.033212	-0.485378	0.923736
H420	H	0.466788	0.014622	1.423736
C421	C	-0.108520	-0.439229	1.005067
C422	C	0.391480	0.060771	1.505067
C423	C	-0.073838	-0.412762	0.953185
C424	C	0.426162	0.087238	1.453185
H425	H	-0.141467	-0.411297	1.019348
H426	H	0.358533	0.088703	1.519348
H427	H	-0.088456	-0.462339	1.031231
H428	H	0.411544	0.037661	1.531231
H429	H	-0.119167	-0.462005	0.999812
H430	H	0.380833	0.037995	1.499812
H431	H	-0.063186	-0.389993	0.958442
H432	H	0.436814	0.110007	1.458442
H433	H	-0.093902	-0.389647	0.927022
H434	H	0.406098	0.110353	1.427022
H435	H	0.054136	-0.458786	0.651283
H436	H	0.554136	0.041214	1.151283
O437	O	0.239040	-0.548854	0.852130
O438	O	0.739040	-0.048854	1.352130
C439	C	0.268825	-0.583170	0.890963
C440	C	0.768825	-0.083170	1.390963
H441	H	0.240586	-0.575617	0.933209
H442	H	0.740586	-0.075617	1.433209
H443	H	0.281613	-0.629582	0.897253
H444	H	0.781613	-0.129582	1.397253
C445	C	0.356913	-0.577435	0.815929
C446	C	0.856913	-0.077435	1.315929
C447	C	0.322231	-0.568156	0.867815
C448	C	0.822231	-0.068156	1.367815
H449	H	0.389858	-0.568177	0.801651
H450	H	0.889858	-0.068177	1.301651
H451	H	0.336847	-0.554318	0.789767
H452	H	0.836847	-0.054318	1.289767
H453	H	0.367564	-0.616113	0.821179
H454	H	0.867564	-0.116113	1.321179
H455	H	0.311575	-0.529478	0.862564
H456	H	0.811575	-0.029478	1.362564
H457	H	0.342297	-0.591267	0.893977
H458	H	0.842297	-0.091267	1.393977
H459	H	0.193817	-0.582360	0.527624
H460	H	0.693817	-0.082360	1.027624
O461	O	0.386777	-0.595597	0.644744
O462	O	0.886777	-0.095597	1.144744
C463	C	0.401254	-0.623349	0.608481
C464	C	0.901254	-0.123349	1.108481
H465	H	0.417509	-0.596361	0.562612
H466	H	0.917509	-0.096361	1.062612
H467	H	0.435667	-0.666107	0.618015
H468	H	0.935667	-0.166107	1.118015
C469	C	0.328658	-0.665509	0.674287
C470	C	0.828658	-0.165509	1.174287
C471	C	0.348619	-0.632360	0.617950
C472	C	0.848619	-0.132360	1.117950
H473	H	0.296191	-0.671070	0.680130
H474	H	0.796191	-0.171070	1.180130
H475	H	0.318905	-0.646814	0.698720
H476	H	0.818905	-0.146814	1.198720
H477	H	0.357341	-0.701137	0.682226
H478	H	0.857341	-0.201137	1.182226
H479	H	0.319939	-0.596731	0.610015
H480	H	0.819939	-0.096731	1.110015
H481	H	0.358365	-0.651049	0.593516
H482	H	0.858365	-0.151049	1.093516
O483	O	0.503411	-0.445433	0.533772
O484	O	1.003411	0.054567	1.033772
C485	C	0.464550	-0.390176	0.530614
C486	C	0.964550	0.109824	1.030614
H487	H	0.422305	-0.387869	0.534518
H488	H	0.922305	0.112131	1.034518
H489	H	0.458275	-0.379115	0.566508
H490	H	0.958275	0.120885	1.066508
C491	C	0.539528	-0.350706	0.468610
C492	C	1.039528	0.149294	0.968610
C493	C	0.487643	-0.347872	0.473400
C494	C	0.987643	0.152128	0.973400
H495	H	0.553773	-0.324611	0.433319
H496	H	1.053773	0.175389	0.933319
H497	H	0.565710	-0.387934	0.470739
H498	H	1.065710	0.112066	0.970739
H499	H	0.534291	-0.341490	0.498525
H500	H	1.034291	0.158510	0.998525
H501	H	0.492882	-0.357095	0.443490
H502	H	0.992882	0.142905	0.943490
H503	H	0.461462	-0.310645	0.471264
H504	H	0.961462	0.189355	0.971264
H505	H	0.018285	-0.494604	0.615454
H506	H	0.518285	0.005396	1.115454
H507	H	0.185713	-0.253197	0.519589
H508	H	0.685713	0.246803	1.019589
O509	O	0.386603	-0.406599	0.572792
O510	O	0.886603	0.093401	1.072792
C511	C	0.327957	-0.397329	0.596294
C512	C	0.827957	0.102671	1.096294
H513	H	0.319864	-0.433546	0.599149
H514	H	0.819864	0.066454	1.099149
H515	H	0.311167	-0.395234	0.640454
H516	H	0.811167	0.104766	1.140454
C517	C	0.307448	-0.296630	0.554949
C518	C	0.807448	0.203370	1.054949
C519	C	0.297508	-0.341110	0.558451
C520	C	0.797508	0.158890	1.058451
H521	H	0.288664	-0.261950	0.531608
H522	H	0.788664	0.238050	1.031608
H523	H	0.346959	-0.302874	0.539117
H524	H	0.846959	0.197126	1.039117
H525	H	0.293456	-0.294891	0.591751
H526	H	0.793456	0.205109	1.091751
H527	H	0.311506	-0.342852	0.521650
H528	H	0.811506	0.157148	1.021650
H529	H	0.257998	-0.334864	0.574276
H530	H	0.757998	0.165136	1.074276
O531	O	0.152148	-0.141128	0.474621
O532	O	0.652148	0.358872	0.974621
C533	C	0.186429	-0.179973	0.444856
C534	C	0.686429	0.320027	0.944856
H535	H	0.208000	-0.222213	0.473098
H536	H	0.708000	0.277787	0.973098
H537	H	0.159081	-0.186280	0.432099
H538	H	0.659081	0.313720	0.932099
C539	C	0.205184	-0.104949	0.356737
C540	C	0.705184	0.395051	0.856737
C541	C	0.231682	-0.156827	0.391423
C542	C	0.731682	0.343173	0.891423
H543	H	0.233097	-0.090671	0.323776
H544	H	0.733097	0.409329	0.823776
H545	H	0.182087	-0.078778	0.376790
H546	H	0.682087	0.421222	0.876790
H547	H	0.182395	-0.110212	0.346112
H548	H	0.682395	0.389788	0.846112
H549	H	0.254464	-0.151562	0.402053
H550	H	0.754464	0.348438	0.902053
H551	H	0.254784	-0.182997	0.371371
H552	H	0.754784	0.317003	0.871371
H553	H	0.098041	-0.253238	0.695156
H554	H	0.598041	0.246762	1.195156
O555	O	0.056806	-0.141174	0.665485
O556	O	0.556806	0.358826	1.165485
C557	C	0.048468	-0.180041	0.721130
C558	C	0.548468	0.319959	1.221130
H559	H	0.055093	-0.222280	0.721023
H560	H	0.555093	0.277720	1.221023
H561	H	0.080025	-0.186339	0.738082
H562	H	0.580025	0.313661	1.238082
C563	C	-0.020356	-0.105054	0.759293
C564	C	0.479644	0.394946	1.259293
C565	C	-0.012224	-0.156931	0.759162
C566	C	0.487776	0.343069	1.259162
H567	H	-0.057792	-0.090798	0.782754
H568	H	0.442208	0.409202	1.282754
H569	H	-0.014737	-0.078868	0.721804
H570	H	0.485263	0.421132	1.221804
H571	H	0.005946	-0.110309	0.773418
H572	H	0.505946	0.389691	1.273418
H573	H	-0.038520	-0.151674	0.745030
H574	H	0.461480	0.348326	1.245030
H575	H	-0.017848	-0.183116	0.796649
H576	H	0.482152	0.316884	1.296649
H577	H	-0.029909	-0.543201	0.241439
H578	H	0.470091	-0.043201	0.741439
H579	H	0.057785	-0.718806	0.241554
H580	H	0.557785	-0.218806	0.741554
O581	O	-0.071176	-0.572890	0.353559
O582	O	0.428824	-0.072890	0.853559
C583	C	-0.041246	-0.538676	0.339139
C584	C	0.458754	-0.038676	0.839139
H585	H	0.006157	-0.561605	0.322922
H586	H	0.506157	-0.061605	0.822922
H587	H	-0.053797	-0.497044	0.304712
H588	H	0.446203	0.002956	0.804712
C589	C	-0.113849	-0.498406	0.411715
C590	C	0.386151	0.001594	0.911715
C591	C	-0.055629	-0.526569	0.391802
C592	C	0.444371	-0.026569	0.891802
H593	H	-0.122722	-0.490935	0.444199
H594	H	0.377278	0.009065	0.944199
H595	H	-0.134015	-0.521455	0.421430
H596	H	0.365985	-0.021455	0.921430
H597	H	-0.124301	-0.463716	0.383022
H598	H	0.375699	0.036284	0.883022
H599	H	-0.045179	-0.561262	0.420493
H600	H	0.454821	-0.061262	0.920493
H601	H	-0.035461	-0.503526	0.382094
H602	H	0.464539	-0.003526	0.882094
O603	O	0.023961	-0.763724	0.353682
O604	O	0.523961	-0.263724	0.853682
C605	C	0.003738	-0.788299	0.339121
C606	C	0.503738	-0.288299	0.839121
H607	H	-0.032753	-0.754529	0.322750
H608	H	0.467247	-0.254529	0.822750
H609	H	0.039321	-0.807043	0.304768
H610	H	0.539321	-0.307043	0.804768
C611	C	0.027696	-0.876916	0.411842
C612	C	0.527696	-0.376916	0.911842
C613	C	-0.017127	-0.835441	0.391739
C614	C	0.482873	-0.335441	0.891739
H615	H	0.014828	-0.905998	0.444298
H616	H	0.514828	-0.405998	0.944298
H617	H	0.041323	-0.860361	0.421651
H618	H	0.541323	-0.360361	0.921651
H619	H	0.057345	-0.892530	0.383210
H620	H	0.557345	-0.392530	0.883210
H621	H	-0.046770	-0.819823	0.420369
H622	H	0.453230	-0.319823	0.920369
H623	H	-0.030758	-0.851995	0.381937
H624	H	0.469242	-0.351995	0.881937
O625	O	0.070786	-0.756482	0.405784
O626	O	0.570786	-0.256482	0.905784
C627	C	0.111057	-0.770996	0.356962
C628	C	0.611057	-0.270996	0.856962
H629	H	0.113833	-0.814006	0.362301
H630	H	0.613833	-0.314006	0.862301
H631	H	0.097738	-0.737646	0.318534
H632	H	0.597738	-0.237646	0.818534
C633	C	0.165880	-0.720973	0.341772
C634	C	0.665880	-0.220973	0.841772
C635	C	0.169293	-0.773802	0.348331
C636	C	0.669293	-0.273802	0.848331
H637	H	0.201802	-0.722702	0.336447
H638	H	0.701802	-0.222702	0.836447
H639	H	0.138748	-0.711193	0.374664
H640	H	0.638748	-0.211193	0.874664
H641	H	0.154779	-0.693187	0.309750
H642	H	0.654779	-0.193187	0.809750
H643	H	0.180387	-0.801585	0.380358
H644	H	0.680387	-0.301585	0.880358
H645	H	0.196428	-0.783587	0.315445
H646	H	0.696428	-0.283587	0.815445
O647	O	-0.079517	-0.872922	0.516537
O648	O	0.420483	-0.372922	1.016537
C649	C	-0.107233	-0.858439	0.480237
C650	C	0.392767	-0.358439	0.980237
H651	H	-0.105779	-0.815459	0.446465
H652	H	0.394221	-0.315459	0.946465
H653	H	-0.085149	-0.891834	0.459081
H654	H	0.414851	-0.391834	0.959081
C655	C	-0.171092	-0.908353	0.556266
C656	C	0.328908	-0.408353	1.056266
C657	C	-0.169310	-0.855562	0.514789
C658	C	0.330690	-0.355562	1.014789
H659	H	-0.209383	-0.906581	0.577579
H660	H	0.290617	-0.406581	1.077579
H661	H	-0.152418	-0.918112	0.580722
H662	H	0.347582	-0.418112	1.080722
H663	H	-0.152685	-0.936177	0.538629
H664	H	0.347315	-0.436177	1.038629
H665	H	-0.187710	-0.827741	0.532426
H666	H	0.312290	-0.327741	1.032426
H667	H	-0.187989	-0.845798	0.490337
H668	H	0.312011	-0.345798	0.990337
H669	H	-0.030233	-0.543188	0.435308
H670	H	0.469767	-0.043188	0.935308
O671	O	-0.111985	-0.715918	0.537048
O672	O	0.388015	-0.215918	1.037048
C673	C	-0.126514	-0.765582	0.571273
C674	C	0.373486	-0.265582	1.071273
H675	H	-0.169512	-0.757583	0.571767
H676	H	0.330488	-0.257583	1.071767
H677	H	-0.093162	-0.801250	0.553493
H678	H	0.406838	-0.301250	1.053493
C679	C	-0.076542	-0.792276	0.631405
C680	C	0.423458	-0.292276	1.131405
C681	C	-0.129356	-0.782451	0.632014
C682	C	0.370644	-0.282451	1.132014
H683	H	-0.078292	-0.802684	0.668872
H684	H	0.421708	-0.302684	1.168872
H685	H	-0.066751	-0.758818	0.608345
H686	H	0.433249	-0.258818	1.108345
H687	H	-0.048754	-0.821999	0.616585
H688	H	0.451246	-0.321999	1.116585
H689	H	-0.157141	-0.752724	0.646827
H690	H	0.342859	-0.252724	1.146827
H691	H	-0.139151	-0.815905	0.655078
H692	H	0.360849	-0.315905	1.155078
O693	O	-0.228754	-0.676694	0.575717
O694	O	0.271246	-0.176694	1.075717
C695	C	-0.263037	-0.626886	0.590001
C696	C	0.236963	-0.126886	1.090001
H697	H	-0.245130	-0.591324	0.556626
H698	H	0.254870	-0.091324	1.056626
H699	H	-0.307920	-0.614368	0.591878
H700	H	0.192080	-0.114368	1.091878
C701	C	-0.286042	-0.681107	0.689143
C702	C	0.213958	-0.181107	1.189143
C703	C	-0.264044	-0.637430	0.648154
C704	C	0.235956	-0.137430	1.148154
H705	H	-0.286665	-0.687611	0.725015
H706	H	0.213335	-0.187611	1.225015
H707	H	-0.262946	-0.714664	0.679520
H708	H	0.237054	-0.214664	1.179520
H709	H	-0.323442	-0.670669	0.690700
H710	H	0.176558	-0.170669	1.190700
H711	H	-0.226642	-0.647872	0.646592
H712	H	0.273358	-0.147872	1.146592
H713	H	-0.287134	-0.603876	0.657778
H714	H	0.212866	-0.103876	1.157778
H715	H	0.057315	-0.718782	0.523258
H716	H	0.557315	-0.218782	1.023258
O717	O	-0.228302	-0.581450	0.384768
O718	O	0.271698	-0.081450	0.884768
C719	C	-0.189373	-0.573128	0.329156
C720	C	0.310627	-0.073128	0.829156
H721	H	-0.147158	-0.579797	0.329348
H722	H	0.352842	-0.079797	0.829348
H723	H	-0.183057	-0.604668	0.312172
H724	H	0.316943	-0.104668	0.812172
C725	C	-0.264257	-0.504232	0.290859
C726	C	0.235743	-0.004232	0.790859
C727	C	-0.212409	-0.512418	0.291093
C728	C	0.287591	-0.012418	0.791093
H729	H	-0.278467	-0.466785	0.267378
H730	H	0.221533	0.033215	0.767378
H731	H	-0.290485	-0.509840	0.328325
H732	H	0.209515	-0.009840	0.828325
H733	H	-0.258987	-0.530520	0.276707
H734	H	0.241013	-0.030520	0.776707
H735	H	-0.217682	-0.486136	0.305252
H736	H	0.282318	0.013864	0.805252
H737	H	-0.186183	-0.506804	0.253628
H738	H	0.313817	-0.006804	0.753628
H739	H	-0.065985	-0.578958	0.399332
H740	H	0.434015	-0.078958	0.899332
H741	H	0.100481	-0.868567	0.446139
H742	H	0.600481	-0.368567	0.946139
H743	H	-0.109200	-0.760870	0.476275
H744	H	0.390800	-0.260870	0.976275
