data_functionalizedCrystal
_audit_creation_method	'MofGen! by Chris Wilmer'
_symmetry_space_group_name_H-M	'P1'
_symmetry_Int_Tables_number	1
_symmetry_cell_setting	triclinic
loop_
_symmetry_equiv_pos_as_xyz
  x,y,z
_cell_length_a	21.395361
_cell_length_b	21.395362
_cell_length_c	21.395356
_cell_angle_alpha	89.957023
_cell_angle_beta	89.969319
_cell_angle_gamma	90.046585
loop_
_atom_site_label
_atom_site_type_symbol
_atom_site_fract_x
_atom_site_fract_y
_atom_site_fract_z
Zn1	Zn	-0.249189	0.957854	-0.354573
Zn2	Zn	0.250811	1.457854	0.145427
Zn3	Zn	-0.353965	0.957758	-0.249790
Zn4	Zn	0.146035	1.457758	0.250210
Zn5	Zn	-0.249235	0.853070	-0.249774
Zn6	Zn	0.250765	1.353070	0.250226
Zn7	Zn	-0.353962	0.853038	-0.354494
Zn8	Zn	0.146038	1.353038	0.145506
O9	O	-0.301588	0.905430	-0.302158
O10	O	0.198412	1.405430	0.197842
O11	O	-0.263070	1.045519	-0.340712
O12	O	0.236930	1.545519	0.159288
O13	O	-0.340094	0.943844	-0.162110
O14	O	0.159906	1.443844	0.337890
O15	O	-0.161551	0.867024	-0.263702
O16	O	0.338449	1.367024	0.236298
O17	O	-0.340049	1.045448	-0.263729
O18	O	0.159951	1.545448	0.236271
O19	O	-0.161517	0.944008	-0.340697
O20	O	0.338483	1.444008	0.159303
O21	O	-0.263148	0.866931	-0.162098
O22	O	0.236852	1.366931	0.337902
O23	O	-0.263145	0.765388	-0.263626
O24	O	0.236855	1.265388	0.236374
O25	O	-0.340042	0.866968	-0.442183
O26	O	0.159958	1.366968	0.057817
O27	O	-0.340087	0.765364	-0.340564
O28	O	0.159913	1.265364	0.159436
O29	O	-0.263066	0.943976	-0.442240
O30	O	0.236934	1.443976	0.057760
O31	O	-0.441643	0.943813	-0.263653
O32	O	0.058357	1.443813	0.236347
O33	O	-0.441640	0.866875	-0.340579
O34	O	0.058360	1.366875	0.159421
C35	C	-0.301621	0.742642	-0.302085
C36	C	0.198379	1.242642	0.197915
C37	C	-0.301650	0.673001	-0.302069
C38	C	0.198350	1.173001	0.197931
C39	C	-0.464375	0.905347	-0.302123
C40	C	0.035625	1.405347	0.197877
C41	C	-0.534017	0.905369	-0.302129
C42	C	-0.034017	1.405369	0.197871
C43	C	-0.341767	0.640292	-0.342070
C44	C	0.158233	1.140292	0.157930
C45	C	-0.341752	0.574856	-0.342098
C46	C	0.158248	1.074856	0.157902
C47	C	-0.301626	0.542133	-0.302113
C48	C	0.198374	1.042133	0.197887
C49	C	-0.261501	0.574850	-0.262109
C50	C	0.238499	1.074850	0.237891
C51	C	-0.261513	0.640284	-0.262087
C52	C	0.238487	1.140284	0.237913
C53	C	-0.296587	0.438409	-0.245708
C54	C	0.203413	0.938409	0.254292
C55	C	-0.296580	0.372976	-0.245730
C56	C	0.203420	0.872976	0.254270
C57	C	-0.301585	0.340312	-0.302182
C58	C	0.198415	0.840312	0.197818
C59	C	-0.306611	0.373089	-0.358616
C60	C	0.193389	0.873089	0.141384
C61	C	-0.306623	0.438523	-0.358594
C62	C	0.193377	0.938523	0.141406
C63	C	-0.301608	0.471180	-0.302133
C64	C	0.198392	0.971180	0.197867
C65	C	-0.341687	0.236650	-0.342218
C66	C	0.158313	0.736650	0.157782
C67	C	-0.341668	0.171214	-0.342247
C68	C	0.158332	0.671214	0.157753
C69	C	-0.261421	0.171208	-0.262252
C70	C	0.238579	0.671208	0.237748
C71	C	-0.261437	0.236644	-0.262229
C72	C	0.238563	0.736644	0.237771
C73	C	-0.301574	0.269361	-0.302211
C74	C	0.198426	0.769361	0.197789
C75	C	-0.566710	0.945466	-0.262114
C76	C	-0.066710	1.445466	0.237886
C77	C	-0.632146	0.945495	-0.262128
C78	C	-0.132146	1.445495	0.237872
C79	C	-0.664885	0.905416	-0.302150
C80	C	-0.164885	1.405416	0.197850
C81	C	-0.632183	0.865317	-0.342172
C82	C	-0.132183	1.365317	0.157828
C83	C	-0.566749	0.865293	-0.342162
C84	C	-0.066749	1.365293	0.157838
C85	C	-0.768615	0.849001	-0.307041
C86	C	-0.268615	1.349001	0.192959
C87	C	-0.834048	0.849024	-0.307047
C88	C	-0.334048	1.349024	0.192953
C89	C	-0.866706	0.905489	-0.302187
C90	C	-0.366706	1.405489	0.197813
C91	C	-0.833922	0.961934	-0.297307
C92	C	-0.333922	1.461934	0.202693
C93	C	-0.768488	0.961910	-0.297296
C94	C	-0.268488	1.461910	0.202704
C95	C	-0.735837	0.905438	-0.302167
C96	C	-0.235837	1.405438	0.197833
C97	C	-0.970352	0.945621	-0.262186
C98	C	-0.470352	1.445621	0.237814
C99	C	-1.035788	0.945651	-0.262204
C100	C	-0.535788	1.445651	0.237796
C101	C	-1.035825	0.865467	-0.342245
C102	C	-0.535825	1.365467	0.157755
C103	C	-0.970389	0.865442	-0.342230
C104	C	-0.470389	1.365442	0.157770
C105	C	-0.937657	0.905519	-0.302197
C106	C	-0.437657	1.405519	0.197803
C107	C	-0.138164	0.905530	-0.302206
C108	C	0.361836	1.405530	0.197794
C109	C	-0.068523	0.905573	-0.302227
C110	C	0.431477	1.405573	0.197773
C111	C	-0.301549	0.905479	-0.465581
C112	C	0.198451	1.405479	0.034419
C113	C	-0.301532	0.905500	-0.535222
C114	C	0.198468	1.405500	-0.035222
C115	C	-0.301555	1.068853	-0.302231
C116	C	0.198445	1.568853	0.197769
C117	C	-0.301541	1.138494	-0.302262
C118	C	0.198459	1.638494	0.197738
C119	C	-0.261462	0.865462	-0.567919
C120	C	0.238538	1.365462	-0.067919
C121	C	-0.261451	0.865460	-0.633355
C122	C	0.238549	1.365460	-0.133355
C123	C	-0.301502	0.905507	-0.666091
C124	C	0.198498	1.405507	-0.166091
C125	C	-0.341580	0.945548	-0.633385
C126	C	0.158420	1.445548	-0.133385
C127	C	-0.341595	0.945545	-0.567951
C128	C	0.158405	1.445545	-0.067951
C129	C	-0.306413	0.961959	-0.769796
C130	C	0.193587	1.461959	-0.269796
C131	C	-0.306393	0.961964	-0.835229
C132	C	0.193607	1.461964	-0.335229
C133	C	-0.301460	0.905517	-0.867911
C134	C	0.198540	1.405517	-0.367911
C135	C	-0.296533	0.849065	-0.835153
C136	C	0.203467	1.349065	-0.335153
C137	C	-0.296548	0.849061	-0.769719
C138	C	0.203452	1.349061	-0.269719
C139	C	-0.301491	0.905515	-0.737043
C140	C	0.198509	1.405515	-0.237043
C141	C	-0.261376	0.865474	-0.971561
C142	C	0.238624	1.365474	-0.471561
C143	C	-0.261368	0.865470	-1.036998
C144	C	0.238632	1.365470	-0.536998
C145	C	-0.341494	0.945564	-1.037027
C146	C	0.158506	1.445564	-0.537027
C147	C	-0.341505	0.945562	-0.971592
C148	C	0.158495	1.445562	-0.471592
C149	C	-0.301442	0.905517	-0.938863
C150	C	0.198558	1.405517	-0.438863
C151	C	-0.301581	0.905417	-0.139370
C152	C	0.198419	1.405417	0.360630
C153	C	-0.301421	0.905517	-0.069729
C154	C	0.198579	1.405517	0.430271
H155	H	-0.374419	0.548219	-0.374674
H156	H	0.125581	1.048219	0.125326
H157	H	-0.228818	0.832857	-0.659982
H158	H	0.271182	1.332857	-0.159982
O159	O	-0.384815	0.988734	-0.532684
O160	O	0.115185	1.488734	-0.032684
H161	H	-0.378097	0.982002	-0.481684
H162	H	0.121903	1.482002	0.018316
O163	O	-0.384721	0.988752	-0.936324
O164	O	0.115279	1.488752	-0.436324
H165	H	-0.378006	0.982019	-0.885324
H166	H	0.121994	1.482019	-0.385324
H167	H	-0.292509	0.464998	-0.199735
H168	H	0.207491	0.964998	0.300265
O169	O	-1.071051	0.988908	-0.219047
O170	O	-0.571051	1.488908	0.280953
H171	H	-1.122051	0.982201	-0.225787
H172	H	-0.622051	1.482201	0.274213
H173	H	-0.228829	0.548202	-0.229554
H174	H	0.271171	1.048202	0.270446
H175	H	-0.860735	0.803063	-0.311015
H176	H	-0.360735	1.303063	0.188985
H177	H	-0.742031	0.803017	-0.311001
H178	H	-0.242031	1.303017	0.188999
O179	O	-0.311994	0.337871	-0.419513
O180	O	0.188006	0.837871	0.080487
H181	H	-0.356604	0.350402	-0.442808
H182	H	0.143396	0.850402	0.057192
O183	O	-0.291165	0.337625	-0.184866
O184	O	0.208835	0.837625	0.315134
H185	H	-0.248721	0.307850	-0.185953
H186	H	0.251279	0.807850	0.314047
H187	H	-0.228843	0.666915	-0.229513
H188	H	0.271157	1.166915	0.270487
H189	H	-0.374449	0.666926	-0.374627
H190	H	0.125551	1.166926	0.125373
H191	H	-0.310714	0.465207	-0.404543
H192	H	0.189286	0.965207	0.095457
O193	O	-0.935128	0.822177	-0.385376
O194	O	-0.435128	1.322177	0.114624
H195	H	-0.947642	0.832891	-0.434568
H196	H	-0.447642	1.332891	0.065432
O197	O	-0.667489	0.822080	-0.385334
O198	O	-0.167489	1.322080	0.114666
H199	H	-0.718483	0.828826	-0.378612
H200	H	-0.218483	1.328826	0.121388
H201	H	-0.228842	0.832852	-0.541276
H202	H	0.271158	1.332852	-0.041276
O203	O	-0.531480	0.822033	-0.385310
O204	O	-0.031480	1.322033	0.114690
H205	H	-0.565236	0.794162	-0.413139
H206	H	-0.065236	1.294162	0.086861
H207	H	-0.374335	0.144583	-0.374824
H208	H	0.125665	0.644583	0.125176
O209	O	-0.384966	0.271946	-0.385346
O210	O	0.115034	0.771946	0.114654
H211	H	-0.412853	0.238204	-0.413176
H212	H	0.087147	0.738204	0.086824
O213	O	-0.218172	0.822283	-0.936252
O214	O	0.281828	1.322283	-0.436252
H215	H	-0.228929	0.773102	-0.948766
H216	H	0.271071	1.273102	-0.448766
O217	O	-0.311753	1.022838	-0.734539
O218	O	0.188247	1.522838	-0.234539
H219	H	-0.269796	1.029258	-0.704732
H220	H	0.230204	1.529258	-0.204732
H221	H	-0.374104	0.978173	-1.063680
H222	H	0.125896	1.478173	-0.563680
O223	O	-0.733125	1.022783	-0.292038
O224	O	-0.233125	1.522783	0.207962
H225	H	-0.745612	1.053528	-0.331922
H226	H	-0.245612	1.553528	0.168078
O227	O	-0.384778	0.988746	-0.668687
O228	O	0.115222	1.488746	-0.168687
H229	H	-0.378031	0.982027	-0.719682
H230	H	0.121969	1.482027	-0.219682
O231	O	-0.218145	0.135924	-0.219118
O232	O	0.281855	0.635924	0.280882
H233	H	-0.224880	0.084928	-0.225849
H234	H	0.275120	0.584928	0.274151
O235	O	-0.291229	0.788180	-0.734384
O236	O	0.208771	1.288180	-0.234384
H237	H	-0.287796	0.748927	-0.768098
H238	H	0.212204	1.248927	-0.268098
O239	O	-0.531404	0.988697	-0.218947
O240	O	-0.031404	1.488697	0.281053
H241	H	-0.565136	1.016589	-0.191129
H242	H	-0.065136	1.516589	0.308871
H243	H	-0.292511	0.803101	-0.861762
H244	H	0.207489	1.303101	-0.361762
H245	H	-0.228741	0.832862	-1.063619
H246	H	0.271259	1.332862	-0.563619
H247	H	-0.310402	1.007931	-0.861896
H248	H	0.189598	1.507931	-0.361896
H249	H	-0.860511	1.007913	-0.293349
H250	H	-0.360511	1.507913	0.206651
O251	O	-0.218180	0.271922	-0.219066
O252	O	0.281820	0.771922	0.280934
H253	H	-0.169015	0.259422	-0.229895
H254	H	0.330985	0.759422	0.270105
O255	O	-0.667421	0.988738	-0.218963
O256	O	-0.167421	1.488738	0.281037
H257	H	-0.633667	1.016598	-0.191122
H258	H	-0.133667	1.516598	0.308878
H259	H	-0.943700	0.978255	-0.229590
H260	H	-0.443700	1.478255	0.270410
H261	H	-1.062480	0.832837	-0.374834
H262	H	-0.562480	1.332837	0.125166
