data_functionalizedCrystal
_audit_creation_method	'MofGen! by Chris Wilmer'
_symmetry_space_group_name_H-M	'P1'
_symmetry_Int_Tables_number	1
_symmetry_cell_setting	triclinic
loop_
_symmetry_equiv_pos_as_xyz
  x,y,z
_cell_length_a	19.188930
_cell_length_b	16.109301
_cell_length_c	14.586319
_cell_angle_alpha	90.005214
_cell_angle_beta	90.017382
_cell_angle_gamma	83.303130
loop_
_atom_site_label
_atom_site_type_symbol
_atom_site_fract_x
_atom_site_fract_y
_atom_site_fract_z
O1	O	-0.926386	-0.103796	-0.076538
O2	O	-0.593053	0.229537	0.256795
O3	O	-0.259720	0.562870	0.590129
O4	O	-0.723108	-0.117769	-0.076476
O5	O	-0.389774	0.215564	0.256858
O6	O	-0.056441	0.548897	0.590191
O7	O	-0.830331	0.010267	-0.076499
O8	O	-0.496998	0.343600	0.256834
O9	O	-0.163665	0.676933	0.590168
O10	O	-0.819163	-0.231832	-0.076514
O11	O	-0.485830	0.101501	0.256819
O12	O	-0.152496	0.434834	0.590152
O13	O	-0.830324	0.010268	0.075982
O14	O	-0.496991	0.343602	0.409315
O15	O	-0.163657	0.676935	0.742648
O16	O	-0.723100	-0.117767	0.076005
O17	O	-0.389767	0.215566	0.409339
O18	O	-0.056434	0.548899	0.742672
O19	O	-0.926379	-0.103795	0.075943
O20	O	-0.593046	0.229539	0.409276
O21	O	-0.259712	0.562872	0.742609
Cu22	Cu	-0.824739	-0.110781	0.089897
Cu23	Cu	-0.491406	0.222552	0.423230
Cu24	Cu	-0.158072	0.555886	0.756563
Cu25	Cu	-0.824748	-0.110783	-0.090429
Cu26	Cu	-0.491415	0.222550	0.242904
Cu27	Cu	-0.158081	0.555884	0.576237
O28	O	-0.819155	-0.231830	0.075966
O29	O	-0.485822	0.101503	0.409300
O30	O	-0.152489	0.434836	0.742633
C31	C	-0.697092	-0.117316	-0.000227
C32	C	-0.363759	0.216017	0.333106
C33	C	-0.030425	0.549351	0.666440
C34	C	-0.619584	-0.115958	-0.000203
C35	C	-0.286251	0.217376	0.333130
C36	C	0.047082	0.550709	0.666464
C37	C	-0.952395	-0.104248	-0.000308
C38	C	-0.619061	0.229085	0.333026
C39	C	-0.285728	0.562419	0.666359
C40	C	-1.029903	-0.105606	-0.000338
C41	C	-0.696569	0.227727	0.332995
C42	C	-0.363236	0.561060	0.666329
C43	C	-0.574836	-0.191085	-0.000222
C44	C	-0.241503	0.142248	0.333111
C45	C	0.091831	0.475582	0.666445
C46	C	-0.502009	-0.189809	-0.000232
C47	C	-0.168676	0.143525	0.333101
C48	C	0.164657	0.476858	0.666435
C49	C	-0.473934	-0.113401	-0.000241
C50	C	-0.140601	0.219932	0.333092
C51	C	0.192733	0.553266	0.666425
C52	C	-0.518692	-0.038264	-0.000217
C53	C	-0.185359	0.295069	0.333116
C54	C	0.147974	0.628403	0.666450
C55	C	-0.591517	-0.039542	-0.000198
C56	C	-0.258184	0.293791	0.333136
C57	C	0.075149	0.627125	0.666469
N58	N	-0.365820	-0.054998	-0.052170
N59	N	-0.032487	0.278336	0.281163
N60	N	0.300847	0.611669	0.614496
N61	N	-0.296638	-0.053788	-0.052191
N62	N	0.036695	0.279545	0.281143
N63	N	0.370028	0.612878	0.614476
C64	C	-0.254516	-0.109545	-0.000297
C65	C	0.078817	0.223788	0.333036
C66	C	0.412150	0.557122	0.666370
N67	N	-0.284188	-0.166569	0.051606
N68	N	0.049145	0.166764	0.384939
N69	N	0.382479	0.500097	0.718272
N70	N	-0.353375	-0.167781	0.051622
N71	N	-0.020042	0.165552	0.384955
N72	N	0.313291	0.498886	0.718289
C73	C	-0.394968	-0.112007	-0.000262
C74	C	-0.061635	0.221327	0.333072
C75	C	0.271698	0.554660	0.666405
C76	C	-0.130800	-0.183294	-0.000326
C77	C	0.202533	0.150039	0.333008
C78	C	0.535866	0.483373	0.666341
C79	C	-0.057973	-0.182015	-0.000330
C80	C	0.275361	0.151319	0.333003
C81	C	0.608694	0.484652	0.666337
C82	C	-0.074657	-0.030468	-0.000324
C83	C	0.258676	0.302866	0.333009
C84	C	0.592009	0.636199	0.666342
C85	C	-0.147483	-0.031749	-0.000311
C86	C	0.185850	0.301584	0.333023
C87	C	0.519183	0.634918	0.666356
C88	C	-0.175550	-0.108165	-0.000316
C89	C	0.157783	0.225169	0.333017
C90	C	0.491116	0.558502	0.666351
C91	C	-0.829875	0.041241	-0.000258
C92	C	-0.496542	0.374574	0.333075
C93	C	-0.163209	0.707908	0.666409
C94	C	-0.828519	0.133532	-0.000256
C95	C	-0.495186	0.466865	0.333077
C96	C	-0.161852	0.800198	0.666410
C97	C	-0.819612	-0.262805	-0.000277
C98	C	-0.486278	0.070529	0.333057
C99	C	-0.152945	0.403862	0.666390
C100	C	-0.820968	-0.355096	-0.000284
C101	C	-0.487635	-0.021762	0.333049
C102	C	-0.154301	0.311571	0.666382
N103	N	-0.824738	-0.110779	0.216728
N104	N	-0.491405	0.222555	0.550062
N105	N	-0.158071	0.555888	0.883395
C106	C	-0.888990	0.356005	-0.000290
C107	C	-0.555656	0.689338	0.333044
C108	C	-0.222323	1.022671	0.666377
C109	C	-0.887710	0.442721	-0.000297
C110	C	-0.554376	0.776054	0.333037
C111	C	-0.221043	1.109387	0.666370
C112	C	-0.760493	0.422425	-0.000254
C113	C	-0.427159	0.755758	0.333079
C114	C	-0.093826	1.089091	0.666413
C115	C	-0.761773	0.335710	-0.000253
C116	C	-0.428440	0.669044	0.333080
C117	C	-0.095106	1.002377	0.666413
C118	C	-0.826024	0.302503	-0.000267
C119	C	-0.492690	0.635836	0.333067
C120	C	-0.159357	0.969169	0.666400
C121	C	-0.823463	0.475933	-0.000274
C122	C	-0.490130	0.809267	0.333059
C123	C	-0.156797	1.142600	0.666392
C124	C	-0.822075	0.569955	-0.000282
C125	C	-0.488742	0.903288	0.333051
C126	C	-0.155408	1.236621	0.666385
C127	C	-0.827412	0.208475	-0.000261
C128	C	-0.494079	0.541809	0.333073
C129	C	-0.160746	0.875142	0.666406
N130	N	-0.824754	-0.110778	-0.217261
N131	N	-0.491421	0.222555	0.116072
N132	N	-0.158088	0.555888	0.449405
C133	C	-0.872232	-0.054103	0.451724
C134	C	-0.538899	0.279230	0.785058
C135	C	-0.205566	0.612563	1.118391
C136	C	-0.872234	-0.054101	0.547706
C137	C	-0.538901	0.279232	0.881039
C138	C	-0.205568	0.612565	1.214372
C139	C	-0.777255	-0.167457	0.547736
C140	C	-0.443922	0.165877	0.881069
C141	C	-0.110588	0.499210	1.214403
C142	C	-0.777250	-0.167454	0.451757
C143	C	-0.443917	0.165879	0.785090
C144	C	-0.110584	0.499213	1.118423
C145	C	-0.824743	-0.110778	0.403753
C146	C	-0.491409	0.222555	0.737087
C147	C	-0.158076	0.555888	1.070420
C148	C	-0.824750	-0.110779	0.595714
C149	C	-0.491416	0.222554	0.929047
C150	C	-0.158083	0.555888	1.262381
C151	C	-0.824751	-0.110777	0.699781
C152	C	-0.491418	0.222556	1.033114
C153	C	-0.158085	0.555890	1.366448
C154	C	-0.824740	-0.110779	0.299679
C155	C	-0.491407	0.222555	0.633013
C156	C	-0.158074	0.555888	0.966346
H157	H	-0.597683	-0.253308	-0.000228
H158	H	-0.264350	0.080025	0.333105
H159	H	0.068984	0.413358	0.666439
Br160	Br	-0.936685	0.022815	0.386580
Br161	Br	-0.603351	0.356148	0.719914
Br162	Br	-0.270018	0.689482	1.053247
Br163	Br	-0.973167	0.515328	-0.000333
Br164	Br	-0.639834	0.848661	0.333000
Br165	Br	-0.306501	1.181995	0.666333
H166	H	-0.153654	-0.245516	-0.000316
H167	H	0.179680	0.087817	0.333017
H168	H	0.513013	0.421151	0.666350
H169	H	-0.183919	0.029428	-0.000300
H170	H	0.149415	0.362761	0.333033
H171	H	0.482748	0.696095	0.666366
Br172	Br	-0.676313	0.263094	-0.000235
Br173	Br	-0.342980	0.596427	0.333099
Br174	Br	-0.009646	0.929761	0.666432
Br175	Br	-0.936683	0.022822	0.612808
Br176	Br	-0.603350	0.356155	0.946141
Br177	Br	-0.270017	0.689488	1.279475
H178	H	-0.738589	-0.213602	0.586830
H179	H	-0.405255	0.119731	0.920163
H180	H	-0.071922	0.453065	1.253497
H181	H	-0.738575	-0.213606	0.412696
H182	H	-0.405242	0.119727	0.746029
H183	H	-0.071909	0.453061	1.079362
H184	H	-0.465568	-0.250988	-0.000245
H185	H	-0.132235	0.082345	0.333088
H186	H	0.201099	0.415678	0.666422
H187	H	-0.495829	0.023948	-0.000237
H188	H	-0.162496	0.357281	0.333096
H189	H	0.170838	0.690615	0.666430
H190	H	-0.627952	0.021638	-0.000183
H191	H	-0.294619	0.354971	0.333151
H192	H	0.038714	0.688304	0.666484
Br193	Br	-0.036564	0.073231	-0.000322
Br194	Br	0.296770	0.406564	0.333012
Br195	Br	0.630103	0.739897	0.666345
H196	H	-0.708182	0.449473	-0.000242
H197	H	-0.374849	0.782807	0.333092
H198	H	-0.041515	1.116140	0.666425
Br199	Br	0.002760	-0.283983	-0.000348
Br200	Br	0.336094	0.049351	0.332985
Br201	Br	0.669427	0.382684	0.666319
H202	H	-0.941306	0.328970	-0.000302
H203	H	-0.607973	0.662303	0.333031
H204	H	-0.274640	0.995637	0.666365
