data_functionalizedCrystal
_audit_creation_method	'MofGen! by Chris Wilmer'
_symmetry_space_group_name_H-M	'P1'
_symmetry_Int_Tables_number	1
_symmetry_cell_setting	triclinic
loop_
_symmetry_equiv_pos_as_xyz
  x,y,z
_cell_length_a	16.109301
_cell_length_b	11.804365
_cell_length_c	16.109301
_cell_angle_alpha	101.825822
_cell_angle_beta	96.538519
_cell_angle_gamma	101.842029
loop_
_atom_site_label
_atom_site_type_symbol
_atom_site_fract_x
_atom_site_fract_y
_atom_site_fract_z
O1	O	1.119920	0.098953	-0.090088
O2	O	0.877862	0.098973	-0.103384
O3	O	1.005539	0.098950	0.024293
O4	O	0.992244	0.098976	-0.217765
O5	O	0.971926	-0.099100	-0.009286
O6	O	0.844249	-0.099077	-0.136963
O7	O	1.086308	-0.099097	-0.123667
Cu8	Cu	0.962210	-0.117170	-0.133381
Cu9	Cu	1.001960	0.117047	-0.093670
O10	O	0.958631	-0.099074	-0.251343
C11	C	0.830081	-0.000050	-0.119634
C12	C	0.737787	-0.000043	-0.118018
N13	N	0.934257	-0.281906	-0.161310
C14	C	0.515513	-0.000049	-0.190027
C15	C	0.428792	-0.000057	-0.188504
C16	C	0.448664	-0.000068	-0.037017
C17	C	0.535383	-0.000068	-0.038542
C18	C	0.568806	-0.000053	-0.115048
C19	C	0.395366	-0.000060	-0.112001
C20	C	0.301338	-0.000069	-0.110349
C21	C	0.662839	-0.000047	-0.116701
C22	C	1.097043	-0.655883	0.001352
C23	C	1.118188	-0.531225	0.022484
C24	C	1.072207	-0.468889	-0.023462
C25	C	1.005078	-0.531224	-0.090545
C26	C	0.983935	-0.655894	-0.111684
C27	C	0.959099	-0.468900	-0.136499
C28	C	0.891970	-0.531234	-0.203582
C29	C	0.870830	-0.655892	-0.224717
C30	C	0.916811	-0.718228	-0.178770
C31	C	0.980241	-0.344230	-0.115360
C32	C	0.867133	-0.344240	-0.228396
C33	C	0.845988	-0.468898	-0.249528
C34	C	1.134089	-0.000071	-0.107416
C35	C	1.226385	-0.000070	-0.109031
C36	C	0.988194	-0.000075	0.038478
C37	C	0.986578	-0.000077	0.130773
N38	N	1.029919	0.281782	-0.065734
C39	C	0.975977	-0.000046	-0.265528
C40	C	0.977593	-0.000037	-0.357822
C41	C	1.058588	-0.000064	0.353048
C42	C	1.057066	-0.000054	0.439770
C43	C	0.905578	-0.000046	0.419897
C44	C	0.907103	-0.000048	0.333178
C45	C	0.983609	-0.000062	0.299755
C46	C	0.980562	-0.000051	0.473196
C47	C	0.978911	-0.000040	0.567224
C48	C	0.985261	-0.000071	0.205722
H49	H	0.385403	-0.000056	-0.249559
O50	O	0.780839	-0.529323	-0.314784
C51	C	0.725621	-0.567524	-0.465810
C52	C	0.799452	-0.499000	-0.391986
H53	H	0.740651	-0.543052	-0.528249
H54	H	0.663179	-0.543003	-0.450863
H55	H	0.718399	-0.667323	-0.472978
H56	H	0.806753	-0.399185	-0.384778
H57	H	0.861855	-0.523620	-0.406966
H58	H	1.134479	-0.706645	0.038751
H59	H	0.421439	-0.000087	0.025271
H60	H	0.542722	-0.000046	-0.252324
O61	O	0.587048	-0.000018	0.034383
C62	C	0.597602	-0.000102	0.184786
C63	C	0.539003	-0.000125	0.102273
H64	H	0.558778	-0.000214	0.239692
H65	H	0.652752	0.082799	0.201969
H66	H	0.624653	-0.082968	0.173762
H67	H	0.511891	0.082685	0.113232
H68	H	0.483902	-0.083081	0.085115
H69	H	0.899593	-0.819735	-0.195973
H70	H	0.846043	-0.000043	0.289785
O71	O	1.129832	-0.000003	0.491666
C72	C	1.194615	-0.000063	0.634057
C73	C	1.112146	-0.000097	0.575385
H74	H	1.180341	-0.000164	0.701752
H75	H	1.246344	0.082836	0.636016
H76	H	1.218204	-0.082931	0.607815
H77	H	1.088481	0.082715	0.601584
H78	H	1.060471	-0.083051	0.573429
H79	H	1.120885	-0.000073	0.325839
H80	H	1.089426	-0.367387	-0.006253
O81	O	1.183142	-0.470740	0.087907
C82	C	1.224193	-0.330680	0.225626
C83	C	1.150656	-0.398959	0.151446
H84	H	1.197952	-0.272648	0.277025
H85	H	1.275844	-0.272032	0.200061
H86	H	1.253220	-0.396889	0.254736
H87	H	1.121559	-0.332836	0.122306
H88	H	1.099060	-0.457625	0.177059
H89	H	1.034898	-0.293488	-0.060741
H90	H	0.816176	-0.706645	-0.279345
O91	O	0.822326	-0.283830	-0.273021
C92	C	0.684230	-0.245641	-0.315184
C93	C	0.734857	-0.314161	-0.264633
H94	H	0.613505	-0.270119	-0.308405
H95	H	0.690813	-0.270160	-0.385956
H96	H	0.710912	-0.145841	-0.288563
H97	H	0.708209	-0.413977	-0.291180
H98	H	0.728275	-0.289543	-0.193867
H99	H	0.843289	-0.000037	0.447120
