data_functionalizedCrystal
_audit_creation_method	'MofGen! by Chris Wilmer'
_symmetry_space_group_name_H-M	'P1'
_symmetry_Int_Tables_number	1
_symmetry_cell_setting	triclinic
loop_
_symmetry_equiv_pos_as_xyz
  x,y,z
_cell_length_a	27.732025
_cell_length_b	19.188930
_cell_length_c	18.266242
_cell_angle_alpha	90.022918
_cell_angle_beta	90.008162
_cell_angle_gamma	97.110871
loop_
_atom_site_label
_atom_site_type_symbol
_atom_site_fract_x
_atom_site_fract_y
_atom_site_fract_z
O1	O	0.060349	-0.925757	-0.061093
O2	O	0.393682	-0.592424	0.272240
O3	O	0.727015	-0.259091	0.605574
O4	O	0.068472	-0.722393	-0.061040
O5	O	0.401806	-0.389060	0.272294
O6	O	0.735139	-0.055727	0.605627
O7	O	-0.005968	-0.830400	-0.061090
O8	O	0.327366	-0.497066	0.272243
O9	O	0.660699	-0.163733	0.605577
O10	O	0.134789	-0.817751	-0.061042
O11	O	0.468122	-0.484418	0.272291
O12	O	0.801455	-0.151084	0.605624
O13	O	-0.005971	-0.830381	0.060672
O14	O	0.327362	-0.497048	0.394005
O15	O	0.660695	-0.163715	0.727338
O16	O	0.068469	-0.722375	0.060722
O17	O	0.401802	-0.389042	0.394056
O18	O	0.735135	-0.055708	0.727389
O19	O	0.060345	-0.925739	0.060669
O20	O	0.393678	-0.592406	0.394002
O21	O	0.727011	-0.259073	0.727336
Zn22	Zn	0.064406	-0.824054	0.080028
Zn23	Zn	0.397739	-0.490721	0.413361
Zn24	Zn	0.731073	-0.157388	0.746695
Zn25	Zn	0.064411	-0.824078	-0.080399
Zn26	Zn	0.397744	-0.490745	0.252935
Zn27	Zn	0.731078	-0.157412	0.586268
O28	O	0.134785	-0.817733	0.060720
O29	O	0.468118	-0.484400	0.394053
O30	O	0.801452	-0.151066	0.727386
C31	C	0.068207	-0.696375	-0.000152
C32	C	0.401541	-0.363042	0.333181
C33	C	0.734874	-0.029708	0.666514
C34	C	0.067418	-0.618876	-0.000133
C35	C	0.400751	-0.285542	0.333200
C36	C	0.734084	0.047791	0.666533
C37	C	0.060610	-0.951758	-0.000220
C38	C	0.393943	-0.618424	0.333113
C39	C	0.727276	-0.285091	0.666447
C40	C	0.061400	-1.029257	-0.000244
C41	C	0.394733	-0.695924	0.333090
C42	C	0.728066	-0.362590	0.666423
C43	C	-0.023977	-0.830127	-0.000216
C44	C	0.309356	-0.496794	0.333117
C45	C	0.642689	-0.163461	0.666450
C46	C	-0.077635	-0.829335	-0.000238
C47	C	0.255698	-0.496002	0.333095
C48	C	0.589031	-0.162669	0.666429
C49	C	-0.460816	-0.823717	-0.066566
C50	C	-0.127483	-0.490383	0.266767
C51	C	0.205851	-0.157050	0.600100
C52	C	-0.259148	-0.826681	-0.066591
C53	C	0.074186	-0.493348	0.266743
C54	C	0.407519	-0.160015	0.600076
O55	O	-0.233077	-0.827101	-0.123040
O56	O	0.100256	-0.493768	0.210294
O57	O	0.433590	-0.160434	0.543627
N58	N	-0.233927	-0.827042	-0.000220
N59	N	0.099406	-0.493709	0.333113
N60	N	0.432739	-0.160375	0.666446
C61	C	-0.259128	-0.826666	0.066161
C62	C	0.074206	-0.493333	0.399494
C63	C	0.407539	-0.160000	0.732828
O64	O	-0.233049	-0.827048	0.122613
O65	O	0.100284	-0.493715	0.455946
O66	O	0.433617	-0.160382	0.789279
C67	C	-0.460796	-0.823707	0.066185
C68	C	-0.127462	-0.490373	0.399518
C69	C	0.205871	-0.157040	0.732851
C70	C	-0.486013	-0.823339	-0.000190
C71	C	-0.152679	-0.490005	0.333143
C72	C	0.180654	-0.156672	0.666477
C73	C	-0.486033	-0.823350	-0.132936
C74	C	-0.152700	-0.490016	0.200398
C75	C	0.180634	-0.156683	0.533731
C76	C	-0.536447	-0.822605	-0.132929
C77	C	-0.203114	-0.489271	0.200405
C78	C	0.130220	-0.155938	0.533738
C79	C	-0.561644	-0.822227	-0.066553
C80	C	-0.228310	-0.488893	0.266781
C81	C	0.105023	-0.155560	0.600114
C82	C	-0.536426	-0.822594	-0.000183
C83	C	-0.203093	-0.489260	0.333150
C84	C	0.130240	-0.155927	0.666483
C85	C	-0.485996	-0.823336	0.132565
C86	C	-0.152662	-0.490002	0.465898
C87	C	0.180671	-0.156669	0.799232
C88	C	-0.536416	-0.822598	0.132565
C89	C	-0.203083	-0.489264	0.465898
C90	C	0.130251	-0.155931	0.799232
C91	C	-0.561633	-0.822230	0.066190
C92	C	-0.228300	-0.488896	0.399524
C93	C	0.105034	-0.155563	0.732857
C94	C	-0.612037	-0.821471	0.066199
C95	C	-0.278703	-0.488138	0.399533
C96	C	0.054630	-0.154804	0.732866
N97	N	-0.637257	-0.821110	-0.000171
N98	N	-0.303924	-0.487777	0.333162
N99	N	0.029410	-0.154444	0.666496
C100	C	-0.612060	-0.821488	-0.066547
C101	C	-0.278727	-0.488155	0.266786
C102	C	0.054606	-0.154821	0.600120
C103	C	-0.153249	-0.828219	0.066144
C104	C	0.180084	-0.494885	0.399477
C105	C	0.513418	-0.161552	0.732811
C106	C	-0.102832	-0.828957	0.066138
C107	C	0.230501	-0.495624	0.399472
C108	C	0.563835	-0.162291	0.732805
C109	C	-0.102856	-0.828974	-0.066614
C110	C	0.230478	-0.495640	0.266720
C111	C	0.563811	-0.162307	0.600053
C112	C	-0.153273	-0.828230	-0.066607
C113	C	0.180060	-0.494897	0.266726
C114	C	0.513394	-0.161563	0.600059
C115	C	-0.178469	-0.827858	-0.000226
C116	C	0.154864	-0.494525	0.333107
C117	C	0.488198	-0.161191	0.666440
C118	C	-0.717933	-0.819923	-0.066528
C119	C	-0.384600	-0.486590	0.266806
C120	C	-0.051266	-0.153256	0.600139
C121	C	-0.768351	-0.819175	-0.066515
C122	C	-0.435017	-0.485842	0.266818
C123	C	-0.101684	-0.152508	0.600152
C124	C	-0.768323	-0.819162	0.066236
C125	C	-0.434990	-0.485829	0.399570
C126	C	-0.101656	-0.152496	0.732903
C127	C	-0.717909	-0.819907	0.066224
C128	C	-0.384576	-0.486573	0.399557
C129	C	-0.051243	-0.153240	0.732891
C130	C	-0.692716	-0.820289	-0.000164
C131	C	-0.359382	-0.486956	0.333169
C132	C	-0.026049	-0.153623	0.666503
O133	O	-0.638139	-0.821059	0.122619
O134	O	-0.304806	-0.487725	0.455952
O135	O	0.028528	-0.154392	0.789286
O136	O	-0.638149	-0.821122	-0.122990
O137	O	-0.304815	-0.487788	0.210343
O138	O	0.028518	-0.154455	0.543677
C139	C	-0.410402	-0.824462	-0.066573
C140	C	-0.077069	-0.491128	0.266760
C141	C	0.256264	-0.157795	0.600094
C142	C	-0.385185	-0.824829	-0.000204
C143	C	-0.051852	-0.491495	0.333130
C144	C	0.281482	-0.158162	0.666463
C145	C	-0.410382	-0.824451	0.066172
C146	C	-0.077048	-0.491117	0.399506
C147	C	0.256285	-0.157784	0.732839
C148	C	-0.334768	-0.825567	-0.000209
C149	C	-0.001435	-0.492234	0.333124
C150	C	0.331898	-0.158901	0.666457
C151	C	-0.309572	-0.825945	-0.066585
C152	C	0.023762	-0.492612	0.266748
C153	C	0.357095	-0.159279	0.600081
C154	C	-0.334792	-0.825585	-0.132956
C155	C	-0.001459	-0.492251	0.200377
C156	C	0.331875	-0.158918	0.533711
C157	C	-0.385206	-0.824840	-0.132949
C158	C	-0.051872	-0.491506	0.200384
C159	C	0.281461	-0.158173	0.533718
C160	C	-0.385161	-0.824811	0.132543
C161	C	-0.051828	-0.491478	0.465876
C162	C	0.281505	-0.158145	0.799209
C163	C	-0.334748	-0.825556	0.132531
C164	C	-0.001414	-0.492222	0.465864
C165	C	0.331919	-0.158889	0.799197
C166	C	-0.309551	-0.825934	0.066155
C167	C	0.023782	-0.492600	0.399488
C168	C	0.357116	-0.159267	0.732821
C169	C	0.152795	-0.818005	-0.000156
C170	C	0.486128	-0.484672	0.333178
C171	C	0.819461	-0.151338	0.666511
C172	C	0.206453	-0.818797	-0.000139
C173	C	0.539786	-0.485464	0.333194
C174	C	0.873119	-0.152131	0.666528
N175	N	0.064402	-0.824043	0.189515
N176	N	0.397736	-0.490710	0.522848
N177	N	0.731069	-0.157376	0.856182
C178	C	0.111097	-0.573668	-0.000130
C179	C	0.444430	-0.240335	0.333203
C180	C	0.777763	0.092999	0.666537
C181	C	0.110355	-0.500849	-0.000138
C182	C	0.443688	-0.167516	0.333195
C183	C	0.777021	0.165818	0.666528
C184	C	0.065931	-0.473241	-0.000165
C185	C	0.399265	-0.139907	0.333169
C186	C	0.732598	0.193426	0.666502
C187	C	0.022247	-0.518458	-0.000164
C188	C	0.355580	-0.185125	0.333170
C189	C	0.688913	0.148208	0.666503
C190	C	0.022990	-0.591276	-0.000148
C191	C	0.356323	-0.257942	0.333185
C192	C	0.689656	0.075391	0.666519
N193	N	0.031977	-0.365487	-0.041647
N194	N	0.365310	-0.032154	0.291687
N195	N	0.698643	0.301179	0.625020
N196	N	0.031274	-0.296313	-0.041663
N197	N	0.364607	0.037020	0.291670
N198	N	0.697940	0.370353	0.625004
C199	C	0.063690	-0.253847	-0.000210
C200	C	0.397023	0.079487	0.333123
C201	C	0.730356	0.412820	0.666457
N202	N	0.096843	-0.283166	0.041251
N203	N	0.430176	0.050167	0.374584
N204	N	0.763509	0.383501	0.707917
N205	N	0.097547	-0.352346	0.041264
N206	N	0.430880	-0.019013	0.374597
N207	N	0.764214	0.314321	0.707930
C208	C	0.065121	-0.394284	-0.000181
C209	C	0.398454	-0.060950	0.333152
C210	C	0.731787	0.272383	0.666486
C211	C	0.106567	-0.129680	-0.000215
C212	C	0.439900	0.203653	0.333119
C213	C	0.773234	0.536987	0.666452
C214	C	0.105823	-0.056860	-0.000218
C215	C	0.439157	0.276473	0.333115
C216	C	0.772490	0.609807	0.666448
C217	C	0.017714	-0.074471	-0.000251
C218	C	0.351047	0.258862	0.333082
C219	C	0.684381	0.592196	0.666415
C220	C	0.018459	-0.147289	-0.000240
C221	C	0.351792	0.186044	0.333093
C222	C	0.685126	0.519377	0.666426
C223	C	0.062887	-0.174889	-0.000225
C224	C	0.396220	0.158444	0.333108
C225	C	0.729554	0.491778	0.666441
N226	N	0.064411	-0.824095	-0.189886
N227	N	0.397744	-0.490762	0.143448
N228	N	0.731078	-0.157428	0.476781
C229	C	0.031456	-0.871884	0.227801
C230	C	0.364790	-0.538550	0.561135
C231	C	0.698123	-0.205217	0.894468
C232	C	0.031454	-0.871888	0.304446
C233	C	0.364787	-0.538555	0.637780
C234	C	0.698121	-0.205221	0.971113
C235	C	0.064406	-0.824059	0.342802
C236	C	0.397740	-0.490725	0.676135
C237	C	0.731073	-0.157392	1.009469
C238	C	0.097355	-0.776209	0.304506
C239	C	0.430688	-0.442876	0.637840
C240	C	0.764021	-0.109542	0.971173
C241	C	0.097353	-0.776201	0.227863
C242	C	0.430686	-0.442868	0.561196
C243	C	0.764019	-0.109535	0.894529
N244	N	0.107197	-0.814705	0.463150
N245	N	0.440530	-0.481372	0.796484
N246	N	0.773863	-0.148038	1.129817
N247	N	0.107197	-0.814717	0.535958
N248	N	0.440530	-0.481383	0.869292
N249	N	0.773864	-0.148050	1.202625
C250	C	0.064413	-0.824078	0.573724
C251	C	0.397747	-0.490745	0.907058
C252	C	0.731080	-0.157411	1.240391
N253	N	0.021628	-0.833441	0.535932
N254	N	0.354961	-0.500108	0.869265
N255	N	0.688294	-0.166775	1.202598
N256	N	0.021628	-0.833433	0.463117
N257	N	0.354961	-0.500100	0.796450
N258	N	0.688294	-0.166767	1.129784
C259	C	0.064412	-0.824061	0.425909
C260	C	0.397745	-0.490728	0.759242
C261	C	0.731078	-0.157395	1.092576
C262	C	0.031462	-0.871926	0.695118
C263	C	0.364795	-0.538593	1.028451
C264	C	0.698129	-0.205260	1.361785
C265	C	0.031459	-0.871926	0.771764
C266	C	0.364792	-0.538592	1.105098
C267	C	0.698126	-0.205259	1.438431
C268	C	0.097364	-0.776250	0.771823
C269	C	0.430697	-0.442917	1.105156
C270	C	0.764031	-0.109583	1.438489
C271	C	0.097363	-0.776247	0.695178
C272	C	0.430696	-0.442914	1.028511
C273	C	0.764029	-0.109580	1.361844
C274	C	0.064412	-0.824089	0.656830
C275	C	0.397746	-0.490756	0.990163
C276	C	0.731079	-0.157422	1.323497
H277	H	-0.788880	-0.818873	-0.120568
H278	H	-0.455547	-0.485540	0.212766
H279	H	-0.122213	-0.152206	0.546099
C280	C	0.133641	-0.723668	0.653061
C281	C	0.466975	-0.390335	0.986394
C282	C	0.800308	-0.057001	1.319728
N283	N	0.160979	-0.684078	0.621339
N284	N	0.494312	-0.350745	0.954672
N285	N	0.827645	-0.017412	1.288006
H286	H	0.147273	-0.596134	-0.000119
H287	H	0.480607	-0.262801	0.333214
H288	H	0.813940	0.070532	0.666547
H289	H	0.004628	-0.910881	0.802938
H290	H	0.337961	-0.577548	1.136271
H291	H	0.671295	-0.244215	1.469604
C292	C	-0.004786	-0.924525	0.346570
C293	C	0.328548	-0.591192	0.679903
C294	C	0.661881	-0.257859	1.013237
N295	N	-0.032080	-0.964175	0.378295
N296	N	0.301254	-0.630842	0.711629
N297	N	0.634587	-0.297508	1.044962
C298	C	-0.029592	-0.197020	-0.000253
C299	C	0.303741	0.136313	0.333081
C300	C	0.637075	0.469647	0.666414
N301	N	-0.065787	-0.234478	-0.000261
N302	N	0.267547	0.098856	0.333073
N303	N	0.600880	0.432189	0.666406
C304	C	-0.180958	-0.827800	0.139173
C305	C	0.152376	-0.494467	0.472506
C306	C	0.485709	-0.161134	0.805840
N307	N	-0.201825	-0.827480	0.194179
N308	N	0.131508	-0.494147	0.527512
N309	N	0.464842	-0.160813	0.860846
C310	C	0.153876	-0.007130	-0.000204
C311	C	0.487210	0.326203	0.333129
C312	C	0.820543	0.659536	0.666463
N313	N	0.190071	0.030326	-0.000191
N314	N	0.523404	0.363660	0.333142
N315	N	0.856738	0.696993	0.666475
H316	H	0.124182	-0.737243	0.196689
H317	H	0.457515	-0.403910	0.530023
H318	H	0.790849	-0.070576	0.863356
C319	C	-0.004788	-0.924546	0.652933
C320	C	0.328545	-0.591213	0.986266
C321	C	0.661879	-0.257879	1.319599
N322	N	-0.032093	-0.964179	0.621161
N323	N	0.301240	-0.630846	0.954494
N324	N	0.634574	-0.297512	1.287828
H325	H	-0.697426	-0.820235	-0.120587
H326	H	-0.364093	-0.486902	0.212746
H327	H	-0.030759	-0.153569	0.546079
H328	H	0.124192	-0.737304	0.803051
H329	H	0.457526	-0.403970	1.136384
H330	H	0.790859	-0.070637	1.469718
H331	H	-0.556975	-0.822310	-0.186978
H332	H	-0.223641	-0.488977	0.146355
H333	H	0.109692	-0.155643	0.479689
C334	C	-0.458268	-0.823743	0.205584
C335	C	-0.124935	-0.490410	0.538917
C336	C	0.208398	-0.157077	0.872251
N337	N	-0.437385	-0.824052	0.260586
N338	N	-0.104052	-0.490719	0.593920
N339	N	0.229281	-0.157385	0.927253
C340	C	-0.458325	-0.823762	-0.205961
C341	C	-0.124991	-0.490429	0.127372
C342	C	0.208342	-0.157096	0.460705
N343	N	-0.437457	-0.824067	-0.260969
N344	N	-0.104124	-0.490734	0.072364
N345	N	0.229209	-0.157401	0.405698
H346	H	-0.173801	-0.827929	-0.120655
H347	H	0.159532	-0.494596	0.212678
H348	H	0.492866	-0.161262	0.546011
H349	H	-0.697374	-0.820178	0.120272
H350	H	-0.364041	-0.486845	0.453605
H351	H	-0.030707	-0.153512	0.786938
C352	C	-0.004795	-0.924505	0.185623
C353	C	0.328539	-0.591171	0.518957
C354	C	0.661872	-0.257838	0.852290
N355	N	-0.032101	-0.964137	0.153854
N356	N	0.301232	-0.630804	0.487187
N357	N	0.634566	-0.297470	0.820520
H358	H	-0.012580	-0.628085	-0.000151
H359	H	0.320753	-0.294751	0.333182
H360	H	0.654087	0.038582	0.666515
H361	H	0.124184	-0.737264	0.335739
H362	H	0.457517	-0.403931	0.669072
H363	H	0.790851	-0.070598	1.002406
H364	H	-0.082331	-0.829277	-0.120660
H365	H	0.251002	-0.495943	0.212674
H366	H	0.584335	-0.162610	0.546007
C367	C	-0.075098	-0.829352	0.139156
C368	C	0.258235	-0.496019	0.472489
C369	C	0.591569	-0.162686	0.805822
N370	N	-0.054211	-0.829654	0.194155
N371	N	0.279122	-0.496321	0.527488
N372	N	0.612456	-0.162987	0.860822
C373	C	-0.796049	-0.818744	0.139246
C374	C	-0.462716	-0.485411	0.472580
C375	C	-0.129382	-0.152077	0.805913
N376	N	-0.816934	-0.818433	0.194238
N377	N	-0.483600	-0.485100	0.527572
N378	N	-0.150267	-0.151766	0.860905
C379	C	-0.564128	-0.822185	0.205591
C380	C	-0.230795	-0.488852	0.538925
C381	C	0.102538	-0.155518	0.872258
N382	N	-0.585000	-0.821871	0.260594
N383	N	-0.251667	-0.488538	0.593928
N384	N	0.081667	-0.155204	0.927261
C385	C	0.155438	-0.160042	-0.000189
C386	C	0.488772	0.173291	0.333144
C387	C	0.822105	0.506625	0.666477
N388	N	0.192248	-0.182909	-0.000169
N389	N	0.525582	0.150425	0.333165
N390	N	0.858915	0.483758	0.666498
C391	C	0.158407	-0.451111	-0.000143
C392	C	0.491740	-0.117778	0.333190
C393	C	0.825074	0.215555	0.666523
N394	N	0.194600	-0.413651	-0.000151
N395	N	0.527933	-0.080318	0.333183
N396	N	0.861267	0.253016	0.666516
C397	C	-0.307066	-0.826004	-0.205970
C398	C	0.026267	-0.492671	0.127363
C399	C	0.359600	-0.159338	0.460697
N400	N	-0.286181	-0.826326	-0.260961
N401	N	0.047152	-0.492993	0.072373
N402	N	0.380485	-0.159660	0.405706
C403	C	-0.307014	-0.825959	0.205553
C404	C	0.026319	-0.492625	0.538887
C405	C	0.359652	-0.159292	0.872220
N406	N	-0.286128	-0.826269	0.260553
N407	N	0.047205	-0.492935	0.593886
N408	N	0.380538	-0.159602	0.927220
H409	H	-0.405672	-0.824506	0.186595
H410	H	-0.072338	-0.491172	0.519929
H411	H	0.260995	-0.157839	0.853262
C412	C	-0.031153	-0.044107	-0.000279
C413	C	0.302181	0.289227	0.333054
C414	C	0.635514	0.622560	0.666387
N415	N	-0.067960	-0.021233	-0.000299
N416	N	0.265373	0.312101	0.333034
N417	N	0.598706	0.645434	0.666367
C418	C	-0.026619	-0.488088	-0.000194
C419	C	0.306714	-0.154755	0.333140
C420	C	0.640047	0.178579	0.666473
N421	N	-0.063427	-0.465214	-0.000214
N422	N	0.269907	-0.131880	0.333119
N423	N	0.603240	0.201453	0.666453
H424	H	-0.405733	-0.824540	-0.186998
H425	H	-0.072400	-0.491207	0.146335
H426	H	0.260934	-0.157873	0.479668
