data_functionalizedCrystal
_audit_creation_method	'MofGen! by Chris Wilmer'
_symmetry_space_group_name_H-M	'P1'
_symmetry_Int_Tables_number	1
_symmetry_cell_setting	triclinic
loop_
_symmetry_equiv_pos_as_xyz
  x,y,z
_cell_length_a	14.908783
_cell_length_b	12.594516
_cell_length_c	14.908308
_cell_angle_alpha	86.729931
_cell_angle_beta	90.211273
_cell_angle_gamma	93.302904
loop_
_atom_site_label
_atom_site_type_symbol
_atom_site_fract_x
_atom_site_fract_y
_atom_site_fract_z
Zn1	Zn	1.345361	-0.372276	0.587850
Zn2	Zn	1.845361	0.127724	1.087850
Zn3	Zn	1.353962	-0.539461	0.437499
Zn4	Zn	1.853962	-0.039461	0.937499
Zn5	Zn	1.203674	-0.371124	0.428821
Zn6	Zn	1.703674	0.128876	0.928821
Zn7	Zn	1.194990	-0.559842	0.579122
Zn8	Zn	1.694990	-0.059842	1.079122
O9	O	1.274497	-0.460676	0.508323
O10	O	1.774497	0.039324	1.008323
O11	O	1.472329	-0.386406	0.575190
O12	O	1.972329	0.113594	1.075190
O13	O	1.341260	-0.508119	0.310524
O14	O	1.841260	-0.008119	0.810524
O15	O	1.222504	-0.222330	0.449938
O16	O	1.722504	0.277670	0.949938
O17	O	1.478648	-0.509236	0.464728
O18	O	1.978648	-0.009236	0.964728
O19	O	1.326600	-0.223176	0.566775
O20	O	1.826600	0.276824	1.066775
O21	O	1.230844	-0.384442	0.304148
O22	O	1.730844	0.115558	0.804148
O23	O	1.076695	-0.404205	0.441474
O24	O	1.576695	0.095795	0.941474
O25	O	1.207703	-0.543973	0.706103
O26	O	1.707703	-0.043973	1.206103
O27	O	1.070315	-0.542856	0.551899
O28	O	1.570315	-0.042856	1.051899
O29	O	1.318180	-0.406168	0.712516
O30	O	1.818180	0.093832	1.212516
O31	O	1.332840	-0.691111	0.456264
O32	O	1.832840	-0.191111	0.956264
O33	O	1.216044	-0.706085	0.560314
O34	O	1.716044	-0.206085	1.060314
C35	C	1.040880	-0.475618	0.494799
C36	C	1.540880	0.024382	0.994799
C37	C	0.940936	-0.482038	0.489034
C38	C	1.440936	0.017962	0.989034
C39	C	0.746539	-0.366397	0.593402
C40	C	1.246539	0.133603	1.093402
C41	C	0.652633	-0.372425	0.587989
C42	C	1.152633	0.127575	1.087989
C43	C	0.659217	-0.500116	0.472791
C44	C	1.159217	-0.000116	0.972791
C45	C	0.753123	-0.494088	0.478204
C46	C	1.253123	0.005912	0.978204
C47	C	0.796780	-0.427227	0.538513
C48	C	1.296780	0.072773	1.038513
C49	C	0.890688	-0.421205	0.543930
C50	C	1.390688	0.078795	1.043930
C51	C	0.897270	-0.548890	0.428727
C52	C	1.397270	-0.048890	0.928727
C53	C	0.803364	-0.554918	0.423314
C54	C	1.303364	-0.054918	0.923314
C55	C	1.274456	-0.737218	0.508305
C56	C	1.774456	-0.237218	1.008305
C57	C	1.274519	-0.855521	0.508332
C58	C	1.774519	-0.355521	1.008332
C59	C	1.338111	-0.916591	0.451807
C60	C	1.838111	-0.416591	0.951807
C61	C	1.355345	-0.991792	0.535144
C62	C	1.855345	-0.491792	1.035144
C63	C	1.257394	-0.991116	0.425054
C64	C	1.757394	-0.491116	0.925054
C65	C	1.291793	-0.929164	0.591714
C66	C	1.791793	-0.429164	1.091714
C67	C	1.193808	-0.928480	0.481567
C68	C	1.693808	-0.428480	0.981567
C69	C	1.211007	-1.003655	0.564958
C70	C	1.711007	-0.503655	1.064958
C71	C	1.509026	-0.445676	0.521900
C72	C	2.009026	0.054324	1.021900
C73	C	1.608968	-0.439283	0.527686
C74	C	2.108968	0.060717	1.027686
C75	C	1.261014	-0.477472	0.742846
C76	C	1.761014	0.022528	1.242846
C77	C	1.255268	-0.484630	0.842786
C78	C	1.755268	0.015370	1.342786
C79	C	1.274561	-0.183053	0.508362
C80	C	1.774561	0.316947	1.008362
C81	C	1.274588	-0.064747	0.508379
C82	C	1.774588	0.435253	1.008379
C83	C	1.287979	-0.443864	0.274715
C84	C	1.787979	0.056136	0.774715
C85	C	1.293899	-0.436395	0.174785
C86	C	1.793899	0.063605	0.674785
C87	C	1.359508	-0.354561	1.037263
C88	C	1.859508	0.145439	1.537263
C89	C	1.354112	-0.361282	1.131166
C90	C	1.854112	0.138718	1.631166
C91	C	1.239076	-0.504789	1.124496
C92	C	1.739076	-0.004789	1.624496
C93	C	1.244472	-0.498068	1.030593
C94	C	1.744472	0.001932	1.530593
C95	C	1.304691	-0.422952	0.986980
C96	C	1.804691	0.077048	1.486980
C97	C	1.310091	-0.416236	0.893076
C98	C	1.810091	0.083764	1.393076
C99	C	1.195051	-0.559737	0.886408
C100	C	1.695051	-0.059737	1.386408
C101	C	1.189655	-0.566459	0.980310
C102	C	1.689655	-0.066459	1.480310
H103	H	0.623654	-0.554538	0.423680
H104	H	1.123654	-0.054538	0.923680
C105	C	0.755335	-0.628463	0.356984
C106	C	1.255335	-0.128463	0.856984
H107	H	0.692212	-0.623347	0.361624
H108	H	1.192212	-0.123347	0.861624
H109	H	0.774184	-0.607475	0.297478
H110	H	1.274184	-0.107475	0.797478
H111	H	0.769970	-0.699951	0.370942
H112	H	1.269970	-0.199951	0.870942
H113	H	1.391893	-0.878631	0.404053
H114	H	1.891893	-0.378631	0.904053
C115	C	1.237830	-1.028165	0.329910
C116	C	1.737830	-0.528165	0.829910
H117	H	1.184570	-1.073420	0.330878
H118	H	1.684570	-0.573420	0.830878
H119	H	1.230147	-0.967922	0.289906
H120	H	1.730147	-0.467922	0.789906
H121	H	1.286723	-1.066055	0.310261
H122	H	1.786723	-0.566055	0.810261
H123	H	0.938186	-0.598431	0.384039
H124	H	1.438186	-0.098431	0.884039
H125	H	1.140626	-0.627614	1.015833
H126	H	1.640626	-0.127614	1.515833
C127	C	1.311513	-0.892391	0.686915
C128	C	1.811513	-0.392391	1.186915
H129	H	1.319738	-0.952729	0.726667
H130	H	1.819738	-0.452729	1.226667
H131	H	1.364507	-0.846694	0.685857
H132	H	1.864507	-0.346694	1.185857
H133	H	1.262447	-0.855076	0.706958
H134	H	1.762447	-0.355076	1.206958
C135	C	0.597370	-0.305519	0.648373
C136	C	1.097370	0.194481	1.148373
H137	H	0.636824	-0.264845	0.685069
H138	H	1.136824	0.235155	1.185069
H139	H	0.562703	-0.258975	0.611935
H140	H	1.062703	0.241025	1.111935
H141	H	0.558499	-0.351467	0.685386
H142	H	1.058499	0.148533	1.185386
H143	H	1.157257	-1.041424	0.612838
H144	H	1.657257	-0.541424	1.112838
H145	H	0.782086	-0.311961	0.642512
H146	H	1.282086	0.188039	1.142512
H147	H	1.423630	-1.019728	0.557807
H148	H	1.923630	-0.519728	1.057807
H149	H	1.190049	-0.565944	1.160022
H150	H	1.690049	-0.065944	1.660022
C151	C	0.938715	-0.347664	0.610264
C152	C	1.438715	0.152336	1.110264
H153	H	1.001838	-0.352792	0.605635
H154	H	1.501838	0.147208	1.105635
H155	H	0.924080	-0.276179	0.596318
H156	H	1.424080	0.223821	1.096318
H157	H	0.919865	-0.368667	0.669772
H158	H	1.419865	0.131333	1.169772
C159	C	1.134749	-0.634970	0.831095
C160	C	1.634749	-0.134970	1.331095
H161	H	1.146583	-0.620208	0.768923
H162	H	1.646583	-0.120208	1.268923
H163	H	1.147010	-0.706743	0.847240
H164	H	1.647010	-0.206743	1.347240
H165	H	1.073450	-0.624355	0.842987
H166	H	1.573450	-0.124355	1.342987
C167	C	1.376321	-0.333607	0.845102
C168	C	1.876321	0.166393	1.345102
H169	H	1.408186	-0.293830	0.888501
H170	H	1.908186	0.206170	1.388501
H171	H	1.417600	-0.369182	0.810730
H172	H	1.917600	0.130818	1.310730
H173	H	1.344027	-0.286810	0.806489
H174	H	1.844027	0.213190	1.306489
C175	C	1.101593	-0.890694	0.450919
C176	C	1.601593	-0.390694	0.950919
H177	H	1.089491	-0.911738	0.391688
H178	H	1.589491	-0.411738	0.891688
H179	H	1.056328	-0.921731	0.490483
H180	H	1.556328	-0.421731	0.990483
H181	H	1.102080	-0.815288	0.451656
H182	H	1.602080	-0.315288	0.951656
C183	C	1.414415	-0.286057	1.186474
C184	C	1.914415	0.213943	1.686474
H185	H	1.451054	-0.240367	1.147048
H186	H	1.951054	0.259633	1.647048
H187	H	1.377926	-0.244505	1.221123
H188	H	1.877926	0.255495	1.721123
H189	H	1.451484	-0.326895	1.225365
H190	H	1.951484	0.173105	1.725365
C191	C	1.425742	-0.271938	0.989286
C192	C	1.925742	0.228062	1.489286
H193	H	1.457614	-0.232164	1.032682
H194	H	1.957614	0.267836	1.532682
H195	H	1.467015	-0.307521	0.954913
H196	H	1.967015	0.192479	1.454913
H197	H	1.393450	-0.225138	0.950673
H198	H	1.893450	0.274862	1.450673
