data_functionalizedCrystal
_audit_creation_method	'MofGen! by Chris Wilmer'
_symmetry_space_group_name_H-M	'P1'
_symmetry_Int_Tables_number	1
_symmetry_cell_setting	triclinic
loop_
_symmetry_equiv_pos_as_xyz
  x,y,z
_cell_length_a	23.532355
_cell_length_b	23.532407
_cell_length_c	16.776229
_cell_angle_alpha	89.988688
_cell_angle_beta	89.998671
_cell_angle_gamma	82.838088
loop_
_atom_site_label
_atom_site_type_symbol
_atom_site_fract_x
_atom_site_fract_y
_atom_site_fract_z
O1	O	0.755281	0.068995	-0.066188
O2	O	0.589413	0.079030	-0.066214
O3	O	0.677349	-0.008920	-0.066186
O4	O	0.667345	0.156945	-0.066216
O5	O	0.677337	-0.008925	0.066391
O6	O	0.589402	0.079024	0.066362
O7	O	0.755269	0.068990	0.066389
Zn8	Zn	0.672333	0.074006	0.087425
Zn9	Zn	0.672349	0.074013	-0.087250
O10	O	0.667334	0.156940	0.066360
C11	C	0.568191	0.078776	0.000071
C12	C	0.504972	0.078022	0.000061
C13	C	0.112952	0.073281	0.072363
C14	C	0.053553	0.072564	0.072366
O15	O	0.022829	0.072171	0.133826
N16	N	0.023850	0.072211	0.000099
C17	C	0.053552	0.072570	-0.072176
O18	O	0.022833	0.072203	-0.133644
C19	C	0.112950	0.073283	-0.072178
C20	C	0.142649	0.073641	0.000093
C21	C	0.142650	0.073639	0.144629
C22	C	0.202046	0.074357	0.144625
C23	C	0.231742	0.074718	0.072356
C24	C	0.202044	0.074360	0.000090
C25	C	0.142651	0.073638	-0.144453
C26	C	0.202054	0.074351	-0.144449
C27	C	0.231752	0.074709	-0.072177
C28	C	0.291136	0.075439	-0.072183
N29	N	0.320838	0.075792	0.000084
C30	C	0.291141	0.075431	0.072354
C31	C	-0.071190	0.071070	-0.072165
C32	C	-0.130588	0.070361	-0.072164
C33	C	-0.130583	0.070354	0.072379
C34	C	-0.071184	0.071068	0.072376
C35	C	-0.041488	0.071423	0.000102
C36	C	0.415875	0.076941	0.072341
C37	C	0.475275	0.077662	0.072331
C38	C	0.475265	0.077665	-0.072211
C39	C	0.415870	0.076948	-0.072202
C40	C	0.386177	0.076583	0.000081
O41	O	0.321898	0.075830	-0.133612
O42	O	0.321868	0.075790	0.133812
C43	C	0.677088	-0.030139	0.000105
C44	C	0.676322	-0.093356	0.000111
C45	C	0.723557	-0.492468	0.000074
C46	C	0.722845	-0.551868	0.000068
O47	O	0.766632	-0.588620	0.000046
N48	N	0.670568	-0.574484	0.000061
C49	C	0.618998	-0.537697	0.000051
O50	O	0.574467	-0.562388	0.000043
C51	C	0.619710	-0.478298	0.000051
C52	C	0.671991	-0.455685	0.000067
C53	C	0.775834	-0.469854	0.000089
C54	C	0.776545	-0.410458	0.000097
C55	C	0.724979	-0.373676	0.000090
C56	C	0.672703	-0.396289	0.000075
C57	C	0.568141	-0.441512	0.000036
C58	C	0.568858	-0.382110	0.000036
C59	C	0.621139	-0.359497	0.000052
C60	C	0.621848	-0.300110	0.000075
N61	N	0.674126	-0.277494	0.000083
C62	C	0.725691	-0.314277	0.000090
C63	C	0.617507	-0.662439	0.000048
C64	C	0.616794	-0.721837	0.000054
C65	C	0.720642	-0.736004	0.000070
C66	C	0.721354	-0.676605	0.000070
C67	C	0.669784	-0.639823	0.000056
C68	C	0.727181	-0.189540	0.000107
C69	C	0.727888	-0.130138	0.000118
C70	C	0.624041	-0.115977	0.000098
C71	C	0.623334	-0.175373	0.000091
C72	C	0.674909	-0.212154	0.000093
O73	O	0.578084	-0.263323	0.000094
O74	O	0.770216	-0.289577	0.000088
C75	C	0.776491	0.069244	0.000102
C76	C	0.839710	0.069998	0.000106
C77	C	0.667594	0.178158	0.000068
C78	C	0.668360	0.241375	0.000057
N79	N	0.672327	0.074001	0.206636
N80	N	0.672360	0.074014	-0.206462
C81	C	0.711277	0.035073	0.248366
C82	C	0.711280	0.035072	0.331818
C83	C	0.672336	0.074003	0.373539
C84	C	0.633382	0.112933	0.331803
C85	C	0.633377	0.112931	0.248353
C86	C	0.633403	0.112945	0.668351
C87	C	0.633412	0.112945	0.751807
C88	C	0.711306	0.035086	0.751816
C89	C	0.711301	0.035083	0.668365
C90	C	0.672345	0.074011	0.626637
C91	C	0.672341	0.074011	0.536149
C92	C	0.672342	0.074007	0.464026
H93	H	0.391705	0.076649	0.131200
Br94	Br	0.554062	-0.066047	0.000088
Br95	Br	0.764175	-0.017747	0.808451
Br96	Br	0.764137	-0.017761	0.191753
H97	H	0.118481	0.073345	-0.203304
Br98	Br	0.580556	0.165784	0.808429
H99	H	0.743014	0.003384	0.634399
Br100	Br	0.242353	0.074830	-0.242541
H101	H	0.118478	0.073344	0.203483
H102	H	0.762629	-0.765963	0.000073
H103	H	0.499453	0.077955	0.131186
Br104	Br	0.375562	0.076473	-0.170285
H105	H	0.742995	0.003374	0.365794
H106	H	0.499455	0.077961	-0.131051
H107	H	0.601685	0.144642	0.634382
H108	H	0.575510	-0.632494	0.000044
H109	H	-0.154773	0.070060	0.131224
H110	H	0.601670	0.144630	0.365777
H111	H	0.601659	0.144629	0.214377
H112	H	-0.047008	0.071360	0.131226
Br113	Br	0.242342	0.074842	0.242714
H114	H	-0.154765	0.070078	-0.131015
Br115	Br	-0.030894	0.071558	-0.170262
H116	H	0.770463	-0.111731	0.000133
H117	H	0.769178	-0.219481	0.000105
H118	H	0.817827	-0.499797	0.000092
Br119	Br	0.847502	-0.379779	0.000096
H120	H	0.525569	-0.459912	0.000018
H121	H	0.574222	-0.740243	0.000055
Br122	Br	0.792309	-0.645922	0.000093
H123	H	0.526863	-0.352164	0.000023
H124	H	0.580762	-0.193785	0.000100
