data_functionalizedCrystal
_audit_creation_method	'MofGen! by Chris Wilmer'
_symmetry_space_group_name_H-M	'P1'
_symmetry_Int_Tables_number	1
_symmetry_cell_setting	triclinic
loop_
_symmetry_equiv_pos_as_xyz
  x,y,z
_cell_length_a	8.559649
_cell_length_b	17.666332
_cell_length_c	8.559649
_cell_angle_alpha	90.004105
_cell_angle_beta	69.778664
_cell_angle_gamma	90.008980
loop_
_atom_site_label
_atom_site_type_symbol
_atom_site_fract_x
_atom_site_fract_y
_atom_site_fract_z
O1	O	2.126893	0.062936	-0.055037
O2	O	1.651408	0.062939	0.028745
O3	O	1.931041	0.062937	-0.250888
O4	O	1.847260	0.062939	0.224596
O5	O	1.930998	-0.062960	-0.250890
O6	O	1.651365	-0.062957	0.028743
O7	O	2.126850	-0.062960	-0.055039
Cu8	Cu	1.889103	-0.074454	-0.013148
Cu9	Cu	1.889154	0.074433	-0.013146
O10	O	1.847217	-0.062958	0.224594
C11	C	1.591077	-0.000009	0.035093
C12	C	1.411378	-0.000007	0.053992
N13	N	1.889080	-0.179174	-0.013152
C14	C	1.975371	-0.218777	0.073234
C15	C	1.975397	-0.298025	0.073226
C16	C	1.889100	-0.337666	-0.013145
C17	C	1.802805	-0.298053	-0.099551
C18	C	1.802795	-0.218807	-0.099554
N19	N	1.747552	-0.462104	-0.000140
N20	N	1.747565	-0.537385	-0.000128
C21	C	1.889129	-0.576430	-0.013143
N22	N	2.030678	-0.537350	-0.026140
N23	N	2.030661	-0.462063	-0.026143
C24	C	1.889103	-0.423595	-0.013152
C25	C	1.975457	-0.701963	0.073239
C26	C	1.975488	-0.781212	0.073219
C27	C	1.802880	-0.781238	-0.099547
C28	C	1.802864	-0.701991	-0.099539
C29	C	1.889149	-0.662358	-0.013137
C30	C	2.187180	-0.000011	-0.061387
C31	C	2.366879	-0.000007	-0.080286
C32	C	1.937369	-0.000010	-0.311198
C33	C	1.956268	-0.000006	-0.490898
N34	N	1.889192	0.179153	-0.013156
C35	C	1.840889	-0.000009	0.284904
C36	C	1.821990	-0.000008	0.464604
H37	H	2.045638	-0.186513	0.143582
H38	H	1.692570	-0.000010	-0.436018
H39	H	1.466258	-0.000004	-0.209705
H40	H	1.311990	-0.000003	0.183420
N41	N	2.127716	-0.000019	-0.622531
H42	H	2.117376	-0.000025	-0.736552
H43	H	2.190253	0.046652	-0.609482
H44	H	1.732543	-0.330333	-0.169877
N45	N	2.068471	-0.340753	0.166404
H46	H	2.123131	-0.303621	0.221136
H47	H	1.988000	-0.373635	0.254343
H48	H	1.732523	-0.186562	-0.169902
N49	N	2.068519	-0.659209	0.166418
H50	H	2.123202	-0.696326	0.221134
H51	H	2.156490	-0.626320	0.086002
N52	N	2.068632	-0.823931	0.166330
H53	H	2.123303	-0.786796	0.221044
H54	H	1.988219	-0.856831	0.254277
N55	N	1.709814	-0.823982	-0.192724
H56	H	1.722918	-0.880194	-0.179619
H57	H	1.587904	-0.810143	-0.146266
H58	H	1.732589	-0.669745	-0.169876
