data_functionalizedCrystal
_audit_creation_method	'MofGen! by Chris Wilmer'
_symmetry_space_group_name_H-M	'P1'
_symmetry_Int_Tables_number	1
_symmetry_cell_setting	triclinic
loop_
_symmetry_equiv_pos_as_xyz
  x,y,z
_cell_length_a	10.540535
_cell_length_b	15.021413
_cell_length_c	10.540539
_cell_angle_alpha	90.003442
_cell_angle_beta	95.475433
_cell_angle_gamma	89.990847
loop_
_atom_site_label
_atom_site_type_symbol
_atom_site_fract_x
_atom_site_fract_y
_atom_site_fract_z
O1	O	1.685871	0.073979	-0.178864
O2	O	1.316457	0.073991	-0.195726
O3	O	1.509592	0.073983	-0.002588
O4	O	1.492736	0.073986	-0.372001
O5	O	1.509615	-0.074081	-0.002600
O6	O	1.316480	-0.074073	-0.195738
O7	O	1.685894	-0.074085	-0.178876
Zn8	Zn	1.501190	-0.097588	-0.187309
Zn9	Zn	1.501160	0.097493	-0.187293
O10	O	1.492759	-0.074078	-0.372014
C11	C	1.269165	-0.000040	-0.194469
C12	C	1.128217	-0.000035	-0.190689
C13	C	1.091546	-0.000040	-0.049675
C14	C	0.944946	-0.000384	-0.045698
C15	C	0.918894	-0.084432	-0.255066
C16	C	1.065659	-0.084495	-0.258067
C17	C	1.065517	0.083888	-0.260105
C18	C	0.919171	0.084988	-0.253583
N19	N	1.501220	-0.230725	-0.187319
C20	C	1.590543	-0.470388	-0.097992
C21	C	1.475611	-0.529714	-0.072300
C22	C	1.501190	-0.412332	-0.187303
C23	C	1.616093	-0.529749	-0.212921
C24	C	1.501172	-0.587756	-0.187285
C25	C	1.386200	-0.470351	-0.161554
C26	C	1.526758	-0.470381	-0.302225
C27	C	1.411744	-0.529680	-0.276580
C28	C	1.501203	-0.311275	-0.187311
C29	C	1.501147	-0.688812	-0.187278
C30	C	1.733185	-0.000053	-0.180133
C31	C	1.874134	-0.000052	-0.183913
C32	C	1.508339	-0.000047	0.044709
C33	C	1.504557	-0.000042	0.185657
N34	N	1.501140	0.230631	-0.187273
C35	C	1.494011	-0.000046	-0.419311
C36	C	1.497793	-0.000045	-0.560259
C37	C	1.359640	0.000295	0.369081
C38	C	1.363474	-0.000039	0.222463
C39	C	1.572466	-0.084596	0.247308
C40	C	1.567651	-0.084667	0.393853
C41	C	1.570495	0.083709	0.394385
C42	C	1.571794	0.084827	0.247403
H43	H	0.888002	-0.147471	-0.206259
H44	H	1.713273	-0.555839	-0.234597
H45	H	1.303899	0.060930	0.397685
H46	H	1.524823	0.147796	0.425943
F47	F	1.118183	-0.167256	-0.195272
F48	F	1.700271	-0.089695	0.456557
F49	F	1.148356	-0.079017	0.019916
F50	F	1.706238	0.091502	0.215741
F51	F	0.907760	-0.079924	0.026645
H52	H	1.288997	-0.444370	-0.139768
F53	F	1.703689	0.084450	0.456116
H54	H	1.088691	-0.088099	-0.361441
F55	F	1.447314	-0.563773	0.054740
H56	H	0.890559	0.147414	-0.201802
F57	F	1.293164	-0.079388	0.167871
H58	H	1.548436	-0.444299	-0.399389
F59	F	1.707891	-0.088713	0.218095
F60	F	1.312863	-0.563495	-0.375297
F61	F	1.286912	-0.078295	0.408985
H62	H	1.107967	0.147868	-0.216097
F63	F	1.293632	0.079185	0.166779
F64	F	1.502073	-0.167275	0.430707
F65	F	1.507357	0.166598	0.193410
F66	F	0.906583	0.078662	0.027034
F67	F	1.510834	-0.166838	0.191624
H68	H	0.871538	-0.087332	-0.356832
F69	F	1.146389	0.079042	0.021115
H70	H	0.870122	0.090347	-0.354456
F71	F	1.689206	-0.436357	0.000780
H72	H	1.087702	0.084705	-0.363856
