data_functionalizedCrystal
_audit_creation_method	'MofGen! by Chris Wilmer'
_symmetry_space_group_name_H-M	'P1'
_symmetry_Int_Tables_number	1
_symmetry_cell_setting	triclinic
loop_
_symmetry_equiv_pos_as_xyz
  x,y,z
_cell_length_a	13.032831
_cell_length_b	25.639240
_cell_length_c	13.032268
_cell_angle_alpha	82.864661
_cell_angle_beta	89.113023
_cell_angle_gamma	82.835975
loop_
_atom_site_label
_atom_site_type_symbol
_atom_site_fract_x
_atom_site_fract_y
_atom_site_fract_z
Zn1	Zn	1.498317	-0.353075	0.780663
Zn2	Zn	1.998317	0.146925	1.280663
Zn3	Zn	1.520023	-0.430970	0.608645
Zn4	Zn	2.020023	0.069030	1.108645
Zn5	Zn	1.348185	-0.331235	0.586915
Zn6	Zn	1.848185	0.168765	1.086915
Zn7	Zn	1.326273	-0.428143	0.758772
Zn8	Zn	1.826273	0.071857	1.258772
O9	O	1.423200	-0.385856	0.683749
O10	O	1.923200	0.114144	1.183749
O11	O	1.645112	-0.373732	0.776101
O12	O	2.145112	0.126268	1.276101
O13	O	1.515483	-0.409783	0.461850
O14	O	2.015483	0.090217	0.961850
O15	O	1.368187	-0.260977	0.612683
O16	O	1.868187	0.239023	1.112683
O17	O	1.661060	-0.430960	0.649720
O18	O	2.161060	0.069040	1.149720
O19	O	1.478488	-0.277023	0.755029
O20	O	1.978488	0.222977	1.255029
O21	O	1.389235	-0.336508	0.445884
O22	O	1.889235	0.163492	0.945884
O23	O	1.201363	-0.333767	0.591456
O24	O	1.701363	0.166233	1.091456
O25	O	1.330840	-0.426143	0.905589
O26	O	1.830840	0.073857	1.405589
O27	O	1.185264	-0.404965	0.717719
O28	O	1.685264	0.095035	1.217719
O29	O	1.457240	-0.370991	0.921672
O30	O	1.957240	0.129009	1.421672
O31	O	1.494236	-0.503750	0.628493
O32	O	1.994236	-0.003750	1.128493
O33	O	1.351888	-0.501674	0.738790
O34	O	1.851888	-0.001674	1.238790
C35	C	1.155997	-0.366690	0.649854
C36	C	1.655997	0.133310	1.149854
C37	C	1.041684	-0.358504	0.635379
C38	C	1.541684	0.141496	1.135379
C39	C	0.982793	-0.390128	0.691304
C40	C	1.482793	0.109872	1.191304
C41	C	0.864644	-0.381669	0.676344
C42	C	1.364644	0.118331	1.176344
C43	C	1.423064	-0.521684	0.683650
C44	C	1.923064	-0.021684	1.183650
C45	C	1.423096	-0.579800	0.683654
C46	C	1.923096	-0.079800	1.183654
C47	C	1.480651	-0.948501	0.757991
C48	C	1.980651	-0.448501	1.257991
C49	C	1.480679	-1.003109	0.758016
C50	C	1.980679	-0.503109	1.258016
O51	O	1.529451	-1.038418	0.821116
O52	O	2.029451	-0.538418	1.321116
N53	N	1.423330	-1.022111	0.683866
N54	N	1.923330	-0.522111	1.183866
C55	C	1.365941	-0.986502	0.609693
C56	C	1.865941	-0.486502	1.109693
O57	O	1.317163	-1.007678	0.546626
O58	O	1.817163	-0.507678	1.046626
C59	C	1.365908	-0.931895	0.609674
C60	C	1.865908	-0.431895	1.109674
C61	C	1.423269	-0.912896	0.683822
C62	C	1.923269	-0.412896	1.183822
C63	C	1.538006	-0.929502	0.832134
C64	C	2.038006	-0.429502	1.332134
C65	C	1.537980	-0.874898	0.832108
C66	C	2.037980	-0.374898	1.332108
C67	C	1.480598	-0.839293	0.757939
C68	C	1.980598	-0.339293	1.257939
C69	C	1.423243	-0.858293	0.683796
C70	C	1.923243	-0.358293	1.183796
C71	C	1.308514	-0.896287	0.535507
C72	C	1.808514	-0.396287	1.035507
C73	C	1.308486	-0.841677	0.535494
C74	C	1.808486	-0.341677	1.035494
C75	C	1.365847	-0.822679	0.609642
C76	C	1.865847	-0.322679	1.109642
C77	C	1.365835	-0.768084	0.609601
C78	C	1.865835	-0.268084	1.109601
N79	N	1.423184	-0.749082	0.683750
N80	N	1.923184	-0.249082	1.183750
C81	C	1.480565	-0.784687	0.757919
C82	C	1.980565	-0.284687	1.257919
C83	C	1.366013	-1.101180	0.609741
C84	C	1.866013	-0.601180	1.109741
C85	C	1.366051	-1.155785	0.609755
C86	C	1.866051	-0.655785	1.109755
C87	C	1.480787	-1.172389	0.758079
C88	C	1.980787	-0.672389	1.258079
C89	C	1.480754	-1.117782	0.758059
C90	C	1.980754	-0.617782	1.258059
C91	C	1.423362	-1.082178	0.683890
C92	C	1.923362	-0.582178	1.183890
C93	C	1.480506	-0.670014	0.757858
C94	C	1.980506	-0.170014	1.257858
C95	C	1.480478	-0.615405	0.757823
C96	C	1.980478	-0.115405	1.257823
C97	C	1.365738	-0.598806	0.609503
C98	C	1.865738	-0.098806	1.109503
C99	C	1.365770	-0.653411	0.609534
C100	C	1.865770	-0.153411	1.109534
C101	C	1.423156	-0.689014	0.683721
C102	C	1.923156	-0.189014	1.183721
O103	O	1.317084	-0.732744	0.546536
O104	O	1.817084	-0.232744	1.046536
O105	O	1.529324	-0.763502	0.820984
O106	O	2.029324	-0.263502	1.320984
C107	C	1.691445	-0.405097	0.717776
C108	C	2.191445	0.094903	1.217776
C109	C	1.805755	-0.413297	0.732276
C110	C	2.305755	0.086703	1.232276
C111	C	1.389174	-0.400687	0.951989
C112	C	1.889174	0.099313	1.451989
C113	C	1.374675	-0.407008	1.066297
C114	C	1.874675	0.092992	1.566297
C115	C	1.423360	-0.249501	0.683874
C116	C	1.923360	0.250499	1.183874
C117	C	1.423429	-0.191395	0.683928
C118	C	1.923429	0.308605	1.183928
C119	C	1.457151	-0.371049	0.416560
C120	C	1.957151	0.128951	0.916560
C121	C	1.471850	-0.364595	0.302278
C122	C	1.971850	0.135405	0.802278
C123	C	1.430751	-0.382537	1.125216
C124	C	1.930751	0.117463	1.625216
C125	C	1.415766	-0.389069	1.243360
C126	C	1.915766	0.110931	1.743360
H127	H	1.527228	-0.698997	0.818274
H128	H	2.027228	-0.198997	1.318274
C129	C	0.855785	-0.458336	0.811929
C130	C	1.355785	0.041664	1.311929
H131	H	0.803514	-0.477076	0.845079
H132	H	1.303514	0.022924	1.345079
H133	H	0.902671	-0.481883	0.777771
H134	H	1.402671	0.018117	1.277771
H135	H	0.892023	-0.443829	0.862090
H136	H	1.392023	0.056171	1.362090
C137	C	1.245402	-0.917176	0.453957
C138	C	1.745402	-0.417176	0.953957
H139	H	1.253630	-0.954797	0.464577
H140	H	1.753630	-0.454797	0.964577
H141	H	1.174389	-0.904121	0.460200
H142	H	1.674389	-0.404121	0.960200
H143	H	1.269261	-0.905501	0.386776
H144	H	1.769261	-0.405501	0.886776
H145	H	1.019844	-0.423463	0.750262
H146	H	1.519844	0.076537	1.250262
C147	C	1.294836	-0.441845	1.116300
C148	C	1.794836	0.058155	1.616300
H149	H	1.295246	-0.441669	1.189147
H150	H	1.795246	0.058331	1.689147
H151	H	1.227954	-0.428278	1.089989
H152	H	1.727954	0.071722	1.589989
H153	H	1.312069	-0.477088	1.100623
H154	H	1.812069	0.022912	1.600623
C155	C	1.302618	-0.559635	0.527927
C156	C	1.802618	-0.059635	1.027927
H157	H	1.310812	-0.524393	0.538546
H158	H	1.810812	-0.024393	1.038546
H159	H	1.326481	-0.565855	0.460755
H160	H	1.826481	-0.065855	0.960755
H161	H	1.231604	-0.564484	0.534173
H162	H	1.731604	-0.064484	1.034173
H163	H	1.261746	-0.812689	0.475097
H164	H	1.761746	-0.312689	0.975097
C165	C	1.302961	-1.176678	0.528187
C166	C	1.802961	-0.676678	1.028187
H167	H	1.268780	-1.147648	0.484019
H168	H	1.768780	-0.647648	0.984019
H169	H	1.348022	-1.198324	0.488410
H170	H	1.848022	-0.698324	0.988410
H171	H	1.253136	-1.196944	0.561815
H172	H	1.753136	-0.696944	1.061815
H173	H	1.319281	-1.072192	0.549335
H174	H	1.819281	-0.572192	1.049335
H175	H	0.827597	-0.348328	0.617389
H176	H	1.327597	0.151672	1.117389
H177	H	1.004633	-0.325166	0.576428
H178	H	1.504633	0.174834	1.076428
C179	C	1.543568	-0.594509	0.839397
C180	C	2.043568	-0.094509	1.339397
H181	H	1.577734	-0.623538	0.883579
H182	H	2.077734	-0.123538	1.383579
H183	H	1.593388	-0.574240	0.805782
H184	H	2.093388	-0.074240	1.305782
H185	H	1.498489	-0.572866	0.879171
H186	H	1.998489	-0.072866	1.379171
C187	C	1.551698	-0.329758	1.252282
C188	C	2.051698	0.170242	1.752282
H189	H	1.551301	-0.329940	1.179436
H190	H	2.051301	0.170060	1.679436
H191	H	1.534480	-0.294518	1.267962
H192	H	2.034480	0.205482	1.767962
H193	H	1.618582	-0.343334	1.278595
H194	H	2.118582	0.156666	1.778595
H195	H	1.584685	-0.859433	0.892488
H196	H	2.084685	-0.359433	1.392488
C197	C	1.601139	-0.968660	0.913722
C198	C	2.101139	-0.468660	1.413722
H199	H	1.635293	-0.949516	0.957863
H200	H	2.135293	-0.449516	1.457863
H201	H	1.556110	-0.989625	0.953523
H202	H	2.056110	-0.489625	1.453523
H203	H	1.650988	-0.990990	0.880107
H204	H	2.150988	-0.490990	1.380107
C205	C	1.543830	-1.096888	0.839637
C206	C	2.043830	-0.596888	1.339637
H207	H	1.577998	-1.125918	0.883814
H208	H	2.077998	-0.625918	1.383814
H209	H	1.593648	-1.076614	0.806032
H210	H	2.093648	-0.576614	1.306032
H211	H	1.498744	-1.075250	0.879415
H212	H	1.998744	-0.575250	1.379415
H213	H	1.319071	-0.668880	0.549150
H214	H	1.819071	-0.168880	1.049150
C215	C	1.510596	-0.347704	1.075214
C216	C	2.010596	0.152296	1.575214
H217	H	1.510198	-0.347887	1.002369
H218	H	2.010198	0.152113	1.502369
H219	H	1.493381	-0.312463	1.090892
H220	H	1.993381	0.187537	1.590892
H221	H	1.577480	-0.361280	1.101527
H222	H	2.077480	0.138720	1.601527
C223	C	1.335923	-0.423908	1.293358
C224	C	1.835923	0.076092	1.793358
H225	H	1.336333	-0.423732	1.366205
H226	H	1.836333	0.076268	1.866205
H227	H	1.269041	-0.410341	1.267047
H228	H	1.769041	0.089659	1.767047
H229	H	1.353157	-0.459151	1.277682
H230	H	1.853157	0.040849	1.777682
H231	H	1.527509	-1.201389	0.818473
H232	H	2.027509	-0.701389	1.318473
