data_functionalizedCrystal
_audit_creation_method	'MofGen! by Chris Wilmer'
_symmetry_space_group_name_H-M	'P1'
_symmetry_Int_Tables_number	1
_symmetry_cell_setting	triclinic
loop_
_symmetry_equiv_pos_as_xyz
  x,y,z
_cell_length_a	14.853558
_cell_length_b	14.044190
_cell_length_c	13.330367
_cell_angle_alpha	89.990836
_cell_angle_beta	89.992972
_cell_angle_gamma	88.411455
loop_
_atom_site_label
_atom_site_type_symbol
_atom_site_fract_x
_atom_site_fract_y
_atom_site_fract_z
O1	O	1.206179	0.123725	-0.083423
O2	O	1.706179	0.623725	0.416577
O3	O	0.944888	0.138478	-0.083429
O4	O	1.444888	0.638478	0.416571
O5	O	1.071608	-0.006889	-0.083406
O6	O	1.571608	0.493111	0.416594
O7	O	1.079459	0.269091	-0.083446
O8	O	1.579459	0.769091	0.416554
O9	O	1.071588	-0.006892	0.083441
O10	O	1.571588	0.493108	0.583441
O11	O	0.944868	0.138474	0.083418
O12	O	1.444868	0.638474	0.583418
O13	O	1.206159	0.123721	0.083424
O14	O	1.706159	0.623721	0.583424
Cu15	Cu	1.075512	0.131098	0.098656
Cu16	Cu	1.575512	0.631098	0.598656
Cu17	Cu	1.075536	0.131101	-0.098660
Cu18	Cu	1.575536	0.631101	0.401340
O19	O	1.079439	0.269088	0.083402
O20	O	1.579439	0.769088	0.583402
C21	C	0.911236	0.137809	-0.000006
C22	C	1.411236	0.637809	0.499994
C23	C	0.810994	0.135811	-0.000007
C24	C	1.310994	0.635811	0.499993
C25	C	0.763910	0.134875	-0.090959
C26	C	1.263910	0.634875	0.409041
C27	C	0.763886	0.134860	0.090944
C28	C	1.263886	0.634860	0.590944
C29	C	0.669703	0.132978	0.090946
C30	C	1.169703	0.632978	0.590946
C31	C	0.622619	0.132042	-0.000006
C32	C	1.122619	0.632042	0.499994
C33	C	0.669719	0.132990	-0.090960
C34	C	1.169719	0.632990	0.409040
C35	C	0.622597	0.132021	0.181898
C36	C	1.122597	0.632021	0.681898
C37	C	0.528408	0.130137	0.181904
C38	C	1.028408	0.630137	0.681904
C39	C	0.481323	0.129208	0.090950
C40	C	0.981323	0.629208	0.590950
C41	C	0.528428	0.130157	-0.000007
C42	C	1.028428	0.630157	0.499993
C43	C	0.481344	0.129221	-0.090959
C44	C	0.981344	0.629221	0.409041
C45	C	0.528448	0.130176	-0.181918
C46	C	1.028448	0.630176	0.318082
C47	C	0.622633	0.132061	-0.181913
C48	C	1.122633	0.632061	0.318087
C49	C	0.387137	0.127324	0.090946
C50	C	0.887137	0.627324	0.590946
C51	C	0.387153	0.127336	-0.090960
C52	C	0.887153	0.627336	0.409040
C53	C	1.068164	-0.042209	0.000020
C54	C	1.568164	0.457791	0.500020
C55	C	1.057920	-0.147448	0.000029
C56	C	1.557920	0.352552	0.500029
C57	C	1.111846	-0.397666	-0.000009
C58	C	1.611846	0.102334	0.499991
C59	C	1.039205	-0.340130	-0.000004
C60	C	1.539205	0.159870	0.499996
C61	C	1.049620	-0.232912	0.000014
C62	C	1.549620	0.267088	0.500014
C63	C	1.101432	-0.504893	-0.000028
C64	C	1.601432	-0.004893	0.499972
C65	C	1.239811	0.124390	-0.000001
C66	C	1.739811	0.624390	0.499999
C67	C	1.340053	0.126388	-0.000006
C68	C	1.840053	0.626388	0.499994
C69	C	1.082883	0.304408	-0.000027
C70	C	1.582883	0.804408	0.499973
C71	C	1.093128	0.409647	-0.000042
C72	C	1.593128	0.909647	0.499958
N73	N	1.075501	0.131094	0.237437
N74	N	1.575501	0.631094	0.737437
N75	N	1.075553	0.131097	-0.237442
N76	N	1.575553	0.631097	0.262558
C77	C	1.019419	0.195444	0.710050
C78	C	1.519419	0.695444	1.210050
C79	C	1.131676	0.066751	0.710038
C80	C	1.631676	0.566751	1.210038
C81	C	1.131665	0.066748	0.605020
C82	C	1.631665	0.566748	1.105020
C83	C	1.075532	0.131095	0.552512
C84	C	1.575532	0.631095	1.052512
C85	C	1.019409	0.195445	0.605022
C86	C	1.519409	0.695445	1.105022
C87	C	1.187794	0.002406	0.552502
C88	C	1.687794	0.502406	1.052502
C89	C	1.187787	0.002401	0.447477
C90	C	1.687787	0.502401	0.947477
C91	C	1.131648	0.066744	0.394967
C92	C	1.631648	0.566744	0.894967
C93	C	1.075522	0.131096	0.447484
C94	C	1.575522	0.631096	0.947484
C95	C	1.019388	0.195443	0.394976
C96	C	1.519388	0.695443	0.894976
C97	C	0.963257	0.259791	0.447490
C98	C	1.463257	0.759791	0.947490
C99	C	0.963270	0.259789	0.552512
C100	C	1.463270	0.759789	1.052512
C101	C	1.131635	0.066747	0.289945
C102	C	1.631635	0.566747	0.789945
C103	C	1.019378	0.195444	0.289947
C104	C	1.519378	0.695444	0.789947
H105	H	0.348824	0.126580	-0.165025
H106	H	0.848824	0.626580	0.334975
C107	C	0.944622	-0.382365	-0.000008
C108	C	1.444622	0.117635	0.499992
N109	N	0.873385	-0.414182	-0.000005
N110	N	1.373385	0.085818	0.499995
C111	C	0.815678	0.135939	0.190985
C112	C	1.315678	0.635939	0.690985
N113	N	0.854691	0.136773	0.266341
N114	N	1.354691	0.636773	0.766341
C115	C	1.206422	-0.355429	0.000018
C116	C	1.706422	0.144571	0.500018
N117	N	1.277657	-0.323606	0.000046
N118	N	1.777657	0.176394	0.500046
C119	C	0.815724	0.135922	-0.191009
C120	C	1.315724	0.635922	0.308991
N121	N	0.854751	0.136709	-0.266368
N122	N	1.354751	0.636709	0.233632
H123	H	0.490100	0.129410	-0.255971
H124	H	0.990100	0.629410	0.244029
H125	H	0.348789	0.126555	0.165003
H126	H	0.848789	0.626555	0.665003
C127	C	1.249536	-0.068371	0.610266
C128	C	1.749536	0.431629	1.110266
N129	N	1.296040	-0.121685	0.653780
N130	N	1.796040	0.378315	1.153780
H131	H	0.660939	0.132774	0.255946
H132	H	1.160939	0.632774	0.755946
C133	C	0.957650	0.266257	0.232197
C134	C	1.457650	0.766257	0.732197
N135	N	0.911167	0.319603	0.188700
N136	N	1.411167	0.819603	0.688700
C137	C	0.901526	0.330560	0.610286
C138	C	1.401526	0.830560	1.110286
N139	N	0.855020	0.383864	0.653805
N140	N	1.355020	0.883864	1.153805
C141	C	1.193376	-0.004031	0.232184
C142	C	1.693376	0.495969	0.732184
N143	N	1.239881	-0.057346	0.188679
N144	N	1.739881	0.442654	0.688679
H145	H	0.917557	0.312187	0.404726
H146	H	1.417557	0.812187	0.904726
C147	C	0.476602	0.129106	0.281959
C148	C	0.976602	0.629106	0.781959
N149	N	0.437581	0.128338	0.357322
N150	N	0.937581	0.628338	0.857322
H151	H	0.973715	0.247833	0.752810
H152	H	1.473715	0.747833	1.252810
C153	C	0.674454	0.133099	-0.281959
C154	C	1.174454	0.633099	0.218041
N155	N	0.713490	0.133876	-0.357312
N156	N	1.213490	0.633876	0.142688
H157	H	1.177383	0.014366	0.752794
H158	H	1.677383	0.514366	1.252794
H159	H	1.233490	-0.049995	0.404726
H160	H	1.733490	0.450005	0.904726
