data_functionalizedCrystal
_audit_creation_method	'MofGen! by Chris Wilmer'
_symmetry_space_group_name_H-M	'P1'
_symmetry_Int_Tables_number	1
_symmetry_cell_setting	triclinic
loop_
_symmetry_equiv_pos_as_xyz
  x,y,z
_cell_length_a	8.965430
_cell_length_b	19.288864
_cell_length_c	19.288865
_cell_angle_alpha	83.136245
_cell_angle_beta	89.986918
_cell_angle_gamma	89.982938
loop_
_atom_site_label
_atom_site_type_symbol
_atom_site_fract_x
_atom_site_fract_y
_atom_site_fract_z
O1	O	0.124535	-0.921347	-0.086651
O2	O	0.124435	-0.719086	-0.098340
O3	O	0.124458	-0.826061	0.008635
O4	O	0.124511	-0.814372	-0.193626
O5	O	-0.123621	-0.826055	0.008645
O6	O	-0.123644	-0.719080	-0.098330
O7	O	-0.123544	-0.921341	-0.086641
Cu8	Cu	-0.146246	-0.820210	-0.092485
Cu9	Cu	0.147136	-0.820217	-0.092496
O10	O	-0.123567	-0.814366	-0.193616
C11	C	0.000382	-0.693207	-0.097959
C12	C	0.000343	-0.616103	-0.096830
C13	C	0.000414	-0.825682	0.034516
C14	C	0.000400	-0.824553	0.111620
N15	N	-0.352595	-0.820210	-0.092476
C16	C	-0.549255	-0.869304	-0.042623
C17	C	-0.449752	-0.883145	-0.105151
C18	C	-0.449890	-0.806400	-0.029953
C19	C	-0.549201	-0.834094	-0.155059
C20	C	-0.549347	-0.757322	-0.079820
C21	C	-0.449889	-0.771136	-0.142393
N22	N	0.353485	-0.820222	-0.092499
C23	C	0.000512	-0.947220	-0.087022
C24	C	0.000561	-1.024324	-0.088151
C25	C	0.000383	-0.571407	-0.159598
C26	C	0.000399	-0.498960	-0.158537
C27	C	0.000405	-0.471212	-0.094705
C28	C	0.000357	-0.515918	-0.031929
C29	C	0.000326	-0.588364	-0.032991
C30	C	0.087355	-0.362952	-0.044529
C31	C	0.087396	-0.290508	-0.043469
C32	C	0.000495	-0.247767	-0.091425
C33	C	-0.086427	-0.277477	-0.140453
C34	C	-0.086458	-0.349923	-0.141515
C35	C	0.000438	-0.392658	-0.093546
C36	C	0.000550	-0.124514	-0.153047
C37	C	0.000557	-0.052066	-0.151984
C38	C	0.000530	-0.069026	-0.025374
C39	C	0.000508	-0.141473	-0.026439
C40	C	0.000525	-0.169212	-0.090278
C41	C	0.000480	-0.814745	-0.219497
C42	C	0.000503	-0.815874	-0.296601
C43	C	0.000424	-0.887321	0.156316
C44	C	0.000447	-0.886260	0.228763
C45	C	0.000417	-0.822428	0.256511
C46	C	0.000401	-0.759652	0.211805
C47	C	0.000393	-0.760714	0.139359
C48	C	-0.086505	-0.772246	0.364802
C49	C	-0.086506	-0.771186	0.437246
C50	C	0.000448	-0.819148	0.479956
C51	C	0.087384	-0.868181	0.450215
C52	C	0.087376	-0.869244	0.377769
C53	C	0.000426	-0.821269	0.335065
C54	C	0.000499	-0.880770	0.603209
C55	C	0.000531	-0.879707	0.675657
C56	C	0.000471	-0.753097	0.658697
C57	C	0.000453	-0.754162	0.586250
C58	C	0.000461	-0.818000	0.558511
H59	H	-0.592882	-0.910844	-0.000501
C60	C	0.000438	-0.957538	0.125803
H61	H	0.000416	-0.949183	0.076255
H62	H	0.086955	-0.983381	0.141149
H63	H	-0.086077	-0.983365	0.141171
H64	H	-0.593126	-0.704150	-0.069081
C65	C	-0.182072	-0.382607	-0.195434
H66	H	-0.169632	-0.431873	-0.189199
H67	H	-0.284057	-0.371530	-0.189152
H68	H	-0.151492	-0.364588	-0.241220
H69	H	-0.406535	-0.729622	-0.184608
H70	H	-0.406263	-0.794714	0.022932
H71	H	0.000400	-0.593987	-0.211580
C72	C	0.000299	-0.637532	0.036057
H73	H	0.000313	-0.610633	0.074226
H74	H	-0.086217	-0.666130	0.038279
H75	H	0.086815	-0.666159	0.038267
H76	H	0.000472	-0.937375	0.265162
H77	H	0.000542	-0.147101	-0.205028
C78	C	0.000466	-0.449785	-0.227584
H79	H	0.000484	-0.476682	-0.265755
H80	H	-0.086023	-0.421146	-0.229805
H81	H	0.087009	-0.421198	-0.229793
C82	C	0.000364	-0.691668	0.090188
H83	H	0.000370	-0.701444	0.043069
H84	H	-0.086152	-0.665478	0.098588
H85	H	0.086880	-0.665491	0.098565
H86	H	-0.157192	-0.242678	-0.179503
C87	C	0.183013	-0.923169	0.345054
H88	H	0.234814	-0.951580	0.380862
H89	H	0.120371	-0.951627	0.320555
H90	H	0.252888	-0.899562	0.313570
H91	H	-0.406006	-0.936333	-0.115870
C92	C	-0.607875	-0.849970	-0.226515
H93	H	-0.713837	-0.849902	-0.226079
H94	H	-0.573059	-0.815308	-0.261947
H95	H	-0.572946	-0.894507	-0.235593
H96	H	0.158192	-0.907236	0.484988
C97	C	0.000524	-0.950988	0.572692
H98	H	0.000563	-0.988220	0.609691
H99	H	-0.085991	-0.954033	0.544797
H100	H	0.087041	-0.954035	0.544771
H101	H	0.000559	-0.930822	0.712049
H102	H	0.000581	-0.015674	-0.203099
H103	H	0.000627	-0.046435	0.026600
H104	H	0.000483	-0.177866	0.024674
C105	C	0.182998	-0.257832	0.010460
H106	H	0.234725	-0.293663	0.038878
H107	H	0.252910	-0.226371	-0.013135
H108	H	0.120323	-0.233315	0.038921
C109	C	0.000373	-0.689436	0.242321
H110	H	0.000371	-0.652204	0.205322
H111	H	-0.086133	-0.686384	0.270240
H112	H	0.086899	-0.686397	0.270217
C113	C	0.182966	-0.409960	0.008221
H114	H	0.234756	-0.381891	0.037562
H115	H	0.120304	-0.441968	0.035858
H116	H	0.252848	-0.435015	-0.016221
C117	C	0.000372	-0.485399	0.038285
H118	H	0.000413	-0.435851	0.029928
H119	H	-0.086148	-0.500733	0.064126
H120	H	0.086884	-0.500777	0.064114
H121	H	0.000453	-0.701123	0.681288
H122	H	0.000426	-0.703049	0.549857
H123	H	-0.157286	-0.731257	0.461455
C124	C	-0.182162	-0.719488	0.317824
H125	H	-0.169708	-0.727138	0.270418
H126	H	-0.284144	-0.725417	0.330528
H127	H	-0.151620	-0.673356	0.323536
