data_functionalizedCrystal
_audit_creation_method	'MofGen! by Chris Wilmer'
_symmetry_space_group_name_H-M	'P1'
_symmetry_Int_Tables_number	1
_symmetry_cell_setting	triclinic
loop_
_symmetry_equiv_pos_as_xyz
  x,y,z
_cell_length_a	12.645331
_cell_length_b	12.645330
_cell_length_c	17.077396
_cell_angle_alpha	89.972961
_cell_angle_beta	89.982468
_cell_angle_gamma	90.011625
loop_
_atom_site_label
_atom_site_type_symbol
_atom_site_fract_x
_atom_site_fract_y
_atom_site_fract_z
Zn1	Zn	1.620715	-0.422059	-0.443861
Zn2	Zn	2.120715	0.077941	0.056139
Zn3	Zn	1.620628	-0.599348	-0.312600
Zn4	Zn	2.120628	-0.099348	0.187400
Zn5	Zn	1.443445	-0.422095	-0.312608
Zn6	Zn	1.943445	0.077905	0.187392
Zn7	Zn	1.443427	-0.599278	-0.443823
Zn8	Zn	1.943427	-0.099278	0.056177
O9	O	1.532054	-0.510695	-0.378223
O10	O	2.032054	-0.010695	0.121777
O11	O	1.769050	-0.445591	-0.426462
O12	O	2.269050	0.054409	0.073538
O13	O	1.597096	-0.575879	-0.202754
O14	O	2.097096	-0.075879	0.297246
O15	O	1.467004	-0.273743	-0.330039
O16	O	1.967004	0.226257	0.169961
O17	O	1.768987	-0.575844	-0.330025
O18	O	2.268987	-0.075844	0.169975
O19	O	1.597244	-0.273717	-0.426469
O20	O	2.097244	0.226283	0.073531
O21	O	1.466920	-0.445652	-0.202760
O22	O	1.966920	0.054348	0.297240
O23	O	1.295095	-0.445585	-0.330002
O24	O	1.795095	0.054415	0.169998
O25	O	1.466973	-0.575726	-0.553675
O26	O	1.966973	-0.075726	-0.053675
O27	O	1.295082	-0.575761	-0.426405
O28	O	1.795082	-0.075761	0.073595
O29	O	1.597226	-0.445524	-0.553703
O30	O	2.097226	0.054476	-0.053703
O31	O	1.597078	-0.747686	-0.329988
O32	O	2.097078	-0.247686	0.170012
O33	O	1.466889	-0.747635	-0.426397
O34	O	1.966889	-0.247635	0.073603
C35	C	1.256624	-0.510670	-0.378201
C36	C	1.756624	-0.010670	0.121799
C37	C	1.138794	-0.510685	-0.378210
C38	C	1.638794	-0.010685	0.121790
C39	C	1.532000	-0.786125	-0.378205
C40	C	2.032000	-0.286125	0.121795
C41	C	1.532075	-0.903955	-0.378223
C42	C	2.032075	-0.403955	0.121777
C43	C	0.971203	-0.428415	-0.317897
C44	C	1.471203	0.071585	0.182103
C45	C	1.093763	-0.428628	-0.317631
C46	C	1.593763	0.071372	0.182369
C47	C	1.094286	-0.622359	-0.355611
C48	C	1.594286	-0.122359	0.144389
C49	C	0.971688	-0.621909	-0.355200
C50	C	1.471688	-0.121909	0.144800
C51	C	0.971632	-0.482344	-0.461353
C52	C	1.471632	0.017656	0.038647
C53	C	1.094237	-0.479849	-0.460892
C54	C	1.594237	0.020151	0.039108
C55	C	1.613845	-1.071507	-0.317449
C56	C	2.113845	-0.571507	0.182551
C57	C	1.614111	-0.948946	-0.317598
C58	C	2.114111	-0.448946	0.182402
C59	C	1.562365	-0.948338	-0.460967
C60	C	2.062365	-0.448338	0.039033
C61	C	1.563014	-1.070936	-0.460644
C62	C	2.063014	-0.570936	0.039356
C63	C	1.419982	-1.071280	-0.357069
C64	C	1.919982	-0.571280	0.142931
C65	C	1.420519	-0.948676	-0.355213
C66	C	1.920519	-0.448676	0.144787
C67	C	1.808559	-0.510721	-0.378247
C68	C	2.308559	-0.010721	0.121753
C69	C	1.926389	-0.510732	-0.378256
C70	C	2.426389	-0.010732	0.121744
C71	C	1.532107	-0.510613	-0.582968
C72	C	2.032107	-0.010613	-0.082968
C73	C	1.532129	-0.510578	-0.670218
C74	C	2.032129	-0.010578	-0.170218
C75	C	1.532136	-0.234190	-0.378259
C76	C	2.032136	0.265810	0.121741
C77	C	1.532171	-0.116360	-0.378274
C78	C	2.032171	0.383640	0.121726
C79	C	1.464368	-0.442761	-0.711210
C80	C	1.964368	0.057239	-0.211210
C81	C	1.464385	-0.442737	-0.793191
C82	C	1.964385	0.057263	-0.293191
C83	C	1.532170	-0.510525	-0.834177
C84	C	2.032170	-0.010525	-0.334177
C85	C	1.599935	-0.578350	-0.793179
C86	C	2.099935	-0.078350	-0.293179
C87	C	1.599911	-0.578378	-0.711200
C88	C	2.099911	-0.078378	-0.211200
C89	C	1.599981	-0.578284	-0.964049
C90	C	2.099981	-0.078284	-0.464049
C91	C	1.600006	-0.578254	-1.046033
C92	C	2.100006	-0.078254	-0.546033
C93	C	1.464454	-0.442642	-1.046040
C94	C	1.964454	0.057358	-0.546040
C95	C	1.464431	-0.442671	-0.964061
C96	C	1.964431	0.057329	-0.464061
C97	C	1.532197	-0.510494	-0.923068
C98	C	2.032197	-0.010494	-0.423068
C99	C	1.532061	-0.510700	-0.174275
C100	C	2.032061	-0.010700	0.325725
C101	C	1.532244	-0.510437	-0.087026
C102	C	2.032244	-0.010437	0.412974
H103	H	1.123854	-0.345817	-0.331796
H104	H	1.623854	0.154183	0.168204
O105	O	1.589018	-0.909206	-0.236326
O106	O	2.089018	-0.409206	0.263674
H107	H	1.516157	-0.860344	-0.238245
H108	H	2.016157	-0.360344	0.261755
O109	O	1.671639	-1.108707	-0.484433
O110	O	2.171639	-0.608707	0.015567
H111	H	1.665265	-1.157522	-0.538225
H112	H	2.165265	-0.657522	-0.038225
O113	O	1.669959	-0.908107	-0.485178
O114	O	2.169959	-0.408107	0.014822
H115	H	1.662758	-0.862399	-0.540422
H116	H	2.162758	-0.362399	-0.040422
O117	O	1.132780	-0.370996	-0.483469
O118	O	1.632780	0.129004	0.016531
H119	H	1.100948	-0.349787	-0.541967
H120	H	1.600948	0.150213	-0.041967
O121	O	1.134838	-0.553492	-0.523642
O122	O	1.634838	-0.053492	-0.023642
H123	H	1.179607	-0.507356	-0.567927
H124	H	1.679607	-0.007356	-0.067927
H125	H	1.595132	-1.101059	-0.255916
H126	H	2.095132	-0.601059	0.244084
H127	H	0.941730	-0.345355	-0.331910
H128	H	1.441730	0.154645	0.168090
H129	H	0.942653	-0.542300	-0.506327
H130	H	1.442653	-0.042300	-0.006327
O131	O	1.723332	-1.112190	-0.335820
O132	O	2.223332	-0.612190	0.164180
H133	H	1.719831	-1.164215	-0.388085
H134	H	2.219831	-0.664215	0.111915
O135	O	1.724178	-0.909988	-0.336180
O136	O	2.224178	-0.409988	0.163820
H137	H	1.724756	-0.822215	-0.336343
H138	H	2.224756	-0.322215	0.163657
H139	H	1.409278	-0.387417	-1.079420
H140	H	1.909278	0.112583	-0.579420
O141	O	1.487652	-1.110247	-0.522728
O142	O	1.987652	-0.610247	-0.022728
H143	H	1.450913	-1.041688	-0.552852
H144	H	1.950913	-0.541688	-0.052852
O145	O	0.930389	-0.453002	-0.236801
O146	O	1.430389	0.046998	0.263199
H147	H	0.878323	-0.523594	-0.239298
H148	H	1.378323	-0.023594	0.260702
H149	H	1.655098	-0.633594	-0.677824
H150	H	2.155098	-0.133594	-0.177824
H151	H	1.504688	-0.919191	-0.507501
H152	H	2.004688	-0.419191	-0.007501
H153	H	1.123050	-0.447391	-0.256053
H154	H	1.623050	0.052609	0.243947
O155	O	1.132923	-0.705777	-0.412014
O156	O	1.632923	-0.205777	0.087986
H157	H	1.100352	-0.783901	-0.394752
H158	H	1.600352	-0.283901	0.105248
O159	O	0.932400	-0.705896	-0.410890
O160	O	1.432400	-0.205896	0.089110
H161	H	0.961850	-0.688692	-0.470791
H162	H	1.461850	-0.188692	0.029209
O163	O	1.383491	-1.112332	-0.278532
O164	O	1.883491	-0.612332	0.221468
H165	H	1.444918	-1.165331	-0.253735
H166	H	1.944918	-0.665331	0.246265
H167	H	1.397680	-0.919679	-0.294320
H168	H	1.897680	-0.419679	0.205680
H169	H	0.943051	-0.645984	-0.294451
H170	H	1.443051	-0.145984	0.205549
H171	H	1.124951	-0.646847	-0.295515
H172	H	1.624951	-0.146847	0.204485
O173	O	1.335552	-0.908125	-0.409586
O174	O	1.835552	-0.408125	0.090414
H175	H	1.371669	-0.855235	-0.454061
H176	H	1.871669	-0.355235	0.045939
H177	H	1.359128	-1.100287	-0.401370
H178	H	1.859128	-0.600287	0.098630
O179	O	1.673111	-0.651376	-1.090239
O180	O	2.173111	-0.151376	-0.590239
H181	H	1.661748	-0.639950	-1.154130
H182	H	2.161748	-0.139950	-0.654130
O183	O	0.930708	-0.376357	-0.488581
O184	O	1.430708	0.123643	0.011419
H185	H	0.877658	-0.342729	-0.443184
H186	H	1.377658	0.157271	0.056816
H187	H	1.409175	-0.387554	-0.677845
H188	H	1.909175	0.112446	-0.177845
H189	H	1.409203	-0.387518	-0.826563
H190	H	1.909203	0.112482	-0.326563
O191	O	1.391337	-0.369544	-0.919849
O192	O	1.891337	0.130456	-0.419849
H193	H	1.344216	-0.322380	-0.962124
H194	H	1.844216	0.177620	-0.462124
H195	H	1.655173	-0.633503	-0.930675
H196	H	2.155173	-0.133503	-0.430675
O197	O	1.673047	-0.651472	-0.837377
O198	O	2.173047	-0.151472	-0.337377
H199	H	1.727017	-0.604020	-0.874732
H200	H	2.227017	-0.104020	-0.374732
