data_functionalizedCrystal
_audit_creation_method	'MofGen! by Chris Wilmer'
_symmetry_space_group_name_H-M	'P1'
_symmetry_Int_Tables_number	1
_symmetry_cell_setting	triclinic
loop_
_symmetry_equiv_pos_as_xyz
  x,y,z
_cell_length_a	12.645331
_cell_length_b	18.101397
_cell_length_c	18.101390
_cell_angle_alpha	90.032757
_cell_angle_beta	90.017643
_cell_angle_gamma	90.018745
loop_
_atom_site_label
_atom_site_type_symbol
_atom_site_fract_x
_atom_site_fract_y
_atom_site_fract_z
Zn1	Zn	1.620663	-0.294822	0.418738
Zn2	Zn	1.620554	-0.418679	0.294896
Zn3	Zn	1.443393	-0.294854	0.294910
Zn4	Zn	1.443353	-0.418624	0.418696
O5	O	1.531991	-0.356745	0.356810
O6	O	1.768996	-0.311262	0.402322
O7	O	1.597025	-0.402289	0.191265
O8	O	1.466971	-0.191217	0.311359
O9	O	1.768916	-0.402259	0.311336
O10	O	1.597211	-0.191193	0.402335
O11	O	1.466865	-0.311315	0.191275
O12	O	1.295041	-0.311262	0.311319
O13	O	1.466903	-0.402165	0.522334
O14	O	1.295011	-0.402196	0.402264
O15	O	1.597172	-0.311209	0.522365
O16	O	1.596986	-0.522305	0.311295
O17	O	1.466797	-0.522264	0.402251
C18	C	1.256561	-0.356727	0.356789
C19	C	1.138731	-0.356737	0.356797
C20	C	0.971150	-0.299268	0.299899
C21	C	1.093710	-0.299417	0.299648
C22	C	1.094210	-0.434752	0.335473
C23	C	0.971611	-0.434438	0.335085
C24	C	0.971573	-0.336935	0.435238
C25	C	1.094179	-0.335192	0.434803
C26	C	1.531904	-0.549155	0.356783
C27	C	1.531963	-0.631469	0.356796
C28	C	1.532028	-0.782178	0.356822
C29	C	1.614020	-0.813526	0.299651
C30	C	1.613816	-0.899144	0.299440
C31	C	1.532093	-0.930560	0.356846
C32	C	1.420293	-0.899544	0.335839
C33	C	1.420730	-0.813899	0.335410
C34	C	1.560872	-0.813666	0.435149
C35	C	1.563375	-0.899316	0.434746
C36	C	1.532123	-1.014420	0.356862
C37	C	1.531990	-0.698318	0.356805
C38	C	1.808496	-0.356763	0.356832
C39	C	1.926326	-0.356771	0.356841
C40	C	1.532045	-0.356677	0.549972
C41	C	1.532068	-0.356649	0.632286
C42	C	1.532108	-0.163583	0.356853
C43	C	1.532157	-0.081269	0.356872
C44	C	1.531998	-0.356758	0.164399
C45	C	1.532181	-0.356578	0.082086
C46	C	1.532106	-0.356626	0.782995
C47	C	1.614070	-0.299393	0.814368
C48	C	1.614413	-0.299548	0.899986
C49	C	1.532143	-0.356602	0.931377
C50	C	1.562048	-0.434713	0.900267
C51	C	1.562621	-0.434396	0.814622
C52	C	1.420037	-0.336424	0.814552
C53	C	1.420660	-0.334688	0.900203
C54	C	1.532162	-0.356593	1.015237
C55	C	1.532089	-0.356640	0.699135
H56	H	0.941959	-0.478733	0.374750
C57	C	1.133491	-0.257633	0.456524
C58	C	1.252917	-0.242340	0.463186
C59	C	1.292235	-0.164779	0.484902
C60	C	1.212127	-0.102511	0.499956
C61	C	1.092694	-0.117803	0.493295
C62	C	1.053376	-0.195363	0.471579
H63	H	1.312224	-0.288435	0.452042
H64	H	1.380648	-0.153460	0.489834
H65	H	1.241233	-0.045096	0.516032
H66	H	1.033387	-0.071707	0.504439
H67	H	0.964963	-0.206682	0.466647
H68	H	0.941688	-0.241243	0.313122
H69	H	0.942587	-0.378817	0.477665
H70	H	1.595727	-0.241638	0.921023
C71	C	1.337537	-0.392725	0.787133
C72	C	1.371621	-0.456717	0.736365
C73	C	1.289131	-0.513020	0.708941
C74	C	1.172557	-0.505331	0.732285
C75	C	1.138468	-0.441337	0.783056
C76	C	1.220958	-0.385034	0.810480
H77	H	1.457921	-0.462412	0.719082
H78	H	1.314367	-0.560393	0.671357
H79	H	1.111494	-0.547010	0.711985
H80	H	1.052168	-0.435642	0.800340
H81	H	1.195722	-0.337661	0.848064
C82	C	1.386769	-0.928591	0.259354
C83	C	1.460634	-0.980412	0.215895
C84	C	1.427117	-1.009457	0.139408
C85	C	1.319735	-0.986681	0.106381
C86	C	1.245863	-0.934857	0.149840
C87	C	1.279380	-0.905812	0.226327
H88	H	1.540131	-0.997275	0.240344
H89	H	1.481802	-1.047821	0.107237
H90	H	1.294923	-1.008182	0.049761
H91	H	1.166366	-0.917994	0.125392
H92	H	1.224695	-0.867448	0.258498
C93	C	1.133609	-0.494184	0.389736
C94	C	1.253009	-0.508408	0.398520
C95	C	1.292411	-0.567839	0.452784
C96	C	1.212413	-0.613044	0.498263
C97	C	1.093006	-0.598821	0.489480
C98	C	1.053603	-0.539391	0.435217
H99	H	1.312235	-0.474944	0.364852
H100	H	1.380805	-0.578367	0.459285
H101	H	1.241581	-0.657038	0.538432
H102	H	1.033780	-0.632286	0.523148
H103	H	0.965210	-0.528862	0.428715
C104	C	1.383142	-0.260789	0.785402
C105	C	1.275090	-0.229539	0.809093
C106	C	1.238210	-0.153901	0.779943
C107	C	1.309381	-0.109513	0.727102
C108	C	1.417440	-0.140762	0.703408
C109	C	1.454320	-0.216400	0.732558
H110	H	1.222399	-0.262398	0.848212
H111	H	1.158217	-0.130768	0.797483
H112	H	1.282080	-0.053521	0.705523
H113	H	1.470131	-0.107902	0.664290
H114	H	1.534313	-0.239532	0.715018
C115	C	1.674508	-0.926721	0.456157
C116	C	1.770259	-0.907518	0.407248
C117	C	1.881386	-0.934941	0.428656
C118	C	1.896761	-0.981566	0.498973
C119	C	1.801007	-1.000771	0.547886
C120	C	1.689880	-0.973348	0.526478
H121	H	1.758880	-0.873002	0.355191
H122	H	1.952269	-0.920724	0.392447
H123	H	1.979024	-1.001866	0.514821
H124	H	1.812386	-1.035288	0.599943
H125	H	1.618997	-0.987565	0.562687
C126	C	1.134385	-0.221263	0.317695
C127	C	1.055313	-0.158279	0.332437
C128	C	1.095981	-0.080121	0.350479
C129	C	1.215723	-0.064947	0.353780
C130	C	1.294803	-0.127933	0.339038
C131	C	1.254134	-0.206091	0.320995
H132	H	0.966666	-0.169510	0.329994
H133	H	1.037440	-0.033495	0.361392
H134	H	1.245828	-0.007090	0.367136
H135	H	1.383450	-0.116701	0.341481
H136	H	1.312676	-0.252716	0.310082
C137	C	1.485485	-0.493991	0.786547
C138	C	1.367506	-0.489975	0.807217
C139	C	1.290391	-0.549574	0.779132
C140	C	1.331255	-0.613190	0.730379
C141	C	1.449241	-0.617208	0.709706
C142	C	1.526356	-0.557609	0.737790
H143	H	1.337250	-0.442880	0.843309
H144	H	1.203050	-0.546599	0.794436
H145	H	1.274170	-0.657309	0.709589
H146	H	1.479497	-0.664303	0.673613
H147	H	1.613696	-0.560584	0.722487
H148	H	1.696708	-0.920112	0.312562
C149	C	1.135618	-0.457870	0.258876
C150	C	1.209770	-0.406101	0.215613
C151	C	1.251175	-0.429214	0.139014
C152	C	1.218429	-0.504095	0.105679
C153	C	1.144273	-0.555869	0.148944
C154	C	1.102868	-0.532756	0.225542
H155	H	1.234014	-0.350665	0.240289
H156	H	1.306071	-0.390887	0.106987
H157	H	1.249080	-0.521205	0.048977
H158	H	1.120029	-0.611305	0.124268
H159	H	1.047972	-0.571083	0.257569
C160	C	1.726331	-0.785637	0.317159
C161	C	1.744974	-0.734056	0.383582
C162	C	1.857288	-0.706162	0.401092
C163	C	1.950960	-0.729849	0.352178
C164	C	1.932321	-0.781433	0.285751
C165	C	1.820006	-0.809327	0.268241
H166	H	1.675630	-0.716519	0.419794
H167	H	1.871086	-0.667976	0.450266
H168	H	2.034102	-0.709200	0.365140
H169	H	2.001665	-0.798970	0.249539
H170	H	1.806208	-0.847513	0.219067
C171	C	1.673277	-0.457469	0.787637
C172	C	1.696708	-0.461951	0.704278
C173	C	1.807368	-0.485020	0.677297
C174	C	1.894598	-0.503606	0.733677
C175	C	1.871170	-0.499125	0.817042
C176	C	1.760510	-0.476056	0.844022
H177	H	1.632132	-0.448192	0.662537
H178	H	1.824710	-0.488337	0.615585
H179	H	1.976516	-0.520683	0.713705
H180	H	1.935745	-0.512884	0.858783
H181	H	1.743167	-0.472738	0.905735
C182	C	1.488606	-0.928179	0.495353
C183	C	1.479349	-1.011785	0.509654
C184	C	1.404553	-1.040640	0.570253
C185	C	1.339015	-0.985890	0.616551
C186	C	1.348270	-0.902279	0.602252
C187	C	1.423065	-0.873423	0.541653
H188	H	1.527866	-1.052319	0.475380
H189	H	1.397703	-1.102535	0.580838
H190	H	1.283647	-1.007251	0.661410
H191	H	1.299753	-0.861745	0.636526
H192	H	1.429916	-0.811529	0.531068
C193	C	1.589154	-0.220933	0.786524
C194	C	1.671615	-0.178337	0.740673
C195	C	1.646702	-0.099883	0.712800
C196	C	1.539328	-0.064025	0.730777
C197	C	1.456860	-0.106620	0.776630
C198	C	1.481773	-0.185075	0.804503
H199	H	1.751106	-0.204882	0.727363
H200	H	1.707751	-0.068351	0.678856
H201	H	1.520886	-0.005948	0.710144
H202	H	1.377369	-0.080076	0.789940
H203	H	1.420725	-0.216607	0.838447
H204	H	0.940677	-0.281039	0.454630
C205	C	1.588509	-0.784540	0.221688
C206	C	1.493634	-0.732580	0.209762
C207	C	1.468118	-0.703596	0.131800
C208	C	1.537476	-0.726572	0.065764
C209	C	1.632358	-0.778535	0.077687
C210	C	1.657874	-0.807519	0.155649
H211	H	1.442285	-0.715570	0.258648
H212	H	1.397880	-0.665130	0.122974
H213	H	1.518587	-0.705116	0.008051
H214	H	1.683706	-0.795546	0.028801
H215	H	1.728112	-0.845985	0.164476
C216	C	1.725621	-0.317267	0.785313
C217	C	1.747455	-0.317124	0.701624
C218	C	1.859003	-0.335003	0.672569
C219	C	1.948718	-0.353024	0.727204
C220	C	1.926886	-0.353168	0.810898
C221	C	1.815337	-0.335289	0.839953
H222	H	1.681041	-0.303783	0.661176
H223	H	1.875164	-0.334897	0.610613
H224	H	2.031292	-0.366259	0.705696
H225	H	1.993300	-0.366509	0.851346
H226	H	1.799177	-0.335395	0.901909
H227	H	1.396323	-0.793982	0.278160
H228	H	1.124829	-0.374019	0.479499
H229	H	0.940309	-0.312233	0.242145
C230	C	1.390173	-0.257036	0.927686
C231	C	1.289556	-0.246237	0.974356
C232	C	1.259074	-0.168586	1.001849
C233	C	1.329209	-0.101734	0.982672
C234	C	1.429832	-0.112531	0.935998
C235	C	1.460315	-0.190182	0.908505
H236	H	1.237633	-0.295726	0.988555
H237	H	1.184585	-0.160593	1.036400
H238	H	1.306644	-0.044252	1.003023
H239	H	1.481756	-0.063042	0.921800
H240	H	1.534803	-0.198174	0.873955
C241	C	1.726614	-0.317631	0.927673
C242	C	1.745470	-0.386197	0.976238
C243	C	1.857678	-0.404281	1.003919
C244	C	1.951031	-0.353799	0.983036
C245	C	1.932177	-0.285229	0.934468
C246	C	1.819969	-0.267145	0.906787
H247	H	1.676362	-0.423570	0.991699
H248	H	1.871634	-0.455042	1.039872
H249	H	2.034094	-0.367186	1.003527
H250	H	2.001285	-0.247855	0.919007
H251	H	1.806013	-0.216384	0.870834
C252	C	1.483891	-0.493891	0.927730
C253	C	1.418439	-0.538877	0.871795
C254	C	1.340280	-0.598053	0.899260
C255	C	1.327573	-0.612243	0.982659
C256	C	1.393028	-0.567256	1.038599
C257	C	1.471187	-0.508080	1.011135
H258	H	1.427843	-0.528374	0.810053
H259	H	1.291827	-0.631356	0.857849
H260	H	1.269716	-0.656049	1.002990
H261	H	1.383623	-0.577759	1.100341
H262	H	1.519640	-0.474778	1.052546
H263	H	1.640988	-0.792011	0.454296
H264	H	1.643053	-0.452100	0.921740
H265	H	1.122995	-0.312527	0.241553
H266	H	0.942972	-0.451259	0.277772
H267	H	1.594720	-0.919690	0.241410
H268	H	1.357556	-0.919895	0.376207
H269	H	1.357545	-0.793164	0.375251
H270	H	1.501160	-0.793388	0.477744
H271	H	1.356366	-0.373307	0.921569
