data_functionalizedCrystal
_audit_creation_method	'MofGen! by Chris Wilmer'
_symmetry_space_group_name_H-M	'P1'
_symmetry_Int_Tables_number	1
_symmetry_cell_setting	triclinic
loop_
_symmetry_equiv_pos_as_xyz
  x,y,z
_cell_length_a	13.033286
_cell_length_b	14.908520
_cell_length_c	13.034356
_cell_angle_alpha	86.484238
_cell_angle_beta	89.095384
_cell_angle_gamma	85.722915
loop_
_atom_site_label
_atom_site_type_symbol
_atom_site_fract_x
_atom_site_fract_y
_atom_site_fract_z
Zn1	Zn	1.617765	-0.490506	-0.417737
Zn2	Zn	1.586316	-0.655460	-0.258005
Zn3	Zn	1.424222	-0.485844	-0.267325
Zn4	Zn	1.438428	-0.618247	-0.449044
O5	O	1.516683	-0.562514	-0.348028
O6	O	1.756484	-0.529913	-0.379546
O7	O	1.545707	-0.646583	-0.116343
O8	O	1.457112	-0.362018	-0.278075
O9	O	1.733378	-0.651104	-0.262192
O10	O	1.599308	-0.365443	-0.388583
O11	O	1.426617	-0.521967	-0.123190
O12	O	1.283216	-0.485882	-0.308432
O13	O	1.481324	-0.587678	-0.587789
O14	O	1.293653	-0.583158	-0.441940
O15	O	1.613083	-0.493828	-0.564788
O16	O	1.559482	-0.774969	-0.292549
O17	O	1.450829	-0.747628	-0.432904
C18	C	1.251385	-0.529977	-0.379595
C19	C	1.137891	-0.516076	-0.393126
C20	C	1.075852	-0.569767	-0.340991
C21	C	0.958550	-0.555401	-0.354975
C22	C	1.503315	-0.793567	-0.365131
C23	C	1.497694	-0.892420	-0.372471
C24	C	1.600420	-1.106591	-0.240202
C25	C	1.595142	-1.199474	-0.247095
C26	C	1.481865	-1.171069	-0.393154
C27	C	1.487144	-1.078187	-0.386261
C28	C	1.546422	-1.045952	-0.309781
C29	C	1.551694	-0.953067	-0.302885
C30	C	1.438424	-0.924665	-0.448948
C31	C	1.433145	-1.017547	-0.455841
C32	C	1.783016	-0.595180	-0.316337
C33	C	1.896512	-0.609100	-0.302833
C34	C	1.552296	-0.537122	-0.614377
C35	C	1.567472	-0.526302	-0.727879
C36	C	1.530133	-0.330561	-0.330876
C37	C	1.535865	-0.231716	-0.323567
C38	C	1.524729	-0.556734	-0.907174
C39	C	1.509041	-0.567918	-0.789864
C40	C	1.481270	-0.587751	-0.082703
C41	C	1.466306	-0.598345	0.030840
H42	H	1.109580	-0.626372	-0.286009
Br43	Br	0.902352	-0.461059	-0.446639
H44	H	1.104163	-0.459476	-0.448116
H45	H	1.599958	-0.926823	-0.240609
H46	H	1.648679	-1.080345	-0.177923
Br47	Br	0.952709	-0.703456	-0.211186
Br48	Br	1.401443	-1.214834	-0.496954
Br49	Br	1.668434	-1.281770	-0.152666
H50	H	1.384886	-1.043806	-0.518110
Br51	Br	1.406315	-0.641108	-0.733578
Br52	Br	1.365115	-0.842361	-0.543368
Br53	Br	1.363584	-0.671532	-0.912869
H54	H	1.586366	-0.512835	-0.940953
H55	H	1.629112	-0.482397	-0.761652
