data_functionalizedCrystal
_audit_creation_method	'MofGen! by Chris Wilmer'
_symmetry_space_group_name_H-M	'P1'
_symmetry_Int_Tables_number	1
_symmetry_cell_setting	triclinic
loop_
_symmetry_equiv_pos_as_xyz
  x,y,z
_cell_length_a	8.597267
_cell_length_b	8.559649
_cell_length_c	12.996460
_cell_angle_alpha	90.005498
_cell_angle_beta	97.697429
_cell_angle_gamma	102.376255
loop_
_atom_site_label
_atom_site_type_symbol
_atom_site_fract_x
_atom_site_fract_y
_atom_site_fract_z
O1	O	0.053140	2.119302	0.090262
O2	O	-0.027760	1.655359	0.083094
O3	O	0.242256	1.896468	0.107027
O4	O	-0.216877	1.878193	0.066328
O5	O	0.242267	1.896443	-0.064106
O6	O	-0.027750	1.655333	-0.088039
O7	O	0.053150	2.119276	-0.080871
Cu8	Cu	0.012701	1.887302	-0.100081
Cu9	Cu	0.012689	1.887333	0.102303
O10	O	-0.216867	1.878167	-0.104805
C11	C	-0.033886	1.595912	-0.003016
C12	C	-0.052135	1.418816	-0.004632
C13	C	0.300497	1.894496	0.026625
C14	C	0.474016	1.888639	0.042013
C15	C	0.724894	1.880143	-0.024401
C16	C	0.551378	1.886012	-0.039783
C17	C	0.059276	2.178723	0.005240
C18	C	0.077525	2.355819	0.006863
N19	N	0.012712	1.887293	-0.242427
C20	C	0.012687	1.887331	-0.662244
C21	C	0.012688	1.887315	-0.545438
C22	C	0.012698	1.887312	-0.452339
C23	C	0.012702	1.887296	-0.335526
N24	N	0.012692	1.887355	0.244651
H25	H	0.202494	1.437367	0.017946
Cl26	Cl	0.576707	1.885199	0.168307
Cl27	Cl	0.448687	1.889477	-0.166083
Cl28	Cl	-0.245094	1.292908	-0.021726
