data_functionalizedCrystal
_audit_creation_method	'MofGen! by Chris Wilmer'
_symmetry_space_group_name_H-M	'P1'
_symmetry_Int_Tables_number	1
_symmetry_cell_setting	triclinic
loop_
_symmetry_equiv_pos_as_xyz
  x,y,z
_cell_length_a	18.050590
_cell_length_b	18.050591
_cell_length_c	18.050582
_cell_angle_alpha	90.011103
_cell_angle_beta	89.976663
_cell_angle_gamma	89.981552
loop_
_atom_site_label
_atom_site_type_symbol
_atom_site_fract_x
_atom_site_fract_y
_atom_site_fract_z
Zn1	Zn	-0.295709	-1.135342	-0.419833
Zn2	Zn	-0.419892	-1.135274	-0.295641
Zn3	Zn	-0.295720	-1.011162	-0.295665
Zn4	Zn	-0.419861	-1.011131	-0.419798
O5	O	-0.357795	-1.073227	-0.357734
O6	O	-0.312190	-1.239258	-0.403363
O7	O	-0.403438	-1.118795	-0.191720
O8	O	-0.191794	-1.027676	-0.312161
O9	O	-0.403427	-1.239208	-0.312120
O10	O	-0.191786	-1.118911	-0.403387
O11	O	-0.312209	-1.027610	-0.191737
O12	O	-0.312180	-0.907233	-0.312127
O13	O	-0.403374	-1.027623	-0.523727
O14	O	-0.403385	-0.907210	-0.403327
O15	O	-0.312160	-1.118881	-0.523753
O16	O	-0.523813	-1.118765	-0.312086
O17	O	-0.523790	-1.027557	-0.403304
C18	C	-0.357781	-0.880275	-0.357726
C19	C	-0.357793	-0.797729	-0.357741
C20	C	-0.407498	-0.548913	-0.407265
C21	C	-0.425568	-0.598286	-0.339479
C22	C	-0.357821	-0.500609	-0.357736
C23	C	-0.339772	-0.598317	-0.425520
C24	C	-0.357809	-0.646594	-0.357742
C25	C	-0.375927	-0.548895	-0.289915
C26	C	-0.290100	-0.548922	-0.376001
C27	C	-0.308144	-0.598273	-0.308169
C28	C	-0.357830	-0.416511	-0.357734
C29	C	-0.357800	-0.730690	-0.357737
C30	C	-0.550748	-1.073170	-0.357705
C31	C	-0.633293	-1.073214	-0.357717
C32	C	-0.832729	-1.122915	-0.308182
C33	C	-0.882068	-1.141051	-0.375961
C34	C	-0.784424	-1.073256	-0.357747
C35	C	-0.882167	-1.055196	-0.289998
C36	C	-0.930409	-1.073298	-0.357769
C37	C	-0.832675	-1.091426	-0.425561
C38	C	-0.832770	-1.005539	-0.339552
C39	C	-0.882086	-1.023649	-0.407378
C40	C	-0.700325	-1.073233	-0.357733
C41	C	-1.014505	-1.073320	-0.357791
C42	C	-0.164090	-1.073305	-0.357780
C43	C	-0.081544	-1.073338	-0.357800
C44	C	-0.357763	-1.073256	-0.551440
C45	C	-0.357749	-1.073269	-0.633986
C46	C	-0.357815	-0.266933	-0.357740
C47	C	-0.357836	-0.349478	-0.357737
C48	C	-0.407283	-1.023681	-0.833423
C49	C	-0.425437	-1.091439	-0.882809
C50	C	-0.357692	-1.073305	-0.785116
C51	C	-0.339518	-1.005584	-0.882812
C52	C	-0.357638	-1.073335	-0.931102
C53	C	-0.375881	-1.141099	-0.833416
C54	C	-0.289930	-1.055199	-0.833414
C55	C	-0.308058	-1.123004	-0.882778
C56	C	-0.357724	-1.073287	-0.701018
C57	C	-0.357606	-1.073360	-1.015198
C58	C	-0.357775	-1.073241	-0.164782
C59	C	-0.357580	-1.073372	-0.082237
H60	H	-0.324511	-0.620027	-0.482842
H61	H	-0.391257	-0.527277	-0.232578
H62	H	-0.811057	-1.164925	-0.266310
H63	H	-0.482833	-0.619969	-0.324027
H64	H	-0.903725	-1.198335	-0.391364
H65	H	-0.449276	-0.981754	-0.811752
H66	H	-0.811028	-1.106662	-0.482914
H67	H	-0.232665	-1.039846	-0.811700
H68	H	-0.266129	-0.619809	-0.266238
H69	H	-0.449544	-0.527240	-0.449095
H70	H	-0.232850	-0.527222	-0.391472
H71	H	-0.482718	-1.106771	-0.904507
H72	H	-0.903906	-1.039903	-0.232695
H73	H	-0.324168	-0.948301	-0.904510
H74	H	-0.903621	-0.981672	-0.449351
H75	H	-0.811097	-0.948271	-0.324129
H76	H	-0.391295	-1.198399	-0.811809
H77	H	-0.266098	-1.165031	-0.904312
