data_functionalizedCrystal
_audit_creation_method	'MofGen! by Chris Wilmer'
_symmetry_space_group_name_H-M	'P1'
_symmetry_Int_Tables_number	1
_symmetry_cell_setting	triclinic
loop_
_symmetry_equiv_pos_as_xyz
  x,y,z
_cell_length_a	27.354012
_cell_length_b	27.353283
_cell_length_c	27.349551
_cell_angle_alpha	60.005606
_cell_angle_beta	60.011434
_cell_angle_gamma	59.993282
loop_
_atom_site_label
_atom_site_type_symbol
_atom_site_fract_x
_atom_site_fract_y
_atom_site_fract_z
O1	O	0.067635	-0.714267	0.597330
O2	O	0.567635	-0.214267	1.097330
O3	O	0.025429	-0.556105	0.481282
O4	O	0.525429	-0.056105	0.981282
O5	O	0.125575	-0.656186	0.481214
O6	O	0.625575	-0.156186	0.981214
O7	O	-0.032512	-0.614186	0.597397
O8	O	0.467488	-0.114186	1.097397
O9	O	0.158797	-0.622968	0.514367
O10	O	0.658797	-0.122968	1.014367
O11	O	0.058650	-0.522887	0.514434
O12	O	0.558650	-0.022887	1.014434
O13	O	0.100856	-0.681048	0.630482
O14	O	0.600856	-0.181048	1.130482
Zn15	Zn	0.085028	-0.596693	0.577722
Zn16	Zn	0.585028	-0.096693	1.077722
Zn17	Zn	0.041257	-0.640460	0.534042
Zn18	Zn	0.541257	-0.140460	1.034042
O19	O	0.000709	-0.580967	0.630549
O20	O	0.500709	-0.080967	1.130549
N21	N	0.114901	-0.566828	0.607534
N22	N	0.614901	-0.066828	1.107534
N23	N	0.011389	-0.670331	0.504229
N24	N	0.511389	-0.170331	1.004229
C25	C	0.179404	-0.338196	0.672015
C26	C	0.679404	0.161804	1.172015
C27	C	0.179501	-0.502386	0.836160
C28	C	0.679501	-0.002386	1.336160
C29	C	0.179415	-0.502363	0.671996
C30	C	0.679415	-0.002363	1.171996
C31	C	0.343611	-0.502373	0.671960
C32	C	0.843611	-0.002373	1.171960
C33	C	0.197478	-0.392371	0.690061
C34	C	0.697478	0.107629	1.190061
C35	C	0.197534	-0.484321	0.781984
C36	C	0.697534	0.015679	1.281984
C37	C	0.289434	-0.484312	0.690032
C38	C	0.789434	0.015688	1.190032
C39	C	0.197486	-0.484308	0.690051
C40	C	0.697486	0.015692	1.190051
C41	C	0.156398	-0.269238	0.649045
C42	C	0.656398	0.230762	1.149045
C43	C	0.156418	-0.525342	0.649015
C44	C	0.656418	-0.025342	1.149015
C45	C	0.220484	-0.461329	0.713032
C46	C	0.720484	0.038671	1.213032
C47	C	0.443889	-0.485097	0.619172
C48	C	0.943889	0.014903	1.119172
C49	C	0.506571	-0.505993	0.598266
C50	C	1.006571	-0.005993	1.098266
C51	C	0.506589	-0.607412	0.636940
C52	C	1.006589	-0.107412	1.136940
C53	C	0.443909	-0.586515	0.657848
C54	C	0.943909	-0.086515	1.157848
C55	C	0.171510	-0.237888	0.587422
C56	C	0.671510	0.262112	1.087422
C57	C	0.150593	-0.175201	0.566543
C58	C	0.650593	0.324799	1.066543
C59	C	0.099458	-0.175218	0.668913
C60	C	0.599458	0.324782	1.168913
C61	C	0.120375	-0.237905	0.689792
C62	C	0.620375	0.262095	1.189792
C63	C	0.094789	-0.510201	0.664176
C64	C	0.594789	-0.010201	1.164176
C65	C	0.073888	-0.531091	0.643278
C66	C	0.573888	-0.031091	1.143278
C67	C	0.176239	-0.582263	0.592072
C68	C	0.676239	-0.082263	1.092072
C69	C	0.197142	-0.561373	0.612963
C70	C	0.697142	-0.061373	1.112963
C71	C	0.094933	-0.510244	0.936476
C72	C	0.594933	-0.010244	1.436476
C73	C	0.074073	-0.531151	0.999161
C74	C	0.574073	-0.031151	1.499161
C75	C	0.176453	-0.582335	0.999126
C76	C	0.676453	-0.082335	1.499126
C77	C	0.197312	-0.561429	0.936439
C78	C	0.697312	-0.061429	1.436439
C79	C	0.156551	-0.525382	0.905116
C80	C	0.656551	-0.025382	1.405116
C81	C	0.412561	-0.525357	0.648961
C82	C	0.912561	-0.025357	1.148961
C83	C	-0.098513	-0.688235	0.485867
C84	C	0.401487	-0.188235	0.985867
C85	C	-0.006461	-0.688368	0.394066
C86	C	0.493539	-0.188368	0.894066
C87	C	-0.006645	-0.780264	0.486040
C88	C	0.493355	-0.280264	0.986040
C89	C	-0.006630	-0.688361	0.486097
C90	C	0.493370	-0.188361	0.986097
C91	C	-0.029562	-0.711308	0.463018
C92	C	0.470438	-0.211308	0.963018
N93	N	0.537030	-0.566846	0.607436
N94	N	1.037030	-0.066846	1.107436
O95	O	0.741877	-0.576849	0.459995
O96	O	1.241877	-0.076849	0.959995
O97	O	0.742050	-0.693241	0.618010
O98	O	1.242050	-0.193241	1.118010
O99	O	0.741986	-0.692977	0.517791
O100	O	1.241986	-0.192977	1.017791
O101	O	0.741941	-0.577114	0.560214
O102	O	1.241941	-0.077114	1.060214
O103	O	0.642405	-0.659839	0.551046
O104	O	1.142405	-0.159839	1.051046
O105	O	0.642469	-0.660104	0.651265
O106	O	1.142469	-0.160104	1.151265
O107	O	0.642296	-0.543712	0.493251
O108	O	1.142296	-0.043712	0.993251
Zn109	Zn	0.626572	-0.596646	0.577538
Zn110	Zn	1.126572	-0.096646	1.077538
Zn111	Zn	0.757774	-0.640307	0.533723
Zn112	Zn	1.257774	-0.140307	1.033723
O113	O	0.642360	-0.543976	0.593469
O114	O	1.142360	-0.043976	1.093469
N115	N	0.847316	-0.670107	0.503818
N116	N	1.347316	-0.170107	1.003818
N117	N	0.114877	-0.144758	0.607577
N118	N	0.614877	0.355242	1.107577
O119	O	-0.032498	0.060193	0.597441
O120	O	0.467502	0.560193	1.097441
O121	O	0.125523	0.060193	0.481067
O122	O	0.625523	0.560193	0.981067
O123	O	0.025289	0.060179	0.481345
O124	O	0.525289	0.560179	0.981345
O125	O	0.067736	0.060207	0.597163
O126	O	0.567736	0.560207	1.097163
O127	O	0.058511	-0.039410	0.514543
O128	O	0.558511	0.460590	1.014543
O129	O	0.158745	-0.039397	0.514265
O130	O	0.658745	0.460603	1.014265
O131	O	0.000724	-0.039396	0.630638
O132	O	0.500724	0.460604	1.130638
Zn133	Zn	0.085009	-0.055208	0.577722
Zn134	Zn	0.585009	0.444792	1.077722
Zn135	Zn	0.041238	0.076005	0.533983
Zn136	Zn	0.541238	0.576005	1.033983
O137	O	0.100958	-0.039382	0.630360
O138	O	0.600958	0.460618	1.130360
N139	N	0.011362	0.165555	0.504130
N140	N	0.511362	0.665555	1.004130
N141	N	0.115121	-0.566884	1.029592
N142	N	0.615121	-0.066884	1.529592
O143	O	0.104990	-0.714248	1.234528
O144	O	0.604990	-0.214248	1.734528
O145	O	-0.011371	-0.556177	1.234539
O146	O	0.488629	-0.056177	1.734539
O147	O	-0.011103	-0.656395	1.234497
O148	O	0.488897	-0.156395	1.734497
O149	O	0.104722	-0.614030	1.234569
O150	O	0.604722	-0.114030	1.734569
O151	O	0.022090	-0.623190	1.134913
O152	O	0.522090	-0.123190	1.634913
O153	O	0.021822	-0.522972	1.134954
O154	O	0.521822	-0.022972	1.634954
O155	O	0.138182	-0.681044	1.134943
O156	O	0.638182	-0.181044	1.634943
Zn157	Zn	0.085272	-0.596736	1.119137
Zn158	Zn	0.585272	-0.096736	1.619137
Zn159	Zn	0.041539	-0.640484	1.250344
Zn160	Zn	0.541539	-0.140484	1.750344
O161	O	0.137914	-0.580826	1.134984
O162	O	0.637914	-0.080826	1.634984
N163	N	0.011689	-0.670343	1.339890
N164	N	0.511689	-0.170343	1.839890
C165	C	0.038085	-0.519567	0.481870
C166	C	0.538085	-0.019567	0.981870
C167	C	0.162104	-0.643505	0.481786
C168	C	0.662104	-0.143505	0.981786
C169	C	0.088200	-0.717587	0.629893
C170	C	0.588200	-0.217587	1.129893
C171	C	-0.035819	-0.593649	0.629977
C172	C	0.464181	-0.093649	1.129977
C173	C	0.692280	-0.692701	0.654545
C174	C	1.192280	-0.192701	1.154545
C175	C	0.692203	-0.692374	0.530435
C176	C	1.192203	-0.192374	1.030435
C177	C	0.692063	-0.544251	0.456717
C178	C	1.192063	-0.044251	0.956717
C179	C	0.692144	-0.544580	0.580825
C180	C	1.192144	-0.044580	1.080825
C181	C	0.162000	0.010521	0.481600
C182	C	0.662000	0.510521	0.981600
C183	C	0.037914	0.010381	0.481984
C184	C	0.537914	0.510381	0.981984
C185	C	-0.035795	0.010399	0.630065
C186	C	0.464205	0.510399	1.130065
C187	C	0.088333	0.010415	0.629722
C188	C	0.588333	0.510415	1.129722
C189	C	-0.010799	-0.519660	1.184747
C190	C	0.489201	-0.019660	1.684747
C191	C	-0.010461	-0.643761	1.184677
C192	C	0.489539	-0.143761	1.684677
C193	C	0.137610	-0.717561	1.184734
C194	C	0.637610	-0.217561	1.684734
C195	C	0.137280	-0.593452	1.184783
C196	C	0.637280	-0.093452	1.684783
H197	H	0.023897	-0.518815	1.024687
H198	H	0.523897	-0.018815	1.524687
H199	H	-0.081177	0.010398	0.666600
H200	H	0.418823	0.510398	1.166600
O201	O	0.180636	-0.582537	1.184773
O202	O	0.680636	-0.082537	1.684773
C203	C	0.208009	-0.511420	1.184841
C204	C	0.708009	-0.011420	1.684841
C205	C	0.158860	-0.523697	1.184838
C206	C	0.658860	-0.023697	1.684838
H207	H	0.190417	-0.463854	1.184907
H208	H	0.690417	0.036146	1.684907
H209	H	0.248876	-0.516740	1.143157
H210	H	0.748876	-0.016740	1.643157
H211	H	0.221109	-0.544601	1.226509
H212	H	0.721109	-0.044601	1.726509
H213	H	0.145709	-0.490528	1.143198
H214	H	0.645709	0.009472	1.643198
H215	H	0.118025	-0.518399	1.226550
H216	H	0.618025	-0.018399	1.726550
O217	O	0.216273	-0.654085	0.438236
O218	O	0.716273	-0.154085	0.938236
C219	C	0.304235	-0.625081	0.372811
C220	C	0.804235	-0.125081	0.872811
C221	C	0.242894	-0.613026	0.422119
C222	C	0.742894	-0.113026	0.922119
H223	H	0.325782	-0.591901	0.359774
H224	H	0.825782	-0.091901	0.859774
H225	H	0.297993	-0.619648	0.331945
H226	H	0.797993	-0.119648	0.831945
H227	H	0.334360	-0.672656	0.390242
H228	H	0.834360	-0.172656	0.890242
H229	H	0.212737	-0.565455	0.404744
H230	H	0.712737	-0.065455	0.904744
H231	H	0.249181	-0.618500	0.462976
H232	H	0.749181	-0.118500	0.962976
O233	O	0.105765	-0.268314	0.749662
O234	O	0.605765	0.231686	1.249662
C235	C	0.110555	-0.287426	0.843526
C236	C	0.610555	0.212574	1.343526
C237	C	0.127154	-0.252972	0.775724
C238	C	0.627154	0.247028	1.275724
H239	H	0.127829	-0.275026	0.864619
H240	H	0.627829	0.224974	1.364619
H241	H	0.131701	-0.337625	0.851513
H242	H	0.631701	0.162375	1.351513
H243	H	0.059801	-0.275105	0.864646
H244	H	0.559801	0.224895	1.364646
H245	H	0.177899	-0.265243	0.754559
H246	H	0.677899	0.234757	1.254559
H247	H	0.105965	-0.202782	0.767780
H248	H	0.605965	0.297218	1.267780
H249	H	0.097215	-0.763020	0.666340
H250	H	0.597215	-0.263020	1.166340
O251	O	-0.090013	-0.583036	0.673488
O252	O	0.409987	-0.083036	1.173488
C253	C	-0.177943	-0.612086	0.738962
C254	C	0.322057	-0.112086	1.238962
C255	C	-0.116587	-0.624162	0.689678
C256	C	0.383413	-0.124162	1.189678
H257	H	-0.199440	-0.645337	0.752075
H258	H	0.300560	-0.145337	1.252075
H259	H	-0.208128	-0.564541	0.721550
H260	H	0.291872	-0.064541	1.221550
H261	H	-0.171662	-0.617463	0.779779
H262	H	0.328338	-0.117463	1.279779
H263	H	-0.122812	-0.618817	0.648844
H264	H	0.377188	-0.118817	1.148844
H265	H	-0.086423	-0.671702	0.707138
H266	H	0.413577	-0.171702	1.207138
O267	O	0.692362	-0.736238	0.708708
O268	O	1.192362	-0.236238	1.208708
C269	C	0.692396	-0.764063	0.807352
C270	C	1.192396	-0.264063	1.307352
C271	C	0.692317	-0.714710	0.746035
C272	C	1.192317	-0.214710	1.246035
H273	H	0.692346	-0.746671	0.837552
H274	H	1.192346	-0.246671	1.337552
H275	H	0.734100	-0.804891	0.801075
H276	H	1.234100	-0.304891	1.301075
H277	H	0.650751	-0.777156	0.828838
H278	H	1.150751	-0.277156	1.328838
H279	H	0.733933	-0.701567	0.724516
H280	H	1.233933	-0.201567	1.224516
H281	H	0.650584	-0.673915	0.752352
H282	H	1.150584	-0.173915	1.252352
O283	O	0.691892	-0.500599	0.402626
O284	O	1.191892	-0.000599	0.902626
C285	C	0.640219	-0.400728	0.349214
C286	C	1.140219	0.099272	0.849214
C287	C	0.640332	-0.450119	0.410507
C288	C	1.140332	0.049881	0.910507
H289	H	0.598543	-0.359899	0.355566
H290	H	1.098543	0.140101	0.855566
H291	H	0.640171	-0.418036	0.319003
H292	H	1.140171	0.081964	0.819003
H293	H	0.681890	-0.387672	0.327698
H294	H	1.181890	0.112328	0.827698
H295	H	0.598667	-0.463196	0.432075
H296	H	1.098667	0.036804	0.932075
H297	H	0.640411	-0.432784	0.440676
H298	H	1.140411	0.067216	0.940676
O299	O	0.413343	-0.425703	0.610570
O300	O	0.913343	0.074297	1.110570
C301	C	0.316773	-0.348562	0.625666
C302	C	0.816773	0.151438	1.125666
C303	C	0.351288	-0.415838	0.635438
C304	C	0.851288	0.084162	1.135438
H305	H	0.266595	-0.340566	0.645777
H306	H	0.766595	0.159434	1.145777
H307	H	0.329033	-0.322307	0.575646
H308	H	0.829033	0.177693	1.075646
H309	H	0.329146	-0.333012	0.648378
H310	H	0.829146	0.166988	1.148378
H311	H	0.338933	-0.431443	0.612762
H312	H	0.838933	0.068557	1.112762
H313	H	0.339025	-0.442053	0.685467
H314	H	0.839025	0.057947	1.185467
O315	O	0.099280	0.010386	0.673077
O316	O	0.599280	0.510386	1.173077
C317	C	0.170430	0.010415	0.700446
C318	C	0.670430	0.510415	1.200446
C319	C	0.158115	0.010438	0.651297
C320	C	0.658115	0.510438	1.151297
H321	H	0.217993	0.010470	0.682851
H322	H	0.717993	0.510470	1.182851
H323	H	0.165132	-0.031275	0.741313
H324	H	0.665132	0.468725	1.241313
H325	H	0.137258	0.052081	0.713551
H326	H	0.637258	0.552081	1.213551
H327	H	0.191276	-0.031199	0.638142
H328	H	0.691276	0.468801	1.138142
H329	H	0.163393	0.052156	0.610462
H330	H	0.663393	0.552156	1.110462
O331	O	0.692101	-0.501213	0.591758
O332	O	1.192101	-0.001213	1.091758
C333	C	0.692172	-0.473835	0.662883
C334	C	1.192172	0.026165	1.162883
C335	C	0.692207	-0.522995	0.650586
C336	C	1.192207	-0.022995	1.150586
H337	H	0.692270	-0.491432	0.710440
H338	H	1.192270	0.008568	1.210440
H339	H	0.650459	-0.432978	0.657599
H340	H	1.150459	0.067022	1.157599
H341	H	0.733808	-0.460710	0.629692
H342	H	1.233808	0.039290	1.129692
H343	H	0.650599	-0.536170	0.683766
H344	H	1.150599	-0.036170	1.183766
H345	H	0.733947	-0.563820	0.655850
H346	H	1.233947	-0.063820	1.155850
O347	O	-0.054326	-0.465477	1.184776
O348	O	0.445674	0.034523	1.684776
C349	C	-0.082149	-0.366823	1.184766
C350	C	0.417851	0.133177	1.684766
C351	C	-0.032806	-0.428162	1.184748
C352	C	0.467194	0.071838	1.684748
H353	H	-0.064764	-0.336632	1.184730
H354	H	0.435236	0.163368	1.684730
H355	H	-0.122988	-0.373070	1.226443
H356	H	0.377012	0.126930	1.726443
H357	H	-0.095213	-0.345342	1.143091
H358	H	0.404787	0.154658	1.643091
H359	H	-0.019691	-0.449676	1.226395
H360	H	0.480309	0.050324	1.726395
H361	H	0.008001	-0.421876	1.143043
H362	H	0.508001	0.078124	1.643043
O363	O	0.181250	-0.771673	1.184625
O364	O	0.681250	-0.271673	1.684625
C365	C	0.281125	-0.825155	1.133059
C366	C	0.781125	-0.325155	1.633059
C367	C	0.231749	-0.763837	1.133102
C368	C	0.731749	-0.263837	1.633102
H369	H	0.321970	-0.818840	1.091414
H370	H	0.821970	-0.318840	1.591414
H371	H	0.263824	-0.855358	1.132999
H372	H	0.763824	-0.355358	1.632999
H373	H	0.294149	-0.846662	1.174764
H374	H	0.794149	-0.346662	1.674764
H375	H	0.218705	-0.742279	1.091404
H376	H	0.718705	-0.242279	1.591404
H377	H	0.249078	-0.733677	1.133193
H378	H	0.749078	-0.233677	1.633193
H379	H	0.692221	-0.728771	0.521355
H380	H	1.192221	-0.228771	1.021355
H381	H	0.023705	-0.518748	0.655609
H382	H	0.523705	-0.018748	1.155609
O383	O	0.027066	0.010474	0.438527
O384	O	0.527066	0.510474	0.938527
C385	C	0.021444	0.062025	0.338815
C386	C	0.521444	0.562025	0.838815
C387	C	0.033734	0.062005	0.387979
C388	C	0.533734	0.562005	0.887979
H389	H	0.026842	0.103677	0.297931
H390	H	0.526842	0.603677	0.797931
H391	H	-0.026143	0.062059	0.356340
H392	H	0.473857	0.562059	0.856340
H393	H	0.054579	0.020323	0.325765
H394	H	0.554579	0.520323	0.825765
H395	H	0.000636	0.103700	0.401051
H396	H	0.500636	0.603700	0.901051
H397	H	0.081337	0.061940	0.370427
H398	H	0.581337	0.561940	0.870427
H399	H	0.207290	0.010797	0.444973
H400	H	0.707290	0.510797	0.944973
O401	O	-0.053779	-0.654639	1.184574
O402	O	0.446221	-0.154639	1.684574
C403	C	-0.081148	-0.725751	1.184493
C404	C	0.418852	-0.225751	1.684493
C405	C	-0.032032	-0.713507	1.184595
C406	C	0.467968	-0.213507	1.684595
H407	H	-0.063588	-0.773349	1.184523
H408	H	0.436412	-0.273349	1.684523
H409	H	-0.094199	-0.692622	1.142787
H410	H	0.405801	-0.192622	1.642787
H411	H	-0.122039	-0.720356	1.226140
H412	H	0.377961	-0.220356	1.726140
H413	H	0.008891	-0.718911	1.142977
H414	H	0.508891	-0.218911	1.642977
H415	H	-0.019032	-0.746634	1.226328
H416	H	0.480968	-0.246634	1.726328
H417	H	0.061625	-0.480862	0.693528
H418	H	0.561625	0.019138	1.193528
H419	H	0.061737	-0.480889	0.910978
H420	H	0.561737	0.019111	1.410978
H421	H	0.029071	-0.474132	0.445424
H422	H	0.529071	0.025868	0.945424
H423	H	0.247489	-0.573760	0.910909
H424	H	0.747489	-0.073760	1.410909
O425	O	0.216130	-0.617363	1.029460
O426	O	0.716130	-0.117363	1.529460
C427	C	0.319879	-0.665901	1.022809
C428	C	0.819879	-0.165901	1.522809
C429	C	0.275012	-0.626230	0.988381
C430	C	0.775012	-0.126230	1.488381
H431	H	0.367495	-0.673072	0.989612
H432	H	0.867495	-0.173072	1.489612
H433	H	0.312717	-0.711017	1.052130
H434	H	0.812717	-0.211017	1.552130
H435	H	0.312636	-0.642944	1.052181
H436	H	0.812636	-0.142944	1.552181
H437	H	0.282228	-0.649134	0.958977
H438	H	0.782228	-0.149134	1.458977
H439	H	0.282185	-0.581116	0.959099
H440	H	0.782185	-0.081116	1.459099
H441	H	0.247325	-0.573698	0.600612
H442	H	0.747325	-0.073698	1.100612
O443	O	0.215884	-0.617241	0.557038
O444	O	0.715884	-0.117241	1.057038
C445	C	0.319611	-0.665827	0.508486
C446	C	0.819611	-0.165827	1.008486
C447	C	0.274783	-0.626202	0.548154
C448	C	0.774783	-0.126202	1.048154
H449	H	0.367240	-0.673095	0.501302
H450	H	0.867240	-0.173095	1.001302
H451	H	0.312410	-0.642860	0.463378
H452	H	0.812410	-0.142860	0.963378
H453	H	0.312365	-0.710902	0.531449
H454	H	0.812365	-0.210902	1.031449
H455	H	0.282002	-0.581121	0.525244
H456	H	0.782002	-0.081121	1.025244
H457	H	0.281995	-0.649216	0.593260
H458	H	0.781995	-0.149216	1.093260
H459	H	0.532110	-0.657210	0.644171
H460	H	1.032110	-0.157210	1.144171
O461	O	0.413510	-0.625639	0.686686
O462	O	0.913510	-0.125639	1.186686
C463	C	0.394375	-0.699356	0.681103
C464	C	0.894375	-0.199356	1.181103
C465	C	0.428824	-0.655056	0.648372
C466	C	0.928824	-0.155056	1.148372
H467	H	0.406753	-0.723161	0.650145
H468	H	0.906753	-0.223161	1.150145
H469	H	0.344180	-0.673951	0.694506
H470	H	0.844180	-0.173951	1.194506
H471	H	0.406719	-0.733784	0.722912
H472	H	0.906719	-0.233784	1.222912
H473	H	0.416530	-0.620617	0.606542
H474	H	0.916530	-0.120617	1.106542
H475	H	0.479010	-0.680501	0.635014
H476	H	0.979010	-0.180501	1.135014
O477	O	0.536916	-0.466801	0.569314
O478	O	1.036916	0.033199	1.069314
C479	C	0.530290	-0.364007	0.533182
C480	C	1.030290	0.135993	1.033182
C481	C	0.495849	-0.408324	0.565971
C482	C	0.995849	0.091676	1.065971
H483	H	0.497102	-0.316721	0.530479
H484	H	0.997102	0.183279	1.030479
H485	H	0.559598	-0.365881	0.486033
H486	H	1.059598	0.134119	0.986033
H487	H	0.559672	-0.376625	0.558799
H488	H	1.059672	0.123375	1.058799
H489	H	0.466434	-0.395737	0.540404
H490	H	0.966434	0.104263	1.040404
H491	H	0.466578	-0.406443	0.613122
H492	H	0.966578	0.093557	1.113122
H493	H	0.200842	-0.263395	0.554238
H494	H	0.700842	0.236605	1.054238
H495	H	0.070133	-0.149706	0.702094
H496	H	0.570133	0.350294	1.202094
O497	O	0.165346	-0.144836	0.506660
O498	O	0.665346	0.355164	1.006660
C499	C	0.218235	-0.151433	0.407324
C500	C	0.718235	0.348567	0.907324
C501	C	0.201588	-0.185893	0.475124
C502	C	0.701588	0.314107	0.975124
H503	H	0.247529	-0.184613	0.381808
H504	H	0.747529	0.315387	0.881808
H505	H	0.243784	-0.122097	0.394945
H506	H	0.743784	0.377903	0.894945
H507	H	0.175675	-0.122071	0.395027
H508	H	0.675675	0.377929	0.895027
H509	H	0.244117	-0.215287	0.487470
H510	H	0.744117	0.284713	0.987470
H511	H	0.176016	-0.215191	0.487467
H512	H	0.676016	0.284809	0.987467
