data_functionalizedCrystal
_audit_creation_method	'MofGen! by Chris Wilmer'
_symmetry_space_group_name_H-M	'P1'
_symmetry_Int_Tables_number	1
_symmetry_cell_setting	triclinic
loop_
_symmetry_equiv_pos_as_xyz
  x,y,z
_cell_length_a	18.050591
_cell_length_b	18.050590
_cell_length_c	18.050582
_cell_angle_alpha	90.023337
_cell_angle_beta	90.010544
_cell_angle_gamma	90.017393
loop_
_atom_site_label
_atom_site_type_symbol
_atom_site_fract_x
_atom_site_fract_y
_atom_site_fract_z
Zn1	Zn	1.135342	-0.295730	0.419822
Zn2	Zn	1.135274	-0.419913	0.295630
Zn3	Zn	1.011162	-0.295739	0.295655
Zn4	Zn	1.011131	-0.419880	0.419788
O5	O	1.073227	-0.357815	0.357724
O6	O	1.239258	-0.312213	0.403351
O7	O	1.118795	-0.403459	0.191709
O8	O	1.027676	-0.191813	0.312151
O9	O	1.239208	-0.403450	0.312108
O10	O	1.118911	-0.191806	0.403376
O11	O	1.027610	-0.312228	0.191727
O12	O	0.907233	-0.312196	0.312118
O13	O	1.027623	-0.403393	0.523717
O14	O	0.907210	-0.403402	0.403318
O15	O	1.118881	-0.312181	0.523742
O16	O	1.118764	-0.523833	0.312075
O17	O	1.027557	-0.523809	0.403294
C18	C	0.880275	-0.357797	0.357718
C19	C	0.797729	-0.357807	0.357733
C20	C	1.073170	-0.550767	0.357694
C21	C	1.073214	-0.633313	0.357706
C22	C	0.548913	-0.407508	0.407260
C23	C	0.598286	-0.425579	0.339473
C24	C	0.500609	-0.357831	0.357731
C25	C	0.598317	-0.339783	0.425514
C26	C	0.646594	-0.357821	0.357736
C27	C	0.548895	-0.375937	0.289909
C28	C	0.548922	-0.290110	0.375996
C29	C	0.598273	-0.308155	0.308163
C30	C	0.416511	-0.357838	0.357730
C31	C	0.730690	-0.357813	0.357730
C32	C	1.122915	-0.832750	0.308171
C33	C	1.141051	-0.882089	0.375950
C34	C	1.073256	-0.784444	0.357736
C35	C	1.055196	-0.882186	0.289988
C36	C	1.073298	-0.930429	0.357759
C37	C	1.091426	-0.832695	0.425550
C38	C	1.005539	-0.832788	0.339543
C39	C	1.023649	-0.882105	0.407368
C40	C	1.073233	-0.700345	0.357722
C41	C	1.073320	-1.014525	0.357780
C42	C	1.266933	-0.357834	0.357730
C43	C	1.349478	-0.357842	0.357733
C44	C	1.073256	-0.357782	0.551430
C45	C	1.073269	-0.357768	0.633975
C46	C	1.073305	-0.164110	0.357770
C47	C	1.073338	-0.081564	0.357789
C48	C	1.073241	-0.357794	0.164772
C49	C	1.073372	-0.357599	0.082226
C50	C	1.023680	-0.407302	0.833413
C51	C	1.091439	-0.425457	0.882799
C52	C	1.073305	-0.357712	0.785106
C53	C	1.005584	-0.339536	0.882802
C54	C	1.073335	-0.357658	0.931091
C55	C	1.141099	-0.375902	0.833405
C56	C	1.055199	-0.289950	0.833403
C57	C	1.123004	-0.308079	0.882767
C58	C	1.073287	-0.357744	0.701008
C59	C	1.073360	-0.357626	1.015188
H60	H	0.527240	-0.449554	0.449090
H61	H	1.198335	-0.903747	0.391353
F62	F	1.035207	-0.910601	0.215089
H63	H	0.619809	-0.266140	0.266232
H64	H	0.981672	-0.903639	0.449342
H65	H	0.981754	-0.449294	0.811743
F66	F	1.111510	-0.804404	0.500470
H67	H	0.948301	-0.324186	0.904500
F68	F	0.626631	-0.500428	0.319277
H69	H	1.106771	-0.482739	0.904496
H70	H	0.948271	-0.811114	0.324120
H71	H	1.198399	-0.391318	0.811797
F72	F	1.177934	-0.253235	0.910917
F73	F	0.626694	-0.319836	0.500436
H74	H	0.527277	-0.391267	0.232572
F75	F	0.520556	-0.215280	0.396218
F76	F	1.177823	-0.804422	0.253440
H77	H	1.039846	-0.232684	0.811690
