data_functionalizedCrystal
_audit_creation_method	'MofGen! by Chris Wilmer'
_symmetry_space_group_name_H-M	'P1'
_symmetry_Int_Tables_number	1
_symmetry_cell_setting	triclinic
loop_
_symmetry_equiv_pos_as_xyz
  x,y,z
_cell_length_a	34.408637
_cell_length_b	34.407814
_cell_length_c	34.404193
_cell_angle_alpha	60.004510
_cell_angle_beta	60.009006
_cell_angle_gamma	59.994604
loop_
_atom_site_label
_atom_site_type_symbol
_atom_site_fract_x
_atom_site_fract_y
_atom_site_fract_z
O1	O	0.053973	-0.567860	0.474801
O2	O	0.553973	-0.067860	0.974801
O3	O	0.020377	-0.442124	0.382567
O4	O	0.520377	0.057876	0.882567
O5	O	0.100004	-0.521670	0.382483
O6	O	0.600004	-0.021670	0.882483
O7	O	-0.025653	-0.488314	0.474886
O8	O	0.474347	0.011686	0.974886
O9	O	0.126426	-0.495253	0.408816
O10	O	0.626426	0.004747	0.908816
O11	O	0.046800	-0.415707	0.408900
O12	O	0.546800	0.084293	0.908900
O13	O	0.080396	-0.541443	0.501134
O14	O	0.580396	-0.041443	1.001134
Zn15	Zn	0.067793	-0.474381	0.459198
Zn16	Zn	0.567793	0.025619	0.959198
Zn17	Zn	0.032980	-0.509186	0.424503
Zn18	Zn	0.532980	-0.009186	0.924503
O19	O	0.000769	-0.461897	0.501219
O20	O	0.500769	0.038103	1.001219
N21	N	0.091552	-0.450631	0.482879
N22	N	0.591552	0.049369	0.982879
N23	N	0.009225	-0.532940	0.400823
N24	N	0.509225	-0.032940	0.900823
C25	C	0.142848	-0.268847	0.534081
C26	C	0.642848	0.231153	1.034081
C27	C	0.142979	-0.399386	0.664559
C28	C	0.642979	0.100614	1.164559
C29	C	0.142862	-0.399365	0.534081
C30	C	0.642862	0.100635	1.034081
C31	C	0.273409	-0.399338	0.533986
C32	C	0.773409	0.100662	1.033986
C33	C	0.157225	-0.311914	0.548422
C34	C	0.657225	0.188086	1.048422
C35	C	0.157300	-0.385019	0.621491
C36	C	0.657300	0.114981	1.121491
C37	C	0.230339	-0.384991	0.548370
C38	C	0.730339	0.115009	1.048370
C39	C	0.157235	-0.385007	0.548422
C40	C	0.657235	0.114993	1.048422
C41	C	0.124548	-0.214028	0.515827
C42	C	0.624548	0.285972	1.015827
C43	C	0.124571	-0.417639	0.515827
C44	C	0.624571	0.082361	1.015827
C45	C	0.175526	-0.366733	0.566676
C46	C	0.675526	0.133267	1.066676
C47	C	0.353121	-0.385580	0.491988
C48	C	0.853121	0.114420	0.991988
C49	C	0.402952	-0.402180	0.475348
C50	C	0.902952	0.097820	0.975348
C51	C	0.402981	-0.482812	0.506096
C52	C	0.902981	0.017188	1.006096
C53	C	0.353151	-0.466211	0.522737
C54	C	0.853151	0.033789	1.022737
C55	C	0.136544	-0.189099	0.466839
C56	C	0.636544	0.310901	0.966839
C57	C	0.119905	-0.139265	0.450247
C58	C	0.619905	0.360735	0.950247
C59	C	0.079280	-0.139291	0.531632
C60	C	0.579280	0.360709	1.031632
C61	C	0.095918	-0.189125	0.548224
C62	C	0.595918	0.310875	1.048224
C63	C	0.075577	-0.405615	0.527900
C64	C	0.575577	0.094385	1.027900
C65	C	0.058953	-0.422228	0.511301
C66	C	0.558953	0.077772	1.011301
C67	C	0.140315	-0.462889	0.470566
C68	C	0.640315	0.037111	0.970566
C69	C	0.156941	-0.446276	0.487159
C70	C	0.656941	0.053724	0.987159
C71	C	0.075772	-0.405653	0.744326
C72	C	0.575772	0.094347	1.244326
C73	C	0.059206	-0.422280	0.794159
C74	C	0.559206	0.077720	1.294159
C75	C	0.140607	-0.462951	0.794094
C76	C	0.640607	0.037049	1.294094
C77	C	0.157172	-0.446325	0.744260
C78	C	0.657172	0.053675	1.244260
C79	C	0.124753	-0.417674	0.719377
C80	C	0.624753	0.082326	1.219377
C81	C	0.328223	-0.417595	0.515681
C82	C	0.828223	0.082405	1.015681
C83	C	-0.172390	-0.583988	0.349141
C84	C	0.327610	-0.083988	0.849141
C85	C	-0.041751	-0.584138	0.218783
C86	C	0.458249	-0.084138	0.718783
C87	C	-0.041941	-0.584130	0.349402
C88	C	0.458059	-0.084130	0.849402
C89	C	-0.041957	-0.714607	0.349338
C90	C	0.458043	-0.214607	0.849338
C91	C	-0.129326	-0.598388	0.334853
C92	C	0.370674	-0.098388	0.834853
C93	C	-0.056165	-0.598473	0.261852
C94	C	0.443835	-0.098473	0.761852
C95	C	-0.056282	-0.671535	0.334962
C96	C	0.443718	-0.171535	0.834962
C97	C	-0.056272	-0.598469	0.334999
C98	C	0.443728	-0.098469	0.834999
C99	C	-0.227205	-0.565659	0.367327
C100	C	0.272795	-0.065659	0.867327
C101	C	-0.023703	-0.565882	0.367734
C102	C	0.476297	-0.065882	0.867734
C103	C	-0.074511	-0.616717	0.316667
C104	C	0.425489	-0.116717	0.816667
C105	C	-0.055754	-0.794298	0.391257
C106	C	0.444246	-0.294298	0.891257
C107	C	-0.039181	-0.844132	0.407888
C108	C	0.460819	-0.344132	0.907888
C109	C	0.041447	-0.844215	0.377269
C110	C	0.541447	-0.344215	0.877269
C111	C	0.024873	-0.794381	0.360637
C112	C	0.524873	-0.294381	0.860637
C113	C	-0.252183	-0.577666	0.416302
C114	C	0.247817	-0.077666	0.916302
C115	C	-0.302014	-0.561001	0.432833
C116	C	0.197986	-0.061001	0.932833
C117	C	-0.301886	-0.520329	0.351410
C118	C	0.198114	-0.020329	0.851410
C119	C	-0.252055	-0.536994	0.334880
C120	C	0.247945	-0.036994	0.834880
C121	C	-0.035709	-0.516892	0.355682
C122	C	0.464291	-0.016892	0.855682
C123	C	-0.019129	-0.500308	0.372353
C124	C	0.480871	-0.000308	0.872353
C125	C	0.021465	-0.581700	0.413115
C126	C	0.521465	-0.081700	0.913115
C127	C	0.004884	-0.598286	0.396450
C128	C	0.504884	-0.098286	0.896450
C129	C	-0.035389	-0.516907	0.139026
C130	C	0.464611	-0.016907	0.639026
C131	C	-0.018707	-0.500324	0.089193
C132	C	0.481293	-0.000324	0.589193
C133	C	0.021949	-0.581721	0.089240
C134	C	0.521949	-0.081721	0.589240
C135	C	0.005268	-0.598303	0.139074
C136	C	0.505268	-0.098303	0.639074
C137	C	-0.023402	-0.565894	0.163965
C138	C	0.476598	-0.065894	0.663965
C139	C	-0.023728	-0.769425	0.367633
C140	C	0.476272	-0.269425	0.867633
N141	N	0.427173	-0.450553	0.482630
N142	N	0.927173	0.049447	0.982630
O143	O	0.589997	-0.458460	0.365361
O144	O	1.089997	0.041540	0.865361
O145	O	0.590185	-0.550997	0.490963
O146	O	1.090185	-0.050997	0.990963
O147	O	0.590104	-0.550786	0.411309
O148	O	1.090104	-0.050786	0.911309
O149	O	0.590077	-0.458671	0.445016
O150	O	1.090077	0.041329	0.945016
O151	O	0.510940	-0.524462	0.437777
O152	O	1.010940	-0.024462	0.937777
O153	O	0.511020	-0.524674	0.517432
O154	O	1.011020	-0.024674	1.017432
O155	O	0.510832	-0.432136	0.391830
O156	O	1.010832	0.067864	0.891830
Zn157	Zn	0.498357	-0.474225	0.458833
Zn158	Zn	0.998357	0.025775	0.958833
Zn159	Zn	0.602660	-0.508908	0.423960
Zn160	Zn	1.102660	-0.008908	0.923960
O161	O	0.510913	-0.432348	0.471484
O162	O	1.010913	0.067652	0.971484
N163	N	0.673844	-0.532580	0.400158
N164	N	1.173844	-0.032580	0.900158
N165	N	0.091520	-0.115070	0.482873
N166	N	0.591520	0.384930	0.982873
O167	O	-0.025663	0.047841	0.474857
O168	O	0.474337	0.547841	0.974857
O169	O	0.099940	0.047877	0.382299
O170	O	0.599940	0.547877	0.882299
O171	O	0.020247	0.047844	0.382560
O172	O	0.520247	0.547844	0.882560
O173	O	0.054030	0.047874	0.474596
O174	O	0.554030	0.547874	0.974596
O175	O	0.046674	-0.031326	0.408942
O176	O	0.546674	0.468674	0.908942
O177	O	0.126367	-0.031293	0.408680
O178	O	0.626367	0.468707	0.908680
O179	O	0.000764	-0.031329	0.501238
O180	O	0.500764	0.468671	1.001238
Zn181	Zn	0.067761	-0.043881	0.459148
Zn182	Zn	0.567761	0.456119	0.959148
Zn183	Zn	0.032943	0.060429	0.424389
Zn184	Zn	0.532943	0.560429	0.924389
O185	O	0.080457	-0.031296	0.500977
O186	O	0.580457	0.468704	1.000977
N187	N	0.009178	0.131618	0.400665
N188	N	0.509178	0.631618	0.900665
N189	N	0.091852	-0.450680	0.818332
N190	N	0.591852	0.049320	1.318332
O191	O	0.083862	-0.567845	0.981235
O192	O	0.583862	-0.067845	1.481235
O193	O	-0.008657	-0.442198	0.981276
O194	O	0.491343	0.057802	1.481276
O195	O	-0.008441	-0.521875	0.981252
O196	O	0.491559	-0.021875	1.481252
O197	O	0.083646	-0.488168	0.981258
O198	O	0.583646	0.011832	1.481258
O199	O	0.017919	-0.495468	0.902085
O200	O	0.517919	0.004532	1.402085
O201	O	0.017703	-0.415791	0.902109
O202	O	0.517703	0.084209	1.402109
O203	O	0.110222	-0.541438	0.902067
O204	O	0.610222	-0.041438	1.402067
Zn205	Zn	0.068148	-0.474422	0.889518
Zn206	Zn	0.568148	0.025578	1.389518
Zn207	Zn	0.033417	-0.509214	0.993825
Zn208	Zn	0.533417	-0.009214	1.493825
O209	O	0.110006	-0.461761	0.902091
O210	O	0.610006	0.038239	1.402091
N211	N	0.009712	-0.532961	1.065011
N212	N	0.509712	-0.032961	1.565011
C213	C	0.030439	-0.413071	0.383027
C214	C	0.530439	0.086929	0.883027
C215	C	0.129046	-0.511580	0.382922
C216	C	0.629046	-0.011580	0.882922
C217	C	0.070334	-0.570496	0.500675
C218	C	0.570334	-0.070496	1.000675
C219	C	-0.028274	-0.471987	0.500780
C220	C	0.471726	0.028013	1.000780
C221	C	0.550625	-0.550579	0.520021
C222	C	1.050625	-0.050579	1.020021
C223	C	0.550527	-0.550317	0.421379
C224	C	1.050527	-0.050317	0.921379
C225	C	0.550389	-0.432554	0.362773
C226	C	1.050389	0.067446	0.862773
C227	C	0.550491	-0.432816	0.461414
C228	C	1.050491	0.067184	0.961414
C229	C	0.128944	0.008394	0.382712
C230	C	0.628944	0.508394	0.882712
C231	C	0.030287	0.008256	0.383068
C232	C	0.530287	0.508256	0.883068
C233	C	-0.028273	0.008252	0.500793
C234	C	0.471727	0.508252	1.000793
C235	C	0.070417	0.008292	0.500470
C236	C	0.570417	0.508292	1.000470
C237	C	-0.008218	-0.413165	0.941698
C238	C	0.491782	0.086835	1.441698
C239	C	-0.007945	-0.511830	0.941653
C240	C	0.492055	-0.011830	1.441653
C241	C	0.109783	-0.570471	0.941646
C242	C	0.609783	-0.070471	1.441646
C243	C	0.109516	-0.471800	0.941673
C244	C	0.609516	0.028200	1.441673
H245	H	0.049370	-0.382321	0.724071
H246	H	0.549370	0.117679	1.224071
O247	O	0.056040	-0.770275	0.337640
O248	O	0.556040	-0.270275	0.837640
C249	C	0.089902	-0.782477	0.296577
C250	C	0.589902	-0.282477	0.796577
H251	H	0.092234	-0.818649	0.301067
H252	H	0.592234	-0.318649	0.801067
H253	H	0.126160	-0.784224	0.291197
H254	H	0.626160	-0.284224	0.791197
H255	H	0.078695	-0.754428	0.264262
H256	H	0.578695	-0.254428	0.764262
O257	O	0.144046	-0.463147	0.941583
O258	O	0.644046	0.036853	1.441583
C259	C	0.154950	-0.424587	0.900594
C260	C	0.654950	0.075413	1.400594
H261	H	0.144482	-0.420836	0.871939
H262	H	0.644482	0.079164	1.371939
H263	H	0.194775	-0.431288	0.886821
H264	H	0.694775	0.068712	1.386821
H265	H	0.134411	-0.390458	0.909875
H266	H	0.634411	0.109542	1.409875
H267	H	0.023260	-0.376951	0.354059
H268	H	0.523260	0.123049	0.854059
O269	O	-0.042463	-0.520338	0.941548
O270	O	0.457537	-0.020338	1.441548
C271	C	-0.055249	-0.487700	0.900533
C272	C	0.444751	0.012300	1.400533
H273	H	-0.045769	-0.454713	0.886894
H274	H	0.454231	0.045287	1.386894
H275	H	-0.095176	-0.477047	0.909732
H276	H	0.404824	0.022953	1.409732
H277	H	-0.035142	-0.504946	0.871807
H278	H	0.464858	-0.004946	1.371807
O279	O	-0.071270	0.008160	0.535500
O280	O	0.428730	0.508160	1.035500
C281	C	-0.064968	-0.032834	0.575611
C282	C	0.435032	0.467166	1.075611
H283	H	-0.030112	-0.061489	0.564133
H284	H	0.469888	0.438511	1.064133
H285	H	-0.095840	-0.046606	0.592666
H286	H	0.404160	0.453394	1.092666
H287	H	-0.063855	-0.023555	0.602467
H288	H	0.436145	0.476445	1.102467
H289	H	0.550540	-0.579254	0.414165
H290	H	1.050540	-0.079254	0.914165
O291	O	-0.326300	-0.572583	0.480405
O292	O	0.173700	-0.072583	0.980405
C293	C	-0.355129	-0.530697	0.492422
C294	C	0.144871	-0.030697	0.992422
H295	H	-0.340074	-0.500786	0.464350
H296	H	0.159926	-0.000786	0.964350
H297	H	-0.355746	-0.537263	0.528622
H298	H	0.144254	-0.037263	1.028622
H299	H	-0.392880	-0.520172	0.494013
H300	H	0.107120	-0.020172	0.994013
O301	O	0.144379	-0.613552	0.941650
O302	O	0.644379	-0.113552	1.441650
C303	C	0.127251	-0.643170	0.941627
C304	C	0.627251	-0.143170	1.441627
H305	H	0.086705	-0.630282	0.956624
H306	H	0.586705	-0.130282	1.456624
H307	H	0.141858	-0.681306	0.964598
H308	H	0.641858	-0.181306	1.464598
H309	H	0.139338	-0.641874	0.903642
H310	H	0.639338	-0.141874	1.403642
H311	H	0.165136	-0.518689	0.353905
H312	H	0.665136	-0.018689	0.853905
O313	O	-0.042859	-0.370096	0.941627
O314	O	0.457141	0.129904	1.441627
C315	C	-0.055660	-0.349029	0.900635
C316	C	0.444340	0.150971	1.400635
H317	H	-0.025093	-0.364771	0.871970
H318	H	0.474907	0.135229	1.371970
H319	H	-0.063533	-0.308971	0.886882
H320	H	0.436467	0.191029	1.386882
H321	H	-0.088705	-0.356308	0.909906
H322	H	0.411295	0.143692	1.409906
H323	H	0.077653	0.008301	0.529384
H324	H	0.577653	0.508301	1.029384
O325	O	-0.227719	-0.525360	0.287320
O326	O	0.272281	-0.025360	0.787320
C327	C	-0.178408	-0.546224	0.279684
C328	C	0.321592	-0.046224	0.779684
H329	H	-0.171654	-0.553744	0.312420
H330	H	0.328346	-0.053744	0.812420
H331	H	-0.159426	-0.520809	0.247410
H332	H	0.340574	-0.020809	0.747410
H333	H	-0.164271	-0.580989	0.273048
H334	H	0.335729	-0.080989	0.773048
H335	H	0.019320	-0.412483	0.814467
H336	H	0.519320	0.087517	1.314467
H337	H	0.077514	-0.606615	0.529644
H338	H	0.577514	-0.106615	1.029644
H339	H	-0.064365	-0.464880	0.529794
H340	H	0.435635	0.035120	1.029794
H341	H	0.550329	-0.403500	0.326702
H342	H	1.050329	0.096500	0.826702
H343	H	0.167007	-0.486271	0.814352
H344	H	0.667007	0.013729	1.314352
H345	H	0.550674	-0.579628	0.556096
H346	H	1.050674	-0.079628	1.056096
H347	H	0.049217	-0.382297	0.551240
H348	H	0.549217	0.117703	1.051240
O349	O	0.204771	-0.458029	0.720100
O350	O	0.704771	0.041971	1.220100
C351	C	0.229829	-0.486887	0.752750
C352	C	0.729829	0.013113	1.252750
H353	H	0.206086	-0.480540	0.788282
H354	H	0.706086	0.019460	1.288282
H355	H	0.263077	-0.477536	0.738331
H356	H	0.763077	0.022464	1.238331
H357	H	0.240587	-0.525921	0.758039
H358	H	0.740587	-0.025921	1.258039
H359	H	0.023050	0.008252	0.354152
H360	H	0.523050	0.508252	0.854152
H361	H	0.019058	-0.412426	0.521121
H362	H	0.519058	0.087574	1.021121
H363	H	0.164941	0.008624	0.353583
H364	H	0.664941	0.508624	0.853583
O365	O	0.171827	-0.490688	0.442708
O366	O	0.671827	0.009312	0.942708
C367	C	0.218635	-0.497750	0.435625
C368	C	0.718635	0.002250	0.935625
H369	H	0.218548	-0.467707	0.441192
H370	H	0.718548	0.032293	0.941192
H371	H	0.242266	-0.497999	0.397824
H372	H	0.742266	0.002001	0.897824
H373	H	0.232941	-0.533253	0.462132
H374	H	0.732941	-0.033253	0.962132
O375	O	0.204529	-0.457870	0.475379
O376	O	0.704529	0.042130	0.975379
C377	C	0.216539	-0.415987	0.450304
C378	C	0.716539	0.084013	0.950304
H379	H	0.188419	-0.386055	0.433468
H380	H	0.688419	0.113945	0.933468
H381	H	0.252698	-0.422536	0.421244
H382	H	0.752698	0.077464	0.921244
H383	H	0.218212	-0.405504	0.475923
H384	H	0.718212	0.094496	0.975923
H385	H	0.550485	-0.403881	0.468626
H386	H	1.050485	0.096119	0.968626
H387	H	0.332881	-0.492283	0.542031
H388	H	0.832881	0.007717	1.042031
H389	H	0.423225	-0.376108	0.456057
H390	H	0.923225	0.123892	0.956057
O391	O	0.427123	-0.530054	0.513005
O392	O	0.927123	-0.030054	1.013005
C393	C	0.394461	-0.554752	0.537474
C394	C	0.894461	-0.054752	1.037474
H395	H	0.358947	-0.533020	0.557911
H396	H	0.858947	-0.033020	1.057911
H397	H	0.408888	-0.590688	0.563475
H398	H	0.908888	-0.090688	1.063475
H399	H	0.389137	-0.560518	0.510825
H400	H	0.889137	-0.060518	1.010825
H401	H	-0.028907	-0.460416	0.362542
H402	H	0.471093	0.039584	0.862542
O403	O	0.328978	-0.338341	0.485114
O404	O	0.828978	0.161659	0.985114
C405	C	0.361643	-0.313644	0.460624
C406	C	0.861643	0.186356	0.960624
H407	H	0.397178	-0.339216	0.466351
H408	H	0.897178	0.160784	0.966351
H409	H	0.347252	-0.283593	0.474736
H410	H	0.847252	0.216407	0.974736
H411	H	0.366912	-0.298153	0.420981
H412	H	0.866912	0.201847	0.920981
H413	H	0.129672	-0.118967	0.410356
H414	H	0.629672	0.381033	0.910356
O415	O	0.164331	-0.213214	0.435303
O416	O	0.664331	0.286786	0.935303
C417	C	0.171356	-0.180524	0.388506
C418	C	0.671356	0.319476	0.888506
H419	H	0.141301	-0.145008	0.388617
H420	H	0.641301	0.354992	0.888617
H421	H	0.171596	-0.194920	0.364856
H422	H	0.671596	0.305080	0.864856
H423	H	0.206850	-0.175210	0.374203
H424	H	0.706850	0.324790	0.874203
H425	H	0.055974	-0.119015	0.558014
H426	H	0.555974	0.380985	1.058014
H427	H	-0.028474	-0.460433	0.068892
H428	H	0.471526	0.039567	0.568892
O429	O	0.084238	-0.213265	0.595826
O430	O	0.584238	0.286735	1.095826
C431	C	0.055389	-0.180597	0.620860
C432	C	0.555389	0.319403	1.120860
H433	H	0.061726	-0.145067	0.597094
H434	H	0.561726	0.354933	1.097094
H435	H	0.064758	-0.194999	0.654103
H436	H	0.564758	0.305001	1.154103
H437	H	0.016357	-0.175310	0.631628
H438	H	0.516357	0.324690	1.131628
H439	H	-0.058738	-0.490513	0.159288
H440	H	0.441262	0.009487	0.659288
H441	H	0.015032	-0.638195	0.159378
H442	H	0.515032	-0.138195	0.659378
O443	O	0.049735	-0.613248	0.065112
O444	O	0.549735	-0.113248	0.565112
C445	C	0.024556	-0.642010	0.077226
C446	C	0.524556	-0.142010	0.577226
H447	H	-0.004490	-0.642466	0.113378
H448	H	0.495510	-0.142466	0.613378
H449	H	0.050105	-0.679818	0.078965
H450	H	0.550105	-0.179818	0.578965
H451	H	0.007694	-0.627007	0.049129
H452	H	0.507694	-0.127007	0.549129
O453	O	-0.063550	-0.485394	0.327865
O454	O	0.436450	0.014606	0.827865
C455	C	-0.105351	-0.456542	0.352979
C456	C	0.394649	0.043458	0.852979
H457	H	-0.112334	-0.475774	0.392856
H458	H	0.387666	0.024226	0.892856
H459	H	-0.136713	-0.448975	0.344000
H460	H	0.363287	0.051025	0.844000
H461	H	-0.100806	-0.421548	0.342390
H462	H	0.399194	0.078452	0.842390
O463	O	0.049217	-0.613245	0.441018
O464	O	0.549217	-0.113245	0.941018
C465	C	0.056271	-0.660041	0.448065
C466	C	0.556271	-0.160041	0.948065
H467	H	0.026250	-0.659921	0.442434
H468	H	0.526250	-0.159921	0.942434
H469	H	0.056475	-0.683692	0.485878
H470	H	0.556475	-0.183692	0.985878
H471	H	0.091790	-0.674350	0.421582
H472	H	0.591790	-0.174350	0.921582
H473	H	0.014660	-0.638178	0.406265
H474	H	0.514660	-0.138178	0.906265
O475	O	0.088655	-0.868510	0.370447
O476	O	0.588655	-0.368510	0.870447
C477	C	0.105949	-0.897335	0.343332
C478	C	0.605949	-0.397335	0.843332
H479	H	0.075194	-0.904766	0.347177
H480	H	0.575194	-0.404766	0.847177
H481	H	0.133475	-0.932396	0.356601
H482	H	0.633475	-0.432396	0.856601
H483	H	0.123163	-0.878155	0.304292
H484	H	0.623163	-0.378155	0.804292
H485	H	-0.065262	-0.864385	0.427124
H486	H	0.434738	-0.364385	0.927124
H487	H	-0.231954	-0.601008	0.442726
H488	H	0.268046	-0.101008	0.942726
O489	O	-0.102978	-0.770127	0.398059
O490	O	0.397022	-0.270127	0.898059
C491	C	-0.127689	-0.802771	0.422478
C492	C	0.372311	-0.302771	0.922478
H493	H	-0.102114	-0.838312	0.416765
H494	H	0.397886	-0.338312	0.916765
H495	H	-0.157692	-0.788354	0.408291
H496	H	0.342308	-0.288354	0.908291
H497	H	-0.143243	-0.808045	0.462125
H498	H	0.356757	-0.308045	0.962125
H499	H	-0.322118	-0.496994	0.324987
H500	H	0.177882	0.003006	0.824987
