data_functionalizedCrystal
_audit_creation_method	'MofGen! by Chris Wilmer'
_symmetry_space_group_name_H-M	'P1'
_symmetry_Int_Tables_number	1
_symmetry_cell_setting	triclinic
loop_
_symmetry_equiv_pos_as_xyz
  x,y,z
_cell_length_a	18.050589
_cell_length_b	13.897449
_cell_length_c	13.897441
_cell_angle_alpha	89.979267
_cell_angle_beta	90.027873
_cell_angle_gamma	89.970500
loop_
_atom_site_label
_atom_site_type_symbol
_atom_site_fract_x
_atom_site_fract_y
_atom_site_fract_z
Zn1	Zn	-0.295610	-1.474632	0.545399
Zn2	Zn	0.037723	-1.141299	0.878733
Zn3	Zn	0.371056	-0.807965	1.212066
Zn4	Zn	-0.419815	-1.474496	0.384108
Zn5	Zn	-0.086481	-1.141163	0.717442
Zn6	Zn	0.246852	-0.807830	1.050775
Zn7	Zn	-0.295646	-1.313321	0.384118
Zn8	Zn	0.037688	-0.979988	0.717451
Zn9	Zn	0.371021	-0.646655	1.050784
Zn10	Zn	-0.419766	-1.313273	0.545361
Zn11	Zn	-0.086433	-0.979940	0.878694
Zn12	Zn	0.246901	-0.646607	1.212028
O13	O	-0.357709	-1.393931	0.464747
O14	O	-0.024376	-1.060597	0.798080
O15	O	0.308957	-0.727264	1.131413
O16	O	-0.312092	-1.609596	0.524016
O17	O	0.021241	-1.276262	0.857349
O18	O	0.354575	-0.942929	1.190683
O19	O	-0.403379	-1.453079	0.249128
O20	O	-0.070045	-1.119746	0.582461
O21	O	0.263288	-0.786413	0.915795
O22	O	-0.191716	-1.334796	0.405532
O23	O	0.141617	-1.001463	0.738865
O24	O	0.474950	-0.668130	1.072199
O25	O	-0.403344	-1.609496	0.405516
O26	O	-0.070011	-1.276163	0.738850
O27	O	0.263322	-0.942829	1.072183
O28	O	-0.191690	-1.453311	0.524025
O29	O	0.141643	-1.119977	0.857358
O30	O	0.474976	-0.786644	1.190692
O31	O	-0.312152	-1.334665	0.249135
O32	O	0.021181	-1.001331	0.582468
O33	O	0.354514	-0.667998	0.915802
O34	O	-0.312105	-1.178333	0.405495
O35	O	0.021228	-0.845000	0.738828
O36	O	0.354562	-0.511667	1.072162
O37	O	-0.403261	-1.334715	0.680348
O38	O	-0.069928	-1.001381	1.013681
O39	O	0.263405	-0.668048	1.347015
O40	O	-0.403295	-1.178298	0.523960
O41	O	-0.069962	-0.844965	0.857293
O42	O	0.263371	-0.511631	1.190626
O43	O	-0.312045	-1.453264	0.680376
O44	O	0.021289	-1.119931	1.013709
O45	O	0.354622	-0.786598	1.347043
O46	O	-0.523733	-1.453033	0.405479
O47	O	-0.190399	-1.119700	0.738812
O48	O	0.142934	-0.786366	1.072146
O49	O	-0.523697	-1.334583	0.523951
O50	O	-0.190364	-1.001250	0.857284
O51	O	0.142970	-0.667916	1.190617
C52	C	-0.357699	-1.143316	0.464725
C53	C	-0.024366	-0.809983	0.798058
C54	C	0.308967	-0.476650	1.131391
C55	C	-0.357713	-1.036102	0.464738
C56	C	-0.024380	-0.702769	0.798072
C57	C	0.308954	-0.369436	1.131405
C58	C	-0.357644	-1.393999	0.716340
C59	C	-0.024310	-1.060666	1.049673
C60	C	0.309023	-0.727333	1.383006
C61	C	-0.357616	-1.394028	0.823554
C62	C	-0.024282	-1.060695	1.156887
C63	C	0.309051	-0.727362	1.490220
C64	C	-0.550661	-1.393814	0.464731
C65	C	-0.217328	-1.060481	0.798064
C66	C	0.116005	-0.727148	1.131397
C67	C	-0.633207	-1.393853	0.464756
C68	C	-0.299874	-1.060519	0.798089
C69	C	0.033460	-0.727186	1.131423
C70	C	-0.832665	-1.329503	0.529158
C71	C	-0.499332	-0.996170	0.862492
C72	C	-0.165999	-0.662836	1.195825
C73	C	-0.882111	-1.305986	0.441140
C74	C	-0.548778	-0.972653	0.774473
C75	C	-0.215444	-0.639319	1.107807
C76	C	-0.784337	-1.393947	0.464769
C77	C	-0.451004	-1.060614	0.798102
C78	C	-0.117671	-0.727281	1.131435
C79	C	-0.881973	-1.417512	0.552797
C80	C	-0.548640	-1.084178	0.886131
C81	C	-0.215307	-0.750845	1.219464
C82	C	-0.930323	-1.394037	0.464789
C83	C	-0.596989	-1.060704	0.798122
C84	C	-0.263656	-0.727371	1.131455
C85	C	-0.832696	-1.370384	0.376703
C86	C	-0.499363	-1.037051	0.710037
C87	C	-0.166029	-0.703718	1.043370
C88	C	-0.832554	-1.481951	0.488420
C89	C	-0.499221	-1.148618	0.821754
C90	C	-0.165887	-0.815284	1.155087
C91	C	-0.881977	-1.458467	0.400341
C92	C	-0.548644	-1.125134	0.733674
C93	C	-0.215311	-0.791801	1.067008
C94	C	-0.700239	-1.393893	0.464758
C95	C	-0.366906	-1.060560	0.798092
C96	C	-0.033573	-0.727227	1.131425
C97	C	-1.014419	-1.394092	0.464789
C98	C	-0.681086	-1.060758	0.798122
C99	C	-0.347752	-0.727425	1.131456
C100	C	-0.164004	-1.394074	0.464784
C101	C	0.169330	-1.060741	0.798117
C102	C	0.502663	-0.727407	1.131451
C103	C	-0.081458	-1.394135	0.464800
C104	C	0.251876	-1.060802	0.798133
C105	C	0.585209	-0.727468	1.131466
C106	C	-0.357720	-1.645524	0.464769
C107	C	-0.024386	-1.312190	0.798103
C108	C	0.308947	-0.978857	1.131436
C109	C	-0.357724	-1.752738	0.464779
C110	C	-0.024391	-1.419404	0.798112
C111	C	0.308943	-1.086071	1.131446
C112	C	-0.357716	-0.839807	0.464763
C113	C	-0.024382	-0.506474	0.798097
C114	C	0.308951	-0.173141	1.131430
C115	C	-0.357712	-0.949040	0.464747
C116	C	-0.024378	-0.615707	0.798080
C117	C	0.308955	-0.282373	1.131413
C118	C	-0.357721	-1.393918	0.214132
C119	C	-0.024388	-1.060585	0.547466
C120	C	0.308946	-0.727251	0.880799
C121	C	-0.357540	-1.394076	0.106919
C122	C	-0.024206	-1.060742	0.440252
C123	C	0.309127	-0.727409	0.773586
C124	C	-0.357565	-1.394055	1.019849
C125	C	-0.024232	-1.060721	1.353182
C126	C	0.309101	-0.727388	1.686516
C127	C	-0.357595	-1.394037	0.910616
C128	C	-0.024262	-1.060704	1.243950
C129	C	0.309071	-0.727370	1.577283
H130	H	-0.811012	-1.274924	0.583534
H131	H	-0.477679	-0.941591	0.916867
H132	H	-0.144345	-0.608258	1.250200
H133	H	-0.810772	-1.556314	0.508449
H134	H	-0.477439	-1.222981	0.841782
H135	H	-0.144105	-0.889647	1.175116
H136	H	-0.903619	-1.437407	0.627234
H137	H	-0.570286	-1.104074	0.960568
H138	H	-0.236953	-0.770740	1.293901
H139	H	-0.903895	-1.231606	0.421153
H140	H	-0.570562	-0.898273	0.754487
H141	H	-0.237228	-0.564940	1.087820
H142	H	-0.811140	-1.350403	0.302246
H143	H	-0.477806	-1.017070	0.635580
H144	H	-0.144473	-0.683736	0.968913
Br145	Br	-0.917839	-1.549372	0.309499
Br146	Br	-0.584506	-1.216038	0.642833
Br147	Br	-0.251173	-0.882705	0.976166
