data_functionalizedCrystal
_audit_creation_method	'MofGen! by Chris Wilmer'
_symmetry_space_group_name_H-M	'P1'
_symmetry_Int_Tables_number	1
_symmetry_cell_setting	triclinic
loop_
_symmetry_equiv_pos_as_xyz
  x,y,z
_cell_length_a	21.883469
_cell_length_b	21.882911
_cell_length_c	21.879399
_cell_angle_alpha	60.006540
_cell_angle_beta	60.013207
_cell_angle_gamma	59.992231
loop_
_atom_site_label
_atom_site_type_symbol
_atom_site_fract_x
_atom_site_fract_y
_atom_site_fract_z
O1	O	0.084645	-0.892842	0.746620
O2	O	0.031867	-0.695139	0.601571
O3	O	0.157054	-0.820237	0.601476
O4	O	-0.040542	-0.767744	0.746716
O5	O	0.198586	-0.778715	0.642912
O6	O	0.073399	-0.653617	0.643007
O7	O	0.126177	-0.851320	0.788056
Cu8	Cu	0.103580	-0.748677	0.719315
Cu9	Cu	0.054464	-0.797782	0.670313
O10	O	0.000990	-0.726222	0.788151
N11	N	0.138128	-0.714145	0.753785
N12	N	0.019923	-0.832320	0.635843
C13	C	0.190018	-0.547369	0.805644
C14	C	0.190029	-0.662289	0.805630
C15	C	0.218780	-0.633565	0.834353
C16	C	0.344122	-0.611968	0.768360
C17	C	0.422474	-0.638085	0.742222
C18	C	0.422504	-0.764859	0.790561
C19	C	0.344154	-0.738739	0.816702
C20	C	0.208899	-0.508180	0.728617
C21	C	0.182748	-0.429822	0.702522
C22	C	0.118843	-0.429847	0.830485
C23	C	0.144993	-0.508205	0.856580
C24	C	0.112994	-0.643364	0.824587
C25	C	0.086865	-0.669476	0.798467
C26	C	0.214799	-0.733437	0.734451
C27	C	0.240932	-0.707325	0.760562
C28	C	0.113084	-0.643389	0.959747
C29	C	0.087018	-0.669524	1.038102
C30	C	0.214996	-0.733501	1.038048
C31	C	0.241061	-0.707367	0.959690
C32	C	0.190103	-0.662308	0.920542
C33	C	0.304966	-0.662293	0.805598
C34	C	-0.117460	-0.854702	0.612901
C35	C	-0.002405	-0.854864	0.498145
C36	C	-0.002621	-0.969735	0.613108
C37	C	-0.002603	-0.854858	0.613180
C38	C	-0.031272	-0.883541	0.584334
N39	N	0.460550	-0.714150	0.753681
O40	O	0.699805	-0.721060	0.574973
O41	O	0.700047	-0.866553	0.772482
O42	O	0.699952	-0.866219	0.647213
O43	O	0.699900	-0.721394	0.700242
O44	O	0.575478	-0.824800	0.688791
O45	O	0.575573	-0.825134	0.814060
O46	O	0.575331	-0.679641	0.616551
Cu47	Cu	0.564087	-0.748606	0.719102
Cu48	Cu	0.711292	-0.797588	0.669931
O49	O	0.575426	-0.679975	0.741820
N50	N	0.814828	-0.832044	0.635345
N51	N	0.138106	-0.391772	0.753815
O52	O	-0.040520	-0.152377	0.746758
O53	O	0.156993	-0.152371	0.601281
O54	O	0.031698	-0.152390	0.601639
O55	O	0.084775	-0.152358	0.746401
O56	O	0.073234	-0.276876	0.643130
O57	O	0.198529	-0.276856	0.642772
O58	O	0.001015	-0.276863	0.788249
Cu59	Cu	0.103564	-0.288226	0.719299
Cu60	Cu	0.054444	-0.141007	0.670231
O61	O	0.126310	-0.276844	0.787892
N62	N	0.019892	-0.037461	0.635717
N63	N	0.138332	-0.714192	1.076133
O64	O	0.131293	-0.892804	1.315506
O65	O	-0.014162	-0.695219	1.315533
O66	O	-0.013826	-0.820490	1.315480
O67	O	0.130957	-0.767533	1.315559
O68	O	0.027651	-0.778981	1.191001
O69	O	0.027314	-0.653710	1.191054
O70	O	0.172770	-0.851295	1.191026
Cu71	Cu	0.103829	-0.748713	1.179674
Cu72	Cu	0.054778	-0.797802	1.326885
O73	O	0.172434	-0.726024	1.191079
N74	N	0.020275	-0.832331	1.430426
C75	C	0.047687	-0.649466	0.602306
C76	C	0.202716	-0.804385	0.602188
C77	C	0.110357	-0.896993	0.787321
C78	C	-0.044672	-0.742074	0.787439
C79	C	0.637839	-0.865879	0.818154
C80	C	0.637724	-0.865466	0.663023
C81	C	0.637536	-0.680313	0.570880
C82	C	0.637655	-0.680728	0.726010
C83	C	0.202592	-0.214459	0.601942
C84	C	0.047481	-0.214636	0.602435
C85	C	-0.044635	-0.214620	0.787537
C86	C	0.110528	-0.214598	0.787096
C87	C	-0.013455	-0.649572	1.253296
C88	C	-0.013030	-0.804697	1.253206
C89	C	0.172063	-0.896942	1.253263
C90	C	0.171648	-0.741808	1.253325
H91	H	0.024299	-0.654107	1.070013
O92	O	0.637646	-0.919772	0.649612
C93	C	0.573208	-1.001442	0.685595
C94	C	0.573212	-0.939957	0.700875
H95	H	0.521112	-1.017769	0.727021
H96	H	0.625303	-1.052547	0.692290
H97	H	0.573186	-0.979487	0.626117
H98	H	0.573209	-0.961841	0.760350
H99	H	0.521122	-0.888863	0.694130
O100	O	0.123912	-0.964797	0.841578
C101	C	0.212737	-1.088007	0.876027
C102	C	0.197480	-1.011259	0.814510
H103	H	0.272221	-1.125588	0.854171
H104	H	0.171310	-1.115027	0.892391
H105	H	0.205985	-1.080201	0.927088
H106	H	0.204242	-1.019000	0.763409
H107	H	0.238904	-0.984265	0.798210
H108	H	-0.101428	-0.730886	0.833046
O109	O	0.460396	-0.589095	0.706033
C110	C	0.452101	-0.460602	0.660879
C111	C	0.409058	-0.516001	0.701860
H112	H	0.410613	-0.401496	0.657505
H113	H	0.488735	-0.462940	0.601942
H114	H	0.488829	-0.476374	0.692901
H115	H	0.372289	-0.500267	0.669900
H116	H	0.372471	-0.513654	0.760799
O117	O	0.225988	-0.728433	1.253373
C118	C	0.352114	-0.777409	1.253336
C119	C	0.290635	-0.792663	1.253300
H120	H	0.404402	-0.829324	1.253261
H121	H	0.331430	-0.763195	1.305452
H122	H	0.366039	-0.728388	1.201263
H123	H	0.276683	-0.841693	1.305338
H124	H	0.311352	-0.806833	1.201150
O125	O	0.226615	-0.964582	1.253121
C126	C	0.351455	-1.031430	1.188656
C127	C	0.289732	-0.954784	1.188715
H128	H	0.402506	-1.023533	1.136597
H129	H	0.329828	-1.069183	1.188582
H130	H	0.367740	-1.058314	1.240783
H131	H	0.273420	-0.927835	1.136596
H132	H	0.311393	-0.917084	1.188827
O133	O	0.270187	-0.214144	0.547411
C134	C	0.403438	-0.278044	0.510795
C135	C	0.326936	-0.278483	0.572617
H136	H	0.449338	-0.330064	0.531145
H137	H	0.414160	-0.225863	0.496826
H138	H	0.403441	-0.277900	0.458616
H139	H	0.326876	-0.278653	0.624834
H140	H	0.316244	-0.330658	0.586522
O141	O	0.124021	-0.214694	0.841451
C142	C	0.131130	-0.279207	0.966061
C143	C	0.115816	-0.279182	0.904573
H144	H	0.124517	-0.331348	1.017104
H145	H	0.089680	-0.227147	0.982487
H146	H	0.190591	-0.279167	0.944085
H147	H	0.056376	-0.279249	0.926497
H148	H	0.157313	-0.331238	0.888155
O149	O	0.637476	-0.625907	0.503161
C150	C	0.637300	-0.591083	0.379901
C151	C	0.637388	-0.652770	0.456551
H152	H	0.637213	-0.612774	0.342200
H153	H	0.689374	-0.574725	0.352944
H154	H	0.585189	-0.540057	0.387835
H155	H	0.689463	-0.703836	0.448681
H156	H	0.585279	-0.669065	0.483482
O157	O	0.033915	-0.214519	0.548117
C158	C	0.026871	-0.150077	0.423482
C159	C	0.042240	-0.150104	0.484934
H160	H	0.033612	-0.098011	0.372379
H161	H	-0.032612	-0.150036	0.445392
H162	H	0.068289	-0.202203	0.407166
H163	H	0.000869	-0.097987	0.501277
H164	H	0.101743	-0.150184	0.462990
O165	O	0.638051	-0.920394	0.885793
C166	C	0.702626	-0.999471	0.975904
C167	C	0.702487	-0.937745	0.899283
H168	H	0.754709	-1.013507	0.986842
H169	H	0.702707	-1.051661	0.976011
H170	H	0.650527	-0.978899	1.021612
H171	H	0.754577	-0.958247	0.853532
H172	H	0.702368	-0.885567	0.899240
H173	H	0.303660	-0.722726	0.745118
O174	O	0.306232	-0.787724	0.852829
C175	C	0.314534	-0.916229	0.898051
C176	C	0.357573	-0.860833	0.857108
H177	H	0.356024	-0.975351	0.901537
H178	H	0.277844	-0.900552	0.866029
H179	H	0.277861	-0.913795	0.956949
H180	H	0.394286	-0.863238	0.798209
H181	H	0.394215	-0.876528	0.889187
O182	O	0.034162	-0.581750	0.547933
C183	C	-0.041722	-0.491588	0.469134
C184	C	-0.026475	-0.568297	0.530701
H185	H	-0.090757	-0.480681	0.455194
H186	H	0.010184	-0.491318	0.416861
H187	H	-0.055910	-0.445948	0.489810
H188	H	-0.012306	-0.613980	0.510096
H189	H	-0.078393	-0.568504	0.582961
H190	H	0.259468	-0.815577	0.556577
H191	H	0.637644	-0.635235	0.737357
H192	H	-0.058496	-0.816008	1.253133
O193	O	0.063478	-0.599653	0.921835
C194	C	-0.066211	-0.538915	0.930159
C195	C	-0.010120	-0.588461	0.973188
H196	H	-0.125726	-0.529838	0.971660
H197	H	-0.057262	-0.567608	0.893495
H198	H	-0.057162	-0.482571	0.893460
H199	H	-0.019135	-0.644814	1.009928
H200	H	-0.019082	-0.559709	1.009805
H201	H	0.256495	-0.770176	1.069914
O202	O	-0.112361	-0.214574	0.841929
C203	C	-0.235654	-0.214604	0.876748
C204	C	-0.158992	-0.214646	0.815081
H205	H	-0.273370	-0.214677	0.855070
H206	H	-0.262571	-0.162484	0.893049
H207	H	-0.227751	-0.266678	0.927806
H208	H	-0.166829	-0.162607	0.763984
H209	H	-0.132101	-0.266800	0.798844
H210	H	0.303780	-0.722782	0.927774
O211	O	-0.067846	-0.581812	1.253204
C212	C	-0.104015	-0.448659	1.188716
C213	C	-0.042349	-0.525346	1.188736
H214	H	-0.083429	-0.402987	1.136591
H215	H	-0.118140	-0.437642	1.240787
H216	H	-0.156155	-0.448584	1.188733
H217	H	0.009831	-0.525477	1.188693
H218	H	-0.028287	-0.536332	1.136669
O219	O	0.012008	-0.651059	0.816980
C220	C	-0.112133	-0.584846	0.883213
C221	C	-0.027381	-0.605657	0.862315
H222	H	-0.144004	-0.548122	0.919857
H223	H	-0.127566	-0.638000	0.915152
H224	H	-0.127572	-0.552965	0.830049
H225	H	-0.011881	-0.637518	0.915441
H226	H	-0.011994	-0.552475	0.830347
H227	H	0.256252	-0.770113	0.697763
O228	O	0.252596	-0.546109	0.679040
C229	C	0.313242	-0.537813	0.549361
C230	C	0.263737	-0.494767	0.605428
H231	H	0.322278	-0.496321	0.489833
H232	H	0.284545	-0.574478	0.558344
H233	H	0.369602	-0.574517	0.558406
H234	H	0.207369	-0.458022	0.596417
H235	H	0.292493	-0.458149	0.596431
O236	O	0.075094	-0.391914	0.880063
C237	C	0.014527	-0.400205	1.009741
C238	C	0.064064	-0.443255	0.953676
H239	H	0.005607	-0.441695	1.069269
H240	H	-0.041884	-0.363546	1.000800
H241	H	0.043233	-0.363495	1.000651
H242	H	0.035425	-0.480006	0.962732
H243	H	0.120474	-0.479866	0.962631
H244	H	0.071542	-0.606694	0.861281
O245	O	0.305976	-0.537738	0.757707
C246	C	0.217572	-0.442922	0.815449
C247	C	0.260714	-0.527010	0.827621
H248	H	0.180979	-0.434220	0.871965
H249	H	0.180811	-0.420831	0.781052
H250	H	0.259036	-0.411454	0.784311
H251	H	0.219303	-0.558538	0.858780
H252	H	0.297486	-0.549043	0.861987
H253	H	0.454413	-0.827107	0.799589
H254	H	0.129609	-0.540114	0.919306
H255	H	0.198119	-0.397913	0.639797
