data_functionalizedCrystal
_audit_creation_method	'MofGen! by Chris Wilmer'
_symmetry_space_group_name_H-M	'P1'
_symmetry_Int_Tables_number	1
_symmetry_cell_setting	triclinic
loop_
_symmetry_equiv_pos_as_xyz
  x,y,z
_cell_length_a	11.792241
_cell_length_b	10.268362
_cell_length_c	9.065218
_cell_angle_alpha	89.999487
_cell_angle_beta	84.604650
_cell_angle_gamma	90.000426
loop_
_atom_site_label
_atom_site_type_symbol
_atom_site_fract_x
_atom_site_fract_y
_atom_site_fract_z
O1	O	1.508031	0.108168	0.202216
O2	O	1.841364	0.441501	0.535550
O3	O	2.174698	0.774835	0.868883
O4	O	1.177806	0.108198	0.223058
O5	O	1.511139	0.441531	0.556391
O6	O	1.844472	0.774865	0.889724
O7	O	1.349744	0.108180	-0.002069
O8	O	1.683077	0.441513	0.331264
O9	O	2.016411	0.774846	0.664597
O10	O	1.336093	0.108186	0.427343
O11	O	1.669426	0.441520	0.760677
O12	O	2.002759	0.774853	1.094010
O13	O	1.349727	-0.108421	-0.002062
O14	O	1.683061	0.224912	0.331272
O15	O	2.016394	0.558246	0.664605
O16	O	1.177789	-0.108403	0.223065
O17	O	1.511122	0.224931	0.556399
O18	O	1.844456	0.558264	0.889732
O19	O	1.508014	-0.108433	0.202224
O20	O	1.841348	0.224901	0.535557
O21	O	2.174681	0.558234	0.868891
Cu22	Cu	1.342900	-0.128195	0.212645
Cu23	Cu	1.676233	0.205138	0.545979
Cu24	Cu	2.009567	0.538472	0.879312
Cu25	Cu	1.342920	0.127960	0.212636
Cu26	Cu	1.676253	0.461294	0.545970
Cu27	Cu	2.009586	0.794627	0.879303
O28	O	1.336076	-0.108414	0.427351
O29	O	1.669409	0.224919	0.760684
O30	O	2.002743	0.558252	1.094018
C31	C	1.135499	-0.000099	0.221752
C32	C	1.468832	0.333235	0.555086
C33	C	1.802166	0.666568	0.888419
C34	C	1.009464	-0.000087	0.217834
C35	C	1.342797	0.333246	0.551167
C36	C	1.676130	0.666580	0.884501
C37	C	0.778711	-0.000125	0.210629
C38	C	1.112045	0.333209	0.543962
C39	C	1.445378	0.666542	0.877295
C40	C	0.907119	-0.000104	0.214632
C41	C	1.240452	0.333229	0.547965
C42	C	1.573785	0.666563	0.881299
N43	N	1.342895	-0.308361	0.212651
N44	N	1.676228	0.024972	0.545984
N45	N	2.009561	0.358306	0.879318
C46	C	1.342903	-0.426203	0.212652
C47	C	1.676236	-0.092870	0.545985
C48	C	2.009570	0.240463	0.879318
C49	C	1.342917	-0.574041	0.212638
C50	C	1.676250	-0.240708	0.545972
C51	C	2.009584	0.092626	0.879305
C52	C	1.550321	-0.000133	0.203529
C53	C	1.883654	0.333200	0.536863
C54	C	2.216988	0.666533	0.870196
C55	C	1.676356	-0.000136	0.207448
C56	C	2.009690	0.333197	0.540781
C57	C	2.343023	0.666530	0.874114
C58	C	1.348424	-0.000118	-0.057040
C59	C	1.681757	0.333215	0.276293
C60	C	2.015090	0.666548	0.609627
C61	C	1.344501	-0.000112	-0.220846
C62	C	1.677834	0.333222	0.112487
C63	C	2.011167	0.666555	0.445821
N64	N	1.342934	0.308126	0.212619
N65	N	1.676268	0.641460	0.545953
N66	N	2.009601	0.974793	0.879286
C67	C	1.337396	-0.000113	0.482322
C68	C	1.670730	0.333220	0.815655
C69	C	2.004063	0.666553	1.148988
C70	C	1.341319	-0.000111	0.646128
C71	C	1.674652	0.333222	0.979461
C72	C	2.007986	0.666555	1.312794
