data_functionalizedCrystal
_audit_creation_method	'MofGen! by Chris Wilmer'
_symmetry_space_group_name_H-M	'P1'
_symmetry_Int_Tables_number	1
_symmetry_cell_setting	triclinic
loop_
_symmetry_equiv_pos_as_xyz
  x,y,z
_cell_length_a	19.288864
_cell_length_b	9.198806
_cell_length_c	19.288865
_cell_angle_alpha	90.008409
_cell_angle_beta	83.136245
_cell_angle_gamma	90.017783
loop_
_atom_site_label
_atom_site_type_symbol
_atom_site_fract_x
_atom_site_fract_y
_atom_site_fract_z
O1	O	0.921348	0.121375	0.086646
O2	O	1.421348	0.621375	0.586646
O3	O	0.719087	0.121278	0.098335
O4	O	1.219087	0.621278	0.598335
O5	O	0.826062	0.121301	-0.008640
O6	O	1.326062	0.621301	0.491360
O7	O	0.814373	0.121353	0.193621
O8	O	1.314373	0.621353	0.693621
O9	O	0.826054	-0.120484	-0.008640
O10	O	1.326054	0.379516	0.491360
O11	O	0.719079	-0.120507	0.098335
O12	O	1.219079	0.379493	0.598335
O13	O	0.921339	-0.120410	0.086646
O14	O	1.421339	0.379590	0.586646
Cu15	Cu	0.820208	-0.142535	0.092490
Cu16	Cu	1.320208	0.357465	0.592490
Cu17	Cu	0.820218	0.143403	0.092491
Cu18	Cu	1.320218	0.643403	0.592491
O19	O	0.814365	-0.120432	0.193621
O20	O	1.314365	0.379568	0.693621
C21	C	0.693207	0.000373	0.097959
C22	C	1.193207	0.500373	0.597959
C23	C	0.616103	0.000334	0.096830
C24	C	1.116103	0.500334	0.596830
N25	N	0.820206	-0.343649	0.092490
N26	N	1.320206	0.156351	0.592490
C27	C	0.571407	0.000373	0.159598
C28	C	1.071407	0.500373	0.659598
C29	C	0.498960	0.000389	0.158537
C30	C	0.998960	0.500389	0.658537
C31	C	0.471212	0.000395	0.094705
C32	C	0.971212	0.500395	0.594705
C33	C	0.515918	0.000348	0.031929
C34	C	1.015918	0.500348	0.531929
C35	C	0.588364	0.000317	0.032991
C36	C	1.088364	0.500317	0.532991
C37	C	0.362953	0.085139	0.044526
C38	C	0.862953	0.585139	0.544526
C39	C	0.290509	0.085178	0.043466
C40	C	0.790509	0.585178	0.543466
C41	C	0.247767	0.000482	0.091425
C42	C	0.747767	0.500482	0.591425
C43	C	0.277476	-0.084235	0.140456
C44	C	0.777476	0.415765	0.640456
C45	C	0.349922	-0.084265	0.141519
C46	C	0.849922	0.415735	0.641519
C47	C	0.392658	0.000427	0.093546
C48	C	0.892658	0.500427	0.593546
C49	C	0.124514	0.000536	0.153047
C50	C	0.624514	0.500536	0.653047
C51	C	0.052066	0.000543	0.151984
C52	C	0.552066	0.500543	0.651984
C53	C	0.069026	0.000516	0.025374
C54	C	0.569026	0.500516	0.525374
C55	C	0.141473	0.000495	0.026439
C56	C	0.641473	0.500495	0.526439
C57	C	0.169212	0.000512	0.090278
C58	C	0.669212	0.500512	0.590278
C59	C	0.865124	-0.415837	0.047378
C60	C	1.365124	0.084163	0.547378
C61	C	0.865135	-0.583249	0.047376
C62	C	1.365135	-0.083249	0.547376
C63	C	0.947220	0.000499	0.087022
C64	C	1.447220	0.500499	0.587022
C65	C	1.024324	0.000547	0.088151
C66	C	1.524324	0.500547	0.588151
C67	C	0.825682	0.000404	-0.034516
C68	C	1.325682	0.500404	0.465484
C69	C	0.824553	0.000390	-0.111620
C70	C	1.324553	0.500390	0.388380
N71	N	0.820226	0.344517	0.092486
N72	N	1.320226	0.844517	0.592486
C73	C	0.887321	0.000413	-0.156316
C74	C	1.387321	0.500413	0.343684
C75	C	0.886260	0.000436	-0.228763
C76	C	1.386260	0.500436	0.271237
C77	C	0.822428	0.000406	-0.256511
C78	C	1.322428	0.500406	0.243489
C79	C	0.759652	0.000391	-0.211805
C80	C	1.259652	0.500391	0.288195
C81	C	0.760714	0.000383	-0.139359
C82	C	1.260714	0.500383	0.360641
C83	C	0.772245	-0.084310	-0.364798
C84	C	1.272245	0.415690	0.135202
C85	C	0.771185	-0.084311	-0.437243
C86	C	1.271185	0.415689	0.062757
C87	C	0.819148	0.000437	-0.479956
C88	C	1.319148	0.500437	0.020044
C89	C	0.868182	0.085167	-0.450218
C90	C	1.368182	0.585167	0.049782
C91	C	0.869245	0.085160	-0.377773
C92	C	1.369245	0.585160	0.122227
C93	C	0.821269	0.000416	-0.335065
C94	C	1.321269	0.500416	0.164935
C95	C	0.880770	0.000486	-0.603209
C96	C	1.380770	0.500486	-0.103209
C97	C	0.879707	0.000518	-0.675657
C98	C	1.379707	0.500518	-0.175657
C99	C	0.753097	0.000459	-0.658697
C100	C	1.253097	0.500459	-0.158697
C101	C	0.754162	0.000442	-0.586250
C102	C	1.254162	0.500442	-0.086250
C103	C	0.818000	0.000449	-0.558511
C104	C	1.318000	0.500449	-0.058511
C105	C	0.814745	0.000468	0.219497
C106	C	1.314745	0.500468	0.719497
C107	C	0.815874	0.000491	0.296601
C108	C	1.315874	0.500491	0.796601
H109	H	0.593987	0.000390	0.211580
H110	H	1.093987	0.500390	0.711580
H111	H	0.462561	0.000417	0.209652
H112	H	0.962561	0.500417	0.709652
H113	H	0.937375	0.000460	-0.265162
H114	H	1.437375	0.500460	0.234838
Br115	Br	0.390241	-0.199235	0.208055
Br116	Br	0.890241	0.300765	0.708055
H117	H	0.266324	0.154166	0.003545
H118	H	0.766324	0.654166	0.503545
H119	H	0.242677	-0.153204	0.179509
H120	H	0.742677	0.346796	0.679509
Br121	Br	0.933280	0.200190	-0.508178
Br122	Br	1.433280	0.700190	-0.008178
H123	H	0.781756	-0.405786	0.131107
H124	H	1.281756	0.094214	0.631107
H125	H	0.147101	0.000529	0.205028
H126	H	0.647101	0.500529	0.705028
Br127	Br	0.707147	-0.199337	-0.306836
Br128	Br	1.207147	0.300663	0.193164
Br129	Br	0.704644	-0.199310	-0.477595
Br130	Br	1.204644	0.300690	0.022405
Br131	Br	0.756130	-0.552032	0.156869
Br132	Br	1.256130	-0.052032	0.656869
H133	H	0.930822	0.000545	-0.712049
H134	H	1.430822	0.500545	-0.212049
H135	H	0.932751	0.000499	-0.580622
H136	H	1.432751	0.500499	-0.080622
H137	H	0.909169	0.154153	-0.353563
H138	H	1.409169	0.654153	0.146437
H139	H	0.903570	-0.353703	0.008756
H140	H	1.403570	0.146297	0.508756
Br141	Br	0.929240	-0.686709	-0.016995
Br142	Br	1.429240	-0.186709	0.483005
Br143	Br	0.031377	0.000500	-0.061257
Br144	Br	0.531377	0.500500	0.438743
H145	H	0.939303	0.000424	-0.133736
H146	H	1.439303	0.500424	0.366264
H147	H	0.015674	0.000566	0.203099
H148	H	0.515674	0.500566	0.703099
Br149	Br	0.666466	0.000433	-0.696346
Br150	Br	1.166466	0.500433	-0.196346
Br151	Br	0.668972	0.000409	-0.525587
Br152	Br	1.168972	0.500409	-0.025587
Br153	Br	0.202136	0.000446	-0.058751
Br154	Br	0.702136	0.500446	0.441249
H155	H	0.707679	0.000370	-0.234401
H156	H	1.207679	0.500370	0.265599
H157	H	0.493322	0.000373	-0.020044
H158	H	0.993322	0.500373	0.479956
H159	H	0.397749	0.154118	0.005470
H160	H	0.897749	0.654118	0.505470
H161	H	0.709599	0.000364	-0.102967
H162	H	1.209599	0.500364	0.397033
H163	H	0.624756	0.000287	-0.018124
H164	H	1.124756	0.500287	0.481876
