data_functionalizedCrystal
_audit_creation_method	'MofGen! by Chris Wilmer'
_symmetry_space_group_name_H-M	'P1'
_symmetry_Int_Tables_number	1
_symmetry_cell_setting	triclinic
loop_
_symmetry_equiv_pos_as_xyz
  x,y,z
_cell_length_a	19.077236
_cell_length_b	13.897447
_cell_length_c	19.077174
_cell_angle_alpha	92.274996
_cell_angle_beta	85.294282
_cell_angle_gamma	92.312415
loop_
_atom_site_label
_atom_site_type_symbol
_atom_site_fract_x
_atom_site_fract_y
_atom_site_fract_z
Zn1	Zn	1.093761	-0.348270	-0.441984
Zn2	Zn	1.088956	-0.503352	-0.324101
Zn3	Zn	0.971142	-0.348285	-0.319367
Zn4	Zn	0.975847	-0.515740	-0.437206
O5	O	1.032427	-0.428912	-0.380665
O6	O	1.191776	-0.363651	-0.430328
O7	O	1.069348	-0.477603	-0.224823
O8	O	0.987450	-0.213300	-0.335651
O9	O	1.188246	-0.477589	-0.343719
O10	O	1.077537	-0.213289	-0.425738
O11	O	0.982791	-0.363676	-0.221345
O12	O	0.873114	-0.375689	-0.331018
O13	O	0.995469	-0.498704	-0.536490
O14	O	0.876571	-0.498718	-0.417593
O15	O	1.082099	-0.375664	-0.540001
O16	O	1.073910	-0.639978	-0.339086
O17	O	0.990810	-0.649080	-0.422184
C18	C	0.849263	-0.438550	-0.373274
C19	C	0.770905	-0.442697	-0.370129
C20	C	0.735934	-0.385426	-0.413812
C21	C	0.662308	-0.389318	-0.410851
C22	C	0.623655	-0.450487	-0.364210
C23	C	0.658631	-0.507761	-0.320521
C24	C	0.732255	-0.503863	-0.323479
C25	C	0.403265	-0.468490	-0.350516
C26	C	0.329636	-0.472385	-0.347563
C27	C	0.333317	-0.353941	-0.437893
C28	C	0.406943	-0.350053	-0.440850
C29	C	0.441913	-0.407322	-0.397159
N30	N	0.548398	-0.454469	-0.361183
N31	N	0.517168	-0.403335	-0.400182
C32	C	1.032369	-0.679528	-0.380646
C33	C	1.032409	-0.786741	-0.380664
C34	C	1.032444	-0.873810	-0.380682
C35	C	1.032494	-0.983041	-0.380702
C36	C	1.216306	-0.419237	-0.388085
C37	C	1.294664	-0.415114	-0.391247
C38	C	1.039845	-0.438564	-0.564540
C39	C	1.043006	-0.442677	-0.642896
C40	C	1.032505	-0.177316	-0.380700
C41	C	1.032538	-0.070102	-0.380714
C42	C	0.999428	-0.385295	-0.677897
C43	C	1.002395	-0.389168	-0.751521
C44	C	1.048945	-0.450419	-0.790143
C45	C	1.092526	-0.507807	-0.755137
C46	C	1.089554	-0.503939	-0.681514
C47	C	1.062662	-0.468354	-1.010527
C48	C	1.065632	-0.472216	-1.084155
C49	C	0.975500	-0.353577	-1.080534
C50	C	0.972535	-0.349710	-1.006910
C51	C	1.016113	-0.407102	-0.971910
N52	N	1.051981	-0.454377	-0.865399
N53	N	1.013073	-0.403148	-0.896655
C54	C	1.025078	-0.419225	-0.197507
C55	C	1.022053	-0.414833	-0.119156
H56	H	0.760728	-0.550499	-0.287907
H57	H	1.130424	-0.557684	-0.786589
H58	H	0.633838	-0.342684	-0.446424
H59	H	0.438410	-0.300246	-0.478833
C60	C	1.110606	-0.531467	-0.972037
H61	H	1.138761	-0.568487	-1.005585
H62	H	1.082474	-0.573411	-0.942219
H63	H	1.140177	-0.491431	-0.944565
C64	C	0.927561	-0.290464	-1.119034
H65	H	0.935990	-0.301545	-1.168413
H66	H	0.937406	-0.224475	-1.107397
H67	H	0.879701	-0.306453	-1.105053
H68	H	1.125046	-0.550658	-0.653018
C69	C	0.616118	-0.575047	-0.269216
H70	H	0.647493	-0.608592	-0.243619
H71	H	0.588483	-0.620066	-0.294975
H72	H	0.586160	-0.537989	-0.237390
H73	H	0.767400	-0.335618	-0.451795
H74	H	0.304837	-0.307314	-0.473462
H75	H	1.103542	-0.522094	-1.115600
C76	C	0.287118	-0.539672	-0.296254
H77	H	0.318489	-0.573216	-0.270652
H78	H	0.259484	-0.584692	-0.322015
H79	H	0.257158	-0.502610	-0.264432
H80	H	0.431728	-0.515124	-0.314941
H81	H	0.961525	-0.335412	-0.646456
H82	H	0.966906	-0.342445	-0.780016
C83	C	0.921328	-0.282340	-0.964427
H84	H	0.925804	-0.288249	-0.915567
H85	H	0.874444	-0.299581	-0.974579
H86	H	0.932158	-0.217616	-0.976919
