data_functionalizedCrystal
_audit_creation_method	'MofGen! by Chris Wilmer'
_symmetry_space_group_name_H-M	'P1'
_symmetry_Int_Tables_number	1
_symmetry_cell_setting	triclinic
loop_
_symmetry_equiv_pos_as_xyz
  x,y,z
_cell_length_a	20.919309
_cell_length_b	23.196402
_cell_length_c	23.196402
_cell_angle_alpha	90.003744
_cell_angle_beta	62.591458
_cell_angle_gamma	57.445468
loop_
_atom_site_label
_atom_site_type_symbol
_atom_site_fract_x
_atom_site_fract_y
_atom_site_fract_z
Zr1	Zr	0.700773	-0.100262	0.579950
O2	O	0.834332	-0.196995	0.492580
O3	O	0.567211	-0.067358	0.603483
O4	O	0.700772	-0.192313	0.608161
O5	O	0.700773	0.022830	0.487910
O6	O	0.700773	-0.192316	0.703031
O7	O	0.700772	-0.072040	0.487902
O8	O	0.461858	0.031206	0.694664
O9	O	0.939688	-0.200692	0.496277
O10	O	0.622149	-0.057253	0.688248
O11	O	0.622149	0.013549	0.617453
O12	O	0.779399	-0.133569	0.622960
O13	O	0.779399	-0.062766	0.552166
Zr14	Zr	0.700778	0.051040	0.731270
Zr15	Zr	0.700775	-0.100267	0.731257
Zr16	Zr	0.700775	0.051045	0.579963
Zr17	Zr	0.868804	-0.106157	0.585847
Zr18	Zr	0.532747	0.056936	0.725372
O19	O	0.834339	0.018136	0.707737
O20	O	0.834336	-0.197002	0.707718
O21	O	0.834336	0.018143	0.492598
O22	O	0.567219	0.147773	0.818640
O23	O	0.567215	-0.067365	0.818622
O24	O	0.567215	0.147781	0.603502
O25	O	0.700777	-0.072052	0.823309
O26	O	0.700779	0.143091	0.703059
O27	O	0.700777	0.143094	0.608189
O28	O	0.700779	0.022818	0.823318
O29	O	0.939690	-0.200696	0.616546
O30	O	0.461860	0.151474	0.694674
O31	O	0.461862	0.151470	0.814943
O32	O	0.461860	0.031201	0.814932
O33	O	0.939690	-0.080423	0.496287
O34	O	0.939692	-0.080427	0.616556
O35	O	0.622151	0.084347	0.688260
O36	O	0.622151	0.013544	0.759054
O37	O	0.779401	-0.062771	0.693767
O38	O	0.779401	0.008032	0.622972
C39	C	0.490594	-0.017236	0.648233
C40	C	0.419260	-0.014733	0.645730
C41	C	0.700772	-0.024604	0.466348
C42	C	0.700771	-0.024602	0.402115
C43	C	0.700778	0.164650	0.655626
C44	C	0.700780	0.228884	0.655632
C45	C	0.385747	-0.050516	0.681506
C46	C	0.318717	-0.048157	0.679155
C47	C	0.285205	-0.010020	0.641024
C48	C	0.318721	0.025767	0.605247
C49	C	0.385745	0.023413	0.607602
C50	C	0.082830	-0.001057	0.632068
C51	C	0.015803	0.001294	0.629714
C52	C	0.015803	-0.072630	0.703623
C53	C	0.082833	-0.074985	0.705972
C54	C	0.116339	-0.039195	0.670198
C55	C	0.216691	-0.007610	0.638619
C56	C	0.184847	-0.041601	0.672608
C57	C	0.910957	-0.031986	0.662987
C58	C	0.982290	-0.034489	0.665490
C59	C	0.700772	-0.213872	0.655594
C60	C	0.700771	-0.278106	0.655588
C61	C	0.782860	0.219223	0.621555
C62	C	0.782861	0.279578	0.621545
C63	C	0.700777	0.349592	0.655624
C64	C	0.618686	0.359251	0.689702
C65	C	0.618687	0.298897	0.689706
C66	C	0.637890	0.475734	0.715319
C67	C	0.637893	0.536085	0.715318
C68	C	0.700770	0.535747	0.655612
C69	C	0.763661	0.475041	0.595910
C70	C	0.763662	0.414687	0.595913
C71	C	0.700767	0.415041	0.655624
C72	C	0.782858	0.591526	0.621522
C73	C	0.782856	0.651883	0.621509
C74	C	0.618678	0.731556	0.689673
C75	C	0.618683	0.671200	0.689679
C76	C	0.700775	0.601187	0.655605
C77	C	0.618690	0.015227	0.406019
C78	C	0.618689	0.015230	0.345665
C79	C	0.700773	-0.024610	0.281406
C80	C	0.782864	-0.064441	0.277505
C81	C	0.782863	-0.064437	0.337859
C82	C	0.763660	-0.088727	0.159679
C83	C	0.763658	-0.088732	0.099328
C84	C	0.700780	-0.024621	0.095253
C85	C	0.637889	0.039496	0.151543
C86	C	0.637888	0.039500	0.211897
C87	C	0.700784	-0.024618	0.215959
C88	C	0.618693	0.015215	0.033716
C89	C	0.618695	0.015219	-0.026641
C90	C	0.782872	-0.064458	-0.094800
C91	C	0.782868	-0.064456	-0.034443
C92	C	0.700775	-0.024621	0.029812
C93	C	0.700778	-0.024618	0.844871
C94	C	0.700780	-0.024620	0.909105
C95	C	0.490597	-0.017243	0.837495
C96	C	0.419264	-0.014742	0.899225
C97	C	0.490597	0.172025	0.648249
C98	C	0.419264	0.238762	0.645751
C99	C	0.490600	0.172019	0.837511
C100	C	0.419269	0.238753	0.899247
C101	C	0.910950	-0.221240	0.473709
C102	C	0.982282	-0.287975	0.411973
C103	C	0.910953	-0.031979	0.473725
C104	C	0.982286	-0.034480	0.411995
C105	C	0.910953	-0.221247	0.662970
C106	C	0.982286	-0.287984	0.665469
C107	C	0.385765	-0.050530	0.891254
C108	C	0.318749	-0.048195	0.949250
C109	C	0.285231	-0.010067	1.015217
C110	C	0.318737	0.025722	1.023187
C111	C	0.385756	0.023382	0.965191
C112	C	0.385767	0.307064	0.681538
C113	C	0.318752	0.369776	0.679189
C114	C	0.285231	0.364183	0.641056
C115	C	0.318735	0.295874	0.605264
C116	C	0.385753	0.233164	0.607610
C117	C	0.385771	0.233134	0.965198
C118	C	0.318757	0.295831	1.023212
C119	C	0.285237	0.364148	1.015271
C120	C	0.318742	0.369766	0.949313
C121	C	0.385759	0.307068	0.891301
C122	C	1.015788	-0.282356	0.346022
C123	C	1.082823	-0.345054	0.288009
C124	C	1.116346	-0.413371	0.295950
C125	C	1.082837	-0.418988	0.361908
C126	C	1.015808	-0.356291	0.419919
C127	C	1.015793	0.001301	0.419966
C128	C	1.082827	-0.001051	0.361970
C129	C	1.116348	-0.039181	0.296004
C130	C	1.082838	-0.074967	0.288034
C131	C	1.015810	-0.072618	0.346029
C132	C	1.015786	-0.282368	0.703608
C133	C	1.082802	-0.345068	0.705969
C134	C	1.116321	-0.413383	0.670185
C135	C	1.082814	-0.418997	0.632045
C136	C	1.015795	-0.356298	0.629688
H137	H	0.291431	-0.077293	0.708287
H138	H	0.551844	0.679069	0.717431
C139	C	0.978947	-0.111970	0.337255
H140	H	0.934228	-0.105117	0.381239
H141	H	0.952810	-0.092796	0.311257
H142	H	1.027067	-0.162282	0.313862
H143	H	0.988528	-0.360874	0.473619
C144	C	-0.021065	-0.111986	0.742979
H145	H	-0.065788	-0.105118	0.736122
H146	H	0.027046	-0.162296	0.726418
H147	H	-0.047217	-0.092811	0.790688
C148	C	1.119711	-0.116900	0.215468
H149	H	1.164420	-0.113162	0.182075
H150	H	1.145862	-0.166442	0.211074
H151	H	1.071593	-0.096950	0.208483
H152	H	0.814863	0.474761	0.547292
H153	H	0.230660	0.415252	0.639151
H154	H	0.413053	0.177513	0.971677
H155	H	0.988505	0.032356	0.473675
C156	C	0.281903	0.444908	0.718564
H157	H	0.237195	0.481460	0.711703
H158	H	0.255754	0.451113	0.766268
H159	H	0.330031	0.448505	0.702001
H160	H	0.849707	-0.096898	-0.147119
H161	H	0.551844	0.788563	0.717417
H162	H	0.988505	-0.226749	0.732747
C163	C	1.119663	-0.338862	0.215463
H164	H	1.090082	-0.289194	0.219048
H165	H	1.182938	-0.363076	0.192597
H166	H	1.108675	-0.360485	0.189994
H167	H	0.586687	0.585507	0.763932
H168	H	0.586674	0.091698	0.148235
H169	H	0.291484	0.291245	1.076913
H170	H	0.413053	0.311631	0.712591
C171	C	1.190074	-0.041756	0.232215
H172	H	1.205218	-0.014978	0.246416
H173	H	1.242373	-0.090674	0.206740
H174	H	1.168104	-0.021189	0.204142
H175	H	1.110076	-0.340483	0.737026
H176	H	0.849698	-0.096878	0.225182
C177	C	0.281894	-0.087556	0.940475
H178	H	0.237186	-0.080712	0.984459
H179	H	0.255745	-0.068378	0.914484
H180	H	0.330019	-0.137867	0.917074
C181	C	0.221702	-0.083548	0.714552
H182	H	0.192142	-0.104521	0.735527
H183	H	0.284980	-0.120737	0.684871
H184	H	0.210708	-0.051257	0.749147
H185	H	0.230667	0.415194	1.062514
H186	H	0.413033	0.052548	0.578468
C187	C	0.978934	-0.207216	0.337274
H188	H	1.008507	-0.212860	0.289684
H189	H	0.915657	-0.179910	0.357056
H190	H	0.989927	-0.182528	0.359673
C191	C	-0.021113	0.043297	0.587815
H192	H	0.008420	0.064295	0.566865
H193	H	-0.010161	0.011050	0.553215
H194	H	-0.084391	0.080483	0.617538
H195	H	1.170892	-0.464431	0.672110
C196	C	1.119699	-0.494146	0.592680
H197	H	1.164418	-0.530678	0.599543
H198	H	1.071596	-0.497768	0.609231
H199	H	1.145860	-0.500359	0.544971
H200	H	0.230659	-0.008167	1.062435
H201	H	0.110117	-0.106039	0.737021
H202	H	0.849707	-0.096895	-0.037626
C203	C	0.281845	0.289732	0.563330
H204	H	0.237126	0.336866	0.567071
H205	H	0.329946	0.262970	0.516391
H206	H	0.255682	0.265582	0.580673
H207	H	0.814864	-0.140941	0.053500
C208	C	0.281853	0.067666	1.095752
H209	H	0.237134	0.063937	1.129145
H210	H	0.329956	0.047738	1.102748
H211	H	0.255691	0.117210	1.100135
H212	H	1.110099	0.028093	0.368473
H213	H	0.988527	-0.360880	0.598628
H214	H	0.110100	0.028089	0.602941
C215	C	0.422608	-0.092467	0.723448
H216	H	0.467332	-0.088751	0.719723
H217	H	0.374492	-0.072530	0.770382
H218	H	0.448757	-0.142008	0.706105
C219	C	0.281861	0.067716	0.563303
H220	H	0.237151	0.063988	0.567017
H221	H	0.255715	0.117255	0.580638
H222	H	0.329985	0.047772	0.516366
C223	C	0.422587	0.158036	0.568247
H224	H	0.393014	0.163694	0.545208
H225	H	0.485865	0.130726	0.535490
H226	H	0.411587	0.133343	0.599764
H227	H	0.413023	0.052529	0.971691
H228	H	0.189399	0.023442	0.607572
C229	C	0.873153	0.268956	0.584070
H230	H	0.922043	0.218616	0.563783
H231	H	0.876576	0.290839	0.549214
H232	H	0.876549	0.290852	0.616103
C233	C	0.873155	0.142213	0.584064
H234	H	0.861403	0.107649	0.588948
H235	H	0.906879	0.135737	0.536626
H236	H	0.906885	0.135737	0.603500
H237	H	0.413055	-0.081586	0.837546
C238	C	0.528394	0.436262	0.727189
H239	H	0.479507	0.433370	0.747481
H240	H	0.524978	0.461468	0.762042
H241	H	0.524984	0.461456	0.695163
C242	C	0.832827	0.347918	0.530246
H243	H	0.823822	0.312023	0.538803
H244	H	0.824910	0.361645	0.494114
H245	H	0.892422	0.328886	0.517315
H246	H	0.849702	0.534518	0.593773
H247	H	0.849698	0.644010	0.593756
C248	C	0.281856	0.444916	0.940587
H249	H	0.237138	0.481446	0.984585
H250	H	0.329959	0.448539	0.917200
H251	H	0.255693	0.451131	0.914601
H252	H	0.413025	0.311654	0.837602
C253	C	1.190072	-0.482334	0.232135
H254	H	1.205247	-0.523829	0.246305
H255	H	1.168099	-0.481558	0.204062
H256	H	1.242364	-0.484163	0.206673
C257	C	0.568723	0.476111	0.780997
H258	H	0.577724	0.431476	0.772448
H259	H	0.576639	0.482165	0.817128
H260	H	0.509128	0.514921	0.793926
C261	C	0.528395	0.309524	0.727194
H262	H	0.479506	0.359865	0.747492
H263	H	0.524984	0.287628	0.695177
H264	H	0.524984	0.287643	0.762054
H265	H	0.551844	0.047659	0.458335
H266	H	1.110140	-0.474619	0.368366
H267	H	0.814877	-0.140935	0.162983
H268	H	0.586684	0.091707	0.257726
C269	C	0.528398	0.059040	0.349954
H270	H	0.479507	0.082761	0.396866
H271	H	0.524981	0.094131	0.327826
H272	H	0.524995	0.027247	0.327824
H273	H	0.551852	0.047658	-0.023455
C274	C	0.528399	0.059035	0.104399
H275	H	0.540154	0.053325	0.139785
H276	H	0.494671	0.108840	0.108514
H277	H	0.494673	0.041962	0.108507
H278	H	0.849705	-0.096869	0.334675
