data_functionalizedCrystal
_audit_creation_method	'MofGen! by Chris Wilmer'
_symmetry_space_group_name_H-M	'P1'
_symmetry_Int_Tables_number	1
_symmetry_cell_setting	triclinic
loop_
_symmetry_equiv_pos_as_xyz
  x,y,z
_cell_length_a	11.026607
_cell_length_b	10.654550
_cell_length_c	9.482900
_cell_angle_alpha	99.426343
_cell_angle_beta	78.636152
_cell_angle_gamma	96.535460
loop_
_atom_site_label
_atom_site_type_symbol
_atom_site_fract_x
_atom_site_fract_y
_atom_site_fract_z
O1	O	1.633381	0.511463	-0.120893
O2	O	1.279571	0.451467	-0.120895
O3	O	1.464610	0.300492	-0.120889
O4	O	1.448342	0.662438	-0.120899
O5	O	1.427025	0.331316	0.120903
O6	O	1.241986	0.482291	0.120896
O7	O	1.595797	0.542287	0.120898
Cu8	Cu	1.415460	0.515103	0.142975
Cu9	Cu	1.459908	0.478650	-0.142971
O10	O	1.410758	0.693262	0.120892
C11	C	1.215474	0.455811	0.000000
C12	C	1.080483	0.422816	-0.000001
C13	C	1.007444	0.513919	-0.000004
C14	C	0.867923	0.479820	-0.000005
C15	C	1.444623	0.268847	0.000005
C16	C	1.441050	0.128627	0.000000
C17	C	1.549998	0.072791	0.000005
C18	C	1.546634	-0.058961	-0.000005
C19	C	1.325364	-0.079031	-0.000019
C20	C	1.328730	0.052718	-0.000019
C21	C	1.662318	0.148701	0.000025
C22	C	1.771274	0.092866	0.000031
C23	C	1.767910	-0.038887	0.000021
C24	C	1.655590	-0.114805	0.000004
C25	C	1.659894	0.537943	-0.000000
C26	C	1.794887	0.570936	-0.000009
C27	C	1.430745	0.724907	-0.000005
C28	C	1.434319	0.865125	-0.000010
N29	N	1.384206	0.540743	0.344094
N30	N	1.491171	0.453003	-0.344091
C31	C	1.450681	0.486205	0.416295
C32	C	1.424686	0.507549	0.583712
H33	H	0.827174	0.376567	-0.000039
H34	H	1.308046	0.603233	0.406221
H35	H	1.048204	0.617161	0.000001
C36	C	0.977465	0.717120	-0.000062
C37	C	0.849896	0.710316	-0.000047
H38	H	1.011425	0.803164	-0.000105
H39	H	0.990647	0.687188	0.084263
H40	H	1.016842	0.665636	-0.084373
H41	H	0.810517	0.761793	0.084270
H42	H	0.836705	0.740264	-0.084382
C43	C	1.221956	-0.289906	-0.000009
C44	C	1.201904	-0.162475	-0.000019
H45	H	1.145733	-0.341415	0.000004
H46	H	1.279958	-0.318116	-0.084322
H47	H	1.253759	-0.296609	0.084315
H48	H	1.170110	-0.155771	-0.084349
H49	H	1.143882	-0.134257	0.084302
C50	C	1.109674	0.019657	-0.000024
C51	C	1.208974	0.114102	-0.000023
H52	H	1.035741	0.057557	-0.000023
H53	H	1.126070	-0.042058	-0.084334
H54	H	1.099856	-0.020564	0.084303
H55	H	1.218798	0.154318	-0.084355
H56	H	1.192575	0.175840	0.084296
C57	C	1.922741	0.236846	-0.124244
C58	C	1.894732	0.176312	0.000043
H59	H	1.998957	0.288366	-0.124232
H60	H	1.929942	0.174290	-0.208550
H61	H	1.858326	0.288953	-0.124226
H62	H	1.959143	0.124198	0.000019
H63	H	1.887539	0.238876	0.084370
C64	C	1.527010	0.278327	0.369044
C65	C	1.553496	0.401858	0.332399
H66	H	1.590485	0.226262	0.317233
H67	H	1.523059	0.281585	0.470530
H68	H	1.449529	0.243351	0.344197
H69	H	1.630973	0.436838	0.357256
H70	H	1.557460	0.398605	0.230891
H71	H	1.348521	0.570043	0.645833
C72	C	1.567253	0.245082	0.609146
C73	C	1.593953	0.368513	0.572240
H74	H	1.630694	0.192890	0.557537
H75	H	1.563178	0.248494	0.710674
H76	H	1.489784	0.210147	0.584230
H77	H	1.671418	0.403452	0.597165
H78	H	1.598041	0.365106	0.470689
C79	C	1.083566	0.207605	-0.124291
C80	C	1.025475	0.283438	0.000001
H81	H	1.049613	0.121556	-0.124282
H82	H	1.070372	0.237568	-0.208593
H83	H	1.170109	0.212249	-0.124276
H84	H	0.938933	0.278802	-0.000019
H85	H	1.038659	0.253466	0.084325
H86	H	1.665069	0.255982	0.000038
H87	H	1.856630	-0.084345	0.000012
H88	H	1.652862	-0.222088	-0.000019
