data_functionalizedCrystal
_audit_creation_method	'MofGen! by Chris Wilmer'
_symmetry_space_group_name_H-M	'P1'
_symmetry_Int_Tables_number	1
_symmetry_cell_setting	triclinic
loop_
_symmetry_equiv_pos_as_xyz
  x,y,z
_cell_length_a	15.944551
_cell_length_b	11.792241
_cell_length_c	10.268362
_cell_angle_alpha	89.999703
_cell_angle_beta	90.000094
_cell_angle_gamma	96.153923
loop_
_atom_site_label
_atom_site_type_symbol
_atom_site_fract_x
_atom_site_fract_y
_atom_site_fract_z
O1	O	-1.115185	0.146381	-0.108150
O2	O	-0.781851	0.479714	0.225184
O3	O	-0.448518	0.813047	0.558517
O4	O	-0.870717	0.164428	-0.108180
O5	O	-0.537383	0.497761	0.225153
O6	O	-0.204050	0.831094	0.558486
O7	O	-0.998883	-0.009815	-0.108172
O8	O	-0.665550	0.323518	0.225161
O9	O	-0.332217	0.656851	0.558494
O10	O	-0.987018	0.320624	-0.108158
O11	O	-0.653685	0.653957	0.225175
O12	O	-0.320351	0.987290	0.558509
O13	O	-0.998872	-0.009822	0.108428
O14	O	-0.665539	0.323511	0.441762
O15	O	-0.332205	0.656844	0.775095
O16	O	-0.870705	0.164421	0.108420
O17	O	-0.537372	0.497754	0.441754
O18	O	-0.204039	0.831087	0.775087
O19	O	-1.115173	0.146373	0.108451
O20	O	-0.781840	0.479707	0.441784
O21	O	-0.448507	0.813040	0.775118
Cu22	Cu	-0.992938	0.155396	0.128213
Cu23	Cu	-0.659605	0.488730	0.461546
Cu24	Cu	-0.326272	0.822063	0.794880
Cu25	Cu	-0.992952	0.155405	-0.127942
Cu26	Cu	-0.659618	0.488738	0.205391
Cu27	Cu	-0.326285	0.822071	0.538724
O28	O	-0.987007	0.320616	0.108443
O29	O	-0.653673	0.653950	0.441776
O30	O	-0.320340	0.987283	0.775109
C31	C	-0.839414	0.163675	0.000116
C32	C	-0.506080	0.497008	0.333449
C33	C	-0.172747	0.830342	0.666782
C34	C	-0.746157	0.161429	0.000103
C35	C	-0.412824	0.494762	0.333437
C36	C	-0.079491	0.828095	0.666770
C37	C	-1.146476	0.147126	0.000152
C38	C	-0.813143	0.480460	0.333485
C39	C	-0.479810	0.813793	0.666818
C40	C	-1.239733	0.149372	0.000156
C41	C	-0.906399	0.482706	0.333489
C42	C	-0.573066	0.816039	0.666822
C43	C	-0.987758	0.362905	0.000144
C44	C	-0.654424	0.696238	0.333478
C45	C	-0.321091	1.029571	0.666811
C46	C	-0.989989	0.488900	0.000150
C47	C	-0.656655	0.822233	0.333484
C48	C	-0.323322	1.155567	0.666817
C49	C	-0.530789	0.048056	0.000124
C50	C	-0.197456	0.381389	0.333457
C51	C	0.135878	0.714723	0.666790
C52	C	-0.470012	0.100706	-0.106670
C53	C	-0.136679	0.434039	0.226664
C54	C	0.196655	0.767373	0.559997
C55	C	-0.575413	0.157365	0.000119
C56	C	-0.242080	0.490699	0.333452
C57	C	0.091253	0.824032	0.666785
C58	C	-0.470023	0.100725	0.106882
C59	C	-0.136690	0.434058	0.440215
C60	C	0.196643	0.767392	0.773548
C61	C	-0.410483	0.153432	0.000139
C62	C	-0.077149	0.486766	0.333472
C63	C	0.256184	0.820099	0.666806
C64	C	-0.515864	0.210045	-0.106763
C65	C	-0.182531	0.543379	0.226570
C66	C	0.150802	0.876712	0.559904
C67	C	-0.515882	0.210049	0.106884
C68	C	-0.182549	0.543382	0.440218
C69	C	0.150785	0.876716	0.773551
C70	C	-0.455123	0.262778	0.000065
C71	C	-0.121790	0.596112	0.333398
C72	C	0.211544	0.929445	0.666732
C73	C	-0.670426	0.159628	0.000106
C74	C	-0.337092	0.492961	0.333439
C75	C	-0.003759	0.826295	0.666772
C76	C	-0.315471	0.151178	0.000142
C77	C	0.017862	0.484511	0.333476
C78	C	0.351195	0.817845	0.666809
C79	C	-0.998132	-0.052104	0.000123
C80	C	-0.664799	0.281230	0.333457
C81	C	-0.331466	0.614563	0.666790
C82	C	-0.995901	-0.178099	0.000109
C83	C	-0.662568	0.155234	0.333442
C84	C	-0.329235	0.488568	0.666775
N85	N	-0.992935	0.155390	0.308379
N86	N	-0.659602	0.488723	0.641712
N87	N	-0.326268	0.822056	0.975045
C88	C	-0.994091	0.719579	0.000118
C89	C	-0.660757	1.052912	0.333451
C90	C	-0.327424	1.386245	0.666785
C91	C	-0.991811	0.591212	0.000136
C92	C	-0.658478	0.924545	0.333469
C93	C	-0.325145	1.257879	0.666802
N94	N	-0.992961	0.155402	-0.308108
N95	N	-0.659628	0.488736	0.025225
N96	N	-0.326295	0.822069	0.358558
C97	C	-0.992947	0.155403	0.574049
C98	C	-0.659614	0.488736	0.907383
C99	C	-0.326281	0.822069	1.240716
C100	C	-0.992938	0.155399	0.426211
C101	C	-0.659605	0.488732	0.759545
C102	C	-0.326271	0.822065	1.092878
H103	H	-0.563713	-0.042662	-0.000012
H104	H	-0.230379	0.290672	0.333321
H105	H	0.102954	0.624005	0.666654
H106	H	-0.449698	0.054476	-0.196960
H107	H	-0.116365	0.387809	0.136374
H108	H	0.216969	0.721142	0.469707
F109	F	-0.542464	0.270426	0.224906
F110	F	-0.209131	0.603760	0.558239
F111	F	0.124203	0.937093	0.891572
F112	F	-0.542265	0.270435	-0.224902
F113	F	-0.208932	0.603768	0.108431
F114	F	0.124402	0.937101	0.441764
F115	F	-0.412315	0.381473	-0.000005
F116	F	-0.078982	0.714807	0.333329
F117	F	0.254352	1.048140	0.666662
F118	F	-0.443492	0.040268	0.224889
F119	F	-0.110158	0.373601	0.558222
F120	F	0.223175	0.706934	0.891556
