data_functionalizedCrystal
_audit_creation_method	'MofGen! by Chris Wilmer'
_symmetry_space_group_name_H-M	'P1'
_symmetry_Int_Tables_number	1
_symmetry_cell_setting	triclinic
loop_
_symmetry_equiv_pos_as_xyz
  x,y,z
_cell_length_a	16.109301
_cell_length_b	23.532407
_cell_length_c	14.586319
_cell_angle_alpha	89.991566
_cell_angle_beta	89.999213
_cell_angle_gamma	83.155079
loop_
_atom_site_label
_atom_site_type_symbol
_atom_site_fract_x
_atom_site_fract_y
_atom_site_fract_z
O1	O	1.102555	0.073202	-0.076192
O2	O	0.860422	0.082312	-0.076208
O3	O	0.988790	-0.005148	-0.076183
O4	O	0.974187	0.160662	-0.076217
O5	O	0.988781	-0.005149	0.076298
O6	O	0.860413	0.082311	0.076273
O7	O	1.102546	0.073201	0.076289
Cu8	Cu	0.981479	0.077756	0.090204
Cu9	Cu	0.981489	0.077757	-0.090123
O10	O	0.974178	0.160660	0.076264
C11	C	0.829445	0.081942	0.000031
C12	C	0.737159	0.080836	0.000026
C13	C	0.514498	0.130160	0.000026
C14	C	0.427786	0.129116	0.000032
C15	C	0.448476	0.025348	0.000050
C16	C	0.535187	0.026393	0.000050
C17	C	0.568195	0.078801	0.000034
C18	C	0.394773	0.076712	0.000039
C19	C	0.300755	0.075580	0.000046
C20	C	0.662218	0.079933	0.000029
C21	C	0.988414	-0.026366	0.000060
C22	C	0.987296	-0.089587	0.000067
C23	C	1.056249	-0.488436	0.000021
C24	C	1.055210	-0.547840	0.000014
O25	O	1.119130	-0.584349	-0.000015
N26	N	0.978895	-0.570748	0.000010
C27	C	0.903614	-0.534248	0.000003
O28	O	0.838607	-0.559187	-0.000002
C29	C	0.904654	-0.474845	0.000004
C30	C	0.980973	-0.451941	0.000018
C31	C	1.132562	-0.465531	0.000034
C32	C	1.133601	-0.406131	0.000043
C33	C	1.058325	-0.369636	0.000039
C34	C	0.982012	-0.392541	0.000026
C35	C	0.829373	-0.438346	-0.000009
C36	C	0.830419	-0.378940	-0.000009
C37	C	0.906739	-0.356036	0.000004
C38	C	0.907774	-0.296645	0.000031
N39	N	0.984089	-0.273738	0.000035
C40	C	1.059365	-0.310233	0.000039
C41	C	0.901437	-0.658998	0.000001
C42	C	0.900396	-0.718400	0.000007
C43	C	1.051993	-0.731988	0.000016
C44	C	1.053032	-0.672585	0.000017
C45	C	0.977752	-0.636091	0.000005
C46	C	1.061539	-0.185488	0.000058
C47	C	1.062571	-0.126082	0.000071
C48	C	0.910975	-0.112499	0.000057
C49	C	0.909943	-0.171900	0.000049
C50	C	0.985232	-0.208394	0.000047
O51	O	0.843888	-0.260102	0.000057
O52	O	1.124361	-0.285285	0.000032
C53	C	1.133523	0.073570	0.000048
C54	C	1.225809	0.074677	0.000047
C55	C	0.974554	0.181878	0.000019
C56	C	0.975672	0.245100	0.000006
N57	N	0.981477	0.077754	0.217035
N58	N	0.981497	0.077754	-0.216954
C59	C	1.038338	0.039040	0.452053
C60	C	1.038340	0.039039	0.548034
C61	C	0.924631	0.116470	0.548021
C62	C	0.924625	0.116468	0.452042
C63	C	0.981483	0.077754	0.404060
C64	C	0.981491	0.077754	0.596021
C65	C	0.981494	0.077753	0.700088
C66	C	0.981480	0.077754	0.299986
H67	H	0.541371	0.172834	0.000019
H68	H	0.878324	0.147994	0.412964
H69	H	0.384069	0.170939	0.000028
O70	O	0.416271	-0.025508	0.000018
C71	C	0.328224	-0.015418	0.000036
H72	H	0.307491	0.029029	-0.028838
H73	H	0.301878	-0.048949	-0.044229
H74	H	0.304105	-0.018177	0.073189
O75	O	0.869324	0.154098	0.594491
C76	C	0.819153	0.188276	0.531546
H77	H	0.818405	0.164925	0.463135
H78	H	0.752688	0.196949	0.559280
H79	H	0.845792	0.230589	0.521324
H80	H	0.767225	-0.456984	-0.000026
O81	O	0.587320	-0.023517	-0.000106
C82	C	0.572415	-0.055340	-0.079061
H83	H	0.542525	-0.025270	-0.134263
H84	H	0.634134	-0.078185	-0.105563
H85	H	0.528536	-0.088300	-0.061202
O86	O	1.136785	-0.103929	0.000040
C87	C	1.202999	-0.148883	0.000061
H88	H	1.180035	-0.189230	-0.028814
H89	H	1.256315	-0.136469	-0.044204
H90	H	1.226191	-0.157301	0.073214
O91	O	0.757212	-0.343571	0.000020
C92	C	0.689636	-0.376531	-0.000017
H93	H	0.711117	-0.420870	0.028850
H94	H	0.636916	-0.354622	0.044245
H95	H	0.666231	-0.380751	-0.073175
O96	O	1.207812	-0.383981	0.000008
C97	C	1.274019	-0.428940	0.000031
H98	H	1.251047	-0.469285	-0.028839
H99	H	1.327337	-0.416532	-0.044236
H100	H	1.297212	-0.437357	0.073184
O101	O	1.205670	-0.501000	-0.000123
C102	C	1.209619	-0.535773	-0.079080
H103	H	1.166920	-0.514019	-0.134284
H104	H	1.276649	-0.542445	-0.105577
H105	H	1.188482	-0.578974	-0.061227
O106	O	1.134620	-0.220990	0.000183
C107	C	1.138564	-0.255757	0.079163
H108	H	1.072598	-0.258768	0.105480
H109	H	1.169927	-0.300401	0.061403
H110	H	1.176356	-0.236218	0.134469
H111	H	1.115179	-0.653941	0.000027
H112	H	1.113286	-0.761714	0.000016
H113	H	0.838249	-0.737043	0.000012
H114	H	0.840130	-0.629287	-0.000001
H115	H	0.847797	-0.190549	0.000064
H116	H	0.849688	-0.082774	0.000057
H117	H	1.084635	0.007514	0.587107
O118	O	1.093593	0.001376	0.405585
C119	C	1.143787	-0.032785	0.468531
H120	H	1.109710	-0.033432	0.536952
H121	H	1.156844	-0.078265	0.440814
H122	H	1.205395	-0.014282	0.478729
