data_functionalizedCrystal
_audit_creation_method	'MofGen! by Chris Wilmer'
_symmetry_space_group_name_H-M	'P1'
_symmetry_Int_Tables_number	1
_symmetry_cell_setting	triclinic
loop_
_symmetry_equiv_pos_as_xyz
  x,y,z
_cell_length_a	15.995280
_cell_length_b	15.995350
_cell_length_c	15.072220
_cell_angle_alpha	89.999577
_cell_angle_beta	89.996905
_cell_angle_gamma	83.477986
loop_
_atom_site_label
_atom_site_type_symbol
_atom_site_fract_x
_atom_site_fract_y
_atom_site_fract_z
O1	O	-1.111020	-0.107643	0.073793
O2	O	-0.867237	-0.121033	0.073791
O3	O	-0.995792	0.007551	0.073791
O4	O	-0.982464	-0.236227	0.073793
O5	O	-0.995786	0.007551	-0.073774
O6	O	-0.867230	-0.121033	-0.073774
O7	O	-1.111014	-0.107644	-0.073772
Zn8	Zn	-0.989121	-0.114339	-0.097202
Zn9	Zn	-0.989129	-0.114338	0.097221
O10	O	-0.982458	-0.236228	-0.073773
C11	C	-0.836038	-0.120490	0.000008
C12	C	-0.743084	-0.118861	0.000007
N13	N	-0.989121	-0.114339	-0.229891
C14	C	-0.995238	0.038746	0.000010
C15	C	-0.993586	0.131696	0.000015
C16	C	-0.405344	-0.112875	0.000020
C17	C	-0.428656	-0.205678	0.000350
C18	C	-0.525332	-0.207438	0.000013
C19	C	-0.572901	-0.115846	0.000014
C20	C	-0.543795	-0.069449	-0.084250
C21	C	-0.447004	-0.068337	-0.084316
C22	C	-0.447156	-0.066441	0.083494
C23	C	-0.543649	-0.069876	0.084603
C24	C	-0.667597	-0.117519	0.000008
C25	C	-0.310647	-0.111199	0.000021
C26	C	-0.142211	-0.108198	0.000014
C27	C	-0.235160	-0.109859	0.000027
C28	C	-0.983012	-0.267422	0.000010
C29	C	-0.984664	-0.360372	0.000011
C30	C	-0.987654	0.469442	0.000012
C31	C	-0.896099	0.421984	0.000342
C32	C	-0.897751	0.325295	0.000010
C33	C	-0.990596	0.301882	0.000014
C34	C	-1.035751	0.342970	-0.084251
C35	C	-1.033451	0.439605	-0.084321
C36	C	-1.035350	0.439965	0.083488
C37	C	-1.035328	0.343019	0.084601
C38	C	-0.992264	0.207185	0.000012
C39	C	-0.985989	0.564139	0.000008
N40	N	-0.989136	-0.114331	0.229910
C41	C	-0.989126	-0.114337	0.589111
C42	C	-1.057837	-0.045463	0.551477
C43	C	-1.058084	-0.045639	0.448651
C44	C	-0.989131	-0.114333	0.410907
C45	C	-1.007987	-0.201761	0.448236
C46	C	-1.008477	-0.201359	0.551093
C47	C	-0.901353	-0.096567	0.551202
C48	C	-0.901941	-0.094580	0.448338
C49	C	-0.989132	-0.114337	0.310194
C50	C	-0.989127	-0.114339	0.689825
H51	H	-0.400663	-0.241450	0.060780
N52	N	-0.847830	0.447913	-0.079255
H53	H	-0.844537	0.510567	-0.077182
H54	H	-0.877558	0.433352	-0.135335
N55	N	-0.570358	-0.112121	-0.167322
H56	H	-0.601237	-0.161496	-0.150566
H57	H	-0.518893	-0.132627	-0.203430
H58	H	-0.544362	-0.243769	0.060419
H59	H	-0.960189	-0.254039	0.575989
H60	H	-0.959262	-0.254253	0.423788
H61	H	-0.848430	-0.141478	0.422649
N62	N	-1.091796	-0.222972	0.414116
H63	H	-1.117664	-0.176077	0.374488
H64	H	-1.130520	-0.229907	0.465871
H65	H	-0.399635	-0.241253	-0.059740
H66	H	-0.433163	0.001869	0.084065
H67	H	-0.543733	-0.243994	-0.060494
H68	H	-1.102853	0.471743	0.084057
N69	N	-0.877272	-0.013916	0.585563
H70	H	-0.923022	0.012847	0.626059
H71	H	-0.869957	0.024885	0.533972
H72	H	-0.420184	-0.100471	-0.147306
H73	H	-0.576619	-0.003023	0.089693
H74	H	-0.850223	-0.146792	0.575540
N75	N	-0.847623	0.446523	0.080381
H76	H	-0.796142	0.472486	0.060268
H77	H	-0.829770	0.394853	0.117262
H78	H	-0.887628	-0.030264	0.423941
H79	H	-0.862012	0.297421	-0.060498
N80	N	-0.427720	0.021790	-0.089383
H81	H	-0.482075	0.060621	-0.091569
H82	H	-0.393745	0.029722	-0.144614
N83	N	-0.850734	0.287632	0.080021
H84	H	-0.878464	0.312177	0.135879
H85	H	-0.790527	0.300895	0.077748
N86	N	-1.093263	-0.222045	0.582876
H87	H	-1.094431	-0.221988	0.649875
H88	H	-1.103380	-0.279469	0.560241
H89	H	-1.004384	0.314581	-0.146961
H90	H	-0.575663	-0.002050	-0.087382
H91	H	-1.046890	0.019344	0.423413
H92	H	-0.562221	-0.103657	0.146941
N93	N	-0.409732	-0.104942	0.168100
H94	H	-0.365288	-0.152880	0.153172
H95	H	-0.455488	-0.126824	0.204664
H96	H	-1.100669	0.471871	-0.088142
N97	N	-0.989820	0.463835	-0.167756
H98	H	-0.938394	0.491754	-0.151428
H99	H	-1.029629	0.504187	-0.203565
N100	N	-1.126108	0.324296	-0.088375
H101	H	-1.127853	0.261426	-0.091053
H102	H	-1.153868	0.351365	-0.143047
N103	N	-0.995711	0.467161	0.168092
H104	H	-0.946429	0.498871	0.153162
H105	H	-0.975542	0.415901	0.204657
H106	H	-1.002314	0.315763	0.146938
H107	H	-1.103035	0.327675	0.089692
N108	N	-1.043248	0.040905	0.584220
H109	H	-0.991960	0.036229	0.623773
H110	H	-1.094014	0.066068	0.618882
N111	N	-1.143630	-0.060258	0.585774
H112	H	-1.138181	-0.111386	0.625576
H113	H	-1.181639	-0.069787	0.534123
H114	H	-1.123224	-0.057010	0.424043
