data_functionalizedCrystal
_audit_creation_method	'MofGen! by Chris Wilmer'
_symmetry_space_group_name_H-M	'P1'
_symmetry_Int_Tables_number	1
_symmetry_cell_setting	triclinic
loop_
_symmetry_equiv_pos_as_xyz
  x,y,z
_cell_length_a	19.077115
_cell_length_b	19.076808
_cell_length_c	19.076919
_cell_angle_alpha	89.878360
_cell_angle_beta	90.076897
_cell_angle_gamma	89.927626
loop_
_atom_site_label
_atom_site_type_symbol
_atom_site_fract_x
_atom_site_fract_y
_atom_site_fract_z
Zn1	Zn	1.045198	-0.339419	-0.426227
Zn2	Zn	1.295198	-0.089419	-0.176227
Zn3	Zn	1.545198	0.160581	0.073773
Zn4	Zn	1.795198	0.410581	0.323773
Zn5	Zn	1.045494	-0.452226	-0.304008
Zn6	Zn	1.295494	-0.202226	-0.054008
Zn7	Zn	1.545494	0.047774	0.195992
Zn8	Zn	1.795494	0.297774	0.445992
Zn9	Zn	0.932778	-0.330021	-0.304414
Zn10	Zn	1.182778	-0.080021	-0.054414
Zn11	Zn	1.432778	0.169979	0.195586
Zn12	Zn	1.682778	0.419979	0.445586
Zn13	Zn	0.923332	-0.451803	-0.416779
Zn14	Zn	1.173332	-0.201803	-0.166779
Zn15	Zn	1.423332	0.048197	0.083221
Zn16	Zn	1.673332	0.298197	0.333221
O17	O	0.986700	-0.393367	-0.362857
O18	O	1.236700	-0.143367	-0.112857
O19	O	1.486700	0.106633	0.137143
O20	O	1.736700	0.356633	0.387143
O21	O	1.143411	-0.358494	-0.413798
O22	O	1.393411	-0.108494	-0.163798
O23	O	1.643411	0.141506	0.086202
O24	O	1.893411	0.391506	0.336202
O25	O	1.034619	-0.432259	-0.205887
O26	O	1.284619	-0.182259	0.044113
O27	O	1.534619	0.067741	0.294113
O28	O	1.784619	0.317741	0.544113
O29	O	0.951520	-0.233091	-0.324697
O30	O	1.201520	0.016909	-0.074697
O31	O	1.451520	0.266909	0.175303
O32	O	1.701520	0.516909	0.425303
O33	O	1.143628	-0.441373	-0.324004
O34	O	1.393628	-0.191373	-0.074004
O35	O	1.643628	0.058627	0.175996
O36	O	1.893628	0.308627	0.425996
O37	O	1.034115	-0.239996	-0.414192
O38	O	1.284115	0.010004	-0.164192
O39	O	1.534115	0.260004	0.085808
O40	O	1.784115	0.510004	0.335808
O41	O	0.951807	-0.342475	-0.206186
O42	O	1.201807	-0.092475	0.043814
O43	O	1.451807	0.157525	0.293814
O44	O	1.701807	0.407525	0.543814
O45	O	0.833352	-0.342065	-0.315536
O46	O	1.083352	-0.092065	-0.065536
O47	O	1.333352	0.157935	0.184464
O48	O	1.583352	0.407935	0.434464
O49	O	0.935421	-0.440651	-0.516207
O50	O	1.185421	-0.190651	-0.266207
O51	O	1.435421	0.059349	-0.016207
O52	O	1.685421	0.309349	0.233793
O53	O	0.826411	-0.431538	-0.398090
O54	O	1.076411	-0.181538	-0.148090
O55	O	1.326411	0.068462	0.101910
O56	O	1.576411	0.318462	0.351910
O57	O	1.024955	-0.358083	-0.523148
O58	O	1.274955	-0.108083	-0.273148
O59	O	1.524955	0.141917	-0.023148
O60	O	1.774955	0.391917	0.226852
O61	O	1.025459	-0.550347	-0.314843
O62	O	1.275459	-0.300347	-0.064843
O63	O	1.525459	-0.050347	0.185157
O64	O	1.775459	0.199653	0.435157
O65	O	0.935707	-0.550036	-0.397696
O66	O	1.185707	-0.300036	-0.147696
O67	O	1.435707	-0.050036	0.102304
O68	O	1.685707	0.199964	0.352304
C69	C	0.804426	-0.385736	-0.355832
C70	C	1.054426	-0.135736	-0.105832
C71	C	1.304426	0.114264	0.144168
C72	C	1.554426	0.364264	0.394168
C73	C	0.726447	-0.382489	-0.352843
C74	C	0.976447	-0.132489	-0.102843
C75	C	1.226447	0.117511	0.147157
C76	C	1.476447	0.367511	0.397157
C77	C	0.287895	-0.359170	-0.331412
C78	C	0.537895	-0.109170	-0.081412
C79	C	0.787895	0.140830	0.168588
C80	C	1.037895	0.390830	0.418588
C81	C	0.361164	-0.362225	-0.334224
C82	C	0.611164	-0.112225	-0.084224
C83	C	0.861164	0.137775	0.165776
C84	C	1.111164	0.387775	0.415776
C85	C	0.394201	-0.410408	-0.378536
C86	C	0.644201	-0.160408	-0.128536
C87	C	0.894201	0.089592	0.121464
C88	C	1.144201	0.339592	0.371464
C89	C	0.353966	-0.455533	-0.420043
C90	C	0.603966	-0.205533	-0.170043
C91	C	0.853966	0.044467	0.079957
C92	C	1.103966	0.294467	0.329957
C93	C	0.280698	-0.452474	-0.417234
C94	C	0.530698	-0.202474	-0.167234
C95	C	0.780698	0.047526	0.082766
C96	C	1.030698	0.297526	0.332766
C97	C	0.612943	-0.424556	-0.391542
C98	C	0.862943	-0.174556	-0.141542
C99	C	1.112943	0.075444	0.108458
C100	C	1.362943	0.325444	0.358458
C101	C	0.686217	-0.427613	-0.394346
C102	C	0.936217	-0.177613	-0.144346
C103	C	1.186217	0.072387	0.105654
C104	C	1.436217	0.322387	0.355654
C105	C	0.693410	-0.334303	-0.308527
C106	C	0.943410	-0.084303	-0.058527
C107	C	1.193410	0.165697	0.191473
C108	C	1.443410	0.415697	0.441473
C109	C	0.620140	-0.331252	-0.305719
C110	C	0.870140	-0.081252	-0.055719
C111	C	1.120140	0.168748	0.194281
C112	C	1.370140	0.418748	0.444281
C113	C	0.579911	-0.376375	-0.347229
C114	C	0.829911	-0.126375	-0.097229
C115	C	1.079911	0.123625	0.152771
C116	C	1.329911	0.373625	0.402771
N117	N	0.469094	-0.413533	-0.381410
N118	N	0.719094	-0.163533	-0.131410
N119	N	0.969094	0.086467	0.118590
N120	N	1.219094	0.336467	0.368590
N121	N	0.505019	-0.373245	-0.344358
N122	N	0.755019	-0.123245	-0.094358
N123	N	1.005019	0.126755	0.155642
N124	N	1.255019	0.376755	0.405642
C125	C	0.979609	-0.575649	-0.355216
C126	C	1.229609	-0.325649	-0.105216
C127	C	1.479609	-0.075649	0.144784
C128	C	1.729609	0.174351	0.394784
C129	C	0.976638	-0.653633	-0.351974
C130	C	1.226638	-0.403633	-0.101974
C131	C	1.476638	-0.153633	0.148026
C132	C	1.726638	0.096367	0.398026
C133	C	1.018210	-0.693805	-0.397080
C134	C	1.268210	-0.443805	-0.147080
C135	C	1.518210	-0.193805	0.102920
C136	C	1.768210	0.056195	0.352920
C137	C	1.015415	-0.767079	-0.394035
C138	C	1.265415	-0.517079	-0.144035
C139	C	1.515415	-0.267079	0.105965
C140	C	1.765415	-0.017079	0.355965
C141	C	0.971053	-0.800181	-0.345878
C142	C	1.221053	-0.550181	-0.095878
C143	C	1.471053	-0.300181	0.154122
C144	C	1.721053	-0.050181	0.404122
C145	C	0.929476	-0.760004	-0.300769
C146	C	1.179476	-0.510004	-0.050769
C147	C	1.429476	-0.260004	0.199231
C148	C	1.679476	-0.010004	0.449231
C149	C	0.932267	-0.686730	-0.303819
C150	C	1.182267	-0.436730	-0.053819
C151	C	1.432267	-0.186730	0.196181
C152	C	1.682267	0.063270	0.446181
C153	C	0.958095	-1.018945	-0.331760
C154	C	1.208095	-0.768945	-0.081760
C155	C	1.458095	-0.518945	0.168240
C156	C	1.708095	-0.268945	0.418240
C157	C	0.955308	-1.092223	-0.328712
C158	C	1.205308	-0.842223	-0.078712
C159	C	1.455308	-0.592223	0.171288
C160	C	1.705308	-0.342223	0.421288
C161	C	1.041247	-1.099294	-0.421979
C162	C	1.291247	-0.849294	-0.171979
C163	C	1.541247	-0.599294	0.078021
C164	C	1.791247	-0.349294	0.328021
C165	C	1.044037	-1.026019	-0.425021
C166	C	1.294037	-0.776019	-0.175021
C167	C	1.544037	-0.526019	0.074979
C168	C	1.794037	-0.276019	0.324979
C169	C	1.002458	-0.985849	-0.379915
C170	C	1.252458	-0.735849	-0.129915
C171	C	1.502458	-0.485849	0.120085
C172	C	1.752458	-0.235849	0.370085
N173	N	0.968197	-0.875079	-0.342762
N174	N	1.218197	-0.625079	-0.092762
N175	N	1.468197	-0.375079	0.157238
N176	N	1.718197	-0.125079	0.407238
N177	N	1.005310	-0.910952	-0.383035
N178	N	1.255310	-0.660952	-0.133035
N179	N	1.505310	-0.410952	0.116965
N180	N	1.755310	-0.160952	0.366965
C181	C	1.169686	-0.401029	-0.369909
C182	C	1.419686	-0.151029	-0.119909
C183	C	1.669686	0.098971	0.130091
C184	C	1.919686	0.348971	0.380091
C185	C	1.247664	-0.404294	-0.372915
C186	C	1.497664	-0.154294	-0.122915
C187	C	1.747664	0.095706	0.127085
C188	C	1.997664	0.345706	0.377085
C189	C	0.979101	-0.400369	-0.545845
C190	C	1.229101	-0.150369	-0.295845
C191	C	1.479101	0.099631	-0.045845
C192	C	1.729101	0.349631	0.204155
C193	C	0.975863	-0.403352	-0.623823
C194	C	1.225863	-0.153352	-0.373823
C195	C	1.475863	0.096648	-0.123823
C196	C	1.725863	0.346648	0.126177
C197	C	0.993838	-0.210375	-0.370543
C198	C	1.243838	0.039625	-0.120543
C199	C	1.493838	0.289625	0.129457
C200	C	1.743838	0.539625	0.379457
C201	C	0.996880	-0.132395	-0.373819
C202	C	1.246880	0.117605	-0.123819
C203	C	1.496880	0.367605	0.126181
C204	C	1.746880	0.617605	0.376181
C205	C	1.020955	-0.361767	-0.664072
C206	C	1.270955	-0.111767	-0.414072
C207	C	1.520955	0.138233	-0.164072
C208	C	1.770955	0.388233	0.085928
C209	C	1.017904	-0.364567	-0.737341
C210	C	1.267904	-0.114567	-0.487341
C211	C	1.517904	0.135433	-0.237341
C212	C	1.767904	0.385433	0.012659
C213	C	0.969764	-0.408957	-0.770360
C214	C	1.219764	-0.158957	-0.520360
C215	C	1.469764	0.091043	-0.270360
C216	C	1.719764	0.341043	-0.020360
C217	C	0.924667	-0.450544	-0.730105
C218	C	1.174667	-0.200544	-0.480105
C219	C	1.424667	0.049456	-0.230105
C220	C	1.674667	0.299456	0.019895
C221	C	0.927715	-0.447739	-0.656837
C222	C	1.177715	-0.197739	-0.406837
C223	C	1.427715	0.052261	-0.156837
C224	C	1.677715	0.302261	0.093163
C225	C	0.955645	-0.421951	-0.989098
C226	C	1.205645	-0.171951	-0.739098
C227	C	1.455645	0.078049	-0.489098
C228	C	1.705645	0.328049	-0.239098
C229	C	0.952602	-0.424754	-1.062371
C230	C	1.202602	-0.174754	-0.812371
C231	C	1.452602	0.075246	-0.562371
C232	C	1.702602	0.325246	-0.312371
C233	C	1.045839	-0.338776	-1.069602
C234	C	1.295839	-0.088776	-0.819602
C235	C	1.545839	0.161224	-0.569602
C236	C	1.795839	0.411224	-0.319602
C237	C	1.048886	-0.335979	-0.996333
C238	C	1.298886	-0.085979	-0.746333
C239	C	1.548886	0.164021	-0.496333
C240	C	1.798886	0.414021	-0.246333
C241	C	1.003786	-0.377563	-0.956085
C242	C	1.253786	-0.127563	-0.706085
C243	C	1.503786	0.122437	-0.456085
C244	C	1.753786	0.372437	-0.206085
N245	N	0.966645	-0.411822	-0.845252
N246	N	1.216645	-0.161822	-0.595252
N247	N	1.466645	0.088178	-0.345252
N248	N	1.716645	0.338178	-0.095252
N249	N	1.006902	-0.374693	-0.881194
N250	N	1.256902	-0.124693	-0.631194
N251	N	1.506902	0.125307	-0.381194
N252	N	1.756902	0.375307	-0.131194
C253	C	0.994312	-0.386344	-0.180585
C254	C	1.244312	-0.136344	0.069415
C255	C	1.494312	0.113656	0.319415
C256	C	1.744312	0.363656	0.569415
C257	C	0.997694	-0.383169	-0.102620
C258	C	1.247694	-0.133169	0.147380
C259	C	1.497694	0.116831	0.397380
C260	C	1.747694	0.366831	0.647380
H261	H	0.380871	-0.494761	-0.456126
H262	H	0.630871	-0.244761	-0.206126
H263	H	0.880871	0.005239	0.043874
H264	H	1.130871	0.255239	0.293874
Cl265	Cl	0.230122	-0.509200	-0.469415
Cl266	Cl	0.480122	-0.259200	-0.219415
Cl267	Cl	0.730122	-0.009200	0.030585
Cl268	Cl	0.980122	0.240800	0.280585
H269	H	0.924241	-0.986243	-0.295031
H270	H	1.174241	-0.736243	-0.045031
H271	H	1.424241	-0.486243	0.204969
H272	H	1.674241	-0.236243	0.454969
Cl273	Cl	0.892074	-0.480558	-1.103878
Cl274	Cl	1.142074	-0.230558	-0.853878
Cl275	Cl	1.392074	0.019442	-0.603878
Cl276	Cl	1.642074	0.269442	-0.353878
H277	H	0.918932	-0.455822	-0.956336
H278	H	1.168932	-0.205822	-0.706336
H279	H	1.418932	0.044178	-0.456336
H280	H	1.668932	0.294178	-0.206336
Cl281	Cl	1.093511	-1.149798	-0.478683
Cl282	Cl	1.343511	-0.899798	-0.228683
Cl283	Cl	1.593511	-0.649798	0.021317
Cl284	Cl	1.843511	-0.399798	0.271317
H285	H	0.593246	-0.292021	-0.269630
H286	H	0.843246	-0.042021	-0.019630
H287	H	1.093246	0.207979	0.230370
H288	H	1.343246	0.457979	0.480370
H289	H	0.726172	-0.297566	-0.274733
H290	H	0.976172	-0.047566	-0.024733
H291	H	1.226172	0.202434	0.225267
H292	H	1.476172	0.452434	0.475267
Cl293	Cl	0.864144	-0.506346	-0.771614
Cl294	Cl	1.114144	-0.256346	-0.521614
Cl295	Cl	1.364144	-0.006346	-0.271614
Cl296	Cl	1.614144	0.243654	-0.021614
Cl297	Cl	0.411736	-0.305491	-0.282052
Cl298	Cl	0.661736	-0.055491	-0.032052
Cl299	Cl	0.911736	0.194509	0.217948
Cl300	Cl	1.161736	0.444509	0.467948
H301	H	1.080161	-0.999070	-0.464234
H302	H	1.330161	-0.749070	-0.214234
H303	H	1.580161	-0.499070	0.035766
H304	H	1.830161	-0.249070	0.285766
H305	H	1.054338	-0.666859	-0.436292
H306	H	1.304338	-0.416859	-0.186292
H307	H	1.554338	-0.166859	0.063708
H308	H	1.804338	0.083141	0.313708
Cl309	Cl	0.871023	-0.500018	-0.606238
Cl310	Cl	1.121023	-0.250018	-0.356238
Cl311	Cl	1.371023	-0.000018	-0.106238
Cl312	Cl	1.621023	0.249982	0.143762
Cl313	Cl	0.873698	-0.801617	-0.240236
Cl314	Cl	1.123698	-0.551617	0.009764
Cl315	Cl	1.373698	-0.301617	0.259764
Cl316	Cl	1.623698	-0.051617	0.509764
H317	H	0.580197	-0.461300	-0.425339
H318	H	0.830197	-0.211300	-0.175339
H319	H	1.080197	0.038700	0.074661
H320	H	1.330197	0.288700	0.324661
Cl321	Cl	1.074624	-0.312319	-0.787937
Cl322	Cl	1.324624	-0.062319	-0.537937
Cl323	Cl	1.574624	0.187681	-0.287937
Cl324	Cl	1.824624	0.437681	-0.037937
Cl325	Cl	1.081481	-0.305964	-0.622571
Cl326	Cl	1.331481	-0.055964	-0.372571
Cl327	Cl	1.581481	0.194036	-0.122571
Cl328	Cl	1.831481	0.444036	0.127429
H329	H	0.919180	-1.119172	-0.289496
H330	H	1.169180	-0.869172	-0.039496
H331	H	1.419180	-0.619172	0.210504
H332	H	1.669180	-0.369172	0.460504
Cl333	Cl	0.246369	-0.298599	-0.275698
Cl334	Cl	0.496369	-0.048599	-0.025698
Cl335	Cl	0.746369	0.201401	0.224302
Cl336	Cl	0.996369	0.451401	0.474302
Cl337	Cl	1.109408	-0.280173	-0.954830
Cl338	Cl	1.359408	-0.030173	-0.704830
Cl339	Cl	1.609408	0.219827	-0.454830
Cl340	Cl	1.859408	0.469827	-0.204830
Cl341	Cl	0.727749	-0.488190	-0.450056
Cl342	Cl	0.977749	-0.238190	-0.200056
Cl343	Cl	1.227749	0.011810	0.049944
Cl344	Cl	1.477749	0.261810	0.299944
Cl345	Cl	1.102529	-0.286500	-1.120204
Cl346	Cl	1.352529	-0.036500	-0.870204
Cl347	Cl	1.602529	0.213500	-0.620204
Cl348	Cl	1.852529	0.463500	-0.370204
H349	H	1.049273	-0.799784	-0.430760
H350	H	1.299273	-0.549784	-0.180760
H351	H	1.549273	-0.299784	0.069240
H352	H	1.799273	-0.049784	0.319240
Cl353	Cl	0.880002	-0.636228	-0.247111
Cl354	Cl	1.130002	-0.386228	0.002889
Cl355	Cl	1.380002	-0.136228	0.252889
Cl356	Cl	1.630002	0.113772	0.502889
