data_functionalizedCrystal
_audit_creation_method	'MofGen! by Chris Wilmer'
_symmetry_space_group_name_H-M	'P1'
_symmetry_Int_Tables_number	1
_symmetry_cell_setting	triclinic
loop_
_symmetry_equiv_pos_as_xyz
  x,y,z
_cell_length_a	16.625546
_cell_length_b	12.759401
_cell_length_c	12.759401
_cell_angle_alpha	89.996880
_cell_angle_beta	90.014174
_cell_angle_gamma	89.977371
loop_
_atom_site_label
_atom_site_type_symbol
_atom_site_fract_x
_atom_site_fract_y
_atom_site_fract_z
Zn1	Zn	-0.321126	-1.606039	0.593947
Zn2	Zn	0.178874	-1.106039	1.093947
Zn3	Zn	-0.455931	-1.605957	0.418253
Zn4	Zn	0.044069	-1.105957	0.918253
Zn5	Zn	-0.321116	-1.430388	0.418287
Zn6	Zn	0.178884	-0.930388	0.918287
Zn7	Zn	-0.455921	-1.430306	0.593894
Zn8	Zn	0.044079	-0.930306	1.093894
O9	O	-0.388523	-1.518173	0.506095
O10	O	0.111477	-1.018173	1.006095
O11	O	-0.339016	-1.753049	0.570649
O12	O	0.160984	-1.253049	1.070649
O13	O	-0.438048	-1.582667	0.271237
O14	O	0.061952	-1.082667	0.771237
O15	O	-0.208285	-1.453758	0.441624
O16	O	0.291715	-0.953758	0.941624
O17	O	-0.438057	-1.752989	0.441567
O18	O	0.061943	-1.252989	0.941567
O19	O	-0.208292	-1.582808	0.570681
O20	O	0.291708	-1.082808	1.070681
O21	O	-0.339000	-1.453678	0.271261
O22	O	0.161000	-0.953678	0.771261
O23	O	-0.338990	-1.283356	0.441573
O24	O	0.161010	-0.783356	0.941573
O25	O	-0.438039	-1.453617	0.740922
O26	O	0.061961	-0.953617	1.240922
O27	O	-0.438030	-1.283296	0.570592
O28	O	0.061970	-0.783296	1.070592
O29	O	-0.339006	-1.582728	0.740961
O30	O	0.160994	-1.082728	1.240961
O31	O	-0.568762	-1.582588	0.441516
O32	O	-0.068762	-1.082588	0.941516
O33	O	-0.568754	-1.453538	0.570559
O34	O	-0.068754	-0.953538	1.070559
C35	C	-0.388509	-1.245205	0.506081
C36	C	0.111491	-0.745205	1.006081
C37	C	-0.388522	-1.128429	0.506100
C38	C	0.111478	-0.628429	1.006100
C39	C	-0.598014	-1.518073	0.506051
C40	C	-0.098014	-1.018073	1.006051
C41	C	-0.687635	-1.518127	0.506068
C42	C	-0.187635	-1.018127	1.006068
C43	C	-0.388523	-1.518173	0.780129
C44	C	0.111477	-1.018173	1.280129
C45	C	-0.388523	-1.518173	0.896905
C46	C	0.111477	-1.018173	1.396905
C47	C	-1.015811	-1.518310	0.506177
C48	C	-0.515811	-1.018310	1.006177
C49	C	-0.924502	-1.518256	0.506150
C50	C	-0.424502	-1.018256	1.006150
C51	C	-0.851726	-1.518218	0.506122
C52	C	-0.351726	-1.018218	1.006122
C53	C	-0.760412	-1.518165	0.506095
C54	C	-0.260412	-1.018165	1.006095
C55	C	-0.178214	-1.518301	0.506162
C56	C	0.321786	-1.018301	1.006162
C57	C	-0.088593	-1.518356	0.506191
C58	C	0.411407	-1.018356	1.006191
C59	C	-0.388539	-1.792206	0.506110
C60	C	0.111461	-1.292206	1.006110
C61	C	-0.388545	-1.908982	0.506117
C62	C	0.111455	-1.408982	1.006117
C63	C	-0.440174	-1.073563	0.573169
C64	C	0.059826	-0.573563	1.073169
C65	C	-0.440184	-0.963839	0.573180
C66	C	0.059816	-0.463839	1.073180
C67	C	-0.336887	-0.963856	0.439045
C68	C	0.163113	-0.463856	0.939045
C69	C	-0.336873	-1.073578	0.439040
C70	C	0.163127	-0.573578	0.939040
C71	C	-0.491822	-1.128413	0.640229
C72	C	0.008178	-0.628413	1.140229
C73	C	-0.543480	-1.073547	0.707302
C74	C	-0.043480	-0.573547	1.207302
C75	C	-0.543490	-0.963823	0.707314
C76	C	-0.043490	-0.463823	1.207314
C77	C	-0.491843	-0.908965	0.640252
C78	C	0.008157	-0.408965	1.140252
C79	C	-0.336967	-1.585395	0.951789
C80	C	0.163033	-1.085395	1.451789
C81	C	-0.336971	-1.585390	1.061513
C82	C	0.163029	-1.085390	1.561513
C83	C	-0.440091	-1.450938	1.061460
C84	C	0.059909	-0.950938	1.561460
C85	C	-0.440083	-1.450938	0.951738
C86	C	0.059917	-0.950938	1.451738
C87	C	-0.285407	-1.652629	0.896956
C88	C	0.214593	-1.152629	1.396956
C89	C	-0.233848	-1.719858	0.951840
C90	C	0.266152	-1.219858	1.451840
C91	C	-0.233851	-1.719853	1.061564
C92	C	0.266149	-1.219853	1.561564
C93	C	-0.285413	-1.652620	1.116405
C94	C	0.214587	-1.152620	1.616405
C95	C	-0.388540	-1.518166	1.233128
C96	C	0.111460	-1.018166	1.733128
C97	C	-0.388534	-1.518168	1.116351
C98	C	0.111466	-1.018168	1.616351
H99	H	-0.491821	-1.217756	0.640225
H100	H	0.008179	-0.717756	1.140225
H101	H	-0.585524	-1.118219	0.761908
H102	H	-0.085524	-0.618219	1.261908
N103	N	-0.599201	-0.904643	0.779653
N104	N	-0.099201	-0.404643	1.279653
H105	H	-0.631917	-0.956043	0.822129
H106	H	-0.131917	-0.456043	1.322129
H107	H	-0.636465	-0.859103	0.736794
H108	H	-0.136465	-0.359103	1.236794
H109	H	-0.191864	-1.774586	1.106248
H110	H	0.308136	-1.274586	1.606248
H111	H	-0.285400	-1.652643	0.807614
H112	H	0.214600	-1.152643	1.307614
H113	H	-0.285402	-1.652610	1.205749
H114	H	0.214598	-1.152610	1.705749
H115	H	-0.482052	-1.396184	0.907050
H116	H	0.017948	-0.896184	1.407050
N117	N	-0.491844	-0.790619	0.640272
N118	N	0.008156	-0.290619	1.140272
H119	H	-0.532400	-0.764183	0.692940
H120	H	-0.032400	-0.264183	1.192940
H121	H	-0.506556	-0.764254	0.568132
H122	H	-0.006556	-0.264254	1.068132
N123	N	-0.281200	-0.904694	0.366699
N124	N	0.218800	-0.404694	0.866699
H125	H	-0.289052	-0.826860	0.376872
H126	H	0.210948	-0.326860	0.876872
H127	H	-0.293671	-0.923871	0.291641
H128	H	0.206329	-0.423871	0.791641
N129	N	-0.178245	-1.792380	0.892700
N130	N	0.321755	-1.292380	1.392700
H131	H	-0.186070	-1.782192	0.814862
H132	H	0.313930	-1.282192	1.314862
H133	H	-0.190815	-1.867399	0.911892
H134	H	0.309185	-1.367399	1.411892
H135	H	-0.294807	-1.118251	0.384434
H136	H	0.205193	-0.618251	0.884434
H137	H	-0.482070	-1.396200	1.106119
H138	H	0.017930	-0.896200	1.606119
