data_functionalizedCrystal
_audit_creation_method	'MofGen! by Chris Wilmer'
_symmetry_space_group_name_H-M	'P1'
_symmetry_Int_Tables_number	1
_symmetry_cell_setting	triclinic
loop_
_symmetry_equiv_pos_as_xyz
  x,y,z
_cell_length_a	12.759394
_cell_length_b	12.759395
_cell_length_c	11.169409
_cell_angle_alpha	90.022549
_cell_angle_beta	89.965476
_cell_angle_gamma	89.984599
loop_
_atom_site_label
_atom_site_type_symbol
_atom_site_fract_x
_atom_site_fract_y
_atom_site_fract_z
Zn1	Zn	-0.418166	-1.606271	-0.678612
Zn2	Zn	-0.593891	-1.606160	-0.477921
Zn3	Zn	-0.418229	-1.430568	-0.477937
Zn4	Zn	-0.593805	-1.430561	-0.678556
O5	O	-0.506023	-1.518390	-0.578256
O6	O	-0.441486	-1.753277	-0.652006
O7	O	-0.570652	-1.582824	-0.309973
O8	O	-0.271199	-1.453925	-0.504586
O9	O	-0.570591	-1.753196	-0.504560
O10	O	-0.271153	-1.583013	-0.652021
O11	O	-0.441593	-1.453817	-0.309985
O12	O	-0.441509	-1.283546	-0.504533
O13	O	-0.570443	-1.453912	-0.846514
O14	O	-0.570505	-1.283541	-0.651927
O15	O	-0.441402	-1.583006	-0.846554
O16	O	-0.740901	-1.582817	-0.504506
O17	O	-0.740837	-1.453805	-0.651912
C18	C	-0.506005	-1.245422	-0.578226
C19	C	-0.506023	-1.128646	-0.578242
C20	C	-0.640563	-1.128679	-0.731475
C21	C	-0.707840	-1.073834	-0.808093
C22	C	-0.707851	-0.964113	-0.808104
C23	C	-0.640575	-0.909233	-0.731491
C24	C	-0.573298	-0.964077	-0.654873
C25	C	-0.573297	-1.073801	-0.654868
C26	C	-0.438754	-0.964044	-0.501647
C27	C	-0.438747	-1.073766	-0.501629
C28	C	-0.371479	-0.909164	-0.425034
C29	C	-0.304205	-0.964009	-0.348408
C30	C	-0.304198	-1.073737	-0.348399
C31	C	-0.371470	-1.128610	-0.425010
C32	C	-0.778990	-1.518327	-0.578227
C33	C	-0.895767	-1.518396	-0.578255
C34	C	-0.895780	-1.652837	-0.424876
C35	C	-0.950647	-1.720085	-0.348201
C36	C	-1.060368	-1.720146	-0.348234
C37	C	-1.115225	-1.652955	-0.424952
C38	C	-1.060358	-1.585707	-0.501628
C39	C	-0.950634	-1.585651	-0.501584
C40	C	-1.060345	-1.451273	-0.655011
C41	C	-0.950624	-1.451204	-0.654974
C42	C	-1.115202	-1.384082	-0.731729
C43	C	-1.060335	-1.316827	-0.808400
C44	C	-0.950607	-1.316767	-0.808364
C45	C	-0.895757	-1.383957	-0.731649
C46	C	-0.231989	-1.518482	-0.578312
C47	C	-0.115212	-1.518521	-0.578335
C48	C	-0.505906	-1.518470	-0.891299
C49	C	-0.505856	-1.518505	-1.024699
C50	C	-0.506037	-0.792423	-0.578279
C51	C	-0.506032	-0.909200	-0.578266
C52	C	-0.506063	-1.518370	-0.266432
C53	C	-0.505817	-1.518539	-0.133032
H54	H	-0.371488	-0.819823	-0.425053
C55	C	-0.781845	-1.134210	-0.892359
N56	N	-0.837586	-1.179682	-0.955827
C57	C	-1.235922	-1.653032	-0.424990
N58	N	-1.326832	-1.653088	-0.425017
C59	C	-0.230185	-1.134057	-0.264112
N60	N	-0.174439	-1.179486	-0.200623
C61	C	-0.230207	-0.903634	-0.264146
N62	N	-0.174472	-0.858156	-0.200677
C63	C	-0.781860	-0.903782	-0.892387
N64	N	-0.837605	-0.858342	-0.955867
H65	H	-0.905973	-1.774794	-0.285739
H66	H	-0.371473	-1.217951	-0.425007
H67	H	-0.640581	-0.819892	-0.731517
C68	C	-0.640558	-1.249375	-0.731469
N69	N	-0.640554	-1.340286	-0.731470
C70	C	-0.775083	-1.652766	-0.424822
N71	N	-0.684173	-1.652714	-0.424780
C72	C	-1.235899	-1.384149	-0.731760
N73	N	-1.326809	-1.384195	-0.731781
H74	H	-1.105041	-1.774911	-0.285804
H75	H	-1.105008	-1.262130	-0.870864
H76	H	-0.905940	-1.262010	-0.870807
H77	H	-0.806415	-1.383908	-0.731604
