data_functionalizedCrystal
_audit_creation_method	'MofGen! by Chris Wilmer'
_symmetry_space_group_name_H-M	'P1'
_symmetry_Int_Tables_number	1
_symmetry_cell_setting	triclinic
loop_
_symmetry_equiv_pos_as_xyz
  x,y,z
_cell_length_a	18.050590
_cell_length_b	29.839131
_cell_length_c	18.050591
_cell_angle_alpha	90.020980
_cell_angle_beta	89.993166
_cell_angle_gamma	90.030587
loop_
_atom_site_label
_atom_site_type_symbol
_atom_site_fract_x
_atom_site_fract_y
_atom_site_fract_z
Zn1	Zn	1.135180	-0.179032	0.419586
Zn2	Zn	1.635180	0.320968	0.919586
Zn3	Zn	1.135075	-0.254148	0.295390
Zn4	Zn	1.635075	0.245852	0.795390
Zn5	Zn	1.011012	-0.179019	0.295445
Zn6	Zn	1.511012	0.320981	0.795445
Zn7	Zn	1.010918	-0.254121	0.419573
Zn8	Zn	1.510918	0.245879	0.919573
O9	O	1.073046	-0.216580	0.357498
O10	O	1.573046	0.283420	0.857498
O11	O	1.239090	-0.189013	0.403094
O12	O	1.739090	0.310987	0.903094
O13	O	1.118613	-0.244188	0.191473
O14	O	1.618613	0.255812	0.691473
O15	O	1.027566	-0.116153	0.311941
O16	O	1.527566	0.383847	0.811941
O17	O	1.239013	-0.244200	0.311848
O18	O	1.739013	0.255800	0.811848
O19	O	1.118792	-0.116163	0.403147
O20	O	1.618792	0.383837	0.903147
O21	O	1.027465	-0.188990	0.191513
O22	O	1.527465	0.311010	0.691513
O23	O	0.907075	-0.188964	0.311927
O24	O	1.407075	0.311036	0.811927
O25	O	1.027407	-0.244155	0.523499
O26	O	1.527407	0.255845	1.023499
O27	O	0.907006	-0.244142	0.403124
O28	O	1.407006	0.255858	0.903124
O29	O	1.118701	-0.188987	0.523509
O30	O	1.618701	0.311013	1.023509
O31	O	1.118522	-0.317012	0.311835
O32	O	1.618522	0.182988	0.811835
O33	O	1.027305	-0.316992	0.403071
O34	O	1.527305	0.183008	0.903071
C35	C	0.880094	-0.216549	0.357530
C36	C	1.380094	0.283451	0.857530
C37	C	0.797548	-0.216547	0.357562
C38	C	1.297548	0.283453	0.857562
C39	C	0.598082	-0.246638	0.407036
C40	C	1.098082	0.253362	0.907036
C41	C	0.548702	-0.205676	0.425315
C42	C	1.048702	0.294324	0.925315
C43	C	0.646418	-0.216572	0.357525
C44	C	1.146418	0.283428	0.857525
C45	C	0.548716	-0.257557	0.339246
C46	C	1.048716	0.242443	0.839246
C47	C	0.500433	-0.216600	0.357492
C48	C	1.000433	0.283400	0.857492
C49	C	0.598126	-0.175588	0.375839
C50	C	1.098126	0.324412	0.875839
C51	C	0.598144	-0.227497	0.289739
C52	C	1.098144	0.272503	0.789739
C53	C	0.548787	-0.186507	0.307992
C54	C	1.048787	0.313493	0.807992
C55	C	0.730516	-0.216557	0.357547
C56	C	1.230516	0.283443	0.857547
C57	C	0.416336	-0.216611	0.357470
C58	C	0.916336	0.283389	0.857470
C59	C	1.072912	-0.333303	0.357462
C60	C	1.572912	0.166697	0.857462
C61	C	1.072923	-0.383237	0.357471
C62	C	1.572923	0.116763	0.857471
C63	C	1.120630	-0.692878	0.310061
C64	C	1.620630	-0.192878	0.810061
C65	C	1.120721	-0.880551	0.310090
C66	C	1.620721	-0.380551	0.810090
O67	O	1.161177	-0.904814	0.269752
O68	O	1.661177	-0.404814	0.769752
N69	N	1.073200	-0.904022	0.357554
N70	N	1.573200	-0.404022	0.857554
C71	C	1.025657	-0.880572	0.405019
C72	C	1.525657	-0.380572	0.905019
O73	O	0.985245	-0.904842	0.445396
O74	O	1.485245	-0.404842	0.945396
C75	C	1.025569	-0.692900	0.404993
C76	C	1.525569	-0.192900	0.904993
C77	C	1.073088	-0.669431	0.357520
C78	C	1.573088	-0.169431	0.857520
C79	C	1.168145	-0.669409	0.262593
C80	C	1.668145	-0.169409	0.762593
C81	C	1.168119	-0.622494	0.262583
C82	C	1.668119	-0.122494	0.762583
C83	C	1.120577	-0.599047	0.310042
C84	C	1.620577	-0.099047	0.810042
C85	C	1.073062	-0.622516	0.357510
C86	C	1.573062	-0.122516	0.857510
C87	C	0.978030	-0.669450	0.452460
C88	C	1.478030	-0.169450	0.952460
C89	C	0.978013	-0.622529	0.452451
C90	C	1.478013	-0.122529	0.952451
C91	C	1.025532	-0.599061	0.404978
C92	C	1.525532	-0.099061	0.904978
C93	C	1.025494	-0.552153	0.404960
C94	C	1.525494	-0.052153	0.904960
N95	N	1.073015	-0.528682	0.357495
N96	N	1.573015	-0.028682	0.857495
C97	C	1.120556	-0.552129	0.310036
C98	C	1.620556	-0.052129	0.810036
C99	C	1.025705	-0.979102	0.405028
C100	C	1.525705	-0.479102	0.905028
C101	C	1.025726	-1.026020	0.405033
C102	C	1.525726	-0.526020	0.905033
C103	C	1.120791	-1.025996	0.310105
C104	C	1.620791	-0.525996	0.810105
C105	C	1.120766	-0.979077	0.310096
C106	C	1.620766	-0.479077	0.810096
C107	C	1.073226	-0.955631	0.357563
C108	C	1.573226	-0.455631	0.857563
C109	C	1.120497	-0.453603	0.310019
C110	C	1.620497	0.046397	0.810019
C111	C	1.120464	-0.406684	0.310012
C112	C	1.620464	0.093316	0.810012
C113	C	1.025402	-0.406712	0.404942
C114	C	1.525402	0.093288	0.904942
C115	C	1.025431	-0.453627	0.404947
C116	C	1.525431	0.046373	0.904947
C117	C	1.072985	-0.477072	0.357483
C118	C	1.572985	0.022928	0.857483
O119	O	0.985065	-0.527862	0.445282
O120	O	1.485065	-0.027862	0.945282
O121	O	1.160974	-0.527851	0.269676
O122	O	1.660974	-0.027851	0.769676
C123	C	1.120656	-0.739793	0.310071
C124	C	1.620656	-0.239793	0.810071
C125	C	1.073140	-0.763262	0.357539
C126	C	1.573140	-0.263262	0.857539
C127	C	1.025599	-0.739815	0.404998
C128	C	1.525599	-0.239815	0.904998
C129	C	1.073161	-0.810180	0.357545
C130	C	1.573161	-0.310180	0.857545
C131	C	1.120703	-0.833627	0.310086
C132	C	1.620703	-0.333627	0.810086
C133	C	1.168224	-0.810156	0.262621
C134	C	1.668224	-0.310156	0.762621
C135	C	1.168197	-0.763240	0.262612
C136	C	1.668197	-0.263240	0.762612
C137	C	0.978078	-0.763286	0.452463
C138	C	1.478078	-0.263286	0.952463
C139	C	0.978107	-0.810202	0.452468
C140	C	1.478107	-0.310202	0.952468
C141	C	1.025649	-0.833648	0.405009
C142	C	1.525649	-0.333648	0.905009
C143	C	1.266752	-0.216611	0.357467
C144	C	1.766752	0.283389	0.857467
C145	C	1.349298	-0.216624	0.357453
C146	C	1.849298	0.283376	0.857453
C147	C	1.073055	-0.216569	0.551204
C148	C	1.573055	0.283431	1.051204
C149	C	1.073059	-0.216565	0.633750
C150	C	1.573059	0.283435	1.133750
C151	C	1.073201	-0.099402	0.357552
C152	C	1.573201	0.400598	0.857552
C153	C	1.073267	-0.049467	0.357574
C154	C	1.573267	0.450533	0.857574
C155	C	1.122710	-0.186572	0.882581
C156	C	1.622710	0.313428	1.382581
C157	C	1.140824	-0.227558	0.833158
C158	C	1.640824	0.272442	1.333158
C159	C	1.073058	-0.216581	0.930870
C160	C	1.573058	0.283419	1.430870
C161	C	1.054979	-0.175589	0.833211
C162	C	1.554979	0.324411	1.333211
C163	C	1.073060	-0.216571	0.784885
C164	C	1.573060	0.283429	1.284885
C165	C	1.091207	-0.257590	0.882535
C166	C	1.591207	0.242410	1.382535
C167	C	1.005330	-0.205592	0.882592
C168	C	1.505330	0.294408	1.382592
C169	C	1.023419	-0.246607	0.833192
C170	C	1.523419	0.253393	1.333192
C171	C	1.073058	-0.216587	1.014968
C172	C	1.573058	0.283413	1.514968
C173	C	1.073059	-0.216570	0.700789
C174	C	1.573059	0.283430	1.200789
C175	C	1.073039	-0.216596	1.164546
C176	C	1.573039	0.283404	1.664546
C177	C	1.073057	-0.216588	1.082001
C178	C	1.573057	0.283412	1.582001
H179	H	1.159160	-0.387577	0.271351
H180	H	1.659160	0.112423	0.771351
H181	H	0.619738	-0.140929	0.391351
H182	H	1.119738	0.359071	0.891351
C183	C	0.927976	-0.193020	0.911955
C184	C	1.427976	0.306980	1.411955
N185	N	0.869713	-0.183545	0.934073
N186	N	1.369713	0.316455	1.434073
C187	C	1.034317	-0.128761	0.803943
C188	C	1.534317	0.371239	1.303943
N189	N	1.018759	-0.093490	0.781901
N190	N	1.518759	0.406510	1.281901
H191	H	0.619730	-0.272020	0.448953
H192	H	1.119730	0.227980	0.948953
C193	C	1.179476	-0.152337	0.911882
C194	C	1.679476	0.347663	1.411882
N195	N	1.222234	-0.126554	0.933952
N196	N	1.722234	0.373446	1.433952
H197	H	1.159502	-1.045095	0.271463
H198	H	1.659502	-0.545095	0.771463
H199	H	0.986990	-0.960016	0.443682
H200	H	1.486990	-0.460016	0.943682
C201	C	1.173042	-0.953266	0.257875
C202	C	1.673042	-0.453266	0.757875
N203	N	1.212420	-0.933828	0.218541
N204	N	1.712420	-0.433828	0.718541
C205	C	0.519721	-0.152134	0.251411
C206	C	1.019721	0.347866	0.751411
N207	N	0.497827	-0.126243	0.208799
N208	N	0.997827	0.373757	0.708799
C209	C	0.973111	-0.380911	0.457147
C210	C	1.473111	0.119089	0.957147
N211	N	0.933731	-0.361477	0.496473
N212	N	1.433731	0.138523	0.996473
C213	C	0.973444	-1.051830	0.457250
C214	C	1.473444	-0.551830	0.957250
N215	N	0.934067	-1.071269	0.496585
N216	N	1.434067	-0.571269	0.996585
C217	C	1.218201	-0.240111	0.803817
C218	C	1.718201	0.259889	1.303817
N219	N	1.276482	-0.249561	0.781717
N220	N	1.776482	0.250439	1.281717
C221	C	1.220470	-0.737431	0.210385
C222	C	1.720470	-0.237431	0.710385
N223	N	1.259843	-0.717994	0.171044
N224	N	1.759843	-0.217994	0.671044
H225	H	0.527009	-0.292206	0.323801
H226	H	1.027009	0.207794	0.823801
H227	H	0.526986	-0.196445	0.482626
H228	H	1.026986	0.303555	0.982626
H229	H	1.159221	-0.472686	0.271371
H230	H	1.659221	0.027314	0.771371
C231	C	0.627508	-0.239985	0.212336
C232	C	1.127508	0.260015	0.712336
N233	N	0.649626	-0.249396	0.154036
N234	N	1.149626	0.250604	0.654036
C235	C	1.220388	-0.596685	0.210352
C236	C	1.720388	-0.096685	0.710352
N237	N	1.259757	-0.577248	0.171008
N238	N	1.759757	-0.077248	0.671008
H239	H	1.206863	-0.688495	0.223946
H240	H	1.706863	-0.188495	0.723946
C241	C	0.925757	-0.695255	0.504688
C242	C	1.425757	-0.195255	1.004688
N243	N	0.886382	-0.714691	0.544030
N244	N	1.386382	-0.214691	1.044030
C245	C	0.925714	-0.596742	0.504670
C246	C	1.425714	-0.096742	1.004670
N247	N	0.886321	-0.577319	0.544000
N248	N	1.386321	-0.077319	1.044000
H249	H	1.106582	-0.292259	0.904111
H250	H	1.606582	0.207741	1.404111
C251	C	0.973156	-0.479444	0.457167
C252	C	1.473156	0.020556	0.957167
N253	N	0.933787	-0.498885	0.496506
N254	N	1.433787	0.001115	0.996506
C255	C	1.220519	-0.835956	0.210415
C256	C	1.720519	-0.335956	0.710415
N257	N	1.259908	-0.855392	0.171099
N258	N	1.759908	-0.355392	0.671099
C259	C	0.925828	-0.836012	0.504694
C260	C	1.425828	-0.336012	1.004694
N261	N	0.886457	-0.855450	0.544035
N262	N	1.386457	-0.355450	1.044035
C263	C	0.966712	-0.280927	0.804051
C264	C	1.466712	0.219073	1.304051
N265	N	0.924010	-0.306779	0.782093
N266	N	1.424010	0.193221	1.282093
H267	H	0.939365	-0.744199	0.491110
H268	H	1.439365	-0.244199	0.991110
