data_functionalizedCrystal
_audit_creation_method	'MofGen! by Chris Wilmer'
_symmetry_space_group_name_H-M	'P1'
_symmetry_Int_Tables_number	1
_symmetry_cell_setting	triclinic
loop_
_symmetry_equiv_pos_as_xyz
  x,y,z
_cell_length_a	9.065218
_cell_length_b	6.394989
_cell_length_c	7.540329
_cell_angle_alpha	90.000635
_cell_angle_beta	89.996962
_cell_angle_gamma	94.243202
loop_
_atom_site_label
_atom_site_type_symbol
_atom_site_fract_x
_atom_site_fract_y
_atom_site_fract_z
O1	O	1.963204	-0.306374	-0.147474
O2	O	2.463204	0.193626	0.352526
O3	O	1.534149	-0.331504	-0.147476
O4	O	2.034149	0.168496	0.352524
O5	O	1.754767	-0.014990	-0.147476
O6	O	2.254767	0.485010	0.352524
O7	O	1.742586	-0.622888	-0.147474
O8	O	2.242586	-0.122888	0.352526
O9	O	1.754753	-0.014986	0.147489
O10	O	2.254753	0.485014	0.647489
O11	O	1.534136	-0.331500	0.147489
O12	O	2.034136	0.168500	0.647489
O13	O	1.963190	-0.306370	0.147491
O14	O	2.463190	0.193630	0.647491
Cu15	Cu	1.748662	-0.318934	0.174423
Cu16	Cu	2.248662	0.181066	0.674423
Cu17	Cu	1.748678	-0.318939	-0.174408
Cu18	Cu	2.248678	0.181061	0.325592
O19	O	1.742573	-0.622884	0.147491
O20	O	2.242573	-0.122884	0.647491
C21	C	1.479134	-0.329087	0.000007
C22	C	1.979134	0.170913	0.500007
C23	C	1.315225	-0.321865	0.000006
C24	C	1.815225	0.178135	0.500006
C25	C	2.018206	-0.308787	0.000005
C26	C	2.518206	0.191213	0.500005
C27	C	2.182115	-0.316008	-0.000006
C28	C	2.682115	0.183992	0.499994
C29	C	1.752352	0.062879	-0.000000
C30	C	2.252352	0.562879	0.500000
C31	C	1.744991	0.299253	-0.000002
C32	C	2.244991	0.799253	0.499998
N33	N	1.748661	-0.318930	0.419771
N34	N	2.248661	0.181070	0.919771
N35	N	1.748690	-0.318927	-0.419756
N36	N	2.248690	0.181073	0.080244
