data_functionalizedCrystal
_audit_creation_method	'MofGen! by Chris Wilmer'
_symmetry_space_group_name_H-M	'P1'
_symmetry_Int_Tables_number	1
_symmetry_cell_setting	triclinic
loop_
_symmetry_equiv_pos_as_xyz
  x,y,z
_cell_length_a	29.999520
_cell_length_b	29.998686
_cell_length_c	29.995014
_cell_angle_alpha	60.005185
_cell_angle_beta	60.010401
_cell_angle_gamma	59.993433
loop_
_atom_site_label
_atom_site_type_symbol
_atom_site_fract_x
_atom_site_fract_y
_atom_site_fract_z
O1	O	0.061772	-0.651300	0.544623
O2	O	0.023267	-0.507084	0.438819
O3	O	0.114589	-0.598332	0.438743
O4	O	-0.029550	-0.560051	0.544699
O5	O	0.144886	-0.568039	0.468961
O6	O	0.053564	-0.476791	0.469038
O7	O	0.092069	-0.621007	0.574841
Zn8	Zn	0.077627	-0.544089	0.526737
Zn9	Zn	0.037709	-0.584002	0.486923
O10	O	0.000748	-0.529758	0.574918
N11	N	0.104871	-0.516854	0.553912
N12	N	0.010470	-0.611242	0.459748
C13	C	0.143162	-0.478782	0.827124
C14	C	0.378203	-0.478734	0.591892
C15	C	0.143005	-0.478752	0.591997
C16	C	0.142986	-0.243586	0.592008
C17	C	0.180857	-0.357087	0.629814
C18	C	0.180866	-0.440920	0.629807
C19	C	0.201840	-0.419964	0.650755
C20	C	0.293272	-0.404201	0.602606
C21	C	0.350426	-0.423248	0.583534
C22	C	0.350451	-0.515727	0.618798
C23	C	0.293297	-0.496678	0.637872
C24	C	0.194628	-0.328499	0.573626
C25	C	0.175551	-0.271340	0.554591
C26	C	0.128936	-0.271362	0.647935
C27	C	0.148014	-0.328521	0.666970
C28	C	0.124672	-0.427119	0.643641
C29	C	0.105611	-0.446170	0.624592
C30	C	0.198934	-0.492820	0.577889
C31	C	0.217998	-0.473770	0.596931
C32	C	0.124740	-0.427136	0.742229
C33	C	0.105728	-0.446202	0.799386
C34	C	0.199085	-0.492863	0.799337
C35	C	0.218096	-0.473798	0.742178
C36	C	0.180923	-0.440933	0.713626
C37	C	0.264710	-0.440915	0.629773
C38	C	0.121509	-0.499370	0.889991
C39	C	0.441068	-0.498953	0.570621
C40	C	0.121297	-0.499349	0.571429
C41	C	0.121653	-0.180715	0.571802
C42	C	-0.111071	-0.648912	0.421584
C43	C	-0.027286	-0.649018	0.421777
C44	C	-0.048200	-0.669944	0.400740
C45	C	-0.064036	-0.761340	0.448814
C46	C	-0.045033	-0.818500	0.467893
C47	C	0.047447	-0.818609	0.432797
C48	C	0.028444	-0.761451	0.413717
C49	C	-0.139731	-0.662677	0.477755
C50	C	-0.196885	-0.643554	0.496701
C51	C	-0.196717	-0.596907	0.403303
C52	C	-0.139562	-0.616030	0.384357
C53	C	-0.041053	-0.592827	0.407952
C54	C	-0.022041	-0.573809	0.427083
C55	C	0.024504	-0.667167	0.473848
C56	C	0.005492	-0.686188	0.454725
C57	C	-0.040886	-0.592836	0.309259
C58	C	-0.021740	-0.573821	0.252102
C59	C	0.024886	-0.667185	0.252163
C60	C	0.005743	-0.686199	0.309322
C61	C	-0.027145	-0.649023	0.337868
C62	C	-0.027299	-0.732818	0.421728
N63	N	0.492511	-0.516826	0.553742
O64	O	0.679283	-0.525926	0.419277
O65	O	0.679465	-0.632059	0.563349
O66	O	0.679393	-0.631817	0.471975
O67	O	0.679355	-0.526168	0.510650
O68	O	0.588593	-0.601610	0.502313
O69	O	0.588665	-0.601852	0.593686
O70	O	0.588483	-0.495720	0.449614
Zn71	Zn	0.574158	-0.543990	0.526467
Zn72	Zn	0.693790	-0.583788	0.486496
O73	O	0.588555	-0.495962	0.540987
N74	N	0.775436	-0.610952	0.459215
N75	N	0.104844	-0.129269	0.553931
O76	O	-0.029548	0.057600	0.544709
O77	O	0.114530	0.057617	0.438578
O78	O	0.023130	0.057594	0.438850
O79	O	0.061852	0.057623	0.544437
O80	O	0.053431	-0.033213	0.469115
O81	O	0.144831	-0.033190	0.468843
O82	O	0.000753	-0.033207	0.574974
Zn83	Zn	0.077603	-0.047616	0.526714
Zn84	Zn	0.037680	0.072026	0.486838
O85	O	0.092153	-0.033184	0.574702
N86	N	0.010432	0.153679	0.459622
N87	N	0.105130	-0.516904	0.941437
O88	O	0.095923	-0.651280	1.128292
O89	O	-0.010184	-0.507155	1.128318
O90	O	-0.009938	-0.598539	1.128284
O91	O	0.095677	-0.559897	1.128326
O92	O	0.020315	-0.568257	1.037481
O93	O	0.020068	-0.476874	1.037515
O94	O	0.126176	-0.620999	1.037489
Zn95	Zn	0.077925	-0.544128	1.023085
Zn96	Zn	0.038066	-0.584026	1.142722
O97	O	0.125929	-0.529616	1.037523
N98	N	0.010860	-0.611256	1.224371
C99	C	0.034807	-0.473765	0.439352
C100	C	0.147897	-0.586765	0.439257
C101	C	0.080529	-0.654326	0.574308
C102	C	-0.032561	-0.541326	0.574403
C103	C	0.634087	-0.631571	0.596668
C104	C	0.633999	-0.631272	0.483513
C105	C	0.633858	-0.496206	0.416295
C106	C	0.633949	-0.496507	0.529449
C107	C	0.147793	0.012327	0.439058
C108	C	0.034644	0.012187	0.439432
C109	C	-0.032548	0.012195	0.574457
C110	C	0.080639	0.012222	0.574120
C111	C	-0.009670	-0.473857	1.082920
C112	C	-0.009359	-0.587018	1.082860
C113	C	0.125662	-0.654297	1.082887
C114	C	0.125358	-0.541129	1.082927
H115	H	0.094465	-0.400370	0.718985
N116	N	-0.087400	-0.530523	0.618475
H117	H	-0.094481	-0.498878	0.627572
H118	H	-0.087485	-0.564142	0.652188
N119	N	0.633935	-0.452545	0.540408
H120	H	0.600251	-0.419533	0.536113
H121	H	0.667592	-0.441980	0.513614
H122	H	0.189085	0.012584	0.405656
H123	H	0.088756	-0.695753	0.607538
N124	N	0.169315	-0.530185	1.082933
H125	H	0.179909	-0.556960	1.116592
H126	H	0.155120	-0.491739	1.082921
N127	N	0.023919	-0.418895	0.395327
H128	H	0.050714	-0.401449	0.384729
H129	H	-0.014515	-0.394606	0.409465
N130	N	0.023695	0.012096	0.395517
H131	H	-0.014726	0.012061	0.409698
H132	H	0.050519	-0.021596	0.385004
H133	H	0.158977	-0.695688	1.082873
N134	N	0.634153	-0.675712	0.651475
H135	H	0.600505	-0.662443	0.681043
H136	H	0.667846	-0.684825	0.658506
N137	N	0.202735	-0.597567	0.395183
H138	H	0.202855	-0.563975	0.361441
H139	H	0.209783	-0.629228	0.386132
N140	N	0.045128	-0.431316	0.830232
H141	H	0.024466	-0.407602	0.803469
H142	H	0.035206	-0.410724	0.853949
N143	N	-0.087353	0.012186	0.618597
H144	H	-0.111772	0.012177	0.604612
H145	H	-0.104691	0.045852	0.629140
H146	H	0.634015	-0.664461	0.475235
H147	H	0.633799	-0.462884	0.374920
H148	H	0.088930	0.012231	0.607291
H149	H	-0.042983	-0.432464	1.082928
H150	H	-0.074948	-0.841721	0.489940
N151	N	0.239180	-0.528293	0.830129
H152	H	0.277656	-0.534136	0.803334
H153	H	0.233336	-0.564708	0.853843
N154	N	0.278697	-0.488684	0.711329
H155	H	0.299359	-0.512395	0.738091
H156	H	0.288618	-0.454307	0.687614
N157	N	-0.053295	-0.597945	1.082796
H158	H	-0.039128	-0.636375	1.082774
H159	H	-0.063846	-0.571129	1.049122
H160	H	0.094434	-0.400372	0.670409
H161	H	0.229173	-0.519573	0.551126
N162	N	0.045001	-0.431291	0.639510
H163	H	0.024370	-0.407593	0.663231
H164	H	0.035087	-0.465674	0.660103
H165	H	0.263756	-0.485001	0.585661
H166	H	0.051198	-0.697438	0.500669
H167	H	0.270043	-0.526578	0.659994
H168	H	-0.109425	-0.738032	0.455342
H169	H	0.373680	-0.393351	0.561411
N170	N	0.381294	-0.575871	0.627523
H171	H	0.371336	-0.588463	0.609172
H172	H	0.371363	-0.597041	0.667937
N173	N	0.262439	-0.344056	0.593869
H174	H	0.289209	-0.323690	0.573763
H175	H	0.238744	-0.338445	0.630393
H176	H	0.221368	-0.351757	0.543370
H177	H	0.186762	-0.248063	0.508836
H178	H	0.102202	-0.248101	0.678192
H179	H	-0.032937	-0.528066	0.228816
N180	N	0.133160	-0.359360	0.727576
H181	H	0.109458	-0.332589	0.748226
H182	H	0.167547	-0.383073	0.737497
H183	H	-0.067667	-0.562559	0.332499
H184	H	0.016937	-0.731954	0.332612
N185	N	0.060346	-0.707281	0.221378
H186	H	0.066142	-0.745761	0.248177
H187	H	0.096776	-0.701464	0.197728
H188	H	-0.033252	-0.528055	0.415829
N189	N	-0.076403	-0.552738	0.372415
H190	H	-0.082240	-0.514256	0.366564
H191	H	-0.112821	-0.558560	0.390904
H192	H	0.058362	-0.738230	0.391661
N193	N	0.020346	-0.746791	0.469612
H194	H	-0.014018	-0.756733	0.490161
H195	H	0.044013	-0.767420	0.493363
N196	N	0.107569	-0.849497	0.424165
H197	H	0.127960	-0.822755	0.404110
H198	H	0.121820	-0.873221	0.401916
H199	H	-0.116534	-0.689457	0.508068
H200	H	-0.220220	-0.654760	0.542443
H201	H	-0.116227	-0.604815	0.338615
N202	N	-0.227452	-0.561451	0.363155
H203	H	-0.200623	-0.555640	0.324694
H204	H	-0.251153	-0.525024	0.368991
