data_functionalizedCrystal
_audit_creation_method	'MofGen! by Chris Wilmer'
_symmetry_space_group_name_H-M	'P1'
_symmetry_Int_Tables_number	1
_symmetry_cell_setting	triclinic
loop_
_symmetry_equiv_pos_as_xyz
  x,y,z
_cell_length_a	21.395362
_cell_length_b	16.625546
_cell_length_c	16.625539
_cell_angle_alpha	89.969603
_cell_angle_beta	89.960022
_cell_angle_gamma	90.038346
loop_
_atom_site_label
_atom_site_type_symbol
_atom_site_fract_x
_atom_site_fract_y
_atom_site_fract_z
Zn1	Zn	0.957871	-0.320658	-0.456315
Zn2	Zn	1.291204	0.012675	-0.122982
Zn3	Zn	1.624538	0.346008	0.210351
Zn4	Zn	0.957796	-0.455502	-0.321478
Zn5	Zn	1.291129	-0.122168	0.011856
Zn6	Zn	1.624462	0.211165	0.345189
Zn7	Zn	0.853093	-0.320724	-0.321450
Zn8	Zn	1.186426	0.012609	0.011883
Zn9	Zn	1.519760	0.345943	0.345216
Zn10	Zn	0.853070	-0.455490	-0.456222
Zn11	Zn	1.186403	-0.122157	-0.122889
Zn12	Zn	1.519737	0.211177	0.210445
O13	O	0.905457	-0.388093	-0.388866
O14	O	1.238791	-0.054760	-0.055533
O15	O	1.572124	0.278573	0.277800
O16	O	1.045539	-0.338523	-0.438479
O17	O	1.378872	-0.005190	-0.105146
O18	O	1.712205	0.328144	0.228187
O19	O	0.943885	-0.437655	-0.208642
O20	O	1.277218	-0.104322	0.124692
O21	O	1.610551	0.229011	0.458025
O22	O	0.867033	-0.207883	-0.339368
O23	O	1.200366	0.125451	-0.006035
O24	O	1.533700	0.458784	0.327299
O25	O	1.045484	-0.437592	-0.339415
O26	O	1.378817	-0.104258	-0.006081
O27	O	1.712150	0.229075	0.327252
O28	O	0.944013	-0.207835	-0.438453
O29	O	1.277346	0.125499	-0.105120
O30	O	1.610680	0.458832	0.228214
O31	O	0.866960	-0.338635	-0.208621
O32	O	1.200294	-0.005301	0.124712
O33	O	1.533627	0.328032	0.458045
O34	O	0.765412	-0.338624	-0.339277
O35	O	1.098745	-0.005290	-0.005944
O36	O	1.432079	0.328043	0.327389
O37	O	0.866994	-0.437572	-0.569067
O38	O	1.200327	-0.104239	-0.235733
O39	O	1.533661	0.229095	0.097600
O40	O	0.765395	-0.437636	-0.438293
O41	O	1.098729	-0.104302	-0.104960
O42	O	1.432062	0.229031	0.228373
O43	O	0.943991	-0.338512	-0.569135
O44	O	1.277324	-0.005179	-0.235802
O45	O	1.610657	0.328155	0.097531
O46	O	0.943862	-0.568332	-0.339324
O47	O	1.277196	-0.234999	-0.005991
O48	O	1.610529	0.098334	0.327343
O49	O	0.866921	-0.568324	-0.438320
O50	O	1.200254	-0.234991	-0.104987
O51	O	1.533588	0.098343	0.228347
C52	C	0.742670	-0.388136	-0.388773
C53	C	1.076003	-0.054803	-0.055439
C54	C	1.409336	0.278531	0.277894
C55	C	0.673028	-0.388174	-0.388752
C56	C	1.006362	-0.054840	-0.055419
C57	C	1.339695	0.278493	0.277915
C58	C	0.640323	-0.439798	-0.440232
C59	C	0.973656	-0.106464	-0.106899
C60	C	1.306990	0.226869	0.226434
C61	C	0.574888	-0.439778	-0.440268
C62	C	0.908221	-0.106445	-0.106935
C63	C	1.241554	0.226889	0.226398
C64	C	0.542160	-0.388143	-0.388809
C65	C	0.875494	-0.054809	-0.055476
C66	C	1.208827	0.278524	0.277857
C67	C	0.574874	-0.336509	-0.337325
C68	C	0.908207	-0.003175	-0.003992
C69	C	1.241540	0.330158	0.329341
C70	C	0.640308	-0.336524	-0.337296
C71	C	0.973641	-0.003191	-0.003963
C72	C	1.306974	0.330142	0.329370
C73	C	0.438439	-0.381662	-0.316222
C74	C	0.771772	-0.048329	0.017112
C75	C	1.105105	0.285004	0.350445
C76	C	0.373006	-0.381652	-0.316249
C77	C	0.706339	-0.048319	0.017084
C78	C	1.039672	0.285014	0.350418
C79	C	0.340339	-0.388090	-0.388898
C80	C	0.673673	-0.054757	-0.055565
C81	C	1.007006	0.278577	0.277768
C82	C	0.373114	-0.394555	-0.461523
C83	C	0.706448	-0.061221	-0.128189
C84	C	1.039781	0.272112	0.205144
C85	C	0.438548	-0.394570	-0.461494
C86	C	0.771882	-0.061237	-0.128161
C87	C	1.105215	0.272096	0.205173
C88	C	0.471208	-0.388120	-0.388835
C89	C	0.804541	-0.054786	-0.055502
C90	C	1.137874	0.278547	0.277832
C91	C	0.236681	-0.439695	-0.440422
C92	C	0.570015	-0.106362	-0.107089
C93	C	0.903348	0.226971	0.226245
C94	C	0.171245	-0.439670	-0.440459
C95	C	0.504578	-0.106337	-0.107126
C96	C	0.837912	0.226997	0.226207
C97	C	0.171232	-0.336405	-0.337509
C98	C	0.504565	-0.003072	-0.004176
C99	C	0.837899	0.330262	0.329158
C100	C	0.236667	-0.336426	-0.337479
C101	C	0.570001	-0.003093	-0.004146
C102	C	0.903334	0.330241	0.329188
C103	C	0.269388	-0.388076	-0.388934
C104	C	0.602722	-0.054742	-0.055601
C105	C	0.936055	0.278591	0.277732
C106	C	0.905398	-0.597584	-0.388832
C107	C	1.238731	-0.264251	-0.055499
C108	C	1.572065	0.069082	0.277834
C109	C	0.905430	-0.687205	-0.388845
C110	C	1.238763	-0.353872	-0.055512
C111	C	1.572097	-0.020539	0.277822
C112	C	0.905539	-1.015381	-0.388929
C113	C	1.238873	-0.682048	-0.055596
C114	C	1.572206	-0.348714	0.277738
C115	C	0.905507	-0.924073	-0.388908
C116	C	1.238840	-0.590739	-0.055575
C117	C	1.572174	-0.257406	0.277759
C118	C	0.905484	-0.851296	-0.388887
C119	C	1.238818	-0.517963	-0.055553
C120	C	1.572151	-0.184629	0.277780
C121	C	0.905453	-0.759982	-0.388866
C122	C	1.238786	-0.426649	-0.055533
C123	C	1.572119	-0.093315	0.277800
C124	C	1.068881	-0.388051	-0.388961
C125	C	1.402214	-0.054718	-0.055627
C126	C	1.735547	0.278615	0.277706
C127	C	1.138522	-0.388033	-0.389001
C128	C	1.471855	-0.054700	-0.055668
C129	C	1.805189	0.278633	0.277666
C130	C	0.905498	-0.388033	-0.599175
C131	C	1.238831	-0.054700	-0.265842
C132	C	1.572165	0.278633	0.067491
C133	C	0.905516	-0.388008	-0.688796
C134	C	1.238849	-0.054674	-0.355463
C135	C	1.572182	0.278659	-0.022130
C136	C	0.905534	-0.177785	-0.388918
C137	C	1.238867	0.155549	-0.055585
C138	C	1.572201	0.488882	0.277749
C139	C	0.905567	-0.088163	-0.388940
C140	C	1.238900	0.245170	-0.055606
C141	C	1.572233	0.578503	0.277727
C142	C	0.905544	-0.387917	-1.016972
C143	C	1.238878	-0.054584	-0.683639
C144	C	1.572211	0.278749	-0.350306
C145	C	0.905535	-0.387945	-0.925664
C146	C	1.238868	-0.054612	-0.592330
C147	C	1.572201	0.278721	-0.258997
C148	C	0.905530	-0.387963	-0.852887
C149	C	1.238864	-0.054630	-0.519554
C150	C	1.572197	0.278703	-0.186221
C151	C	0.905520	-0.387990	-0.761573
C152	C	1.238853	-0.054656	-0.428240
C153	C	1.572187	0.278677	-0.094906
C154	C	0.905453	-0.388095	-0.179375
C155	C	1.238786	-0.054762	0.153958
C156	C	1.572120	0.278572	0.487291
C157	C	0.905557	-0.387894	-0.089755
C158	C	1.238890	-0.054560	0.243579
C159	C	1.572224	0.278773	0.576912
H160	H	0.666960	-0.481854	-0.482133
H161	H	1.000293	-0.148520	-0.148799
H162	H	1.333627	0.184813	0.184534
Br163	Br	0.126824	-0.266319	-0.267678
Br164	Br	0.460157	0.067014	0.065655
Br165	Br	0.793490	0.400347	0.398989
Br166	Br	0.281057	-0.266361	-0.267608
Br167	Br	0.614390	0.066972	0.065725
Br168	Br	0.947724	0.400305	0.399058
H169	H	0.666936	-0.294483	-0.295375
H170	H	1.000270	0.038850	0.037959
H171	H	1.333603	0.372183	0.371292
Br172	Br	0.482765	-0.372925	-0.217617
Br173	Br	0.816098	-0.039592	0.115717
Br174	Br	1.149431	0.293741	0.449050
H175	H	0.548223	-0.294466	-0.295428
H176	H	0.881556	0.038868	0.037905
H177	H	1.214889	0.372201	0.371238
H178	H	0.465231	-0.399832	-0.520627
H179	H	0.798564	-0.066498	-0.187294
H180	H	1.131898	0.266835	0.146040
Br181	Br	0.530491	-0.509842	-0.510141
Br182	Br	0.863825	-0.176509	-0.176808
Br183	Br	1.197158	0.156824	0.156525
H184	H	0.346519	-0.399795	-0.520681
H185	H	0.679852	-0.066462	-0.187348
H186	H	1.013186	0.266871	0.145986
H187	H	0.263324	-0.481747	-0.482324
H188	H	0.596657	-0.148414	-0.148991
H189	H	0.929991	0.184919	0.184342
H190	H	0.144617	-0.481707	-0.482386
H191	H	0.477950	-0.148373	-0.149053
H192	H	0.811284	0.184960	0.184281
H193	H	0.346325	-0.376394	-0.257114
H194	H	0.679659	-0.043060	0.076220
H195	H	1.012992	0.290273	0.409553
