data_functionalizedCrystal
_audit_creation_method	'MofGen! by Chris Wilmer'
_symmetry_space_group_name_H-M	'P1'
_symmetry_Int_Tables_number	1
_symmetry_cell_setting	triclinic
loop_
_symmetry_equiv_pos_as_xyz
  x,y,z
_cell_length_a	15.625950
_cell_length_b	8.634740
_cell_length_c	7.088929
_cell_angle_alpha	82.809885
_cell_angle_beta	114.141725
_cell_angle_gamma	92.002955
loop_
_atom_site_label
_atom_site_type_symbol
_atom_site_fract_x
_atom_site_fract_y
_atom_site_fract_z
O1	O	1.248568	0.131147	0.706353
O2	O	0.978946	0.173717	0.519486
O3	O	1.100994	-0.071191	0.604077
O4	O	1.126520	0.376055	0.621762
O5	O	1.117298	-0.103992	0.933353
O6	O	0.995250	0.140916	0.848761
O7	O	1.264873	0.098347	1.035629
Cu8	Cu	1.131550	0.116636	0.972261
Cu9	Cu	1.112268	0.155427	0.582854
O10	O	1.142824	0.343254	0.951037
C11	C	1.103363	-0.144655	0.764704
C12	C	1.086122	-0.314684	0.752744
C13	C	0.952221	0.158633	0.659952
C14	C	0.848300	0.162539	0.587927
C15	C	0.550854	0.086093	1.248248
C16	C	0.453200	0.089802	1.180478
C17	C	0.435474	0.125558	0.821549
C18	C	0.533129	0.121859	0.889288
C19	C	0.590812	0.102125	1.102640
C20	C	0.573086	0.137891	0.743681
C21	C	0.670733	0.134185	0.811416
C22	C	0.728421	0.114447	1.024758
C23	C	0.688458	0.098418	1.170375
C24	C	0.515402	0.157615	0.530330
C25	C	0.555359	0.173647	0.384722
C26	C	0.653007	0.169952	0.452457
C27	C	0.710696	0.150213	0.665799
C28	C	0.692971	0.185980	0.306840
C29	C	0.790617	0.182273	0.374575
C30	C	0.808342	0.146507	0.733534
C31	C	1.291596	0.113430	0.895159
C32	C	1.395517	0.109526	0.967171
C33	C	1.140454	0.416718	0.790406
C34	C	1.157696	0.586749	0.802353
N35	N	1.145118	0.089352	1.246153
N36	N	1.098706	0.182699	0.308966
H37	H	1.011653	-0.360376	0.701125
H38	H	1.232165	-0.367545	0.853895
H39	H	1.193230	-0.007379	1.361155
H40	H	1.050605	0.279434	1.193981
H41	H	0.597823	0.070046	1.421980
H42	H	0.807931	0.111428	1.079905
C43	C	0.871799	0.124807	0.968233
N44	N	0.919595	0.108460	1.145001
H45	H	0.420672	0.076781	1.299066
C46	C	0.372013	0.147266	0.586867
N47	N	0.324214	0.163622	0.410101
C48	C	0.751915	0.076718	1.405074
N49	N	0.799710	0.060371	1.581842
H50	H	0.435893	0.160640	0.475187
H51	H	0.508381	0.189708	0.211010
C52	C	0.629507	0.207673	0.072159
N53	N	0.581707	0.224012	-0.104605
C54	C	0.834573	0.199922	0.214399
N55	N	0.867681	0.213214	0.093750
