data_functionalizedCrystal
_audit_creation_method	'MofGen! by Chris Wilmer'
_symmetry_space_group_name_H-M	'P1'
_symmetry_Int_Tables_number	1
_symmetry_cell_setting	triclinic
loop_
_symmetry_equiv_pos_as_xyz
  x,y,z
_cell_length_a	17.038272
_cell_length_b	14.853567
_cell_length_c	13.330367
_cell_angle_alpha	90.000844
_cell_angle_beta	90.001882
_cell_angle_gamma	87.373243
loop_
_atom_site_label
_atom_site_type_symbol
_atom_site_fract_x
_atom_site_fract_y
_atom_site_fract_z
O1	O	-1.037627	-0.195788	-0.083284
O2	O	-0.809993	-0.192680	-0.083314
O3	O	-0.929891	-0.063462	-0.083301
O4	O	-0.917730	-0.325006	-0.083297
O5	O	-0.929873	-0.063457	0.083546
O6	O	-0.809975	-0.192675	0.083534
O7	O	-1.037610	-0.195784	0.083563
Cu8	Cu	-0.923791	-0.194229	0.098783
Cu9	Cu	-0.923812	-0.194234	-0.098533
O10	O	-0.917712	-0.325002	0.083551
C11	C	-0.780852	-0.189850	0.000106
C12	C	-0.694048	-0.181414	0.000094
C13	C	-0.929331	-0.029829	0.000120
C14	C	-0.927680	0.070379	0.000111
C15	C	-1.066751	-0.198614	0.000141
C16	C	-1.153555	-0.207050	0.000147
C17	C	-0.644036	-0.258867	0.000096
C18	C	-0.562475	-0.250935	0.000110
C19	C	-0.530928	-0.165549	0.000115
C20	C	-0.580947	-0.088090	0.000115
C21	C	-0.662506	-0.096023	0.000109
C22	C	-0.285133	-0.137524	0.000141
C23	C	-0.203567	-0.129597	0.000144
C24	C	-0.185101	-0.292443	0.000141
C25	C	-0.266663	-0.300368	0.000128
C26	C	-0.316674	-0.222909	0.000135
C27	C	-0.447559	-0.157439	0.000125
C28	C	-0.400041	-0.231019	0.000131
C29	C	-0.918272	-0.358634	0.000128
C30	C	-0.919923	-0.458842	0.000130
N31	N	-0.923782	-0.194225	0.237564
C32	C	-0.849478	0.488797	0.000120
C33	C	-0.991919	0.499359	0.000138
C34	C	-0.993472	0.405209	0.000132
C35	C	-0.923026	0.352848	0.000122
C36	C	-0.851028	0.394638	0.000117
C37	C	-1.065468	0.363412	0.000147
C38	C	-1.067024	0.269255	0.000143
C39	C	-0.996578	0.216893	0.000125
C40	C	-0.924577	0.258689	0.000119
C41	C	-0.854131	0.206328	0.000108
C42	C	-0.782129	0.248122	0.000095
C43	C	-0.780582	0.342276	0.000099
C44	C	-0.998125	0.122739	0.000121
C45	C	-0.855682	0.112168	0.000106
N46	N	-0.923827	-0.194231	-0.237315
C47	C	-0.870719	-0.251428	0.710182
C48	C	-0.976926	-0.137036	0.710161
C49	C	-0.976917	-0.137032	0.605142
C50	C	-0.923809	-0.194228	0.552639
C51	C	-0.870710	-0.251428	0.605154
C52	C	-1.030021	-0.079840	0.552620
C53	C	-1.030014	-0.079835	0.447595
C54	C	-0.976902	-0.137027	0.395090
C55	C	-0.923800	-0.194229	0.447611
C56	C	-0.870692	-0.251425	0.395107
C57	C	-0.817586	-0.308622	0.447626
C58	C	-0.817597	-0.308620	0.552648
C59	C	-0.976890	-0.137029	0.290068
C60	C	-0.870683	-0.251425	0.290079
H61	H	-0.669714	-0.328397	0.000092
H62	H	-1.020132	-0.090464	0.247312
H63	H	-1.073255	-0.033261	0.404840
H64	H	-0.827478	-0.297995	0.752945
Cl65	Cl	-0.541287	0.019253	0.000127
Cl66	Cl	-0.499605	-0.348310	0.000107
H67	H	-0.292342	-0.369898	0.000113
H68	H	-1.073263	-0.033277	0.595372
Cl69	Cl	-1.154022	0.429239	0.000182
Cl70	Cl	-0.767116	0.046351	0.000085
H71	H	-1.125652	0.235235	0.000152
H72	H	-0.827433	-0.297998	0.247337
Cl73	Cl	-0.122225	-0.389813	0.000137
Cl74	Cl	-0.758966	0.541335	0.000093
Cl75	Cl	-0.163910	-0.022246	0.000173
H76	H	-1.056748	0.088715	0.000139
H77	H	-0.774361	-0.355189	0.595416
Cl78	Cl	-0.407893	-0.050100	0.000126
Cl79	Cl	-0.693573	0.182286	0.000091
H80	H	-0.774348	-0.355196	0.404866
Cl81	Cl	-1.043693	-0.065141	0.776162
Cl82	Cl	-0.690074	0.394822	0.000080
H83	H	-1.049272	0.541997	0.000155
H84	H	-0.325843	-0.074451	0.000147
H85	H	-0.703226	-0.032952	0.000107
Cl86	Cl	-0.439701	-0.338358	0.000128
