data_functionalizedCrystal
_audit_creation_method	'MofGen! by Chris Wilmer'
_symmetry_space_group_name_H-M	'P1'
_symmetry_Int_Tables_number	1
_symmetry_cell_setting	triclinic
loop_
_symmetry_equiv_pos_as_xyz
  x,y,z
_cell_length_a	17.699083
_cell_length_b	26.809956
_cell_length_c	17.699083
_cell_angle_alpha	89.996556
_cell_angle_beta	83.283015
_cell_angle_gamma	90.002782
loop_
_atom_site_label
_atom_site_type_symbol
_atom_site_fract_x
_atom_site_fract_y
_atom_site_fract_z
O1	O	1.004082	0.041411	0.095701
O2	O	0.783703	0.041427	0.108153
O3	O	0.900119	0.041414	-0.008262
O4	O	0.887666	0.041424	0.212116
O5	O	0.900097	-0.041545	-0.008245
O6	O	0.783681	-0.041532	0.108171
O7	O	1.004060	-0.041549	0.095718
Zn8	Zn	0.893867	-0.054712	0.101947
Zn9	Zn	0.893896	0.054590	0.101924
O10	O	0.887644	-0.041535	0.212134
C11	C	0.755495	-0.000050	0.107716
C12	C	0.671477	-0.000044	0.106377
C13	C	0.622856	-0.000041	0.174711
C14	C	0.543913	-0.000048	0.173448
C15	C	0.513592	-0.000054	0.103852
C16	C	0.562219	-0.000058	0.035513
C17	C	0.641161	-0.000055	0.036776
C18	C	0.243856	-0.000071	0.030418
C19	C	0.164908	-0.000072	0.029160
C20	C	0.146608	-0.000063	0.167090
C21	C	0.225550	-0.000060	0.168353
C22	C	0.274170	-0.000067	0.100015
C23	C	0.359769	-0.000061	0.101384
C24	C	0.427995	-0.000056	0.102481
N25	N	0.893853	-0.129308	0.101963
C26	C	0.945438	-0.473940	0.050388
C27	C	0.945456	-0.682817	0.050376
O28	O	0.989285	-0.709826	0.006530
N29	N	0.893900	-0.708935	0.101907
C30	C	0.842333	-0.682830	0.153441
O31	O	0.798476	-0.709837	0.197266
C32	C	0.842312	-0.473953	0.153449
C33	C	0.893876	-0.447838	0.101920
C34	C	0.996998	-0.447825	-0.001138
C35	C	0.996996	-0.395609	-0.001131
C36	C	0.945434	-0.369507	0.050400
C37	C	0.893874	-0.395622	0.101926
C38	C	0.790741	-0.447849	0.204979
C39	C	0.790739	-0.395627	0.204975
C40	C	0.842304	-0.369512	0.153445
C41	C	0.842310	-0.317304	0.153464
N42	N	0.893866	-0.291187	0.101933
C43	C	0.945428	-0.317288	0.050401
C44	C	0.842348	-0.792493	0.153435
C45	C	0.842354	-0.844712	0.153434
C46	C	0.945477	-0.844696	0.050368
C47	C	0.945474	-0.792476	0.050373
C48	C	0.893904	-0.766376	0.101904
C49	C	0.945420	-0.207630	0.050418
C50	C	0.945415	-0.155409	0.050431
C51	C	0.842290	-0.155430	0.153494
C52	C	0.842297	-0.207646	0.153485
C53	C	0.893865	-0.233745	0.101940
O54	O	0.798498	-0.290263	0.197281
O55	O	0.989266	-0.290272	0.006572
C56	C	0.945440	-0.526156	0.050382
C57	C	0.893881	-0.552271	0.101907
C58	C	0.842319	-0.526170	0.153439
C59	C	0.893887	-0.604490	0.101907
C60	C	0.945449	-0.630591	0.050375
C61	C	0.997005	-0.604474	-0.001156
C62	C	0.997002	-0.552257	-0.001150
C63	C	0.790763	-0.552287	0.204970
C64	C	0.790770	-0.604503	0.204960
C65	C	0.842332	-0.630605	0.153428
C66	C	1.032268	-0.000070	0.096156
C67	C	1.116286	-0.000073	0.097494
C68	C	0.899662	-0.000066	-0.036451
C69	C	0.898323	-0.000066	-0.120469
N70	N	0.893916	0.129186	0.101902
C71	C	0.966656	-0.000072	-0.169090
C72	C	0.965394	-0.000067	-0.248033
C73	C	0.895798	-0.000060	-0.278354
C74	C	0.827459	-0.000053	-0.229727
C75	C	0.828722	-0.000054	-0.150785
C76	C	0.822364	-0.000049	-0.548090
C77	C	0.821106	-0.000049	-0.627038
C78	C	0.959036	-0.000062	-0.645338
C79	C	0.960299	-0.000063	-0.566396
C80	C	0.891961	-0.000053	-0.517776
C81	C	0.893330	-0.000057	-0.432177
C82	C	0.894427	-0.000060	-0.363951
C83	C	0.888102	-0.000055	0.240322
C84	C	0.889440	-0.000051	0.324340
H85	H	0.107012	-0.000060	0.222734
H86	H	0.770792	-0.000044	-0.254420
H87	H	0.140225	-0.000078	-0.027517
H88	H	1.038991	-0.530998	-0.043110
N89	N	0.998105	-0.234285	-0.002220
N90	N	1.045044	-0.263421	0.021731
H91	H	1.082255	-0.282246	-0.015441
N92	N	0.998087	-0.128730	-0.002204
N93	N	1.045024	-0.099592	0.021744
H94	H	1.082222	-0.080752	-0.015431
N95	N	0.494238	-0.000050	0.243242
N96	N	0.423755	-0.000062	0.242108
H97	H	0.388670	-0.000069	0.291403
H98	H	0.283434	-0.000077	-0.025228
H99	H	0.537526	-0.000070	-0.021154
N100	N	0.256507	-0.000060	0.239451
N101	N	0.241558	-0.035029	0.285493
H102	H	0.263419	-0.035032	0.335709
N103	N	0.752554	-0.000042	-0.498443
N104	N	0.690421	-0.000040	-0.525528
H105	H	0.641114	-0.000037	-0.490463
N106	N	0.758922	-0.000037	-0.101115
N107	N	0.712619	0.034940	-0.103808
H108	H	0.663320	0.034955	-0.068728
N109	N	0.653812	-0.000041	0.245810
N110	N	0.638862	-0.035010	0.291851
H111	H	0.660722	-0.035012	0.342068
N112	N	0.690818	-0.000064	-0.033032
N113	N	0.663739	-0.000071	-0.095167
H114	H	0.698808	-0.000080	-0.144472
H115	H	1.016971	-0.000071	-0.541714
H116	H	0.748781	-0.625763	0.246928
N117	N	1.049727	-0.368945	-0.053719
N118	N	1.095792	-0.392264	-0.099685
H119	H	1.133057	-0.373436	-0.136809
H120	H	0.987462	-0.771217	0.008413
N121	N	1.049674	-0.474474	-0.053789
N122	N	1.095699	-0.451141	-0.099787
H123	H	1.132908	-0.469958	-0.136973
H124	H	0.987462	-0.865957	0.008410
N125	N	0.750004	-0.000045	-0.657998
N126	N	0.688994	-0.000037	-0.614580
H127	H	0.638780	-0.000036	-0.636446
H128	H	0.800374	-0.865971	0.195402
H129	H	1.014680	-0.000067	-0.684934
N130	N	0.789660	-0.765844	0.206080
N131	N	0.743636	-0.789175	0.252081
H132	H	0.706426	-0.770357	0.289264
H133	H	0.748753	-0.469105	0.246938
H134	H	0.748743	-0.374378	0.246937
H135	H	0.800316	-0.228909	0.195451
N136	N	1.035186	-0.000073	-0.297712
N137	N	1.049882	0.034895	-0.343810
H138	H	1.099174	0.034890	-0.378898
H139	H	0.800311	-0.134170	0.195453
N140	N	0.738082	-0.525637	0.257613
N141	N	0.692056	-0.548968	0.303613
H142	H	0.654848	-0.530149	0.340798
N143	N	1.049669	-0.631149	-0.053791
N144	N	1.049653	-0.677772	-0.053783
H145	H	1.086841	-0.696615	-0.090957
N146	N	1.037756	-0.000085	-0.138134
N147	N	1.098762	-0.000091	-0.181558
H148	H	1.148979	-0.000100	-0.159699
