data_functionalizedCrystal
_audit_creation_method	'MofGen! by Chris Wilmer'
_symmetry_space_group_name_H-M	'P1'
_symmetry_Int_Tables_number	1
_symmetry_cell_setting	triclinic
loop_
_symmetry_equiv_pos_as_xyz
  x,y,z
_cell_length_a	17.077404
_cell_length_b	13.031981
_cell_length_c	17.077396
_cell_angle_alpha	82.787914
_cell_angle_beta	89.981638
_cell_angle_gamma	97.189720
loop_
_atom_site_label
_atom_site_type_symbol
_atom_site_fract_x
_atom_site_fract_y
_atom_site_fract_z
Zn1	Zn	1.160409	-0.416167	-0.404091
Zn2	Zn	1.660409	0.083833	0.095909
Zn3	Zn	1.143664	-0.590961	-0.256139
Zn4	Zn	1.643664	-0.090961	0.243861
Zn5	Zn	1.029138	-0.416196	-0.272839
Zn6	Zn	1.529138	0.083804	0.227161
Zn7	Zn	1.012463	-0.590892	-0.387372
Zn8	Zn	1.512463	-0.090892	0.112628
O9	O	1.086418	-0.503554	-0.330111
O10	O	1.586418	-0.003554	0.169889
O11	O	1.268033	-0.439370	-0.384473
O12	O	1.768033	0.060630	0.115527
O13	O	1.128442	-0.567820	-0.148504
O14	O	1.628442	-0.067820	0.351496
O15	O	1.060537	-0.269929	-0.304236
O16	O	1.560537	0.230071	0.195764
O17	O	1.255730	-0.567791	-0.275774
O18	O	1.755730	-0.067791	0.224226
O19	O	1.156981	-0.269907	-0.400666
O20	O	1.656981	0.230093	0.099334
O21	O	1.044300	-0.439421	-0.160773
O22	O	1.544300	0.060579	0.339227
O23	O	0.917080	-0.439354	-0.288024
O24	O	1.417080	0.060646	0.211976
O25	O	1.032118	-0.567673	-0.499441
O26	O	1.532118	-0.067673	0.000559
O27	O	0.904830	-0.567702	-0.372171
O28	O	1.404830	-0.067702	0.127829
O29	O	1.140813	-0.439303	-0.511725
O30	O	1.640813	0.060697	-0.011725
O31	O	1.112274	-0.737215	-0.259562
O32	O	1.612274	-0.237215	0.240438
O33	O	1.015881	-0.737165	-0.355978
O34	O	1.515881	-0.237165	0.144022
C35	C	0.882473	-0.503525	-0.330096
C36	C	1.382473	-0.003525	0.169904
C37	C	0.795222	-0.503537	-0.330106
C38	C	1.295222	-0.003537	0.169894
C39	C	0.760627	-0.436787	-0.386771
C40	C	1.260627	0.063213	0.113229
C41	C	0.678646	-0.436794	-0.386774
C42	C	1.178646	0.063206	0.113226
C43	C	0.631261	-0.503557	-0.330114
C44	C	1.131261	-0.003557	0.169886
C45	C	0.665861	-0.570309	-0.273443
C46	C	1.165861	-0.070309	0.226557
C47	C	0.747842	-0.570297	-0.273438
C48	C	1.247842	-0.070297	0.226562
C49	C	0.494989	-0.570333	-0.273461
C50	C	0.994989	-0.070333	0.226539
C51	C	0.413003	-0.570348	-0.273467
C52	C	0.913003	-0.070348	0.226533
C53	C	0.425794	-0.436830	-0.386797
C54	C	0.925794	0.063170	0.113203
C55	C	0.507774	-0.436818	-0.386791
C56	C	1.007774	0.063182	0.113209
C57	C	0.542369	-0.503572	-0.330121
C58	C	1.042369	-0.003572	0.169879
C59	C	1.060472	-0.775114	-0.304161
C60	C	1.560472	-0.275114	0.195839
C61	C	1.049444	-0.891289	-0.293085
C62	C	1.549444	-0.391289	0.206915
C63	C	1.092216	-0.942989	-0.335907
C64	C	1.592216	-0.442989	0.164093
C65	C	1.080819	-1.063062	-0.324461
C66	C	1.580819	-0.563062	0.175539
C67	C	1.291160	-0.503585	-0.330126
C68	C	1.791160	-0.003585	0.169874
C69	C	1.378408	-0.503598	-0.330132
C70	C	1.878408	-0.003598	0.169868
C71	C	1.086473	-0.503477	-0.534862
C72	C	1.586473	-0.003477	-0.034862
C73	C	1.086497	-0.503444	-0.622115
C74	C	1.586497	-0.003444	-0.122115
C75	C	1.112487	-0.230934	-0.356179
C76	C	1.612487	0.269066	0.143821
C77	C	1.123596	-0.114759	-0.367288
C78	C	1.623596	0.385241	0.132712
C79	C	1.143096	-0.436596	-0.669503
C80	C	1.643096	0.063404	-0.169503
C81	C	1.143109	-0.436562	-0.751487
C82	C	1.643109	0.063438	-0.251487
C83	C	1.086525	-0.503381	-0.786081
C84	C	1.586525	-0.003381	-0.286081
C85	C	1.029919	-0.570232	-0.738687
C86	C	1.529919	-0.070232	-0.238687
C87	C	1.029904	-0.570261	-0.656705
C88	C	1.529904	-0.070261	-0.156705
C89	C	1.029957	-0.570169	-0.909563
C90	C	1.529957	-0.070169	-0.409563
C91	C	1.029973	-0.570142	-0.991550
C92	C	1.529973	-0.070142	-0.491550
C93	C	1.143162	-0.436470	-1.004345
C94	C	1.643162	0.063530	-0.504345
C95	C	1.143147	-0.436499	-0.922363
C96	C	1.643147	0.063501	-0.422363
C97	C	1.086542	-0.503351	-0.874975
C98	C	1.586542	-0.003351	-0.374975
C99	C	1.086416	-0.503556	-0.126163
C100	C	1.586416	-0.003556	0.373837
C101	C	1.086573	-0.503294	-0.038938
C102	C	1.586573	-0.003294	0.461062
H103	H	0.546353	-0.382460	-0.432932
H104	H	1.046353	0.117540	0.067068
F105	F	1.021919	-1.121388	-0.265466
F106	F	1.521919	-0.621388	0.234534
H107	H	0.374424	-0.624712	-0.227330
H108	H	0.874424	-0.124712	0.272670
H109	H	1.168651	-1.070133	-0.412428
H110	H	1.668651	-0.570133	0.087572
F111	F	0.641832	-0.365751	-0.447086
F112	F	1.141832	0.134249	0.052914
F113	F	0.388975	-0.365783	-0.447109
F114	F	0.888975	0.134217	0.052891
H115	H	1.004385	-0.935920	-0.247955
H116	H	1.504385	-0.435920	0.252045
H117	H	0.523153	-0.624689	-0.227312
H118	H	1.023153	-0.124689	0.272688
H119	H	0.627274	-0.624664	-0.227307
H120	H	1.127274	-0.124664	0.272693
F121	F	1.203325	-0.365482	-0.632693
F122	F	1.703325	0.134518	-0.132693
F123	F	1.203374	-0.365449	-0.801914
F124	F	1.703374	0.134551	-0.301914
F125	F	1.203374	-0.365388	-0.885547
F126	F	1.703374	0.134612	-0.385547
F127	F	1.203406	-0.365321	-1.054780
F128	F	1.703406	0.134679	-0.554780
F129	F	0.784659	-0.641342	-0.213127
F130	F	1.284659	-0.141342	0.286873
F131	F	0.969744	-0.641250	-1.028367
F132	F	1.469744	-0.141250	-0.528367
H133	H	1.137268	-0.898361	-0.381044
H134	H	1.637268	-0.398361	0.118956
F135	F	0.969695	-0.641342	-0.775507
F136	F	1.469695	-0.141342	-0.275507
F137	F	0.969710	-0.641319	-0.859130
F138	F	1.469710	-0.141319	-0.359130
H139	H	0.983807	-0.624685	-0.618123
H140	H	1.483807	-0.124685	-0.118123
H141	H	0.799203	-0.382424	-0.432912
H142	H	1.299203	0.117576	0.067088
