data_functionalizedCrystal
_audit_creation_method	'MofGen! by Chris Wilmer'
_symmetry_space_group_name_H-M	'P1'
_symmetry_Int_Tables_number	1
_symmetry_cell_setting	triclinic
loop_
_symmetry_equiv_pos_as_xyz
  x,y,z
_cell_length_a	10.723024
_cell_length_b	12.996460
_cell_length_c	10.723024
_cell_angle_alpha	90.000903
_cell_angle_beta	95.532131
_cell_angle_gamma	90.005942
loop_
_atom_site_label
_atom_site_type_symbol
_atom_site_fract_x
_atom_site_fract_y
_atom_site_fract_z
O1	O	1.657192	0.085557	-0.175019
O2	O	1.294040	0.085561	-0.191772
O3	O	1.483993	0.085555	-0.001819
O4	O	1.467240	0.085563	-0.364972
O5	O	1.483968	-0.085579	-0.001830
O6	O	1.294016	-0.085573	-0.191783
O7	O	1.657168	-0.085576	-0.175030
Cu8	Cu	1.475589	-0.101201	-0.183407
Cu9	Cu	1.475619	0.101185	-0.183394
O10	O	1.467215	-0.085571	-0.364983
C11	C	1.247528	-0.000006	-0.190558
C12	C	1.108974	-0.000005	-0.186911
C13	C	1.033991	-0.000002	-0.293198
C14	C	0.890788	-0.000000	-0.289431
N15	N	1.475578	-0.243548	-0.183416
C16	C	1.475584	-0.336654	-0.183419
C17	C	1.475595	-0.453459	-0.183411
C18	C	1.475611	-0.546557	-0.183397
C19	C	1.475624	-0.663370	-0.183390
C20	C	1.703680	-0.000008	-0.176243
C21	C	1.842234	-0.000002	-0.179891
C22	C	1.482762	-0.000011	0.044675
C23	C	1.479114	-0.000007	0.183229
N24	N	1.475640	0.243532	-0.183376
C25	C	1.468447	-0.000003	-0.411477
C26	C	1.472094	0.000000	-0.550031
C27	C	1.585401	-0.000006	0.258212
C28	C	1.581634	-0.000003	0.401415
H29	H	0.906659	0.000002	-0.088896
H30	H	1.679187	-0.000014	0.216390
C31	C	0.803760	0.000008	-0.412360
H32	H	0.852799	0.000017	-0.481572
H33	H	0.752385	-0.059667	-0.415687
H34	H	0.752414	0.059697	-0.415671
H35	H	1.075814	-0.000006	-0.386984
H36	H	1.067152	0.000020	-0.093125
H37	H	1.672624	-0.000007	0.465848
H38	H	1.381099	-0.000007	0.385544
C39	C	1.352409	0.000001	0.239708
H40	H	1.286214	0.000009	0.174095
H41	H	1.346405	-0.059672	0.289935
H42	H	1.346431	0.059692	0.289923
