data_functionalizedCrystal
_audit_creation_method	'MofGen! by Chris Wilmer'
_symmetry_space_group_name_H-M	'P1'
_symmetry_Int_Tables_number	1
_symmetry_cell_setting	triclinic
loop_
_symmetry_equiv_pos_as_xyz
  x,y,z
_cell_length_a	19.805407
_cell_length_b	29.839131
_cell_length_c	19.805399
_cell_angle_alpha	90.037218
_cell_angle_beta	90.019573
_cell_angle_gamma	90.035228
loop_
_atom_site_label
_atom_site_type_symbol
_atom_site_fract_x
_atom_site_fract_y
_atom_site_fract_z
Zn1	Zn	1.034694	-0.178864	0.382674
Zn2	Zn	1.034592	-0.253991	0.269467
Zn3	Zn	0.921509	-0.178876	0.269499
Zn4	Zn	0.921455	-0.253967	0.382614
O5	O	0.978062	-0.216425	0.326063
O6	O	1.129397	-0.188834	0.367669
O7	O	1.019571	-0.244042	0.174755
O8	O	0.936589	-0.116007	0.284551
O9	O	1.129322	-0.244030	0.284496
O10	O	1.019745	-0.115998	0.367700
O11	O	0.936489	-0.188856	0.174778
O12	O	0.826785	-0.188832	0.284492
O13	O	0.936497	-0.243990	0.477338
O14	O	0.826746	-0.244002	0.367597
O15	O	1.019693	-0.188811	0.477383
O16	O	1.019518	-0.316855	0.284437
O17	O	0.936397	-0.316838	0.367566
C18	C	0.802206	-0.216416	0.326042
C19	C	0.726974	-0.216423	0.326048
C20	C	0.977959	-0.333147	0.326006
C21	C	0.977977	-0.383082	0.326005
C22	C	0.691627	-0.245193	0.369251
C23	C	0.620939	-0.245194	0.369261
C24	C	0.585599	-0.216427	0.326063
C25	C	0.620951	-0.187654	0.282859
C26	C	0.691638	-0.187651	0.282853
C27	C	0.335878	-0.187664	0.282881
C28	C	0.265185	-0.187669	0.282889
C29	C	0.265178	-0.245207	0.369289
C30	C	0.335866	-0.245204	0.369283
C31	C	0.371211	-0.216429	0.326081
C32	C	0.447860	-0.216428	0.326072
C33	C	0.508952	-0.216430	0.326068
C34	C	1.021353	-0.692685	0.369421
C35	C	1.021426	-0.880358	0.369462
O36	O	1.058205	-0.904590	0.406334
N37	N	0.978177	-0.903867	0.326139
C38	C	0.934904	-0.880454	0.282805
O39	O	0.898115	-0.904755	0.245962
C40	C	0.934828	-0.692782	0.282769
C41	C	0.978084	-0.669276	0.326090
C42	C	1.064605	-0.669180	0.412739
C43	C	1.064589	-0.622264	0.412726
C44	C	1.021320	-0.598855	0.369395
C45	C	0.978068	-0.622360	0.326077
C46	C	0.891551	-0.669370	0.239439
C47	C	0.891535	-0.622449	0.239435
C48	C	0.934791	-0.598943	0.282756
C49	C	0.934783	-0.552035	0.282732
N50	N	0.978032	-0.528527	0.326055
C51	C	1.021300	-0.551937	0.369387
C52	C	0.934948	-0.978984	0.282827
C53	C	0.934968	-1.025902	0.282835
C54	C	1.021489	-1.025804	0.369492
C55	C	1.021472	-0.978885	0.369480
C56	C	0.978197	-0.955476	0.326150
C57	C	1.021264	-0.453411	0.369355
C58	C	1.021246	-0.406491	0.369336
C59	C	0.934722	-0.406594	0.282681
C60	C	0.934742	-0.453509	0.282698
C61	C	0.978015	-0.476917	0.326040
O62	O	0.898018	-0.527775	0.245885
O63	O	1.058073	-0.527627	0.406235
C64	C	1.021369	-0.739601	0.369434
C65	C	0.978116	-0.763107	0.326116
C66	C	0.934848	-0.739697	0.282785
C67	C	0.978136	-0.810025	0.326124
C68	C	1.021405	-0.833434	0.369456
C69	C	1.064654	-0.809926	0.412779
C70	C	1.064638	-0.763010	0.412766
C71	C	0.891599	-0.763205	0.239462
C72	C	0.891619	-0.810121	0.239478
C73	C	0.934888	-0.833530	0.282809
C74	C	1.154605	-0.216434	0.326086
C75	C	1.229837	-0.216437	0.326095
C76	C	0.978100	-0.216396	0.502606
C77	C	0.978117	-0.216384	0.577838
C78	C	0.978184	-0.099246	0.326136
C79	C	0.978236	-0.049312	0.326166
C80	C	0.978064	-0.216420	0.150208
C81	C	0.978179	-0.216306	0.074976
C82	C	1.021438	-0.187652	0.613207
C83	C	1.021445	-0.187638	0.683895
C84	C	0.978133	-0.216361	0.719214
C85	C	0.934807	-0.245095	0.683841
C86	C	0.934797	-0.245105	0.613153
C87	C	0.934845	-0.245053	0.968914
C88	C	0.934860	-0.245041	1.039606
C89	C	1.021493	-0.187586	1.039656
C90	C	1.021483	-0.187597	0.968969
C91	C	0.978155	-0.216329	0.933601
C92	C	0.978147	-0.216342	0.856953
C93	C	0.978144	-0.216350	0.795861
H94	H	0.720396	-0.268620	0.404425
O95	O	1.063457	-0.159738	0.718356
C96	C	1.054186	-0.165889	0.788320
H97	H	1.001940	-0.180603	0.797952
H98	H	1.094315	-0.189806	0.808381
C99	C	1.124597	-0.102353	0.812803
C100	C	1.060425	-0.120421	0.824634
H101	H	1.128448	-0.074307	0.835204
H102	H	1.130845	-0.098209	0.765667
H103	H	1.158030	-0.122288	0.829521
H104	H	1.026993	-0.100489	0.807908
H105	H	1.054170	-0.124561	0.871768
H106	H	1.099861	-0.743875	0.448042
O107	O	0.849499	-0.832931	0.197464
C108	C	0.782032	-0.821480	0.212188
H109	H	0.778588	-0.808556	0.266255
H110	H	0.764355	-0.794272	0.175881
C111	C	0.741097	-0.879055	0.137876
C112	C	0.736866	-0.863186	0.204284
H113	H	0.713235	-0.904781	0.132998
H114	H	0.786550	-0.886769	0.127953
H115	H	0.726367	-0.856378	0.107627
H116	H	0.751604	-0.885860	0.234531
H117	H	0.691414	-0.855477	0.214211
H118	H	0.592171	-0.164229	0.247690
H119	H	0.899575	-0.268455	0.940127
O120	O	1.063581	-0.159813	0.578870
C121	C	1.107256	-0.185396	0.537959
H122	H	1.111408	-0.220776	0.559238
H123	H	1.086318	-0.186950	0.484382
C124	C	1.172539	-0.119993	0.510764
C125	C	1.177643	-0.163446	0.536903
H126	H	1.215957	-0.106453	0.510110
H127	H	1.143113	-0.102757	0.538324
H128	H	1.155088	-0.121295	0.466119
H129	H	1.195086	-0.162144	0.581550
H130	H	1.207074	-0.180682	0.509350
O131	O	0.892702	-0.273065	0.578899
C132	C	0.854468	-0.298409	0.625228
H133	H	0.882194	-0.299953	0.675623
H134	H	0.803076	-0.281959	0.632741
C135	C	0.810620	-0.344332	0.535715
C136	C	0.844676	-0.346232	0.597610
H137	H	0.804577	-0.373831	0.518679
H138	H	0.836377	-0.327256	0.504502
H139	H	0.767797	-0.330622	0.541984
H140	H	0.887502	-0.359936	0.591338
H141	H	0.818926	-0.363311	0.628822
H142	H	0.592162	-0.268622	0.404440
H143	H	1.099810	-0.603128	0.448004
O144	O	0.892890	-1.048664	0.240726
C145	C	0.854710	-1.017935	0.202471
H146	H	0.852342	-0.984479	0.230190
H147	H	0.879525	-1.012956	0.151088
C148	C	0.785593	-1.077380	0.158606
C149	C	0.782679	-1.036290	0.192653
H150	H	0.741161	-1.088702	0.152547
H151	H	0.811317	-1.098083	0.184377
H152	H	0.806275	-1.073225	0.115790
H153	H	0.762005	-1.040446	0.235471
H154	H	0.756950	-1.015588	0.166890
H155	H	1.056754	-0.164209	0.940216
H156	H	1.099840	-0.688235	0.448029
O157	O	1.063193	-0.383678	0.411519
C158	C	1.048372	-0.395125	0.478966
H159	H	0.994301	-0.408049	0.482333
H160	H	1.084657	-0.422330	0.496699
C161	C	1.122619	-0.337544	0.520002
C162	C	1.056206	-0.353415	0.524139
H163	H	1.127454	-0.311817	0.547868
H164	H	1.132606	-0.329834	0.474562
H165	H	1.152849	-0.360220	0.534778
H166	H	1.025979	-0.330742	0.509355
H167	H	1.046214	-0.361121	0.569577
H168	H	0.720417	-0.164221	0.247677
O169	O	1.063514	-0.159685	1.074117
C170	C	1.054248	-0.165838	1.144081
H171	H	1.001999	-0.180546	1.153718
H172	H	1.094373	-0.189761	1.164136
C173	C	1.124679	-0.102312	1.168563
C174	C	1.060503	-0.120373	1.180399
H175	H	1.128539	-0.074267	1.190966
H176	H	1.130923	-0.098167	1.121427
H177	H	1.158109	-0.122252	1.185275
H178	H	1.027075	-0.100436	1.163679
H179	H	1.054253	-0.124513	1.227533
H180	H	0.899588	-0.268431	1.068361
H181	H	0.899540	-0.268480	0.712603
H182	H	1.099887	-0.828994	0.448059
H183	H	0.364648	-0.164237	0.247699
H184	H	0.364636	-0.268631	0.404456
H185	H	0.856327	-0.688500	0.204162
O186	O	1.063334	-0.476192	0.411363
C187	C	1.107100	-0.503318	0.372880
H188	H	1.083261	-0.510397	0.321568
H189	H	1.157252	-0.485207	0.365479
C190	C	1.148642	-0.539158	0.473177
C191	C	1.119360	-0.547855	0.410157
H192	H	1.156208	-0.566630	0.496172
H193	H	1.119158	-0.520881	0.499104
H194	H	1.190432	-0.524064	0.467000
H195	H	1.077568	-0.562944	0.416335
H196	H	1.148838	-0.566136	0.384232
O197	O	1.063508	-0.956123	0.411631
C198	C	1.101712	-0.986851	0.449862
H199	H	1.073999	-1.020311	0.452177
H200	H	1.153135	-0.991822	0.425126
C201	C	1.145451	-0.927409	0.519065
C202	C	1.111411	-0.968504	0.521914
H203	H	1.151437	-0.916091	0.563509
H204	H	1.119714	-0.906706	0.493307
H205	H	1.188300	-0.931557	0.498449
H206	H	1.068560	-0.964354	0.542521
H207	H	1.137141	-0.989206	0.547677
H208	H	0.236391	-0.268634	0.404468
H209	H	0.236413	-0.164241	0.247712
O210	O	0.849402	-0.599759	0.197376
C211	C	0.781939	-0.611247	0.212125
H212	H	0.780537	-0.645299	0.238153
H213	H	0.759112	-0.584835	0.246896
C214	C	0.742696	-0.571653	0.114138
C215	C	0.740974	-0.613478	0.146101
H216	H	0.717425	-0.573027	0.073412
H217	H	0.788147	-0.563912	0.104202
H218	H	0.723675	-0.549648	0.143121
H219	H	0.760002	-0.635481	0.117121
H220	H	0.695525	-0.621223	0.156030
O221	O	0.892664	-0.476276	0.240591
C222	C	0.854486	-0.445551	0.202329
H223	H	0.852120	-0.412091	0.230039
H224	H	0.879300	-0.440579	0.150944
C225	C	0.785363	-0.504999	0.158481
C226	C	0.782453	-0.463904	0.192517
H227	H	0.740931	-0.516321	0.152426
H228	H	0.811086	-0.525700	0.184257
H229	H	0.806045	-0.500850	0.115664
H230	H	0.761779	-0.468055	0.235337
H231	H	0.756725	-0.443205	0.166748
O232	O	0.892713	-0.383780	0.240656
C233	C	0.901989	-0.337329	0.249930
H234	H	0.924130	-0.330886	0.302183
H235	H	0.938050	-0.324015	0.209812
C236	C	0.806309	-0.321194	0.179492
C237	C	0.833497	-0.313280	0.243672
H238	H	0.764061	-0.306358	0.175629
H239	H	0.800061	-0.352488	0.173241
H240	H	0.836366	-0.310098	0.146067
H241	H	0.803444	-0.324380	0.277095
H242	H	0.839739	-0.281986	0.249928
H243	H	1.056721	-1.044872	0.404774
H244	H	0.899707	-0.959928	0.247540
H245	H	0.856364	-0.744149	0.204177
