data_functionalizedCrystal
_audit_creation_method	'MofGen! by Chris Wilmer'
_symmetry_space_group_name_H-M	'P1'
_symmetry_Int_Tables_number	1
_symmetry_cell_setting	triclinic
loop_
_symmetry_equiv_pos_as_xyz
  x,y,z
_cell_length_a	23.532407
_cell_length_b	22.010155
_cell_length_c	23.532407
_cell_angle_alpha	89.990798
_cell_angle_beta	97.151322
_cell_angle_gamma	90.010358
loop_
_atom_site_label
_atom_site_type_symbol
_atom_site_fract_x
_atom_site_fract_y
_atom_site_fract_z
O1	O	0.755269	0.050455	-0.069133
O2	O	1.255269	0.550455	0.430867
O3	O	0.589406	0.050474	-0.079137
O4	O	1.089406	0.550474	0.420863
O5	O	0.677339	0.050453	0.008797
O6	O	1.177339	0.550453	0.508797
O7	O	0.667336	0.050476	-0.157067
O8	O	1.167336	0.550476	0.342933
O9	O	0.677312	-0.050597	0.008797
O10	O	1.177312	0.449403	0.508797
O11	O	0.589379	-0.050576	-0.079137
O12	O	1.089379	0.449424	0.420863
O13	O	0.755243	-0.050595	-0.069133
O14	O	1.255243	0.449405	0.430867
Cu15	Cu	0.672308	-0.059812	-0.074135
Cu16	Cu	1.172308	0.440188	0.425865
Cu17	Cu	0.672340	0.059691	-0.074135
Cu18	Cu	1.172340	0.559691	0.425865
O19	O	0.667309	-0.050574	-0.157067
O20	O	1.167309	0.449426	0.342933
C21	C	0.568176	-0.000049	-0.078882
C22	C	1.068176	0.499951	0.421118
C23	C	0.504959	-0.000042	-0.078116
C24	C	1.004959	0.499958	0.421884
N25	N	0.672291	-0.143865	-0.074135
N26	N	1.172291	0.356135	0.425865
C27	C	0.105856	-0.000063	-0.125350
C28	C	0.605856	0.499937	0.374650
C29	C	0.046456	-0.000067	-0.124638
C30	C	0.546456	0.499933	0.375362
O31	O	0.009711	-0.000083	-0.168424
O32	O	0.509711	0.499917	0.331576
N33	N	0.023830	-0.000073	-0.072362
N34	N	0.523830	0.499927	0.427638
C35	C	0.060607	-0.000082	-0.020794
C36	C	0.560607	0.499918	0.479206
O37	O	0.035908	-0.000088	0.023737
O38	O	0.535908	0.499912	0.523737
C39	C	0.120006	-0.000082	-0.021506
C40	C	0.620006	0.499918	0.478494
C41	C	0.142629	-0.000070	-0.073785
C42	C	0.642629	0.499930	0.426215
C43	C	0.128479	-0.000051	-0.177625
C44	C	0.628479	0.499949	0.322375
C45	C	0.187876	-0.000046	-0.178336
C46	C	0.687876	0.499954	0.321664
C47	C	0.224649	-0.000053	-0.126772
C48	C	0.724649	0.499947	0.373228
C49	C	0.202025	-0.000065	-0.074497
C50	C	0.702025	0.499935	0.425503
C51	C	0.156783	-0.000096	0.030062
C52	C	0.656783	0.499904	0.530062
C53	C	0.216185	-0.000097	0.029345
C54	C	0.716185	0.499903	0.529345
C55	C	0.238808	-0.000084	-0.022934
C56	C	0.738808	0.499916	0.477066
C57	C	0.298194	-0.000067	-0.023643
C58	C	0.798194	0.499933	0.476357
N59	N	0.320820	-0.000061	-0.075920
N60	N	0.820820	0.499939	0.424080
C61	C	0.284048	-0.000054	-0.127484
C62	C	0.784048	0.499946	0.372516
C63	C	-0.064135	-0.000082	-0.019302
C64	C	0.435865	0.499918	0.480698
C65	C	-0.123533	-0.000077	-0.018589
C66	C	0.376467	0.499923	0.481411
C67	C	-0.137680	-0.000063	-0.122434
C68	C	0.362320	0.499937	0.377566
C69	C	-0.078281	-0.000064	-0.123146
C70	C	0.421719	0.499936	0.376854
C71	C	-0.041509	-0.000076	-0.071578
C72	C	0.458491	0.499924	0.428422
C73	C	0.408784	-0.000043	-0.128974
C74	C	0.908784	0.499957	0.371026
C75	C	0.468186	-0.000035	-0.129680
C76	C	0.968186	0.499965	0.370320
C77	C	0.482329	-0.000052	-0.025836
C78	C	0.982329	0.499948	0.474164
C79	C	0.422932	-0.000057	-0.025129
C80	C	0.922932	0.499943	0.474871
C81	C	0.386160	-0.000054	-0.076702
C82	C	0.886160	0.499946	0.423298
O83	O	0.334974	-0.000054	0.020119
O84	O	0.834974	0.499946	0.520119
O85	O	0.308755	-0.000055	-0.172007
O86	O	0.808755	0.499945	0.327993
C87	C	0.706685	-0.563643	-0.108496
C88	C	1.206685	-0.063643	0.391504
C89	C	0.706692	-0.627251	-0.108494
C90	C	1.206692	-0.127251	0.391506
O91	O	0.735915	-0.660141	-0.137705
O92	O	1.235915	-0.160141	0.362295
N93	N	0.672351	-0.659072	-0.074128
N94	N	1.172351	-0.159072	0.425872
C95	C	0.638005	-0.627282	-0.039758
C96	C	1.138005	-0.127282	0.460242
O97	O	0.608796	-0.660189	-0.010527
O98	O	1.108796	-0.160189	0.489473
C99	C	0.638002	-0.563676	-0.039757
C100	C	1.138002	-0.063676	0.460243
C101	C	0.672341	-0.531858	-0.074129
C102	C	1.172341	-0.031858	0.425871
C103	C	0.741022	-0.531825	-0.142864
C104	C	1.241022	-0.031825	0.357136
C105	C	0.741014	-0.468222	-0.142867
C106	C	1.241014	0.031778	0.357133
C107	C	0.706670	-0.436437	-0.108500
C108	C	1.206670	0.063563	0.391500
C109	C	0.672333	-0.468255	-0.074131
C110	C	1.172333	0.031745	0.425869
C111	C	0.603660	-0.531887	-0.005383
C112	C	1.103660	-0.031887	0.494617
C113	C	0.603660	-0.468276	-0.005384
C114	C	1.103660	0.031724	0.494616
C115	C	0.637999	-0.436458	-0.039757
C116	C	1.137999	0.063542	0.460243
C117	C	0.637981	-0.372866	-0.039766
C118	C	1.137981	0.127134	0.460234
N119	N	0.672322	-0.341045	-0.074132
N120	N	1.172322	0.158955	0.425868
C121	C	0.706667	-0.372830	-0.108498
C122	C	1.206667	0.127170	0.391502
C123	C	0.638015	-0.760860	-0.039762
C124	C	1.138015	-0.260860	0.460238
C125	C	0.638015	-0.824465	-0.039766
C126	C	1.138015	-0.324465	0.460234
C127	C	0.706703	-0.824429	-0.108502
C128	C	1.206703	-0.324429	0.391498
C129	C	0.706700	-0.760823	-0.108501
C130	C	1.206700	-0.260823	0.391499
C131	C	0.672356	-0.729039	-0.074128
C132	C	1.172356	-0.229039	0.425872
C133	C	0.706648	-0.239259	-0.108501
C134	C	1.206648	0.260741	0.391499
C135	C	0.706635	-0.175650	-0.108502
C136	C	1.206635	0.324350	0.391498
C137	C	0.637950	-0.175691	-0.039764
C138	C	1.137950	0.324309	0.460236
C139	C	0.637960	-0.239295	-0.039765
C140	C	1.137960	0.260705	0.460235
C141	C	0.672313	-0.271077	-0.074135
C142	C	1.172313	0.228923	0.425865
O143	O	0.608775	-0.339935	-0.010568
O144	O	1.108775	0.160065	0.489432
O145	O	0.735876	-0.339916	-0.137719
O146	O	1.235876	0.160084	0.362281
C147	C	0.776472	-0.000071	-0.069388
C148	C	1.276472	0.499929	0.430612
C149	C	0.839689	-0.000073	-0.070154
C150	C	1.339689	0.499927	0.429846
C151	C	0.677071	-0.000074	0.030013
C152	C	1.177071	0.499926	0.530013
C153	C	0.676305	-0.000078	0.093230
C154	C	1.176305	0.499922	0.593230
N155	N	0.672362	0.143744	-0.074131
N156	N	1.172362	0.643744	0.425869
C157	C	0.667577	-0.000046	-0.178283
C158	C	1.167577	0.499954	0.321717
C159	C	0.668343	-0.000037	-0.241500
C160	C	1.168343	0.499963	0.258500
C161	C	0.723539	-0.000050	0.492333
C162	C	1.223539	0.499950	0.992333
C163	C	0.722827	-0.000046	0.551733
C164	C	1.222827	0.499954	1.051733
O165	O	0.766613	-0.000028	0.588478
O166	O	1.266613	0.499972	1.088478
N167	N	0.670551	-0.000040	0.574359
N168	N	1.170551	0.499960	1.074359
C169	C	0.618983	-0.000033	0.537582
C170	C	1.118983	0.499967	1.037582
O171	O	0.574452	-0.000027	0.562281
O172	O	1.074452	0.499973	1.062281
C173	C	0.619695	-0.000033	0.478182
C174	C	1.119695	0.499967	0.978182
C175	C	0.671974	-0.000045	0.455560
C176	C	1.171974	0.499955	0.955560
C177	C	0.775814	-0.000061	0.469710
C178	C	1.275814	0.499939	0.969710
C179	C	0.776525	-0.000067	0.410313
C180	C	1.276525	0.499933	0.910313
C181	C	0.724961	-0.000062	0.373540
C182	C	1.224961	0.499938	0.873540
C183	C	0.672685	-0.000051	0.396164
C184	C	1.172685	0.499949	0.896164
C185	C	0.568127	-0.000022	0.441406
C186	C	1.068127	0.499978	0.941406
C187	C	0.568844	-0.000022	0.382004
C188	C	1.068844	0.499978	0.882004
C189	C	0.621123	-0.000034	0.359381
C190	C	1.121123	0.499966	0.859381
C191	C	0.621832	-0.000052	0.299995
C192	C	1.121832	0.499948	0.799995
N193	N	0.674109	-0.000057	0.277368
N194	N	1.174109	0.499943	0.777368
C195	C	0.725673	-0.000062	0.314141
C196	C	1.225673	0.499938	0.814141
C197	C	0.617491	-0.000031	0.662324
C198	C	1.117491	0.499969	1.162324
C199	C	0.616778	-0.000035	0.721722
C200	C	1.116778	0.499965	1.221722
C201	C	0.720623	-0.000047	0.735869
C202	C	1.220623	0.499953	1.235869
C203	C	0.721335	-0.000047	0.676470
C204	C	1.221335	0.499953	1.176470
C205	C	0.669767	-0.000037	0.639698
C206	C	1.169767	0.499963	1.139698
C207	C	0.727163	-0.000075	0.189405
C208	C	1.227163	0.499925	0.689405
C209	C	0.727869	-0.000083	0.130003
C210	C	1.227869	0.499917	0.630003
C211	C	0.624025	-0.000069	0.115860
C212	C	1.124025	0.499931	0.615860
C213	C	0.623318	-0.000064	0.175257
C214	C	1.123318	0.499936	0.675257
C215	C	0.674891	-0.000065	0.212029
C216	C	1.174891	0.499935	0.712029
O217	O	0.578070	-0.000067	0.263215
O218	O	1.078070	0.499933	0.763215
O219	O	0.770196	-0.000060	0.289433
O220	O	1.270196	0.499940	0.789433
H221	H	0.486602	-0.000025	-0.172255
H222	H	0.986602	0.499975	0.327745
H223	H	0.609986	-0.149800	-0.011785
H224	H	1.109986	0.350200	0.488215
H225	H	0.575698	-0.557782	0.022607
H226	H	1.075698	-0.057782	0.522607
H227	H	0.734667	-0.850321	-0.136486
H228	H	1.234667	-0.350321	0.363514
C229	C	0.212347	0.000057	-0.235143
C230	C	0.712347	0.500057	0.264857
C231	C	0.193615	0.052041	-0.266297
C232	C	0.693615	0.552041	0.233703
C233	C	0.216133	0.052152	-0.318638
C234	C	0.716133	0.552152	0.181362
H235	H	0.252988	0.000089	-0.228278
H236	H	0.752988	0.500089	0.271722
H237	H	0.199676	-0.035161	-0.256387
H238	H	0.699676	0.464839	0.243613
H239	H	0.206289	0.087250	-0.245058
H240	H	0.706289	0.587250	0.254942
H241	H	0.152977	0.052020	-0.273178
H242	H	0.652977	0.552020	0.226822
H243	H	0.203462	0.016934	-0.339882
H244	H	0.703462	0.516934	0.160118
H245	H	0.256773	0.052182	-0.311767
H246	H	0.756773	0.552182	0.188233
H247	H	0.203422	0.087419	-0.339785
H248	H	0.703422	0.587419	0.160215
H249	H	0.734598	-0.149747	-0.136494
H250	H	1.234598	0.350253	0.363506
C251	C	0.600657	-0.726464	-0.002430
C252	C	1.100657	-0.226464	0.497570
C253	C	0.570575	-0.767951	0.027650
C254	C	1.070575	-0.267951	0.527650
C255	C	0.536150	-0.736292	0.062041
C256	C	1.036150	-0.236292	0.562041
H257	H	0.624077	-0.701647	0.023950
H258	H	1.124077	-0.201647	0.523950
H259	H	0.574281	-0.701668	-0.025890
H260	H	1.074281	-0.201668	0.474110
H261	H	0.596947	-0.792737	0.051109
H262	H	1.096947	-0.292737	0.551109
H263	H	0.547144	-0.792770	0.001285
H264	H	1.047144	-0.292770	0.501285
H265	H	0.509774	-0.711496	0.038580
H266	H	1.009774	-0.211496	0.538580
H267	H	0.559574	-0.711476	0.088417
H268	H	1.059574	-0.211476	0.588417
H269	H	0.515731	-0.764436	0.082450
H270	H	1.015731	-0.264436	0.582450
H271	H	0.378851	-0.000042	-0.170970
H272	H	0.878851	0.499958	0.329030
H273	H	0.819097	-0.000074	0.391900
H274	H	1.319097	0.499926	0.891900
C275	C	0.778365	-0.433792	-0.180197
C276	C	1.278365	0.066208	0.319803
C277	C	0.808453	-0.475253	-0.210276
C278	C	1.308453	0.024747	0.289724
C279	C	0.842876	-0.443564	-0.244665
C280	C	1.342876	0.056436	0.255335
H281	H	0.754944	-0.408977	-0.206577
H282	H	1.254944	0.091023	0.293423
H283	H	0.804738	-0.408992	-0.156735
H284	H	1.304738	0.091008	0.343265
H285	H	0.782084	-0.500043	-0.233737
H286	H	1.282084	-0.000043	0.266263
H287	H	0.831885	-0.500070	-0.183911
H288	H	1.331885	-0.000070	0.316089
H289	H	0.869248	-0.418763	-0.221203
H290	H	1.369248	0.081237	0.278797
H291	H	0.819450	-0.418750	-0.271041
H292	H	1.319450	0.081250	0.228959
H293	H	0.863298	-0.471690	-0.265074
H294	H	1.363298	0.028310	0.234926
H295	H	0.575496	-0.000028	0.632386
H296	H	1.075496	0.499972	1.132386
C297	C	0.568000	0.000036	0.075994
C298	C	1.068000	0.500036	0.575994
C299	C	0.536515	0.052025	0.086174
C300	C	1.036515	0.552025	0.586174
C301	C	0.484899	0.052144	0.049464
C302	C	0.984899	0.552144	0.549464
H303	H	0.575836	0.000066	0.037361
H304	H	1.075836	0.500066	0.537361
H305	H	0.546503	-0.035178	0.082830
H306	H	1.046503	0.464822	0.582830
H307	H	0.558008	0.087230	0.079335
H308	H	1.058008	0.587230	0.579335
H309	H	0.528664	0.052006	0.124801
H310	H	1.028664	0.552006	0.624801
H311	H	0.463402	0.016930	0.056299
H312	H	0.963402	0.516930	0.556299
H313	H	0.492741	0.052172	0.010833
H314	H	0.992741	0.552172	0.510833
H315	H	0.463528	0.087415	0.056370
H316	H	0.963528	0.587415	0.556370
C317	C	0.778155	-0.000021	0.652022
C318	C	1.278155	0.499979	1.152022
C319	C	0.823156	-0.000012	0.696947
C320	C	1.323156	0.499988	1.196947
C321	C	0.875508	0.000023	0.674451
C322	C	1.375508	0.500023	1.174451
H323	H	0.780668	-0.035249	0.629156
H324	H	1.280668	0.464751	1.129156
H325	H	0.780632	0.035233	0.629160
H326	H	1.280632	0.535233	1.129160
H327	H	0.820680	-0.035262	0.719800
H328	H	1.320680	0.464738	1.219800
H329	H	0.820662	0.035213	0.719816
H330	H	1.320662	0.535213	1.219816
H331	H	0.877986	0.035277	0.651588
H332	H	1.377986	0.535277	1.151588
H333	H	0.878015	-0.035205	0.651585
H334	H	1.378015	0.464795	1.151585
H335	H	0.906048	0.000035	0.704928
H336	H	1.406048	0.500035	1.204928
C337	C	0.566308	-0.433878	0.031952
C338	C	1.066308	0.066122	0.531952
C339	C	0.536229	-0.475363	0.062039
C340	C	1.036229	0.024637	0.562039
C341	C	0.501809	-0.443699	0.096431
C342	C	1.001809	0.056301	0.596431
H343	H	0.589731	-0.409060	0.058328
H344	H	1.089731	0.090940	0.558328
H345	H	0.539931	-0.409084	0.008492
H346	H	1.039931	0.090916	0.508492
H347	H	0.562604	-0.500147	0.085497
H348	H	1.062604	-0.000147	0.585497
H349	H	0.512796	-0.500183	0.035678
H350	H	1.012796	-0.000183	0.535678
H351	H	0.475432	-0.418905	0.072971
H352	H	0.975432	0.081095	0.572971
H353	H	0.525237	-0.418882	0.122804
H354	H	1.025237	0.081118	0.622804
H355	H	0.481393	-0.471841	0.116845
H356	H	0.981393	0.028159	0.616845
H357	H	0.574207	-0.000036	0.740136
H358	H	1.074207	0.499964	1.240136
C359	C	0.256177	-0.000012	0.085292
C360	C	0.756177	0.499988	0.585292
C361	C	0.290707	0.051971	0.087915
C362	C	0.790707	0.551971	0.587915
C363	C	0.327557	0.052067	0.139440
C364	C	0.827557	0.552067	0.639440
H365	H	0.234265	0.000012	0.116574
H366	H	0.734265	0.500012	0.616574
H367	H	0.279672	-0.035231	0.087178
H368	H	0.779672	0.464769	0.587178
H369	H	0.267214	0.087180	0.086035
H370	H	0.767214	0.587180	0.586035
H371	H	0.312631	0.051958	0.056645
H372	H	0.812631	0.551958	0.556645
H373	H	0.351053	0.016848	0.141325
H374	H	0.851053	0.516848	0.641325
H375	H	0.305641	0.052090	0.170717
H376	H	0.805641	0.552090	0.670717
H377	H	0.350994	0.087333	0.141224
H378	H	0.850994	0.587333	0.641224
H379	H	0.404512	-0.000058	0.017441
H380	H	0.904512	0.499942	0.517441
H381	H	0.098544	-0.000048	-0.219617
H382	H	0.598544	0.499952	0.280383
H383	H	0.609991	-0.265202	-0.011784
H384	H	1.109991	0.234798	0.488216
C385	C	0.831865	-0.000101	0.509534
C386	C	1.331865	0.499899	1.009534
C387	C	0.877790	-0.000125	0.476996
C388	C	1.377790	0.499875	0.976996
C389	C	0.929437	-0.000176	0.513658
C390	C	1.429437	0.499824	1.013658
H391	H	0.833845	0.035126	0.533012
H392	H	1.333845	0.535126	1.033012
H393	H	0.833769	-0.035355	0.532994
H394	H	1.333769	0.464645	1.032994
H395	H	0.875887	0.035126	0.453546
H396	H	1.375887	0.535126	0.953546
H397	H	0.875829	-0.035350	0.453520
H398	H	1.375829	0.464650	0.953520
H399	H	0.931341	-0.035430	0.537118
H400	H	1.431341	0.464570	1.037118
H401	H	0.931411	0.035052	0.537134
H402	H	1.431411	0.535052	1.037134
H403	H	0.960603	-0.000198	0.491586
H404	H	1.460603	0.499802	0.991586
H405	H	0.734622	-0.265129	-0.136488
H406	H	1.234622	0.234871	0.363512
C407	C	-0.053692	0.000072	-0.179891
C408	C	0.446308	0.500072	0.320109
C409	C	-0.020007	0.052068	-0.183343
C410	C	0.479993	0.552068	0.316657
C411	C	0.002644	0.052218	-0.235613
C412	C	0.502644	0.552218	0.264387
H413	H	-0.030783	-0.035125	-0.182389
H414	H	0.469217	0.464875	0.317611
H415	H	-0.084089	0.000112	-0.210512
H416	H	0.415911	0.500112	0.289488
H417	H	0.010387	0.052023	-0.152730
H418	H	0.510387	0.552023	0.347270
H419	H	-0.042903	0.087274	-0.180855
H420	H	0.457097	0.587274	0.319145
H421	H	-0.027754	0.052257	-0.266234
H422	H	0.472246	0.552257	0.233766
H423	H	0.025550	0.017018	-0.238106
H424	H	0.525550	0.517018	0.261894
H425	H	0.025497	0.087499	-0.237964
H426	H	0.525497	0.587499	0.262036
H427	H	0.768992	-0.557698	-0.170850
H428	H	1.268992	-0.057698	0.329150
H429	H	0.762610	-0.000048	0.765821
H430	H	1.262610	0.499952	1.265821
C431	C	0.744047	-0.726391	-0.145834
C432	C	1.244047	-0.226391	0.354166
C433	C	0.774131	-0.767849	-0.175919
C434	C	1.274131	-0.267849	0.324081
C435	C	0.808549	-0.736156	-0.210310
C436	C	1.308549	-0.236156	0.289690
H437	H	0.720622	-0.701575	-0.172210
H438	H	1.220622	-0.201575	0.327790
H439	H	0.770421	-0.701591	-0.122373
H440	H	1.270421	-0.201591	0.377627
H441	H	0.747760	-0.792639	-0.199377
H442	H	1.247760	-0.292639	0.300623
H443	H	0.797567	-0.792666	-0.149557
H444	H	1.297567	-0.292666	0.350443
H445	H	0.834923	-0.711356	-0.186850
H446	H	1.334923	-0.211356	0.313150
H447	H	0.785120	-0.711342	-0.236683
H448	H	1.285120	-0.211342	0.263317
H449	H	0.828969	-0.764281	-0.230723
H450	H	1.328969	-0.264281	0.269277
C451	C	-0.147980	-0.000114	0.038231
C452	C	0.352020	0.499886	0.538231
C453	C	-0.103055	-0.000133	0.083232
C454	C	0.396945	0.499867	0.583232
C455	C	-0.125551	-0.000179	0.135584
C456	C	0.374449	0.499821	0.635584
H457	H	-0.170844	0.035113	0.040751
H458	H	0.329156	0.535113	0.540751
H459	H	-0.170844	-0.035369	0.040701
H460	H	0.329156	0.464631	0.540701
H461	H	-0.080201	0.035118	0.080763
H462	H	0.419799	0.535118	0.580763
H463	H	-0.080187	-0.035357	0.080730
H464	H	0.419813	0.464643	0.580730
H465	H	-0.148415	-0.035434	0.138054
H466	H	0.351585	0.464566	0.638054
H467	H	-0.148415	0.035048	0.138099
H468	H	0.351585	0.535048	0.638099
H469	H	-0.095074	-0.000198	0.166124
H470	H	0.404926	0.499802	0.666124
C471	C	-0.024146	0.000011	0.036647
C472	C	0.475854	0.500011	0.536647
C473	C	0.010385	0.051993	0.039267
C474	C	0.510385	0.551993	0.539267
C475	C	0.047232	0.052095	0.090795
C476	C	0.547232	0.552095	0.590795
H477	H	-0.046061	0.000040	0.067927
H478	H	0.453939	0.500040	0.567927
H479	H	-0.000651	-0.035208	0.038539
H480	H	0.499349	0.464792	0.538539
H481	H	-0.013107	0.087203	0.037381
H482	H	0.486893	0.587203	0.537381
H483	H	0.032313	0.051975	0.008000
H484	H	0.532313	0.551975	0.508000
H485	H	0.070727	0.016875	0.092686
H486	H	0.570727	0.516875	0.592686
H487	H	0.025312	0.052122	0.122070
H488	H	0.525312	0.552122	0.622070
H489	H	0.070669	0.087360	0.092577
H490	H	0.570669	0.587360	0.592577
C491	C	0.783217	-0.000110	0.229227
C492	C	1.283217	0.499890	0.729227
C493	C	0.829144	-0.000137	0.196691
C494	C	1.329144	0.499863	0.696691
C495	C	0.880789	-0.000182	0.233355
C496	C	1.380789	0.499818	0.733355
H497	H	0.785196	0.035120	0.252701
H498	H	1.285196	0.535120	0.752701
H499	H	0.785122	-0.035362	0.252691
H500	H	1.285122	0.464638	0.752691
H501	H	0.827241	0.035111	0.173237
H502	H	1.327241	0.535111	0.673237
H503	H	0.827185	-0.035365	0.173219
H504	H	1.327185	0.464635	0.673219
H505	H	0.882694	-0.035434	0.256819
H506	H	1.382694	0.464566	0.756819
H507	H	0.882762	0.035048	0.256827
H508	H	1.382762	0.535048	0.756827
H509	H	0.911957	-0.000206	0.211285
H510	H	1.411957	0.499794	0.711285
C511	C	0.132343	-0.000147	0.086883
C512	C	0.632343	0.499853	0.586883
C513	C	0.177271	-0.000174	0.131881
C514	C	0.677271	0.499826	0.631881
C515	C	0.154780	-0.000232	0.184236
C516	C	0.654780	0.499768	0.684236
H517	H	0.109478	0.035079	0.089412
H518	H	0.609478	0.535079	0.589412
H519	H	0.109479	-0.035403	0.089349
H520	H	0.609479	0.464597	0.589349
H521	H	0.200124	0.035078	0.129416
H522	H	0.700124	0.535078	0.629416
H523	H	0.200139	-0.035397	0.129370
H524	H	0.700139	0.464603	0.629370
H525	H	0.131917	-0.035488	0.186701
H526	H	0.631917	0.464512	0.686701
H527	H	0.131916	0.034994	0.186759
H528	H	0.631916	0.534994	0.686759
H529	H	0.185260	-0.000257	0.214773
H530	H	0.685260	0.499743	0.714773
H531	H	0.512280	-0.000056	0.016146
H532	H	1.012280	0.499944	0.516146
H533	H	0.526850	-0.000013	0.352066
H534	H	1.026850	0.499987	0.852066
H535	H	0.525555	-0.000009	0.459814
H536	H	1.025555	0.499991	0.959814
C537	C	0.566574	-0.000181	0.199853
C538	C	1.066574	0.499819	0.699853
C539	C	0.563107	-0.052170	0.233542
C540	C	1.063107	0.447830	0.733542
C541	C	0.510839	-0.052297	0.256197
C542	C	1.010839	0.447703	0.756197
H543	H	0.564089	0.035021	0.222759
H544	H	1.064089	0.535021	0.722759
H545	H	0.535951	-0.000214	0.169457
H546	H	1.035951	0.499786	0.669457
H547	H	0.593722	-0.052132	0.263934
H548	H	1.093722	0.447868	0.763934
H549	H	0.565582	-0.087381	0.210649
H550	H	1.065582	0.412619	0.710649
H551	H	0.480216	-0.052330	0.225801
H552	H	0.980216	0.447670	0.725801
H553	H	0.508359	-0.017093	0.279101
H554	H	1.008359	0.482907	0.779101
H555	H	0.508478	-0.087574	0.279054
H556	H	1.008478	0.412426	0.779054
H557	H	-0.167632	-0.000060	-0.164421
H558	H	0.332368	0.499940	0.335579
H559	H	0.770443	-0.000094	0.111587
H560	H	1.270443	0.499906	0.611587
H561	H	0.610046	-0.850366	-0.011784
H562	H	1.110046	-0.350366	0.488216
