data_functionalizedCrystal
_audit_creation_method	'MofGen! by Chris Wilmer'
_symmetry_space_group_name_H-M	'P1'
_symmetry_Int_Tables_number	1
_symmetry_cell_setting	triclinic
loop_
_symmetry_equiv_pos_as_xyz
  x,y,z
_cell_length_a	11.804653
_cell_length_b	19.288862
_cell_length_c	19.288857
_cell_angle_alpha	96.865805
_cell_angle_beta	76.662993
_cell_angle_gamma	103.340157
loop_
_atom_site_label
_atom_site_type_symbol
_atom_site_fract_x
_atom_site_fract_y
_atom_site_fract_z
O1	O	-0.099496	-0.933876	0.099182
O2	O	0.400504	-0.433876	0.599182
O3	O	-0.099399	-0.731602	0.110860
O4	O	0.400601	-0.231602	0.610860
O5	O	-0.099436	-0.838585	0.003889
O6	O	0.400564	-0.338585	0.503889
O7	O	-0.099459	-0.826893	0.206153
O8	O	0.400541	-0.326893	0.706153
O9	O	0.098627	-0.813635	-0.021081
O10	O	0.598627	-0.313635	0.478919
O11	O	0.098664	-0.706652	0.085891
O12	O	0.598664	-0.206652	0.585891
O13	O	0.098567	-0.908926	0.074213
O14	O	0.598567	-0.408926	0.574213
Cu15	Cu	0.116700	-0.805511	0.077772
Cu16	Cu	0.616700	-0.305511	0.577772
Cu17	Cu	-0.117532	-0.835017	0.107301
Cu18	Cu	0.382468	-0.335017	0.607301
O19	O	0.098604	-0.801944	0.181184
O20	O	0.598604	-0.301944	0.681184
C21	C	-0.000354	-0.693249	0.097998
C22	C	0.499646	-0.193249	0.597998
C23	C	-0.000317	-0.616141	0.096865
C24	C	0.499683	-0.116141	0.596865
N25	N	0.281447	-0.784763	0.057002
N26	N	0.781447	-0.284763	0.557002
C27	C	0.343807	-0.734919	0.007117
C28	C	0.843807	-0.234919	0.507117
C29	C	0.468473	-0.719210	-0.008598
C30	C	0.968473	-0.219210	0.491402
C31	C	0.530791	-0.753349	0.025567
C32	C	1.030791	-0.253349	0.525567
C33	C	0.468431	-0.803199	0.075450
C34	C	0.968431	-0.303199	0.575450
C35	C	0.343753	-0.818904	0.091171
C36	C	0.843753	-0.318904	0.591171
C37	C	0.530737	-0.837335	0.109621
C38	C	1.030737	-0.337335	0.609621
C39	C	0.468377	-0.887184	0.159504
C40	C	0.968377	-0.387184	0.659504
C41	C	0.343711	-0.902888	0.175222
C42	C	0.843711	-0.402888	0.675222
C43	C	0.281393	-0.868749	0.141056
C44	C	0.781393	-0.368749	0.641056
C45	C	0.655415	-0.821629	0.093901
C46	C	1.155415	-0.321629	0.593901
C47	C	0.655361	-0.905615	0.177955
C48	C	1.155361	-0.405615	0.677955
C49	C	0.530695	-0.921323	0.193670
C50	C	1.030695	-0.421323	0.693670
N51	N	0.717721	-0.855770	0.128069
N52	N	1.217721	-0.355770	0.628069
C53	C	-0.000403	-0.825734	-0.034473
C54	C	0.499597	-0.325734	0.465527
C55	C	-0.000399	-0.824607	-0.111577
C56	C	0.499601	-0.324607	0.388423
C57	C	-0.000339	-0.571446	0.159636
C58	C	0.499661	-0.071446	0.659636
C59	C	-0.000346	-0.498999	0.158577
C60	C	0.499654	0.001001	0.658577
C61	C	-0.000355	-0.471255	0.094746
C62	C	0.499645	0.028745	0.594746
C63	C	-0.000325	-0.515959	0.031965
C64	C	0.499675	-0.015959	0.531965
C65	C	-0.000306	-0.588402	0.033025
C66	C	0.499694	-0.088402	0.533025
C67	C	-0.069770	-0.371738	0.053318
C68	C	0.430230	0.128262	0.553318
C69	C	-0.069796	-0.299297	0.052262
C70	C	0.430204	0.200703	0.552262
C71	C	-0.000407	-0.247816	0.091475
C72	C	0.499593	0.252184	0.591475
C73	C	0.068992	-0.268785	0.131757
C74	C	0.568992	0.231215	0.631757
C75	C	0.069011	-0.341228	0.132816
C76	C	0.569011	0.158772	0.632816
C77	C	-0.000374	-0.392703	0.093590
C78	C	0.499626	0.107297	0.593590
C79	C	-0.000436	-0.124565	0.153102
C80	C	0.499564	0.375435	0.653102
C81	C	-0.000435	-0.052117	0.152039
C82	C	0.499565	0.447883	0.652039
C83	C	-0.000427	-0.069080	0.025427
C84	C	0.499573	0.430920	0.525427
C85	C	-0.000415	-0.141525	0.026490
C86	C	0.499585	0.358475	0.526490
C87	C	-0.000425	-0.169263	0.090330
C88	C	0.499575	0.330737	0.590330
C89	C	-0.000459	0.052724	0.087074
C90	C	0.499541	0.552724	0.587074
C91	C	-0.000442	-0.024377	0.088207
C92	C	0.499558	0.475623	0.588207
C93	C	-0.108363	-0.837681	-0.134177
C94	C	0.391637	-0.337681	0.365823
C95	C	-0.108372	-0.836614	-0.206622
C96	C	0.391628	-0.336614	0.293378
C97	C	-0.000410	-0.822485	-0.256467
C98	C	0.499590	-0.322485	0.243533
C99	C	0.107568	-0.809405	-0.233859
C100	C	0.607568	-0.309405	0.266141
C101	C	0.107574	-0.810466	-0.161414
C102	C	0.607574	-0.310466	0.338586
C103	C	0.082276	-0.851071	-0.387123
C104	C	0.582276	-0.351071	0.112877
C105	C	0.082267	-0.850014	-0.459566
C106	C	0.582267	-0.350014	0.040434
C107	C	-0.000422	-0.819209	-0.479911
C108	C	0.499578	-0.319209	0.020089
C109	C	-0.083120	-0.789471	-0.427802
C110	C	0.416880	-0.289471	0.072198
C111	C	-0.083115	-0.790532	-0.355357
C112	C	0.416885	-0.290532	0.144643
C113	C	-0.000404	-0.821332	-0.335023
C114	C	0.499596	-0.321332	0.164977
C115	C	-0.108402	-0.831125	-0.581063
C116	C	0.391598	-0.331125	-0.081063
C117	C	-0.108406	-0.830053	-0.653509
C118	C	0.391594	-0.330053	-0.153509
C119	C	0.107537	-0.802851	-0.680747
C120	C	0.607537	-0.302851	-0.180747
C121	C	0.107538	-0.803917	-0.608301
C122	C	0.607538	-0.303917	-0.108301
C123	C	-0.000435	-0.818058	-0.558463
C124	C	0.499565	-0.318058	-0.058463
C125	C	-0.000431	-0.814794	0.219545
C126	C	0.499569	-0.314794	0.719545
C127	C	-0.000443	-0.815923	0.296651
C128	C	0.499557	-0.315923	0.796651
H129	H	0.706177	-0.781041	0.053287
H130	H	1.206177	-0.281041	0.553287
Br131	Br	0.254090	-0.790221	-0.301503
Br132	Br	0.754090	-0.290221	0.198497
H133	H	0.179879	-0.881539	0.153846
H134	H	0.679879	-0.381539	0.653846
Br135	Br	0.254060	-0.783669	-0.748385
Br136	Br	0.754060	-0.283669	-0.248385
Br137	Br	0.254108	-0.792718	-0.130740
Br138	Br	0.754108	-0.292718	0.369260
Br139	Br	-0.000388	-0.202187	-0.058704
Br140	Br	0.499612	0.297813	0.441296
H141	H	0.632300	-0.740557	0.012769
H142	H	1.132300	-0.240557	0.512769
H143	H	0.292941	-0.943473	0.215845
H144	H	0.792941	-0.443473	0.715845
Br145	Br	0.446050	-0.988975	0.261365
Br146	Br	0.946050	-0.488975	0.761365
Br147	Br	-0.254905	-0.854356	-0.237303
Br148	Br	0.245095	-0.354356	0.262697
Br149	Br	-0.000351	-0.609088	0.246275
Br150	Br	0.499649	-0.109088	0.746275
Br151	Br	0.739925	-0.951946	0.224330
Br152	Br	1.239925	-0.451946	0.724330
H153	H	0.519237	-0.678623	-0.049212
H154	H	1.019237	-0.178623	0.450788
H155	H	-0.000447	-0.015725	0.203156
H156	H	0.499553	0.484275	0.703156
H157	H	0.293056	-0.707125	-0.020692
H158	H	0.793056	-0.207125	0.479308
H159	H	-0.000361	-0.462601	0.209694
H160	H	0.499639	0.037399	0.709694
Br161	Br	0.194491	-0.890378	-0.530277
Br162	Br	0.694491	-0.390378	-0.030277
Br163	Br	0.163194	-0.369686	0.187479
Br164	Br	0.663194	0.130314	0.687479
H165	H	-0.150453	-0.764386	-0.444364
H166	H	0.349547	-0.264386	0.055636
Br167	Br	-0.195339	-0.750173	-0.284641
Br168	Br	0.304661	-0.250173	0.215359
Br169	Br	0.163165	-0.198926	0.184980
Br170	Br	0.663165	0.301074	0.684980
H171	H	-0.196320	-0.842635	-0.540482
H172	H	0.303680	-0.342635	-0.040482
H173	H	-0.000426	-0.147149	0.205082
H174	H	0.499574	0.352851	0.705082
Br175	Br	-0.000418	-0.031432	-0.061205
Br176	Br	0.499582	0.468568	0.438795
Br177	Br	0.254069	-0.786169	-0.577626
Br178	Br	0.754069	-0.286169	-0.077626
Br179	Br	-0.163945	-0.441600	0.000094
Br180	Br	0.336055	0.058400	0.500094
Br181	Br	-0.163996	-0.270847	-0.002394
Br182	Br	0.336004	0.229153	0.497606
H183	H	-0.000349	-0.493367	-0.020004
H184	H	0.499651	0.006633	0.479996
Br185	Br	-0.000273	-0.649064	-0.052172
Br186	Br	0.499727	-0.149064	0.447828
Br187	Br	-0.254897	-0.856869	-0.066543
Br188	Br	0.245103	-0.356869	0.433457
Br189	Br	-0.254942	-0.847790	-0.684180
Br190	Br	0.245058	-0.347790	-0.184180
H191	H	0.149620	-0.876154	-0.370567
H192	H	0.649620	-0.376154	0.129433
