data_functionalizedCrystal
_audit_creation_method	'MofGen! by Chris Wilmer'
_symmetry_space_group_name_H-M	'P1'
_symmetry_Int_Tables_number	1
_symmetry_cell_setting	triclinic
loop_
_symmetry_equiv_pos_as_xyz
  x,y,z
_cell_length_a	12.759401
_cell_length_b	21.295417
_cell_length_c	12.759393
_cell_angle_alpha	89.960830
_cell_angle_beta	89.981504
_cell_angle_gamma	90.030668
loop_
_atom_site_label
_atom_site_type_symbol
_atom_site_fract_x
_atom_site_fract_y
_atom_site_fract_z
Zn1	Zn	1.606140	-0.250569	-0.593926
Zn2	Zn	2.106140	0.249431	-0.093926
Zn3	Zn	1.605986	-0.355853	-0.418223
Zn4	Zn	2.105986	0.144147	0.081777
Zn5	Zn	1.430442	-0.250602	-0.418265
Zn6	Zn	1.930442	0.249398	0.081735
Zn7	Zn	1.430382	-0.355805	-0.593864
Zn8	Zn	1.930382	0.144195	-0.093864
O9	O	1.518237	-0.303208	-0.506069
O10	O	2.018237	0.196792	-0.006069
O11	O	1.753141	-0.264542	-0.570626
O12	O	2.253141	0.235458	-0.070626
O13	O	1.582660	-0.341926	-0.271207
O14	O	2.082660	0.158074	0.228793
O15	O	1.453838	-0.162509	-0.441611
O16	O	1.953838	0.337491	0.058389
O17	O	1.753027	-0.341894	-0.441538
O18	O	2.253027	0.158106	0.058462
O19	O	1.582923	-0.162484	-0.570668
O20	O	2.082923	0.337516	-0.070668
O21	O	1.453689	-0.264598	-0.271238
O22	O	1.953689	0.235402	0.228762
O23	O	1.283413	-0.264551	-0.441551
O24	O	1.783413	0.235449	0.058449
O25	O	1.453736	-0.341811	-0.740893
O26	O	1.953736	0.158189	-0.240893
O27	O	1.283369	-0.341843	-0.570562
O28	O	1.783369	0.158157	-0.070562
O29	O	1.582865	-0.264495	-0.740939
O30	O	2.082865	0.235505	-0.240939
O31	O	1.582602	-0.443936	-0.441478
O32	O	2.082602	0.056064	0.058522
O33	O	1.453587	-0.443901	-0.570521
O34	O	1.953587	0.056099	-0.070521
C35	C	1.245270	-0.303196	-0.506055
C36	C	1.745270	0.196804	-0.006055
C37	C	1.128493	-0.303206	-0.506074
C38	C	1.628493	0.196794	-0.006074
C39	C	1.073636	-0.343516	-0.573139
C40	C	1.573636	0.156484	-0.073139
C41	C	0.963912	-0.343524	-0.573151
C42	C	1.463912	0.156476	-0.073151
C43	C	0.963912	-0.262910	-0.439022
C44	C	1.463912	0.237090	0.060978
C45	C	1.073635	-0.262899	-0.439017
C46	C	1.573635	0.237101	0.060983
C47	C	1.128495	-0.383823	-0.640196
C48	C	1.628495	0.116177	-0.140196
C49	C	1.073637	-0.424137	-0.707266
C50	C	1.573637	0.075863	-0.207266
C51	C	0.963913	-0.424145	-0.707277
C52	C	1.463913	0.075855	-0.207277
C53	C	0.909047	-0.383839	-0.640219
C54	C	1.409047	0.116161	-0.140219
C55	C	1.518100	-0.466759	-0.506011
C56	C	2.018100	0.033241	-0.006011
C57	C	1.518137	-0.536727	-0.506021
C58	C	2.018137	-0.036727	-0.006021
C59	C	1.585375	-0.569592	-0.438898
C60	C	2.085375	-0.069592	0.061102
C61	C	1.585424	-0.635334	-0.438921
C62	C	2.085424	-0.135334	0.061079
C63	C	1.518217	-0.668210	-0.506058
C64	C	2.018217	-0.168210	-0.006058
C65	C	1.450974	-0.635338	-0.573195
C66	C	1.950974	-0.135338	-0.073195
C67	C	1.450934	-0.569596	-0.573177
C68	C	1.950934	-0.069596	-0.073177
N69	N	1.426309	-0.771475	-0.514062
N70	N	1.926309	-0.271475	-0.014062
N71	N	1.426350	-0.833927	-0.514073
N72	N	1.926350	-0.333927	-0.014073
C73	C	1.518334	-0.866284	-0.506118
C74	C	2.018334	-0.366284	-0.006118
N75	N	1.610278	-0.833832	-0.498130
N76	N	2.110278	-0.333832	0.001870
N77	N	1.610236	-0.771375	-0.498114
N78	N	2.110236	-0.271375	0.001886
C79	C	1.518253	-0.739495	-0.506085
C80	C	2.018253	-0.239495	-0.006085
C81	C	1.585631	-0.970434	-0.439016
C82	C	2.085631	-0.470434	0.060984
C83	C	1.585682	-1.036178	-0.439047
C84	C	2.085682	-0.536178	0.060953
C85	C	1.451223	-1.036180	-0.573315
C86	C	1.951223	-0.536180	-0.073315
C87	C	1.451181	-0.970438	-0.573289
C88	C	1.951181	-0.470438	-0.073289
C89	C	1.518384	-0.937569	-0.506134
C90	C	2.018384	-0.437569	-0.006134
C91	C	1.792271	-0.303220	-0.506084
C92	C	2.292271	0.196780	-0.006084
C93	C	1.909047	-0.303225	-0.506091
C94	C	2.409047	0.196775	-0.006091
C95	C	1.518311	-0.303144	-0.780103
C96	C	2.018311	0.196856	-0.280103
C97	C	1.518342	-0.303117	-0.896880
C98	C	2.018342	0.196883	-0.396880
C99	C	1.518404	-0.139017	-0.506151
C100	C	2.018404	0.360983	-0.006151
C101	C	1.518475	-0.069049	-0.506185
C102	C	2.018475	0.430951	-0.006185
C103	C	1.585589	-0.262855	-0.951767
C104	C	2.085589	0.237145	-0.451767
C105	C	1.585614	-0.262832	-1.061491
C106	C	2.085614	0.237168	-0.561491
C107	C	1.451143	-0.343339	-1.061431
C108	C	1.951143	0.156661	-0.561431
C109	C	1.451113	-0.343358	-0.951709
C110	C	1.951113	0.156642	-0.451709
C111	C	1.652818	-0.222613	-0.896938
C112	C	2.152818	0.277387	-0.396938
C113	C	1.720071	-0.182348	-0.951825
C114	C	2.220071	0.317652	-0.451825
C115	C	1.720096	-0.182325	-1.061549
C116	C	2.220096	0.317675	-0.561549
C117	C	1.652868	-0.222568	-1.116386
C118	C	2.152868	0.277432	-0.616386
C119	C	1.518225	-0.303225	-0.233102
C120	C	2.018225	0.196775	0.266898
C121	C	1.518397	-0.303075	-0.116326
C122	C	2.018397	0.196925	0.383674
H123	H	0.919251	-0.456967	-0.761896
H124	H	1.419251	0.043033	-0.261896
O125	O	1.132814	-0.467603	-0.779595
O126	O	1.632814	0.032397	-0.279595
H127	H	1.076231	-0.495629	-0.826242
H128	H	1.576231	0.004371	-0.326242
H129	H	1.396339	-0.376134	-0.907018
H130	H	1.896339	0.123866	-0.407018
O131	O	1.246839	-0.383816	-0.640185
O132	O	1.746839	0.116184	-0.140185
H133	H	1.275721	-0.396481	-0.560897
H134	H	1.775721	0.103519	-0.060897
H135	H	0.919231	-0.230095	-0.384426
H136	H	1.419231	0.269905	0.115574
H137	H	1.640098	-0.542832	-0.384219
H138	H	2.140098	-0.042832	0.115781
H139	H	1.396409	-0.376102	-1.106088
H140	H	1.896409	0.123898	-0.606088
O141	O	1.132815	-0.219429	-0.366676
O142	O	1.632815	0.280571	0.133324
H143	H	1.076236	-0.191411	-0.320034
H144	H	1.576236	0.308589	0.179966
H145	H	1.652807	-0.222629	-0.807595
H146	H	2.152807	0.277371	-0.307595
H147	H	1.640181	-0.662097	-0.384261
H148	H	2.140181	-0.162097	0.115739
H149	H	1.652881	-0.222539	-1.205731
H150	H	2.152881	0.277461	-0.705731
O151	O	1.792582	-0.138947	-0.892690
O152	O	2.292582	0.361053	-0.392690
H153	H	1.781278	-0.145731	-0.807171
H154	H	2.281278	0.354269	-0.307171
O155	O	1.378733	-1.071634	-0.645723
O156	O	1.878733	-0.571634	-0.145723
H157	H	1.396703	-1.058969	-0.728194
H158	H	1.896703	-0.558969	-0.228194
H159	H	1.396255	-0.662109	-0.627859
H160	H	1.896255	-0.162109	-0.127859
H161	H	1.640355	-0.943671	-0.384338
H162	H	2.140355	-0.443671	0.115662
O163	O	0.790700	-0.383852	-0.640215
O164	O	1.290700	0.116148	-0.140215
H165	H	0.761769	-0.418658	-0.698110
H166	H	1.261769	0.081342	-0.198110
O167	O	1.378391	-0.534143	-0.645557
O168	O	1.878391	-0.034143	-0.145557
H169	H	1.331656	-0.568046	-0.692240
H170	H	1.831656	-0.068046	-0.192240
O171	O	1.658209	-1.071632	-0.366652
O172	O	2.158209	-0.571632	0.133348
H173	H	1.640214	-1.059075	-0.284175
H174	H	2.140214	-0.559075	0.215825
O175	O	1.378633	-0.934984	-0.645660
O176	O	1.878633	-0.434984	-0.145660
H177	H	1.331894	-0.968888	-0.692338
H178	H	1.831894	-0.468888	-0.192338
O179	O	1.792627	-0.138900	-1.120756
O180	O	2.292627	0.361100	-0.620756
H181	H	1.839372	-0.110927	-1.064192
H182	H	2.339372	0.389073	-0.564192
