data_functionalizedCrystal
_audit_creation_method	'MofGen! by Chris Wilmer'
_symmetry_space_group_name_H-M	'P1'
_symmetry_Int_Tables_number	1
_symmetry_cell_setting	triclinic
loop_
_symmetry_equiv_pos_as_xyz
  x,y,z
_cell_length_a	19.805407
_cell_length_b	12.759400
_cell_length_c	19.805399
_cell_angle_alpha	89.976763
_cell_angle_beta	89.980427
_cell_angle_gamma	90.014685
loop_
_atom_site_label
_atom_site_type_symbol
_atom_site_fract_x
_atom_site_fract_y
_atom_site_fract_z
Zn1	Zn	1.034791	-0.418291	-0.382740
Zn2	Zn	1.534791	0.081709	0.117260
Zn3	Zn	1.034729	-0.593984	-0.269560
Zn4	Zn	1.534729	-0.093984	0.230440
Zn5	Zn	0.921605	-0.418320	-0.269565
Zn6	Zn	1.421605	0.081680	0.230435
Zn7	Zn	0.921592	-0.593928	-0.382707
Zn8	Zn	1.421592	-0.093928	0.117293
O9	O	0.978179	-0.506131	-0.326143
O10	O	1.478179	-0.006131	0.173857
O11	O	1.129499	-0.441608	-0.367739
O12	O	1.629499	0.058392	0.132261
O13	O	1.019702	-0.570717	-0.174844
O14	O	1.519702	-0.070717	0.325156
O15	O	0.936651	-0.271295	-0.284593
O16	O	1.436651	0.228705	0.215407
O17	O	1.129454	-0.570689	-0.284586
O18	O	1.629454	-0.070689	0.215414
O19	O	1.019808	-0.271273	-0.367743
O20	O	1.519808	0.228727	0.132257
O21	O	0.936591	-0.441657	-0.174848
O22	O	1.436591	0.058343	0.325152
O23	O	0.826887	-0.441603	-0.284561
O24	O	1.326887	0.058397	0.215439
O25	O	0.936629	-0.570594	-0.477428
O26	O	1.436629	-0.070594	0.022572
O27	O	0.826877	-0.570622	-0.367687
O28	O	1.326877	-0.070622	0.132313
O29	O	1.019795	-0.441554	-0.477452
O30	O	1.519795	0.058446	0.022548
O31	O	1.019689	-0.740998	-0.284554
O32	O	1.519689	-0.240998	0.215446
O33	O	0.936568	-0.740957	-0.367682
O34	O	1.436568	-0.240957	0.132318
C35	C	0.802323	-0.506110	-0.326121
C36	C	1.302323	-0.006110	0.173879
C37	C	0.727091	-0.506127	-0.326128
C38	C	1.227091	-0.006127	0.173872
C39	C	0.978139	-0.779098	-0.326129
C40	C	1.478139	-0.279098	0.173871
C41	C	0.978184	-0.895875	-0.326146
C42	C	1.478184	-0.395875	0.173854
C43	C	0.691760	-0.573408	-0.369341
C44	C	1.191760	-0.073408	0.130659
C45	C	0.621071	-0.573410	-0.369351
C46	C	1.121071	-0.073410	0.130649
C47	C	0.585716	-0.506135	-0.326143
C48	C	1.085716	-0.006135	0.173857
C49	C	0.621052	-0.438847	-0.282928
C50	C	1.121052	0.061153	0.217072
C51	C	0.691739	-0.438840	-0.282922
C52	C	1.191739	0.061160	0.217078
C53	C	0.335979	-0.438870	-0.282950
C54	C	0.835979	0.061130	0.217050
C55	C	0.265287	-0.438884	-0.282958
C56	C	0.765287	0.061116	0.217042
C57	C	0.265311	-0.573440	-0.369379
C58	C	0.765311	-0.073440	0.130621
C59	C	0.335998	-0.573433	-0.369373
C60	C	0.835998	-0.073433	0.130627
C61	C	0.371328	-0.506141	-0.326161
C62	C	0.871328	-0.006141	0.173839
C63	C	0.447977	-0.506139	-0.326152
C64	C	0.947977	-0.006139	0.173848
C65	C	0.509069	-0.506142	-0.326148
C66	C	1.009069	-0.006142	0.173852
C67	C	1.021513	-0.950723	-0.282908
C68	C	1.521513	-0.450723	0.217092
C69	C	1.021555	-1.060447	-0.282929
C70	C	1.521555	-0.560447	0.217071
C71	C	0.934932	-1.060464	-0.369426
C72	C	1.434932	-0.560464	0.130574
C73	C	0.934894	-0.950742	-0.369408
C74	C	1.434894	-0.450742	0.130592
C75	C	1.064802	-0.895855	-0.239646
C76	C	1.564802	-0.395855	0.260354
C77	C	1.108135	-0.950704	-0.196404
C78	C	1.608135	-0.450704	0.303596
C79	C	1.108176	-1.060428	-0.196425
C80	C	1.608176	-0.560428	0.303575
C81	C	1.064886	-1.115303	-0.239687
C82	C	1.564886	-0.615303	0.260313
C83	C	1.154722	-0.506152	-0.326165
C84	C	1.654722	-0.006152	0.173835
C85	C	1.229954	-0.506160	-0.326175
C86	C	1.729954	-0.006160	0.173825
C87	C	0.978217	-0.506064	-0.502686
C88	C	1.478217	-0.006064	-0.002686
C89	C	0.978233	-0.506036	-0.577918
C90	C	1.478233	-0.006036	-0.077918
C91	C	0.978238	-0.232097	-0.326172
C92	C	1.478238	0.267903	0.173828
C93	C	0.978263	-0.115321	-0.326184
C94	C	1.478263	0.384679	0.173816
C95	C	1.021539	-0.438842	-0.613276
C96	C	1.521539	0.061158	-0.113276
C97	C	1.021546	-0.438811	-0.683964
C98	C	1.521546	0.061189	-0.183964
C99	C	0.978250	-0.505981	-0.719294
C100	C	1.478250	-0.005981	-0.219294
C101	C	0.934940	-0.573179	-0.683931
C102	C	1.434940	-0.073179	-0.183931
C103	C	0.934930	-0.573203	-0.613244
C104	C	1.434930	-0.073203	-0.113244
C105	C	0.934978	-0.573081	-0.969004
C106	C	1.434978	-0.073081	-0.469004
C107	C	0.934992	-0.573054	-1.039696
C108	C	1.434992	-0.073054	-0.539696
C109	C	1.021594	-0.438689	-1.039725
C110	C	1.521594	0.061311	-0.539725
C111	C	1.021584	-0.438713	-0.969038
C112	C	1.521584	0.061287	-0.469038
C113	C	0.978272	-0.505906	-0.933681
C114	C	1.478272	-0.005906	-0.433681
C115	C	0.978264	-0.505937	-0.857033
C116	C	1.478264	-0.005937	-0.357033
C117	C	0.978261	-0.505957	-0.795941
C118	C	1.478261	-0.005957	-0.295941
C119	C	0.978180	-0.506121	-0.150287
C120	C	1.478180	-0.006121	0.349713
C121	C	0.978295	-0.505853	-0.075055
C122	C	1.478295	-0.005853	0.424945
H123	H	0.592308	-0.628198	-0.404539
H124	H	1.092308	-0.128198	0.095461
H125	H	0.899720	-0.627809	-0.940225
H126	H	1.399720	-0.127809	-0.440225
C127	C	1.222752	-0.916803	-0.163531
C128	C	1.722752	-0.416803	0.336469
C129	C	1.155719	-0.890389	-0.148854
C130	C	1.655719	-0.390389	0.351146
H131	H	1.252128	-0.879564	-0.134177
H132	H	1.752128	-0.379564	0.365823
H133	H	1.228973	-0.989991	-0.157354
H134	H	1.728973	-0.489991	0.342646
H135	H	1.232617	-0.898752	-0.209015
H136	H	1.732617	-0.398752	0.290985
H137	H	1.145853	-0.908448	-0.103372
H138	H	1.645853	-0.408448	0.396628
H139	H	1.149495	-0.817186	-0.155025
H140	H	1.649495	-0.317186	0.344975
H141	H	0.720541	-0.628195	-0.404524
H142	H	1.220541	-0.128195	0.095476
C143	C	0.896524	-1.228671	-0.407853
C144	C	1.396524	-0.728671	0.092147
C145	C	0.887344	-1.120782	-0.416971
C146	C	1.387344	-0.620782	0.083029
H147	H	0.867140	-1.265905	-0.437203
H148	H	1.367140	-0.765905	0.062797
H149	H	0.941996	-1.246582	-0.417807
H150	H	1.441996	-0.746582	0.082193
H151	H	0.886652	-1.246697	-0.362367
H152	H	1.386652	-0.746697	0.137633
H153	H	0.897221	-1.102754	-0.462457
H154	H	1.397221	-0.602754	0.037543
H155	H	0.841862	-1.102864	-0.407023
H156	H	1.341862	-0.602864	0.092977
H157	H	0.899613	-0.906084	-0.404617
H158	H	1.399613	-0.406084	0.095383
C159	C	0.820318	-0.624329	-0.705670
C160	C	1.320318	-0.124329	-0.205670
C161	C	0.887346	-0.647013	-0.722763
C162	C	1.387346	-0.147013	-0.222763
H163	H	0.790937	-0.669911	-0.729646
H164	H	1.290937	-0.169911	-0.229646
H165	H	0.814119	-0.633962	-0.658516
H166	H	1.314119	-0.133962	-0.158516
H167	H	0.810438	-0.553732	-0.717266
H168	H	1.310438	-0.053732	-0.217266
H169	H	0.897227	-0.717609	-0.711162
H170	H	1.397227	-0.217609	-0.211162
H171	H	0.893549	-0.637389	-0.769927
H172	H	1.393549	-0.137389	-0.269927
C173	C	0.243597	-0.624856	-0.483941
C174	C	0.743597	-0.124856	0.016059
C175	C	0.226474	-0.647398	-0.416889
C176	C	0.726474	-0.147398	0.083111
H177	H	0.219624	-0.670519	-0.513269
H178	H	0.719624	-0.170519	-0.013269
H179	H	0.232025	-0.554296	-0.493921
H180	H	0.732025	-0.054296	0.006079
H181	H	0.290757	-0.634485	-0.490109
H182	H	0.790757	-0.134485	0.009891
H183	H	0.179314	-0.637761	-0.410719
H184	H	0.679314	-0.137761	0.089281
H185	H	0.238042	-0.717976	-0.406906
H186	H	0.738042	-0.217976	0.093094
H187	H	0.364736	-0.384085	-0.247759
H188	H	0.864736	0.115915	0.252241
H189	H	1.056798	-0.384147	-0.584516
H190	H	1.556798	0.115853	-0.084516
H191	H	0.720505	-0.384048	-0.247737
H192	H	1.220505	0.115952	0.252263
H193	H	1.143464	-1.105083	-0.161221
H194	H	1.643464	-0.605083	0.338779
C195	C	0.512685	-0.379106	-0.244563
C196	C	1.012685	0.120894	0.255437
C197	C	0.582191	-0.364892	-0.235435
C198	C	1.082191	0.135108	0.264565
H199	H	0.488696	-0.333452	-0.215238
H200	H	0.988696	0.166548	0.284762
H201	H	0.501125	-0.363827	-0.290053
H202	H	1.001125	0.136173	0.209947
H203	H	0.501094	-0.449680	-0.234575
H204	H	1.001094	0.050320	0.265425
H205	H	0.593783	-0.294320	-0.245428
H206	H	1.093783	0.205680	0.254572
H207	H	0.593755	-0.380164	-0.189934
H208	H	1.093755	0.119836	0.310066
H209	H	0.364781	-0.628219	-0.404555
H210	H	0.864781	-0.128219	0.095445
H211	H	0.236502	-0.384094	-0.247773
H212	H	0.736502	0.115906	0.252227
C213	C	1.112109	-1.272473	-0.192628
C214	C	1.612109	-0.772473	0.307372
C215	C	1.064933	-1.235915	-0.239713
C216	C	1.564933	-0.735915	0.260287
H217	H	1.112133	-1.346932	-0.192640
H218	H	1.612133	-0.846932	0.307360
H219	H	1.155764	-1.247585	-0.204371
H220	H	1.655764	-0.747585	0.295629
H221	H	1.100415	-1.247708	-0.148936
H222	H	1.600415	-0.747708	0.351064
H223	H	1.076629	-1.260673	-0.283405
H224	H	1.576629	-0.760673	0.216595
H225	H	1.021268	-1.260814	-0.227973
H226	H	1.521268	-0.760814	0.272027
H227	H	1.064772	-0.806512	-0.239622
H228	H	1.564772	-0.306512	0.260378
H229	H	0.899659	-0.627909	-0.584456
H230	H	1.399659	-0.127909	-0.084456
H231	H	1.056812	-0.384097	-0.712749
H232	H	1.556812	0.115903	-0.212749
C233	C	1.107185	-0.305883	-0.976168
C234	C	1.607185	0.194117	-0.476168
C235	C	1.069174	-0.364874	-0.930204
C236	C	1.569174	0.135126	-0.430204
H237	H	1.136560	-0.260291	-0.952193
H238	H	1.636560	0.239709	-0.452193
H239	H	1.133071	-0.351649	-1.003735
H240	H	1.633071	0.148351	-0.503735
H241	H	1.077700	-0.265687	-1.003740
H242	H	1.577700	0.234313	-0.503740
H243	H	1.098659	-0.405076	-0.902636
H244	H	1.598659	0.094924	-0.402636
H245	H	1.043286	-0.319102	-0.902625
H246	H	1.543286	0.180898	-0.402625
H247	H	1.056859	-0.383973	-1.068521
H248	H	1.556859	0.116027	-0.568521
H249	H	0.899733	-0.627754	-1.068460
H250	H	1.399733	-0.127754	-0.568460
