data_functionalizedCrystal
_audit_creation_method	'MofGen! by Chris Wilmer'
_symmetry_space_group_name_H-M	'P1'
_symmetry_Int_Tables_number	1
_symmetry_cell_setting	triclinic
loop_
_symmetry_equiv_pos_as_xyz
  x,y,z
_cell_length_a	18.050591
_cell_length_b	21.295417
_cell_length_c	21.295120
_cell_angle_alpha	89.638316
_cell_angle_beta	89.926922
_cell_angle_gamma	90.026512
loop_
_atom_site_label
_atom_site_type_symbol
_atom_site_fract_x
_atom_site_fract_y
_atom_site_fract_z
Zn1	Zn	1.135664	-0.248635	-0.356024
Zn2	Zn	1.468998	0.084698	-0.022691
Zn3	Zn	1.802331	0.418032	0.310642
Zn4	Zn	1.135457	-0.354512	-0.250746
Zn5	Zn	1.468790	-0.021178	0.082587
Zn6	Zn	1.802123	0.312155	0.415921
Zn7	Zn	1.011370	-0.249253	-0.250755
Zn8	Zn	1.344703	0.084080	0.082579
Zn9	Zn	1.678037	0.417414	0.415912
Zn10	Zn	1.011426	-0.353863	-0.355970
Zn11	Zn	1.344760	-0.020530	-0.022637
Zn12	Zn	1.678093	0.312803	0.310696
O13	O	1.073479	-0.301566	-0.303374
O14	O	1.406813	0.031768	0.029960
O15	O	1.740146	0.365101	0.363293
O16	O	1.239561	-0.262692	-0.342078
O17	O	1.572895	0.070641	-0.008744
O18	O	1.906228	0.403974	0.324589
O19	O	1.118886	-0.341079	-0.162655
O20	O	1.452219	-0.007745	0.170679
O21	O	1.785552	0.325588	0.504012
O22	O	1.027921	-0.161081	-0.264745
O23	O	1.361255	0.172252	0.068588
O24	O	1.694588	0.505585	0.401922
O25	O	1.239409	-0.340480	-0.264730
O26	O	1.572742	-0.007146	0.068603
O27	O	1.906075	0.326187	0.401936
O28	O	1.119240	-0.160627	-0.342086
O29	O	1.452573	0.172706	-0.008753
O30	O	1.785906	0.506039	0.324581
O31	O	1.027720	-0.263746	-0.162661
O32	O	1.361053	0.069588	0.170672
O33	O	1.694387	0.402921	0.504006
O34	O	0.907453	-0.263117	-0.264693
O35	O	1.240786	0.070216	0.068641
O36	O	1.574120	0.403550	0.401974
O37	O	1.028017	-0.339375	-0.444070
O38	O	1.361351	-0.006041	-0.110737
O39	O	1.694684	0.327292	0.222597
O40	O	0.907494	-0.339974	-0.341994
O41	O	1.240828	-0.006640	-0.008661
O42	O	1.574161	0.326693	0.324672
O43	O	1.119294	-0.262064	-0.444109
O44	O	1.452628	0.071270	-0.110776
O45	O	1.785961	0.404603	0.222557
O46	O	1.118940	-0.442515	-0.264678
O47	O	1.452274	-0.109182	0.068655
O48	O	1.785607	0.224152	0.401989
O49	O	1.027816	-0.442039	-0.341986
O50	O	1.361149	-0.108705	-0.008653
O51	O	1.694483	0.224628	0.324681
C52	C	0.880527	-0.301542	-0.303339
C53	C	1.213860	0.031791	0.029994
C54	C	1.547194	0.365124	0.363328
C55	C	0.797981	-0.301548	-0.303339
C56	C	1.131315	0.031786	0.029994
C57	C	1.464648	0.365119	0.363328
C58	C	0.598487	-0.259704	-0.261399
C59	C	0.931820	0.073630	0.071934
C60	C	1.265153	0.406963	0.405267
C61	C	0.549048	-0.317209	-0.245903
C62	C	0.882381	0.016124	0.087430
C63	C	1.215714	0.349458	0.420763
C64	C	0.646851	-0.301567	-0.303367
C65	C	0.980184	0.031767	0.029966
C66	C	1.313518	0.365100	0.363299
C67	C	0.549208	-0.244081	-0.318862
C68	C	0.882542	0.089252	0.014471
C69	C	1.215875	0.422586	0.347805
C70	C	0.500866	-0.301580	-0.303394
C71	C	0.834199	0.031754	0.029940
C72	C	1.167533	0.365087	0.363273
C73	C	0.598499	-0.359102	-0.287841
C74	C	0.931832	-0.025769	0.045492
C75	C	1.265166	0.307564	0.378825
C76	C	0.598664	-0.285935	-0.360827
C77	C	0.931998	0.047398	-0.027493
C78	C	1.265331	0.380731	0.305840
C79	C	0.549247	-0.343480	-0.345353
C80	C	0.882581	-0.010147	-0.012019
C81	C	1.215914	0.323186	0.321314
C82	C	0.730949	-0.301558	-0.303351
C83	C	1.064283	0.031775	0.029983
C84	C	1.397616	0.365109	0.363316
C85	C	0.416769	-0.301595	-0.303411
C86	C	0.750103	0.031739	0.029923
C87	C	1.083436	0.365072	0.363256
C88	C	1.073382	-0.465118	-0.303339
C89	C	1.406715	-0.131784	0.029994
C90	C	1.740049	0.201549	0.363328
C91	C	1.073408	-0.535086	-0.303345
C92	C	1.406742	-0.201752	0.029988
C93	C	1.740075	0.131581	0.363322
C94	C	1.120899	-0.568179	-0.263132
C95	C	1.454232	-0.234846	0.070201
C96	C	1.787566	0.098488	0.403535
C97	C	1.120934	-0.633922	-0.263146
C98	C	1.454267	-0.300588	0.070187
C99	C	1.787600	0.032745	0.403520
C100	C	1.073465	-0.666568	-0.303367
C101	C	1.406798	-0.333235	0.029967
C102	C	1.740131	0.000099	0.363300
C103	C	1.025971	-0.633466	-0.343588
C104	C	1.359304	-0.300133	-0.010254
C105	C	1.692637	0.033200	0.323079
C106	C	1.025942	-0.567725	-0.343577
C107	C	1.359276	-0.234392	-0.010243
C108	C	1.692609	0.098941	0.323090
N109	N	1.008503	-0.769802	-0.308154
N110	N	1.341836	-0.436469	0.025179
N111	N	1.675169	-0.103136	0.358513
N112	N	1.008532	-0.832254	-0.308161
N113	N	1.341865	-0.498920	0.025173
N114	N	1.675198	-0.165587	0.358506
C115	C	1.073548	-0.864642	-0.303403
C116	C	1.406881	-0.531309	0.029931
C117	C	1.740214	-0.197976	0.363264
N118	N	1.138535	-0.832221	-0.298626
N119	N	1.471869	-0.498887	0.034708
N120	N	1.805202	-0.165554	0.368041
N121	N	1.138506	-0.769763	-0.298616
N122	N	1.471839	-0.436430	0.034718
N123	N	1.805172	-0.103097	0.368051
C124	C	1.073490	-0.737853	-0.303383
C125	C	1.406824	-0.404520	0.029950
C126	C	1.740157	-0.071187	0.363283
C127	C	1.121080	-0.969021	-0.263203
C128	C	1.454414	-0.635688	0.070130
C129	C	1.787747	-0.302355	0.403464
C130	C	1.121116	-1.034765	-0.263222
C131	C	1.454450	-0.701432	0.070112
C132	C	1.787783	-0.368098	0.403445
C133	C	1.026147	-1.034309	-0.343660
C134	C	1.359480	-0.700975	-0.010326
C135	C	1.692813	-0.367642	0.323007
C136	C	1.026117	-0.968566	-0.343644
C137	C	1.359450	-0.635233	-0.010311
C138	C	1.692784	-0.301900	0.323022
C139	C	1.073583	-0.935927	-0.303413
C140	C	1.406916	-0.602593	0.029921
C141	C	1.740250	-0.269260	0.363254
C142	C	1.267185	-0.301589	-0.303409
C143	C	1.600518	0.031744	0.029924
C144	C	1.933852	0.365077	0.363258
C145	C	1.349731	-0.301600	-0.303424
C146	C	1.683064	0.031734	0.029909
C147	C	2.016397	0.365067	0.363243
C148	C	1.073685	-0.300578	-0.467570
C149	C	1.407019	0.032755	-0.134236
C150	C	1.740352	0.366089	0.199097
C151	C	1.073773	-0.300157	-0.537540
C152	C	1.407106	0.033176	-0.204207
C153	C	1.740440	0.366510	0.129126
C154	C	1.073597	-0.137375	-0.303423
C155	C	1.406931	0.195958	0.029911
C156	C	1.740264	0.529292	0.363244
C157	C	1.073648	-0.067407	-0.303443
C158	C	1.406981	0.265926	0.029890
C159	C	1.740314	0.599260	0.363223
C160	C	1.073317	-0.302504	-0.139817
C161	C	1.406650	0.030829	0.193517
C162	C	1.739984	0.364162	0.526850
C163	C	1.073373	-0.302748	-0.069846
C164	C	1.406706	0.030586	0.263487
C165	C	1.740040	0.363919	0.596820
C166	C	1.120567	-0.262042	-0.037511
C167	C	1.453901	0.071291	0.295822
C168	C	1.787234	0.404625	0.629156
C169	C	1.120622	-0.261724	0.028230
C170	C	1.453955	0.071609	0.361563
C171	C	1.787289	0.404943	0.694896
C172	C	1.073469	-0.302105	0.061632
C173	C	1.406802	0.031228	0.394965
C174	C	1.740136	0.364561	0.728299
C175	C	1.026271	-0.342819	0.029289
C176	C	1.359605	-0.009486	0.362622
C177	C	1.692938	0.323848	0.695955
C178	C	1.026223	-0.343140	-0.036451
C179	C	1.359557	-0.009807	0.296883
C180	C	1.692890	0.323526	0.630216
N181	N	1.008576	-0.306821	0.165012
N182	N	1.341910	0.026512	0.498345
N183	N	1.675243	0.359845	0.831678
N184	N	1.008624	-0.306512	0.227461
N185	N	1.341957	0.026821	0.560794
N186	N	1.675291	0.360154	0.894128
C187	C	1.073612	-0.301141	0.259701
C188	C	1.406945	0.032193	0.593034
C189	C	1.740279	0.365526	0.926368
N190	N	1.138552	-0.296077	0.227132
N191	N	1.471885	0.037256	0.560465
N192	N	1.805218	0.370589	0.893799
N193	N	1.138503	-0.296383	0.164677
N194	N	1.471837	0.036950	0.498010
N195	N	1.805170	0.370284	0.831343
C196	C	1.073516	-0.301762	0.132915
C197	C	1.406850	0.031572	0.466249
C198	C	1.740183	0.364905	0.799582
C199	C	1.120870	-0.260088	0.363320
C200	C	1.454203	0.073245	0.696653
C201	C	1.787536	0.406579	1.029987
C202	C	1.120926	-0.259774	0.429062
C203	C	1.454259	0.073559	0.762395
C204	C	1.787592	0.406892	1.095729
C205	C	1.026568	-0.340866	0.430120
C206	C	1.359902	-0.007533	0.763453
C207	C	1.693235	0.325800	1.096786
C208	C	1.026519	-0.341183	0.364379
C209	C	1.359852	-0.007850	0.697712
C210	C	1.693186	0.325484	1.031046
C211	C	1.073669	-0.300791	0.330983
C212	C	1.407002	0.032543	0.664316
C213	C	1.740335	0.365876	0.997650
H214	H	1.159550	-0.541606	-0.230375
H215	H	1.492884	-0.208273	0.102959
H216	H	1.826217	0.125061	0.436292
H217	H	0.987269	-0.540780	-0.376324
H218	H	1.320602	-0.207446	-0.042990
H219	H	1.653936	0.125887	0.290343
Cl220	Cl	0.631872	-0.205105	-0.206548
Cl221	Cl	0.965205	0.128229	0.126786
Cl222	Cl	1.298539	0.461562	0.460119
H223	H	1.159732	-0.942445	-0.230446
H224	H	1.493066	-0.609112	0.102887
H225	H	1.826399	-0.275778	0.436221
Cl226	Cl	0.515402	-0.337637	-0.170899
Cl227	Cl	0.848735	-0.004304	0.162434
Cl228	Cl	1.182068	0.329030	0.495767
Cl229	Cl	1.180266	-0.208600	0.469713
Cl230	Cl	1.513599	0.124733	0.803046
Cl231	Cl	1.846932	0.458067	1.136380
Cl232	Cl	0.967298	-0.391639	0.472105
Cl233	Cl	1.300631	-0.058306	0.805438
Cl234	Cl	1.633964	0.275028	1.138772
Cl235	Cl	0.967184	-0.392358	0.323726
Cl236	Cl	1.300517	-0.059025	0.657059
Cl237	Cl	1.633850	0.274309	0.990393
Cl238	Cl	0.631784	-0.434191	-0.267537
Cl239	Cl	0.965118	-0.100857	0.065796
Cl240	Cl	1.298451	0.232476	0.399130
H241	H	1.159794	-1.061709	-0.230477
H242	H	1.493127	-0.728375	0.102857
H243	H	1.826460	-0.395042	0.436190
Cl244	Cl	0.966475	-1.075344	-0.394228
Cl245	Cl	1.299809	-0.742010	-0.060894
Cl246	Cl	1.633142	-0.408677	0.272439
Cl247	Cl	0.516072	-0.398208	-0.400166
Cl248	Cl	0.849406	-0.064874	-0.066833
Cl249	Cl	1.182739	0.268459	0.266501
Cl250	Cl	0.632335	-0.265483	-0.435812
Cl251	Cl	0.965668	0.067851	-0.102478
Cl252	Cl	1.299001	0.401184	0.230855
H253	H	0.987442	-0.941620	-0.376387
H254	H	1.320776	-0.608286	-0.043054
H255	H	1.654109	-0.274953	0.290280
H256	H	1.159609	-0.660872	-0.230400
H257	H	1.492942	-0.327538	0.102933
H258	H	1.826276	0.005795	0.436266
H259	H	0.987322	-0.660051	-0.376336
H260	H	1.320655	-0.326718	-0.043003
H261	H	1.653989	0.006615	0.290330
Cl262	Cl	1.179871	-0.211288	-0.079491
Cl263	Cl	1.513205	0.122045	0.253843
Cl264	Cl	1.846538	0.455378	0.587176
H265	H	0.527517	-0.195467	-0.331934
H266	H	0.860850	0.137866	0.001399
H267	H	1.194184	0.471199	0.334732
Cl268	Cl	1.179956	-0.210546	0.068889
Cl269	Cl	1.513290	0.122787	0.402222
Cl270	Cl	1.846623	0.456120	0.735556
H271	H	0.987880	-0.375699	0.056489
H272	H	1.321214	-0.042366	0.389822
H273	H	1.654547	0.290968	0.723156
H274	H	0.987791	-0.376289	-0.062778
H275	H	1.321124	-0.042956	0.270555
H276	H	1.654458	0.290378	0.603889
Cl277	Cl	1.180129	-0.209299	0.321334
Cl278	Cl	1.513462	0.124034	0.654667
Cl279	Cl	1.846795	0.457368	0.988000
