data_functionalizedCrystal
_audit_creation_method	'MofGen! by Chris Wilmer'
_symmetry_space_group_name_H-M	'P1'
_symmetry_Int_Tables_number	1
_symmetry_cell_setting	triclinic
loop_
_symmetry_equiv_pos_as_xyz
  x,y,z
_cell_length_a	12.811422
_cell_length_b	12.837942
_cell_length_c	11.295483
_cell_angle_alpha	85.468153
_cell_angle_beta	80.454701
_cell_angle_gamma	90.586614
loop_
_atom_site_label
_atom_site_type_symbol
_atom_site_fract_x
_atom_site_fract_y
_atom_site_fract_z
O1	O	1.410075	-0.135973	-0.053289
O2	O	1.910075	0.364027	0.446711
O3	O	1.103877	-0.153475	-0.020211
O4	O	1.603877	0.346525	0.479789
O5	O	1.250187	0.006157	-0.036024
O6	O	1.750187	0.506157	0.463976
O7	O	1.263765	-0.295605	-0.037476
O8	O	1.763765	0.204395	0.462524
O9	O	1.263051	0.020146	-0.235465
O10	O	1.763051	0.520146	0.264535
O11	O	1.116741	-0.139486	-0.219652
O12	O	1.616741	0.360514	0.280348
O13	O	1.422939	-0.121983	-0.252730
O14	O	1.922939	0.378017	0.247270
Cu15	Cu	1.271015	-0.129457	-0.254402
Cu16	Cu	1.771015	0.370543	0.245598
Cu17	Cu	1.255801	-0.146001	-0.018539
Cu18	Cu	1.755801	0.353999	0.481461
O19	O	1.276629	-0.281616	-0.236917
O20	O	1.776629	0.218384	0.263083
C21	C	1.070845	-0.145928	-0.115669
C22	C	1.570845	0.354072	0.384331
C23	C	0.953252	-0.144268	-0.102966
C24	C	1.453252	0.355732	0.397034
C25	C	1.252032	0.051757	-0.135248
C26	C	1.752032	0.551757	0.364752
C27	C	1.238350	0.166789	-0.133768
C28	C	1.738350	0.666789	0.366232
C29	C	1.455971	-0.129531	-0.157270
C30	C	1.955971	0.370469	0.342730
C31	C	1.573563	-0.131192	-0.169964
C32	C	2.073563	0.368808	0.330036
C33	C	1.780495	-0.149545	0.023636
C34	C	2.280495	0.350455	0.523636
C35	C	1.890983	-0.151106	0.011713
C36	C	2.390983	0.348894	0.511713
C37	C	1.905027	-0.135866	-0.205730
C38	C	2.405027	0.364134	0.294270
C39	C	1.794540	-0.134305	-0.193808
C40	C	2.294540	0.365695	0.306192
C41	C	1.732278	-0.141147	-0.079121
C42	C	2.232278	0.358853	0.420879
C43	C	1.621788	-0.139594	-0.067200
C44	C	2.121788	0.360406	0.432800
C45	C	1.635835	-0.124346	-0.284643
C46	C	2.135835	0.375654	0.215357
C47	C	1.746322	-0.125907	-0.296565
C48	C	2.246322	0.374093	0.203435
C49	C	1.274784	-0.327216	-0.137690
C50	C	1.774784	0.172784	0.362310
C51	C	1.288465	-0.442249	-0.139162
C52	C	1.788465	0.057751	0.360838
N53	N	1.245101	-0.157630	0.147353
N54	N	1.745101	0.342370	0.647353
C55	C	1.402824	0.408285	-0.151511
C56	C	1.902824	0.908285	0.348489
C57	C	1.389974	0.516368	-0.150121
C58	C	1.889974	1.016368	0.349879
C59	C	1.199800	0.491042	-0.129589
C60	C	1.699800	0.991042	0.370411
C61	C	1.212650	0.382958	-0.130979
C62	C	1.712650	0.882958	0.369021
C63	C	1.314166	0.341584	-0.141942
C64	C	1.814166	0.841584	0.358058
C65	C	1.327015	0.233499	-0.143341
C66	C	1.827015	0.733499	0.356659
C67	C	1.136842	0.208174	-0.122801
C68	C	1.636842	0.708174	0.377199
C69	C	1.123992	0.316258	-0.121411
C70	C	1.623992	0.816258	0.378589
N71	N	1.281723	-0.117821	-0.420295
N72	N	1.781723	0.382179	0.079705
C73	C	1.358808	-0.034110	0.384354
C74	C	1.858808	0.465890	0.884354
C75	C	1.350713	-0.042891	0.509893
C76	C	1.850713	0.457109	1.009893
C77	C	1.220824	-0.183976	0.523970
C78	C	1.720824	0.316024	1.023970
C79	C	1.228918	-0.175196	0.398432
C80	C	1.728918	0.324804	0.898432
C81	C	1.297911	-0.100259	0.328628
C82	C	1.797911	0.399741	0.828628
C83	C	1.305999	-0.091474	0.203088
C84	C	1.805999	0.408526	0.703088
C85	C	1.176116	-0.232564	0.217167
C86	C	1.676116	0.267436	0.717167
C87	C	1.168022	-0.241344	0.342706
C88	C	1.668022	0.258656	0.842706
H89	H	1.571095	-0.145169	0.026184
H90	H	2.071095	0.354831	0.526184
F91	F	1.971308	-0.128583	-0.327778
F92	F	2.471308	0.371417	0.172222
H93	H	1.462169	0.570673	-0.157909
H94	H	1.962169	1.070673	0.342091
F95	F	1.415530	0.027512	0.569195
F96	F	1.915530	0.527512	1.069195
H97	H	1.797031	-0.120333	-0.389940
H98	H	2.297031	0.379667	0.110060
F99	F	1.094601	-0.321096	0.417006
F100	F	1.594601	0.178904	0.917006
F101	F	1.432224	0.045651	0.310064
F102	F	1.932224	0.545651	0.810064
F103	F	1.111298	-0.302962	0.157849
F104	F	1.611298	0.197038	0.657849
F105	F	1.042479	0.137179	-0.112629
F106	F	1.542479	0.637179	0.387371
F107	F	1.435056	0.189467	-0.155016
F108	F	1.935056	0.689467	0.344984
H109	H	1.485483	0.374598	-0.160449
H110	H	1.985483	0.874598	0.339551
H111	H	1.930237	-0.157945	0.095389
H112	H	2.430237	0.342055	0.595389
H113	H	1.729800	-0.155127	0.117018
H114	H	2.229800	0.344873	0.617018
F115	F	1.091767	0.535092	-0.117893
F116	F	1.591767	1.035092	0.382107
F117	F	1.015957	0.360302	-0.109734
F118	F	1.515957	0.860302	0.390266
H119	H	1.596564	-0.117512	-0.368315
H120	H	2.096564	0.382488	0.131685
F121	F	1.379424	-0.011718	0.128800
F122	F	1.879424	0.488282	0.628800
F123	F	1.147412	-0.263734	0.598273
F124	F	1.647412	0.236266	1.098273
