data_functionalizedCrystal
_audit_creation_method	'MofGen! by Chris Wilmer'
_symmetry_space_group_name_H-M	'P1'
_symmetry_Int_Tables_number	1
_symmetry_cell_setting	triclinic
loop_
_symmetry_equiv_pos_as_xyz
  x,y,z
_cell_length_a	10.489716
_cell_length_b	8.965430
_cell_length_c	9.065215
_cell_angle_alpha	89.998613
_cell_angle_beta	84.771917
_cell_angle_gamma	90.003477
loop_
_atom_site_label
_atom_site_type_symbol
_atom_site_fract_x
_atom_site_fract_y
_atom_site_fract_z
O1	O	1.694821	0.124024	0.207984
O2	O	1.323692	0.124029	0.227562
O3	O	1.516929	0.124020	0.003092
O4	O	1.501583	0.124033	0.432453
O5	O	1.516913	-0.124059	0.003107
O6	O	1.323675	-0.124050	0.227577
O7	O	1.694805	-0.124055	0.207999
Cu8	Cu	1.509238	-0.146704	0.217789
Cu9	Cu	1.509258	0.146678	0.217772
O10	O	1.501567	-0.124046	0.432468
C11	C	1.276146	-0.000009	0.226098
C12	C	1.134499	-0.000007	0.221697
N13	N	1.509234	-0.353053	0.217801
C14	C	1.037321	0.000000	0.359349
C15	C	0.959705	-0.122324	0.286618
C16	C	0.959728	0.122262	0.286571
C17	C	1.058749	-0.122433	0.149024
C18	C	1.058777	0.122263	0.148997
C19	C	0.981209	-0.000092	0.076166
C20	C	1.419840	-0.450354	0.321576
C21	C	1.535445	-0.549769	0.351419
C22	C	1.393678	-0.549766	0.187970
C23	C	1.624898	-0.450278	0.247711
C24	C	1.483054	-0.450267	0.084204
C25	C	1.598742	-0.549636	0.113991
C26	C	1.742350	-0.000013	0.209463
C27	C	1.883997	-0.000005	0.213863
C28	C	1.515447	-0.000018	-0.051880
C29	C	1.511040	-0.000013	-0.215701
N30	N	1.509272	0.353027	0.217748
C31	C	1.503049	-0.000005	0.487440
C32	C	1.507456	0.000001	0.651262
H33	H	1.062422	-0.000110	0.479085
H34	H	1.295938	-0.593470	0.162763
C35	C	1.117266	0.261976	0.070545
N36	N	1.161316	0.367219	0.011460
H37	H	1.722661	-0.406762	0.273054
H38	H	1.557615	-0.593474	0.464377
C39	C	0.947607	-0.000196	-0.085705
N40	N	0.922293	-0.000284	-0.207624
C41	C	1.701006	-0.608184	-0.004591
N42	N	1.778035	-0.652292	-0.093896
H43	H	0.916425	-0.225735	0.344733
H44	H	1.101849	-0.225951	0.090956
C45	C	1.453052	-0.391164	-0.068347
N46	N	1.430440	-0.346644	-0.183247
C47	C	0.901288	0.261961	0.365097
N48	N	0.857275	0.367177	0.424252
H49	H	1.344313	-0.406762	0.409416
