data_functionalizedCrystal
_audit_creation_method	'MofGen! by Chris Wilmer'
_symmetry_space_group_name_H-M	'P1'
_symmetry_Int_Tables_number	1
_symmetry_cell_setting	triclinic
loop_
_symmetry_equiv_pos_as_xyz
  x,y,z
_cell_length_a	12.759401
_cell_length_b	12.594516
_cell_length_c	12.759393
_cell_angle_alpha	89.970876
_cell_angle_beta	89.981504
_cell_angle_gamma	90.016214
loop_
_atom_site_label
_atom_site_type_symbol
_atom_site_fract_x
_atom_site_fract_y
_atom_site_fract_z
Zn1	Zn	1.606246	-0.423675	-0.593999
Zn2	Zn	2.106246	0.076325	-0.093999
Zn3	Zn	1.606136	-0.601694	-0.418327
Zn4	Zn	2.106136	-0.101694	0.081673
Zn5	Zn	1.430547	-0.423730	-0.418339
Zn6	Zn	1.930547	0.076270	0.081661
Zn7	Zn	1.430532	-0.601612	-0.593968
Zn8	Zn	1.930532	-0.101612	-0.093968
O9	O	1.518365	-0.512678	-0.506158
O10	O	2.018365	-0.012678	-0.006158
O11	O	1.753252	-0.447300	-0.570704
O12	O	2.253252	0.052700	-0.070704
O13	O	1.582804	-0.578144	-0.271307
O14	O	2.082804	-0.078144	0.228693
O15	O	1.453907	-0.274777	-0.441658
O16	O	1.953907	0.225223	0.058342
O17	O	1.753171	-0.578090	-0.441638
O18	O	2.253171	-0.078090	0.058362
O19	O	1.582991	-0.274736	-0.570715
O20	O	2.082991	0.225264	-0.070715
O21	O	1.453800	-0.447395	-0.271316
O22	O	1.953800	0.052605	0.228684
O23	O	1.283524	-0.447316	-0.441628
O24	O	1.783524	0.052684	0.058372
O25	O	1.453880	-0.577951	-0.740993
O26	O	1.953880	-0.077951	-0.240993
O27	O	1.283513	-0.578005	-0.570663
O28	O	1.783513	-0.078005	-0.070663
O29	O	1.582976	-0.447221	-0.741016
O30	O	2.082976	0.052779	-0.241016
O31	O	1.582789	-0.750629	-0.441608
O32	O	2.082789	-0.250629	0.058392
O33	O	1.453774	-0.750569	-0.570651
O34	O	1.953774	-0.250569	-0.070651
C35	C	1.245398	-0.512658	-0.506144
C36	C	1.745398	-0.012658	-0.006144
C37	C	1.128621	-0.512676	-0.506163
C38	C	1.628621	-0.012676	-0.006163
C39	C	1.073781	-0.580834	-0.573240
C40	C	1.573781	-0.080834	-0.073240
C41	C	0.964057	-0.580848	-0.573251
C42	C	1.464057	-0.080848	-0.073251
C43	C	0.964023	-0.444541	-0.439099
C44	C	1.464023	0.055459	0.060901
C45	C	1.073745	-0.444523	-0.439094
C46	C	1.573745	0.055477	0.060906
C47	C	1.128657	-0.648987	-0.640308
C48	C	1.628657	-0.148987	-0.140308
C49	C	1.073816	-0.717152	-0.707390
C50	C	1.573816	-0.217152	-0.207390
C51	C	0.964092	-0.717165	-0.707402
C52	C	1.464092	-0.217165	-0.207402
C53	C	0.909209	-0.649014	-0.640331
C54	C	1.409209	-0.149014	-0.140331
C55	C	1.518296	-0.789219	-0.506148
C56	C	2.018296	-0.289219	-0.006148
C57	C	1.518363	-0.907524	-0.506179
C58	C	2.018363	-0.407524	-0.006179
C59	C	1.448185	-0.976783	-0.576316
C60	C	1.948185	-0.476783	-0.076316
C61	C	1.422585	-1.047654	-0.480449
C62	C	1.922585	-0.547654	0.019551
C63	C	1.544058	-1.047453	-0.602062
C64	C	2.044058	-0.547453	-0.102062
C65	C	1.492713	-0.976836	-0.410261
C66	C	1.992713	-0.476836	0.089739
C67	C	1.614230	-0.976629	-0.531938
C68	C	2.114230	-0.476629	-0.031938
C69	C	1.588667	-1.047468	-0.436006
C70	C	2.088667	-0.547468	0.063994
C71	C	1.792398	-0.512698	-0.506173
C72	C	2.292398	-0.012698	-0.006173
C73	C	1.909175	-0.512707	-0.506179
C74	C	2.409175	-0.012707	-0.006179
C75	C	1.518439	-0.512570	-0.780192
C76	C	2.018439	-0.012570	-0.280192
C77	C	1.518470	-0.512525	-0.896968
C78	C	2.018470	-0.012525	-0.396968
C79	C	1.518463	-0.235057	-0.506192
C80	C	2.018463	0.264943	-0.006192
C81	C	1.518505	-0.116752	-0.506206
C82	C	2.018505	0.383248	-0.006206
C83	C	1.585700	-0.444447	-0.951844
C84	C	2.085700	0.055553	-0.451844
C85	C	1.585725	-0.444409	-1.061568
C86	C	2.085725	0.055591	-0.561568
C87	C	1.451288	-0.580534	-1.061531
C88	C	1.951288	-0.080534	-0.561531
C89	C	1.451258	-0.580567	-0.951809
C90	C	1.951258	-0.080567	-0.451809
C91	C	1.652912	-0.376405	-0.897003
C92	C	2.152912	0.123595	-0.397003
C93	C	1.720147	-0.308323	-0.951879
C94	C	2.220147	0.191677	-0.451879
C95	C	1.720172	-0.308284	-1.061603
C96	C	2.220172	0.191716	-0.561603
C97	C	1.652962	-0.376328	-1.116451
C98	C	2.152962	0.123672	-0.616451
C99	C	1.518352	-0.512708	-0.233191
C100	C	2.018352	-0.012708	0.266809
C101	C	1.518525	-0.512454	-0.116415
C102	C	2.018525	-0.012454	0.383585
H103	H	0.819864	-0.649021	-0.640355
H104	H	1.319864	-0.149021	-0.140355
H105	H	1.217999	-0.648985	-0.640305
H106	H	1.717999	-0.148985	-0.140305
H107	H	1.652975	-0.376279	-1.205796
H108	H	2.152975	0.123721	-0.705796
C109	C	1.377362	-0.655379	-1.121869
C110	C	1.877362	-0.155379	-0.621869
N111	N	1.321682	-0.711754	-1.167315
N112	N	1.821682	-0.211754	-0.667315
H113	H	1.396498	-0.635985	-0.907128
H114	H	1.896498	-0.135985	-0.407128
C115	C	1.134190	-0.792113	-0.781165
C116	C	1.634190	-0.292113	-0.281165
N117	N	1.179662	-0.848576	-0.836733
N118	N	1.679662	-0.348576	-0.336733
H119	H	1.695219	-0.945412	-0.553750
H120	H	2.195219	-0.445412	-0.053750
H121	H	1.774861	-0.252918	-0.907214
H122	H	2.274861	0.247082	-0.407214
C123	C	1.134073	-0.369548	-0.365302
C124	C	1.634073	0.130452	0.134698
N125	N	1.179512	-0.313074	-0.309722
N126	N	1.679512	0.186926	0.190278
H127	H	1.341578	-1.078874	-0.458684
H128	H	1.841578	-0.578874	0.041316
H129	H	1.388731	-0.945746	-0.635542
H130	H	1.888731	-0.445746	-0.135542
C131	C	1.668922	-1.089142	-0.355801
C132	C	2.168922	-0.589142	0.144199
N133	N	1.729364	-1.120534	-0.295388
N134	N	2.229364	-0.620534	0.204612
C135	C	0.903771	-0.792151	-0.781188
C136	C	1.403771	-0.292151	-0.281188
N137	N	0.858339	-0.848639	-0.836760
N138	N	1.358339	-0.348639	-0.336760
H139	H	1.470943	-0.945945	-0.329163
H140	H	1.970943	-0.445945	0.170837
C141	C	0.903647	-0.369586	-0.365321
C142	C	1.403647	0.130414	0.134679
N143	N	0.858172	-0.313132	-0.309747
N144	N	1.358172	0.186868	0.190253
C145	C	1.652887	-0.376438	-0.776304
C146	C	2.152887	0.123562	-0.276304
N147	N	1.652867	-0.376463	-0.685394
N148	N	2.152867	0.123537	-0.185394
C149	C	1.573343	-1.089359	-0.711591
C150	C	2.073343	-0.589359	-0.211591
N151	N	1.595392	-1.120917	-0.794091
N152	N	2.095392	-0.620917	-0.294091
H153	H	1.774911	-0.252841	-1.106280
H154	H	2.274911	0.247159	-0.606280
