data_functionalizedCrystal
_audit_creation_method	'MofGen! by Chris Wilmer'
_symmetry_space_group_name_H-M	'P1'
_symmetry_Int_Tables_number	1
_symmetry_cell_setting	triclinic
loop_
_symmetry_equiv_pos_as_xyz
  x,y,z
_cell_length_a	17.699083
_cell_length_b	9.065218
_cell_length_c	7.540329
_cell_angle_alpha	90.001757
_cell_angle_beta	89.996928
_cell_angle_gamma	84.149450
loop_
_atom_site_label
_atom_site_type_symbol
_atom_site_fract_x
_atom_site_fract_y
_atom_site_fract_z
O1	O	-1.005529	-0.186555	-0.147226
O2	O	-0.785340	-0.210827	-0.147284
O3	O	-0.899986	0.016086	-0.147250
O4	O	-0.890883	-0.413468	-0.147260
O5	O	-0.899979	0.016089	0.147715
O6	O	-0.785333	-0.210824	0.147681
O7	O	-1.005522	-0.186552	0.147739
Cu8	Cu	-0.895427	-0.198688	0.174643
Cu9	Cu	-0.895435	-0.198691	-0.174188
O10	O	-0.890876	-0.413466	0.147705
C11	C	-0.757133	-0.209956	0.000192
C12	C	-0.673094	-0.207347	0.000170
C13	C	-0.899108	0.071048	0.000229
C14	C	-0.896492	0.234814	0.000220
C15	C	-1.033729	-0.187423	0.000260
C16	C	-1.117768	-0.190033	0.000270
C17	C	-0.625512	-0.340540	0.000167
C18	C	-0.546550	-0.338080	0.000190
C19	C	-0.515171	-0.202425	0.000203
C20	C	-0.562759	-0.069221	0.000211
C21	C	-0.641720	-0.071683	0.000200
C22	C	-0.244319	-0.059289	0.000255
C23	C	-0.165352	-0.056838	0.000260
C24	C	-0.149148	-0.325686	0.000244
C25	C	-0.228109	-0.328148	0.000234
C26	C	-0.275691	-0.194946	0.000251
C27	C	-0.361311	-0.197615	0.000230
C28	C	-0.429552	-0.199754	0.000212
C29	C	-0.891755	-0.468428	0.000222
C30	C	-0.894370	-0.632193	0.000219
N31	N	-0.895427	-0.198685	0.419991
N32	N	-0.895441	-0.198683	-0.419536
H33	H	-0.651054	-0.451006	0.000155
H34	H	-0.507811	-0.446539	0.000186
H35	H	-0.537205	0.041232	0.000246
H36	H	-0.283051	0.049173	0.000270
H37	H	-0.253653	-0.438612	0.000216
H38	H	-0.110397	-0.434146	0.000240
H39	H	-0.139807	0.053635	0.000272
H40	H	-0.680462	0.036777	0.000201
