data_functionalizedCrystal
_audit_creation_method	'MofGen! by Chris Wilmer'
_symmetry_space_group_name_H-M	'P1'
_symmetry_Int_Tables_number	1
_symmetry_cell_setting	triclinic
loop_
_symmetry_equiv_pos_as_xyz
  x,y,z
_cell_length_a	10.654558
_cell_length_b	10.654551
_cell_length_c	7.681481
_cell_angle_alpha	84.205011
_cell_angle_beta	95.780038
_cell_angle_gamma	84.486839
loop_
_atom_site_label
_atom_site_type_symbol
_atom_site_fract_x
_atom_site_fract_y
_atom_site_fract_z
O1	O	1.656067	0.188232	-0.146392
O2	O	1.290590	0.205028	-0.146400
O3	O	1.481731	0.013891	-0.146397
O4	O	1.464926	0.379369	-0.146396
O5	O	1.505257	-0.009688	0.146461
O6	O	1.314116	0.181449	0.146458
O7	O	1.679593	0.164653	0.146466
Zn8	Zn	1.500590	0.169307	0.192959
Zn9	Zn	1.469593	0.200374	-0.192894
O10	O	1.488452	0.355789	0.146463
C11	C	1.255555	0.192003	0.000028
C12	C	1.116112	0.188307	0.000024
C13	C	1.492259	-0.044696	0.000028
C14	C	1.488566	-0.184138	0.000016
C15	C	0.906749	0.195965	-0.159613
C16	C	1.037772	0.199427	-0.159615
C17	C	1.063425	0.173712	0.159675
C18	C	0.932406	0.170242	0.159675
C19	C	0.828414	0.207098	-0.319262
C20	C	0.881092	0.221690	-0.478914
C21	C	1.012114	0.225152	-0.478916
C22	C	1.090459	0.214022	-0.319266
C23	C	1.474010	-0.236798	-0.159618
C24	C	1.470530	-0.367819	-0.159610
C25	C	1.496169	-0.393512	0.159680
C26	C	1.499640	-0.262492	0.159670
C27	C	1.462936	-0.158444	-0.319272
C28	C	1.448381	-0.211103	-0.478919
C29	C	1.444901	-0.342124	-0.478911
C30	C	1.455977	-0.420486	-0.319256
C31	C	1.714628	0.177678	0.000034
C32	C	1.854070	0.181375	0.000026
C33	C	1.477923	0.414377	0.000034
C34	C	1.481616	0.553820	0.000034
N35	N	1.521753	0.148104	0.456294
N36	N	1.448440	0.221567	-0.456228
H37	H	0.721727	0.204284	-0.319279
F38	F	1.619591	0.050099	0.554590
H39	H	0.817297	0.230744	-0.608895
H40	H	1.505187	-0.457325	0.289664
H41	H	1.511465	-0.219613	0.289658
F42	F	1.068177	0.240667	-0.648827
F43	F	1.229908	0.217689	-0.319276
H44	H	0.889511	0.158385	0.289667
F45	F	1.146807	0.161873	0.329574
F46	F	1.466644	-0.019000	-0.319294
F47	F	1.350620	0.319578	0.445484
H48	H	1.433036	-0.384992	-0.608903
F49	F	1.436590	-0.127702	-0.648825
H50	H	1.453124	-0.527169	-0.319262
