data_functionalizedCrystal
_audit_creation_method	'MofGen! by Chris Wilmer'
_symmetry_space_group_name_H-M	'P1'
_symmetry_Int_Tables_number	1
_symmetry_cell_setting	triclinic
loop_
_symmetry_equiv_pos_as_xyz
  x,y,z
_cell_length_a	19.077236
_cell_length_b	29.839132
_cell_length_c	19.077258
_cell_angle_alpha	87.684023
_cell_angle_beta	89.918181
_cell_angle_gamma	87.662196
loop_
_atom_site_label
_atom_site_type_symbol
_atom_site_fract_x
_atom_site_fract_y
_atom_site_fract_z
Zn1	Zn	1.058141	0.140570	0.440521
Zn2	Zn	1.391474	0.473904	0.773854
Zn3	Zn	1.724807	0.807237	1.107187
Zn4	Zn	1.062756	0.218572	0.322999
Zn5	Zn	1.396089	0.551906	0.656332
Zn6	Zn	1.729423	0.885239	0.989666
Zn7	Zn	0.945373	0.146580	0.318299
Zn8	Zn	1.278706	0.479914	0.651632
Zn9	Zn	1.612039	0.813247	0.984965
Zn10	Zn	0.940557	0.218805	0.435738
Zn11	Zn	1.273890	0.552138	0.769072
Zn12	Zn	1.607223	0.885471	1.102405
O13	O	1.001706	0.181132	0.379389
O14	O	1.335040	0.514465	0.712722
O15	O	1.668373	0.847799	1.046056
O16	O	1.157087	0.148305	0.428900
O17	O	1.490421	0.481638	0.762233
O18	O	1.823754	0.814972	1.095566
O19	O	1.051132	0.211440	0.224044
O20	O	1.384465	0.544774	0.557377
O21	O	1.717799	0.878107	0.890710
O22	O	0.960416	0.082913	0.334546
O23	O	1.293749	0.416246	0.667879
O24	O	1.627082	0.749580	1.001213
O25	O	1.160478	0.205613	0.342557
O26	O	1.493812	0.538946	0.675891
O27	O	1.827145	0.872279	1.009224
O28	O	1.043266	0.078498	0.424342
O29	O	1.376599	0.411831	0.757675
O30	O	1.709932	0.745164	1.091009
O31	O	0.964891	0.158548	0.220590
O32	O	1.298224	0.491882	0.553923
O33	O	1.631558	0.825215	0.887257
O34	O	0.846399	0.158774	0.329909
O35	O	1.179733	0.492107	0.663242
O36	O	1.513066	0.825440	0.996575
O37	O	0.952207	0.206009	0.534705
O38	O	1.285541	0.539342	0.868038
O39	O	1.618874	0.872676	1.201371
O40	O	0.842861	0.211837	0.416191
O41	O	1.176194	0.545170	0.749524
O42	O	1.509528	0.878503	1.082858
O43	O	1.038596	0.148531	0.538218
O44	O	1.371929	0.481864	0.871552
O45	O	1.705262	0.815197	1.204885
O46	O	1.046462	0.281473	0.337920
O47	O	1.379795	0.614807	0.671253
O48	O	1.713129	0.948140	1.004587
O49	O	0.956683	0.281644	0.420749
O50	O	1.290016	0.614977	0.754082
O51	O	1.623349	0.948311	1.087416
C52	C	0.819133	0.185983	0.372021
C53	C	1.152466	0.519316	0.705354
C54	C	1.485800	0.852650	1.038688
C55	C	0.741027	0.188069	0.368886
C56	C	1.074360	0.521402	0.702219
C57	C	1.407693	0.854735	1.035552
C58	C	0.702565	0.159255	0.412435
C59	C	1.035898	0.492589	0.745769
C60	C	1.369231	0.825922	1.079102
C61	C	0.629176	0.161213	0.409483
C62	C	0.962509	0.494546	0.742816
C63	C	1.295842	0.827880	1.076150
C64	C	0.594250	0.191986	0.362985
C65	C	0.927583	0.525320	0.696318
C66	C	1.260917	0.858653	1.029651
C67	C	0.632717	0.220801	0.319430
C68	C	0.966051	0.554134	0.652764
C69	C	1.299384	0.887468	0.986097
C70	C	0.706105	0.218841	0.322379
C71	C	1.039439	0.552174	0.655713
C72	C	1.372772	0.885507	0.989046
C73	C	0.374954	0.201042	0.349333
C74	C	0.708287	0.534375	0.682667
C75	C	1.041620	0.867708	1.016000
C76	C	0.301561	0.203001	0.346389
C77	C	0.634894	0.536334	0.679722
C78	C	0.968227	0.869667	1.013056
C79	C	0.298024	0.143412	0.436441
C80	C	0.631357	0.476745	0.769775
C81	C	0.964691	0.810079	1.103108
C82	C	0.371413	0.141456	0.439389
C83	C	0.704746	0.474790	0.772723
C84	C	1.038080	0.808123	1.106056
C85	C	0.409874	0.170269	0.395832
C86	C	0.743208	0.503602	0.729166
C87	C	1.076541	0.836936	1.062499
N88	N	0.519235	0.193989	0.359967
N89	N	0.852568	0.527323	0.693301
N90	N	1.185901	0.860656	1.026634
N91	N	0.484888	0.168264	0.398847
N92	N	0.818222	0.501597	0.732180
N93	N	1.151555	0.834930	1.065513
C94	C	1.001569	0.297859	0.379342
C95	C	1.334902	0.631193	0.712675
C96	C	1.668236	0.964526	1.046008
C97	C	1.001574	0.347793	0.379347
C98	C	1.334907	0.681127	0.712681
C99	C	1.668240	1.014460	1.046014
C100	C	1.048485	0.657329	0.336298
C101	C	1.381818	0.990662	0.669632
C102	C	1.715151	1.323996	1.002965
C103	C	1.048551	0.845000	0.336317
C104	C	1.381885	1.178333	0.669650
C105	C	1.715218	1.511667	1.002984
O106	O	1.088362	0.869175	0.299700
O107	O	1.421695	1.202509	0.633033
O108	O	1.755028	1.535842	0.966366
N109	N	1.001780	0.868572	0.379404
N110	N	1.335113	1.201905	0.712737
N111	N	1.668446	1.535238	1.046070
C112	C	0.954991	0.845223	0.422492
C113	C	1.288325	1.178556	0.755825
C114	C	1.621658	1.511890	1.089159
O115	O	0.915216	0.869578	0.459146
O116	O	1.248549	1.202912	0.792479
O117	O	1.581882	1.536245	1.125812
C118	C	0.954929	0.657553	0.422477
C119	C	1.288262	0.990886	0.755810
C120	C	1.621595	1.324219	1.089143
C121	C	1.001699	0.633984	0.379382
C122	C	1.335032	0.967317	0.712715
C123	C	1.668365	1.300650	1.046048
C124	C	1.095251	0.633760	0.293208
C125	C	1.428585	0.967093	0.626541
C126	C	1.761918	1.300426	0.959874
C127	C	1.095232	0.586845	0.293201
C128	C	1.428565	0.920178	0.626534
C129	C	1.761898	1.253512	0.959867
C130	C	1.048445	0.563499	0.336284
C131	C	1.381779	0.896833	0.669618
C132	C	1.715112	1.230166	1.002951
C133	C	1.001679	0.587069	0.379375
C134	C	1.335012	0.920402	0.712708
C135	C	1.668346	1.253735	1.046041
C136	C	0.908144	0.634205	0.465568
C137	C	1.241478	0.967538	0.798901
C138	C	1.574811	1.300871	1.132235
C139	C	0.908134	0.587284	0.465562
C140	C	1.241467	0.920617	0.798895
C141	C	1.574801	1.253951	1.132228
C142	C	0.954904	0.563715	0.422467
C143	C	1.288237	0.897048	0.755800
C144	C	1.621571	1.230381	1.089134
C145	C	0.954873	0.516809	0.422451
C146	C	1.288206	0.850142	0.755785
C147	C	1.621540	1.183475	1.089118
N148	N	1.001645	0.493237	0.379365
N149	N	1.334978	0.826570	0.712698
N150	N	1.668311	1.159903	1.046031
C151	C	1.048431	0.516582	0.336281
C152	C	1.381764	0.849915	0.669614
C153	C	1.715097	1.183249	1.002948
C154	C	0.955026	0.943753	0.422496
C155	C	1.288360	1.277086	0.755829
C156	C	1.621693	1.610419	1.089163
C157	C	0.955041	0.990670	0.422499
C158	C	1.288374	1.324003	0.755832
C159	C	1.621708	1.657337	1.089166
C160	C	1.048602	0.990444	0.336325
C161	C	1.381935	1.323777	0.669658
C162	C	1.715269	1.657110	1.002991
C163	C	1.048583	0.943526	0.336319
C164	C	1.381917	1.276859	0.669652
C165	C	1.715250	1.610192	1.002985
C166	C	1.001798	0.920181	0.379409
C167	C	1.335131	1.253514	0.712743
C168	C	1.668465	1.586847	1.046076
C169	C	1.048386	0.418058	0.336269
C170	C	1.381719	0.751391	0.669602
C171	C	1.715052	1.084724	1.002936
C172	C	1.048360	0.371139	0.336264
C173	C	1.381693	0.704472	0.669597
C174	C	1.715026	1.037806	1.002930
C175	C	0.954802	0.371369	0.422441
C176	C	1.288135	0.704703	0.755774
C177	C	1.621468	1.038036	1.089107
C178	C	0.954825	0.418284	0.422443
C179	C	1.288158	0.751617	0.755777
C180	C	1.621491	1.084951	1.089110
C181	C	1.001622	0.441627	0.379356
C182	C	1.334956	0.774960	0.712689
C183	C	1.668289	1.108294	1.046022
O184	O	0.915089	0.492604	0.459055
O185	O	1.248422	0.825937	0.792389
O186	O	1.581755	1.159271	1.125722
O187	O	1.088211	0.492218	0.299644
O188	O	1.421544	0.825551	0.632978
O189	O	1.754878	1.158885	0.966311
C190	C	1.048504	0.704244	0.336305
C191	C	1.381838	1.037577	0.669639
C192	C	1.715171	1.370910	1.002972
C193	C	1.001738	0.727813	0.379396
C194	C	1.335071	1.061146	0.712729
C195	C	1.668405	1.394480	1.046063
C196	C	0.954952	0.704468	0.422479
C197	C	1.288285	1.037801	0.755813
C198	C	1.621618	1.371134	1.089146
C199	C	1.001753	0.774730	0.379399
C200	C	1.335086	1.108064	0.712732
C201	C	1.668419	1.441397	1.046066
C202	C	1.048539	0.798076	0.336315
C203	C	1.381872	1.131409	0.669649
C204	C	1.715205	1.464743	1.002982
C205	C	1.095310	0.774504	0.293229
C206	C	1.428644	1.107837	0.626562
C207	C	1.761977	1.441171	0.959895
C208	C	1.095291	0.727589	0.293222
C209	C	1.428624	1.060923	0.626555
C210	C	1.761957	1.394256	0.959888
C211	C	0.908180	0.728040	0.465566
C212	C	1.241513	1.061373	0.798899
C213	C	1.574847	1.394706	1.132233
C214	C	0.908203	0.774954	0.465569
C215	C	1.241536	1.108288	0.798902
C216	C	1.574870	1.441621	1.132236
C217	C	0.954989	0.798300	0.422485
C218	C	1.288323	1.131633	0.755819
C219	C	1.621656	1.464967	1.089152
C220	C	1.184993	0.176262	0.386786
C221	C	1.518326	0.509596	0.720120
C222	C	1.851659	0.842929	1.053453
C223	C	1.263098	0.174187	0.389939
C224	C	1.596432	0.507521	0.723272
C225	C	1.929765	0.840854	1.056605
C226	C	0.994350	0.176625	0.562671
C227	C	1.327683	0.509959	0.896004
C228	C	1.661016	0.843292	1.229337
C229	C	0.991214	0.174705	0.640775
C230	C	1.324548	0.508038	0.974108
C231	C	1.657881	0.841372	1.307441
C232	C	1.001837	1.063949	0.379437
C233	C	1.335171	1.397282	0.712770
C234	C	1.668504	1.730616	1.046103
C235	C	1.001827	1.014015	0.379415
C236	C	1.335161	1.347349	0.712749
C237	C	1.668494	1.680682	1.046082
C238	C	1.034639	0.201339	0.679269
C239	C	1.367973	0.534673	1.012602
C240	C	1.701306	0.868006	1.345935
C241	C	1.031693	0.199529	0.752655
C242	C	1.365027	0.532863	1.085989
C243	C	1.698360	0.866196	1.419322
C244	C	0.985319	0.171087	0.787547
C245	C	1.318652	0.504420	1.120880
C246	C	1.651986	0.837754	1.454213
C247	C	0.941892	0.144450	0.749047
C248	C	1.275226	0.477783	1.082381
C249	C	1.608559	0.811116	1.415714
C250	C	0.944842	0.146258	0.675662
C251	C	1.278176	0.479591	1.008995
C252	C	1.611509	0.812924	1.342329
C253	C	0.971685	0.162725	1.006832
C254	C	1.305019	0.496058	1.340165
C255	C	1.638352	0.829392	1.673499
C256	C	0.968737	0.160920	1.080222
C257	C	1.302071	0.494253	1.413556
C258	C	1.635404	0.827587	1.746889
C259	C	1.058540	0.215999	1.083825
C260	C	1.391873	0.549333	1.417159
C261	C	1.725206	0.882666	1.750492
C262	C	1.061482	0.217807	1.010438
C263	C	1.394816	0.551140	1.343772
C264	C	1.728149	0.884473	1.677105
C265	C	1.018059	0.191168	0.971946
C266	C	1.351392	0.524501	1.305279
C267	C	1.684725	0.857834	1.638612
N268	N	0.982305	0.169237	0.862559
N269	N	1.315638	0.502571	1.195893
N270	N	1.648972	0.835904	1.529226
N271	N	1.021076	0.193015	0.896934
N272	N	1.354410	0.526349	1.230268
N273	N	1.687743	0.859682	1.563601
C274	C	1.009029	0.185632	1.196820
C275	C	1.342362	0.518965	1.530153
C276	C	1.675696	0.852299	1.863487
C277	C	1.012162	0.187554	1.118716
C278	C	1.345495	0.520888	1.452050
C279	C	1.678829	0.854221	1.785383
H280	H	0.730996	0.134197	0.450301
H281	H	1.064329	0.467531	0.783635
H282	H	1.397662	0.800864	1.116968
H283	H	0.597863	0.137751	0.444947
H284	H	0.931196	0.471084	0.778280
H285	H	1.264529	0.804418	1.111614
H286	H	0.406260	0.224503	0.313867
H287	H	0.739593	0.557837	0.647200
H288	H	1.072927	0.891170	0.980534
H289	H	1.133354	0.652762	0.258124
H290	H	1.466687	0.986096	0.591457
H291	H	1.800021	1.319429	0.924790
H292	H	0.399844	0.116399	0.477256
H293	H	0.733178	0.449732	0.810589
H294	H	1.066511	0.783066	1.143923
H295	H	1.133403	0.793520	0.258146
H296	H	1.466737	1.126853	0.591480
H297	H	1.800070	1.460187	0.924813
H298	H	0.930975	0.137755	1.108629
H299	H	1.264308	0.471089	1.441962
H300	H	1.597642	0.804422	1.775295
H301	H	0.870111	0.794141	0.500661
H302	H	1.203445	1.127474	0.833994
H303	H	1.536778	1.460807	1.167328
H304	H	0.909483	0.124568	0.644321
H305	H	1.242816	0.457901	0.977654
H306	H	1.576150	0.791234	1.310988
H307	H	0.916707	0.352354	0.457517
H308	H	1.250040	0.685688	0.790850
H309	H	1.583373	1.019021	1.124183
H310	H	1.086668	0.924338	0.301228
H311	H	1.420001	1.257671	0.634561
H312	H	1.753334	1.591005	0.967894
H313	H	0.266701	0.119954	0.471902
H314	H	0.600034	0.453287	0.805235
H315	H	0.933368	0.786620	1.138569
H316	H	0.936324	0.141035	0.975500
H317	H	1.269657	0.474369	1.308833
H318	H	1.602990	0.807702	1.642166
H319	H	0.870082	0.709035	0.500651
H320	H	1.203415	1.042369	0.833984
H321	H	1.536749	1.375702	1.167318
H322	H	1.072405	0.224499	0.650866
H323	H	1.405738	0.557832	0.984199
H324	H	1.739071	0.891165	1.317532
H325	H	1.086697	1.009459	0.301245
H326	H	1.420031	1.342793	0.634578
H327	H	1.753364	1.676126	0.967911
H328	H	0.916950	1.009856	0.457584
H329	H	1.250283	1.343190	0.790918
H330	H	1.583617	1.676523	1.124251
H331	H	1.093894	0.237686	1.115174
H332	H	1.427228	0.571020	1.448507
H333	H	1.760561	0.904353	1.781841
H334	H	0.904136	0.121289	0.777462
H335	H	1.237470	0.454623	1.110795
H336	H	1.570803	0.787956	1.444128
H337	H	0.273126	0.228062	0.308524
H338	H	0.606460	0.561396	0.641857
H339	H	0.939793	0.894729	0.975191
H340	H	0.737420	0.242303	0.286916
H341	H	1.070754	0.575637	0.620249
H342	H	1.404087	0.908970	0.953583
H343	H	0.604275	0.245855	0.281567
H344	H	0.937609	0.579188	0.614900
H345	H	1.270942	0.912522	0.948233
H346	H	1.133318	0.567657	0.258111
H347	H	1.466651	0.900991	0.591445
H348	H	1.799984	1.234324	0.924778
H349	H	0.916926	0.924748	0.457587
H350	H	1.250260	1.258082	0.790920
H351	H	1.583593	1.591415	1.124253
H352	H	1.099234	0.240975	0.982035
H353	H	1.432568	0.574308	1.315368
H354	H	1.765901	0.907641	1.648701
H355	H	1.086494	0.437058	0.301185
H356	H	1.419828	0.770391	0.634518
H357	H	1.753161	1.103725	0.967851
H358	H	1.086445	0.351950	0.301168
H359	H	1.419779	0.685284	0.634502
H360	H	1.753112	1.018617	0.967835
H361	H	1.067055	0.221218	0.783994
H362	H	1.400388	0.554551	1.117327
H363	H	1.733721	0.887884	1.450661
H364	H	0.870056	0.653387	0.500657
H365	H	1.203389	0.986720	0.833990
H366	H	1.536723	1.320054	1.167324
H367	H	0.870036	0.568279	0.500654
H368	H	1.203370	0.901612	0.833987
H369	H	1.536703	1.234946	1.167321
H370	H	1.133375	0.708402	0.258130
H371	H	1.466708	1.041736	0.591463
H372	H	1.800042	1.375069	0.924797
H373	H	0.916743	0.437475	0.457537
H374	H	1.250076	0.770808	0.790870
H375	H	1.583410	1.104142	1.124204
