data_functionalizedCrystal
_audit_creation_method	'MofGen! by Chris Wilmer'
_symmetry_space_group_name_H-M	'P1'
_symmetry_Int_Tables_number	1
_symmetry_cell_setting	triclinic
loop_
_symmetry_equiv_pos_as_xyz
  x,y,z
_cell_length_a	27.440280
_cell_length_b	17.917603
_cell_length_c	17.917559
_cell_angle_alpha	90.240464
_cell_angle_beta	63.035782
_cell_angle_gamma	57.017611
loop_
_atom_site_label
_atom_site_type_symbol
_atom_site_fract_x
_atom_site_fract_y
_atom_site_fract_z
Zr1	Zr	0.484734	0.757910	-0.060798
O2	O	0.586393	0.638508	-0.180213
O3	O	0.383074	0.794498	-0.024192
O4	O	0.475460	0.801627	-0.173100
O5	O	0.501323	0.625772	0.086157
O6	O	0.468146	0.930315	-0.167487
O7	O	0.494007	0.631379	-0.031305
O8	O	0.302884	0.917562	0.098881
O9	O	0.666584	0.638524	-0.180210
O10	O	0.419430	0.906158	-0.004390
O11	O	0.430348	0.805936	0.079082
O12	O	0.539121	0.814329	-0.096236
O13	O	0.550039	0.714107	-0.012764
Zr14	Zr	0.484737	0.954209	0.135494
Zr15	Zr	0.473069	0.963152	-0.051846
Zr16	Zr	0.496402	0.748967	0.126542
Zr17	Zr	0.612630	0.757936	-0.060794
Zr18	Zr	0.356841	0.954183	0.135490
O19	O	0.586397	0.917621	0.098888
O20	O	0.569806	0.930336	-0.167484
O21	O	0.602983	0.625793	0.086160
O22	O	0.383078	1.073611	0.254909
O23	O	0.366488	1.086326	-0.011464
O24	O	0.399665	0.781784	0.242180
O25	O	0.468148	1.086347	-0.011461
O26	O	0.494011	0.910492	0.247796
O27	O	0.501325	0.781804	0.242183
O28	O	0.475464	1.080740	0.106001
O29	O	0.657312	0.801664	-0.173095
O30	O	0.312159	0.910455	0.247791
O31	O	0.302887	1.073595	0.254906
O32	O	0.293612	1.080702	0.105997
O33	O	0.675859	0.631417	-0.031301
O34	O	0.666587	0.794557	-0.024185
O35	O	0.430350	0.897790	0.170932
O36	O	0.419432	0.998012	0.087460
O37	O	0.539122	0.906183	-0.004386
O38	O	0.550041	0.805961	0.079086
C39	C	0.499327	0.599333	0.026150
C40	C	0.504279	0.512202	0.022350
C41	C	0.324757	0.856027	0.037344
C42	C	0.270461	0.856015	0.037342
C43	C	0.513325	0.352692	0.015409
C44	C	0.456149	0.359420	0.059284
C45	C	0.461182	0.270663	0.055423
C46	C	0.508293	0.441455	0.019270
C47	C	-0.071983	0.908401	-0.006215
C48	C	-0.123007	0.908409	-0.006212
O49	O	-0.154261	0.952929	-0.043240
N50	N	-0.142824	0.856094	0.037358
C51	C	-0.111619	0.803773	0.080935
O52	O	-0.133161	0.759276	0.117996
C53	C	-0.060599	0.803771	0.080937
C54	C	-0.040780	0.856082	0.037357
C55	C	-0.052164	0.960709	-0.049791
C56	C	-0.001143	0.960699	-0.049795
C57	C	0.030060	0.908380	-0.006223
C58	C	0.010241	0.856072	0.037353
C59	C	-0.029399	0.751456	0.124520
C60	C	0.021624	0.751459	0.124519
C61	C	0.041443	0.803771	0.080938
C62	C	0.092466	0.803744	0.080921
N63	N	0.112283	0.856059	0.037351
C64	C	0.081080	0.908378	-0.006221
C65	C	-0.218765	0.803784	0.080929
C66	C	-0.269781	0.803781	0.080922
C67	C	-0.281166	0.908419	-0.006224
C68	C	-0.230147	0.908416	-0.006222
C69	C	-0.198948	0.856100	0.037359
C70	C	0.188230	0.908352	-0.006226
C71	C	0.239259	0.908334	-0.006229
C72	C	0.250637	0.803700	0.080920
C73	C	0.199616	0.803714	0.080920
C74	C	0.168411	0.856047	0.037345
O75	O	0.123747	0.759249	0.117933
O76	O	0.102622	0.952877	-0.043265
C77	C	0.644714	0.856092	0.037352
C78	C	0.699010	0.856104	0.037354
C79	C	0.470140	0.867245	-0.196985
C80	C	0.465187	0.871041	-0.276515
C81	C	0.470144	1.112786	0.048546
C82	C	0.465192	1.199917	0.052346
C83	C	0.513325	0.834127	-0.503155
C84	C	0.456149	0.877990	-0.422146
C85	C	0.461179	0.874122	-0.341110
C86	C	0.508296	0.837993	-0.584200
C87	C	0.499330	0.844874	0.271681
C88	C	0.504284	0.841078	0.351211
C89	C	0.310165	1.112753	0.048541
C90	C	0.250918	1.199872	0.052340
C91	C	0.339352	0.844841	0.271677
C92	C	0.290010	0.841034	0.351206
C93	C	0.324760	1.101568	0.282874
C94	C	0.270466	1.184891	0.366204
C95	C	0.644710	0.610551	-0.208178
C96	C	0.699004	0.527228	-0.291508
C97	C	0.659305	0.599366	0.026155
C98	C	0.718553	0.512247	0.022356
C99	C	0.630119	0.867278	-0.196981
C100	C	0.679461	0.871085	-0.276510
C101	C	0.223093	1.192838	0.006172
C102	C	0.167431	1.274689	0.009724
C103	C	0.139590	1.363573	0.059449
C104	C	0.167420	1.370605	0.105619
C105	C	0.223085	1.288756	0.102062
C106	C	0.266840	0.887192	0.436506
C107	C	0.220485	0.883611	0.511239
C108	C	0.197298	0.833876	0.500670
C109	C	0.220474	0.787712	0.415361
C110	C	0.266831	0.791288	0.340629
C111	C	0.239270	1.276344	0.361765
C112	C	0.188261	1.354643	0.440055
C113	C	0.168446	1.341487	0.522783
C114	C	0.199648	1.250025	0.527219
C115	C	0.250660	1.171727	0.448930
C116	C	0.730207	0.435775	-0.287069
C117	C	0.781232	0.357476	-0.365359
C118	C	0.801049	0.370632	-0.448087
C119	C	0.769844	0.462094	-0.452523
C120	C	0.718824	0.540392	-0.374234
C121	C	0.746382	0.519281	0.068516
C122	C	0.802058	0.437431	0.064944
C123	C	0.829900	0.348547	0.015216
C124	C	0.802068	0.341515	-0.030951
C125	C	0.746397	0.423364	-0.027383
C126	C	0.702633	0.920828	-0.265912
C127	C	0.748988	0.924424	-0.340630
C128	C	0.772173	0.878271	-0.425945
C129	C	0.748996	0.828526	-0.436541
C130	C	0.702639	0.824936	-0.361823
H131	H	0.403420	0.431840	0.099747
F132	F	0.114153	1.424828	0.606099
H133	H	0.285689	0.753703	0.271177
F134	F	-0.314385	0.964103	-0.052596
F135	F	0.831706	0.246910	-0.083870
H136	H	0.683778	0.784426	-0.370465
H137	H	0.159552	0.830972	0.561528
F138	F	0.080345	1.450678	0.063228
H139	H	0.285713	0.927692	0.445128
F140	F	0.821513	0.882097	-0.505459
F141	F	-0.209060	0.964094	-0.052604
H142	H	0.693418	0.614855	-0.377859
H143	H	0.183508	1.239327	0.594587
F144	F	0.195827	0.932751	0.602023
F145	F	0.716781	0.415863	-0.076512
H146	H	0.201588	0.747219	0.406768
H147	H	-0.285905	0.761172	0.116397
F148	F	0.709125	0.421752	-0.199031
H149	H	0.767881	0.790949	-0.506014
F150	F	0.582241	0.781246	-0.514258
H151	H	0.566050	0.280277	-0.025051
H152	H	0.276053	0.761101	0.116392
F153	F	0.137781	1.465210	0.158541
F154	F	0.855351	0.287291	-0.531403
F155	F	0.814433	0.260143	-0.360618
F156	F	0.260351	1.290367	0.273727
F157	F	0.260350	0.964011	-0.052618
H158	H	0.785986	0.472795	-0.519890
F159	F	-0.050481	0.695780	0.170907
F160	F	0.155059	1.451976	0.435314
F161	F	0.283854	1.074398	0.453668
H162	H	0.723718	0.591647	0.109016
F163	F	0.831667	0.444935	0.114086
H164	H	-0.193361	0.761172	0.116412
H165	H	0.162827	0.950967	-0.041707
F166	F	0.019941	1.016380	-0.096176
F167	F	0.889151	0.261443	0.011428
F168	F	0.677965	0.969956	-0.175120
F169	F	0.054824	0.695777	0.170906
H170	H	-0.077568	1.003317	-0.085271
F171	F	0.178530	0.748026	0.127290
H172	H	0.403420	0.918444	-0.413652
H173	H	0.245760	1.120472	-0.034331
F174	F	0.137820	1.267185	-0.039416
H175	H	0.245733	1.294496	0.139663
F176	F	0.773649	0.977366	-0.329335
