data_functionalizedCrystal
_audit_creation_method	'MofGen! by Chris Wilmer'
_symmetry_space_group_name_H-M	'P1'
_symmetry_Int_Tables_number	1
_symmetry_cell_setting	triclinic
loop_
_symmetry_equiv_pos_as_xyz
  x,y,z
_cell_length_a	23.532356
_cell_length_b	19.188925
_cell_length_c	17.666332
_cell_angle_alpha	89.989697
_cell_angle_beta	89.998345
_cell_angle_gamma	97.014846
loop_
_atom_site_label
_atom_site_type_symbol
_atom_site_fract_x
_atom_site_fract_y
_atom_site_fract_z
O1	O	-0.071089	0.925909	-0.062951
O2	O	0.428911	1.425909	0.437049
O3	O	-0.080664	0.722565	-0.062947
O4	O	0.419336	1.222565	0.437053
O5	O	0.007044	0.830387	-0.062960
O6	O	0.507044	1.330387	0.437040
O7	O	-0.158797	0.818086	-0.062938
O8	O	0.341203	1.318086	0.437062
O9	O	0.007049	0.830369	0.062937
O10	O	0.507049	1.330369	0.562937
O11	O	-0.080659	0.722546	0.062949
O12	O	0.419341	1.222546	0.562949
O13	O	-0.071084	0.925890	0.062946
O14	O	0.428916	1.425890	0.562946
Cu15	Cu	-0.075871	0.824216	0.074443
Cu16	Cu	0.424129	1.324216	0.574443
Cu17	Cu	-0.075877	0.824238	-0.074445
Cu18	Cu	0.424123	1.324238	0.425555
O19	O	-0.158793	0.818067	0.062958
O20	O	0.341207	1.318067	0.562958
C21	C	-0.080352	0.696545	0.000001
C22	C	0.419648	1.196545	0.500001
C23	C	-0.079423	0.619044	0.000002
C24	C	0.420577	1.119044	0.500002
C25	C	-0.124665	0.057119	0.000006
C26	C	0.375335	0.557119	0.500006
C27	C	-0.125543	0.129939	0.000002
C28	C	0.374457	0.629939	0.500002
C29	C	-0.074079	0.175049	-0.000003
C30	C	0.425921	0.675049	0.499997
C31	C	-0.021732	0.147334	-0.000024
C32	C	0.478268	0.647334	0.499976
C33	C	-0.020856	0.074515	-0.000028
C34	C	0.479144	0.574515	0.499972
N35	N	-0.036819	0.295847	0.042848
N36	N	0.463181	0.795847	0.542848
N37	N	-0.037655	0.365022	0.042853
N38	N	0.462345	0.865022	0.542853
C39	C	-0.076717	0.394449	0.000006
C40	C	0.423283	0.894449	0.500006
N41	N	-0.114919	0.352088	-0.042837
N42	N	0.385081	0.852088	0.457163
N43	N	-0.114084	0.282907	-0.042838
N44	N	0.385916	0.782907	0.457162
C45	C	-0.075023	0.254010	0.000000
C46	C	0.424977	0.754010	0.500000
C47	C	-0.130012	0.501116	0.000017
C48	C	0.369988	1.001116	0.500017
C49	C	-0.130888	0.573938	0.000009
C50	C	0.369112	1.073938	0.500009
C51	C	-0.027075	0.591332	-0.000010
C52	C	0.472925	1.091332	0.499990
C53	C	-0.026201	0.518511	-0.000009
C54	C	0.473799	1.018511	0.499991
C55	C	-0.077671	0.473408	0.000008
C56	C	0.422329	0.973408	0.500008
C57	C	-0.180012	0.818384	0.000013
C58	C	0.319988	1.318384	0.500013
C59	C	-0.243233	0.819309	0.000021
C60	C	0.256767	1.319309	0.500021
C61	C	-0.635261	0.825128	-0.068642
C62	C	-0.135261	1.325128	0.431358
C63	C	-0.694663	0.826007	-0.068646
C64	C	-0.194663	1.326007	0.431354
O65	O	-0.725384	0.826494	-0.127010
O66	O	-0.225384	1.326494	0.372990
N67	N	-0.724369	0.826433	-0.000020
N68	N	-0.224369	1.326433	0.499980
C69	C	-0.694671	0.825986	0.068614
C70	C	-0.194671	1.325986	0.568614
O71	O	-0.725394	0.826430	0.126985
O72	O	-0.225394	1.326430	0.626985
C73	C	-0.635271	0.825112	0.068616
C74	C	-0.135271	1.325112	0.568616
C75	C	-0.605567	0.824679	-0.000014
C76	C	-0.105567	1.324679	0.499986
C77	C	-0.605558	0.824695	-0.137267
C78	C	-0.105558	1.324695	0.362733
C79	C	-0.546161	0.823815	-0.137263
C80	C	-0.046161	1.323815	0.362737
C81	C	-0.516467	0.823366	-0.068634
C82	C	-0.016467	1.323366	0.431366
C83	C	-0.546170	0.823798	-0.000010
C84	C	-0.046170	1.323798	0.499990
C85	C	-0.605573	0.824670	0.137249
C86	C	-0.105573	1.324670	0.637249
C87	C	-0.546168	0.823796	0.137246
C88	C	-0.046168	1.323796	0.637246
C89	C	-0.516465	0.823363	0.068616
C90	C	-0.016465	1.323363	0.568616
C91	C	-0.457080	0.822469	0.068623
C92	C	0.042920	1.322469	0.568623
N93	N	-0.427373	0.822043	-0.000003
N94	N	0.072627	1.322043	0.499997
C95	C	-0.457066	0.822492	-0.068631
C96	C	0.042934	1.322492	0.431369
C97	C	-0.819417	0.827824	0.068602
C98	C	-0.319417	1.327824	0.568602
C99	C	-0.878817	0.828693	0.068600
C100	C	-0.378817	1.328693	0.568600
C101	C	-0.878804	0.828715	-0.068660
C102	C	-0.378804	1.328715	0.431340
C103	C	-0.819403	0.827841	-0.068657
C104	C	-0.319403	1.327841	0.431343
C105	C	-0.789710	0.827398	-0.000024
C106	C	-0.289710	1.327398	0.499976
C107	C	-0.332328	0.820641	-0.068618
C108	C	0.167672	1.320641	0.431382
C109	C	-0.272927	0.819758	-0.068608
C110	C	0.227073	1.319758	0.431392
C111	C	-0.272944	0.819739	0.068652
C112	C	0.227056	1.319739	0.568652
C113	C	-0.332341	0.820619	0.068642
C114	C	0.167659	1.320619	0.568642
C115	C	-0.362032	0.821073	0.000001
C116	C	0.137968	1.321073	0.500001
O117	O	-0.426320	0.821984	0.126957
O118	O	0.073680	1.321984	0.626957
O119	O	-0.426336	0.822057	-0.126993
O120	O	0.073664	1.322057	0.373007
C121	C	0.028264	0.830070	-0.000016
C122	C	0.528264	1.330070	0.499984
C123	C	0.091485	0.829146	-0.000029
C124	C	0.591485	1.329146	0.499971
C125	C	-0.071396	0.951910	-0.000005
C126	C	0.428604	1.451910	0.499995
C127	C	-0.072325	1.029411	-0.000010
C128	C	0.427675	1.529411	0.499990
N129	N	-0.075867	0.824206	0.179162
N130	N	0.424133	1.324206	0.679162
N131	N	-0.075876	0.824255	-0.179164
N132	N	0.424124	1.324255	0.320836
C133	C	-0.037049	0.871965	0.218766
C134	C	0.462951	1.371965	0.718766
C135	C	-0.037046	0.871969	0.298014
C136	C	0.462954	1.371969	0.798014
C137	C	-0.075871	0.824221	0.337655
C138	C	0.424129	1.324221	0.837655
C139	C	-0.114693	0.776452	0.298041
C140	C	0.385307	1.276452	0.798041
C141	C	-0.114691	0.776445	0.218795
C142	C	0.385309	1.276445	0.718795
N143	N	-0.126288	0.814972	0.462080
N144	N	0.373712	1.314972	0.962080
N145	N	-0.126288	0.814983	0.537360
N146	N	0.373712	1.314983	1.037360
C147	C	-0.075879	0.824239	0.576419
C148	C	0.424121	1.324239	1.076419
N149	N	-0.025469	0.833497	0.537352
N150	N	0.474531	1.333497	1.037352
N151	N	-0.025469	0.833489	0.462065
N152	N	0.474531	1.333489	0.962065
C153	C	-0.075878	0.824223	0.423584
C154	C	0.424122	1.324223	0.923584
C155	C	-0.037055	0.872005	0.701952
C156	C	0.462945	1.372005	1.201952
C157	C	-0.037051	0.872004	0.781201
C158	C	0.462949	1.372004	1.281201
C159	C	-0.114703	0.776491	0.781226
C160	C	0.385297	1.276491	1.281226
C161	C	-0.114702	0.776488	0.701979
C162	C	0.385298	1.276488	1.201979
C163	C	-0.075878	0.824249	0.662346
C164	C	0.424122	1.324249	1.162346
H165	H	-0.166576	0.020399	0.000017
H166	H	0.333424	0.520399	0.500017
H167	H	-0.171922	0.464391	0.000030
H168	H	0.328078	0.964391	0.500030
H169	H	0.014828	0.628060	-0.000020
H170	H	0.514828	1.128060	0.499980
H171	H	-0.795245	0.827457	0.124495
H172	H	-0.295245	1.327457	0.624495
H173	H	-0.146313	0.737611	0.813501
H174	H	0.353687	1.237611	1.313501
C175	C	-0.392564	0.881652	-0.148282
C176	C	0.107436	1.381652	0.351718
C177	C	-0.364965	0.821123	-0.144065
C178	C	0.135035	1.321123	0.355935
H179	H	-0.412711	0.881943	-0.194860
H180	H	0.087289	1.381943	0.305140
H181	H	-0.418756	0.882034	-0.107419
H182	H	0.081244	1.382034	0.392581
H183	H	-0.364941	0.922029	-0.145439
H184	H	0.135059	1.422029	0.354561
H185	H	-0.392589	0.780745	-0.146902
H186	H	0.107411	1.280745	0.353098
H187	H	-0.338771	0.820734	-0.184939
H188	H	0.161229	1.320734	0.315061
H189	H	-0.146302	0.737553	0.186548
H190	H	0.353698	1.237553	0.686548
H191	H	-0.248745	0.819403	-0.124497
H192	H	0.251255	1.319403	0.375503
C193	C	0.039706	0.966374	0.226708
C194	C	0.539706	1.466374	0.726708
C195	C	0.005631	0.924456	0.175204
C196	C	0.505631	1.424456	0.675204
H197	H	0.066058	0.998775	0.199811
H198	H	0.566058	1.498775	0.699811
H199	H	0.016048	0.991319	0.257604
H200	H	0.516048	1.491319	0.757604
H201	H	0.060130	0.937456	0.257630
H202	H	0.560130	1.437456	0.757630
H203	H	-0.014795	0.953374	0.144285
H204	H	0.485205	1.453374	0.644285
H205	H	0.029293	0.899509	0.144295
H206	H	0.529293	1.399509	0.644295
H207	H	-0.005441	0.910893	0.669682
H208	H	0.494559	1.410893	1.169682
H209	H	-0.902998	0.829033	0.124486
H210	H	-0.402998	1.329033	0.624486
H211	H	-0.173510	0.596495	0.000016
H212	H	0.326490	1.096495	0.500016
C213	C	-0.191459	0.682088	0.709966
C214	C	0.308541	1.182088	1.209966
C215	C	-0.157379	0.723997	0.658441
C216	C	0.342621	1.223997	1.158441
H217	H	-0.217808	0.649682	0.683086
H218	H	0.282192	1.149682	1.183086
H219	H	-0.167804	0.657147	0.740880
H220	H	0.332196	1.157147	1.240880
H221	H	-0.211885	0.711012	0.740868
H222	H	0.288115	1.211012	1.240868
H223	H	-0.136949	0.695073	0.627542
H224	H	0.363051	1.195073	1.127542
H225	H	-0.181037	0.748939	0.627514
H226	H	0.318963	1.248939	1.127514
H227	H	-0.356530	0.820944	0.124526
H228	H	0.143470	1.320944	0.624526
C229	C	-0.534452	0.763483	0.254247
C230	C	-0.034452	1.263483	0.754247
C231	C	-0.513530	0.823304	0.212692
C232	C	-0.013530	1.323304	0.712692
H233	H	-0.514301	0.763177	0.300821
H234	H	-0.014301	1.263177	0.800821
H235	H	-0.574075	0.764074	0.264060
H236	H	-0.074075	1.264074	0.764060
H237	H	-0.529160	0.722625	0.226044
H238	H	-0.029160	1.222625	0.726044
H239	H	-0.518826	0.864162	0.240893
H240	H	-0.018826	1.364162	0.740893
H241	H	-0.473898	0.822719	0.202881
H242	H	0.026102	1.322719	0.702881
H243	H	-0.005434	0.910862	0.330266
H244	H	0.494566	1.410862	0.830266
C245	C	-0.228069	0.105439	0.000043
C246	C	0.271931	0.605439	0.500043
C247	C	-0.183078	0.160406	0.000028
C248	C	0.316922	0.660406	0.500028
H249	H	-0.263588	0.124248	0.000064
H250	H	0.236412	0.624248	0.500064
H251	H	-0.225578	0.077410	-0.043862
H252	H	0.274422	0.577410	0.456138
H253	H	-0.225557	0.077387	0.043945
H254	H	0.274443	0.577387	0.543945
H255	H	-0.185588	0.188454	-0.043878
H256	H	0.314412	0.688454	0.456122
H257	H	-0.185571	0.188446	0.043936
H258	H	0.314429	0.688446	0.543936
C259	C	-0.696623	0.826014	0.198214
C260	C	-0.196623	1.326014	0.698214
C261	C	-0.638212	0.825150	0.212691
C262	C	-0.138212	1.325150	0.712691
H263	H	-0.716772	0.826307	0.244792
H264	H	-0.216772	1.326307	0.744792
H265	H	-0.701908	0.866877	0.170016
H266	H	-0.201908	1.366877	0.670016
H267	H	-0.710805	0.785434	0.170024
H268	H	-0.210805	1.285434	0.670024
H269	H	-0.624029	0.865732	0.240876
H270	H	-0.124029	1.365732	0.740876
H271	H	-0.632924	0.784282	0.240900
H272	H	-0.132924	1.284282	0.740900
H273	H	-0.521981	0.823467	-0.193149
H274	H	-0.021981	1.323467	0.306851
C275	C	0.023017	0.266685	-0.000015
C276	C	0.523017	0.766685	0.499985
C277	C	0.034839	0.196917	-0.000027
C278	C	0.534839	0.696917	0.499973
H279	H	0.057944	0.297293	-0.000014
H280	H	0.557944	0.797293	0.499986
H281	H	0.001548	0.275052	-0.043910
H282	H	0.501548	0.775052	0.456090
H283	H	0.001550	0.275027	0.043897
H284	H	0.501550	0.775027	0.543897
H285	H	0.056303	0.188573	-0.043941
H286	H	0.556303	0.688573	0.456059
H287	H	0.056317	0.188547	0.043873
H288	H	0.556317	0.688547	0.543873
H289	H	0.021767	0.051957	-0.000041
H290	H	0.521767	0.551957	0.499959
C291	C	-0.149180	0.734063	0.419532
C292	C	0.350820	1.234063	0.919532
C293	C	-0.157372	0.723968	0.341611
C294	C	0.342628	1.223968	0.841611
H295	H	-0.175531	0.701661	0.446428
H296	H	0.324469	1.201661	0.946428
H297	H	-0.111190	0.726755	0.432520
H298	H	0.388810	1.226755	0.932520
H299	H	-0.155272	0.780618	0.432494
H300	H	0.344728	1.280618	0.932494
H301	H	-0.151275	0.677415	0.328647
H302	H	0.348725	1.177415	0.828647
H303	H	-0.195371	0.731270	0.328618
H304	H	0.304629	1.231270	0.828618
H305	H	-0.248757	0.819371	0.124527
H306	H	0.251243	1.319371	0.624527
H307	H	0.016419	0.495953	-0.000018
H308	H	0.516419	0.995953	0.499982
C309	C	-0.599564	0.824616	-0.272936
C310	C	-0.099564	1.324616	0.227064
C311	C	-0.638191	0.825182	-0.212713
C312	C	-0.138191	1.325182	0.287287
H313	H	-0.619710	0.824908	-0.319515
H314	H	-0.119710	1.324908	0.180485
H315	H	-0.571953	0.864996	-0.270080
H316	H	-0.071953	1.364996	0.229920
H317	H	-0.580841	0.783553	-0.270060
H318	H	-0.080841	1.283553	0.229940
H319	H	-0.656912	0.866249	-0.215585
H320	H	-0.156912	1.366249	0.284415
H321	H	-0.665813	0.784799	-0.215570
H322	H	-0.165813	1.284799	0.284430
C323	C	0.039690	0.966428	0.773211
C324	C	0.539690	1.466428	1.273211
C325	C	0.005619	0.924509	0.824737
C326	C	0.505619	1.424509	1.324737
H327	H	0.066030	0.998845	0.800091
H328	H	0.566030	1.498845	1.300091
H329	H	0.060122	0.937517	0.742313
H330	H	0.560122	1.437517	1.242313
H331	H	0.016024	0.991360	0.742293
H332	H	0.516024	1.491360	1.242293
H333	H	0.029285	0.899572	0.855652
H334	H	0.529285	1.399572	1.355652
H335	H	-0.014814	0.953423	0.855648
H336	H	0.485186	1.453423	1.355648
C337	C	-0.890580	0.889014	-0.185668
C338	C	-0.390580	1.389014	0.314332
C339	C	-0.911472	0.829198	-0.144085
C340	C	-0.411472	1.329198	0.355915
H341	H	-0.910754	0.889302	-0.232226
H342	H	-0.410754	1.389302	0.267774
H343	H	-0.895862	0.929871	-0.157473
H344	H	-0.395862	1.429871	0.342527
H345	H	-0.850957	0.888427	-0.195518
H346	H	-0.350957	1.388427	0.304482
H347	H	-0.951095	0.829788	-0.134231
H348	H	-0.451095	1.329788	0.365769
H349	H	-0.906195	0.788330	-0.172286
H350	H	-0.406195	1.288330	0.327714
H351	H	-0.795223	0.827487	-0.124542
H352	H	-0.295223	1.327487	0.375458
