data_functionalizedCrystal
_audit_creation_method	'MofGen! by Chris Wilmer'
_symmetry_space_group_name_H-M	'P1'
_symmetry_Int_Tables_number	1
_symmetry_cell_setting	triclinic
loop_
_symmetry_equiv_pos_as_xyz
  x,y,z
_cell_length_a	15.944499
_cell_length_b	27.732048
_cell_length_c	14.421503
_cell_angle_alpha	89.999321
_cell_angle_beta	89.989779
_cell_angle_gamma	83.060132
loop_
_atom_site_label
_atom_site_type_symbol
_atom_site_fract_x
_atom_site_fract_y
_atom_site_fract_z
O1	O	1.113743	0.062215	-0.077177
O2	O	0.869086	0.069927	-0.077168
O3	O	0.999013	-0.004294	-0.077156
O4	O	0.983816	0.136435	-0.077190
O5	O	0.998991	-0.004283	0.077068
O6	O	0.869065	0.069938	0.077055
O7	O	1.113721	0.062226	0.077046
Cu8	Cu	0.991391	0.066083	0.091132
Cu9	Cu	0.991416	0.066070	-0.091255
O10	O	0.983794	0.136446	0.077033
C11	C	0.837785	0.069617	-0.000055
C12	C	0.744549	0.068670	-0.000051
C13	C	0.998683	-0.022297	-0.000041
C14	C	0.997723	-0.075956	-0.000034
C15	C	0.452449	0.111790	-0.000075
C16	C	0.513782	0.089370	-0.076112
C17	C	0.408957	0.065231	-0.000072
C18	C	0.513747	0.089368	0.075940
C19	C	0.573844	0.066923	-0.000060
C20	C	0.469062	0.042798	-0.076171
C21	C	0.469021	0.042802	0.075950
C22	C	0.530337	0.020348	-0.000105
C23	C	0.313970	0.064257	-0.000079
C24	C	0.668830	0.067893	-0.000059
C25	C	1.068453	-0.414472	-0.000084
C26	C	1.064889	-0.616147	-0.000097
O27	O	1.129568	-0.647129	-0.000140
N28	N	0.987848	-0.635596	-0.000093
C29	C	0.911693	-0.604623	-0.000092
O30	O	0.846083	-0.625793	-0.000099
C31	C	0.915258	-0.402949	-0.000086
C32	C	0.992304	-0.383503	-0.000080
C33	C	1.145493	-0.395025	-0.000079
C34	C	1.146384	-0.344609	-0.000071
C35	C	1.070234	-0.313640	-0.000067
C36	C	0.993194	-0.333087	-0.000072
C37	C	0.839103	-0.371977	-0.000092
C38	C	0.840001	-0.321556	-0.000093
C39	C	0.917047	-0.302110	-0.000087
C40	C	0.917934	-0.251702	-0.000060
N41	N	0.994976	-0.232253	-0.000064
C42	C	1.071125	-0.263222	-0.000067
C43	C	0.909826	-0.710505	-0.000093
C44	C	0.908935	-0.760923	-0.000093
C45	C	1.062132	-0.772443	-0.000100
C46	C	1.063023	-0.722024	-0.000093
C47	C	0.986868	-0.691056	-0.000097
C48	C	1.072989	-0.157345	-0.000049
C49	C	1.073872	-0.106925	-0.000037
C50	C	0.920676	-0.095409	-0.000036
C51	C	0.919792	-0.145825	-0.000043
C52	C	0.995955	-0.176792	-0.000053
O53	O	0.853291	-0.220691	-0.000028
O54	O	1.136726	-0.242043	-0.000081
C55	C	1.067563	-0.464888	-0.000092
C56	C	0.990523	-0.484334	-0.000097
C57	C	0.914374	-0.453365	-0.000093
C58	C	0.989632	-0.534752	-0.000097
C59	C	1.065782	-0.565721	-0.000100
C60	C	1.142823	-0.546272	-0.000104
C61	C	1.143713	-0.495857	-0.000096
C62	C	0.837332	-0.472814	-0.000089
C63	C	0.836449	-0.523231	-0.000097
C64	C	0.912598	-0.554200	-0.000100
C65	C	1.145023	0.062536	-0.000069
C66	C	1.238258	0.063483	-0.000080
C67	C	0.984124	0.154449	-0.000083
C68	C	0.985085	0.208108	-0.000097
N69	N	0.991379	0.066092	0.219414
N70	N	0.991435	0.066057	-0.219536
C71	C	0.931291	0.100396	0.469061
C72	C	1.007070	0.109772	0.530858
C73	C	0.991400	0.066080	0.408575
C74	C	0.915640	0.056715	0.530872
C75	C	0.991413	0.066070	0.591296
C76	C	1.067217	0.075478	0.469011
C77	C	0.975737	0.022402	0.469019
C78	C	1.051572	0.031760	0.530788
C79	C	0.991391	0.066087	0.303314
C80	C	0.991430	0.066063	0.696555
H81	H	0.418614	0.150430	-0.000159
H82	H	0.449350	0.023118	-0.140526
H83	H	0.533631	0.109060	-0.140400
O84	O	0.839240	0.047292	0.563443
C85	C	0.840554	0.046969	0.661197
H86	H	0.891705	0.069073	0.686932
H87	H	0.776492	0.063606	0.688709
H88	H	0.854527	0.007968	0.686997
O89	O	1.143595	0.085023	0.436584
C90	C	1.142651	0.084939	0.338824
H91	H	1.074683	0.092510	0.313264
H92	H	1.180634	0.114286	0.311838
H93	H	1.171874	0.047954	0.312317
H94	H	0.533556	0.109073	0.140221
O95	O	0.834114	-0.779833	0.000074
C96	C	0.829003	-0.808663	0.079933
H97	H	0.872730	-0.796742	0.135763
H98	H	0.761241	-0.804135	0.106741
H99	H	0.848902	-0.848422	0.061872
O100	O	1.148793	-0.088116	-0.000077
C101	C	1.215811	-0.126265	-0.000062
H102	H	1.192720	-0.160514	-0.029264
H103	H	1.269647	-0.115728	-0.044838
H104	H	1.239258	-0.133402	0.073925
H105	H	0.858677	-0.070185	-0.000030
H106	H	1.209122	-0.328781	-0.000070
H107	H	1.135009	-0.182554	-0.000061
O108	O	0.870725	0.135004	0.436560
C109	C	0.871054	0.134263	0.338804
H110	H	0.900264	0.097032	0.313526
H111	H	0.803456	0.141873	0.312110
H112	H	0.909705	0.163283	0.311730
H113	H	1.102465	0.002734	0.557721
O114	O	0.959791	-0.021602	0.436468
C115	C	0.886236	-0.015683	0.381355
H116	H	0.875297	0.023190	0.354284
H117	H	0.894240	-0.041986	0.320359
H118	H	0.829695	-0.023468	0.424854
H119	H	0.564020	-0.018326	-0.000136
H120	H	0.449152	0.023131	0.140244
O121	O	1.137885	-0.703159	-0.000261
C122	C	1.184282	-0.718999	-0.080124
H123	H	1.139223	-0.729487	-0.135947
H124	H	1.219622	-0.688459	-0.106941
H125	H	1.231517	-0.751859	-0.062065
O126	O	1.219549	-0.425035	-0.000038
C127	C	1.287726	-0.397049	-0.000059
H128	H	1.265885	-0.359421	0.029133
H129	H	1.341036	-0.415638	0.044722
H130	H	1.311388	-0.393458	-0.074047
O131	O	1.136029	-0.802600	-0.000152
C132	C	1.118710	-0.851268	-0.000132
H133	H	1.052757	-0.853196	-0.029314
H134	H	1.167283	-0.874112	-0.044921
H135	H	1.122087	-0.865853	0.073854
H136	H	0.847808	-0.685294	-0.000097
O137	O	0.766075	-0.291425	0.000029
C138	C	0.761977	-0.261927	0.079918
H139	H	0.828608	-0.259373	0.106551
H140	H	0.730183	-0.224035	0.061957
H141	H	0.723826	-0.278518	0.135845
H142	H	0.776364	-0.387801	-0.000102
H143	H	0.857055	-0.161659	-0.000022
H144	H	1.206452	-0.480029	-0.000091
H145	H	1.020330	0.146705	0.558021
O146	O	1.216774	-0.576380	-0.000274
C147	C	1.220830	-0.605893	-0.080142
H148	H	1.177641	-0.587423	-0.135962
H149	H	1.288568	-0.611566	-0.106960
H150	H	1.199564	-0.642555	-0.062088
H151	H	0.773704	-0.539058	-0.000093
O152	O	0.763280	-0.442804	-0.000039
C153	C	0.695099	-0.470788	-0.000061
H154	H	0.716928	-0.508417	0.029124
H155	H	0.641778	-0.452199	0.044725
H156	H	0.671458	-0.474375	-0.074048
