data_functionalizedCrystal
_audit_creation_method	'MofGen! by Chris Wilmer'
_symmetry_space_group_name_H-M	'P1'
_symmetry_Int_Tables_number	1
_symmetry_cell_setting	triclinic
loop_
_symmetry_equiv_pos_as_xyz
  x,y,z
_cell_length_a	27.732048
_cell_length_b	27.731996
_cell_length_c	15.186229
_cell_angle_alpha	89.990305
_cell_angle_beta	90.002148
_cell_angle_gamma	82.632022
loop_
_atom_site_label
_atom_site_type_symbol
_atom_site_fract_x
_atom_site_fract_y
_atom_site_fract_z
O1	O	0.640916	0.057518	-0.073126
O2	O	1.140916	0.557518	0.426874
O3	O	0.500121	0.066264	-0.073155
O4	O	1.000121	0.566264	0.426845
O5	O	0.574904	-0.008508	-0.073121
O6	O	1.074904	0.491492	0.426879
O7	O	0.566132	0.132289	-0.073160
O8	O	1.066132	0.632289	0.426840
O9	O	0.574899	-0.008509	0.073337
O10	O	1.074899	0.491491	0.573337
O11	O	0.500116	0.066263	0.073303
O12	O	1.000116	0.566263	0.573303
O13	O	0.640911	0.057517	0.073331
O14	O	1.140911	0.557517	0.573331
Zn15	Zn	0.570512	0.061890	0.096570
Zn16	Zn	1.070512	0.561890	0.596570
Zn17	Zn	0.570519	0.061891	-0.096394
Zn18	Zn	1.070519	0.561891	0.403606
O19	O	0.566127	0.132288	0.073297
O20	O	1.066127	0.632288	0.573297
C21	C	0.482111	0.066079	0.000071
C22	C	0.982111	0.566079	0.500071
C23	C	0.428456	0.065527	0.000061
C24	C	0.928456	0.565527	0.500061
C25	C	0.574721	-0.026516	0.000111
C26	C	1.074721	0.473484	0.500111
C27	C	0.574179	-0.080172	0.000120
C28	C	1.074179	0.419828	0.500120
C29	C	0.089634	0.106231	0.000087
C30	C	0.589634	0.606231	0.500087
C31	C	-0.112026	0.104180	0.000096
C32	C	0.387974	0.604180	0.500096
O33	O	-0.143288	0.141402	0.000123
O34	O	0.356712	0.641402	0.500123
N35	N	-0.131141	0.059844	0.000107
N36	N	0.368859	0.559844	0.500107
C37	C	-0.099838	0.016017	0.000121
C38	C	0.400162	0.516017	0.500121
O39	O	-0.120724	-0.021740	0.000140
O40	O	0.379276	0.478260	0.500140
C41	C	0.101820	0.018069	0.000119
C42	C	0.601820	0.518069	0.500119
C43	C	0.120933	0.062408	0.000099
C44	C	0.620933	0.562408	0.500099
C45	C	0.108747	0.150567	0.000068
C46	C	0.608747	0.650567	0.500068
C47	C	0.159159	0.151079	0.000062
C48	C	0.659159	0.651079	0.500062
C49	C	0.190457	0.107256	0.000074
C50	C	0.690457	0.607256	0.500074
C51	C	0.171344	0.062920	0.000092
C52	C	0.671344	0.562920	0.500092
C53	C	0.133122	-0.025757	0.000140
C54	C	0.633122	0.474243	0.500140
C55	C	0.183539	-0.025240	0.000142
C56	C	0.683539	0.474760	0.500142
C57	C	0.202652	0.019099	0.000122
C58	C	0.702652	0.519099	0.500122
C59	C	0.253055	0.019609	0.000098
C60	C	0.753055	0.519609	0.500098
N61	N	0.272171	0.063946	0.000087
N62	N	0.772171	0.563946	0.500087
C63	C	0.240872	0.107769	0.000075
C64	C	0.740872	0.607769	0.500075
C65	C	-0.205712	0.014943	0.000121
C66	C	0.294288	0.514943	0.500121
C67	C	-0.256126	0.014430	0.000120
C68	C	0.243874	0.514430	0.500120
C69	C	-0.268310	0.102594	0.000096
C70	C	0.231690	0.602594	0.500096
C71	C	-0.217895	0.103106	0.000091
C72	C	0.282105	0.603106	0.500091
C73	C	-0.186597	0.059280	0.000110
C74	C	0.313403	0.559280	0.500110
C75	C	0.346741	0.108842	0.000059
C76	C	0.846741	0.608842	0.500059
C77	C	0.397158	0.109350	0.000049
C78	C	0.897158	0.609350	0.500049
C79	C	0.409337	0.021187	0.000077
C80	C	0.909337	0.521187	0.500077
C81	C	0.358925	0.020678	0.000083
C82	C	0.858925	0.520678	0.500083
C83	C	0.327627	0.064510	0.000077
C84	C	0.827627	0.564510	0.500077
O85	O	0.284346	-0.017592	0.000080
O86	O	0.784346	0.482408	0.500080
O87	O	0.261767	0.145521	0.000076
O88	O	0.761767	0.645521	0.500076
C89	C	0.039222	0.105719	0.000094
C90	C	0.539222	0.605719	0.500094
C91	C	0.020109	0.061384	0.000113
C92	C	0.520109	0.561384	0.500113
C93	C	0.051408	0.017560	0.000125
C94	C	0.551408	0.517560	0.500125
C95	C	-0.030305	0.060871	0.000112
C96	C	0.469695	0.560871	0.500112
C97	C	-0.061604	0.104694	0.000100
C98	C	0.438396	0.604694	0.500100
C99	C	-0.042489	0.149030	0.000089
C100	C	0.457511	0.649030	0.500089
C101	C	0.007923	0.149543	0.000082
C102	C	0.507923	0.649543	0.500082
C103	C	0.032292	-0.026776	0.000136
C104	C	0.532292	0.473224	0.500136
C105	C	-0.018120	-0.027285	0.000142
C106	C	0.481880	0.472715	0.500142
C107	C	-0.049419	0.016539	0.000130
C108	C	0.450581	0.516539	0.500130
C109	C	0.570767	-0.412888	-0.079758
C110	C	1.070767	0.087112	0.420242
C111	C	0.568706	-0.614546	-0.079774
C112	C	1.068706	-0.114546	0.420226
O113	O	0.568421	-0.640616	-0.147670
O114	O	1.068421	-0.140616	0.352330
N115	N	0.568447	-0.639764	0.000059
N116	N	1.068447	-0.139764	0.500059
C117	C	0.568700	-0.614563	0.079902
C118	C	1.068700	-0.114563	0.579902
O119	O	0.568428	-0.640639	0.147805
O120	O	1.068428	-0.140639	0.647805
C121	C	0.570758	-0.412905	0.079917
C122	C	1.070758	0.087095	0.579917
C123	C	0.571021	-0.387691	0.000079
C124	C	1.071021	0.112309	0.500079
C125	C	0.571030	-0.387673	-0.159589
C126	C	1.071030	0.112327	0.340411
C127	C	0.571547	-0.337262	-0.159585
C128	C	1.071547	0.162738	0.340415
C129	C	0.571802	-0.312065	-0.079748
C130	C	1.071802	0.187935	0.420252
C131	C	0.571539	-0.337280	0.000084
C132	C	1.071539	0.162720	0.500084
C133	C	0.571008	-0.387706	0.159759
C134	C	1.071008	0.112294	0.659759
C135	C	0.571521	-0.337288	0.159756
C136	C	1.071521	0.162712	0.659756
C137	C	0.571785	-0.312073	0.079917
C138	C	1.071785	0.187927	0.579917
C139	C	0.572312	-0.261672	0.079925
C140	C	1.072312	0.238328	0.579925
N141	N	0.572571	-0.236454	0.000092
N142	N	1.072571	0.263546	0.500092
C143	C	0.572316	-0.261651	-0.079745
C144	C	1.072316	0.238349	0.420255
C145	C	0.567621	-0.720437	0.079889
C146	C	1.067621	-0.220437	0.579889
C147	C	0.567107	-0.770851	0.079885
C148	C	1.067107	-0.270851	0.579885
C149	C	0.567112	-0.770830	-0.079791
C150	C	1.067112	-0.270830	0.420209
C151	C	0.567629	-0.720415	-0.079786
C152	C	1.067629	-0.220415	0.420214
C153	C	0.567880	-0.695219	0.000056
C154	C	1.067880	-0.195219	0.500056
C155	C	0.573404	-0.155784	-0.079729
C156	C	1.073404	0.344216	0.420271
C157	C	0.573924	-0.105369	-0.079717
C158	C	1.073924	0.394631	0.420283
C159	C	0.573917	-0.105394	0.079959
C160	C	1.073917	0.394606	0.579959
C161	C	0.573399	-0.155805	0.079948
C162	C	1.073399	0.344195	0.579948
C163	C	0.573141	-0.180999	0.000097
C164	C	1.073141	0.319001	0.500097
O165	O	0.572592	-0.235570	0.147786
O166	O	1.072592	0.264430	0.647786
O167	O	0.572577	-0.235565	-0.147637
O168	O	1.072577	0.264435	0.352363
C169	C	0.570249	-0.463299	-0.079762
C170	C	1.070249	0.036701	0.420238
C171	C	0.569986	-0.488513	0.000069
C172	C	1.069986	0.011487	0.500069
C173	C	0.570240	-0.463317	0.079906
C174	C	1.070240	0.036683	0.579906
C175	C	0.569472	-0.538928	0.000066
C176	C	1.069472	-0.038928	0.500066
C177	C	0.569217	-0.564124	-0.079771
C178	C	1.069217	-0.064124	0.420229
C179	C	0.569476	-0.538907	-0.159604
C180	C	1.069476	-0.038907	0.340396
C181	C	0.569994	-0.488496	-0.159599
C182	C	1.069994	0.011504	0.340401
C183	C	0.569982	-0.488534	0.159739
C184	C	1.069982	0.011466	0.659739
C185	C	0.569464	-0.538946	0.159728
C186	C	1.069464	-0.038946	0.659728
C187	C	0.569210	-0.564142	0.079891
C188	C	1.069210	-0.064142	0.579891
C189	C	0.658920	0.057701	0.000104
C190	C	1.158920	0.557701	0.500104
C191	C	0.712575	0.058254	0.000108
C192	C	1.212575	0.558254	0.500108
C193	C	0.566310	0.150296	0.000063
C194	C	1.066310	0.650296	0.500063
C195	C	0.566853	0.203952	0.000049
C196	C	1.066853	0.703952	0.500049
N197	N	0.570511	0.061888	0.228263
N198	N	1.070511	0.561888	0.728263
N199	N	0.570524	0.061888	-0.228086
N200	N	1.070524	0.561888	0.271914
C201	C	0.603637	0.028791	0.454001
C202	C	1.103637	0.528791	0.954001
C203	C	0.603638	0.028789	0.546190
C204	C	1.103638	0.528789	1.046190
C205	C	0.537395	0.094988	0.546169
C206	C	1.037395	0.594988	1.046169
C207	C	0.537391	0.094986	0.453981
C208	C	1.037391	0.594986	0.953981
C209	C	0.570515	0.061888	0.407899
C210	C	1.070515	0.561888	0.907899
C211	C	0.570520	0.061888	0.592277
C212	C	1.070520	0.561888	1.092277
C213	C	0.570521	0.061887	0.692233
C214	C	1.070521	0.561887	1.192233
C215	C	0.570513	0.061888	0.307937
C216	C	1.070513	0.561888	0.807937
H217	H	0.412716	0.145458	0.000032
H218	H	0.912716	0.645458	0.500032
Br219	Br	0.566761	-0.805066	0.188241
Br220	Br	1.066761	-0.305066	0.688241
H221	H	-0.293803	0.138276	0.000086
H222	H	0.206197	0.638276	0.500086
H223	H	0.630607	0.001839	0.416483
H224	H	1.130607	0.501839	0.916483
Br225	Br	0.569134	-0.573113	-0.267952
Br226	Br	1.069134	-0.073113	0.232048
H227	H	0.209021	-0.060930	0.000158
H228	H	0.709021	0.439070	0.500158
H229	H	0.630608	0.001838	0.583723
H230	H	1.130608	0.501838	1.083723
H231	H	-0.067981	0.184713	0.000076
H232	H	0.432019	0.684713	0.500076
H233	H	0.434830	-0.014493	0.000084
H234	H	0.934830	0.485507	0.500084
Br235	Br	0.074762	-0.086257	0.000156
Br236	Br	0.574762	0.413743	0.500156
H237	H	-0.271683	-0.021675	0.000122
H238	H	0.228317	0.478325	0.500122
Br239	Br	0.304273	0.168327	0.000053
Br240	Br	0.804273	0.668327	0.500053
H241	H	0.569254	-0.559472	0.224747
H242	H	1.069254	-0.059472	0.724747
Br243	Br	0.332985	-0.039497	0.000113
Br244	Br	0.832985	0.460503	0.500113
H245	H	0.510427	0.121936	0.583698
H246	H	1.010427	0.621936	1.083698
H247	H	0.571760	-0.316737	-0.224597
H248	H	1.071760	0.183263	0.275403
H249	H	0.570820	-0.408183	-0.224606
H250	H	1.070820	0.091817	0.275394
Br251	Br	0.492434	0.139904	0.391408
Br252	Br	0.992434	0.639904	0.891408
H253	H	0.083267	0.186255	0.000062
H254	H	0.583267	0.686255	0.500062
Br255	Br	0.185089	0.211257	0.000039
Br256	Br	0.685089	0.711257	0.500039
H257	H	0.570190	-0.468025	0.224753
H258	H	1.070190	0.031975	0.724753
H259	H	0.023479	0.185648	0.000067
H260	H	0.523479	0.685648	0.500067
Br261	Br	-0.163242	-0.044541	0.000147
Br262	Br	0.336758	0.455459	0.500147
H263	H	-0.202337	0.139211	0.000079
H264	H	0.297663	0.639211	0.500079
Br265	Br	-0.044051	-0.087465	0.000154
Br266	Br	0.455949	0.412535	0.500154
Br267	Br	0.574264	-0.071189	0.188303
Br268	Br	1.074264	0.428811	0.688303
H269	H	0.571718	-0.316774	0.224774
H270	H	1.071718	0.183226	0.724774
H271	H	0.117570	-0.061863	0.000157
H272	H	0.617570	0.438137	0.500157
H273	H	0.573189	-0.176336	0.144958
H274	H	1.073189	0.323664	0.644958
Br275	Br	0.574284	-0.071152	-0.188076
Br276	Br	1.074284	0.428848	0.311924
H277	H	0.573191	-0.176290	-0.144751
H278	H	1.073191	0.323710	0.355249
Br279	Br	0.570352	-0.454284	-0.267957
Br280	Br	1.070352	0.045716	0.232043
H281	H	0.567843	-0.699889	-0.144798
H282	H	1.067843	-0.199889	0.355202
H283	H	0.566905	-0.791354	-0.144797
H284	H	1.066905	-0.291354	0.355203
Br285	Br	0.567957	-0.686248	0.188257
Br286	Br	1.067957	-0.186248	0.688257
H287	H	0.570794	-0.408227	0.224772
H288	H	1.070794	0.091773	0.724772
