data_functionalizedCrystal
_audit_creation_method	'MofGen! by Chris Wilmer'
_symmetry_space_group_name_H-M	'P1'
_symmetry_Int_Tables_number	1
_symmetry_cell_setting	triclinic
loop_
_symmetry_equiv_pos_as_xyz
  x,y,z
_cell_length_a	14.908571
_cell_length_b	14.908178
_cell_length_c	14.908308
_cell_angle_alpha	89.778379
_cell_angle_beta	90.175053
_cell_angle_gamma	89.820760
loop_
_atom_site_label
_atom_site_type_symbol
_atom_site_fract_x
_atom_site_fract_y
_atom_site_fract_z
Zn1	Zn	1.319970	-0.467728	-0.559107
Zn2	Zn	1.320875	-0.609493	-0.400117
Zn3	Zn	1.179218	-0.450513	-0.401153
Zn4	Zn	1.161960	-0.608428	-0.541833
O5	O	1.245506	-0.534041	-0.475552
O6	O	1.445502	-0.494184	-0.544812
O7	O	1.309684	-0.581645	-0.274841
O8	O	1.204733	-0.327380	-0.429768
O9	O	1.446167	-0.598338	-0.428003
O10	O	1.308143	-0.340028	-0.545817
O11	O	1.205610	-0.464843	-0.275602
O12	O	1.051517	-0.463811	-0.413019
O13	O	1.175320	-0.596523	-0.669538
O14	O	1.038838	-0.579830	-0.516376
O15	O	1.291409	-0.493151	-0.682229
O16	O	1.292951	-0.734769	-0.411253
O17	O	1.176197	-0.733987	-0.515371
C18	C	1.012659	-0.519838	-0.462936
C19	C	0.913044	-0.513784	-0.457558
C20	C	1.232822	-0.766900	-0.461346
C21	C	1.227476	-0.866524	-0.455303
C22	C	0.712702	-0.623390	-0.554915
C23	C	0.619104	-0.617705	-0.549865
C24	C	0.632249	-0.496726	-0.442415
C25	C	0.725847	-0.502411	-0.447465
C26	C	0.766070	-0.565746	-0.503715
C27	C	0.859669	-0.571434	-0.508760
C28	C	0.872812	-0.450452	-0.401315
C29	C	0.779214	-0.444767	-0.396265
C30	C	1.325018	-1.066751	-0.564907
C31	C	1.319998	-1.160358	-0.559232
C32	C	1.212412	-1.147346	-0.438283
C33	C	1.217432	-1.053739	-0.443958
C34	C	1.273738	-1.013445	-0.507271
C35	C	1.278762	-0.919837	-0.512941
C36	C	1.171172	-0.906827	-0.391998
C37	C	1.166152	-1.000433	-0.386323
C38	C	1.479261	-0.548300	-0.488219
C39	C	1.578874	-0.554376	-0.493616
C40	C	1.231338	-0.546639	-0.709311
C41	C	1.225301	-0.552007	-0.808925
C42	C	1.258262	-0.300275	-0.489835
C43	C	1.263698	-0.200658	-0.495921
C44	C	1.334839	-0.454433	-1.009328
C45	C	1.329169	-0.459475	-1.102924
C46	C	1.208289	-0.567126	-1.089716
C47	C	1.213958	-0.562085	-0.996119
C48	C	1.277237	-0.505737	-0.955929
C49	C	1.282910	-0.500701	-0.862330
C50	C	1.162026	-0.608347	-0.849124
C51	C	1.156356	-0.613389	-0.942720
C52	C	1.259673	-0.521430	-0.242710
C53	C	1.265897	-0.515820	-0.143122
H54	H	0.892417	-0.623006	-0.554560
H55	H	0.745452	-0.674964	-0.600711
H56	H	1.166567	-1.180169	-0.386741
H57	H	0.916275	-0.403516	-0.359622
H58	H	1.129419	-0.863414	-0.345064
O59	O	1.111406	-1.039682	-0.324938
C60	C	1.047465	-1.093057	-0.369486
H61	H	1.074141	-1.112606	-0.438297
H62	H	1.034171	-1.156210	-0.328329
H63	H	0.982379	-1.053517	-0.377852
H64	H	1.361750	-1.203756	-0.606169
O65	O	1.385030	-0.409669	-1.154928
C66	C	1.366475	-0.426215	-1.246158
H67	H	1.294939	-0.452045	-1.253404
H68	H	1.374055	-0.361368	-1.286157
H69	H	1.415425	-0.478610	-1.272685
O70	O	1.106191	-0.658234	-0.797160
C71	C	1.157336	-0.716335	-0.742269
H72	H	1.227826	-0.688109	-0.733851
H73	H	1.124162	-0.722582	-0.673743
H74	H	1.161379	-0.785292	-0.774824
H75	H	0.575655	-0.664643	-0.591559
O76	O	1.344282	-0.445834	-0.823331
C77	C	1.328186	-0.356552	-0.850616
H78	H	1.255276	-0.349055	-0.872742
H79	H	1.342047	-0.309425	-0.792188
H80	H	1.374217	-0.338978	-0.908981
O81	O	0.593023	-0.435256	-0.387827
C82	C	0.498967	-0.442570	-0.394391
H83	H	0.480654	-0.512594	-0.418683
H84	H	0.467761	-0.430561	-0.325747
H85	H	0.472431	-0.390472	-0.444050
O86	O	1.396331	-0.399630	-0.970426
C87	C	1.445979	-0.355450	-1.037629
H88	H	1.405400	-0.353698	-1.102550
H89	H	1.461032	-0.283963	-1.015414
H90	H	1.511649	-0.392960	-1.049264
O91	O	1.146891	-0.621826	-1.128910
C92	C	1.154218	-0.615242	-1.222971
H93	H	1.224212	-0.590808	-1.241292
H94	H	1.142305	-0.683911	-1.254128
H95	H	1.102064	-0.565687	-1.249554
O96	O	1.379589	-1.027498	-0.626444
C97	C	1.327910	-0.973396	-0.684812
H98	H	1.262684	-0.953609	-0.650315
H99	H	1.367204	-0.910404	-0.702819
H100	H	1.312054	-1.012426	-0.748499
O101	O	0.740094	-0.383367	-0.341523
C102	C	0.686662	-0.427892	-0.277547
H103	H	0.711374	-0.499882	-0.269114
H104	H	0.691522	-0.391594	-0.210553
H105	H	0.613886	-0.428205	-0.301240
O106	O	1.333330	-0.880588	-0.574485
C107	C	1.281645	-0.826486	-0.632848
H108	H	1.216426	-0.806693	-0.598342
H109	H	1.320940	-0.763497	-0.650864
H110	H	1.265778	-0.865518	-0.696531
O111	O	1.095013	-0.668227	-0.981808
C112	C	1.139602	-0.732121	-1.035197
H113	H	1.211595	-0.740437	-1.010477
H114	H	1.103367	-0.799177	-1.030294
H115	H	1.139901	-0.708416	-1.107991
