data_functionalizedCrystal
_audit_creation_method	'MofGen! by Chris Wilmer'
_symmetry_space_group_name_H-M	'P1'
_symmetry_Int_Tables_number	1
_symmetry_cell_setting	triclinic
loop_
_symmetry_equiv_pos_as_xyz
  x,y,z
_cell_length_a	18.215407
_cell_length_b	12.594516
_cell_length_c	18.215399
_cell_angle_alpha	89.977894
_cell_angle_beta	89.980167
_cell_angle_gamma	90.016501
loop_
_atom_site_label
_atom_site_type_symbol
_atom_site_fract_x
_atom_site_fract_y
_atom_site_fract_z
Zn1	Zn	1.125117	-0.423740	-0.416146
Zn2	Zn	1.125045	-0.601738	-0.293092
Zn3	Zn	1.002050	-0.423775	-0.293093
Zn4	Zn	1.002035	-0.601679	-0.416117
O5	O	1.063561	-0.512733	-0.354612
O6	O	1.228092	-0.447362	-0.399834
O7	O	1.108705	-0.578170	-0.190108
O8	O	1.018412	-0.274825	-0.309429
O9	O	1.228038	-0.578136	-0.309427
O10	O	1.108829	-0.274799	-0.399835
O11	O	1.018341	-0.447422	-0.190109
O12	O	0.899063	-0.447364	-0.309401
O13	O	1.018386	-0.578035	-0.519105
O14	O	0.899052	-0.578069	-0.399786
O15	O	1.108814	-0.447305	-0.519126
O16	O	1.108690	-0.750676	-0.309399
O17	O	1.018315	-0.750632	-0.399785
C18	C	0.872355	-0.512715	-0.354591
C19	C	0.790556	-0.512733	-0.354599
C20	C	0.602376	-0.580898	-0.401604
C21	C	0.525517	-0.580901	-0.401613
C22	C	0.525499	-0.444588	-0.307636
C23	C	0.602356	-0.444580	-0.307631
C24	C	0.640793	-0.512741	-0.354614
C25	C	0.487077	-0.512752	-0.354628
C26	C	0.403743	-0.512755	-0.354638
C27	C	0.724132	-0.512737	-0.354606
C28	C	1.063513	-0.789274	-0.354605
C29	C	1.063560	-0.907579	-0.354626
C30	C	1.014400	-0.976847	-0.403753
C31	C	0.996471	-1.047706	-0.336600
C32	C	1.081556	-1.047520	-0.421791
C33	C	1.045595	-0.976880	-0.287438
C34	C	1.130712	-0.976687	-0.372674
C35	C	1.112808	-1.047514	-0.305475
C36	C	1.255514	-0.512752	-0.354634
C37	C	1.337313	-0.512760	-0.354643
C38	C	1.063606	-0.512660	-0.546565
C39	C	1.063625	-0.512628	-0.628364
C40	C	1.063630	-0.235112	-0.354635
C41	C	1.063659	-0.116807	-0.354645
C42	C	1.110728	-0.444493	-0.816570
C43	C	1.110737	-0.444462	-0.893429
C44	C	1.016575	-0.580599	-0.893396
C45	C	1.016563	-0.580624	-0.816538
C46	C	1.063644	-0.512572	-0.778127
C47	C	1.063664	-0.512517	-0.931844
C48	C	1.063674	-0.512483	-1.015177
C49	C	1.063634	-0.512604	-0.694788
C50	C	1.063559	-0.512729	-0.163406
C51	C	1.063683	-0.512461	-0.081607
H52	H	0.494195	-0.389095	-0.269384
H53	H	1.149077	-0.389024	-0.924726
H54	H	1.187442	-0.945472	-0.387956
O55	O	1.027382	-0.939846	-0.219717
C56	C	1.027537	-0.827904	-0.220528
H57	H	1.019305	-0.798570	-0.279163
H58	H	0.981119	-0.797085	-0.184359
H59	H	1.082309	-0.797536	-0.198718
O60	O	0.639566	-0.378335	-0.261912
C61	C	0.589162	-0.318164	-0.220454
H62	H	0.534367	-0.361759	-0.217856
H63	H	0.611350	-0.306702	-0.162483
H64	H	0.581011	-0.237376	-0.247496
H65	H	1.149063	-0.389079	-0.785298
H66	H	0.978244	-0.636006	-0.924679
H67	H	0.978215	-0.636061	-0.785237
H68	H	0.972753	-0.945818	-0.445237
O69	O	0.639600	-0.647132	-0.447315
C70	C	0.589207	-0.707306	-0.488779
H71	H	0.534428	-0.663719	-0.491377
H72	H	0.611434	-0.718758	-0.546750
H73	H	0.581010	-0.788098	-0.461742
H74	H	0.494241	-0.636400	-0.439878
H75	H	0.939728	-1.078924	-0.321350
O76	O	1.162372	-1.084258	-0.255769
C77	C	1.143188	-1.048049	-0.185088
H78	H	1.082122	-1.028373	-0.183631
H79	H	1.155594	-1.112652	-0.143035
H80	H	1.176334	-0.973844	-0.171444
H81	H	1.096738	-1.078549	-0.478583
