data_functionalizedCrystal
_audit_creation_method	'MofGen! by Chris Wilmer'
_symmetry_space_group_name_H-M	'P1'
_symmetry_Int_Tables_number	1
_symmetry_cell_setting	triclinic
loop_
_symmetry_equiv_pos_as_xyz
  x,y,z
_cell_length_a	13.032831
_cell_length_b	16.120484
_cell_length_c	13.033429
_cell_angle_alpha	94.699356
_cell_angle_beta	90.908563
_cell_angle_gamma	86.078521
loop_
_atom_site_label
_atom_site_type_symbol
_atom_site_fract_x
_atom_site_fract_y
_atom_site_fract_z
Zn1	Zn	1.470316	-0.399691	0.802657
Zn2	Zn	1.480945	-0.556769	0.639226
Zn3	Zn	1.319846	-0.404080	0.609126
Zn4	Zn	1.289645	-0.522271	0.787480
O5	O	1.390188	-0.470703	0.709622
O6	O	1.614758	-0.433128	0.799926
O7	O	1.476663	-0.552790	0.492195
O8	O	1.347997	-0.288297	0.628554
O9	O	1.622567	-0.548533	0.679854
O10	O	1.458547	-0.285072	0.770740
O11	O	1.358304	-0.440610	0.470081
O12	O	1.172808	-0.407158	0.613837
O13	O	1.296523	-0.489736	0.932532
O14	O	1.150619	-0.493992	0.744873
O15	O	1.429262	-0.399676	0.943682
O16	O	1.447377	-0.667394	0.665137
O17	O	1.306830	-0.642048	0.774059
C18	C	1.124626	-0.447308	0.674442
C19	C	1.011014	-0.437317	0.659417
C20	C	1.375005	-0.684592	0.721243
C21	C	1.368599	-0.776099	0.726261
C22	C	0.949416	-0.475917	0.717464
C23	C	0.831991	-0.465592	0.701936
C24	C	1.356907	-0.943642	0.735445
C25	C	1.423650	-0.996937	0.683841
C26	C	1.417145	-1.090164	0.688951
C27	C	1.363411	-0.850406	0.730336
C28	C	1.656786	-0.494189	0.744941
C29	C	1.770395	-0.504198	0.759991
C30	C	1.358338	-0.440368	0.976232
C31	C	1.344765	-0.427441	1.089846
C32	C	1.405456	-0.255979	0.697982
C33	C	1.411962	-0.164476	0.693022
C34	C	1.421977	-0.500865	0.444054
C35	C	1.435764	-0.513578	0.330455
C36	C	1.383254	-0.463835	1.268862
C37	C	1.397283	-0.477191	1.151437
H38	H	0.983613	-0.516605	0.778659
H39	H	0.804585	-0.544887	0.821193
C40	C	0.786369	-0.411484	0.620199
C41	C	0.729623	-0.460140	0.549058
C42	C	0.687595	-0.410331	0.473737
H43	H	0.742511	-0.367555	0.651815
H44	H	0.840221	-0.388629	0.585732
H45	H	0.675778	-0.482981	0.583521
H46	H	0.773459	-0.504067	0.517416
H47	H	0.741447	-0.387477	0.439270
H48	H	0.643741	-0.366405	0.505362
H49	H	0.649096	-0.443339	0.425454
H50	H	1.491109	-0.566049	1.296254
H51	H	1.327917	-0.411358	1.303065
H52	H	1.289425	-0.374959	1.124042
C53	C	0.965387	-0.383212	0.577684
C54	C	0.908641	-0.431868	0.506543
C55	C	0.866613	-0.382059	0.431222
H56	H	0.921529	-0.339283	0.609300
H57	H	1.019239	-0.360357	0.543217
H58	H	0.854796	-0.454709	0.541006
H59	H	0.952477	-0.475795	0.474901
H60	H	0.920465	-0.359205	0.396755
H61	H	0.822759	-0.338133	0.462848
H62	H	0.828114	-0.415067	0.382939
C63	C	1.506245	-0.964262	0.619820
C64	C	1.496333	-0.876949	0.627380
C65	C	1.572385	-0.846816	0.568405
H66	H	1.572220	-0.982499	0.644608
H67	H	1.498570	-0.984804	0.549887
H68	H	1.504017	-0.856415	0.697298
H69	H	1.430375	-0.858690	0.602585
H70	H	1.564710	-0.867358	0.498473
H71	H	1.638354	-0.865059	0.593198
H72	H	1.565665	-0.787572	0.573519
C73	C	1.274239	-0.976320	0.799360
C74	C	1.284122	-1.063635	0.791746
C75	C	1.207977	-1.093777	0.850595
H76	H	1.281811	-0.955827	0.869309
H77	H	1.208304	-0.958041	0.774479
H78	H	1.350041	-1.081905	0.816632
H79	H	1.276539	-1.084150	0.721811
H80	H	1.142042	-1.075499	0.825713
H81	H	1.215555	-1.073279	0.920540
H82	H	1.214666	-1.153023	0.845429
C83	C	1.470993	-0.547147	1.105649
C84	C	1.470228	-0.546505	0.998281
C85	C	1.538104	-0.610941	0.956065
H86	H	1.538509	-0.539250	1.131429
H87	H	1.450026	-0.599195	1.124051
H88	H	1.491200	-0.494469	0.979888
H89	H	1.402729	-0.554412	0.972473
H90	H	1.517137	-0.662989	0.974467
H91	H	1.605615	-0.603038	0.981853
H92	H	1.537587	-0.610518	0.883212
