data_functionalizedCrystal
_audit_creation_method	'MofGen! by Chris Wilmer'
_symmetry_space_group_name_H-M	'P1'
_symmetry_Int_Tables_number	1
_symmetry_cell_setting	triclinic
loop_
_symmetry_equiv_pos_as_xyz
  x,y,z
_cell_length_a	15.944551
_cell_length_b	15.944551
_cell_length_c	14.421503
_cell_angle_alpha	90.000609
_cell_angle_beta	90.011571
_cell_angle_gamma	83.498738
loop_
_atom_site_label
_atom_site_type_symbol
_atom_site_fract_x
_atom_site_fract_y
_atom_site_fract_z
O1	O	-1.114511	-0.108326	0.077017
O2	O	-0.869961	-0.121682	0.077040
O3	O	-0.998914	0.007271	0.077020
O4	O	-0.985558	-0.237279	0.077038
O5	O	-0.998930	0.007262	-0.077204
O6	O	-0.869977	-0.121690	-0.077183
O7	O	-1.114526	-0.108334	-0.077206
Cu8	Cu	-0.992253	-0.115013	-0.091277
Cu9	Cu	-0.992235	-0.115003	0.091110
O10	O	-0.985574	-0.237287	-0.077186
C11	C	-0.838675	-0.121132	-0.000069
C12	C	-0.745429	-0.119470	-0.000060
C13	C	-0.998367	0.038561	-0.000092
C14	C	-0.996705	0.131807	-0.000093
N15	N	-0.992272	-0.115020	-0.219558
C16	C	-1.145813	-0.108885	-0.000096
C17	C	-1.239059	-0.110547	-0.000098
C18	C	-0.530572	-0.035565	-0.000084
C19	C	-0.469544	-0.074523	0.075959
C20	C	-0.574703	-0.116462	-0.000071
C21	C	-0.469582	-0.074551	-0.076093
C22	C	-0.409790	-0.113551	-0.000086
C23	C	-0.514903	-0.155443	0.076035
C24	C	-0.514947	-0.155459	-0.076086
C25	C	-0.453937	-0.194476	-0.000024
C26	C	-0.669705	-0.118137	-0.000062
C27	C	-0.314789	-0.111883	-0.000089
C28	C	-0.986120	-0.268577	-0.000072
C29	C	-0.987782	-0.361823	-0.000066
C30	C	-0.912801	0.346663	-0.000072
C31	C	-0.951771	0.407676	-0.076117
C32	C	-0.993698	0.302533	-0.000085
C33	C	-0.951775	0.407668	0.075935
C34	C	-0.990787	0.467445	-0.000074
C35	C	-1.032690	0.362317	-0.076193
C36	C	-1.032682	0.362303	0.075927
C37	C	-1.071711	0.423298	-0.000136
C38	C	-0.995372	0.207530	-0.000092
C39	C	-0.989119	0.562446	-0.000073
C40	C	-1.051913	-0.055379	-0.469196
C41	C	-0.976013	-0.039061	-0.530987
C42	C	-0.992253	-0.115009	-0.408719
C43	C	-1.068135	-0.131278	-0.531022
C44	C	-0.992242	-0.114998	-0.591441
C45	C	-0.916316	-0.098655	-0.469149
C46	C	-1.008487	-0.190904	-0.469179
C47	C	-0.932533	-0.174619	-0.530942
C48	C	-0.992261	-0.115014	-0.303458
C49	C	-0.992226	-0.114994	-0.696700
N50	N	-0.992222	-0.114990	0.219392
H51	H	-0.449428	-0.040304	0.140243
H52	H	-1.138919	0.456457	-0.000186
H53	H	-1.066863	0.342176	0.140214
O54	O	-0.910823	0.431522	0.152606
C55	C	-0.780749	0.419295	0.239207
C56	C	-0.827038	0.392202	0.152357
H57	H	-0.712996	0.387531	0.239024
H58	H	-0.814509	0.399708	0.304038
H59	H	-0.780464	0.490760	0.238825
H60	H	-0.827337	0.320741	0.152649
H61	H	-0.793263	0.411851	0.087565
O62	O	-1.111949	0.004920	-0.436885
C63	C	-1.162654	0.153069	-0.431768
C64	C	-1.094604	0.084870	-0.468406
H65	H	-1.148665	0.217723	-0.457254
H66	H	-1.162503	0.152172	-0.352723
H67	H	-1.227215	0.139789	-0.458259
H68	H	-1.030010	0.098104	-0.441984
H69	H	-1.094830	0.085784	-0.547450
H70	H	-0.534885	-0.189630	0.140394
H71	H	-1.022253	-0.255071	-0.442009
O72	O	-0.839675	-0.082165	-0.437028
C73	C	-0.699278	-0.051856	-0.476026
C74	C	-0.786022	-0.070545	-0.512530
H75	H	-0.655881	-0.042439	-0.537051
H76	H	-0.670374	-0.107116	-0.432004
H77	H	-0.707384	0.007887	-0.431985
H78	H	-0.777989	-0.130262	-0.556610
H79	H	-0.814896	-0.015238	-0.556501
O80	O	-0.539122	-0.196259	-0.152705
C81	C	-0.654611	-0.244086	-0.238112
C82	C	-0.627343	-0.197890	-0.151282
H83	H	-0.725941	-0.245405	-0.237000
H84	H	-0.621915	-0.311480	-0.238778
H85	H	-0.636160	-0.209519	-0.302881
H86	H	-0.645789	-0.232387	-0.086466
H87	H	-0.660032	-0.130494	-0.150698
H88	H	-0.962272	0.025125	-0.558137
O89	O	-0.872214	-0.234788	-0.562937
C90	C	-0.761388	-0.344587	-0.523709
C91	C	-0.829657	-0.276469	-0.487347
H92	H	-0.726974	-0.378317	-0.462614
H93	H	-0.714355	-0.313706	-0.568166
H94	H	-0.792343	-0.392207	-0.567279
H95	H	-0.798776	-0.228828	-0.443739
H96	H	-0.876683	-0.307409	-0.442941
O97	O	-1.144729	-0.147783	-0.563270
C98	C	-1.285461	-0.177183	-0.524478
C99	C	-1.198754	-0.158506	-0.487849
H100	H	-1.329170	-0.185840	-0.463519
H101	H	-1.277499	-0.237296	-0.567916
H102	H	-1.313921	-0.122173	-0.569128
H103	H	-1.170245	-0.213464	-0.443160
H104	H	-1.206770	-0.098364	-0.444462
O105	O	-0.570282	0.044551	0.000164
C106	C	-0.592295	0.177695	0.080588
C107	C	-0.547282	0.086984	0.080426
H108	H	-0.573702	0.212034	0.145463
H109	H	-0.663544	0.175725	0.079988
H110	H	-0.572918	0.212500	0.016386
H111	H	-0.566590	0.052127	0.144617
H112	H	-0.476042	0.089015	0.080978
O113	O	-0.414410	-0.274665	0.000192
C114	C	-0.392721	-0.407870	0.080533
C115	C	-0.437525	-0.317075	0.080410
H116	H	-0.411406	-0.442190	0.145373
H117	H	-0.321448	-0.406075	0.079977
H118	H	-0.412185	-0.442581	0.016295
H119	H	-0.418129	-0.282310	0.144638
H120	H	-0.508789	-0.318931	0.080918
H121	H	-0.917561	0.427781	-0.140401
O122	O	-0.445739	-0.033610	-0.152761
C123	C	-0.457973	0.096454	-0.239352
C124	C	-0.485056	0.050176	-0.152507
H125	H	-0.489734	0.164208	-0.239166
H126	H	-0.477568	0.062688	-0.304187
H127	H	-0.386507	0.096738	-0.238964
H128	H	-0.556517	0.049879	-0.152805
H129	H	-0.465398	0.083957	-0.087712
H130	H	-0.845652	0.313356	-0.000141
H131	H	-1.066884	0.342324	-0.140554
