data_functionalizedCrystal
_audit_creation_method	'MofGen! by Chris Wilmer'
_symmetry_space_group_name_H-M	'P1'
_symmetry_Int_Tables_number	1
_symmetry_cell_setting	triclinic
loop_
_symmetry_equiv_pos_as_xyz
  x,y,z
_cell_length_a	10.968094
_cell_length_b	10.654549
_cell_length_c	10.065875
_cell_angle_alpha	98.875874
_cell_angle_beta	93.118877
_cell_angle_gamma	84.600223
loop_
_atom_site_label
_atom_site_type_symbol
_atom_site_fract_x
_atom_site_fract_y
_atom_site_fract_z
O1	O	1.614696	0.219042	0.266228
O2	O	1.264687	0.222637	0.183916
O3	O	1.447735	0.038405	0.226969
O4	O	1.431648	0.403274	0.223175
O5	O	1.412831	0.073683	0.445748
O6	O	1.229783	0.257915	0.402696
O7	O	1.579792	0.254320	0.485007
Zn8	Zn	1.399246	0.261719	0.478587
Zn9	Zn	1.445233	0.215238	0.190336
O10	O	1.396744	0.438552	0.441955
C11	C	1.202418	0.237351	0.282766
C12	C	1.068877	0.228618	0.251361
C13	C	0.853232	0.233961	0.318227
C14	C	0.991250	0.242997	0.350699
C15	C	1.429101	0.009201	0.336079
C16	C	1.425563	-0.130376	0.335243
C17	C	1.637805	-0.412348	0.385163
C18	C	1.748912	-0.356617	0.411295
C19	C	1.752241	-0.225474	0.412076
C20	C	1.644450	-0.150057	0.386726
C21	C	1.533342	-0.205788	0.360594
C22	C	1.530026	-0.336936	0.359811
C23	C	1.314456	-0.186107	0.309110
C24	C	1.311126	-0.317252	0.308319
C25	C	1.206665	-0.110690	0.283761
C26	C	1.095556	-0.166422	0.257619
C27	C	1.092232	-0.297574	0.256837
C28	C	1.200019	-0.372983	0.282187
C29	C	1.642062	0.239606	0.386154
C30	C	1.775604	0.248337	0.417551
C31	C	1.415379	0.467756	0.332842
C32	C	1.418917	0.607331	0.333669
N33	N	1.367870	0.293440	0.675313
N34	N	1.476618	0.183508	-0.006388
C35	C	1.434309	0.226267	0.758719
C36	C	1.410170	0.250691	0.910208
H37	H	0.811324	0.267329	0.526625
H38	H	1.197324	-0.479769	0.281546
H39	H	1.335410	0.326282	0.950946
H40	H	1.007800	-0.105007	0.236990
C41	C	1.266868	0.395542	0.730333
H42	H	1.228305	0.434508	0.658359
H43	H	1.302186	0.458376	0.794385
H44	H	1.207778	0.356716	0.772178
C45	C	1.634144	-0.556604	0.384288
H46	H	1.552538	-0.578996	0.365084
H47	H	1.661644	-0.577618	0.469905
H48	H	1.685984	-0.602200	0.317308
C49	C	0.804994	0.208316	0.170872
H50	H	0.871594	0.200466	0.112768
H51	H	0.748260	0.277114	0.152464
H52	H	0.765385	0.131530	0.156469
H53	H	1.509056	0.150671	0.717975
H54	H	1.551370	0.107907	0.952873
H55	H	1.842713	-0.180098	0.433361
C56	C	1.039485	0.268665	0.498058
H57	H	1.125920	0.271381	0.500552
H58	H	1.019716	0.202447	0.544285
H59	H	1.002590	0.348025	0.540242
H60	H	1.647167	-0.043271	0.387380
C61	C	0.970014	-0.358875	0.228094
H62	H	0.983463	-0.447780	0.231265
H63	H	0.937759	-0.345633	0.141356
H64	H	0.913422	-0.321035	0.293953
C65	C	1.867474	-0.439577	0.439172
H66	H	1.849587	-0.525666	0.434953
H67	H	1.900819	-0.409829	0.526169
H68	H	1.925158	-0.434428	0.373571
C69	C	1.020651	0.202946	0.103998
H70	H	1.087254	0.195089	0.045897
H71	H	0.963912	0.271733	0.085569
H72	H	0.981050	0.126156	0.089613
H73	H	1.209381	-0.003906	0.284406
