data_functionalizedCrystal
_audit_creation_method	'MofGen! by Chris Wilmer'
_symmetry_space_group_name_H-M	'P1'
_symmetry_Int_Tables_number	1
_symmetry_cell_setting	triclinic
loop_
_symmetry_equiv_pos_as_xyz
  x,y,z
_cell_length_a	11.792241
_cell_length_b	14.472311
_cell_length_c	11.792241
_cell_angle_alpha	89.990191
_cell_angle_beta	95.806584
_cell_angle_gamma	89.999892
loop_
_atom_site_label
_atom_site_type_symbol
_atom_site_fract_x
_atom_site_fract_y
_atom_site_fract_z
O1	O	1.506907	0.076752	-0.155576
O2	O	2.006907	0.576752	0.344424
O3	O	1.176566	0.076773	-0.171609
O4	O	1.676566	0.576773	0.328391
O5	O	1.349753	0.076755	0.001578
O6	O	1.849753	0.576755	0.501578
O7	O	1.333720	0.076769	-0.328763
O8	O	1.833720	0.576769	0.171237
O9	O	1.349741	-0.076927	0.001600
O10	O	1.849741	0.423073	0.501600
O11	O	1.176554	-0.076909	-0.171587
O12	O	1.676554	0.423091	0.328413
O13	O	1.506895	-0.076930	-0.155554
O14	O	2.006895	0.423070	0.344446
Cu15	Cu	1.341724	-0.090952	-0.163569
Cu16	Cu	1.841724	0.409048	0.336431
Cu17	Cu	1.341738	0.090795	-0.163595
Cu18	Cu	1.841738	0.590795	0.336405
O19	O	1.333708	-0.076913	-0.328741
O20	O	1.833708	0.423087	0.171259
C21	C	1.134269	-0.000065	-0.170591
C22	C	1.634269	0.499935	0.329409
C23	C	1.008255	-0.000057	-0.167576
C24	C	1.508255	0.499943	0.332424
N25	N	1.341722	-0.218783	-0.163550
N26	N	1.841722	0.281217	0.336450
C27	C	0.777543	-0.000084	-0.162034
C28	C	1.277543	0.499916	0.337966
C29	C	0.905928	-0.000069	-0.165113
C30	C	1.405928	0.499931	0.334887
C31	C	1.341739	-0.592874	-0.163586
C32	C	1.841739	-0.092874	0.336414
C33	C	1.434712	-0.553689	-0.071231
C34	C	1.934712	-0.053689	0.428769
C35	C	1.434466	-0.446601	-0.070887
C36	C	1.934466	0.053399	0.429113
C37	C	1.341731	-0.407283	-0.163568
C38	C	1.841731	0.092717	0.336432
C39	C	1.223154	-0.446167	-0.136974
C40	C	1.723154	0.053833	0.363026
C41	C	1.223704	-0.553289	-0.136320
C42	C	1.723704	-0.053289	0.363680
C43	C	1.366277	-0.553376	-0.282803
C44	C	1.866277	-0.053376	0.217197
C45	C	1.368961	-0.446248	-0.282022
C46	C	1.868961	0.053752	0.217978
C47	C	1.341720	-0.302395	-0.163560
C48	C	1.841720	0.197605	0.336440
C49	C	1.341743	-0.697762	-0.163592
C50	C	1.841743	-0.197762	0.336408
C51	C	1.549192	-0.000090	-0.156572
C52	C	2.049192	0.499910	0.343428
C53	C	1.675206	-0.000092	-0.159587
C54	C	2.175206	0.499908	0.340413
C55	C	1.348740	-0.000085	0.043880
C56	C	1.848740	0.499915	0.543880
C57	C	1.345726	-0.000084	0.169894
C58	C	1.845726	0.499916	0.669894
N59	N	1.341749	0.218626	-0.163604
N60	N	1.841749	0.718626	0.336396
C61	C	1.334721	-0.000070	-0.371043
C62	C	1.834721	0.499930	0.128957
C63	C	1.337736	-0.000065	-0.497057
C64	C	1.837736	0.499935	0.002943
C65	C	1.340183	-0.000068	0.400606
C66	C	1.840183	0.499932	0.900606
C67	C	1.343262	-0.000077	0.272221
C68	C	1.843262	0.499923	0.772221
H69	H	1.522586	-0.420311	-0.086830
H70	H	2.022586	0.079689	0.413170
O71	O	1.285135	-0.410820	-0.377405
O72	O	1.785135	0.089180	0.122595
H73	H	1.222474	-0.364685	-0.341712
H74	H	1.722474	0.135315	0.158288
H75	H	1.152272	-0.420700	-0.202420
H76	H	1.652272	0.079300	0.297580
O77	O	1.551835	-0.587802	-0.092011
O78	O	2.051835	-0.087802	0.407989
H79	H	1.545038	-0.633056	-0.168381
H80	H	2.045038	-0.133056	0.331619
H81	H	1.201129	-0.419350	-0.050994
H82	H	1.701129	0.080650	0.449006
O83	O	1.414150	-0.589350	0.045283
O84	O	1.914150	-0.089350	0.545283
H85	H	1.337997	-0.634859	0.037701
H86	H	1.837997	-0.134859	0.537701
O87	O	1.413583	-0.412658	0.046276
O88	O	1.913583	0.087342	0.546276
H89	H	1.403609	-0.472756	0.102908
H90	H	1.903609	0.027244	0.602908
H91	H	1.298488	-0.578721	-0.351541
H92	H	1.798488	-0.078721	0.148459
H93	H	1.202188	-0.578286	-0.049354
H94	H	1.702188	-0.078286	0.450646
O95	O	1.129234	-0.587638	-0.221947
O96	O	1.629234	-0.087638	0.278053
H97	H	1.083356	-0.527735	-0.263635
H98	H	1.583356	-0.027735	0.236365
O99	O	1.478427	-0.589140	-0.316413
O100	O	1.978427	-0.089140	0.183587
H101	H	1.475446	-0.665697	-0.321489
H102	H	1.975446	-0.165697	0.178511
H103	H	1.456194	-0.420834	-0.302185
H104	H	1.956194	0.079166	0.197815
