data_functionalizedCrystal
_audit_creation_method	'MofGen! by Chris Wilmer'
_symmetry_space_group_name_H-M	'P1'
_symmetry_Int_Tables_number	1
_symmetry_cell_setting	triclinic
loop_
_symmetry_equiv_pos_as_xyz
  x,y,z
_cell_length_a	19.377372
_cell_length_b	14.560438
_cell_length_c	14.560438
_cell_angle_alpha	60.000905
_cell_angle_beta	90.000766
_cell_angle_gamma	72.112912
loop_
_atom_site_label
_atom_site_type_symbol
_atom_site_fract_x
_atom_site_fract_y
_atom_site_fract_z
Zr1	Zr	0.580559	1.278712	-0.257226
O2	O	0.484330	1.424992	-0.381209
O3	O	0.610059	1.101004	-0.219220
O4	O	0.610056	1.292606	-0.410820
O5	O	0.484336	1.233389	-0.038469
O6	O	0.709230	1.339316	-0.434175
O7	O	0.484333	1.233390	-0.189609
O8	O	0.709235	0.996574	-0.091438
O9	O	0.484331	1.576130	-0.381206
O10	O	0.696653	1.220596	-0.220438
O11	O	0.622642	1.185736	-0.090214
O12	O	0.622638	1.411324	-0.315799
O13	O	0.548627	1.376464	-0.185575
Zr14	Zr	0.738735	1.353206	-0.053423
Zr15	Zr	0.738731	1.353208	-0.294474
Zr16	Zr	0.580563	1.278710	-0.016174
Zr17	Zr	0.580560	1.519759	-0.257221
Zr18	Zr	0.738735	1.112158	-0.053427
O19	O	0.709236	1.530914	-0.091428
O20	O	0.709230	1.530917	-0.434172
O21	O	0.484336	1.424989	-0.038466
O22	O	0.834964	1.206925	0.070561
O23	O	0.834959	1.206928	-0.272183
O24	O	0.610064	1.101001	0.123523
O25	O	0.834959	1.398529	-0.272180
O26	O	0.709239	1.339311	0.100172
O27	O	0.610065	1.292602	0.123527
O28	O	0.834961	1.398528	-0.121039
O29	O	0.610056	1.635345	-0.410814
O30	O	0.709239	0.996573	0.100166
O31	O	0.834964	1.055787	0.070558
O32	O	0.834961	1.055789	-0.121046
O33	O	0.484334	1.576129	-0.189603
O34	O	0.610059	1.635344	-0.219211
O35	O	0.696656	1.220594	0.005150
O36	O	0.770667	1.255454	-0.125074
O37	O	0.696653	1.446182	-0.220434
O38	O	0.622642	1.411322	-0.090210
C39	C	0.659647	1.014445	-0.155330
C40	C	0.659647	0.912114	-0.155332
C41	C	0.698278	0.882234	-0.223307
C42	C	0.698281	0.786076	-0.223297
C43	C	0.621015	0.749688	-0.087334
C44	C	0.621017	0.845840	-0.087339
C45	C	0.461799	1.222775	-0.108732
C46	C	0.394651	1.191149	-0.092919
C47	C	-0.019360	1.584913	-0.289800
C48	C	-0.082446	1.555170	-0.274927
C49	C	-0.005171	1.356065	-0.175378
C50	C	0.057923	1.385792	-0.190238
C51	C	0.050821	1.500218	-0.247451
C52	C	0.128104	1.301096	-0.147889
C53	C	0.191192	1.330821	-0.162753
C54	C	0.184098	1.445241	-0.219966
C55	C	0.113909	1.529942	-0.262315
C56	C	0.135204	1.186671	-0.090683
C57	C	0.205385	1.101975	-0.048334
C58	C	0.268475	1.131700	-0.063191
C59	C	0.261381	1.246120	-0.120404
C60	C	0.338664	1.046998	-0.020842
C61	C	0.401752	1.076723	-0.035706
C62	C	0.324469	1.275845	-0.135268
C63	C	0.857496	1.409143	-0.201917
C64	C	0.924644	1.440769	-0.217730
C65	C	0.659642	1.315962	-0.456843
C66	C	0.659641	1.315963	-0.559175
C67	C	0.659648	1.617473	-0.155319
C68	C	0.659648	1.719804	-0.155317
C69	C	0.621007	1.415518	-0.657029
C70	C	0.621015	1.415516	-0.753180
C71	C	0.698293	1.216393	-0.653610
C72	C	0.698288	1.216398	-0.557462
C73	C	0.659652	1.315956	0.146194
C74	C	0.659654	1.315955	0.248527
C75	C	0.857496	1.107629	-0.201922
C76	C	0.924644	1.036923	-0.217737
C77	C	0.659652	1.014442	0.146188
C78	C	0.659654	0.912110	0.248519
C79	C	0.857501	1.107626	0.099596
C80	C	0.924650	1.036920	0.186114
C81	C	0.461794	1.524292	-0.410245
C82	C	0.394644	1.594998	-0.496762
C83	C	0.461799	1.524289	-0.108726
C84	C	0.394651	1.594994	-0.092912
C85	C	0.659643	1.617476	-0.456837
C86	C	0.659641	1.719808	-0.559168
C87	C	0.917542	0.985524	-0.274953
C88	C	0.980629	0.919099	-0.289834
C89	C	1.050816	0.904069	-0.247491
C90	C	1.057916	0.955477	-0.190273
C91	C	0.994830	1.021907	-0.175399
C92	C	0.994824	1.021915	0.158766
C93	C	1.057924	0.955495	0.240048
C94	C	1.050849	0.904075	0.348677
C95	C	0.980668	0.919085	0.376024
C96	C	0.917570	0.985511	0.294743
C97	C	0.324471	1.610014	-0.469415
C98	C	0.261370	1.676464	-0.550697
C99	C	0.268445	1.727890	-0.659326
C100	C	0.338626	1.712873	-0.686673
C101	C	0.401725	1.646431	-0.605391
C102	C	0.401753	1.646404	-0.035705
C103	C	0.338666	1.712855	-0.020851
C104	C	0.268479	1.727889	-0.063197
C105	C	0.261379	1.676476	-0.120411
C106	C	0.324464	1.610033	-0.135271
C107	C	0.698289	0.882228	0.346374
C108	C	0.698282	0.786081	0.442522
C109	C	0.621004	0.749704	0.342948
C110	C	0.621007	0.845853	0.246803
H111	H	0.589564	0.695717	-0.031978
Br112	Br	0.750712	0.745535	0.575326
H113	H	0.589540	0.695745	0.341564
Br114	Br	0.568562	0.886420	0.113990
Br115	Br	1.004482	1.091652	-0.097737
Br116	Br	0.750724	1.081276	-0.424650
Br117	Br	0.497003	0.961779	0.021759
Br118	Br	0.004458	1.200778	-0.097739
Br119	Br	0.750711	0.745529	-0.315554
Br120	Br	0.750706	0.972172	-0.315579
H121	H	0.589557	1.496585	-0.832853
H122	H	0.318672	1.568173	-0.181850
Br123	Br	0.750737	0.972145	0.348705
Br124	Br	0.348319	1.782614	0.056801
Br125	Br	0.568593	0.886387	0.004931
Br126	Br	0.971079	0.849293	0.523455
H127	H	0.318685	1.369022	-0.181824
Br128	Br	1.153160	0.935136	0.202910
Br129	Br	0.314848	1.540230	-0.321998
Br130	Br	-0.028991	1.740207	-0.367429
H131	H	0.235470	1.469441	-0.232069
Br132	Br	0.822336	1.005858	0.331877
Br133	Br	0.104279	1.685237	-0.339944
H134	H	0.729757	1.135330	-0.652228
Br135	Br	0.166118	1.696887	-0.177871
H136	H	0.217116	1.781994	-0.051089
Br137	Br	0.568562	1.550644	-0.659357
Br138	Br	0.182803	1.818059	-0.769625
Br139	Br	-0.177696	1.670127	-0.332423
H140	H	0.083831	1.162473	-0.078590
H141	H	0.211157	1.008810	-0.001754
H142	H	0.204232	1.688676	-0.528410
H143	H	0.860398	0.997762	-0.309450
Br144	Br	0.348290	0.891713	0.056784
H145	H	0.974833	0.877247	-0.336425
Br146	Br	1.136426	0.813909	-0.267687
H147	H	1.115071	0.943229	-0.155802
H148	H	1.102234	0.849990	0.414851
Br149	Br	1.004447	1.091696	0.011349
Br150	Br	0.348216	1.782670	-0.834103
H151	H	0.458862	1.634206	-0.627672
H152	H	0.458897	1.634170	-0.001212
