data_functionalizedCrystal
_audit_creation_method	'MofGen! by Chris Wilmer'
_symmetry_space_group_name_H-M	'P1'
_symmetry_Int_Tables_number	1
_symmetry_cell_setting	triclinic
loop_
_symmetry_equiv_pos_as_xyz
  x,y,z
_cell_length_a	14.044220
_cell_length_b	14.044190
_cell_length_c	14.048226
_cell_angle_alpha	89.988942
_cell_angle_beta	89.998644
_cell_angle_gamma	93.190328
loop_
_atom_site_label
_atom_site_type_symbol
_atom_site_fract_x
_atom_site_fract_y
_atom_site_fract_z
O1	O	1.277176	0.230171	-0.079079
O2	O	1.610510	0.563504	0.254255
O3	O	1.943843	0.896837	0.587588
O4	O	1.000505	0.221865	-0.079102
O5	O	1.333838	0.555198	0.254231
O6	O	1.667171	0.888532	0.587565
O7	O	1.134684	0.087682	-0.079072
O8	O	1.468018	0.421015	0.254261
O9	O	1.801351	0.754348	0.587595
O10	O	1.142997	0.364354	-0.079109
O11	O	1.476330	0.697687	0.254225
O12	O	1.809664	1.031021	0.587558
O13	O	1.134666	0.087671	0.079249
O14	O	1.467999	0.421005	0.412583
O15	O	1.801333	0.754338	0.745916
O16	O	1.000486	0.221855	0.079219
O17	O	1.333820	0.555188	0.412553
O18	O	1.667153	0.888521	0.745886
O19	O	1.277158	0.230160	0.079243
O20	O	1.610491	0.563494	0.412576
O21	O	1.943825	0.896827	0.745909
Zn22	Zn	1.138819	0.226006	0.104368
Zn23	Zn	1.472153	0.559339	0.437701
Zn24	Zn	1.805486	0.892673	0.771035
Zn25	Zn	1.138844	0.226019	-0.104227
Zn26	Zn	1.472177	0.559353	0.229106
Zn27	Zn	1.805510	0.892686	0.562439
O28	O	1.142979	0.364344	0.079213
O29	O	1.476312	0.697677	0.412546
O30	O	1.809645	1.031011	0.745879
C31	C	0.964874	0.218224	0.000056
C32	C	1.298207	0.551557	0.333389
C33	C	1.631540	0.884891	0.666723
C34	C	0.858731	0.207380	0.000048
C35	C	1.192064	0.540713	0.333381
C36	C	1.525397	0.874046	0.666714
C37	C	0.664392	0.187553	0.000069
C38	C	0.997726	0.520887	0.333403
C39	C	1.331059	0.854220	0.666736
C40	C	0.613264	0.264468	0.000063
C41	C	0.946598	0.597801	0.333396
C42	C	1.279931	0.931135	0.666730
C43	C	0.505128	0.253436	0.000075
C44	C	0.838461	0.586770	0.333408
C45	C	1.171795	0.920103	0.666742
C46	C	0.772539	0.198583	0.000057
C47	C	1.105872	0.531917	0.333391
C48	C	1.439205	0.865250	0.666724
C49	C	1.131039	0.052054	0.000091
C50	C	1.464372	0.385388	0.333424
C51	C	1.797705	0.718721	0.666758
C52	C	1.120191	-0.054089	0.000099
C53	C	1.453525	0.279245	0.333432
C54	C	1.786858	0.612578	0.666765
C55	C	1.177292	-0.299547	0.000066
C56	C	1.510625	0.033786	0.333399
C57	C	1.843958	0.367120	0.666733
C58	C	1.100375	-0.248422	0.000066
C59	C	1.433709	0.084912	0.333400
C60	C	1.767042	0.418245	0.666733
C61	C	1.111404	-0.140285	0.000084
C62	C	1.444737	0.193049	0.333418
C63	C	1.778070	0.526382	0.666751
C64	C	1.166265	-0.407694	0.000048
C65	C	1.499598	-0.074361	0.333381
C66	C	1.832932	0.258973	0.666715
C67	C	1.312789	0.233801	0.000083
C68	C	1.646123	0.567135	0.333416
C69	C	1.979456	0.900468	0.666749
C70	C	1.418932	0.244646	0.000085
C71	C	1.752266	0.577979	0.333418
C72	C	2.085599	0.911312	0.666751
C73	C	1.146624	0.399971	0.000047
C74	C	1.479958	0.733304	0.333381
C75	C	1.813291	1.066638	0.666714
C76	C	1.157472	0.506114	0.000034
C77	C	1.490805	0.839447	0.333367
C78	C	1.824138	1.172781	0.666700
N79	N	1.138810	0.225997	0.246729
N80	N	1.472143	0.559330	0.580062
N81	N	1.805476	0.892664	0.913395
N82	N	1.138860	0.226022	-0.246588
N83	N	1.472193	0.559355	0.086745
N84	N	1.805527	0.892688	0.420079
C85	C	1.198247	0.166609	0.296560
C86	C	1.531580	0.499942	0.629893
C87	C	1.864914	0.833276	0.963227
C88	C	1.198253	0.166609	0.396218
C89	C	1.531587	0.499942	0.729551
C90	C	1.864920	0.833276	1.062884
C91	C	1.138827	0.226003	0.446042
C92	C	1.472160	0.559336	0.779375
C93	C	1.805494	0.892669	1.112709
C94	C	1.079383	0.285393	0.396204
C95	C	1.412716	0.618726	0.729537
C96	C	1.746050	0.952060	1.062870
C97	C	1.079372	0.285387	0.296548
C98	C	1.412706	0.618721	0.629881
C99	C	1.746039	0.952054	0.963215
C100	C	1.079411	0.285402	0.603918
C101	C	1.412744	0.618736	0.937251
C102	C	1.746078	0.952069	1.270585
C103	C	1.079423	0.285409	0.703581
C104	C	1.412756	0.618743	1.036914
C105	C	1.746089	0.952076	1.370247
C106	C	1.198292	0.166624	0.703588
C107	C	1.531626	0.499957	1.036921
C108	C	1.864959	0.833291	1.370254
C109	C	1.198282	0.166618	0.603932
C110	C	1.531615	0.499952	0.937265
C111	C	1.864948	0.833285	1.270598
C112	C	1.138839	0.226010	0.554100
C113	C	1.472172	0.559344	0.887434
C114	C	1.805505	0.892677	1.220767
H115	H	1.026243	-0.285865	0.000054
H116	H	1.359576	0.047468	0.333388
H117	H	1.692910	0.380802	0.666721
Br118	Br	1.300844	-0.237142	0.000090
Br119	Br	1.634178	0.096191	0.333423
Br120	Br	1.967511	0.429524	0.666756
H121	H	1.246643	0.118248	0.255999
H122	H	1.579977	0.451582	0.589333
H123	H	1.913310	0.784915	0.922666
H124	H	1.246676	0.118261	0.563365
H125	H	1.580009	0.451594	0.896698
H126	H	1.913343	0.784927	1.230032
Br127	Br	1.278916	0.086006	0.463849
Br128	Br	1.612249	0.419340	0.797183
Br129	Br	1.945582	0.752673	1.130516
H130	H	0.650706	0.338602	0.000049
H131	H	0.984039	0.671935	0.333382
H132	H	1.317372	1.005268	0.666715
Br133	Br	1.278968	0.086026	0.771219
Br134	Br	1.612301	0.419360	1.104552
Br135	Br	1.945634	0.752693	1.437885
Br136	Br	0.998768	0.366018	0.771193
Br137	Br	1.332102	0.699352	1.104526
Br138	Br	1.665435	1.032685	1.437859
Br139	Br	0.998732	0.366003	0.536293
Br140	Br	1.332065	0.699336	0.869626
Br141	Br	1.665398	1.032669	1.202959
H142	H	0.626954	0.113425	0.000084
H143	H	0.960287	0.446759	0.333418
H144	H	1.293620	0.780092	0.666751
H145	H	1.030991	0.333749	0.436777
H146	H	1.364325	0.667082	0.770110
H147	H	1.697658	1.000415	1.103443
H148	H	1.030971	0.333746	0.255976
H149	H	1.364304	0.667079	0.589309
H150	H	1.697638	1.000412	0.922643
