data_functionalizedCrystal
_audit_creation_method	'MofGen! by Chris Wilmer'
_symmetry_space_group_name_H-M	'P1'
_symmetry_Int_Tables_number	1
_symmetry_cell_setting	triclinic
loop_
_symmetry_equiv_pos_as_xyz
  x,y,z
_cell_length_a	11.792241
_cell_length_b	15.944493
_cell_length_c	10.868271
_cell_angle_alpha	90.000739
_cell_angle_beta	89.999893
_cell_angle_gamma	83.834229
loop_
_atom_site_label
_atom_site_type_symbol
_atom_site_fract_x
_atom_site_fract_y
_atom_site_fract_z
O1	O	1.505927	0.115131	-0.102186
O2	O	1.175485	0.126997	-0.102212
O3	O	1.349764	-0.001173	-0.102208
O4	O	1.331648	0.243301	-0.102189
O5	O	1.349750	-0.001178	0.102436
O6	O	1.175471	0.126992	0.102432
O7	O	1.505913	0.115126	0.102459
Zn8	Zn	1.340690	0.121058	0.134937
Zn9	Zn	1.340709	0.121065	-0.134691
O10	O	1.331634	0.243296	0.102455
C11	C	1.133194	0.126249	0.000106
C12	C	1.007199	0.124018	0.000095
C13	C	0.776522	0.119916	0.000130
C14	C	0.904887	0.122195	0.000111
C15	C	1.349017	-0.032474	0.000109
C16	C	1.346797	-0.125733	0.000093
C17	C	1.449381	-0.361030	0.000124
C18	C	1.394068	-0.411845	-0.100780
C19	C	1.342684	-0.296472	0.000107
C20	C	1.394030	-0.411826	0.100984
C21	C	1.338719	-0.461400	0.000127
C22	C	1.287399	-0.346059	-0.100880
C23	C	1.287376	-0.346037	0.100974
C24	C	1.231985	-0.396820	0.000045
C25	C	1.344971	-0.201462	0.000095
C26	C	1.336423	-0.556407	0.000131
C27	C	1.548205	0.115874	0.000138
C28	C	1.674200	0.118105	0.000141
C29	C	1.332382	0.274597	0.000135
C30	C	1.334602	0.367855	0.000143
N31	N	1.340685	0.121053	0.318952
N32	N	1.340722	0.121063	-0.318705
C33	C	1.340703	0.121063	0.569958
C34	C	1.340689	0.121060	0.430280
H35	H	1.439134	-0.440585	-0.186081
C36	C	1.229355	-0.219857	-0.215181
C37	C	1.226640	-0.307435	-0.216185
H38	H	1.191858	-0.196015	-0.286372
H39	H	1.191709	-0.196760	-0.143637
H40	H	1.306345	-0.207404	-0.214872
H41	H	1.149650	-0.319889	-0.216484
H42	H	1.264283	-0.330541	-0.287747
C43	C	1.574240	-0.251592	0.001113
C44	C	1.573438	-0.339343	0.000024
H45	H	1.650823	-0.238199	0.001059
H46	H	1.535990	-0.228104	-0.069846
H47	H	1.536465	-0.228964	0.072877
H48	H	1.611205	-0.361970	-0.071746
H49	H	1.611703	-0.362841	0.070989
H50	H	1.140007	-0.412701	-0.000018
H51	H	1.242349	-0.317281	0.186278
H52	H	1.439106	-0.440556	0.186285
