data_functionalizedCrystal
_audit_creation_method	'MofGen! by Chris Wilmer'
_symmetry_space_group_name_H-M	'P1'
_symmetry_Int_Tables_number	1
_symmetry_cell_setting	triclinic
loop_
_symmetry_equiv_pos_as_xyz
  x,y,z
_cell_length_a	12.811457
_cell_length_b	12.837942
_cell_length_c	11.892314
_cell_angle_alpha	86.043680
_cell_angle_beta	80.242746
_cell_angle_gamma	89.411937
loop_
_atom_site_label
_atom_site_type_symbol
_atom_site_fract_x
_atom_site_fract_y
_atom_site_fract_z
O1	O	1.410164	0.142872	-0.050560
O2	O	1.910164	0.642872	0.449440
O3	O	1.103907	0.156077	-0.019163
O4	O	1.603907	0.656077	0.480837
O5	O	1.250245	-0.001501	-0.034172
O6	O	1.750245	0.498499	0.465828
O7	O	1.263826	0.300450	-0.035551
O8	O	1.763826	0.800450	0.464449
O9	O	1.263476	0.010473	-0.223529
O10	O	1.763476	0.510473	0.276471
O11	O	1.117138	0.168051	-0.208520
O12	O	1.617138	0.668051	0.291480
O13	O	1.423395	0.154846	-0.239917
O14	O	1.923395	0.654846	0.260083
Zn15	Zn	1.272367	0.163350	-0.254283
Zn16	Zn	1.772367	0.663350	0.245717
Zn17	Zn	1.254935	0.147573	-0.004797
Zn18	Zn	1.754935	0.647573	0.495203
O19	O	1.277057	0.312424	-0.224908
O20	O	1.777057	0.812424	0.275092
C21	C	1.071050	0.160957	-0.109795
C22	C	1.571050	0.660957	0.390205
C23	C	0.953436	0.157647	-0.097737
C24	C	1.453436	0.657647	0.402263
C25	C	0.746850	0.164462	-0.281539
C26	C	1.246850	0.664462	0.218461
C27	C	0.636341	0.161352	-0.270216
C28	C	1.136341	0.661352	0.229784
C29	C	0.621907	0.148308	-0.063767
C30	C	1.121907	0.648308	0.436233
C31	C	0.732416	0.151418	-0.075091
C32	C	1.232416	0.651418	0.424909
C33	C	0.794884	0.159497	-0.183980
C34	C	1.294884	0.659497	0.316020
C35	C	0.905395	0.162615	-0.195303
C36	C	1.405395	0.662615	0.304697
C37	C	0.890959	0.149564	0.011144
C38	C	1.390959	0.649564	0.511144
C39	C	0.780450	0.146453	0.022468
C40	C	1.280450	0.646453	0.522468
C41	C	1.252272	-0.034184	-0.128380
C42	C	1.752272	0.465816	0.371620
C43	C	1.238588	-0.149408	-0.126975
C44	C	1.738588	0.350592	0.373025
C45	C	1.403094	-0.388598	-0.143817
C46	C	1.903094	0.111402	0.356183
C47	C	1.390241	-0.496862	-0.142497
C48	C	1.890241	0.003138	0.357503
C49	C	1.200031	-0.474203	-0.123008
C50	C	1.700031	0.025797	0.376992
C51	C	1.212883	-0.365939	-0.124328
C52	C	1.712883	0.134061	0.375672
C53	C	1.314418	-0.323141	-0.134734
C54	C	1.814418	0.176859	0.365266
C55	C	1.327271	-0.214874	-0.136062
C56	C	1.827271	0.285126	0.363938
C57	C	1.137060	-0.192218	-0.116565
C58	C	1.637060	0.307782	0.383435
C59	C	1.124208	-0.300482	-0.115245
C60	C	1.624208	0.199518	0.384755
C61	C	1.456251	0.149966	-0.149283
C62	C	1.956251	0.649966	0.350717
C63	C	1.573866	0.153276	-0.161333
C64	C	2.073866	0.653276	0.338667
C65	C	1.275029	0.345107	-0.130698
C66	C	1.775029	0.845107	0.369302
C67	C	1.288713	0.460331	-0.132095
C68	C	1.788713	0.960331	0.367905
N69	N	1.284272	0.174117	-0.424551
N70	N	1.784272	0.674117	0.075449
C71	C	1.367281	0.249080	-0.610554
C72	C	1.867281	0.749080	-0.110554
C73	C	1.358925	0.241550	-0.491360
C74	C	1.858925	0.741550	0.008640
C75	C	1.217967	0.114212	-0.476944
C76	C	1.717967	0.614212	0.023056
C77	C	1.226322	0.121743	-0.596139
C78	C	1.726322	0.621743	-0.096139
C79	C	1.300983	0.189178	-0.662940
C80	C	1.800983	0.689178	-0.162940
C81	C	1.309343	0.196703	-0.782136
C82	C	1.809343	0.696703	-0.282136
C83	C	1.168380	0.069372	-0.767718
C84	C	1.668380	0.569372	-0.267718
C85	C	1.160024	0.061841	-0.648524
C86	C	1.660024	0.561841	-0.148524
N87	N	1.243038	0.136799	0.165471
N88	N	1.743038	0.636799	0.665471
H89	H	0.571027	0.141712	0.024885
H90	H	1.071027	0.641712	0.524885
H91	H	0.797712	0.171054	-0.370201
H92	H	1.297712	0.671054	0.129799
H93	H	0.729574	0.139871	0.111123
H94	H	1.229574	0.639871	0.611123
H95	H	1.117365	-0.509070	-0.114524
H96	H	1.617365	-0.009070	0.385476
H97	H	0.597236	0.165400	-0.349658
H98	H	1.097236	0.665400	0.150342
H99	H	1.114394	0.020596	-0.810382
H100	H	1.614394	0.520596	-0.310382
H101	H	0.930079	0.145527	0.090584
H102	H	1.430079	0.645527	0.590584
H103	H	1.462450	-0.550155	-0.149889
H104	H	1.962450	-0.050155	0.350111
Br105	Br	1.465066	-0.156789	-0.150196
Br106	Br	1.965066	0.343211	0.349804
H107	H	1.370137	0.251610	-0.836525
H108	H	1.870137	0.751610	-0.336525
H109	H	1.099235	0.006940	-0.594118
H110	H	1.599235	0.506940	-0.094118
H111	H	1.428078	0.303982	-0.664946
H112	H	1.928078	0.803982	-0.164946
Br113	Br	1.540889	-0.330506	-0.157974
Br114	Br	2.040889	0.169494	0.342026
H115	H	1.041540	-0.335344	-0.106769
H116	H	1.541540	0.164656	0.393231
H117	H	1.157176	0.059316	-0.422534
H118	H	1.657176	0.559316	0.077466
H119	H	1.412910	0.290331	-0.448713
H120	H	1.912910	0.790331	0.051287
H121	H	1.064855	-0.138909	-0.109178
H122	H	1.564855	0.361091	0.390822
Br123	Br	0.990172	0.173586	-0.343079
Br124	Br	1.490172	0.673586	0.156921
