data_functionalizedCrystal
_audit_creation_method	'MofGen! by Chris Wilmer'
_symmetry_space_group_name_H-M	'P1'
_symmetry_Int_Tables_number	1
_symmetry_cell_setting	triclinic
loop_
_symmetry_equiv_pos_as_xyz
  x,y,z
_cell_length_a	16.959455
_cell_length_b	16.625546
_cell_length_c	16.959447
_cell_angle_alpha	89.967784
_cell_angle_beta	89.985299
_cell_angle_gamma	90.021896
loop_
_atom_site_label
_atom_site_type_symbol
_atom_site_fract_x
_atom_site_fract_y
_atom_site_fract_z
Zn1	Zn	1.208371	-0.320998	-0.446906
Zn2	Zn	1.208288	-0.455845	-0.314723
Zn3	Zn	1.076199	-0.321029	-0.314743
Zn4	Zn	1.076158	-0.455791	-0.446861
O5	O	1.142254	-0.388416	-0.380808
O6	O	1.318970	-0.338896	-0.429383
O7	O	1.190748	-0.437998	-0.204115
O8	O	1.093784	-0.208193	-0.332302
O9	O	1.318909	-0.437967	-0.332268
O10	O	1.190890	-0.208170	-0.429402
O11	O	1.093703	-0.338949	-0.204129
O12	O	0.965583	-0.338896	-0.332258
O13	O	1.093714	-0.437875	-0.557478
O14	O	0.965553	-0.437905	-0.429325
O15	O	1.190850	-0.338843	-0.557511
O16	O	1.190709	-0.568671	-0.332225
O17	O	1.093634	-0.568631	-0.429306
C18	C	0.936888	-0.388398	-0.380789
C19	C	0.849031	-0.388410	-0.380799
C20	C	1.142179	-0.597907	-0.380775
C21	C	1.142219	-0.687528	-0.380788
C22	C	0.807723	-0.439919	-0.330165
C23	C	0.807785	-0.336908	-0.431440
C24	C	0.725239	-0.336914	-0.431450
C25	C	0.683932	-0.388423	-0.380815
C26	C	0.725170	-0.439925	-0.330171
C27	C	0.683995	-0.285407	-0.482088
C28	C	0.601444	-0.285411	-0.482098
C29	C	0.560135	-0.336924	-0.431467
C30	C	0.601378	-0.388429	-0.380821
C31	C	0.560070	-0.439938	-0.330186
C32	C	0.601312	-0.491448	-0.279544
C33	C	0.683861	-0.491439	-0.279539
C34	C	0.477586	-0.336933	-0.431472
C35	C	0.477517	-0.439944	-0.330193
C36	C	1.142357	-1.015703	-0.380870
C37	C	1.142316	-0.924395	-0.380849
C38	C	1.142288	-0.851619	-0.380828
C39	C	1.142248	-0.760304	-0.380808
C40	C	1.348422	-0.388434	-0.380828
C41	C	1.436279	-0.388442	-0.380837
C42	C	1.142287	-0.388349	-0.586977
C43	C	1.142301	-0.388321	-0.674833
C44	C	1.142351	-0.178107	-0.380859
C45	C	1.142392	-0.088486	-0.380880
C46	C	1.091821	-0.439797	-1.046294
C47	C	1.192970	-0.336674	-1.046324
C48	C	1.192948	-0.336691	-0.963778
C49	C	1.142364	-0.388263	-0.922486
C50	C	1.091800	-0.439817	-0.963741
C51	C	1.243517	-0.285144	-0.922518
C52	C	1.243498	-0.285159	-0.839967
C53	C	1.192909	-0.336728	-0.798674
C54	C	1.142343	-0.388283	-0.839933
C55	C	1.091758	-0.439855	-0.798641
C56	C	1.041187	-0.491407	-0.839899
C57	C	1.041211	-0.491385	-0.922448
C58	C	1.192886	-0.336749	-0.716125
C59	C	1.091737	-0.439875	-0.716088
C60	C	1.142267	-0.388424	-0.175442
C61	C	1.142406	-0.388226	-0.087586
H62	H	0.443890	-0.481893	-0.288962
H63	H	0.567872	-0.243470	-0.523336
H64	H	1.000041	-0.533359	-0.956047
H65	H	1.234158	-0.294692	-1.079949
Cl66	Cl	1.307069	-0.220349	-0.788107
H67	H	0.717633	-0.243469	-0.523309
Cl68	Cl	1.028137	-0.504707	-0.664185
H69	H	0.717447	-0.533373	-0.238307
H70	H	1.050645	-0.481767	-1.079890
Cl71	Cl	0.425743	-0.272178	-0.495125
Cl72	Cl	1.307110	-0.220322	-0.974430
Cl73	Cl	0.859715	-0.272156	-0.495090
Cl74	Cl	0.859567	-0.504673	-0.266506
H75	H	1.000005	-0.533400	-0.806269
Cl76	Cl	0.549373	-0.556193	-0.215886
Cl77	Cl	1.256460	-0.271952	-0.664262
