data_functionalizedCrystal
_audit_creation_method	'MofGen! by Chris Wilmer'
_symmetry_space_group_name_H-M	'P1'
_symmetry_Int_Tables_number	1
_symmetry_cell_setting	triclinic
loop_
_symmetry_equiv_pos_as_xyz
  x,y,z
_cell_length_a	12.759401
_cell_length_b	13.897448
_cell_length_c	12.759393
_cell_angle_alpha	89.970315
_cell_angle_beta	90.020938
_cell_angle_gamma	89.978906
loop_
_atom_site_label
_atom_site_type_symbol
_atom_site_fract_x
_atom_site_fract_y
_atom_site_fract_z
Zn1	Zn	1.606231	0.383929	0.594026
Zn2	Zn	2.106231	0.883929	1.094026
Zn3	Zn	1.606107	0.545255	0.418349
Zn4	Zn	2.106107	1.045255	0.918349
Zn5	Zn	1.430530	0.383980	0.418361
Zn6	Zn	1.930530	0.883980	0.918361
Zn7	Zn	1.430507	0.545188	0.593986
Zn8	Zn	1.930507	1.045188	1.093986
O9	O	1.518343	0.464588	0.506180
O10	O	2.018343	0.964588	1.006180
O11	O	1.753235	0.405336	0.570734
O12	O	2.253235	0.905336	1.070734
O13	O	1.582774	0.523912	0.271329
O14	O	2.082774	1.023912	0.771329
O15	O	1.453898	0.248992	0.441686
O16	O	1.953898	0.748992	0.941686
O17	O	1.753144	0.523862	0.441664
O18	O	2.253144	1.023862	0.941664
O19	O	1.582985	0.248954	0.570746
O20	O	2.082985	0.748954	1.070746
O21	O	1.453778	0.405423	0.271338
O22	O	1.953778	0.905423	0.771338
O23	O	1.283505	0.405358	0.441647
O24	O	1.783505	0.905358	0.941647
O25	O	1.453859	0.523747	0.741012
O26	O	1.953859	1.023747	1.241012
O27	O	1.283489	0.523797	0.570677
O28	O	1.783489	1.023797	1.070677
O29	O	1.582963	0.405271	0.741042
O30	O	2.082963	0.905271	1.241042
O31	O	1.582752	0.680228	0.441625
O32	O	2.082752	1.180228	0.941625
O33	O	1.453739	0.680179	0.570665
O34	O	1.953739	1.180179	1.070665
C35	C	1.245376	0.464576	0.506160
C36	C	1.745376	0.964576	1.006160
C37	C	1.128599	0.464595	0.506176
C38	C	1.628599	0.964595	1.006176
C39	C	1.073756	0.526359	0.573256
C40	C	1.573756	1.026359	1.073256
C41	C	0.964032	0.526363	0.573277
C42	C	1.464032	1.026363	1.073277
C43	C	0.964004	0.402834	0.439128
C44	C	1.464004	0.902834	0.939128
C45	C	1.073726	0.402827	0.439113
C46	C	1.573726	0.902827	0.939113
C47	C	1.518258	0.715203	0.506162
C48	C	2.018258	1.215203	1.006162
C49	C	1.518317	0.822416	0.506190
C50	C	2.018317	1.322416	1.006190
C51	C	1.518421	1.018711	0.506265
C52	C	2.018421	1.518711	1.006265
C53	C	1.518360	0.909479	0.506226
C54	C	2.018360	1.409479	1.006226
C55	C	1.792377	0.464601	0.506202
C56	C	2.292377	0.964601	1.006202
C57	C	1.909153	0.464606	0.506211
C58	C	2.409153	0.964606	1.006211
C59	C	1.518422	0.464496	0.780214
C60	C	2.018422	0.964496	1.280214
C61	C	1.518456	0.464456	0.896991
C62	C	2.018456	0.964456	1.396991
C63	C	1.518449	1.212995	0.506234
C64	C	2.018449	1.712995	1.006234
C65	C	1.518471	1.105781	0.506288
C66	C	2.018471	1.605781	1.006288
C67	C	1.518326	0.464611	0.233213
C68	C	2.018326	0.964611	0.733213
C69	C	1.518496	0.464379	0.116437
C70	C	2.018496	0.964379	0.616437
C71	C	1.585685	0.402756	0.951870
C72	C	2.085685	0.902756	1.451870
C73	C	1.585703	0.402714	1.061594
C74	C	2.085703	0.902714	1.561594
C75	C	1.451259	0.526082	1.061550
C76	C	1.951259	1.026082	1.561550
C77	C	1.451237	0.526118	0.951828
C78	C	1.951237	1.026118	1.451828
H79	H	0.919384	0.576657	0.627902
H80	H	1.419384	1.076657	1.127902
C81	C	1.134118	0.594298	0.647021
C82	C	1.634118	1.094298	1.147021
H83	H	1.207320	0.585457	0.637398
H84	H	1.707320	1.085457	1.137398
H85	H	1.116179	0.580265	0.717642
H86	H	1.616179	1.080265	1.217642
H87	H	1.116103	0.659093	0.631514
H88	H	1.616103	1.159093	1.131514
H89	H	1.640446	0.352470	1.106271
H90	H	2.140446	0.852470	1.606271
H91	H	1.396534	0.576286	1.106212
H92	H	1.896534	1.076286	1.606212
H93	H	1.396483	0.576361	0.907144
H94	H	1.896483	1.076361	1.407144
H95	H	1.118381	0.352524	0.384488
H96	H	1.618381	0.852524	0.884488
H97	H	0.919313	0.352547	0.384526
H98	H	1.419313	0.852547	0.884526
H99	H	1.640416	0.352544	0.907224
H100	H	2.140416	0.852544	1.407224
