data_functionalizedCrystal
_audit_creation_method	'MofGen! by Chris Wilmer'
_symmetry_space_group_name_H-M	'P1'
_symmetry_Int_Tables_number	1
_symmetry_cell_setting	triclinic
loop_
_symmetry_equiv_pos_as_xyz
  x,y,z
_cell_length_a	16.120530
_cell_length_b	16.120444
_cell_length_c	13.032268
_cell_angle_alpha	80.356652
_cell_angle_beta	85.357344
_cell_angle_gamma	90.168401
loop_
_atom_site_label
_atom_site_type_symbol
_atom_site_fract_x
_atom_site_fract_y
_atom_site_fract_z
Zn1	Zn	1.180615	-0.462251	0.695154
Zn2	Zn	1.191119	-0.585372	0.528897
Zn3	Zn	1.061090	-0.437590	0.511275
Zn4	Zn	1.034566	-0.594113	0.694200
O5	O	1.116847	-0.519832	0.607381
O6	O	1.297548	-0.485246	0.680873
O7	O	1.189366	-0.551790	0.380426
O8	O	1.083649	-0.323829	0.528692
O9	O	1.305265	-0.575703	0.558725
O10	O	1.171464	-0.341947	0.663786
O11	O	1.093834	-0.443215	0.367479
O12	O	0.942032	-0.451690	0.527767
O13	O	1.038444	-0.590600	0.840460
O14	O	0.922545	-0.566687	0.662161
O15	O	1.145746	-0.493721	0.841161
O16	O	1.163647	-0.703564	0.557800
O17	O	1.048629	-0.709986	0.679248
C18	C	0.902330	-0.507462	0.592949
C19	C	0.810555	-0.502193	0.586801
C20	C	0.642520	-0.492554	0.575584
C21	C	0.592004	-0.547179	0.639259
C22	C	0.498503	-0.541815	0.633018
C23	C	0.736029	-0.497916	0.581823
C24	C	1.104420	-0.737124	0.620357
C25	C	1.099175	-0.830090	0.625948
C26	C	1.144234	-1.038526	0.578616
C27	C	1.089613	-1.000296	0.636168
C28	C	1.094935	-0.905584	0.630480
C29	C	1.138913	-1.133246	0.584303
C30	C	1.332202	-0.532250	0.621871
C31	C	1.423974	-0.537542	0.628045
C32	C	1.087965	-0.545886	0.879761
C33	C	1.075657	-0.556990	0.995833
C34	C	1.129344	-0.301695	0.594380
C35	C	1.134669	-0.208738	0.588839
C36	C	1.145669	-0.493820	0.336061
C37	C	1.158150	-0.482491	0.219987
C38	C	1.123260	-0.514006	1.047928
C39	C	1.110540	-0.525481	1.167894
H40	H	1.038854	-1.038698	0.689711
N41	N	1.047592	-0.582297	1.223361
N42	N	1.037345	-0.591534	1.320735
H43	H	0.992888	-0.631659	1.359910
H44	H	0.618977	-0.597971	0.698463
N45	N	1.221085	-0.425658	1.164520
N46	N	1.231327	-0.416412	1.067146
H47	H	1.275772	-0.376273	1.027970
H48	H	0.615548	-0.441764	0.516386
H49	H	1.194988	-1.000128	0.525076
H50	H	1.173429	-0.468708	1.003713
N51	N	1.012712	-0.613803	1.051303
N52	N	1.002465	-0.623040	1.148677
H53	H	0.958008	-0.663165	1.187853
