data_functionalizedCrystal
_audit_creation_method	'MofGen! by Chris Wilmer'
_symmetry_space_group_name_H-M	'P1'
_symmetry_Int_Tables_number	1
_symmetry_cell_setting	triclinic
loop_
_symmetry_equiv_pos_as_xyz
  x,y,z
_cell_length_a	14.853566
_cell_length_b	14.853567
_cell_length_c	13.930277
_cell_angle_alpha	90.000757
_cell_angle_beta	89.995631
_cell_angle_gamma	96.365328
loop_
_atom_site_label
_atom_site_type_symbol
_atom_site_fract_x
_atom_site_fract_y
_atom_site_fract_z
O1	O	1.196369	-0.117698	-0.079759
O2	O	1.696369	0.382302	0.420241
O3	O	0.933909	-0.131721	-0.079774
O4	O	1.433909	0.368279	0.420226
O5	O	1.072150	0.006520	-0.079769
O6	O	1.572150	0.506520	0.420231
O7	O	1.058129	-0.255939	-0.079764
O8	O	1.558129	0.244061	0.420236
O9	O	1.072131	0.006523	0.079893
O10	O	1.572131	0.506523	0.579893
O11	O	0.933890	-0.131718	0.079888
O12	O	1.433890	0.368282	0.579888
O13	O	1.196350	-0.117695	0.079903
O14	O	1.696350	0.382305	0.579903
Zn15	Zn	1.065117	-0.124706	0.105245
Zn16	Zn	1.565117	0.375294	0.605245
Zn17	Zn	1.065142	-0.124710	-0.105116
Zn18	Zn	1.565142	0.375290	0.394884
O19	O	1.058109	-0.255936	0.079898
O20	O	1.558109	0.244064	0.579898
C21	C	0.900311	-0.131084	0.000055
C22	C	1.400311	0.368916	0.500055
C23	C	0.800227	-0.129181	0.000049
C24	C	1.300227	0.370819	0.500049
C25	C	0.377053	-0.121132	-0.086966
C26	C	0.877053	0.378868	0.413034
C27	C	0.377053	-0.121129	0.087103
C28	C	0.877053	0.378871	0.587103
C29	C	0.471087	-0.122916	0.087101
C30	C	0.971087	0.377084	0.587101
C31	C	0.518108	-0.123813	0.000063
C32	C	1.018108	0.376187	0.500063
C33	C	0.471095	-0.122922	-0.086972
C34	C	0.971095	0.377078	0.413028
C35	C	0.518106	-0.123817	0.174134
C36	C	1.018106	0.376183	0.674134
C37	C	0.612146	-0.125605	0.174134
C38	C	1.112146	0.374395	0.674134
C39	C	0.659170	-0.126495	0.087095
C40	C	1.159170	0.373505	0.587095
C41	C	0.612151	-0.125603	0.000057
C42	C	1.112151	0.374397	0.500057
C43	C	0.659172	-0.126499	-0.086980
C44	C	1.159172	0.373501	0.413020
C45	C	0.612156	-0.125601	-0.174019
C46	C	1.112156	0.374399	0.325981
C47	C	0.518119	-0.123812	-0.174010
C48	C	1.018119	0.376188	0.325990
C49	C	0.753206	-0.128284	0.087086
C50	C	1.253206	0.371716	0.587086
C51	C	0.753214	-0.128290	-0.086986
C52	C	1.253214	0.371710	0.413014
C53	C	1.071505	0.040111	0.000059
C54	C	1.571505	0.540111	0.500059
C55	C	1.069601	0.140194	0.000051
C56	C	1.569601	0.640194	0.500051
C57	C	1.229948	-0.118332	0.000072
C58	C	1.729948	0.381668	0.500072
C59	C	1.330032	-0.120235	0.000071
C60	C	1.830032	0.379765	0.500071
C61	C	1.058754	-0.289526	0.000068
C62	C	1.558754	0.210474	0.500068
C63	C	1.060658	-0.389610	0.000070
C64	C	1.560658	0.110390	0.500070
N65	N	1.065106	-0.124703	0.248811
N66	N	1.565106	0.375297	0.748811
C67	C	0.979435	0.552728	0.000064
C68	C	1.479435	1.052728	0.500064
C69	C	1.143668	0.574009	0.000073
C70	C	1.643668	1.074009	0.500073
C71	C	1.145458	0.479976	0.000067
C72	C	1.645458	0.979976	0.500067
C73	C	1.064236	0.422313	0.000061
C74	C	1.564236	0.922313	0.500061
C75	C	0.981223	0.458685	0.000061
C76	C	1.481223	0.958685	0.500061
C77	C	1.228470	0.443597	0.000078
C78	C	1.728470	0.943597	0.500078
C79	C	1.230263	0.349558	0.000073
C80	C	1.730263	0.849558	0.500073
C81	C	1.149040	0.291894	0.000060
C82	C	1.649040	0.791894	0.500060
C83	C	1.066023	0.328271	0.000059
C84	C	1.566023	0.828271	0.500059
C85	C	0.984801	0.270608	0.000053
C86	C	1.484801	0.770608	0.500053
C87	C	0.901784	0.306984	0.000045
C88	C	1.401784	0.806984	0.500045
C89	C	0.899999	0.401021	0.000048
C90	C	1.399999	0.901021	0.500048
C91	C	1.150824	0.197856	0.000057
C92	C	1.650824	0.697856	0.500057
C93	C	0.986588	0.176566	0.000050
C94	C	1.486588	0.676566	0.500050
N95	N	1.065160	-0.124706	-0.248682
N96	N	1.565160	0.375294	0.251318
C97	C	1.003927	-0.185899	0.701078
C98	C	1.503927	0.314101	1.201078
C99	C	1.126382	-0.063514	0.701052
C100	C	1.626382	0.436486	1.201052
C101	C	1.126372	-0.063511	0.600556
C102	C	1.626372	0.436489	1.100556
C103	C	1.065139	-0.124704	0.550317
C104	C	1.565139	0.375296	1.050317
C105	C	1.003916	-0.185900	0.600573
C106	C	1.503916	0.314100	1.100573
C107	C	1.187599	-0.002322	0.550292
C108	C	1.687599	0.497678	1.050292
C109	C	1.187592	-0.002318	0.449791
C110	C	1.687592	0.497682	0.949791
C111	C	1.126353	-0.063507	0.399549
C112	C	1.626353	0.436493	0.899549
C113	C	1.065128	-0.124705	0.449812
C114	C	1.565128	0.375295	0.949812
C115	C	1.003895	-0.185898	0.399572
C116	C	1.503895	0.314102	0.899572
C117	C	0.942664	-0.247092	0.449833
C118	C	1.442664	0.252908	0.949833
C119	C	0.942678	-0.247089	0.550332
C120	C	1.442678	0.252911	1.050332
C121	C	1.126339	-0.063510	0.299050
C122	C	1.626339	0.436490	0.799050
C123	C	1.003884	-0.185899	0.299067
C124	C	1.503884	0.314101	0.799067
H125	H	0.479814	-0.123093	0.244995
H126	H	0.979814	0.376907	0.744995
H127	H	0.650419	-0.126335	0.245007
H128	H	1.150419	0.373665	0.745007
H129	H	0.920446	0.129622	0.000041
H130	H	1.420446	0.629622	0.500041
H131	H	1.209796	0.620963	0.000086
H132	H	1.709796	1.120963	0.500086
N133	N	0.803916	-0.129263	0.180951
N134	N	1.303916	0.370737	0.680951
H135	H	0.759859	-0.128429	0.236089
H136	H	1.259859	0.371571	0.736089
H137	H	0.850171	-0.074161	0.184746
H138	H	1.350171	0.425839	0.684746
H139	H	1.297861	0.319950	0.000079
H140	H	1.797861	0.819950	0.500079
N141	N	1.192378	0.002477	0.244840
N142	N	1.692378	0.502477	0.744840
H143	H	1.231174	0.041238	0.291916
H144	H	1.731174	0.541238	0.791916
H145	H	1.157817	0.042401	0.203151
H146	H	1.657817	0.542401	0.703151
H147	H	1.176241	-0.013696	0.741960
H148	H	1.676241	0.486304	1.241960
H149	H	0.954017	-0.235726	0.258169
H150	H	1.454017	0.264274	0.758169
H151	H	1.294597	0.490552	0.000091
H152	H	1.794597	0.990552	0.500091
H153	H	0.954071	-0.235720	0.742003
H154	H	1.454071	0.264280	1.242003
N155	N	0.810471	0.440260	0.000051
N156	N	1.310471	0.940260	0.500051
H157	H	0.774876	0.419238	0.059236
H158	H	1.274876	0.919238	0.559236
H159	H	0.774957	0.419240	-0.059177
H160	H	1.274957	0.919240	0.440823
N161	N	0.814181	0.244788	0.000063
N162	N	1.314181	0.744788	0.500063
H163	H	0.827917	0.179698	0.000072
H164	H	1.327917	0.679698	0.500072
H165	H	0.778005	0.256562	-0.059124
H166	H	1.278005	0.756562	0.440876
N167	N	0.326345	-0.120155	0.180976
N168	N	0.826345	0.379845	0.680976
H169	H	0.370553	-0.119758	0.236100
H170	H	0.870553	0.380242	0.736100
H171	H	0.280934	-0.175881	0.185344
H172	H	0.780934	0.324119	0.685344
N173	N	1.253624	0.063691	0.395593
N174	N	1.753624	0.563691	0.895593
H175	H	1.219120	0.103673	0.353908
H176	H	1.719120	0.603673	0.853908
H177	H	1.293563	0.029108	0.353938
H178	H	1.793563	0.529108	0.853938
H179	H	0.892827	-0.296912	0.591260
H180	H	1.392827	0.203088	1.091260
H181	H	0.911845	0.582349	0.000053
H182	H	1.411845	1.082349	0.500053
H183	H	0.791493	-0.129017	-0.157863
H184	H	1.291493	0.370983	0.342137
H185	H	1.218415	0.168244	0.000070
H186	H	1.718415	0.668244	0.500070
H187	H	1.237458	0.047495	0.591201
H188	H	1.737458	0.547495	1.091201
H189	H	0.892811	-0.296920	0.408917
H190	H	1.392811	0.203080	0.908917
H191	H	0.650452	-0.126337	-0.244885
H192	H	1.150452	0.373663	0.255115
H193	H	0.338769	-0.120396	-0.157831
H194	H	0.838769	0.379604	0.342169
N195	N	0.467411	-0.122840	-0.267881
N196	N	0.967411	0.377160	0.232119
H197	H	0.400704	-0.121574	-0.254668
H198	H	0.900704	0.378426	0.245332
H199	H	0.476610	-0.178996	-0.305891
H200	H	0.976610	0.321004	0.194109
