data_functionalizedCrystal
_audit_creation_method	'MofGen! by Chris Wilmer'
_symmetry_space_group_name_H-M	'P1'
_symmetry_Int_Tables_number	1
_symmetry_cell_setting	triclinic
loop_
_symmetry_equiv_pos_as_xyz
  x,y,z
_cell_length_a	12.837943
_cell_length_b	12.837942
_cell_length_c	11.295483
_cell_angle_alpha	94.530417
_cell_angle_beta	85.461227
_cell_angle_gamma	94.828940
loop_
_atom_site_label
_atom_site_type_symbol
_atom_site_fract_x
_atom_site_fract_y
_atom_site_fract_z
O1	O	1.408689	0.265788	-0.099003
O2	O	1.105556	0.252345	-0.099010
O3	O	1.250401	0.107500	-0.098999
O4	O	1.263845	0.410633	-0.099013
O5	O	1.237676	0.120201	0.099051
O6	O	1.092832	0.265045	0.099040
O7	O	1.395965	0.278489	0.099047
Cu8	Cu	1.243237	0.272927	0.117127
Cu9	Cu	1.258285	0.257907	-0.117090
O10	O	1.251121	0.423333	0.099037
C11	C	1.060125	0.254153	0.000014
C12	C	0.943710	0.240609	0.000012
C13	C	0.718835	0.403439	0.000021
C14	C	0.609453	0.390717	0.000020
C15	C	0.615561	0.202446	0.000016
C16	C	0.724943	0.215167	0.000017
C17	C	0.776576	0.315667	0.000018
C18	C	0.885961	0.328387	0.000011
C19	C	0.892066	0.140117	0.000016
C20	C	0.782684	0.127396	0.000015
C21	C	1.239497	0.074781	0.000025
C22	C	1.225953	-0.041634	0.000023
C23	C	1.388784	-0.266509	0.000002
C24	C	1.376062	-0.375892	-0.000000
C25	C	1.187791	-0.369784	0.000008
C26	C	1.200512	-0.260402	0.000010
C27	C	1.301011	-0.208768	0.000009
C28	C	1.313731	-0.099383	0.000020
C29	C	1.125461	-0.093278	0.000019
C30	C	1.112740	-0.202660	0.000017
C31	C	1.441396	0.276680	0.000021
C32	C	1.557812	0.290224	0.000015
C33	C	1.262024	0.456052	0.000010
C34	C	1.275569	0.572467	0.000004
N35	N	1.232661	0.283491	0.281863
N36	N	1.268868	0.247335	-0.281825
C37	C	1.344996	0.171231	0.531161
C38	C	1.337012	0.179223	0.655824
C39	C	1.208702	0.307459	0.655854
C40	C	1.216687	0.299467	0.531191
C41	C	1.284837	0.231353	0.468849
C42	C	1.292826	0.223367	0.344183
C43	C	1.164512	0.351597	0.344216
C44	C	1.156528	0.359589	0.468879
H45	H	0.939091	0.068646	0.000006
C46	C	1.078679	-0.425821	-0.000251
C47	C	1.031538	-0.403920	-0.102158
C48	C	0.931031	-0.455537	-0.102449
H49	H	1.037516	-0.402275	0.068732
H50	H	1.083644	-0.499247	-0.000325
H51	H	1.026568	-0.330510	-0.102073
H52	H	1.072670	-0.427469	-0.171158
H53	H	0.935996	-0.528963	-0.102523
H54	H	0.889878	-0.431986	-0.033461
H55	H	0.899037	-0.440692	-0.171597
H56	H	1.030916	-0.244716	0.000013
C57	C	0.546832	0.486036	-0.000229
C58	C	0.578126	0.539376	-0.102136
C59	C	0.520453	0.627184	-0.102412
H60	H	0.559022	0.531338	0.068755
H61	H	0.474285	0.464107	-0.000295
H62	H	0.650656	0.561306	-0.102059
H63	H	0.565933	0.494104	-0.171136
H64	H	0.447906	0.605256	-0.102478
H65	H	0.532648	0.672478	-0.033424
H66	H	0.541671	0.663381	-0.171559
H67	H	1.101038	0.415044	0.519653
C68	C	1.030075	-0.030731	-0.000158
C69	C	0.976713	-0.062040	-0.102032
C70	C	0.888832	-0.004457	-0.102222
H71	H	1.051897	0.041826	-0.000214
H72	H	0.984824	-0.043007	0.068873
H73	H	1.021955	-0.049757	-0.171045
H74	H	0.954865	-0.134589	-0.101997
H75	H	0.843582	-0.016732	-0.033191
H76	H	0.910664	0.068098	-0.102275
H77	H	0.852610	-0.025699	-0.171336
H78	H	1.400494	0.115777	0.480401
H79	H	0.573495	0.120630	0.000114
H80	H	1.385998	0.130265	0.706555
C81	C	0.775026	0.512497	0.000202
C82	C	0.831119	0.531825	0.102079
C83	C	0.882903	0.632275	0.102278
H84	H	0.725083	0.563055	0.000259
H85	H	0.822064	0.516961	-0.068827
H86	H	0.784085	0.527371	0.171090
H87	H	0.881079	0.481293	0.102043
H88	H	0.929942	0.636739	0.033249
H89	H	0.832954	0.682824	0.102332
H90	H	0.920976	0.645398	0.171394
C91	C	1.099323	0.417065	0.276629
C92	C	1.124545	0.523562	0.306936
C93	C	1.064530	0.583906	0.244689
H94	H	1.026995	0.400205	0.297023
H95	H	1.113849	0.402629	0.193443
H96	H	1.110011	0.537993	0.390104
H97	H	1.196862	0.540454	0.286539
H98	H	1.079056	0.569469	0.161503
H99	H	0.992205	0.567037	0.265088
H100	H	1.081641	0.656170	0.265235
C101	C	1.366834	0.149315	0.276709
C102	C	1.417786	0.098352	0.357968
C103	C	1.485957	0.030114	0.295858
H104	H	1.417337	0.188066	0.228062
H105	H	1.328002	0.098829	0.228113
H106	H	1.456615	0.148831	0.406543
H107	H	1.367309	0.059582	0.406618
H108	H	1.447125	-0.020372	0.247263
H109	H	1.536454	0.068873	0.247214
H110	H	1.520529	-0.004480	0.350983
H111	H	1.395563	-0.057344	0.000023
C112	C	0.726431	0.018369	-0.000049
C113	C	0.618281	0.026010	-0.000077
C114	C	0.566432	-0.074407	-0.000155
H115	H	0.741055	-0.013896	0.068993
H116	H	0.749989	-0.022663	-0.069145
H117	H	0.594731	0.067026	0.069012
H118	H	0.603627	0.058256	-0.069114
H119	H	0.589991	-0.115439	-0.069251
H120	H	0.581064	-0.106663	0.068887
H121	H	0.493048	-0.069237	-0.000185
H122	H	0.928000	0.410219	0.000014
H123	H	1.470613	-0.224468	0.000013
C124	C	1.134529	0.381250	0.723498
C125	C	1.031923	0.352089	0.693219
C126	C	0.963561	0.420027	0.755524
H127	H	1.153955	0.450979	0.703134
H128	H	1.138320	0.377374	0.806677
H129	H	1.028136	0.355976	0.610059
H130	H	1.012465	0.282372	0.713586
H131	H	0.967352	0.416151	0.838702
H132	H	0.982997	0.489752	0.735155
H133	H	0.893934	0.400245	0.734997
H134	H	1.447536	-0.422901	-0.000010
