data_functionalizedCrystal
_audit_creation_method	'MofGen! by Chris Wilmer'
_symmetry_space_group_name_H-M	'P1'
_symmetry_Int_Tables_number	1
_symmetry_cell_setting	triclinic
loop_
_symmetry_equiv_pos_as_xyz
  x,y,z
_cell_length_a	17.640112
_cell_length_b	16.120444
_cell_length_c	17.640968
_cell_angle_alpha	97.806502
_cell_angle_beta	87.860920
_cell_angle_gamma	103.500183
loop_
_atom_site_label
_atom_site_type_symbol
_atom_site_fract_x
_atom_site_fract_y
_atom_site_fract_z
Zn1	Zn	1.246897	-0.023860	0.196404
Zn2	Zn	1.746897	0.476140	0.696404
Zn3	Zn	1.214803	-0.195188	0.078928
Zn4	Zn	1.714803	0.304812	0.578928
Zn5	Zn	1.092235	-0.077878	0.098047
Zn6	Zn	1.592235	0.422122	0.598047
Zn7	Zn	1.113947	-0.184257	0.230904
Zn8	Zn	1.613947	0.315743	0.730904
O9	O	1.166971	-0.120296	0.151071
O10	O	1.666971	0.379704	0.651071
O11	O	1.349575	-0.028555	0.158381
O12	O	1.849575	0.471445	0.658381
O13	O	1.176026	-0.206808	-0.023300
O14	O	1.676026	0.293192	0.476700
O15	O	1.117097	0.045508	0.104658
O16	O	1.617097	0.545508	0.604658
O17	O	1.325995	-0.154429	0.072072
O18	O	1.825995	0.345571	0.572072
O19	O	1.230726	0.085195	0.176920
O20	O	1.730726	0.585195	0.676920
O21	O	1.085976	-0.120621	-0.009254
O22	O	1.585976	0.379379	0.490746
O23	O	0.988181	-0.110022	0.138111
O24	O	1.488181	0.389978	0.638111
O25	O	1.154102	-0.135798	0.331092
O26	O	1.654102	0.364202	0.831092
O27	O	1.004132	-0.188178	0.235720
O28	O	1.504132	0.311822	0.735720
O29	O	1.251780	-0.017956	0.305745
O30	O	1.751780	0.482044	0.805745
O31	O	1.197079	-0.309959	0.105525
O32	O	1.697079	0.190041	0.605525
O33	O	1.122981	-0.301928	0.217181
O34	O	1.622981	0.198072	0.717181
C35	C	0.968429	-0.153776	0.192734
C36	C	1.468429	0.346224	0.692734
C37	C	0.883496	-0.168114	0.210577
C38	C	1.383496	0.331886	0.710577
C39	C	1.158928	-0.336071	0.163034
C40	C	1.658928	0.163929	0.663034
C41	C	1.155562	-0.428362	0.168162
C42	C	1.655562	0.071638	0.668162
C43	C	0.562620	-0.011353	0.015528
C44	C	1.062620	0.488647	0.515528
C45	C	0.482813	-0.024841	0.032305
C46	C	0.982813	0.475159	0.532305
C47	C	0.499437	-0.106413	0.133788
C48	C	0.999437	0.393587	0.633788
C49	C	0.579248	-0.092929	0.117022
C50	C	1.079248	0.407071	0.617022
C51	C	0.610832	-0.045400	0.057891
C52	C	1.110832	0.454600	0.557891
C53	C	0.627460	-0.126976	0.159385
C54	C	1.127460	0.373024	0.659385
C55	C	0.707263	-0.113496	0.142617
C56	C	1.207263	0.386504	0.642617
C57	C	0.738853	-0.065971	0.083487
C58	C	1.238853	0.434029	0.583487
C59	C	0.690635	-0.031920	0.041123
C60	C	1.190635	0.468080	0.541123
C61	C	0.595873	-0.174510	0.218512
C62	C	1.095873	0.325490	0.718512
C63	C	0.644085	-0.208557	0.260875
C64	C	1.144085	0.291443	0.760875
C65	C	0.723890	-0.195072	0.244111
C66	C	1.223890	0.304928	0.744111
C67	C	0.755481	-0.147547	0.184981
C68	C	1.255481	0.352453	0.684981
C69	C	0.772108	-0.229123	0.286475
C70	C	1.272108	0.270877	0.786475
C71	C	0.851911	-0.215644	0.269708
C72	C	1.351911	0.284356	0.769708
C73	C	0.835283	-0.134068	0.168214
C74	C	1.335283	0.365932	0.668214
C75	C	1.184652	-0.642385	0.124590
C76	C	1.684652	-0.142385	0.624590
C77	C	1.149433	-0.597329	0.177529
C78	C	1.649433	-0.097329	0.677529
C79	C	1.152844	-0.503307	0.172316
C80	C	1.652844	-0.003307	0.672316
C81	C	1.181241	-0.736416	0.129803
C82	C	1.681241	-0.236416	0.629803
C83	C	1.366287	-0.086686	0.109245
C84	C	1.866287	0.413314	0.609245
C85	C	1.451224	-0.072363	0.091422
C86	C	1.951224	0.427637	0.591422
C87	C	1.208943	-0.069632	0.346342
C88	C	1.708943	0.430368	0.846342
C89	C	1.226828	-0.048042	0.429556
C90	C	1.726828	0.451958	0.929556
C91	C	1.175070	0.096329	0.139073
C92	C	1.675070	0.596329	0.639073
C93	C	1.178521	0.188642	0.133961
C94	C	1.678521	0.688642	0.633961
C95	C	1.125208	-0.170695	-0.043454
C96	C	1.625208	0.329305	0.456546
C97	C	1.107479	-0.192026	-0.126711
C98	C	1.607479	0.307974	0.373289
C99	C	1.031404	-0.283810	0.769211
C100	C	1.531404	0.216190	1.269211
C101	C	1.048227	-0.263510	0.847398
C102	C	1.548227	0.236490	1.347398
C103	C	1.149930	-0.140811	0.820997
C104	C	1.649930	0.359189	1.320997
C105	C	1.133113	-0.161098	0.742806
C106	C	1.633113	0.338902	1.242806
C107	C	1.073849	-0.232600	0.716919
C108	C	1.573849	0.267400	1.216919
C109	C	1.175559	-0.109888	0.690514
C110	C	1.675559	0.390112	1.190514
C111	C	1.158746	-0.130177	0.612330
C112	C	1.658746	0.369823	1.112330
C113	C	1.099486	-0.201676	0.586437
C114	C	1.599486	0.298324	1.086437
C115	C	1.057036	-0.252889	0.638735
C116	C	1.557036	0.247111	1.138735
C117	C	1.234826	-0.038390	0.716401
C118	C	1.734826	0.461610	1.216401
C119	C	1.277271	0.012820	0.664110
C120	C	1.777271	0.512820	1.164110
C121	C	1.260455	-0.007465	0.585925
C122	C	1.760455	0.492535	1.085925
C123	C	1.201196	-0.078964	0.560032
C124	C	1.701196	0.421036	1.060032
C125	C	1.302905	0.043748	0.533626
C126	C	1.802905	0.543748	1.033626
C127	C	1.286092	0.023459	0.455442
C128	C	1.786092	0.523459	0.955442
C129	C	1.184383	-0.099253	0.481847
C130	C	1.684383	0.400747	0.981847
H131	H	0.861004	-0.095349	0.120074
H132	H	1.361004	0.404651	0.620074
N133	N	1.108377	-0.637507	0.239297
N134	N	1.608377	-0.137507	0.739297
N135	N	1.075256	-0.595201	0.289068
N136	N	1.575256	-0.095201	0.789068
H137	H	1.046257	-0.623579	0.332688
H138	H	1.546257	-0.123579	0.832688
H139	H	0.746378	-0.267829	0.334615
H140	H	1.246378	0.232171	0.834615
H141	H	0.716355	0.006798	-0.007017
H142	H	1.216355	0.506798	0.492983
N143	N	0.970864	-0.356838	0.742747
N144	N	1.470864	0.143162	1.242747
N145	N	0.913887	-0.347143	0.707716
N146	N	1.413887	0.152857	1.207716
H147	H	0.871134	-0.398716	0.689022
H148	H	1.371134	0.101284	1.189022
H149	H	1.217362	-0.610350	0.075355
H150	H	1.717362	-0.110350	0.575355
H151	H	1.136107	-0.157460	0.460772
H152	H	1.636107	0.342540	0.960772
H153	H	1.085801	-0.218197	0.522773
H154	H	1.585801	0.281803	1.022773
H155	H	1.008761	-0.311095	0.617660
H156	H	1.508761	0.188905	1.117660
N157	N	1.004839	-0.315816	0.900807
N158	N	1.504839	0.184184	1.400807
N159	N	0.951917	-0.379640	0.877682
N160	N	1.451917	0.120360	1.377682
H161	H	0.921268	-0.416574	0.915402
H162	H	1.421268	0.083426	1.415402
H163	H	1.248515	-0.021875	0.780065
H164	H	1.748515	0.478125	1.280065
H165	H	1.198184	-0.082596	0.842084
H166	H	1.698184	0.417404	1.342084
N167	N	0.433575	0.009945	-0.010980
N168	N	0.933575	0.509945	0.489020
N169	N	0.461789	0.052377	-0.063772
N170	N	0.961789	0.552377	0.436228
H171	H	0.427015	0.076943	-0.094343
H172	H	0.927015	0.576943	0.405657
N173	N	0.820372	-0.052200	0.066371
N174	N	1.320372	0.447800	0.566371
N175	N	0.869204	-0.013765	0.116353
N176	N	1.369204	0.486235	0.616353
H177	H	0.926778	-0.004038	0.104266
H178	H	1.426778	0.495962	0.604266
H179	H	0.891167	-0.243367	0.304205
H180	H	1.391167	0.256633	0.804205
N181	N	1.337807	0.085847	0.690568
N182	N	1.837807	0.585847	1.190568
N183	N	1.352815	0.103952	0.760376
N184	N	1.852815	0.603952	1.260376
H185	H	1.395569	0.155528	0.779062
H186	H	1.895569	0.655528	1.279062
N187	N	0.594881	0.037220	-0.044862
N188	N	1.094881	0.537220	0.455138
N189	N	0.551831	0.067630	-0.082674
N190	N	1.051831	0.567630	0.417326
H191	H	0.574616	0.101937	-0.125321
H192	H	1.074616	0.601937	0.374679
H193	H	1.351162	0.101959	0.554715
H194	H	1.851162	0.601959	1.054715
N195	N	1.329445	0.075784	0.402033
N196	N	1.829445	0.575784	0.902033
N197	N	1.329114	0.153829	0.407583
N198	N	1.829114	0.653829	0.907583
H199	H	1.359734	0.190785	0.369863
H200	H	1.859734	0.690785	0.869863
N201	N	0.467168	-0.154974	0.194178
N202	N	0.967168	0.345026	0.694178
N203	N	0.414995	-0.222229	0.180048
N204	N	0.914995	0.277771	0.680048
H205	H	0.392206	-0.256526	0.222700
H206	H	0.892206	0.243474	0.722700
N207	N	0.514359	-0.188258	0.235649
N208	N	1.014359	0.311742	0.735649
N209	N	0.484541	-0.125428	0.255297
N210	N	0.984541	0.374572	0.755297
H211	H	0.426972	-0.135132	0.267403
H212	H	0.926972	0.364868	0.767403
H213	H	0.618357	-0.247258	0.309018
H214	H	1.118357	0.252742	0.809018
