data_functionalizedCrystal
_audit_creation_method	'MofGen! by Chris Wilmer'
_symmetry_space_group_name_H-M	'P1'
_symmetry_Int_Tables_number	1
_symmetry_cell_setting	triclinic
loop_
_symmetry_equiv_pos_as_xyz
  x,y,z
_cell_length_a	19.121241
_cell_length_b	19.121063
_cell_length_c	18.101389
_cell_angle_alpha	87.580609
_cell_angle_beta	92.462998
_cell_angle_gamma	95.003121
loop_
_atom_site_label
_atom_site_type_symbol
_atom_site_fract_x
_atom_site_fract_y
_atom_site_fract_z
Zn1	Zn	1.063740	-0.234412	0.477195
Zn2	Zn	1.397073	0.098922	0.810528
Zn3	Zn	1.730406	0.432255	1.143861
Zn4	Zn	1.058629	-0.352065	0.358407
Zn5	Zn	1.391962	-0.018732	0.691741
Zn6	Zn	1.725295	0.314601	1.025074
Zn7	Zn	0.946073	-0.239422	0.348290
Zn8	Zn	1.279406	0.093911	0.681624
Zn9	Zn	1.612739	0.427244	1.014957
Zn10	Zn	0.941015	-0.357051	0.477132
Zn11	Zn	1.274348	-0.023718	0.810465
Zn12	Zn	1.607682	0.309616	1.143798
O13	O	1.002364	-0.295738	0.415256
O14	O	1.335697	0.037596	0.748589
O15	O	1.669031	0.370929	1.081923
O16	O	1.161527	-0.245835	0.465698
O17	O	1.494861	0.087498	0.799031
O18	O	1.828194	0.420832	1.132364
O19	O	1.043676	-0.337133	0.253432
O20	O	1.377009	-0.003800	0.586765
O21	O	1.710342	0.329533	0.920098
O22	O	0.965937	-0.140291	0.361182
O23	O	1.299271	0.193042	0.694515
O24	O	1.632604	0.526375	1.027849
O25	O	1.157772	-0.332275	0.378425
O26	O	1.491106	0.001059	0.711758
O27	O	1.824439	0.334392	1.045092
O28	O	1.052386	-0.136610	0.455887
O29	O	1.385720	0.196724	0.789221
O30	O	1.719053	0.530057	1.122554
O31	O	0.960981	-0.254375	0.245999
O32	O	1.294315	0.078958	0.579332
O33	O	1.627648	0.412291	0.912665
O34	O	0.846936	-0.259210	0.361121
O35	O	1.180269	0.074123	0.694454
O36	O	1.513603	0.407457	1.027788
O37	O	0.957317	-0.340772	0.580773
O38	O	1.290650	-0.007439	0.914107
O39	O	1.623984	0.325894	1.247440
O40	O	0.843220	-0.345631	0.455780
O41	O	1.176554	-0.012298	0.789113
O42	O	1.509887	0.321036	1.122447
O43	O	1.047482	-0.250669	0.580820
O44	O	1.380815	0.082664	0.914153
O45	O	1.714149	0.415997	1.247486
O46	O	1.038771	-0.451193	0.378364
O47	O	1.372105	-0.117860	0.711697
O48	O	1.705438	0.215474	1.045031
O49	O	0.952361	-0.454856	0.465590
O50	O	1.285694	-0.121523	0.798924
O51	O	1.619028	0.211810	1.132257
C52	C	0.819547	-0.303506	0.407346
C53	C	1.152880	0.029828	0.740680
C54	C	1.486214	0.363161	1.074013
C55	C	0.741337	-0.306846	0.403981
C56	C	1.074670	0.026487	0.737314
C57	C	1.408003	0.359821	1.070647
C58	C	0.706546	-0.263482	0.447913
C59	C	1.039879	0.069851	0.781247
C60	C	1.373212	0.403185	1.114580
C61	C	0.633059	-0.266617	0.444744
C62	C	0.966392	0.066716	0.778078
C63	C	1.299725	0.400049	1.111411
C64	C	0.594364	-0.313120	0.397647
C65	C	0.927697	0.020213	0.730980
C66	C	1.261030	0.353546	1.064313
C67	C	0.629160	-0.356486	0.353709
C68	C	0.962493	-0.023152	0.687043
C69	C	1.295826	0.310181	1.020376
C70	C	0.702645	-0.353347	0.356875
C71	C	1.035979	-0.020013	0.690208
C72	C	1.369312	0.313320	1.023541
C73	C	0.372386	-0.324843	0.385809
C74	C	0.705720	0.008490	0.719142
C75	C	1.039053	0.341824	1.052475
C76	C	0.298895	-0.327980	0.382648
C77	C	0.632229	0.005353	0.715982
C78	C	0.965562	0.338686	1.049315
C79	C	0.302800	-0.238111	0.473683
C80	C	0.636133	0.095223	0.807016
C81	C	0.969466	0.428556	1.140350
C82	C	0.376287	-0.234979	0.476847
C83	C	0.709620	0.098355	0.810181
C84	C	1.042953	0.431688	1.143514
C85	C	0.411076	-0.278341	0.432907
C86	C	0.744409	0.054992	0.766241
C87	C	1.077743	0.388325	1.099574
C88	C	0.519248	-0.316327	0.394408
C89	C	0.852581	0.017006	0.727742
C90	C	1.185915	0.350339	1.061075
C91	C	0.486191	-0.275130	0.436142
C92	C	0.819524	0.058203	0.769475
C93	C	1.152857	0.391537	1.102809
C94	C	0.994482	-0.478555	0.423085
C95	C	1.327815	-0.145222	0.756418
C96	C	1.661148	0.188112	1.089752
C97	C	0.991174	-0.556763	0.426462
C98	C	1.324507	-0.223429	0.759795
C99	C	1.657841	0.109904	1.093129
C100	C	1.034644	-0.591573	0.382675
C101	C	1.367978	-0.258239	0.716008
C102	C	1.701311	0.075094	1.049342
C103	C	1.031538	-0.665057	0.385856
C104	C	1.364871	-0.331723	0.719189
C105	C	1.698204	0.001610	1.052522
C106	C	0.984957	-0.703729	0.432819
C107	C	1.318290	-0.370396	0.766153
C108	C	1.651623	-0.037063	1.099486
C109	C	0.941485	-0.668914	0.476611
C110	C	1.274818	-0.335581	0.809945
C111	C	1.608151	-0.002248	1.143278
C112	C	0.944595	-0.595431	0.473434
C113	C	1.277929	-0.262098	0.806767
C114	C	1.611262	0.071235	1.140101
C115	C	0.973315	-0.925697	0.444686
C116	C	1.306648	-0.592364	0.778019
C117	C	1.639982	-0.259030	1.111352
C118	C	0.970206	-0.999185	0.447858
C119	C	1.303539	-0.665852	0.781191
C120	C	1.636873	-0.332518	1.114525
C121	C	1.060260	-0.995322	0.357103
C122	C	1.393594	-0.661989	0.690436
C123	C	1.726927	-0.328655	1.023770
C124	C	1.063364	-0.921838	0.353927
C125	C	1.396697	-0.588505	0.687260
C126	C	1.730031	-0.255171	1.020593
C127	C	1.019895	-0.887029	0.397721
C128	C	1.353228	-0.553696	0.731055
C129	C	1.686561	-0.220362	1.064388
C130	C	0.981778	-0.778842	0.436070
C131	C	1.315112	-0.445509	0.769403
C132	C	1.648445	-0.112175	1.102737
C133	C	1.023077	-0.811918	0.394474
C134	C	1.356410	-0.478584	0.727808
C135	C	1.689744	-0.145251	1.061141
C136	C	1.185895	-0.287940	0.423197
C137	C	1.519228	0.045394	0.756530
C138	C	1.852561	0.378727	1.089864
C139	C	1.264105	-0.284617	0.426581
C140	C	1.597438	0.048717	0.759914
C141	C	1.930771	0.382050	1.093247
C142	C	1.002405	-0.295718	0.608419
C143	C	1.335739	0.037615	0.941752
C144	C	1.669072	0.370949	1.275086
C145	C	1.002423	-0.295710	0.690733
C146	C	1.335756	0.037624	1.024067
C147	C	1.669090	0.370957	1.357400
C148	C	1.010296	-0.112205	0.407413
C149	C	1.343629	0.221128	0.740747
C150	C	1.676963	0.554461	1.074080
C151	C	1.013676	-0.033995	0.404071
C152	C	1.347010	0.299338	0.737404
C153	C	1.680343	0.632672	1.070738
C154	C	1.002365	-0.295705	0.222844
C155	C	1.335699	0.037629	0.556177
C156	C	1.669032	0.370962	0.889511
C157	C	1.002493	-0.295509	0.140527
C158	C	1.335826	0.037824	0.473861
C159	C	1.669159	0.371158	0.807194
C160	C	1.002470	-0.295576	0.989821
C161	C	1.335803	0.037757	1.323154
C162	C	1.669136	0.371091	1.656487
C163	C	0.945560	-0.352101	0.958451
C164	C	1.278893	-0.018768	1.291784
C165	C	1.612227	0.314565	1.625117
C166	C	0.945697	-0.352347	0.872850
C167	C	1.279030	-0.019013	1.206183
C168	C	1.612364	0.314320	1.539516
C169	C	1.002446	-0.295642	0.841440
C170	C	1.335779	0.037691	1.174773
C171	C	1.669113	0.371024	1.508107
C172	C	1.075724	-0.312614	0.876603
C173	C	1.409057	0.020719	1.209936
C174	C	1.742390	0.354052	1.543269
C175	C	1.075404	-0.312983	0.962250
C176	C	1.408738	0.020350	1.295583
C177	C	1.742071	0.353684	1.628916
C178	C	0.986751	-0.221931	0.954231
C179	C	1.320084	0.111402	1.287564
C180	C	1.653418	0.444736	1.620897
C181	C	0.985083	-0.222431	0.868527
C182	C	1.318417	0.110902	1.201860
C183	C	1.651750	0.444235	1.535194
C184	C	1.002437	-0.295679	0.757582
C185	C	1.335770	0.037655	1.090915
C186	C	1.669104	0.370988	1.424248
C187	C	1.002483	-0.295542	1.073679
C188	C	1.335817	0.037792	1.407013
C189	C	1.669150	0.371125	1.740346
H190	H	0.738046	-0.225616	0.486267
H191	H	1.071379	0.107717	0.819601
H192	H	1.404713	0.441050	1.152934
Br193	Br	1.086296	-0.759432	0.330744
Br194	Br	1.419630	-0.426099	0.664078
Br195	Br	1.752963	-0.092765	0.997411
Br196	Br	0.918564	-0.831333	0.499806
Br197	Br	1.251898	-0.497999	0.833140
Br198	Br	1.585231	-0.164666	1.166473
Br199	Br	0.246380	-0.391116	0.318748
Br200	Br	0.579713	-0.057783	0.652081
Br201	Br	0.913046	0.275551	0.985414
Br202	Br	1.099058	-0.401203	0.845894
Br203	Br	1.432391	-0.067870	1.179228
Br204	Br	1.765724	0.265464	1.512561
H205	H	0.730971	-0.388658	0.321100
H206	H	1.064304	-0.055324	0.654433
H207	H	1.397638	0.278009	0.987766
H208	H	0.407787	-0.197113	0.515202
H209	H	0.741120	0.136220	0.848535
H210	H	1.074454	0.469553	1.181869
Br211	Br	0.255582	-0.179264	0.533312
Br212	Br	0.588915	0.154069	0.866646
Br213	Br	0.922248	0.487403	1.199979
H214	H	0.909198	-0.567090	0.509091
H215	H	1.242532	-0.233757	0.842424
H216	H	1.575865	0.099577	1.175758
H217	H	0.517699	-0.237265	0.474486
H218	H	0.851033	0.096069	0.807819
H219	H	1.184366	0.429402	1.141152
Br220	Br	0.962607	-0.443428	0.843555
Br221	Br	1.295940	-0.110095	1.176888
Br222	Br	1.629274	0.223238	1.510222
H223	H	1.072572	-0.560090	0.344429
H224	H	1.405906	-0.226756	0.677762
H225	H	1.739239	0.106577	1.011095
H226	H	0.597648	-0.394346	0.315358
H227	H	0.930982	-0.061013	0.648691
H228	H	1.264315	0.272321	0.982024
Br229	Br	1.119255	-1.042566	0.297675
Br230	Br	1.452588	-0.709233	0.631008
Br231	Br	1.785921	-0.375899	0.964341
Br232	Br	0.906973	-1.051670	0.511586
Br233	Br	1.240306	-0.718337	0.844919
Br234	Br	1.573640	-0.385004	1.178253
H235	H	0.400703	-0.360153	0.350030
H236	H	0.734036	-0.026820	0.683364
H237	H	1.067370	0.306514	1.016697
H238	H	0.890952	-0.341982	0.976127
H239	H	1.224285	-0.008649	1.309460
H240	H	1.557618	0.324684	1.642794
Br241	Br	0.854965	-0.335249	0.832942
Br242	Br	1.188298	-0.001915	1.166276
Br243	Br	1.521632	0.331418	1.499609
Br244	Br	0.878273	-0.721398	0.540356
Br245	Br	1.211606	-0.388065	0.873689
Br246	Br	1.544939	-0.054731	1.207022
H247	H	1.028240	-0.179856	0.974482
H248	H	1.361573	0.153478	1.307816
H249	H	1.694907	0.486811	1.641149
Br250	Br	0.895223	-0.201006	0.829650
Br251	Br	1.228556	0.132328	1.162984
Br252	Br	1.561890	0.465661	1.496317
H253	H	0.604735	-0.231307	0.480520
H254	H	0.938069	0.102026	0.813854
H255	H	1.271402	0.435360	1.147187
H256	H	0.937919	-0.897361	0.480344
H257	H	1.271253	-0.564028	0.813677
H258	H	1.604586	-0.230695	1.147010
H259	H	0.955571	-0.406423	0.982866
H260	H	1.288904	-0.073090	1.316199
H261	H	1.622238	0.260244	1.649533
Br262	Br	0.466728	-0.379436	0.330491
Br263	Br	0.800061	-0.046103	0.663824
Br264	Br	1.133394	0.287230	0.997157
H265	H	1.089100	-0.366725	0.985263
H266	H	1.422433	-0.033391	1.318596
H267	H	1.755767	0.299942	1.651929
H268	H	0.934413	-0.205854	0.972741
H269	H	1.267746	0.127479	1.306075
H270	H	1.601079	0.460812	1.639408
Br271	Br	1.126592	-0.869358	0.290198
Br272	Br	1.459926	-0.536024	0.623531
Br273	Br	1.793259	-0.202691	0.956864
Br274	Br	1.148147	-0.247014	0.997131
Br275	Br	1.481480	0.086319	1.330464
Br276	Br	1.814814	0.419653	1.663798
Br277	Br	1.049557	-0.148932	0.832496
Br278	Br	1.382890	0.184401	1.165829
Br279	Br	1.716224	0.517734	1.499163
H280	H	1.066935	-0.693396	0.350199
H281	H	1.400269	-0.360062	0.683532
H282	H	1.733602	-0.026729	1.016866
Br283	Br	1.148069	-0.245920	0.842955
Br284	Br	1.481402	0.087413	1.176288
Br285	Br	1.814735	0.420747	1.509621
