data_functionalizedCrystal
_audit_creation_method	'MofGen! by Chris Wilmer'
_symmetry_space_group_name_H-M	'P1'
_symmetry_Int_Tables_number	1
_symmetry_cell_setting	triclinic
loop_
_symmetry_equiv_pos_as_xyz
  x,y,z
_cell_length_a	6.817900
_cell_length_b	19.453172
_cell_length_c	19.453046
_cell_angle_alpha	96.321121
_cell_angle_beta	101.708137
_cell_angle_gamma	101.710488
loop_
_atom_site_label
_atom_site_type_symbol
_atom_site_fract_x
_atom_site_fract_y
_atom_site_fract_z
V1	V	-3.998002	-0.097929	-0.219332
O2	O	-3.995095	0.003938	-0.214819
O3	O	-3.941029	-0.193439	-0.218157
O4	O	-3.941022	-0.096760	-0.314842
O5	O	-3.995103	-0.093410	-0.117464
V6	V	-4.483853	-0.085705	-0.207108
O7	O	-4.254155	-0.124745	-0.246145
O8	O	-4.677898	-0.058890	-0.180295
O9	O	-4.317619	0.009804	-0.208284
O10	O	-4.604157	-0.187572	-0.211621
O11	O	-4.604149	-0.090224	-0.308976
O12	O	-4.317627	-0.086874	-0.111598
C13	C	-3.784222	-0.216711	-0.214780
C14	C	-3.818870	-0.294793	-0.214456
C15	C	-4.247897	-0.855867	-0.216327
C16	C	-4.215358	-0.782500	-0.216627
C17	C	-4.017280	-0.742117	-0.212601
C18	C	-3.851720	-0.775102	-0.208256
C19	C	-3.884259	-0.848467	-0.207949
N20	N	-3.850592	-0.630552	-0.250132
N21	N	-3.819694	-0.560859	-0.250426
C22	C	-3.919229	-0.521073	-0.213524
N23	N	-4.050864	-0.553614	-0.176327
N24	N	-4.081772	-0.623314	-0.176037
C25	C	-3.981976	-0.662564	-0.212932
C26	C	-4.049497	-0.408542	-0.218188
C27	C	-4.016948	-0.335173	-0.218484
C28	C	-3.653309	-0.327777	-0.210119
C29	C	-3.685858	-0.401144	-0.209817
C30	C	-3.883958	-0.441522	-0.213855
C31	C	-3.784212	-0.093387	-0.338111
C32	C	-3.818851	-0.093063	-0.416193
C33	C	-4.099610	-0.155081	-0.983818
C34	C	-4.067050	-0.155391	-0.910452
C35	C	-4.017299	-0.091186	-0.863514
C36	C	-4.000057	-0.026666	-0.889946
C37	C	-4.032597	-0.026358	-0.963310
N38	N	-4.054600	-0.045960	-0.742935
N39	N	-4.023694	-0.046257	-0.673242
C40	C	-3.919252	-0.092111	-0.642470
N41	N	-3.846912	-0.137667	-0.684025
N42	N	-3.877830	-0.137372	-0.753725
C43	C	-3.982010	-0.091513	-0.783961
C44	C	-3.901177	-0.156962	-0.536495
C45	C	-3.868603	-0.157269	-0.463127
C46	C	-3.801630	-0.028543	-0.442622
C47	C	-3.834184	-0.028238	-0.515988
C48	C	-3.883966	-0.092449	-0.562921
C49	C	-4.137768	0.033073	-0.211658
C50	C	-4.082359	0.111154	-0.211987
C51	C	-4.137779	-0.090249	-0.088325
C52	C	-4.082379	-0.090570	-0.010243
H53	H	-4.151756	-0.308323	-0.222015
N54	N	-3.750837	0.037048	-0.394695
N55	N	-3.735481	0.094644	-0.418303
H56	H	-3.699603	0.140970	-0.384452
H57	H	-3.749452	-0.875317	-0.204416
H58	H	-4.409201	-0.888739	-0.219613
H59	H	-3.492028	-0.294897	-0.206839
H60	H	-4.350161	-0.755644	-0.220157
N61	N	-3.949282	0.038916	-0.842004
N62	N	-4.070826	0.079327	-0.846109
H63	H	-4.034960	0.125647	-0.812250
N64	N	-3.649398	-0.733843	-0.204137
N65	N	-3.620368	-0.668340	-0.204411
H66	H	-3.477471	-0.639200	-0.201499
H67	H	-3.820159	0.024294	-0.537503
H68	H	-4.081075	-0.207925	-0.888933
H69	H	-4.210799	-0.441419	-0.221473
H70	H	-3.551059	-0.427995	-0.206285
N71	N	-4.150392	-0.220662	-1.031765
N72	N	-4.179414	-0.220381	-1.097267
H73	H	-4.215265	-0.266697	-1.131132
H74	H	-4.018568	0.026176	-0.984823
H75	H	-3.941695	-0.209247	-0.574709
N76	N	-3.886376	-0.223179	-0.436148
N77	N	-3.930945	-0.280503	-0.478065
H78	H	-3.943568	-0.327055	-0.459013
