data_functionalizedCrystal
_audit_creation_method	'MofGen! by Chris Wilmer'
_symmetry_space_group_name_H-M	'P1'
_symmetry_Int_Tables_number	1
_symmetry_cell_setting	triclinic
loop_
_symmetry_equiv_pos_as_xyz
  x,y,z
_cell_length_a	30.700809
_cell_length_b	30.711276
_cell_length_c	30.700862
_cell_angle_alpha	59.998386
_cell_angle_beta	89.999414
_cell_angle_gamma	60.000191
loop_
_atom_site_label
_atom_site_type_symbol
_atom_site_fract_x
_atom_site_fract_y
_atom_site_fract_z
O1	O	-0.371254	-0.311651	0.012944
O2	O	-0.307913	-0.222487	-0.012907
O3	O	-0.307911	-0.311650	0.076286
O4	O	-0.371257	-0.222488	-0.076249
O5	O	-0.235466	-0.384070	0.076286
O6	O	-0.235468	-0.294907	-0.012907
O7	O	-0.298809	-0.384071	0.012944
Cu8	Cu	-0.260524	-0.346102	0.000018
Cu9	Cu	-0.346199	-0.260456	0.000019
O10	O	-0.298812	-0.294908	-0.076249
C11	C	-0.234796	-0.137097	-0.018777
C12	C	-0.261674	-0.083360	-0.015076
C13	C	-0.182374	-0.163176	-0.019143
C14	C	-0.234798	-0.215942	-0.018783
C15	C	-0.261678	-0.246507	-0.015089
C16	C	-0.182376	-0.241901	-0.019150
C17	C	-0.155920	-0.215947	-0.018777
C18	C	-0.098463	-0.246515	-0.015075
C19	C	-0.261132	-0.163172	-0.019150
C20	C	-0.574961	-0.535511	0.039265
C21	C	-0.548506	-0.588283	0.039634
C22	C	-0.496086	-0.535509	0.039262
C23	C	-0.469751	-0.588281	0.039632
C24	C	-0.496085	-0.614360	0.039265
C25	C	-0.548507	-0.509552	0.039632
C26	C	-0.765169	-0.393516	0.024987
C27	C	-0.819034	-0.364488	0.020950
C28	C	-0.846055	-0.389406	0.018925
C29	C	-0.904462	-0.357927	0.014538
C30	C	-0.819206	-0.443357	0.020941
C31	C	-0.765344	-0.472385	0.024984
C32	C	-0.738325	-0.447463	0.027007
C33	C	-0.447920	-0.790230	0.024988
C34	C	-0.423094	-0.840041	0.020951
C35	C	-0.371150	-0.865027	0.018921
C36	C	-0.344230	-0.919028	0.014536
C37	C	-0.344030	-0.840201	0.020935
C38	C	-0.368852	-0.790399	0.024981
C39	C	-0.420803	-0.765414	0.027004
C40	C	-0.447922	-0.393510	0.024977
C41	C	-0.423099	-0.364475	0.020931
C42	C	-0.371152	-0.389391	0.018903
C43	C	-0.344235	-0.357911	0.014513
C44	C	-0.344034	-0.443338	0.020916
C45	C	-0.368860	-0.472368	0.024960
C46	C	-0.420804	-0.447452	0.026995
C47	C	-0.679920	-0.478941	0.031387
C48	C	-0.633366	-0.504032	0.034880
C49	C	-0.469171	-0.504029	0.034875
C50	C	-0.447717	-0.478936	0.031380
C51	C	-0.469170	-0.668361	0.034880
C52	C	-0.447716	-0.711408	0.031386
C53	C	-0.496432	-0.071057	-0.503890
C54	C	-0.548853	-0.018285	-0.530226
C55	C	-0.496432	-0.071056	-0.425015
C56	C	-0.548854	-0.018284	-0.451470
C57	C	-0.575308	0.007793	-0.503892
C58	C	-0.470097	-0.097014	-0.451469
C59	C	-0.368666	-0.213054	-0.552051
C60	C	-0.343664	-0.242084	-0.576877
C61	C	-0.370616	-0.217167	-0.628824
C62	C	-0.343513	-0.248647	-0.655741
C63	C	-0.422570	-0.163216	-0.655945
C64	C	-0.447565	-0.134187	-0.631122
C65	C	-0.420611	-0.159108	-0.579173
C66	C	-0.765518	0.183662	-0.631659
C67	C	-0.819384	0.233473	-0.656662
C68	C	-0.846408	0.258459	-0.629712
C69	C	-0.904813	0.312461	-0.656813
C70	C	-0.819559	0.233635	-0.577758
C71	C	-0.765694	0.183833	-0.552761
C72	C	-0.738677	0.158847	-0.579717
C73	C	-0.368668	-0.213052	-0.234803
C74	C	-0.343669	-0.242086	-0.180935
C75	C	-0.370621	-0.217169	-0.153914
C76	C	-0.343519	-0.248648	-0.095506
C77	C	-0.422573	-0.163222	-0.180762
C78	C	-0.447570	-0.134193	-0.234627
C79	C	-0.420610	-0.159111	-0.261646
C80	C	-0.447720	-0.127629	-0.552258
C81	C	-0.469327	-0.102536	-0.530805
C82	C	-0.469328	-0.102535	-0.366609
C83	C	-0.447721	-0.127627	-0.320054
C84	C	-0.633714	0.061794	-0.530997
C85	C	-0.680269	0.104841	-0.552605
O86	O	0.076277	-0.384081	0.012960
O87	O	-0.076257	-0.294916	-0.012894
O88	O	0.012931	-0.384083	0.076300
O89	O	-0.012910	-0.294914	-0.076234
O90	O	0.012933	-0.311666	0.076306
O91	O	-0.076254	-0.222499	-0.012888
O92	O	0.076280	-0.311664	0.012966
Cu93	Cu	0.000013	-0.260469	0.000040
Cu94	Cu	0.000010	-0.346111	0.000033
O95	O	-0.012908	-0.222497	-0.076228
O96	O	-0.298805	0.063292	0.012964
O97	O	-0.235462	-0.063346	-0.012888
O98	O	-0.235465	-0.063353	0.076305
O99	O	-0.298803	0.063300	-0.076229
O100	O	-0.307912	-0.063350	0.076299
O101	O	-0.307909	-0.063342	-0.012895
O102	O	-0.371252	0.063295	0.012958
Cu103	Cu	-0.346196	-0.000023	0.000031
Cu104	Cu	-0.260519	-0.000027	0.000039
O105	O	-0.371250	0.063303	-0.076236
O106	O	-1.076607	0.456783	-0.692421
O107	O	-0.924074	0.330140	-0.629074
O108	O	-1.013262	0.330138	-0.629073
O109	O	-0.987418	0.456785	-0.692422
O110	O	-1.013261	0.330136	-0.701518
O111	O	-0.924072	0.330138	-0.701518
O112	O	-1.076605	0.456781	-0.764865
Cu113	Cu	-1.000338	0.393460	-0.739807
Cu114	Cu	-1.000340	0.393461	-0.654133
O115	O	-0.987417	0.456783	-0.764866
O116	O	-0.307911	-0.311650	-0.764507
O117	O	-0.371254	-0.222491	-0.701165
O118	O	-0.371252	-0.311652	-0.701162
O119	O	-0.307912	-0.222489	-0.764510
O120	O	-0.298806	-0.384074	-0.628716
O121	O	-0.298807	-0.294912	-0.628719
O122	O	-0.235464	-0.384072	-0.692061
Cu123	Cu	-0.260521	-0.346105	-0.653775
Cu124	Cu	-0.346197	-0.260458	-0.739451
O125	O	-0.235466	-0.294910	-0.692064
C126	C	-0.155920	-0.469469	0.234827
C127	C	-0.098464	-0.523208	0.261706
C128	C	-0.182375	-0.443392	0.261162
C129	C	-0.234797	-0.390619	0.155950
C130	C	-0.261676	-0.360052	0.098494
C131	C	-0.261132	-0.364662	0.182405
C132	C	-0.234797	-0.390620	0.234826
C133	C	-0.261675	-0.360052	0.261704
C134	C	-0.182375	-0.443391	0.182406
C135	C	0.018810	-0.390643	0.234846
C136	C	0.015111	-0.360079	0.261727
C137	C	0.019176	-0.443414	0.261179
C138	C	0.018812	-0.390637	0.155967
C139	C	0.015115	-0.360067	0.098511
C140	C	0.019178	-0.443408	0.182420
C141	C	0.018807	-0.469488	0.234841
C142	C	0.015106	-0.523226	0.261717
C143	C	0.019180	-0.364683	0.182425
C144	C	-0.234799	-0.215977	0.234834
C145	C	-0.261678	-0.246545	0.261708
C146	C	-0.182376	-0.241940	0.261172
C147	C	-0.234798	-0.137119	0.155964
C148	C	-0.261676	-0.083372	0.098509
C149	C	-0.182375	-0.163202	0.182421
C150	C	-0.155921	-0.215981	0.234841
C151	C	-0.098464	-0.246554	0.261721
C152	C	-0.261134	-0.163198	0.182415
C153	C	-0.039199	0.007461	-0.503869
C154	C	-0.039568	-0.018614	-0.530207
C155	C	-0.039203	-0.071390	-0.424995
C156	C	-0.039572	-0.097344	-0.451452
C157	C	-0.039201	-0.071385	-0.503874
C158	C	-0.039570	-0.018618	-0.451448
C159	C	-0.024912	0.183325	-0.552025
C160	C	-0.020873	0.233135	-0.576849
C161	C	-0.018844	0.258123	-0.628796
C162	C	-0.014454	0.312124	-0.655711
C163	C	-0.020859	0.233301	-0.655918
C164	C	-0.024906	0.183500	-0.631097
C165	C	-0.026932	0.158512	-0.579148
C166	C	-0.024920	-0.133799	-0.631644
C167	C	-0.020882	-0.162650	-0.656647
C168	C	-0.018855	-0.216605	-0.629699
C169	C	-0.014470	-0.247897	-0.656801
C170	C	-0.020872	-0.241704	-0.577746
C171	C	-0.024919	-0.212847	-0.552747
C172	C	-0.026939	-0.158893	-0.579702
C173	C	-0.024929	-0.133823	-0.234783
C174	C	-0.020887	-0.162684	-0.180915
C175	C	-0.018862	-0.216639	-0.153896
C176	C	-0.014477	-0.247936	-0.095488
C177	C	-0.020875	-0.241733	-0.180745
C178	C	-0.024915	-0.212872	-0.234610
C179	C	-0.026947	-0.158912	-0.261627
C180	C	-0.031316	0.104507	-0.552235
C181	C	-0.034811	0.061462	-0.530782
C182	C	-0.034820	-0.102682	-0.366590
C183	C	-0.031328	-0.127624	-0.320035
C184	C	-0.034816	-0.102672	-0.530980
C185	C	-0.031322	-0.127610	-0.552588
O186	O	-0.012940	-0.294936	0.371303
O187	O	0.012923	-0.384099	0.307961
O188	O	-0.076273	-0.294935	0.307950
O189	O	0.076257	-0.384100	0.371315
O190	O	-0.076265	-0.222515	0.235508
O191	O	0.012932	-0.311679	0.235520
O192	O	-0.012931	-0.222517	0.298862
Cu193	Cu	0.000001	-0.260485	0.260576
Cu194	Cu	-0.000009	-0.346130	0.346247
O195	O	0.076266	-0.311681	0.298873
C196	C	-0.574962	0.464558	-0.503864
C197	C	-0.548506	0.490518	-0.530195
C198	C	-0.496085	0.385697	-0.424987
C199	C	-0.469749	0.411776	-0.451438
C200	C	-0.496084	0.464555	-0.503857
C201	C	-0.548507	0.411779	-0.451444
C202	C	-0.765173	0.526994	-0.552039
C203	C	-0.819039	0.555852	-0.576867
C204	C	-0.846061	0.609814	-0.628812
C205	C	-0.904469	0.641114	-0.655732
C206	C	-0.819211	0.634913	-0.655928
C207	C	-0.765348	0.606050	-0.631102
C208	C	-0.738329	0.552088	-0.579155
C209	C	-0.447916	0.606561	-0.631604
C210	C	-0.423088	0.635592	-0.656601
C211	C	-0.371143	0.610674	-0.629648
C212	C	-0.344222	0.642150	-0.656742
C213	C	-0.344023	0.556716	-0.577696
C214	C	-0.368845	0.527681	-0.552704
C215	C	-0.420798	0.552613	-0.579664
C216	C	-0.447920	0.209802	-0.234786
C217	C	-0.423096	0.159988	-0.180919
C218	C	-0.371148	0.134996	-0.153895
C219	C	-0.344230	0.080987	-0.095489
C220	C	-0.344029	0.159823	-0.180737
C221	C	-0.368856	0.209637	-0.234602
C222	C	-0.420801	0.234620	-0.261624
C223	C	-0.679923	0.520797	-0.552238
C224	C	-0.633367	0.495853	-0.530781
C225	C	-0.469169	0.331687	-0.366583
C226	C	-0.447714	0.288634	-0.320030
C227	C	-0.469167	0.496035	-0.530956
C228	C	-0.447712	0.521128	-0.552558
H229	H	-0.304205	-0.141343	-0.019747
C230	C	-0.153668	-0.299270	-0.019946
C231	C	-0.176662	-0.296702	-0.066411
C232	C	-0.147947	-0.354070	-0.067203
C233	C	-0.096237	-0.414008	-0.021530
C234	C	-0.073239	-0.416579	0.024939
C235	C	-0.101955	-0.359210	0.025731
H236	H	-0.214943	-0.252330	-0.100224
H237	H	-0.164971	-0.352167	-0.101603
H238	H	-0.074980	-0.456476	-0.022117
H239	H	-0.034958	-0.460950	0.058752
H240	H	-0.084930	-0.361113	0.060131
C241	C	-0.153680	-0.133720	0.153731
C242	C	-0.101976	-0.171113	0.145467
C243	C	-0.073281	-0.141633	0.116777
C244	C	-0.096292	-0.074761	0.096351
C245	C	-0.148000	-0.037364	0.104614
C246	C	-0.176694	-0.066843	0.133304
H247	H	-0.084939	-0.220620	0.160589
H248	H	-0.035004	-0.169318	0.110660
H249	H	-0.075051	-0.052938	0.075113
H250	H	-0.165036	0.012143	0.089493
H251	H	-0.214972	-0.039159	0.139421
C252	C	0.019976	-0.307313	0.153718
C253	C	-0.025694	-0.247376	0.102006
C254	C	-0.024901	-0.190006	0.073292
C255	C	0.021561	-0.192573	0.096292
C256	C	0.067235	-0.252513	0.148007
C257	C	0.066442	-0.309883	0.176721
H258	H	-0.060091	-0.245473	0.084978
H259	H	-0.058712	-0.145635	0.035009
H260	H	0.022148	-0.150105	0.075037
H261	H	0.101632	-0.254416	0.165036
H262	H	0.100253	-0.354254	0.215004
H263	H	-0.026547	0.163294	-0.653183
C264	C	-0.319319	-0.307297	0.153717
C265	C	-0.363203	-0.309880	0.133290
C266	C	-0.421387	-0.252518	0.104606
C267	C	-0.435688	-0.192572	0.096349
C268	C	-0.391803	-0.189986	0.116777
C269	C	-0.333618	-0.247348	0.145461
H270	H	-0.352617	-0.354258	0.139402
H271	H	-0.453873	-0.254432	0.089485
H272	H	-0.478759	-0.150108	0.075116
H273	H	-0.402388	-0.145608	0.110665
H274	H	-0.301132	-0.245434	0.160582
C275	C	-0.153681	-0.133694	-0.019942
C276	C	-0.133261	-0.110237	-0.066416
C277	C	-0.104569	-0.080756	-0.067216
C278	C	-0.096297	-0.074731	-0.021543
C279	C	-0.116717	-0.098188	0.024934
C280	C	-0.145409	-0.127670	0.025734
H281	H	-0.139384	-0.114697	-0.100229
H282	H	-0.089452	-0.063391	-0.101622
H283	H	-0.075058	-0.052907	-0.022136
H284	H	-0.110595	-0.093728	0.058747
H285	H	-0.160526	-0.145034	0.060140
C286	C	-0.153679	-0.299314	0.319356
C287	C	-0.145404	-0.359266	0.333651
C288	C	-0.116705	-0.416637	0.391833
C289	C	-0.096280	-0.414056	0.435719
C290	C	-0.104554	-0.354101	0.421425
C291	C	-0.133253	-0.296730	0.363243
H292	H	-0.160524	-0.361179	0.301163
H293	H	-0.110580	-0.461020	0.402414
H294	H	-0.075035	-0.456525	0.478789
H295	H	-0.089434	-0.352188	0.453914
H296	H	-0.139378	-0.252347	0.352662
H297	H	-0.026581	-0.089888	-0.256777
C298	C	-0.153692	-0.472870	0.319350
C299	C	-0.176714	-0.496316	0.363225
C300	C	-0.148037	-0.525790	0.421411
C301	C	-0.096338	-0.531817	0.435721
C302	C	-0.073314	-0.508369	0.391845
C303	C	-0.101991	-0.478896	0.333660
H304	H	-0.214987	-0.491856	0.352632
H305	H	-0.165081	-0.543148	0.453890
H306	H	-0.075109	-0.553635	0.478794
H307	H	-0.035041	-0.512830	0.402438
H308	H	-0.084946	-0.461538	0.301180
C309	C	-0.849280	0.261119	-0.548112
C310	C	-0.898506	0.261610	-0.537554
C311	C	-0.928229	0.289093	-0.507906
C312	C	-0.908724	0.316084	-0.488817
C313	C	-0.859495	0.315594	-0.499374
C314	C	-0.829773	0.288111	-0.529022
H315	H	-0.912947	0.241629	-0.551686
H316	H	-0.964672	0.289456	-0.500091
H317	H	-0.930726	0.336429	-0.466870
H318	H	-0.845054	0.335575	-0.485242
H319	H	-0.793330	0.287748	-0.536837
H320	H	-0.426680	-0.610102	0.040221
H321	H	-0.743837	0.163627	-0.510462
H322	H	-0.489870	-0.090268	-0.256484
H323	H	-0.304205	-0.141373	0.161175
C324	C	-0.577205	-0.617757	0.040426
C325	C	-0.585467	-0.623784	-0.005249
C326	C	-0.614168	-0.653252	-0.004462
C327	C	-0.634607	-0.676693	0.041998
C328	C	-0.626346	-0.670667	0.087676
C329	C	-0.597645	-0.641199	0.086890
H330	H	-0.570336	-0.606431	-0.039645
H331	H	-0.620284	-0.657712	-0.038277
H332	H	-0.655854	-0.698507	0.042580
H333	H	-0.641476	-0.688020	0.122072
H334	H	-0.591529	-0.636738	0.120704
C335	C	-0.040374	-0.154710	-0.422764
C336	C	-0.040769	-0.183403	-0.364977
C337	C	-0.041570	-0.240767	-0.336292
C338	C	-0.041975	-0.269439	-0.365393
C339	C	-0.041580	-0.240746	-0.423183
C340	C	-0.040779	-0.183382	-0.451869
H341	H	-0.040469	-0.162179	-0.343432
H342	H	-0.041862	-0.262008	-0.293512
H343	H	-0.042568	-0.311903	-0.344158
H344	H	-0.041880	-0.261970	-0.444728
H345	H	-0.040486	-0.162141	-0.494649
H346	H	-0.161128	-0.465208	0.161163
C347	C	-0.286885	0.132334	-0.151013
C348	C	-0.274570	0.172874	-0.146163
C349	C	-0.217429	0.145386	-0.116440
C350	C	-0.172601	0.077357	-0.091568
C351	C	-0.184914	0.036813	-0.096418
C352	C	-0.242056	0.064301	-0.126141
H353	H	-0.307755	0.223237	-0.164575
H354	H	-0.208314	0.175400	-0.112850
H355	H	-0.130302	0.057009	-0.069565
H356	H	-0.151729	-0.013550	-0.078005
H357	H	-0.251171	0.034287	-0.129731
C358	C	-0.452928	-0.305136	0.018716
C359	C	-0.472057	-0.305658	0.065236
C360	C	-0.501885	-0.246321	0.063025
C361	C	-0.512584	-0.186461	0.014295
C362	C	-0.493455	-0.185937	-0.032228
C363	C	-0.463626	-0.245274	-0.030018
H364	H	-0.464137	-0.349972	0.101312
H365	H	-0.516046	-0.246709	0.097465
H366	H	-0.534665	-0.142536	0.012658
H367	H	-0.501375	-0.141624	-0.068305
H368	H	-0.449466	-0.244886	-0.064457
H369	H	-0.743523	0.163324	-0.653612
C370	C	-0.577546	0.011199	-0.422778
C371	C	-0.597967	0.078070	-0.445789
C372	C	-0.626658	0.107551	-0.417098
C373	C	-0.634929	0.070161	-0.365395
C374	C	-0.614507	0.003286	-0.342381
C375	C	-0.585816	-0.026196	-0.371072
H376	H	-0.591846	0.105752	-0.484065
H377	H	-0.641776	0.157057	-0.434134
H378	H	-0.656168	0.091985	-0.344155
H379	H	-0.620629	-0.024396	-0.304105
H380	H	-0.570699	-0.075701	-0.354035
H381	H	-0.040160	0.003216	-0.573279
C382	C	-0.027148	0.155845	-0.494885
C383	C	-0.024937	0.183149	-0.465054
C384	C	-0.027172	0.155667	-0.407915
C385	C	-0.031619	0.100882	-0.380607
C386	C	-0.033830	0.073575	-0.410439
C387	C	-0.031595	0.101057	-0.467578
H388	H	-0.021645	0.223706	-0.485268
H389	H	-0.025535	0.175881	-0.385832
H390	H	-0.033273	0.080538	-0.338310
H391	H	-0.037122	0.033018	-0.390224
H392	H	-0.033232	0.080843	-0.489661
H393	H	0.019779	-0.465234	0.161179
C394	C	-0.018675	-0.135081	-0.151383
C395	C	0.030051	-0.173102	-0.102199
C396	C	0.032259	-0.145495	-0.072667
C397	C	-0.014260	-0.079868	-0.092319
C398	C	-0.062990	-0.041843	-0.141505
C399	C	-0.065198	-0.069450	-0.171037
H400	H	0.064491	-0.221686	-0.087649
H401	H	0.068332	-0.173644	-0.036256
H402	H	-0.012626	-0.059432	-0.070458
H403	H	-0.097430	0.006741	-0.156055
H404	H	-0.101271	-0.041301	-0.207448
C405	C	-0.286890	-0.867685	0.018708
C406	C	-0.275840	-0.868177	-0.030027
C407	C	-0.218700	-0.895660	-0.032256
C408	C	-0.172609	-0.922650	0.014249
C409	C	-0.183658	-0.922159	0.062987
C410	C	-0.240798	-0.894676	0.065216
H411	H	-0.309960	-0.848197	-0.064455
H412	H	-0.210521	-0.896024	-0.068336
H413	H	-0.130311	-0.942995	0.012598
H414	H	-0.149538	-0.942140	0.097416
H415	H	-0.248977	-0.894312	0.101296
C416	C	-0.577187	0.547896	-0.588377
C417	C	-0.585427	0.607826	-0.602650
C418	C	-0.614101	0.665205	-0.660828
C419	C	-0.634535	0.662653	-0.704733
C420	C	-0.626295	0.602721	-0.690461
C421	C	-0.597621	0.545342	-0.632283
H422	H	-0.570301	0.609717	-0.570148
H423	H	-0.620201	0.709571	-0.671393
H424	H	-0.655761	0.705128	-0.747800
H425	H	-0.641421	0.600830	-0.722963
H426	H	-0.591521	0.500976	-0.621718
H427	H	0.019760	-0.465234	0.304248
H428	H	-0.019210	0.253653	-0.698214
H429	H	-0.569749	-0.467085	0.040220
C430	C	-0.411908	-0.154374	-0.422764
C431	C	-0.368043	-0.151761	-0.402346
C432	C	-0.309855	-0.209116	-0.373636
C433	C	-0.295532	-0.269085	-0.365345
C434	C	-0.339398	-0.271701	-0.385763
C435	C	-0.397586	-0.214346	-0.414472
H436	H	-0.378644	-0.107366	-0.408483
H437	H	-0.277382	-0.207179	-0.358522
H438	H	-0.252458	-0.311542	-0.344092
H439	H	-0.328796	-0.316095	-0.379625
H440	H	-0.430058	-0.216283	-0.429587
C441	C	-0.018648	0.260431	-0.547014
C442	C	0.026748	0.219740	-0.494098
C443	C	0.028975	0.247034	-0.464261
C444	C	-0.014196	0.315020	-0.487340
C445	C	-0.059596	0.355716	-0.540258
C446	C	-0.061822	0.328421	-0.570095
H447	H	0.058708	0.169409	-0.477011
H448	H	0.062583	0.216909	-0.425088
H449	H	-0.012548	0.335225	-0.465253
H450	H	-0.091556	0.406046	-0.557345
H451	H	-0.095430	0.358547	-0.609269
H452	H	-0.346709	-0.233340	-0.256801
C453	C	-0.286523	-0.301424	-0.151407
C454	C	-0.275369	-0.361286	-0.102226
C455	C	-0.218221	-0.420622	-0.072700
C456	C	-0.172226	-0.420097	-0.092356
C457	C	-0.183379	-0.360233	-0.141540
C458	C	-0.240527	-0.300897	-0.171065
H459	H	-0.309418	-0.361676	-0.087673
H460	H	-0.209966	-0.464937	-0.036291
H461	H	-0.129922	-0.464021	-0.070499
H462	H	-0.149329	-0.359842	-0.156092
H463	H	-0.248782	-0.256581	-0.207474
C464	C	-0.027150	-0.074447	-0.661294
C465	C	-0.024936	-0.046836	-0.718438
C466	C	-0.027166	0.012514	-0.748086
C467	C	-0.031609	0.044254	-0.720589
C468	C	-0.033823	0.016644	-0.663442
C469	C	-0.031593	-0.042706	-0.633794
H470	H	-0.021647	-0.070332	-0.738796
H471	H	-0.025527	0.032953	-0.790390
H472	H	-0.033259	0.088189	-0.742535
H473	H	-0.037112	0.040140	-0.643084
H474	H	-0.033232	-0.063145	-0.591490
H475	H	-0.040120	0.003178	-0.430195
C476	C	-0.505063	-0.366099	0.027208
C477	C	-0.534896	-0.306757	0.024986
C478	C	-0.592036	-0.279349	0.027216
C479	C	-0.619343	-0.311282	0.031668
C480	C	-0.589509	-0.370628	0.033890
C481	C	-0.532369	-0.398036	0.031660
H482	H	-0.514683	-0.283115	0.021690
H483	H	-0.614121	-0.235417	0.025570
H484	H	-0.661641	-0.290993	0.033318
H485	H	-0.609723	-0.394270	0.037186
H486	H	-0.510284	-0.441968	0.033306
H487	H	-0.019237	-0.142213	-0.698946
C488	C	-0.848934	0.694266	-0.713066
C489	C	-0.898161	0.754028	-0.724113
C490	C	-0.927883	0.813382	-0.781253
C491	C	-0.908378	0.812974	-0.827345
C492	C	-0.859148	0.753209	-0.816299
C493	C	-0.829426	0.693855	-0.759159
H494	H	-0.912603	0.754333	-0.689992
H495	H	-0.964327	0.857624	-0.789430
H496	H	-0.930380	0.856911	-0.869643
H497	H	-0.844707	0.752904	-0.850420
H498	H	-0.792983	0.649613	-0.750982
C499	C	-0.018649	-0.301050	-0.548101
C500	C	0.030085	-0.360815	-0.537543
C501	C	0.032312	-0.420164	-0.507897
C502	C	-0.014195	-0.419747	-0.488809
C503	C	-0.062932	-0.359980	-0.499367
C504	C	-0.065159	-0.300631	-0.529012
H505	H	0.064515	-0.361125	-0.551673
H506	H	0.068390	-0.464407	-0.500082
H507	H	-0.012547	-0.463681	-0.466864
H508	H	-0.097362	-0.359670	-0.485236
H509	H	-0.101237	-0.256387	-0.536828
H510	H	-0.346713	-0.233351	-0.509753
C511	C	-0.018650	-0.301083	-0.151028
C512	C	0.030080	-0.360852	-0.101798
C513	C	0.032305	-0.420200	-0.072084
C514	C	-0.014200	-0.419778	-0.091601
C515	C	-0.062933	-0.360007	-0.140834
C516	C	-0.065158	-0.300659	-0.170548
H517	H	0.064509	-0.361166	-0.087348
H518	H	0.068381	-0.464446	-0.035638
H519	H	-0.012552	-0.463711	-0.069605
H520	H	-0.097362	-0.359693	-0.155284
H521	H	-0.101234	-0.256412	-0.206993
H522	H	-0.743175	-0.373219	0.026636
H523	H	-0.301364	-0.286010	-0.554791
H524	H	-0.026564	-0.233284	-0.510448
C525	C	-0.411560	0.382286	-0.422747
C526	C	-0.382465	0.324116	-0.364964
C527	C	-0.324279	0.294627	-0.336276
C528	C	-0.295187	0.323310	-0.365371
C529	C	-0.324282	0.381484	-0.423158
C530	C	-0.382469	0.410972	-0.451845
H531	H	-0.404001	0.302880	-0.343422
H532	H	-0.302741	0.251563	-0.293498
H533	H	-0.252114	0.301481	-0.344135
H534	H	-0.302746	0.402719	-0.444699
H535	H	-0.404006	0.454037	-0.494623
C536	C	-0.577197	0.382290	-0.422755
C537	C	-0.634984	0.410978	-0.451845
C538	C	-0.663671	0.381488	-0.423155
C539	C	-0.634572	0.323310	-0.365376
C540	C	-0.576781	0.294619	-0.336282
C541	C	-0.548094	0.324109	-0.364972
H542	H	-0.656528	0.454047	-0.494620
H543	H	-0.706451	0.402727	-0.444693
H544	H	-0.655808	0.301480	-0.344138
H545	H	-0.555237	0.251549	-0.293507
H546	H	-0.505314	0.302870	-0.343435
H547	H	-0.840890	-0.320560	0.019306
C548	C	-0.452925	0.132679	-0.151394
C549	C	-0.472059	0.105829	-0.171053
C550	C	-0.501888	0.078518	-0.141528
C551	C	-0.512584	0.078057	-0.092344
C552	C	-0.493450	0.104907	-0.072682
C553	C	-0.463621	0.132218	-0.102207
H554	H	-0.464142	0.106170	-0.207465
H555	H	-0.516053	0.058642	-0.156084
H556	H	-0.534666	0.057839	-0.070488
H557	H	-0.501368	0.104566	-0.036270
H558	H	-0.449457	0.152095	-0.087651
C559	C	-0.848929	-0.470764	0.018714
C560	C	-0.873810	-0.490703	0.061887
C561	C	-0.903532	-0.518113	0.059660
C562	C	-0.908372	-0.525584	0.014259
C563	C	-0.883490	-0.505644	-0.028917
C564	C	-0.853768	-0.478234	-0.026690
H565	H	-0.870228	-0.485174	0.095498
H566	H	-0.921952	-0.532874	0.091622
H567	H	-0.930374	-0.545874	0.012610
H568	H	-0.887072	-0.511174	-0.062528
H569	H	-0.835348	-0.463474	-0.058652
H570	H	-0.444519	-0.142934	-0.158758
C571	C	-0.848573	0.528250	-0.547039
C572	C	-0.873411	0.508173	-0.570127
C573	C	-0.902945	0.480571	-0.540297
C574	C	-0.907640	0.473046	-0.487380
C575	C	-0.882800	0.493124	-0.464289
C576	C	-0.853267	0.520726	-0.494119
H577	H	-0.869936	0.513743	-0.609302
H578	H	-0.921332	0.465708	-0.557391
H579	H	-0.929502	0.452614	-0.465298
H580	H	-0.886275	0.487554	-0.425114
H581	H	-0.834879	0.535589	-0.477025
H582	H	-0.743487	-0.516312	0.026628
H583	H	-0.026556	-0.233307	-0.256467
C584	C	-0.339023	-0.763092	0.027195
C585	C	-0.281886	-0.790569	0.024963
C586	C	-0.252058	-0.763260	0.027174
C587	C	-0.279366	-0.708474	0.031617
C588	C	-0.336506	-0.680994	0.033850
C589	C	-0.366334	-0.708303	0.031639
H590	H	-0.261668	-0.831127	0.021673
H591	H	-0.209759	-0.783603	0.025521
H592	H	-0.257286	-0.688258	0.033254
H593	H	-0.356724	-0.640435	0.037140
H594	H	-0.408633	-0.687960	0.033291
H595	H	-0.490217	0.230142	-0.256784
C596	C	-0.452921	0.694945	-0.713740
C597	C	-0.505833	0.752533	-0.725946
C598	C	-0.535667	0.811888	-0.783084
C599	C	-0.512590	0.813655	-0.828017
C600	C	-0.459676	0.756065	-0.815812
C601	C	-0.429841	0.696710	-0.758673
H602	H	-0.522918	0.751226	-0.692683
H603	H	-0.574837	0.854520	-0.792119
H604	H	-0.534675	0.857593	-0.870315
H605	H	-0.442590	0.757372	-0.849075
H606	H	-0.390671	0.654078	-0.749639
C607	C	-0.286881	0.529299	-0.548046
C608	C	-0.240793	0.463727	-0.528962
C609	C	-0.183652	0.436311	-0.499310
C610	C	-0.172598	0.474467	-0.488743
C611	C	-0.218688	0.540043	-0.507828
C612	C	-0.275829	0.567459	-0.537479
H613	H	-0.248974	0.435478	-0.536783
H614	H	-0.149533	0.387768	-0.485183
H615	H	-0.130299	0.454173	-0.466794
H616	H	-0.210507	0.568292	-0.500006
H617	H	-0.309947	0.616002	-0.551607
H618	H	-0.490218	-0.769893	0.026639
C619	C	-0.452926	-0.867342	0.018729
C620	C	-0.429847	-0.935328	0.061902
C621	C	-0.459681	-0.962627	0.059677
C622	C	-0.512594	-0.921939	0.014280
C623	C	-0.535677	-0.853948	-0.028897
C624	C	-0.505843	-0.826650	-0.026672
H625	H	-0.390675	-0.965451	0.095511
H626	H	-0.442593	-1.012958	0.091640
H627	H	-0.534679	-0.942147	0.012633
H628	H	-0.574849	-0.823825	-0.062506
H629	H	-0.522930	-0.776319	-0.058635
H630	H	-0.444508	-0.142931	-0.698242
H631	H	-0.743179	0.483055	-0.509743
H632	H	-0.346776	-0.516292	0.026600
H633	H	-0.301736	-0.463624	0.019263
H634	H	-0.743490	0.626486	-0.653184
H635	H	-0.570087	0.003544	-0.573301
C636	C	-0.504710	-0.074847	-0.660953
C637	C	-0.534360	-0.047437	-0.718090
C638	C	-0.591506	0.011902	-0.747920
C639	C	-0.619002	0.043832	-0.720613
C640	C	-0.589352	0.016423	-0.663472
C641	C	-0.532206	-0.042916	-0.633642
H642	H	-0.514005	-0.071074	-0.738307
H643	H	-0.613455	0.032192	-0.790220
H644	H	-0.661305	0.087759	-0.742695
H645	H	-0.609707	0.040060	-0.643255
H646	H	-0.510257	-0.063206	-0.591343
H647	H	-0.841239	0.253681	-0.698962
H648	H	-0.490215	0.626864	-0.653559
H649	H	-0.346761	0.483749	-0.510407
H650	H	-0.346770	0.229846	-0.256454
