data_functionalizedCrystal
_audit_creation_method	'MofGen! by Chris Wilmer'
_symmetry_space_group_name_H-M	'P1'
_symmetry_Int_Tables_number	1
_symmetry_cell_setting	triclinic
loop_
_symmetry_equiv_pos_as_xyz
  x,y,z
_cell_length_a	16.109301
_cell_length_b	16.109301
_cell_length_c	14.586319
_cell_angle_alpha	90.005214
_cell_angle_beta	89.999213
_cell_angle_gamma	96.538519
loop_
_atom_site_label
_atom_site_type_symbol
_atom_site_fract_x
_atom_site_fract_y
_atom_site_fract_z
O1	O	1.103131	-0.106866	-0.076185
O2	O	1.436464	0.226467	0.257148
O3	O	1.769797	0.559801	0.590481
O4	O	0.861069	-0.120165	-0.076200
O5	O	1.194402	0.213168	0.257133
O6	O	1.527735	0.546501	0.590466
O7	O	0.988749	0.007515	-0.076183
O8	O	1.322083	0.340849	0.257150
O9	O	1.655416	0.674182	0.590484
O10	O	0.975450	-0.234547	-0.076203
O11	O	1.308783	0.098787	0.257131
O12	O	1.642117	0.432120	0.590464
O13	O	0.988741	0.007517	0.076298
O14	O	1.322074	0.340850	0.409631
O15	O	1.655407	0.674184	0.742964
O16	O	0.861060	-0.120164	0.076281
O17	O	1.194393	0.213170	0.409614
O18	O	1.527727	0.546503	0.742947
O19	O	1.103122	-0.106864	0.076295
O20	O	1.436455	0.226469	0.409629
O21	O	1.769789	0.559802	0.742962
Cu22	Cu	0.982090	-0.113514	0.090211
Cu23	Cu	1.315423	0.219820	0.423544
Cu24	Cu	1.648757	0.553153	0.756877
Cu25	Cu	0.982101	-0.113516	-0.090115
Cu26	Cu	1.315434	0.219817	0.243218
Cu27	Cu	1.648767	0.553151	0.576551
O28	O	0.975441	-0.234545	0.076278
O29	O	1.308775	0.098788	0.409612
O30	O	1.642108	0.432122	0.742945
C31	C	0.830090	-0.119626	0.000038
C32	C	1.163423	0.213708	0.333372
C33	C	1.496756	0.547041	0.666705
C34	C	0.737794	-0.118011	0.000033
C35	C	1.071128	0.215323	0.333366
C36	C	1.404461	0.548656	0.666700
C37	C	0.988206	0.038491	0.000058
C38	C	1.321540	0.371824	0.333391
C39	C	1.654873	0.705158	0.666724
C40	C	0.986591	0.130786	0.000059
C41	C	1.319925	0.464120	0.333392
C42	C	1.653258	0.797453	0.666726
N43	N	0.982089	-0.113512	0.217042
N44	N	1.315422	0.219822	0.550376
N45	N	1.648755	0.553155	0.883709
C46	C	0.515522	-0.190018	0.000038
C47	C	0.848855	0.143315	0.333371
C48	C	1.182188	0.476648	0.666704
C49	C	0.428801	-0.188494	0.000044
C50	C	0.762135	0.144839	0.333377
C51	C	1.095468	0.478172	0.666710
C52	C	0.448676	-0.037006	0.000052
C53	C	0.782009	0.296328	0.333386
C54	C	1.115342	0.629661	0.666719
C55	C	0.535394	-0.038530	0.000053
C56	C	0.868728	0.294803	0.333386
C57	C	1.202061	0.628136	0.666719
C58	C	0.568815	-0.115039	0.000041
C59	C	0.902148	0.218294	0.333374
C60	C	1.235482	0.551627	0.666708
C61	C	0.395376	-0.111990	0.000046
C62	C	0.728709	0.221343	0.333380
C63	C	1.062042	0.554676	0.666713
C64	C	0.301350	-0.110337	0.000053
C65	C	0.634683	0.222996	0.333386
C66	C	0.968016	0.556329	0.666720
C67	C	0.662847	-0.116693	0.000036
C68	C	0.996180	0.216641	0.333369
C69	C	1.329514	0.549974	0.666703
C70	C	1.134101	-0.107404	0.000055
C71	C	1.467435	0.225929	0.333388
C72	C	1.800768	0.559263	0.666722
C73	C	1.226397	-0.109019	0.000054
C74	C	1.559730	0.224314	0.333388
C75	C	1.893063	0.557648	0.666721
C76	C	0.975984	-0.265521	0.000035
C77	C	1.309318	0.067813	0.333369
C78	C	1.642651	0.401146	0.666702
C79	C	0.977600	-0.357816	0.000028
C80	C	1.310933	-0.024483	0.333362
C81	C	1.644266	0.308851	0.666695
C82	C	1.058599	0.353059	0.000049
C83	C	1.391932	0.686392	0.333382
C84	C	1.725266	1.019725	0.666716
C85	C	1.057075	0.439779	0.000041
C86	C	1.390408	0.773112	0.333375
C87	C	1.723742	1.106446	0.666708
C88	C	0.905586	0.419905	0.000036
C89	C	1.238919	0.753238	0.333369
C90	C	1.572253	1.086571	0.666702
C91	C	0.907111	0.333186	0.000037
C92	C	1.240444	0.666519	0.333370
C93	C	1.573778	0.999853	0.666703
C94	C	0.983620	0.299766	0.000048
C95	C	1.316953	0.633099	0.333381
C96	C	1.650287	0.966432	0.666715
C97	C	0.980571	0.473205	0.000039
C98	C	1.313904	0.806538	0.333373
C99	C	1.647238	1.139871	0.666706
C100	C	0.978918	0.567231	0.000031
C101	C	1.312251	0.900564	0.333364
C102	C	1.645585	1.233897	0.666698
C103	C	0.985273	0.205734	0.000055
C104	C	1.318607	0.539067	0.333388
C105	C	1.651940	0.872400	0.666721
N106	N	0.982109	-0.113511	-0.216947
N107	N	1.315442	0.219822	0.116386
N108	N	1.648775	0.553155	0.449719
C109	C	1.038644	-0.056994	0.452057
C110	C	1.371978	0.276340	0.785390
C111	C	1.705311	0.609673	1.118723
C112	C	1.038647	-0.056992	0.548038
C113	C	1.371980	0.276342	0.881371
C114	C	1.705314	0.609675	1.214704
C115	C	0.925547	-0.170032	0.548032
C116	C	1.258880	0.163301	0.881365
C117	C	1.592213	0.496634	1.214699
C118	C	0.925541	-0.170030	0.452052
C119	C	1.258874	0.163304	0.785386
C120	C	1.592208	0.496637	1.118719
C121	C	0.982095	-0.113511	0.404067
C122	C	1.315428	0.219822	0.737401
C123	C	1.648761	0.553155	1.070734
C124	C	0.982103	-0.113512	0.596028
C125	C	1.315436	0.219822	0.929361
C126	C	1.648769	0.553155	1.262695
C127	C	0.982105	-0.113510	0.700095
C128	C	1.315438	0.219823	1.033428
C129	C	1.648772	0.553157	1.366762
C130	C	0.982092	-0.113512	0.299993
C131	C	1.315425	0.219822	0.633327
C132	C	1.648758	0.553155	0.966660
H133	H	0.542730	-0.252317	0.000035
H134	H	0.876063	0.081017	0.333368
H135	H	1.209396	0.414350	0.666702
H136	H	1.118130	0.483168	0.000040
H137	H	1.451464	0.816501	0.333373
H138	H	1.784797	1.149834	0.666707
N139	N	0.823073	0.455959	0.000037
N140	N	1.156407	0.789293	0.333370
N141	N	1.489740	1.122626	0.666703
H142	H	0.790225	0.436526	0.056561
H143	H	1.123559	0.769859	0.389894
H144	H	1.456892	1.103193	0.723228
H145	H	0.790291	0.436512	-0.056526
H146	H	1.123624	0.769846	0.276807
H147	H	1.456957	1.103179	0.610141
N148	N	0.826232	0.275706	0.000043
N149	N	1.159565	0.609039	0.333376
N150	N	1.492898	0.942373	0.666709
H151	H	0.823489	0.239289	0.056568
H152	H	1.156822	0.572622	0.389901
H153	H	1.490156	0.905955	0.723234
H154	H	0.823535	0.239332	-0.056519
H155	H	1.156868	0.572666	0.276814
H156	H	1.490202	0.905999	0.610148
N157	N	0.864560	-0.231000	0.599783
N158	N	1.197894	0.102333	0.933117
N159	N	1.531227	0.435667	1.266450
H160	H	0.805557	-0.221408	0.583089
H161	H	1.138890	0.111925	0.916422
H162	H	1.472223	0.445258	1.249755
H163	H	0.873216	-0.222401	0.667852
H164	H	1.206550	0.110932	1.001186
H165	H	1.539883	0.444266	1.334519
N166	N	0.371320	-0.269364	0.000092
N167	N	0.704653	0.063969	0.333425
N168	N	1.037987	0.397303	0.666758
H169	H	0.405654	-0.318060	0.000101
H170	H	0.738987	0.015274	0.333434
H171	H	1.072320	0.348607	0.666767
H172	H	0.334883	-0.272063	-0.056417
H173	H	0.668217	0.061270	0.276916
H174	H	1.001550	0.394603	0.610249
N175	N	0.412629	0.045511	0.000070
N176	N	0.745962	0.378845	0.333403
N177	N	1.079296	0.712178	0.666736
H178	H	0.349606	0.035102	0.000068
H179	H	0.682939	0.368435	0.333402
H180	H	1.016273	0.701768	0.666735
H181	H	0.432127	0.078322	-0.056453
H182	H	0.765460	0.411656	0.276881
H183	H	1.098793	0.744989	0.610214
N184	N	0.592883	0.042343	0.000067
N185	N	0.926216	0.375677	0.333400
N186	N	1.259550	0.709010	0.666733
H187	H	0.558554	0.091043	0.000069
H188	H	0.891887	0.424376	0.333403
H189	H	1.225221	0.757709	0.666736
H190	H	0.629301	0.045010	-0.056456
H191	H	0.962634	0.378343	0.276877
H192	H	1.295967	0.711677	0.610210
N193	N	1.141115	0.317010	0.000060
N194	N	1.474448	0.650343	0.333393
N195	N	1.807781	0.983677	0.666726
H196	H	1.188382	0.363933	0.000058
H197	H	1.521715	0.697267	0.333391
H198	H	1.855048	1.030600	0.666724
H199	H	1.145049	0.281456	-0.056465
H200	H	1.478382	0.614790	0.276868
H201	H	1.811715	0.948123	0.610201
H202	H	1.084693	-0.010972	0.412989
H203	H	1.418026	0.322362	0.746323
H204	H	1.751359	0.655695	1.079656
H205	H	1.084694	-0.010969	0.587108
H206	H	1.418027	0.322365	0.920441
H207	H	1.751361	0.655698	1.253775
N208	N	0.864538	-0.230984	0.400284
N209	N	1.197872	0.102349	0.733617
N210	N	1.531205	0.435683	1.066951
H211	H	0.828716	-0.266791	0.445245
H212	H	1.162049	0.066542	0.778578
H213	H	1.495382	0.399875	1.111912
H214	H	0.896350	-0.267748	0.360449
H215	H	1.229683	0.065586	0.693783
H216	H	1.563016	0.398919	1.027116
