data_functionalizedCrystal
_audit_creation_method	'MofGen! by Chris Wilmer'
_symmetry_space_group_name_H-M	'P1'
_symmetry_Int_Tables_number	1
_symmetry_cell_setting	triclinic
loop_
_symmetry_equiv_pos_as_xyz
  x,y,z
_cell_length_a	16.109302
_cell_length_b	15.944551
_cell_length_c	15.186229
_cell_angle_alpha	89.995303
_cell_angle_beta	89.994701
_cell_angle_gamma	83.480259
loop_
_atom_site_label
_atom_site_type_symbol
_atom_site_fract_x
_atom_site_fract_y
_atom_site_fract_z
O1	O	1.103165	0.107969	-0.073270
O2	O	0.861108	0.121405	-0.073263
O3	O	0.988746	-0.007590	-0.073259
O4	O	0.975526	0.236964	-0.073274
O5	O	0.988738	-0.007592	0.073198
O6	O	0.861099	0.121403	0.073194
O7	O	1.103157	0.107967	0.073187
Zn8	Zn	0.982127	0.114685	0.096444
Zn9	Zn	0.982138	0.114687	-0.096520
O10	O	0.975518	0.236962	0.073183
C11	C	0.830128	0.120860	-0.000034
C12	C	0.737833	0.119228	-0.000031
C13	C	0.525486	0.115453	0.079794
C14	C	0.438765	0.113910	0.079791
C15	C	0.438785	0.113917	-0.079884
C16	C	0.525505	0.115453	-0.079880
C17	C	0.568852	0.116225	-0.000038
C18	C	0.395412	0.113147	-0.000045
C19	C	0.301386	0.111474	-0.000049
C20	C	0.662885	0.117896	-0.000034
C21	C	0.988193	-0.038885	-0.000030
C22	C	0.986548	-0.132130	-0.000030
C23	C	0.903499	-0.346960	-0.000039
C24	C	0.942060	-0.407990	0.072172
C25	C	0.983571	-0.302855	-0.000036
C26	C	0.942087	-0.407972	-0.072224
C27	C	0.980690	-0.467767	-0.000047
C28	C	1.022155	-0.362658	0.072235
C29	C	1.022171	-0.362633	-0.072226
C30	C	1.060790	-0.423646	0.000003
C31	C	0.985229	-0.207853	-0.000030
C32	C	0.979039	-0.562767	-0.000047
C33	C	1.134136	0.108513	-0.000044
C34	C	1.226432	0.110145	-0.000053
C35	C	0.976071	0.268257	-0.000048
C36	C	0.977716	0.361502	-0.000054
N37	N	0.982125	0.114683	0.228137
N38	N	0.982146	0.114683	-0.228213
C39	C	1.038663	0.057583	0.453861
C40	C	1.038665	0.057581	0.546051
C41	C	0.925602	0.171785	0.546056
C42	C	0.925596	0.171782	0.453868
C43	C	0.982131	0.114682	0.407773
C44	C	0.982140	0.114683	0.592151
C45	C	0.982142	0.114681	0.692107
C46	C	0.982128	0.114683	0.307811
H47	H	0.560815	0.116080	-0.144894
C48	C	1.100843	-0.005232	0.403156
C49	C	1.163023	-0.068043	0.453858
C50	C	1.225203	-0.130862	0.403156
C51	C	1.225204	-0.130870	0.301753
C52	C	1.163022	-0.068056	0.251046
C53	C	1.100841	-0.005237	0.301747
H54	H	1.163024	-0.068040	0.528927
H55	H	1.271234	-0.177361	0.440693
H56	H	1.271233	-0.177372	0.264220
H57	H	1.163020	-0.068059	0.175976
H58	H	1.054810	0.041262	0.264210
C59	C	0.896305	-0.435149	0.154645
C60	C	0.859808	-0.368374	0.221611
C61	C	0.814047	-0.395528	0.304080
C62	C	0.804781	-0.489457	0.319583
C63	C	0.841279	-0.556238	0.252614
C64	C	0.887041	-0.529084	0.170146
H65	H	0.866666	-0.298836	0.210137
H66	H	0.787029	-0.346091	0.353654
H67	H	0.770906	-0.509558	0.380631
H68	H	0.834421	-0.625776	0.264088
H69	H	0.914058	-0.578521	0.120571
H70	H	0.560777	0.116082	0.144807
C71	C	0.391062	0.113062	0.167609
C72	C	0.438746	0.113908	0.255428
C73	C	0.391044	0.113057	0.343250
C74	C	0.295656	0.111359	0.343253
C75	C	0.247966	0.110512	0.255431
C76	C	0.295669	0.111364	0.167609
H77	H	0.509363	0.115165	0.255428
H78	H	0.426347	0.113684	0.408261
H79	H	0.260344	0.110729	0.408264
H80	H	0.177350	0.109255	0.255431
H81	H	0.260365	0.110737	0.102598
C82	C	0.863422	0.234600	0.596761
C83	C	0.863469	0.234656	0.698164
C84	C	0.801289	0.297475	0.748866
C85	C	0.739061	0.360238	0.698165
C86	C	0.739012	0.360184	0.596756
C87	C	0.801192	0.297365	0.546054
H88	H	0.909536	0.188193	0.735702
H89	H	0.801326	0.297515	0.823936
H90	H	0.693032	0.406740	0.735697
H91	H	0.692945	0.406647	0.559219
H92	H	0.801155	0.297325	0.470984
H93	H	0.403481	0.113289	-0.144889
H94	H	0.837035	-0.313630	0.000035
H95	H	1.056013	-0.342513	-0.133280
H96	H	1.084697	0.011085	0.583573
H97	H	1.055990	-0.342679	0.133350
H98	H	0.879558	0.218280	0.416341
H99	H	1.127312	-0.456827	0.000042
C100	C	0.896327	-0.435094	-0.154696
C101	C	0.804268	-0.400852	-0.170536
C102	C	0.758501	-0.427970	-0.253003
C103	C	0.804792	-0.489330	-0.319630
C104	C	0.896855	-0.523576	-0.303792
C105	C	0.942623	-0.496458	-0.221325
H106	H	0.769997	-0.355426	-0.121213
H107	H	0.690350	-0.402619	-0.264727
H108	H	0.770913	-0.509405	-0.380677
H109	H	0.931127	-0.569001	-0.353115
H110	H	1.010774	-0.521809	-0.209601
