data_functionalizedCrystal
_audit_creation_method	'MofGen! by Chris Wilmer'
_symmetry_space_group_name_H-M	'P1'
_symmetry_Int_Tables_number	1
_symmetry_cell_setting	triclinic
loop_
_symmetry_equiv_pos_as_xyz
  x,y,z
_cell_length_a	23.532407
_cell_length_b	22.610064
_cell_length_c	23.532407
_cell_angle_alpha	89.990850
_cell_angle_beta	97.151322
_cell_angle_gamma	90.009934
loop_
_atom_site_label
_atom_site_type_symbol
_atom_site_fract_x
_atom_site_fract_y
_atom_site_fract_z
O1	O	0.755269	0.049117	-0.069133
O2	O	0.589405	0.049135	-0.079137
O3	O	0.677338	0.049114	0.008797
O4	O	0.667335	0.049137	-0.157067
O5	O	0.677313	-0.049255	0.008797
O6	O	0.589380	-0.049234	-0.079137
O7	O	0.755243	-0.049252	-0.069133
Zn8	Zn	0.672307	-0.064862	-0.074135
Zn9	Zn	0.672341	0.064744	-0.074135
O10	O	0.667310	-0.049232	-0.157067
C11	C	0.568176	-0.000048	-0.078882
C12	C	0.504959	-0.000041	-0.078116
N13	N	0.672288	-0.153314	-0.074135
C14	C	0.105856	-0.000061	-0.125350
C15	C	0.046456	-0.000065	-0.124638
O16	O	0.009711	-0.000081	-0.168424
N17	N	0.023830	-0.000071	-0.072362
C18	C	0.060607	-0.000080	-0.020794
O19	O	0.035908	-0.000086	0.023737
C20	C	0.120006	-0.000080	-0.021506
C21	C	0.142629	-0.000068	-0.073785
C22	C	0.128479	-0.000050	-0.177625
C23	C	0.187876	-0.000045	-0.178336
C24	C	0.224649	-0.000052	-0.126772
C25	C	0.202025	-0.000063	-0.074497
C26	C	0.156783	-0.000093	0.030062
C27	C	0.216185	-0.000094	0.029345
C28	C	0.238808	-0.000082	-0.022934
C29	C	0.298194	-0.000065	-0.023643
N30	N	0.320820	-0.000059	-0.075920
C31	C	0.284048	-0.000052	-0.127484
C32	C	-0.064135	-0.000080	-0.019302
C33	C	-0.123533	-0.000075	-0.018589
C34	C	-0.137680	-0.000061	-0.122434
C35	C	-0.078281	-0.000062	-0.123146
C36	C	-0.041509	-0.000074	-0.071578
C37	C	0.408784	-0.000042	-0.128974
C38	C	0.468186	-0.000034	-0.129680
C39	C	0.482329	-0.000051	-0.025836
C40	C	0.422932	-0.000055	-0.025129
C41	C	0.386160	-0.000052	-0.076702
O42	O	0.334974	-0.000052	0.020119
O43	O	0.308755	-0.000054	-0.172007
C44	C	0.706686	-0.561955	-0.108496
C45	C	0.706693	-0.623874	-0.108494
O46	O	0.735916	-0.655892	-0.137705
N47	N	0.672352	-0.654851	-0.074128
C48	C	0.638006	-0.623905	-0.039758
O49	O	0.608797	-0.655939	-0.010527
C50	C	0.638002	-0.561986	-0.039757
C51	C	0.672341	-0.531013	-0.074129
C52	C	0.741022	-0.530981	-0.142864
C53	C	0.741014	-0.469065	-0.142867
C54	C	0.706669	-0.438123	-0.108500
C55	C	0.672333	-0.469097	-0.074131
C56	C	0.603660	-0.531041	-0.005383
C57	C	0.603659	-0.469118	-0.005384
C58	C	0.637998	-0.438144	-0.039757
C59	C	0.637980	-0.376239	-0.039766
N60	N	0.672321	-0.345262	-0.074132
C61	C	0.706666	-0.376204	-0.108498
C62	C	0.638017	-0.753938	-0.039762
C63	C	0.638017	-0.815856	-0.039766
C64	C	0.706705	-0.815821	-0.108502
C65	C	0.706701	-0.753903	-0.108501
C66	C	0.672358	-0.722962	-0.074128
C67	C	0.706646	-0.246177	-0.108501
C68	C	0.706633	-0.184256	-0.108502
C69	C	0.637948	-0.184296	-0.039764
C70	C	0.637958	-0.246212	-0.039765
C71	C	0.672312	-0.277151	-0.074135
O72	O	0.608774	-0.344182	-0.010568
O73	O	0.735875	-0.344163	-0.137719
C74	C	0.776472	-0.000069	-0.069388
C75	C	0.839689	-0.000071	-0.070154
C76	C	0.677071	-0.000072	0.030013
C77	C	0.676305	-0.000076	0.093230
N78	N	0.672364	0.153196	-0.074131
C79	C	0.667577	-0.000045	-0.178283
C80	C	0.668343	-0.000036	-0.241500
C81	C	0.723539	-0.000049	0.492333
C82	C	0.722827	-0.000044	0.551733
O83	O	0.766613	-0.000027	0.588478
N84	N	0.670551	-0.000039	0.574359
C85	C	0.618983	-0.000032	0.537582
O86	O	0.574452	-0.000027	0.562281
C87	C	0.619695	-0.000033	0.478182
C88	C	0.671974	-0.000044	0.455560
C89	C	0.775814	-0.000060	0.469710
C90	C	0.776525	-0.000065	0.410313
C91	C	0.724961	-0.000060	0.373540
C92	C	0.672685	-0.000050	0.396164
C93	C	0.568127	-0.000022	0.441406
C94	C	0.568844	-0.000021	0.382004
C95	C	0.621123	-0.000033	0.359381
C96	C	0.621832	-0.000050	0.299995
N97	N	0.674109	-0.000056	0.277368
C98	C	0.725673	-0.000061	0.314141
C99	C	0.617491	-0.000031	0.662324
C100	C	0.616778	-0.000034	0.721722
C101	C	0.720623	-0.000045	0.735869
C102	C	0.721335	-0.000046	0.676470
C103	C	0.669767	-0.000036	0.639698
C104	C	0.727163	-0.000073	0.189405
C105	C	0.727869	-0.000081	0.130003
C106	C	0.624025	-0.000067	0.115860
C107	C	0.623318	-0.000062	0.175257
C108	C	0.674891	-0.000063	0.212029
O109	O	0.578070	-0.000065	0.263215
O110	O	0.770196	-0.000058	0.289433
H111	H	0.486602	-0.000024	-0.172255
H112	H	0.575698	-0.556249	0.022607
H113	H	-0.167632	-0.000059	-0.164421
H114	H	0.609984	-0.159092	-0.011785
H115	H	0.768992	-0.556167	-0.170850
H116	H	0.378851	-0.000041	-0.170970
H117	H	0.575693	-0.443929	0.022607
H118	H	0.609989	-0.271432	-0.011784
Cl119	Cl	0.793597	-0.000094	0.101567
Cl120	Cl	0.791999	-0.000075	0.235622
H121	H	0.610048	-0.841070	-0.011784
H122	H	0.246123	-0.000104	0.071339
H123	H	0.734595	-0.159040	-0.136494
H124	H	0.762610	-0.000047	0.765821
Cl125	Cl	0.784176	-0.430136	-0.186089
Cl126	Cl	0.840647	-0.000067	0.515929
H127	H	0.819097	-0.000072	0.391900
Cl128	Cl	0.551053	-0.000032	0.750154
H129	H	0.206289	-0.000035	-0.220908
H130	H	0.734663	-0.728688	-0.136490
H131	H	0.734620	-0.271360	-0.136488
Cl132	Cl	0.394491	-0.000073	0.040595
Cl133	Cl	0.502400	-0.000003	0.469831
Cl134	Cl	0.787060	-0.000059	0.648037
H135	H	0.138375	-0.000103	0.072634
H136	H	0.734670	-0.841026	-0.136486
H137	H	0.526850	-0.000013	0.352066
H138	H	-0.141947	-0.000076	0.023982
Cl139	Cl	0.594831	-0.715047	0.003446
H140	H	0.575496	-0.000028	0.632386
H141	H	0.580748	-0.000069	0.193677
Cl142	Cl	-0.017912	-0.000087	0.045533
Cl143	Cl	0.559205	-0.000059	0.069621
H144	H	-0.059867	-0.000055	-0.165717
H145	H	0.098544	-0.000046	-0.219617
H146	H	0.512280	-0.000054	0.016146
