data_functionalizedCrystal
_audit_creation_method	'MofGen! by Chris Wilmer'
_symmetry_space_group_name_H-M	'P1'
_symmetry_Int_Tables_number	1
_symmetry_cell_setting	triclinic
loop_
_symmetry_equiv_pos_as_xyz
  x,y,z
_cell_length_a	14.908571
_cell_length_b	21.395361
_cell_length_c	21.395355
_cell_angle_alpha	90.019049
_cell_angle_beta	86.683490
_cell_angle_gamma	93.273486
loop_
_atom_site_label
_atom_site_type_symbol
_atom_site_fract_x
_atom_site_fract_y
_atom_site_fract_z
Zn1	Zn	1.379191	0.304881	-0.409428
Zn2	Zn	1.879191	0.804881	0.090572
Zn3	Zn	1.379052	0.409635	-0.304644
Zn4	Zn	1.879052	0.909635	0.195356
Zn5	Zn	1.228315	0.298823	-0.298629
Zn6	Zn	1.728315	0.798823	0.201371
Zn7	Zn	1.228271	0.403565	-0.403353
Zn8	Zn	1.728271	0.903565	0.096647
O9	O	1.303707	0.354226	-0.354014
O10	O	1.803707	0.854226	0.145986
O11	O	1.505417	0.323851	-0.400588
O12	O	2.005417	0.823851	0.099412
O13	O	1.359016	0.394941	-0.216167
O14	O	1.859016	0.894941	0.283833
O15	O	1.248406	0.211952	-0.313353
O16	O	1.748406	0.711952	0.186647
O17	O	1.505315	0.400814	-0.323603
O18	O	2.005315	0.900814	0.176397
O19	O	1.359254	0.216402	-0.394756
O20	O	1.859254	0.716402	0.105244
O21	O	1.248270	0.313528	-0.211748
O22	O	1.748270	0.813528	0.288252
O23	O	1.102065	0.307643	-0.307462
O24	O	1.602065	0.807643	0.192538
O25	O	1.248331	0.390469	-0.491838
O26	O	1.748331	0.890469	0.008162
O27	O	1.102032	0.384596	-0.384401
O28	O	1.602032	0.884596	0.115599
O29	O	1.359212	0.317966	-0.496302
O30	O	1.859212	0.817966	0.003698
O31	O	1.358973	0.496504	-0.317712
O32	O	1.858973	0.996504	0.182288
O33	O	1.248195	0.492045	-0.390233
O34	O	1.748195	0.992045	0.109767
C35	C	1.069315	0.344804	-0.344620
C36	C	1.569315	0.844804	0.155380
C37	C	0.969040	0.340788	-0.340616
C38	C	1.469040	0.840788	0.159384
C39	C	1.303589	0.517009	-0.353981
C40	C	1.803589	1.017009	0.146019
C41	C	1.303621	0.586651	-0.353991
C42	C	1.803621	1.086651	0.146009
C43	C	1.303782	0.354216	-0.517440
C44	C	1.803782	0.854216	-0.017440
C45	C	1.303814	0.354212	-0.587082
C46	C	1.803814	0.854212	-0.087082
C47	C	0.780629	0.413498	-0.413103
C48	C	1.280629	0.913498	0.086897
C49	C	0.686413	0.409727	-0.409343
C50	C	1.186413	0.909727	0.090657
C51	C	0.686389	0.329472	-0.329341
C52	C	1.186389	0.829472	0.170659
C53	C	0.780606	0.333243	-0.333101
C54	C	1.280606	0.833243	0.166899
C55	C	0.827722	0.375258	-0.374982
C56	C	1.327722	0.875258	0.125018
C57	C	0.921941	0.379032	-0.378738
C58	C	1.421941	0.879032	0.121262
C59	C	0.921915	0.298775	-0.298740
C60	C	1.421915	0.798775	0.201260
C61	C	0.827699	0.295003	-0.294980
C62	C	1.327699	0.795003	0.205020
C63	C	1.539015	0.363685	-0.363444
C64	C	2.039015	0.863685	0.136556
C65	C	1.639289	0.367716	-0.367463
C66	C	2.139289	0.867716	0.132537
C67	C	1.361354	0.621668	-0.316274
C68	C	1.861354	1.121668	0.183726
C69	C	1.361396	0.687105	-0.316293
C70	C	1.861396	1.187105	0.183707
C71	C	1.303689	0.717522	-0.354021
C72	C	1.803689	1.217522	0.145979
C73	C	1.245952	0.682498	-0.391746
C74	C	1.745952	1.182498	0.108254
C75	C	1.245918	0.617063	-0.391731
C76	C	1.745918	1.117063	0.108269
C77	C	1.222460	0.817977	-0.355686
C78	C	1.722460	1.317977	0.144314
C79	C	1.222493	0.883411	-0.355697
C80	C	1.722493	1.383411	0.144303
C81	C	1.303795	0.919347	-0.354071
C82	C	1.803795	1.419347	0.145929
C83	C	1.385067	0.889842	-0.352421
C84	C	1.885067	1.389842	0.147579
C85	C	1.385033	0.824406	-0.352406
C86	C	1.885033	1.324406	0.147594
C87	C	1.303720	0.788476	-0.354042
C88	C	1.803720	1.288476	0.145958
C89	C	1.361579	1.025318	-0.316372
C90	C	1.861579	1.525318	0.183628
C91	C	1.361623	1.090757	-0.316395
C92	C	1.861623	1.590757	0.183605
C93	C	1.246170	1.086148	-0.391844
C94	C	1.746170	1.586148	0.108156
C95	C	1.246135	1.020712	-0.391825
C96	C	1.746135	1.520712	0.108175
C97	C	1.303838	0.990300	-0.354085
C98	C	1.803838	1.490300	0.145915
C99	C	1.303852	1.190808	-0.354072
C100	C	1.803852	1.690808	0.145928
C101	C	1.303916	1.121170	-0.354124
C102	C	1.803916	1.621170	0.145876
C103	C	1.361547	0.316458	-0.622121
C104	C	1.861547	0.816458	-0.122121
C105	C	1.361546	0.316431	-0.687556
C106	C	1.861546	0.816431	-0.187556
C107	C	1.303821	0.354170	-0.717951
C108	C	1.803821	0.854170	-0.217951
C109	C	1.246077	0.391926	-0.682905
C110	C	1.746077	0.891926	-0.182905
C111	C	1.246073	0.391948	-0.617470
C112	C	1.746073	0.891948	-0.117470
C113	C	1.296657	0.410297	-0.821330
C114	C	1.796657	0.910297	-0.321330
C115	C	1.296666	0.410278	-0.886763
C116	C	1.796666	0.910278	-0.386763
C117	C	1.303827	0.354104	-0.919772
C118	C	1.803827	0.854104	-0.419772
C119	C	1.310996	0.297949	-0.887341
C120	C	1.810996	0.797949	-0.387341
C121	C	1.310992	0.297970	-0.821906
C122	C	1.810992	0.797970	-0.321906
C123	C	1.303818	0.354151	-0.788903
C124	C	1.803818	0.854151	-0.288903
C125	C	1.361561	0.316317	-1.025763
C126	C	1.861561	0.816317	-0.525763
C127	C	1.361554	0.316289	-1.091199
C128	C	1.861554	0.816289	-0.591199
C129	C	1.246090	0.391790	-1.086547
C130	C	1.746090	0.891790	-0.586547
C131	C	1.246092	0.391812	-1.021112
C132	C	1.746092	0.891812	-0.521112
C133	C	1.303833	0.354077	-0.990724
C134	C	1.803833	0.854077	-0.490724
C135	C	1.303685	0.354193	-0.191225
C136	C	1.803685	0.854193	0.308775
C137	C	1.303827	0.354027	-0.121590
C138	C	1.803827	0.854027	0.378410
H139	H	0.960302	0.413244	-0.412839
H140	H	1.460302	0.913244	0.087161
Cl141	Cl	1.434118	0.987084	-0.268928
Cl142	Cl	1.934118	1.487084	0.231072
Cl143	Cl	1.173630	1.124382	-0.439280
Cl144	Cl	1.673630	1.624382	0.060720
H145	H	0.818993	0.447712	-0.447201
H146	H	1.318993	0.947712	0.052799
Cl147	Cl	1.434112	0.268951	-0.731612
Cl148	Cl	1.934112	0.768951	-0.231612
H149	H	1.199119	0.992199	-0.422535
H150	H	1.699119	1.492199	0.077465
Cl151	Cl	1.434130	0.269015	-0.583922
Cl152	Cl	1.934130	0.769015	-0.083922
H153	H	1.408413	0.715621	-0.285579
H154	H	1.908413	1.215621	0.214421
H155	H	0.960269	0.267638	-0.267698
H156	H	1.460269	0.767638	0.232302
H157	H	0.648010	0.295262	-0.295247
H158	H	1.148010	0.795262	0.204753
H159	H	1.451207	0.800384	-0.351065
H160	H	1.951207	1.300384	0.148935
Cl161	Cl	1.173489	0.439415	-0.573420
Cl162	Cl	1.673489	0.939415	-0.073420
Cl163	Cl	1.319998	0.227379	-0.781137
Cl164	Cl	1.819998	0.727379	-0.281137
H165	H	1.156315	0.907429	-0.357034
H166	H	1.656315	1.407429	0.142966
Cl167	Cl	1.320002	0.227326	-0.928831
Cl168	Cl	1.820002	0.727326	-0.428831
H169	H	1.408642	1.119266	-0.285682
H170	H	1.908642	1.619266	0.214318
H171	H	1.156248	0.788723	-0.357013
H172	H	1.656248	1.288723	0.142987
H173	H	1.408572	0.285587	-1.001020
H174	H	1.908572	0.785587	-0.501020
H175	H	1.408566	0.285541	-1.119727
H176	H	1.908566	0.785541	-0.619727
Cl177	Cl	0.768458	0.242185	-0.242335
Cl178	Cl	1.268458	0.742185	0.257665
Cl179	Cl	1.287662	0.480872	-0.927527
Cl180	Cl	1.787662	0.980872	-0.427527
Cl181	Cl	1.173410	0.720737	-0.439179
Cl182	Cl	1.673410	1.220737	0.060821
Cl183	Cl	1.487283	0.935012	-0.350371
Cl184	Cl	1.987283	1.435012	0.149629
Cl185	Cl	1.433908	0.583440	-0.268840
Cl186	Cl	1.933908	1.083440	0.231160
Cl187	Cl	0.627213	0.457801	-0.457269
Cl188	Cl	1.127213	0.957801	0.042731
Cl189	Cl	1.173332	0.573040	-0.439150
Cl190	Cl	1.673332	1.073040	0.060850
Cl191	Cl	1.173512	0.439228	-1.124751
Cl192	Cl	1.673512	0.939228	-0.624751
H193	H	1.199085	0.422560	-0.992583
H194	H	1.699085	0.922560	-0.492583
H195	H	1.290585	0.456019	-0.794449
H196	H	1.790585	0.956019	-0.294449
H197	H	1.199074	0.422652	-0.707656
H198	H	1.699074	0.922652	-0.207656
