data_functionalizedCrystal
_audit_creation_method	'MofGen! by Chris Wilmer'
_symmetry_space_group_name_H-M	'P1'
_symmetry_Int_Tables_number	1
_symmetry_cell_setting	triclinic
loop_
_symmetry_equiv_pos_as_xyz
  x,y,z
_cell_length_a	18.050591
_cell_length_b	21.295417
_cell_length_c	18.050582
_cell_angle_alpha	90.025708
_cell_angle_beta	90.010544
_cell_angle_gamma	90.028543
loop_
_atom_site_label
_atom_site_type_symbol
_atom_site_fract_x
_atom_site_fract_y
_atom_site_fract_z
Zn1	Zn	1.135285	-0.250669	0.419810
Zn2	Zn	1.468618	0.082665	0.753143
Zn3	Zn	1.801951	0.415998	1.086476
Zn4	Zn	1.135192	-0.355930	0.295613
Zn5	Zn	1.468526	-0.022597	0.628946
Zn6	Zn	1.801859	0.310737	0.962279
Zn7	Zn	1.011104	-0.250676	0.295643
Zn8	Zn	1.344437	0.082657	0.628977
Zn9	Zn	1.677771	0.415990	0.962310
Zn10	Zn	1.011049	-0.355902	0.419771
Zn11	Zn	1.344382	-0.022569	0.753104
Zn12	Zn	1.677715	0.310765	1.086437
O13	O	1.073157	-0.303294	0.357709
O14	O	1.406491	0.030039	0.691042
O15	O	1.739824	0.363372	1.024376
O16	O	1.239197	-0.264640	0.403338
O17	O	1.572530	0.068693	0.736671
O18	O	1.905864	0.402026	1.070005
O19	O	1.118716	-0.341983	0.191692
O20	O	1.452049	-0.008649	0.525026
O21	O	1.785383	0.324684	0.858359
O22	O	1.027639	-0.162586	0.312143
O23	O	1.360972	0.170747	0.645476
O24	O	1.694305	0.504081	0.978810
O25	O	1.239129	-0.341975	0.312091
O26	O	1.572462	-0.008642	0.645425
O27	O	1.905796	0.324691	0.978758
O28	O	1.118874	-0.162580	0.403368
O29	O	1.452207	0.170753	0.736701
O30	O	1.785540	0.504086	1.070034
O31	O	1.027549	-0.264654	0.191715
O32	O	1.360882	0.068680	0.525048
O33	O	1.694216	0.402013	0.858381
O34	O	0.907172	-0.264626	0.312105
O35	O	1.240505	0.068707	0.645439
O36	O	1.573839	0.402040	0.978772
O37	O	1.027545	-0.341927	0.523701
O38	O	1.360878	-0.008594	0.857034
O39	O	1.694211	0.324739	1.190367
O40	O	0.907132	-0.341935	0.403301
O41	O	1.240465	-0.008602	0.736635
O42	O	1.573798	0.324732	1.069968
O43	O	1.118820	-0.264613	0.523729
O44	O	1.452154	0.068720	0.857062
O45	O	1.785487	0.402054	1.190396
O46	O	1.118663	-0.444016	0.312054
O47	O	1.451996	-0.110682	0.645387
O48	O	1.785329	0.222651	0.978720
O49	O	1.027455	-0.443995	0.403272
O50	O	1.360788	-0.110662	0.736605
O51	O	1.694122	0.222672	1.069939
C52	C	0.880205	-0.303279	0.357703
C53	C	1.213539	0.030054	0.691036
C54	C	1.546872	0.363388	1.024370
C55	C	0.797660	-0.303287	0.357718
C56	C	1.130993	0.030046	0.691051
C57	C	1.464326	0.363379	1.024385
C58	C	1.073063	-0.466846	0.357672
C59	C	1.406396	-0.133513	0.691005
C60	C	1.739730	0.199821	1.024338
C61	C	1.073090	-0.536814	0.357680
C62	C	1.406424	-0.203481	0.691014
C63	C	1.739757	0.129853	1.024347
C64	C	0.548833	-0.345415	0.407243
C65	C	0.882167	-0.012082	0.740576
C66	C	1.215500	0.321252	1.073910
C67	C	0.598203	-0.360732	0.339456
C68	C	0.931536	-0.027399	0.672789
C69	C	1.264870	0.305934	1.006122
C70	C	0.500539	-0.303307	0.357717
C71	C	0.833873	0.030026	0.691050
C72	C	1.167206	0.363359	1.024383
C73	C	0.598251	-0.288010	0.425500
C74	C	0.931585	0.045324	0.758834
C75	C	1.264918	0.378657	1.092167
C76	C	0.646524	-0.303299	0.357721
C77	C	0.979858	0.030034	0.691054
C78	C	1.313191	0.363368	1.024388
C79	C	0.548821	-0.318654	0.289894
C80	C	0.882155	0.014679	0.623227
C81	C	1.215488	0.348012	0.956560
C82	C	0.548866	-0.245905	0.375984
C83	C	0.882199	0.087428	0.709317
C84	C	1.215532	0.420762	1.042651
C85	C	0.598213	-0.261201	0.308150
C86	C	0.931546	0.072133	0.641484
C87	C	1.264879	0.405466	0.974817
C88	C	0.416441	-0.303314	0.357715
C89	C	0.749774	0.030020	0.691049
C90	C	1.083108	0.363353	1.024382
C91	C	0.730621	-0.303293	0.357715
C92	C	1.063954	0.030041	0.691048
C93	C	1.397287	0.363374	1.024381
C94	C	1.120569	-0.569620	0.405215
C95	C	1.453903	-0.236287	0.738548
C96	C	1.787236	0.097046	1.071881
C97	C	1.120595	-0.635363	0.405233
C98	C	1.453929	-0.302030	0.738566
C99	C	1.787262	0.031304	1.071900
C100	C	1.073151	-0.668296	0.357704
C101	C	1.406484	-0.334963	0.691037
C102	C	1.739817	-0.001630	1.024370
C103	C	1.025662	-0.635482	0.310166
C104	C	1.358996	-0.302149	0.643499
C105	C	1.692329	0.031185	0.976832
C106	C	1.025632	-0.569741	0.310154
C107	C	1.358966	-0.236407	0.643487
C108	C	1.692299	0.096926	0.976821
N109	N	1.067546	-0.771554	0.292710
N110	N	1.400880	-0.438220	0.626043
N111	N	1.734213	-0.104887	0.959376
N112	N	1.067579	-0.834005	0.292723
N113	N	1.400913	-0.500672	0.626056
N114	N	1.734246	-0.167338	0.959390
C115	C	1.073237	-0.866371	0.357737
C116	C	1.406571	-0.533038	0.691070
C117	C	1.739904	-0.199704	1.024404
N118	N	1.078875	-0.833927	0.422739
N119	N	1.412209	-0.500593	0.756072
N120	N	1.745542	-0.167260	1.089406
N121	N	1.078846	-0.771469	0.422725
N122	N	1.412180	-0.438136	0.756058
N123	N	1.745513	-0.104803	1.089392
C124	C	1.073178	-0.739582	0.357711
C125	C	1.406511	-0.406248	0.691045
C126	C	1.739844	-0.072915	1.024378
C127	C	1.120747	-0.970463	0.405296
C128	C	1.454080	-0.637130	0.738629
C129	C	1.787414	-0.303797	1.071962
C130	C	1.120768	-1.036207	0.405315
C131	C	1.454101	-0.702874	0.738649
C132	C	1.787435	-0.369540	1.071982
C133	C	1.025839	-1.036325	0.310241
C134	C	1.359172	-0.702991	0.643574
C135	C	1.692506	-0.369658	0.976908
C136	C	1.025814	-0.970582	0.310228
C137	C	1.359147	-0.637249	0.643562
C138	C	1.692481	-0.303916	0.976895
C139	C	1.073272	-0.937655	0.357754
C140	C	1.406605	-0.604322	0.691088
C141	C	1.739939	-0.270989	1.024421
C142	C	1.266863	-0.303310	0.357716
C143	C	1.600196	0.030023	0.691049
C144	C	1.933530	0.363357	1.024382
C145	C	1.349409	-0.303317	0.357718
C146	C	1.682742	0.030016	0.691052
C147	C	2.016075	0.363350	1.024385
C148	C	1.073187	-0.303266	0.551415
C149	C	1.406520	0.030067	0.884748
C150	C	1.739853	0.363400	1.218081
C151	C	1.073199	-0.303254	0.633961
C152	C	1.406532	0.030079	0.967294
C153	C	1.739866	0.363412	1.300627
C154	C	1.073273	-0.139104	0.357763
C155	C	1.406606	0.194229	0.691096
C156	C	1.739939	0.527563	1.024430
C157	C	1.073322	-0.069136	0.357786
C158	C	1.406655	0.264198	0.691119
C159	C	1.739989	0.597531	1.024453
C160	C	1.073171	-0.303277	0.164757
C161	C	1.406505	0.030057	0.498090
C162	C	1.739838	0.363390	0.831424
C163	C	1.073303	-0.303111	0.082212
C164	C	1.406636	0.030222	0.415545
C165	C	1.739969	0.363555	0.748878
C166	C	1.023601	-0.345241	0.833396
C167	C	1.356935	-0.011907	1.166729
C168	C	1.690268	0.321426	1.500063
C169	C	1.091356	-0.360629	0.882781
C170	C	1.424689	-0.027296	1.216114
C171	C	1.758023	0.306038	1.549448
C172	C	1.073236	-0.303206	0.785091
C173	C	1.406569	0.030127	1.118424
C174	C	1.739902	0.363460	1.451758
C175	C	1.005518	-0.287800	0.882788
C176	C	1.338851	0.045533	1.216121
C177	C	1.672185	0.378866	1.549454
C178	C	1.073265	-0.303161	0.931076
C179	C	1.406598	0.030172	1.264410
C180	C	1.739932	0.363506	1.597743
C181	C	1.141026	-0.318625	0.833389
C182	C	1.474359	0.014708	1.166722
C183	C	1.807693	0.348042	1.500056
C184	C	1.055142	-0.245770	0.833391
C185	C	1.388476	0.087564	1.166725
C186	C	1.721809	0.420897	1.500058
C187	C	1.122944	-0.261136	0.882754
C188	C	1.456277	0.072197	1.216087
C189	C	1.789610	0.405530	1.549421
C190	C	1.073218	-0.303234	0.700993
C191	C	1.406551	0.030099	1.034326
C192	C	1.739884	0.363433	1.367659
C193	C	1.073291	-0.303133	1.015173
C194	C	1.406624	0.030200	1.348506
C195	C	1.739957	0.363533	1.681839
H196	H	0.527152	-0.381055	0.449071
H197	H	0.860486	-0.047721	0.782405
H198	H	1.193819	0.285612	1.115738
O199	O	0.626913	-0.425026	0.318976
O200	O	0.960246	-0.091693	0.652309
O201	O	1.293579	0.241640	0.985642
H202	H	0.607139	-0.459901	0.360162
H203	H	0.940473	-0.126568	0.693495
H204	H	1.273806	0.206765	1.026828
H205	H	0.527200	-0.331648	0.232556
H206	H	0.860534	0.001685	0.565889
H207	H	1.193867	0.335018	0.899223
H208	H	1.159431	-1.062917	0.444027
H209	H	1.492764	-0.729584	0.777360
H210	H	1.826098	-0.396250	1.110694
H211	H	1.039801	-0.197230	0.811680
H212	H	1.373134	0.136104	1.145013
H213	H	1.706468	0.469437	1.478347
O214	O	0.626767	-0.214030	0.252617
O215	O	0.960101	0.119303	0.585950
O216	O	1.293434	0.452637	0.919283
H217	H	0.606865	-0.226875	0.196431
H218	H	0.940198	0.106459	0.529764
H219	H	1.273532	0.439792	0.863097
O220	O	1.178617	-0.214021	0.911283
O221	O	1.511951	0.119312	1.244617
O222	O	1.845284	0.452646	1.577950
H223	H	1.177900	-0.214044	0.972770
H224	H	1.511233	0.119290	1.306103
H225	H	1.844566	0.452623	1.639436
O226	O	0.974490	-0.671002	0.258903
O227	O	1.307823	-0.337669	0.592236
O228	O	1.641156	-0.004336	0.925570
H229	H	0.941464	-0.637142	0.225850
H230	H	1.274797	-0.303809	0.559183
H231	H	1.608130	0.029525	0.892516
H232	H	0.948238	-0.274789	0.904487
H233	H	1.281571	0.058545	1.237820
H234	H	1.614905	0.391878	1.571153
H235	H	0.527177	-0.197379	0.391458
H236	H	0.860510	0.135955	0.724791
H237	H	1.193843	0.469288	1.058124
O238	O	0.974431	-0.534350	0.258873
O239	O	1.307764	-0.201017	0.592206
O240	O	1.641098	0.132317	0.925540
H241	H	0.941446	-0.568293	0.225820
H242	H	1.274780	-0.234959	0.559153
H243	H	1.608113	0.098374	0.892487
H244	H	1.159210	-0.542813	0.443915
H245	H	1.492544	-0.209480	0.777249
H246	H	1.825877	0.123853	1.110582
H247	H	0.619964	-0.275074	0.482822
H248	H	0.953297	0.058259	0.816156
H249	H	1.286630	0.391592	1.149489
O250	O	1.171812	-0.670760	0.456498
O251	O	1.505145	-0.337427	0.789832
O252	O	1.838479	-0.004093	1.123165
H253	H	1.204810	-0.636819	0.489540
H254	H	1.538144	-0.303486	0.822873
H255	H	1.871477	0.029848	1.156206
H256	H	0.987204	-1.063138	0.271546
H257	H	1.320537	-0.729805	0.604880
H258	H	1.653870	-0.396472	0.938213
O259	O	1.171924	-0.934942	0.456558
O260	O	1.505257	-0.601608	0.789891
O261	O	1.838591	-0.268275	1.123225
H262	H	1.204937	-0.968802	0.489625
H263	H	1.538270	-0.635469	0.822958
H264	H	1.871603	-0.302135	1.156292
H265	H	0.987155	-0.943869	0.271518
H266	H	1.320489	-0.610536	0.604851
H267	H	1.653822	-0.277203	0.938185
H268	H	0.981667	-0.380834	0.811724
H269	H	1.315000	-0.047501	1.145058
H270	H	1.648333	0.285833	1.478391
H271	H	1.106677	-0.409183	0.904476
H272	H	1.440011	-0.075850	1.237809
H273	H	1.773344	0.257484	1.571142
O274	O	1.217025	-0.335618	0.804778
O275	O	1.550358	-0.002285	1.138112
O276	O	1.883691	0.331049	1.471445
H277	H	1.216445	-0.335408	0.743291
H278	H	1.549778	-0.002075	1.076624
H279	H	1.883112	0.331259	1.409957
