data_functionalizedCrystal
_audit_creation_method	'MofGen! by Chris Wilmer'
_symmetry_space_group_name_H-M	'P1'
_symmetry_Int_Tables_number	1
_symmetry_cell_setting	triclinic
loop_
_symmetry_equiv_pos_as_xyz
  x,y,z
_cell_length_a	14.628931
_cell_length_b	31.640172
_cell_length_c	14.628931
_cell_angle_alpha	90.004141
_cell_angle_beta	59.999972
_cell_angle_gamma	59.998250
loop_
_atom_site_label
_atom_site_type_symbol
_atom_site_fract_x
_atom_site_fract_y
_atom_site_fract_z
Zr1	Zr	1.000467	0.407183	-0.119845
O2	O	1.191191	0.339693	-0.265825
O3	O	0.809756	0.427872	-0.075094
O4	O	1.000462	0.427872	-0.265800
O5	O	1.000486	0.339693	0.075312
O6	O	1.000443	0.497429	-0.265780
O7	O	1.000486	0.339693	-0.075120
O8	O	0.659305	0.497429	0.075358
O9	O	1.341623	0.339693	-0.265826
O10	O	0.888180	0.488605	-0.055993
O11	O	0.888194	0.436696	0.056257
O12	O	1.112725	0.436695	-0.168274
O13	O	1.112739	0.384786	-0.056024
Zr14	Zr	1.000437	0.518118	0.120109
Zr15	Zr	1.000437	0.518118	-0.119813
Zr16	Zr	1.000467	0.407183	0.120077
Zr17	Zr	1.240389	0.407183	-0.119845
Zr18	Zr	0.760516	0.518118	0.120109
O19	O	1.191148	0.497429	0.075358
O20	O	1.191148	0.497429	-0.265780
O21	O	1.191191	0.339693	0.075312
O22	O	0.809713	0.585608	0.266089
O23	O	0.809713	0.585608	-0.075048
O24	O	0.809756	0.427872	0.266044
O25	O	1.000419	0.585608	-0.075049
O26	O	1.000443	0.497429	0.266063
O27	O	1.000462	0.427872	0.266043
O28	O	1.000419	0.585608	0.075383
O29	O	1.341599	0.427872	-0.265800
O30	O	0.659305	0.497429	0.266064
O31	O	0.659281	0.585608	0.266089
O32	O	0.659281	0.585608	0.075384
O33	O	1.341623	0.339693	-0.075120
O34	O	1.341599	0.427872	-0.075095
O35	O	0.888180	0.488605	0.168538
O36	O	0.888165	0.540515	0.056287
O37	O	1.112711	0.488605	-0.055994
O38	O	1.112725	0.436696	0.056257
C39	C	0.700347	0.462650	0.000132
C40	C	0.598494	0.462650	0.000132
C41	C	0.447827	0.436900	0.055815
C42	C	0.553097	0.436900	0.055816
C43	C	1.000490	0.323887	0.000092
C44	C	1.000503	0.276792	0.000078
C45	C	0.883230	0.011882	0.058764
C46	C	0.883207	-0.165103	0.058786
O47	O	0.783524	-0.164944	0.108672
N48	N	1.000417	-0.214329	0.000175
C49	C	1.117640	-0.219308	-0.058440
O50	O	1.217334	-0.265238	-0.108282
C51	C	1.117661	-0.042323	-0.058454
C52	C	1.000444	0.006902	0.000151
C53	C	0.766022	0.061106	0.117366
C54	C	0.766029	0.105349	0.117355
C55	C	0.883243	0.100369	0.058742
C56	C	1.000451	0.051146	0.000140
C57	C	1.234884	-0.047303	-0.117062
C58	C	1.234878	-0.003051	-0.117058
C59	C	1.117661	0.046174	-0.058453
C60	C	1.117672	0.090409	-0.058484
N61	N	1.000463	0.139635	0.000127
C62	C	0.883248	0.144615	0.058740
C63	C	1.117621	-0.312225	-0.058429
C64	C	1.117616	-0.356471	-0.058427
C65	C	0.883183	-0.302263	0.058800
C66	C	0.883189	-0.258017	0.058791
C67	C	1.000412	-0.262999	0.000182
C68	C	0.883271	0.237527	0.058711
C69	C	0.883289	0.281772	0.058691
C70	C	1.117721	0.227560	-0.058531
C71	C	1.117705	0.183319	-0.058516
C72	C	1.000469	0.188306	0.000113
O73	O	1.217304	0.090290	-0.108334
O74	O	0.783570	0.190550	0.108595
C75	C	0.883223	-0.032361	0.058775
C76	C	1.000431	-0.081584	0.000173
C77	C	1.117645	-0.086564	-0.058440
C78	C	1.000426	-0.125830	0.000175
C79	C	0.883211	-0.120850	0.058788
C80	C	0.766002	-0.071624	0.117399
C81	C	0.766009	-0.027381	0.117388
C82	C	1.234855	-0.135790	-0.117051
C83	C	1.234838	-0.180031	-0.117036
C84	C	1.117624	-0.175052	-0.058423
C85	C	1.300558	0.462651	0.000131
C86	C	1.402411	0.462651	0.000131
C87	C	1.000452	0.462650	-0.299973
C88	C	1.000452	0.462650	-0.401826
C89	C	1.000415	0.601414	0.000172
C90	C	1.000402	0.648509	0.000185
C91	C	1.000442	0.499067	-0.447225
C92	C	1.000442	0.499068	-0.552495
C93	C	1.000452	0.462651	0.300237
C94	C	1.000452	0.462651	0.402090
C95	C	0.700309	0.601413	0.000172
C96	C	0.598443	0.648508	0.000186
C97	C	0.700347	0.462650	0.300238
C98	C	0.598494	0.462650	0.402091
C99	C	0.700309	0.601414	0.300278
C100	C	0.598443	0.648509	0.402144
C101	C	1.300595	0.323887	-0.300014
C102	C	1.402461	0.276792	-0.401880
C103	C	1.300595	0.323887	0.000091
C104	C	1.402461	0.276792	0.000078
C105	C	1.300558	0.462650	-0.299974
C106	C	1.402411	0.462650	-0.401827
C107	C	0.550614	0.643528	-0.058427
C108	C	0.454913	0.687775	-0.058436
C109	C	0.407038	0.737001	0.000174
C110	C	0.454877	0.741980	0.058789
C111	C	0.550582	0.697734	0.058791
C112	C	0.550599	0.697726	0.391388
C113	C	0.454898	0.741981	0.487094
C114	C	0.407038	0.737018	0.593554
C115	C	0.454892	0.687795	0.604308
C116	C	0.550597	0.643541	0.508603
C117	C	1.450317	0.227575	-0.391124
C118	C	1.546048	0.183320	-0.486830
C119	C	1.593913	0.188283	-0.593290
C120	C	1.546053	0.237505	-0.604044
C121	C	1.450331	0.281759	-0.508340
C122	C	1.450301	0.281772	0.058681
C123	C	1.546028	0.237526	0.058664
C124	C	1.593907	0.188300	0.000050
C125	C	1.546063	0.183321	-0.058560
C126	C	1.450344	0.227567	-0.058549
C127	C	0.553078	0.488401	0.503199
C128	C	0.447808	0.488402	0.608471
H129	H	0.592159	0.414851	0.103484
Cl130	Cl	1.390171	0.343631	-0.521881
H131	H	1.000454	0.431474	-0.440889
H132	H	1.411325	0.321851	0.106419
Cl133	Cl	1.382252	-0.109178	-0.190731
Cl134	Cl	1.382226	-0.142061	-0.190744
Cl135	Cl	1.606190	0.121447	-0.473285
Cl136	Cl	0.538212	0.496687	-0.073485
Cl137	Cl	1.390206	0.221297	-0.132221
H138	H	1.671847	0.152276	0.000050
H139	H	1.000441	0.530244	-0.591540
Cl140	Cl	0.613372	0.522436	0.516529
Cl141	Cl	1.714249	0.132644	-0.713595
H142	H	0.441457	0.484699	-0.047536
H143	H	0.408749	0.510449	0.695207
H144	H	1.330337	-0.007114	-0.164771
Cl145	Cl	0.286718	0.792657	0.713859
Cl146	Cl	1.606149	0.243797	0.132357
Cl147	Cl	1.265065	0.121435	-0.132215
H148	H	0.441456	0.440607	0.511443
H149	H	0.787832	0.321854	0.106418
H150	H	0.589593	0.603450	-0.106168
Cl151	Cl	0.394753	0.803854	0.473549
Cl152	Cl	0.735888	0.243804	0.132415
H153	H	0.559447	0.440603	0.393464
Cl154	Cl	0.394787	0.681503	-0.132124
H155	H	0.670579	0.145427	0.165073
H156	H	0.670567	0.065169	0.165101
Cl157	Cl	0.387522	0.402870	0.129440
H158	H	1.585038	0.241541	-0.690735
Cl159	Cl	0.735825	-0.196137	0.132472
H160	H	0.589513	0.701796	0.106527
Cl161	Cl	1.382213	-0.241913	-0.190722
Cl162	Cl	0.735828	-0.296011	0.132486
H163	H	1.213154	0.223514	-0.106256
Cl164	Cl	1.000419	0.547208	-0.386914
Cl165	Cl	0.610725	0.581670	0.522145
H166	H	1.411351	0.223524	-0.304448
H167	H	0.589553	0.701777	0.304711
Cl168	Cl	0.394709	0.681564	0.738153
Cl169	Cl	1.000476	0.414508	-0.537648
H170	H	0.670558	0.012697	0.165113
Cl171	Cl	1.606262	0.121433	-0.132236
Cl172	Cl	0.286718	0.792620	0.000163
H173	H	1.213083	-0.316291	-0.106164
Cl174	Cl	1.264981	-0.418351	-0.132122
H175	H	0.670561	-0.067577	0.165117
H176	H	0.415883	0.782066	0.106507
