data_functionalizedCrystal
_audit_creation_method	'MofGen! by Chris Wilmer'
_symmetry_space_group_name_H-M	'P1'
_symmetry_Int_Tables_number	1
_symmetry_cell_setting	triclinic
loop_
_symmetry_equiv_pos_as_xyz
  x,y,z
_cell_length_a	17.638891
_cell_length_b	10.686220
_cell_length_c	10.686551
_cell_angle_alpha	90.308082
_cell_angle_beta	84.000830
_cell_angle_gamma	97.738098
loop_
_atom_site_label
_atom_site_type_symbol
_atom_site_fract_x
_atom_site_fract_y
_atom_site_fract_z
Zn1	Zn	0.186914	2.036976	-0.617775
Zn2	Zn	0.325682	2.068772	-0.449138
Zn3	Zn	0.206527	1.817882	-0.429904
Zn4	Zn	0.324128	1.874665	-0.674455
O5	O	0.260813	1.949574	-0.542818
O6	O	0.197765	2.214120	-0.579733
O7	O	0.318734	2.025034	-0.273666
O8	O	0.096634	1.809875	-0.423056
O9	O	0.299716	2.237481	-0.455836
O10	O	0.082225	1.970842	-0.561083
O11	O	0.231191	1.840706	-0.259535
O12	O	0.229685	1.652488	-0.478016
O13	O	0.297068	1.906652	-0.839857
O14	O	0.316086	1.694206	-0.657686
O15	O	0.196258	2.025902	-0.798214
O16	O	0.432767	2.080094	-0.510797
O17	O	0.431626	1.937484	-0.676336
C18	C	0.274845	1.628509	-0.571915
C19	C	0.280866	1.491165	-0.584398
C20	C	0.060832	1.880478	-0.483602
C21	C	-0.024388	1.851033	-0.458367
C22	C	-0.342173	2.173293	-0.734580
C23	C	-0.422248	2.145624	-0.710825
C24	C	-0.407234	1.978023	-0.567109
C25	C	-0.327157	2.005674	-0.590856
C26	C	-0.294633	2.103311	-0.674592
C27	C	-0.279616	1.935692	-0.530868
C28	C	-0.199545	1.963346	-0.554609
C29	C	-0.167015	2.060981	-0.638338
C30	C	-0.214562	2.130965	-0.698332
C31	C	-0.312142	1.838061	-0.447126
C32	C	-0.264601	1.768079	-0.387138
C33	C	-0.184529	1.795727	-0.410885
C34	C	-0.151999	1.893362	-0.494614
C35	C	-0.136982	1.725743	-0.350891
C36	C	-0.056912	1.753396	-0.374632
C37	C	-0.071928	1.921015	-0.518355
C38	C	0.460013	2.018436	-0.601828
C39	C	0.545224	2.048011	-0.627104
C40	C	0.244302	1.969064	-0.865125
C41	C	0.237266	1.977370	-1.002474
C42	C	0.246726	2.271892	-0.513608
C43	C	0.240723	2.409245	-0.501160
C44	C	0.277201	1.930211	-0.221741
C45	C	0.284010	1.922070	-0.084308
H46	H	0.201751	1.444182	-0.420346
H47	H	0.319846	1.456223	-0.665211
H48	H	-0.377341	1.815555	-0.427793
H49	H	-0.045446	2.000498	-0.586567
H50	H	-0.163474	1.646254	-0.282704
C51	C	-0.078934	2.091399	-0.664455
N52	N	-0.012592	2.114308	-0.684128
C53	C	-0.178781	2.238363	-0.790456
N54	N	-0.151831	2.319252	-0.859840
H55	H	-0.315691	2.252777	-0.802792
C56	C	-0.474541	2.222606	-0.776837
N57	N	-0.513928	2.280586	-0.826560
C58	C	-0.443021	1.870621	-0.475006
N59	N	-0.469974	1.789720	-0.405638
C60	C	-0.300388	1.660678	-0.295036
N61	N	-0.327341	1.579777	-0.225668
C62	C	0.345347	1.849520	-1.037008
N63	N	0.391546	1.794871	-1.001374
C64	C	-0.004614	1.676409	-0.308646
N65	N	0.034776	1.618422	-0.258941
C66	C	0.175924	2.049919	-1.049777
N67	N	0.129720	2.104559	-1.085407
