data_functionalizedCrystal
_audit_creation_method	'MofGen! by Chris Wilmer'
_symmetry_space_group_name_H-M	'P1'
_symmetry_Int_Tables_number	1
_symmetry_cell_setting	triclinic
loop_
_symmetry_equiv_pos_as_xyz
  x,y,z
_cell_length_a	11.792241
_cell_length_b	19.188930
_cell_length_c	10.268362
_cell_angle_alpha	89.989600
_cell_angle_beta	89.999626
_cell_angle_gamma	83.669099
loop_
_atom_site_label
_atom_site_type_symbol
_atom_site_fract_x
_atom_site_fract_y
_atom_site_fract_z
O1	O	1.505476	0.095695	-0.108190
O2	O	1.174988	0.105558	-0.108222
O3	O	1.349769	-0.000975	-0.108179
O4	O	1.330695	0.202228	-0.108232
O5	O	1.349754	-0.000980	0.108421
O6	O	1.174973	0.105553	0.108379
O7	O	1.505461	0.095691	0.108411
Cu8	Cu	1.340216	0.100622	0.128172
Cu9	Cu	1.340233	0.100627	-0.127983
O10	O	1.330680	0.202224	0.108368
C11	C	1.132699	0.104936	0.000075
C12	C	1.006713	0.103082	0.000064
C13	C	1.349144	-0.026992	0.000125
C14	C	1.347290	-0.104507	0.000136
C15	C	0.776051	0.099672	0.000102
C16	C	0.904408	0.101566	0.000081
C17	C	1.449846	-0.148850	0.000152
C18	C	1.448104	-0.221684	0.000131
C19	C	1.343800	-0.250171	0.000120
C20	C	1.241230	-0.205818	0.000096
C21	C	1.242975	-0.132986	0.000104
N22	N	1.264067	-0.358629	0.073825
N23	N	1.262416	-0.427817	0.073820
C24	C	1.338536	-0.469609	0.000093
N25	N	1.416387	-0.439602	-0.073614
N26	N	1.418041	-0.370407	-0.073603
C27	C	1.341896	-0.329144	0.000110
C28	C	1.439211	-0.592928	0.000084
C29	C	1.437464	-0.665762	0.000055
C30	C	1.230588	-0.649895	0.000034
C31	C	1.232337	-0.577062	0.000050
C32	C	1.336652	-0.548583	0.000081
C33	C	1.547751	0.096313	0.000111
C34	C	1.673737	0.098167	0.000114
C35	C	1.331305	0.228240	0.000062
C36	C	1.333159	0.305755	0.000042
N37	N	1.340211	0.100617	0.308338
N38	N	1.340247	0.100625	-0.308149
C39	C	1.340228	0.100625	0.574009
C40	C	1.340215	0.100623	0.426171
H41	H	1.534787	-0.125667	0.000173
O42	O	1.547836	-0.264669	0.000208
C43	C	1.640278	-0.223914	0.000199
H44	H	1.611199	-0.169675	0.041202
H45	H	1.672285	-0.218598	-0.103708
C46	C	1.773020	-0.326464	0.034802
C47	C	1.737306	-0.259848	0.085173
H48	H	1.832873	-0.348630	0.087212
H49	H	1.710740	-0.353922	0.034803
H50	H	1.799684	-0.322024	-0.051787
H51	H	1.710629	-0.264288	0.171753
H52	H	1.799583	-0.232391	0.085188
O53	O	1.139981	-0.233570	-0.000086
C54	C	1.132781	-0.275199	-0.112284
H55	H	1.222329	-0.292992	-0.149672
H56	H	1.082417	-0.243208	-0.190843
C57	C	0.962002	-0.317997	-0.032300
C58	C	1.071987	-0.339856	-0.078213
H59	H	0.924496	-0.357879	-0.011286
H60	H	0.966849	-0.289949	0.043289
H61	H	0.920046	-0.291337	-0.097773
H62	H	1.113944	-0.366508	-0.012735
H63	H	1.067145	-0.367910	-0.153790
H64	H	1.159459	-0.096881	0.000091
O65	O	1.536988	-0.708940	0.000006
C66	C	1.513084	-0.779331	0.000014
H67	H	1.423957	-0.782455	-0.041009
H68	H	1.517481	-0.800393	0.103924
C69	C	1.710898	-0.819717	-0.034539
C70	C	1.601434	-0.823554	-0.084936
H71	H	1.765398	-0.846997	-0.086935
H72	H	1.727004	-0.772293	-0.034540
H73	H	1.714545	-0.837267	0.052051
H74	H	1.597784	-0.805995	-0.171518
H75	H	1.585329	-0.870976	-0.084951
O76	O	1.540635	-0.565373	0.000034
C77	C	1.630784	-0.620134	0.000058
H78	H	1.599216	-0.669721	-0.040955
H79	H	1.662406	-0.630333	0.103970
C80	C	1.767958	-0.538289	-0.034513
C81	C	1.729188	-0.599191	-0.084895
H82	H	1.828660	-0.525370	-0.086910
H83	H	1.707224	-0.501395	-0.034524
H84	H	1.794301	-0.546796	0.052080
H85	H	1.702832	-0.590680	-0.171480
H86	H	1.789920	-0.636083	-0.084901
H87	H	1.145661	-0.673089	0.000018
O88	O	1.132608	-0.534083	0.000109
C89	C	1.040170	-0.574842	0.000062
H90	H	1.069246	-0.629090	0.041064
H91	H	1.008186	-0.580134	-0.103856
C92	C	0.907412	-0.472305	0.034642
C93	C	0.943122	-0.538932	0.085011
H94	H	0.847546	-0.450153	0.087037
H95	H	0.969689	-0.444844	0.034669
H96	H	0.880767	-0.476724	-0.051956
H97	H	0.969780	-0.534511	0.171601
H98	H	0.880848	-0.566391	0.085001
