data_functionalizedCrystal
_audit_creation_method	'MofGen! by Chris Wilmer'
_symmetry_space_group_name_H-M	'P1'
_symmetry_Int_Tables_number	1
_symmetry_cell_setting	triclinic
loop_
_symmetry_equiv_pos_as_xyz
  x,y,z
_cell_length_a	15.944551
_cell_length_b	15.995350
_cell_length_c	14.472310
_cell_angle_alpha	90.009379
_cell_angle_beta	89.997979
_cell_angle_gamma	96.504443
loop_
_atom_site_label
_atom_site_type_symbol
_atom_site_fract_x
_atom_site_fract_y
_atom_site_fract_z
O1	O	0.108264	-1.111003	-0.076765
O2	O	0.608264	-0.611003	0.423235
O3	O	0.121634	-0.867228	-0.076784
O4	O	0.621634	-0.367228	0.423216
O5	O	-0.007326	-0.995772	-0.076765
O6	O	0.492674	-0.495772	0.423235
O7	O	0.237224	-0.982458	-0.076783
O8	O	0.737224	-0.482458	0.423217
O9	O	-0.007319	-0.995739	0.076917
O10	O	0.492681	-0.495739	0.576917
O11	O	0.121641	-0.867195	0.076898
O12	O	0.621641	-0.367195	0.576898
O13	O	0.108272	-1.110969	0.076917
O14	O	0.608272	-0.610969	0.576917
Cu15	Cu	0.114957	-0.989079	0.090940
Cu16	Cu	0.614957	-0.489079	0.590940
Cu17	Cu	0.114948	-0.989118	-0.090807
Cu18	Cu	0.614948	-0.489118	0.409193
O19	O	0.237232	-0.982425	0.076899
O20	O	0.737232	-0.482425	0.576899
C21	C	0.121085	-0.836017	0.000055
C22	C	0.621085	-0.336017	0.500055
C23	C	0.119428	-0.743066	0.000048
C24	C	0.619428	-0.243066	0.500048
C25	C	-0.038616	-0.995203	0.000076
C26	C	0.461384	-0.495203	0.500076
C27	C	-0.131862	-0.993546	0.000076
C28	C	0.368138	-0.493546	0.500076
C29	C	0.108821	-1.142181	0.000077
C30	C	0.608821	-0.642181	0.500077
C31	C	0.110478	-1.235131	0.000078
C32	C	0.610478	-0.735131	0.500078
C33	C	-0.346714	-0.909908	0.000057
C34	C	0.153286	-0.409908	0.500057
C35	C	-0.407730	-0.948730	0.075834
C36	C	0.092270	-0.448730	0.575834
C37	C	-0.302588	-0.990548	0.000069
C38	C	0.197412	-0.490548	0.500069
C39	C	-0.407721	-0.948782	-0.075684
C40	C	0.092279	-0.448782	0.424316
C41	C	-0.467501	-0.987647	0.000058
C42	C	0.032499	-0.487647	0.500058
C43	C	-0.362376	-1.029393	0.075909
C44	C	0.137624	-0.529393	0.575909
C45	C	-0.362360	-1.029433	-0.075678
C46	C	0.137640	-0.529433	0.424322
C47	C	-0.423358	-1.068315	0.000119
C48	C	0.076642	-0.568315	0.500119
C49	C	-0.207586	-0.992217	0.000076
C50	C	0.292414	-0.492217	0.500076
C51	C	-0.562502	-0.985984	0.000057
C52	C	-0.062502	-0.485984	0.500057
C53	C	0.268522	-0.982995	0.000056
C54	C	0.768522	-0.482995	0.500056
C55	C	0.361768	-0.984652	0.000049
C56	C	0.861768	-0.484652	0.500049
N57	N	0.114963	-0.989058	0.218771
N58	N	0.614963	-0.489058	0.718771
C59	C	0.113477	-0.405318	0.000067
C60	C	0.613477	0.094682	0.500067
C61	C	0.021634	-0.452747	0.000417
C62	C	0.521634	0.047253	0.500417
C63	C	0.023291	-0.549438	0.000064
C64	C	0.523291	-0.049438	0.500064
C65	C	0.116429	-0.572879	0.000058
C66	C	0.616429	-0.072879	0.500058
C67	C	0.161724	-0.531813	-0.087701
C68	C	0.661724	-0.031813	0.412299
C69	C	0.159417	-0.435178	-0.087768
C70	C	0.659417	0.064822	0.412232
C71	C	0.161323	-0.434801	0.086997
C72	C	0.661323	0.065199	0.586997
C73	C	0.161302	-0.531746	0.088150
C74	C	0.661302	-0.031746	0.588150
C75	C	0.118102	-0.667577	0.000050
C76	C	0.618102	-0.167577	0.500050
C77	C	0.111806	-0.310620	0.000069
C78	C	0.611806	0.189380	0.500069
N79	N	0.114936	-0.989146	-0.218638
N80	N	0.614936	-0.489146	0.281362
C81	C	0.114945	-0.989117	0.592862
C82	C	0.614945	-0.489117	1.092862
C83	C	0.183717	-0.920105	0.553686
C84	C	0.683717	-0.420105	1.053686
C85	C	0.183968	-0.920264	0.446598
C86	C	0.683968	-0.420264	0.946598
C87	C	0.114954	-0.989087	0.407271
C88	C	0.614954	-0.489087	0.907271
C89	C	0.134096	-1.076453	0.446114
C90	C	0.634096	-0.576453	0.946114
C91	C	0.134585	-1.076065	0.553235
C92	C	0.634585	-0.576065	1.053235
C93	C	0.026826	-0.971543	0.553396
C94	C	0.526826	-0.471543	1.053396
C95	C	0.027414	-0.969539	0.446269
C96	C	0.527414	-0.469539	0.946269
C97	C	0.114957	-0.989075	0.302383
C98	C	0.614957	-0.489075	0.802383
C99	C	0.114943	-0.989135	0.697750
C100	C	0.614943	-0.489135	1.197750
H101	H	-0.313403	-0.842972	0.000127
H102	H	0.186597	-0.342972	0.500127
C103	C	-0.434897	-0.902642	0.162370
C104	C	0.065103	-0.402642	0.662370
H105	H	-0.472570	-0.939958	0.198049
H106	H	0.027430	-0.439958	0.698049
H107	H	-0.462353	-0.855587	0.144155
H108	H	0.037647	-0.355587	0.644155
H109	H	-0.386518	-0.883957	0.198302
H110	H	0.113482	-0.383957	0.698302
H111	H	-0.015075	-0.434210	0.063353
H112	H	0.484925	0.065790	0.563353
H113	H	0.248741	-0.931173	0.580592
H114	H	0.748741	-0.431173	1.080592
H115	H	-0.456521	-1.135309	0.000167
H116	H	0.043479	-0.635309	0.500167
H117	H	-0.342235	-1.063526	-0.139740
H118	H	0.157765	-0.563526	0.360260
H119	H	-0.342384	-1.063458	0.140043
H120	H	0.157616	-0.563458	0.640043
H121	H	-0.427799	-0.914677	-0.139753
H122	H	0.072201	-0.414677	0.360247
H123	H	0.229039	-0.403043	0.087586
H124	H	0.729039	0.096957	0.587586
H125	H	-0.012314	-0.577851	0.062974
H126	H	0.487686	-0.077851	0.562974
C127	C	-0.027746	-0.426298	-0.084122
C128	C	0.472254	0.073702	0.415878
H129	H	-0.083165	-0.455241	-0.083378
H130	H	0.416835	0.044759	0.416622
H131	H	0.000295	-0.439967	-0.139080
H132	H	0.500295	0.060033	0.360920
H133	H	-0.030841	-0.367363	-0.082052
H134	H	0.469159	0.132637	0.417948
H135	H	-0.012561	-0.577307	-0.062951
H136	H	0.487439	-0.077307	0.437049
H137	H	0.012886	-0.905272	0.420882
H138	H	0.512886	-0.405272	0.920882
C139	C	0.114780	-0.410457	-0.176379
C140	C	0.614780	0.089543	0.323621
H141	H	0.098221	-0.459452	-0.211994
H142	H	0.598221	0.040548	0.288006
H143	H	0.152305	-0.372492	-0.211467
H144	H	0.652305	0.127508	0.288533
H145	H	0.066261	-0.384190	-0.160338
H146	H	0.566261	0.115810	0.339662
C147	C	0.272303	-0.935430	0.411957
C148	C	0.772303	-0.435430	0.911957
H149	H	0.308172	-0.941525	0.463353
H150	H	0.808172	-0.441525	0.963353
H151	H	0.295124	-0.888933	0.375524
H152	H	0.795124	-0.388933	0.875524
H153	H	0.268110	-0.985204	0.375633
H154	H	0.768110	-0.485204	0.875633
C155	C	0.250502	-0.391615	-0.093179
C156	C	0.750502	0.108385	0.406821
H157	H	0.288750	-0.433001	-0.095332
H158	H	0.788750	0.066999	0.404668
H159	H	0.262100	-0.357088	-0.040264
H160	H	0.762100	0.142912	0.459736
H161	H	0.256852	-0.357891	-0.147301
H162	H	0.756852	0.142109	0.352699
C163	C	0.254158	-0.550904	-0.092127
C164	C	0.754158	-0.050904	0.407873
H165	H	0.265974	-0.584172	-0.040370
H166	H	0.765974	-0.084172	0.459630
H167	H	0.290580	-0.499620	-0.091313
H168	H	0.790580	0.000380	0.408687
H169	H	0.262942	-0.580718	-0.147426
H170	H	0.762942	-0.080718	0.352574
H171	H	0.198850	-1.091551	0.578207
H172	H	0.698850	-0.591551	1.078207
C173	C	0.119215	-0.570150	-0.175930
C174	C	0.619215	-0.070150	0.324070
H175	H	0.073869	-0.611171	-0.159471
H176	H	0.573869	-0.111171	0.340529
H177	H	0.159330	-0.595894	-0.211439
H178	H	0.659330	-0.095894	0.288561
H179	H	0.098200	-0.527031	-0.211301
H180	H	0.598200	-0.027031	0.288699
C181	C	-0.044968	-1.033026	0.410113
C182	C	0.455032	-0.533026	0.910113
H183	H	-0.097055	-1.019697	0.434768
H184	H	0.402945	-0.519697	0.934768
H185	H	-0.035753	-1.088209	0.428681
H186	H	0.464247	-0.588209	0.928681
H187	H	-0.046758	-1.030330	0.344579
H188	H	0.453242	-0.530330	0.844579
H189	H	0.131301	-0.414250	0.153516
H190	H	0.631301	0.085750	0.653516
C191	C	0.116633	-0.568619	0.175859
C192	C	0.616633	-0.068619	0.675859
H193	H	0.070830	-0.608917	0.158874
H194	H	0.570830	-0.108917	0.658874
H195	H	0.096002	-0.524717	0.210327
H196	H	0.596002	-0.024717	0.710327
H197	H	0.155512	-0.594993	0.212481
H198	H	0.655512	-0.094993	0.712481
C199	C	0.068237	-1.147490	0.411695
C200	C	0.568237	-0.647490	0.911695
H201	H	0.028389	-1.124443	0.373234
H202	H	0.528389	-0.624443	0.873234
H203	H	0.039959	-1.174712	0.463119
H204	H	0.539959	-0.674712	0.963119
H205	H	0.095738	-1.187135	0.377477
H206	H	0.595738	-0.687135	0.877477
C207	C	0.219921	-1.097880	0.409863
C208	C	0.719921	-0.597880	0.909863
H209	H	0.230939	-1.150868	0.433751
H210	H	0.730939	-0.650868	0.933751
H211	H	0.263145	-1.055733	0.429185
H212	H	0.763145	-0.555733	0.929185
H213	H	0.218619	-1.100272	0.344282
H214	H	0.718619	-0.600272	0.844282
C215	C	0.253058	-0.552493	0.095309
C216	C	0.753058	-0.052493	0.595309
H217	H	0.278593	-0.526857	0.149123
H218	H	0.778593	-0.026857	0.649123
H219	H	0.283687	-0.531688	0.042239
H220	H	0.783687	-0.031688	0.542239
H221	H	0.253501	-0.611740	0.098993
H222	H	0.753501	-0.111740	0.598993
H223	H	0.172563	-0.855324	0.420338
H224	H	0.672563	-0.355324	0.920338
H225	H	0.086470	-1.129023	0.579148
H226	H	0.586470	-0.629023	1.079148
C227	C	0.168577	-0.832091	0.588526
C228	C	0.668577	-0.332091	1.088526
H229	H	0.120182	-0.836641	0.627282
H230	H	0.620182	-0.336641	1.127282
H231	H	0.159798	-0.797004	0.537289
H232	H	0.659798	-0.297004	1.037289
H233	H	0.216410	-0.808334	0.622526
H234	H	0.716410	-0.308334	1.122526
C235	C	0.001977	-0.887330	0.589917
C236	C	0.501977	-0.387330	1.089917
H237	H	0.045117	-0.862098	0.629579
H238	H	0.545117	-0.362098	1.129579
H239	H	-0.049505	-0.897108	0.623283
H240	H	0.450495	-0.397108	1.123283
H241	H	-0.004988	-0.850819	0.539412
H242	H	0.495012	-0.350819	1.039412
H243	H	-0.024352	-1.021870	0.578730
H244	H	0.475648	-0.521870	1.078730
