data_functionalizedCrystal
_audit_creation_method	'MofGen! by Chris Wilmer'
_symmetry_space_group_name_H-M	'P1'
_symmetry_Int_Tables_number	1
_symmetry_cell_setting	triclinic
loop_
_symmetry_equiv_pos_as_xyz
  x,y,z
_cell_length_a	18.101395
_cell_length_b	18.101398
_cell_length_c	12.759387
_cell_angle_alpha	89.981760
_cell_angle_beta	89.964345
_cell_angle_gamma	90.030104
loop_
_atom_site_label
_atom_site_type_symbol
_atom_site_fract_x
_atom_site_fract_y
_atom_site_fract_z
Zn1	Zn	-0.294827	1.132145	-0.593906
Zn2	Zn	-0.418687	1.132031	-0.418212
Zn3	Zn	-0.294860	1.008296	-0.418250
Zn4	Zn	-0.418627	1.008253	-0.593858
O5	O	-0.356751	1.070181	-0.506056
O6	O	-0.311269	1.235763	-0.570604
O7	O	-0.402300	1.115587	-0.271195
O8	O	-0.191223	1.024790	-0.441587
O9	O	-0.402268	1.235679	-0.441522
O10	O	-0.191199	1.115782	-0.570641
O11	O	-0.311325	1.024679	-0.271224
O12	O	-0.311267	0.904657	-0.441540
O13	O	-0.402166	1.024718	-0.740885
O14	O	-0.402198	0.904626	-0.570559
O15	O	-0.311211	1.115741	-0.740921
O16	O	-0.522312	1.115546	-0.441475
O17	O	-0.522268	1.024607	-0.570521
C18	C	-0.356730	0.877771	-0.506049
C19	C	-0.356739	0.795456	-0.506071
C20	C	-0.356753	0.644748	-0.506069
C21	C	-0.414053	0.613399	-0.587118
C22	C	-0.414285	0.527781	-0.586878
C23	C	-0.356767	0.496365	-0.506069
C24	C	-0.377602	0.527413	-0.395211
C25	C	-0.378010	0.613058	-0.395680
C26	C	-0.278477	0.613229	-0.534910
C27	C	-0.278905	0.527579	-0.537352
C28	C	-0.356773	0.412506	-0.506062
C29	C	-0.356748	0.728607	-0.506068
C30	C	-0.549161	1.070079	-0.506012
C31	C	-0.631475	1.070103	-0.506028
C32	C	-0.782184	1.070188	-0.506070
C33	C	-0.813541	1.012942	-0.587200
C34	C	-0.899159	1.013159	-0.587542
C35	C	-0.930566	1.070271	-0.506111
C36	C	-0.899383	1.148347	-0.535888
C37	C	-0.813738	1.147968	-0.536453
C38	C	-0.813828	1.050058	-0.394968
C39	C	-0.899480	1.048384	-0.395584
C40	C	-1.014425	1.070322	-0.506132
C41	C	-0.698324	1.070142	-0.506051
C42	C	-0.163589	1.070304	-0.506124
C43	C	-0.081274	1.070356	-0.506153
C44	C	-0.356678	1.070237	-0.780090
C45	C	-0.356647	1.070261	-0.896867
C46	C	-0.356772	1.263343	-0.506064
C47	C	-0.356780	1.345657	-0.506067
C48	C	-0.261941	1.165050	-0.896923
C49	C	-0.214577	1.212454	-0.951813
C50	C	-0.214550	1.212472	-1.061534
C51	C	-0.261891	1.165079	-1.116369
C52	C	-0.309255	1.117674	-1.061480
C53	C	-0.309278	1.117663	-0.951756
C54	C	-0.403956	1.022883	-1.061423
C55	C	-0.403988	1.022868	-0.951702
C56	C	-0.451296	0.975490	-1.116258
C57	C	-0.498665	0.928088	-1.061369
C58	C	-0.498691	0.928072	-0.951641
C59	C	-0.451351	0.975463	-0.896812
C60	C	-0.356769	1.070168	-0.233089
C61	C	-0.356592	1.070288	-0.116313
H62	H	-0.338059	0.633795	-0.333220
H63	H	-0.176032	1.251040	-0.907154
N64	N	-0.924885	1.203348	-0.464048
N65	N	-0.909887	1.198039	-0.368731
H66	H	-0.927897	1.236882	-0.317991
N67	N	-0.451265	0.975522	-1.228336
N68	N	-0.466745	1.033288	-1.277306
H69	H	-0.466725	1.033313	-1.356463
H70	H	-0.919591	1.026548	-0.669868
H71	H	-0.537252	0.889461	-0.906956
N72	N	-0.166170	1.260883	-1.117626
N73	N	-0.118966	1.234865	-1.178873
H74	H	-0.084797	1.269053	-1.218491
N75	N	-0.398005	0.501430	-0.689978
N76	N	-0.395406	0.433537	-0.707443
H77	H	-0.383917	0.414928	-0.780265
N78	N	-0.326848	0.501884	-0.317381
N79	N	-0.274631	0.460424	-0.342810
H80	H	-0.238783	0.442393	-0.287844
N81	N	-0.547005	0.879665	-1.117371
N82	N	-0.542072	0.811333	-1.105100
H83	H	-0.576210	0.777131	-1.144657
H84	H	-0.261858	1.165092	-1.205710
N85	N	-0.786493	1.029467	-0.689898
N86	N	-0.805134	0.990152	-0.765947
H87	H	-0.786032	1.001824	-0.838479
N88	N	-0.448584	0.500454	-0.364113
N89	N	-0.483949	0.458385	-0.423403
H90	H	-0.534082	0.439346	-0.401446
H91	H	-0.233959	0.506197	-0.482671
H92	H	-0.471726	0.634886	-0.568215
H93	H	-0.792297	0.994071	-0.367799
H94	H	-0.920773	1.165704	-0.616215
H95	H	-0.261965	1.165047	-0.807582
N96	N	-0.788610	1.169346	-0.638327
N97	N	-0.834325	1.184440	-0.708515
H98	H	-0.816582	1.199539	-0.780467
N99	N	-0.451361	0.975450	-0.784735
N100	N	-0.393595	0.960010	-0.735793
H101	H	-0.393597	0.960000	-0.656637
H102	H	-0.435219	0.632998	-0.371303
N103	N	-0.254604	0.640370	-0.634610
N104	N	-0.294998	0.683279	-0.685623
H105	H	-0.278145	0.702450	-0.756040
N106	N	-0.224932	0.638666	-0.460857
N107	N	-0.244235	0.679826	-0.387131
H108	H	-0.206425	0.697794	-0.334826
H109	H	-0.920247	0.955271	-0.568931
H110	H	-0.263188	0.507291	-0.618938
N111	N	-0.787798	0.940064	-0.564105
N112	N	-0.746036	0.929462	-0.487586
H113	H	-0.727852	0.877990	-0.471271
N114	N	-0.787715	1.203314	-0.465525
N115	N	-0.832808	1.242099	-0.415769
H116	H	-0.814433	1.281189	-0.365680
N117	N	-0.925060	0.976299	-0.367417
N118	N	-0.966034	0.941135	-0.428460
H119	H	-0.984104	0.890224	-0.408571
H120	H	-0.472291	0.507257	-0.567743
N121	N	-0.397923	0.639276	-0.690535
N122	N	-0.397830	0.707026	-0.709516
H123	H	-0.386432	0.725306	-0.782556
H124	H	-0.920871	1.087039	-0.331932
N125	N	-0.788383	1.102365	-0.319150
N126	N	-0.747124	1.154265	-0.346677
H127	H	-0.729149	1.191209	-0.293139
