data_functionalizedCrystal
_audit_creation_method	'MofGen! by Chris Wilmer'
_symmetry_space_group_name_H-M	'P1'
_symmetry_Int_Tables_number	1
_symmetry_cell_setting	triclinic
loop_
_symmetry_equiv_pos_as_xyz
  x,y,z
_cell_length_a	17.699077
_cell_length_b	16.992695
_cell_length_c	16.776229
_cell_angle_alpha	89.996425
_cell_angle_beta	89.994802
_cell_angle_gamma	86.974400
loop_
_atom_site_label
_atom_site_type_symbol
_atom_site_fract_x
_atom_site_fract_y
_atom_site_fract_z
O1	O	1.010251	0.099120	-0.066278
O2	O	1.510251	0.599120	0.433722
O3	O	0.790676	0.112024	-0.066282
O4	O	1.290676	0.612024	0.433718
O5	O	0.899583	-0.008569	-0.066274
O6	O	1.399583	0.491431	0.433726
O7	O	0.901344	0.219713	-0.066287
O8	O	1.401344	0.719713	0.433713
O9	O	0.899570	-0.008570	0.066302
O10	O	1.399570	0.491430	0.566302
O11	O	0.790663	0.112023	0.066294
O12	O	1.290663	0.612023	0.566294
O13	O	1.010238	0.099119	0.066298
O14	O	1.510238	0.599119	0.566298
Zn15	Zn	0.900448	0.105571	0.087345
Zn16	Zn	1.400448	0.605571	0.587345
Zn17	Zn	0.900466	0.105572	-0.087330
Zn18	Zn	1.400466	0.605572	0.412670
O19	O	0.901331	0.219712	0.066290
O20	O	1.401331	0.719712	0.566290
C21	C	0.762443	0.111562	0.000005
C22	C	1.262443	0.611562	0.500005
C23	C	0.678339	0.110177	0.000004
C24	C	1.178339	0.610177	0.500004
C25	C	0.638824	0.109524	0.072272
C26	C	1.138824	0.609524	0.572272
C27	C	0.559799	0.108211	0.072273
C28	C	1.059799	0.608211	0.572273
C29	C	0.520291	0.107555	0.000005
C30	C	1.020291	0.607555	0.500005
C31	C	0.559812	0.108206	-0.072269
C32	C	1.059812	0.608206	0.427731
C33	C	0.638835	0.109514	-0.072269
C34	C	1.138835	0.609514	0.427731
C35	C	0.241120	0.102930	-0.072270
C36	C	0.741120	0.602930	0.427730
C37	C	0.162092	0.101624	-0.072265
C38	C	0.662092	0.601624	0.427735
C39	C	0.162084	0.101627	0.072272
C40	C	0.662084	0.601627	0.572272
C41	C	0.241108	0.102935	0.072272
C42	C	0.741108	0.602935	0.572272
C43	C	0.280622	0.103581	-0.000001
C44	C	0.780622	0.603581	0.499999
C45	C	0.366309	0.105004	-0.000002
C46	C	0.866309	0.605004	0.499998
C47	C	0.434605	0.106138	0.000004
C48	C	0.934605	0.606138	0.500004
C49	C	0.897312	-0.037778	0.000014
C50	C	1.397312	0.462222	0.500014
C51	C	0.890555	-0.124809	0.000014
C52	C	1.390555	0.375191	0.500014
C53	C	0.955753	-0.175175	0.000016
C54	C	1.455753	0.324825	0.500016
C55	C	0.949399	-0.256949	0.000008
C56	C	1.449399	0.243051	0.500008
C57	C	0.877847	-0.288356	0.000004
C58	C	1.377847	0.211644	0.500004
C59	C	0.812644	-0.237983	-0.000000
C60	C	1.312644	0.262017	0.500000
C61	C	0.818999	-0.156211	0.000002
C62	C	1.318999	0.343789	0.500002
C63	C	0.851511	-0.531903	-0.000007
C64	C	1.351511	-0.031903	0.499993
C65	C	0.845161	-0.613682	-0.000007
C66	C	1.345161	-0.113682	0.499993
C67	C	0.981917	-0.632642	-0.000000
C68	C	1.481917	-0.132642	0.500000
C69	C	0.988265	-0.550867	0.000007
C70	C	1.488265	-0.050867	0.500007
C71	C	0.923062	-0.500502	-0.000002
C72	C	1.423062	-0.000502	0.499998
N73	N	0.871351	-0.371942	-0.000001
N74	N	1.371351	0.128058	0.499999
N75	N	0.929559	-0.416917	-0.000002
N76	N	1.429559	0.083083	0.499998
C77	C	1.038471	0.099581	0.000009
C78	C	1.538471	0.599581	0.500009
C79	C	1.122575	0.100966	0.000005
C80	C	1.622575	0.600966	0.500005
C81	C	0.903602	0.248921	-0.000000
C82	C	1.403602	0.748921	0.500000
C83	C	0.910359	0.335952	-0.000005
C84	C	1.410359	0.835952	0.499995
N85	N	0.900442	0.105570	0.206557
N86	N	1.400442	0.605570	0.706557
N87	N	0.900478	0.105566	-0.206541
N88	N	1.400478	0.605566	0.293459
C89	C	0.949214	0.153062	0.248268
C90	C	1.449214	0.653062	0.748268
C91	C	0.949222	0.153059	0.331721
C92	C	1.449222	0.653059	0.831721
C93	C	0.900454	0.105568	0.373460
C94	C	1.400454	0.605568	0.873460
C95	C	0.851680	0.058071	0.331742
C96	C	1.351680	0.558071	0.831742
C97	C	0.851676	0.058070	0.248291
C98	C	1.351676	0.558070	0.748291
C99	C	0.851695	0.058072	0.668289
C100	C	1.351695	0.558072	1.168289
C101	C	0.851701	0.058078	0.751746
C102	C	1.351701	0.558078	1.251746
C103	C	0.949242	0.153061	0.751718
C104	C	1.449242	0.653061	1.251718
C105	C	0.949238	0.153060	0.668268
C106	C	1.449238	0.653060	1.168268
C107	C	0.900467	0.105560	0.626557
C108	C	1.400467	0.605560	1.126557
C109	C	0.900459	0.105563	0.536069
C110	C	1.400459	0.605563	1.036069
C111	C	0.900457	0.105569	0.463946
C112	C	1.400457	0.605569	0.963946
H113	H	0.273284	0.103453	-0.131120
H114	H	0.773284	0.603453	0.368880
H115	H	1.046530	-0.525303	0.000010
H116	H	1.546530	-0.025303	0.500010
H117	H	0.670985	0.110065	0.131122
H118	H	1.170985	0.610065	0.631122
H119	H	0.988939	0.191731	0.365679
H120	H	1.488939	0.691731	0.865679
H121	H	0.129903	0.101097	0.131121
H122	H	0.629903	0.601097	0.631121
F123	F	1.051305	-0.686250	0.000008
F124	F	1.551305	-0.186250	0.500008
F125	F	0.799794	0.007528	0.796166
F126	F	1.299794	0.507528	1.296166
H127	H	0.129926	0.101090	-0.131118
H128	H	0.629926	0.601090	0.368882
H129	H	0.811976	0.019399	0.365732
H130	H	1.311976	0.519399	0.865732
H131	H	0.527639	0.107667	-0.131111
H132	H	1.027639	0.607667	0.368889
F133	F	0.799767	0.007542	0.623909
F134	F	1.299767	0.507542	1.123909
H135	H	0.671008	0.110047	-0.131117
H136	H	1.171008	0.610047	0.368883
F137	F	0.799772	0.007516	0.203899
F138	F	1.299772	0.507516	0.703899
H139	H	0.786892	-0.639250	0.000003
H140	H	1.286892	-0.139250	0.500003
F141	F	1.001150	0.203613	0.796116
F142	F	1.501150	0.703613	1.296116
H143	H	1.002490	-0.297955	0.000011
H144	H	1.502490	0.202045	0.500011
H145	H	0.273271	0.103472	0.131120
H146	H	0.773271	0.603472	0.631120
H147	H	0.798418	-0.490905	-0.000014
H148	H	1.298418	0.009095	0.499986
F149	F	1.001119	0.203612	0.203854
F150	F	1.501119	0.703612	0.703854
F151	F	0.517747	0.107527	0.149191
F152	F	1.017747	0.607527	0.649191
H153	H	1.014018	-0.149611	0.000024
H154	H	1.514018	0.350389	0.500024
F155	F	0.736493	-0.271411	-0.000014
F156	F	1.236493	0.228589	0.499986
F157	F	1.001135	0.203616	0.623851
F158	F	1.501135	0.703616	1.123851
H159	H	0.765908	-0.115203	-0.000000
H160	H	1.265908	0.384797	0.500000
