data_functionalizedCrystal
_audit_creation_method	'MofGen! by Chris Wilmer'
_symmetry_space_group_name_H-M	'P1'
_symmetry_Int_Tables_number	1
_symmetry_cell_setting	triclinic
loop_
_symmetry_equiv_pos_as_xyz
  x,y,z
_cell_length_a	19.805407
_cell_length_b	18.050590
_cell_length_c	19.805399
_cell_angle_alpha	89.972574
_cell_angle_beta	89.982197
_cell_angle_gamma	90.015869
loop_
_atom_site_label
_atom_site_type_symbol
_atom_site_fract_x
_atom_site_fract_y
_atom_site_fract_z
Zn1	Zn	1.034773	-0.295730	-0.382688
Zn2	Zn	1.534773	0.204270	0.117312
Zn3	Zn	1.034703	-0.419922	-0.269500
Zn4	Zn	1.534703	0.080078	0.230500
Zn5	Zn	0.921587	-0.295744	-0.269516
Zn6	Zn	1.421587	0.204256	0.230484
Zn7	Zn	0.921566	-0.419877	-0.382651
Zn8	Zn	1.421566	0.080123	0.117349
O9	O	0.978157	-0.357818	-0.326089
O10	O	1.478157	0.142182	0.173911
O11	O	1.129480	-0.312217	-0.367683
O12	O	1.629480	0.187783	0.132317
O13	O	1.019678	-0.403475	-0.174786
O14	O	1.519678	0.096525	0.325214
O15	O	0.936639	-0.191818	-0.284551
O16	O	1.436639	0.308182	0.215449
O17	O	1.129429	-0.403460	-0.284524
O18	O	1.629429	0.096540	0.215476
O19	O	1.019796	-0.191807	-0.367698
O20	O	1.519796	0.308193	0.132302
O21	O	0.936572	-0.312242	-0.174798
O22	O	1.436572	0.187758	0.325202
O23	O	0.826868	-0.312198	-0.284515
O24	O	1.326868	0.187802	0.215485
O25	O	0.936604	-0.403383	-0.477372
O26	O	1.436604	0.096617	0.022628
O27	O	0.826853	-0.403397	-0.367634
O28	O	1.326853	0.096603	0.132366
O29	O	1.019776	-0.312173	-0.477400
O30	O	1.519776	0.187827	0.022600
O31	O	1.019657	-0.523841	-0.284488
O32	O	1.519657	-0.023841	0.215512
O33	O	0.936536	-0.523807	-0.367619
O34	O	1.436536	-0.023807	0.132381
C35	C	0.802301	-0.357795	-0.326073
C36	C	1.302301	0.142205	0.173927
C37	C	0.727069	-0.357803	-0.326082
C38	C	1.227069	0.142197	0.173918
C39	C	0.691752	-0.310377	-0.369448
C40	C	1.191752	0.189623	0.130552
C41	C	0.621064	-0.310380	-0.369451
C42	C	1.121064	0.189620	0.130549
C43	C	0.585694	-0.357815	-0.326090
C44	C	1.085694	0.142185	0.173910
C45	C	0.621016	-0.405244	-0.282718
C46	C	1.121016	0.094756	0.217282
C47	C	0.691703	-0.405235	-0.282713
C48	C	1.191703	0.094765	0.217287
C49	C	0.335942	-0.405277	-0.282739
C50	C	0.835942	0.094723	0.217261
C51	C	0.265250	-0.405283	-0.282749
C52	C	0.765250	0.094717	0.217251
C53	C	0.265304	-0.310422	-0.369477
C54	C	0.765304	0.189578	0.130523
C55	C	0.335991	-0.310414	-0.369472
C56	C	0.835991	0.189586	0.130528
C57	C	0.371306	-0.357839	-0.326098
C58	C	0.871306	0.142161	0.173902
C59	C	0.447955	-0.357833	-0.326095
C60	C	0.947955	0.142167	0.173905
C61	C	0.509047	-0.357825	-0.326096
C62	C	1.009047	0.142175	0.173904
C63	C	0.978105	-0.550770	-0.326062
C64	C	1.478105	-0.050770	0.173938
C65	C	0.978145	-0.633316	-0.326073
C66	C	1.478145	-0.133316	0.173927
C67	C	1.023440	-0.832758	-0.280930
C68	C	1.523440	-0.332758	0.219070
C69	C	1.039973	-0.882093	-0.342704
C70	C	1.539973	-0.382093	0.157296
C71	C	0.978183	-0.784446	-0.326100
C72	C	1.478183	-0.284446	0.173900
C73	C	0.961720	-0.882194	-0.264353
C74	C	1.461720	-0.382194	0.235647
C75	C	0.978222	-0.930432	-0.326121
C76	C	1.478222	-0.430432	0.173879
C77	C	0.994748	-0.832694	-0.387907
C78	C	1.494748	-0.332694	0.112093
C79	C	0.916466	-0.832791	-0.309515
C80	C	1.416466	-0.332791	0.190485
C81	C	0.932975	-0.882103	-0.371332
C82	C	1.432975	-0.382103	0.128668
C83	C	0.978163	-0.700348	-0.326087
C84	C	1.478163	-0.200348	0.173913
C85	C	0.978242	-1.014528	-0.326141
C86	C	1.478242	-0.514528	0.173859
C87	C	1.154700	-0.357842	-0.326106
C88	C	1.654700	0.142158	0.173894
C89	C	1.229932	-0.357852	-0.326113
C90	C	1.729932	0.142148	0.173887
C91	C	0.978195	-0.357771	-0.502632
C92	C	1.478195	0.142229	-0.002632
C93	C	0.978211	-0.357752	-0.577864
C94	C	1.478211	0.142248	-0.077864
C95	C	0.978228	-0.164113	-0.326131
C96	C	1.478228	0.335887	0.173869
C97	C	0.978258	-0.081567	-0.326149
C98	C	1.478258	0.418433	0.173851
C99	C	1.021520	-0.310256	-0.613223
C100	C	1.521520	0.189744	-0.113223
C101	C	1.021527	-0.310235	-0.683912
C102	C	1.521527	0.189765	-0.183912
C103	C	0.978228	-0.357713	-0.719239
C104	C	1.478228	0.142287	-0.219239
C105	C	0.934915	-0.405210	-0.683875
C106	C	1.434915	0.094790	-0.183875
C107	C	0.934905	-0.405228	-0.613188
C108	C	1.434905	0.094772	-0.113188
C109	C	0.934953	-0.405141	-0.968948
C110	C	1.434953	0.094859	-0.468948
C111	C	0.934968	-0.405122	-1.039640
C112	C	1.434968	0.094878	-0.539640
C113	C	1.021575	-0.310148	-1.039673
C114	C	1.521575	0.189852	-0.539673
C115	C	1.021565	-0.310165	-0.968985
C116	C	1.521565	0.189835	-0.468985
C117	C	0.978250	-0.357660	-0.933627
C118	C	1.478250	0.142340	-0.433627
C119	C	0.978242	-0.357682	-0.856979
C120	C	1.478242	0.142318	-0.356979
C121	C	0.978239	-0.357695	-0.795887
C122	C	1.478239	0.142305	-0.295887
C123	C	0.978158	-0.357811	-0.150233
C124	C	1.478158	0.142189	0.349767
C125	C	0.978273	-0.357622	-0.075001
C126	C	1.478273	0.142378	0.424999
H127	H	0.592211	-0.443862	-0.247410
H128	H	1.092211	0.056138	0.252590
H129	H	1.061725	-0.811091	-0.242770
H130	H	1.561725	-0.311091	0.257230
H131	H	0.899692	-0.443825	-0.940168
H132	H	1.399692	0.056175	-0.440168
H133	H	0.364688	-0.443894	-0.247422
H134	H	0.864688	0.056106	0.252578
Br135	Br	0.938484	-0.918436	-0.177307
Br136	Br	1.438484	-0.418436	0.322693
Br137	Br	1.126995	-0.918171	-0.366122
Br138	Br	1.626995	-0.418171	0.133878
Br139	Br	1.080361	-0.245689	-1.087663
Br140	Br	1.580361	0.254311	-0.587663
Br141	Br	0.217372	-0.246057	-0.428342
Br142	Br	0.717372	0.253943	0.071658
Br143	Br	0.739634	-0.469601	-0.223855
Br144	Br	1.239634	0.030399	0.276145
Br145	Br	1.018094	-0.796614	-0.474979
Br146	Br	1.518094	-0.296614	0.025021
Br147	Br	0.217248	-0.469663	-0.223898
Br148	Br	0.717248	0.030337	0.276102
Br149	Br	0.869211	-0.917992	-0.435084
Br150	Br	1.369211	-0.417992	0.064916
H151	H	0.864271	-0.811116	-0.295455
H152	H	1.364271	-0.311116	0.204545
H153	H	1.056781	-0.271596	-0.584465
H154	H	1.556781	0.228404	-0.084465
Br155	Br	1.080337	-0.245808	-0.731898
Br156	Br	1.580337	0.254192	-0.231898
H157	H	0.720546	-0.271752	-0.404760
H158	H	1.220546	0.228248	0.095240
H159	H	1.056826	-0.271506	-0.940225
H160	H	1.556826	0.228494	-0.440225
H161	H	0.899658	-0.443865	-0.712644
H162	H	1.399658	0.056135	-0.212644
Br163	Br	0.876202	-0.469562	-1.087585
Br164	Br	1.376202	0.030438	-0.587585
Br165	Br	0.383990	-0.246041	-0.428325
Br166	Br	0.883990	0.253959	0.071675
Br167	Br	0.573136	-0.246014	-0.428309
Br168	Br	1.073136	0.253986	0.071691
Br169	Br	0.876122	-0.469684	-0.565199
Br170	Br	1.376122	0.030316	-0.065199
