data_functionalizedCrystal
_audit_creation_method	'MofGen! by Chris Wilmer'
_symmetry_space_group_name_H-M	'P1'
_symmetry_Int_Tables_number	1
_symmetry_cell_setting	triclinic
loop_
_symmetry_equiv_pos_as_xyz
  x,y,z
_cell_length_a	12.645323
_cell_length_b	13.897449
_cell_length_c	13.897448
_cell_angle_alpha	90.018972
_cell_angle_beta	90.028168
_cell_angle_gamma	90.021328
loop_
_atom_site_label
_atom_site_type_symbol
_atom_site_fract_x
_atom_site_fract_y
_atom_site_fract_z
Zn1	Zn	-0.599384	-1.474708	0.383974
Zn2	Zn	-0.099384	-0.974708	0.883974
Zn3	Zn	-0.422114	-1.474601	0.545289
Zn4	Zn	0.077886	-0.974601	1.045289
Zn5	Zn	-0.422132	-1.313396	0.384013
Zn6	Zn	0.077868	-0.813396	0.884013
Zn7	Zn	-0.599333	-1.313379	0.545233
Zn8	Zn	-0.099333	-0.813379	1.045233
O9	O	-0.510741	-1.394021	0.464627
O10	O	-0.010741	-0.894021	0.964627
O11	O	-0.575882	-1.609676	0.405380
O12	O	-0.075882	-1.109676	0.905380
O13	O	-0.273769	-1.453178	0.523936
O14	O	0.226231	-0.953178	1.023936
O15	O	-0.445674	-1.334846	0.249027
O16	O	0.054326	-0.834846	0.749027
O17	O	-0.445642	-1.609596	0.523898
O18	O	0.054358	-1.109596	1.023898
O19	O	-0.575900	-1.453362	0.248998
O20	O	-0.075900	-0.953362	0.748998
O21	O	-0.273783	-1.334742	0.405447
O22	O	0.226217	-0.834742	0.905447
O23	O	-0.445625	-1.178412	0.405392
O24	O	0.054375	-0.678412	0.905392
O25	O	-0.747687	-1.334818	0.523801
O26	O	-0.247687	-0.834818	1.023801
O27	O	-0.575814	-1.178400	0.523839
O28	O	-0.075814	-0.678400	1.023839
O29	O	-0.747725	-1.453346	0.405326
O30	O	-0.247725	-0.953346	0.905326
O31	O	-0.445593	-1.453162	0.680263
O32	O	0.054407	-0.953162	1.180263
O33	O	-0.575796	-1.334713	0.680222
O34	O	-0.075796	-0.834713	1.180222
C35	C	-0.510717	-1.143407	0.464615
C36	C	-0.010717	-0.643407	0.964615
C37	C	-0.510731	-1.036193	0.464632
C38	C	-0.010731	-0.536193	0.964632
C39	C	-0.510710	-1.393951	0.715242
C40	C	-0.010710	-0.893951	1.215242
C41	C	-0.510732	-1.394009	0.822456
C42	C	-0.010732	-0.894009	1.322456
C43	C	-0.787246	-1.394092	0.464553
C44	C	-0.287246	-0.894092	0.964553
C45	C	-0.905076	-1.394122	0.464521
C46	C	-0.405076	-0.894122	0.964521
C47	C	-1.072617	-1.319326	0.538703
C48	C	-0.572617	-0.819326	1.038703
C49	C	-0.950057	-1.319522	0.539070
C50	C	-0.450057	-0.819522	1.039070
C51	C	-0.949592	-1.495758	0.492106
C52	C	-0.449592	-0.995758	0.992106
C53	C	-1.072190	-1.495348	0.492571
C54	C	-0.572190	-0.995348	0.992571
C55	C	-1.072281	-1.368243	0.362340
C56	C	-0.572281	-0.868243	0.862340
C57	C	-0.949675	-1.365976	0.362952
C58	C	-0.449675	-0.865976	0.862952
C59	C	-0.235311	-1.394006	0.464632
C60	C	0.264689	-0.894006	0.964632
C61	C	-0.117482	-1.394162	0.464392
C62	C	0.382518	-0.894162	0.964392
C63	C	-0.510766	-1.645614	0.464641
C64	C	-0.010766	-1.145614	0.964641
C65	C	-0.510776	-1.752828	0.464647
C66	C	-0.010776	-1.252828	0.964647
C67	C	-0.510759	-0.839898	0.464636
C68	C	-0.010759	-0.339898	0.964636
C69	C	-0.510741	-0.949130	0.464631
C70	C	-0.010741	-0.449130	0.964631
C71	C	-0.510795	-1.394118	0.213034
C72	C	-0.010795	-0.894118	0.713034
C73	C	-0.510818	-1.394159	0.105820
C74	C	-0.010818	-0.894159	0.605820
C75	C	-0.510799	-1.394110	1.018751
C76	C	-0.010799	-0.894110	1.518751
C77	C	-0.510765	-1.394051	0.909518
C78	C	-0.010765	-0.894051	1.409518
H79	H	-1.102094	-1.243736	0.521608
H80	H	-0.602094	-0.743736	1.021608
O81	O	-1.113433	-1.341765	0.638293
O82	O	-0.613433	-0.841765	1.138293
H83	H	-1.081294	-1.288516	0.690183
H84	H	-0.581294	-0.788516	1.190183
H85	H	-1.101870	-1.552997	0.440796
H86	H	-0.601870	-1.052997	0.940796
H87	H	-1.103189	-1.295421	0.337195
H88	H	-0.603189	-0.795421	0.837195
H89	H	-0.920738	-1.336632	0.614726
H90	H	-0.420738	-0.836632	1.114726
O91	O	-0.911005	-1.571608	0.422689
O92	O	-0.411005	-1.071608	0.922689
H93	H	-0.865316	-1.626895	0.462591
H94	H	-0.365316	-1.126895	0.962591
O95	O	-0.911121	-1.266911	0.335374
O96	O	-0.411121	-0.766911	0.835374
H97	H	-0.860402	-1.237835	0.393755
H98	H	-0.360402	-0.737835	0.893755
O99	O	-0.908952	-1.525365	0.589893
O100	O	-0.408952	-1.025365	1.089893
H101	H	-0.857062	-1.467863	0.619003
H102	H	-0.357062	-0.967863	1.119003
O103	O	-0.910189	-1.219696	0.516178
O104	O	-0.410189	-0.719696	1.016178
H105	H	-0.939615	-1.168410	0.571233
H106	H	-0.439615	-0.668410	1.071233
O107	O	-0.909135	-1.432903	0.285728
O108	O	-0.409135	-0.932903	0.785728
H109	H	-0.856336	-1.487521	0.318683
H110	H	-0.356336	-0.987521	0.818683
O111	O	-1.110096	-1.524432	0.591391
O112	O	-0.610096	-1.024432	1.091391
H113	H	-1.040861	-1.538653	0.638398
H114	H	-0.540861	-1.038653	1.138398
O115	O	-1.110716	-1.440433	0.288994
O116	O	-0.610716	-0.940433	0.788994
H117	H	-1.161764	-1.494513	0.324987
H118	H	-0.661764	-0.994513	0.824987
