data_functionalizedCrystal
_audit_creation_method	'MofGen! by Chris Wilmer'
_symmetry_space_group_name_H-M	'P1'
_symmetry_Int_Tables_number	1
_symmetry_cell_setting	triclinic
loop_
_symmetry_equiv_pos_as_xyz
  x,y,z
_cell_length_a	11.026607
_cell_length_b	13.330367
_cell_length_c	11.026607
_cell_angle_alpha	89.998240
_cell_angle_beta	71.413983
_cell_angle_gamma	90.006834
loop_
_atom_site_label
_atom_site_type_symbol
_atom_site_fract_x
_atom_site_fract_y
_atom_site_fract_z
O1	O	1.726739	0.083421	-0.533624
O2	O	1.360159	0.083423	-0.472860
O3	O	1.513067	0.083418	-0.319952
O4	O	1.573831	0.083425	-0.686532
O5	O	1.513038	-0.083429	-0.319942
O6	O	1.360130	-0.083424	-0.472850
O7	O	1.726710	-0.083426	-0.533613
Cu8	Cu	1.543417	-0.098660	-0.503231
Cu9	Cu	1.543452	0.098656	-0.503243
O10	O	1.573801	-0.083422	-0.686522
C11	C	1.312485	-0.000001	-0.461645
C12	C	1.170471	-0.000000	-0.428228
N13	N	1.543402	-0.237441	-0.503223
C14	C	1.116821	0.000002	-0.520498
C15	C	0.970043	0.000003	-0.485962
C16	C	1.475733	-0.710062	-0.570916
C17	C	1.611203	-0.710034	-0.435568
C18	C	1.611187	-0.605016	-0.435561
C19	C	1.543445	-0.552516	-0.503234
C20	C	1.475718	-0.605034	-0.570914
C21	C	1.678924	-0.552489	-0.367892
C22	C	1.678912	-0.447465	-0.367884
C23	C	1.611162	-0.394963	-0.435550
C24	C	1.543431	-0.447488	-0.503232
C25	C	1.475689	-0.394988	-0.570905
C26	C	1.407950	-0.447511	-0.638581
C27	C	1.407968	-0.552532	-0.638581
C28	C	1.611144	-0.289941	-0.435550
C29	C	1.475675	-0.289960	-0.570903
C30	C	1.774384	-0.000001	-0.544828
C31	C	1.916398	0.000005	-0.578245
C32	C	1.501843	-0.000004	-0.272287
C33	C	1.468426	-0.000000	-0.130273
N34	N	1.543475	0.237438	-0.503243
C35	C	1.585026	0.000003	-0.734187
C36	C	1.618443	0.000006	-0.876200
C37	C	1.560695	0.000001	-0.076624
C38	C	1.526160	0.000005	0.070155
H39	H	0.907314	0.000027	-0.381393
H40	H	1.421590	0.000012	0.132884
C41	C	1.130082	0.000042	-0.726308
C42	C	1.001066	0.000032	-0.719415
H43	H	1.182350	0.000071	-0.813459
H44	H	1.147702	-0.058146	-0.685101
H45	H	1.147694	0.058221	-0.685054
H46	H	0.983452	-0.058151	-0.760660
H47	H	0.983439	0.058226	-0.760638
H48	H	1.179555	-0.000001	-0.625061
C49	C	1.668250	-0.329644	-0.200167
C50	C	1.753149	-0.389860	-0.293173
H51	H	1.714021	-0.294114	-0.153955
H52	H	1.605113	-0.370719	-0.142980
H53	H	1.628054	-0.283250	-0.240498
H54	H	1.793338	-0.436260	-0.252841
H55	H	1.816309	-0.348781	-0.350369
C56	C	1.784475	0.085771	-0.038225
C57	C	1.759612	0.000004	0.039131
H58	H	1.871623	0.085765	-0.090499
H59	H	1.767617	0.143943	0.014247
H60	H	1.731056	0.085760	-0.090900
H61	H	1.813024	0.000018	0.091813
H62	H	1.776482	-0.058184	-0.013346
C63	C	1.637835	-0.742370	-0.231347
C64	C	1.685649	-0.767743	-0.361174
H65	H	1.683799	-0.777999	-0.185417
H66	H	1.549771	-0.759597	-0.198906
H67	H	1.647532	-0.672305	-0.221672
H68	H	1.675944	-0.837807	-0.370851
H69	H	1.773735	-0.750523	-0.393625
H70	H	1.107738	0.000024	-0.323666
H71	H	1.363863	0.000007	-0.067540
C72	C	1.341768	-0.300537	-0.704695
C73	C	1.401212	-0.232255	-0.645298
H74	H	1.295806	-0.264911	-0.750628
H75	H	1.284347	-0.341504	-0.641608
H76	H	1.404843	-0.341494	-0.762149
H77	H	1.338136	-0.191303	-0.587836
H78	H	1.458638	-0.191272	-0.708392
C79	C	1.347862	-0.713534	-0.698699
C80	C	1.333530	-0.610267	-0.712979
H81	H	1.301916	-0.749178	-0.744639
H82	H	1.315444	-0.730750	-0.610630
H83	H	1.435948	-0.730711	-0.731164
H84	H	1.245444	-0.593089	-0.680505
H85	H	1.365942	-0.593045	-0.801065
H86	H	1.352800	-0.404753	-0.693687
C87	C	1.705551	-0.584823	-0.163670
C88	C	1.753360	-0.610205	-0.293494
H89	H	1.751506	-0.620457	-0.117736
H90	H	1.617483	-0.602038	-0.131228
H91	H	1.715263	-0.514760	-0.154001
H92	H	1.743639	-0.680268	-0.303165
H93	H	1.841450	-0.592997	-0.325946
H94	H	1.420576	-0.752829	-0.626012
H95	H	1.666303	-0.247182	-0.380457
H96	H	1.665258	-0.000006	-0.139357
