data_functionalizedCrystal
_audit_creation_method	'MofGen! by Chris Wilmer'
_symmetry_space_group_name_H-M	'P1'
_symmetry_Int_Tables_number	1
_symmetry_cell_setting	triclinic
loop_
_symmetry_equiv_pos_as_xyz
  x,y,z
_cell_length_a	11.169417
_cell_length_b	16.959453
_cell_length_c	11.169409
_cell_angle_alpha	90.037272
_cell_angle_beta	90.019824
_cell_angle_gamma	90.020866
loop_
_atom_site_label
_atom_site_type_symbol
_atom_site_fract_x
_atom_site_fract_y
_atom_site_fract_z
Zn1	Zn	1.834882	-0.314599	0.678502
Zn2	Zn	1.834737	-0.446806	0.477801
Zn3	Zn	1.634168	-0.314647	0.477836
Zn4	Zn	1.634141	-0.446741	0.678446
O5	O	1.734482	-0.380698	0.578146
O6	O	2.002812	-0.332143	0.651887
O7	O	1.808082	-0.429322	0.309856
O8	O	1.660864	-0.204030	0.504492
O9	O	2.002706	-0.429275	0.504433
O10	O	1.808328	-0.203995	0.651921
O11	O	1.660724	-0.332225	0.309882
O12	O	1.466215	-0.332163	0.504439
O13	O	1.660820	-0.429165	0.846403
O14	O	1.466195	-0.429212	0.651826
O15	O	1.808303	-0.332081	0.846444
O16	O	1.808056	-0.557408	0.504379
O17	O	1.660679	-0.557361	0.651792
C18	C	1.422657	-0.380686	0.578131
C19	C	1.289257	-0.380700	0.578153
C20	C	1.734382	-0.586065	0.578102
C21	C	1.734449	-0.673921	0.578124
C22	C	1.811365	-1.045320	0.655057
C23	C	1.657935	-1.045474	0.501414
C24	C	1.657890	-0.962928	0.501386
C25	C	1.734583	-0.921574	0.578196
C26	C	1.811320	-0.962766	0.655034
C27	C	1.581146	-0.921729	0.424558
C28	C	1.581097	-0.839179	0.424529
C29	C	1.657797	-0.797823	0.501334
C30	C	1.734538	-0.839021	0.578174
C31	C	1.811231	-0.797667	0.654984
C32	C	1.887979	-0.838863	0.731819
C33	C	1.888020	-0.921411	0.731839
C34	C	1.657756	-0.715275	0.501313
C35	C	1.811186	-0.715113	0.654961
C36	C	2.047524	-0.380711	0.578162
C37	C	2.180924	-0.380716	0.578169
C38	C	1.734574	-0.380611	0.891189
C39	C	1.734614	-0.380573	1.024589
C40	C	1.734615	-0.174530	0.578217
C41	C	1.734672	-0.086674	0.578247
C42	C	1.734459	-0.380729	0.266321
C43	C	1.734653	-0.380543	0.132922
H44	H	1.873644	-0.681448	0.717506
F45	F	1.576303	-1.089487	0.419686
F46	F	1.969690	-0.965260	0.813609
H47	H	1.518703	-0.955406	0.362027
H48	H	1.950418	-0.805183	0.794364
H49	H	1.873855	-1.078865	0.717611
H50	H	1.518606	-0.805642	0.361965
F51	F	1.576078	-0.671435	0.419549
