data_functionalizedCrystal
_audit_creation_method	'MofGen! by Chris Wilmer'
_symmetry_space_group_name_H-M	'P1'
_symmetry_Int_Tables_number	1
_symmetry_cell_setting	triclinic
loop_
_symmetry_equiv_pos_as_xyz
  x,y,z
_cell_length_a	12.759400
_cell_length_b	21.395362
_cell_length_c	21.395355
_cell_angle_alpha	89.951961
_cell_angle_beta	90.013847
_cell_angle_gamma	89.967052
loop_
_atom_site_label
_atom_site_type_symbol
_atom_site_fract_x
_atom_site_fract_y
_atom_site_fract_z
Zn1	Zn	-0.417876	-0.957929	0.354675
Zn2	Zn	-0.593540	-0.957861	0.249906
Zn3	Zn	-0.417932	-0.853144	0.249868
Zn4	Zn	-0.593569	-0.853143	0.354603
O5	O	-0.505729	-0.905519	0.302263
O6	O	-0.441142	-1.045598	0.340822
O7	O	-0.570257	-0.943942	0.162223
O8	O	-0.270904	-0.867073	0.263785
O9	O	-0.570202	-1.045548	0.263849
O10	O	-0.270862	-0.944058	0.340786
O11	O	-0.441238	-0.867007	0.162195
O12	O	-0.441266	-0.765466	0.263716
O13	O	-0.570252	-0.867071	0.442290
O14	O	-0.570306	-0.765465	0.340664
O15	O	-0.441171	-0.944057	0.442343
O16	O	-0.740565	-0.943941	0.263779
O17	O	-0.740587	-0.867005	0.340700
C18	C	-0.505796	-0.742732	0.302178
C19	C	-0.505850	-0.673090	0.302157
C20	C	-0.573133	-0.640393	0.342162
C21	C	-0.573111	-0.574958	0.342185
C22	C	-0.505819	-0.542222	0.302193
C23	C	-0.438523	-0.574927	0.262185
C24	C	-0.438539	-0.640361	0.262168
C25	C	-0.497362	-0.438496	0.245779
C26	C	-0.497354	-0.373063	0.245796
C27	C	-0.505764	-0.340401	0.302247
C28	C	-0.514205	-0.373181	0.358684
C29	C	-0.514221	-0.438615	0.358666
C30	C	-0.505794	-0.471270	0.302207
C31	C	-0.573027	-0.236752	0.342280
C32	C	-0.572999	-0.171315	0.342305
C33	C	-0.438416	-0.171286	0.262299
C34	C	-0.438439	-0.236721	0.262281
C35	C	-0.505751	-0.269450	0.302270
C36	C	-0.778697	-0.905482	0.302250
C37	C	-0.895473	-0.905524	0.302265
C38	C	-0.950289	-0.945629	0.262257
C39	C	-1.060013	-0.945667	0.262276
C40	C	-1.060096	-0.865490	0.342314
C41	C	-0.950374	-0.865455	0.342297
C42	C	-0.895389	-0.985697	0.222225
C43	C	-0.950205	-1.025805	0.182213
C44	C	-1.059929	-1.025843	0.182232
C45	C	-1.114837	-0.985774	0.222264
C46	C	-0.231696	-0.905574	0.302290
C47	C	-0.114919	-0.905597	0.302301
C48	C	-0.505708	-0.905571	0.465686
C49	C	-0.505699	-0.905593	0.535327
C50	C	-0.505681	-0.068943	0.302330
C51	C	-0.505704	-0.138584	0.302312
C52	C	-0.505675	-0.905504	0.139475
C53	C	-0.505388	-0.905603	0.069834
C54	C	-0.438484	-0.945679	0.568069
C55	C	-0.438438	-0.945678	0.633504
C56	C	-0.505627	-0.905598	0.666196
C57	C	-0.572848	-0.865506	0.633446
C58	C	-0.572883	-0.865503	0.568012
C59	C	-0.600229	-0.900638	0.769864
C60	C	-0.600195	-0.900645	0.835297
C61	C	-0.505516	-0.905602	0.868017
C62	C	-0.410869	-0.910566	0.835295
C63	C	-0.410905	-0.910563	0.769861
C64	C	-0.505596	-0.905596	0.737148
C65	C	-0.438246	-0.945688	0.971711
C66	C	-0.438199	-0.945683	1.037147
C67	C	-0.572618	-0.865514	1.037088
C68	C	-0.572655	-0.865516	0.971653
C69	C	-0.505471	-0.905607	0.938968
H70	H	-0.521091	-0.465301	0.404618
F71	F	-1.118536	-0.822847	0.384914
H72	H	-0.627396	-0.832878	0.944994
F73	F	-0.366975	-0.988344	0.533287
H74	H	-0.627314	-0.832875	1.063705
H75	H	-0.905494	-1.058432	0.149624
F76	F	-0.892031	-0.822772	0.384879
H77	H	-0.627941	-0.667037	0.374725
F78	F	-0.701008	-0.895376	0.735047
F79	F	-0.523152	-0.338425	0.418768
H80	H	-0.677263	-0.896607	0.861934
H81	H	-0.627550	-0.832871	0.660068
F82	F	-0.644426	-0.822837	0.533165
F83	F	-1.118266	-1.068534	0.139654
H84	H	-0.627900	-0.548330	0.374764
F85	F	-0.644660	-0.271586	0.384843
H86	H	-0.490509	-0.465084	0.199807
H87	H	-1.204182	-0.985813	0.222281
F88	F	-0.366902	-0.540087	0.219625
H89	H	-0.383698	-0.978318	0.660168
H90	H	-0.333773	-0.914603	0.861934
F91	F	-0.644609	-0.136516	0.384889
F92	F	-0.366740	-0.988353	0.936923
H93	H	-0.383621	-0.144633	0.229740
F94	F	-0.310177	-0.915843	0.735039
F95	F	-0.366667	-0.988357	1.071993
H96	H	-0.383656	-0.263344	0.229701
F97	F	-0.366924	-0.675161	0.219588
F98	F	-0.488371	-0.338183	0.185732
H99	H	-0.806046	-0.985668	0.222203
