data_functionalizedCrystal
_audit_creation_method	'MofGen! by Chris Wilmer'
_symmetry_space_group_name_H-M	'P1'
_symmetry_Int_Tables_number	1
_symmetry_cell_setting	triclinic
loop_
_symmetry_equiv_pos_as_xyz
  x,y,z
_cell_length_a	15.995343
_cell_length_b	15.995292
_cell_length_c	14.586319
_cell_angle_alpha	89.996995
_cell_angle_beta	90.001533
_cell_angle_gamma	83.478900
loop_
_atom_site_label
_atom_site_type_symbol
_atom_site_fract_x
_atom_site_fract_y
_atom_site_fract_z
O1	O	1.110969	0.107893	0.076142
O2	O	1.610969	0.607893	0.576142
O3	O	0.867190	0.121227	0.076163
O4	O	1.367190	0.621227	0.576163
O5	O	0.995769	-0.007331	0.076153
O6	O	1.495769	0.492669	0.576153
O7	O	0.982391	0.236451	0.076152
O8	O	1.482391	0.736451	0.576152
O9	O	0.995753	-0.007324	-0.076328
O10	O	1.495753	0.492676	0.423672
O11	O	0.867175	0.121235	-0.076318
O12	O	1.367175	0.621235	0.423682
O13	O	1.110954	0.107900	-0.076339
O14	O	1.610954	0.607900	0.423661
Cu15	Cu	0.989063	0.114568	-0.090251
Cu16	Cu	1.489063	0.614568	0.409749
Cu17	Cu	0.989081	0.114559	0.090075
Cu18	Cu	1.489081	0.614559	0.590075
O19	O	0.982375	0.236459	-0.076329
O20	O	1.482375	0.736459	0.423671
C21	C	0.835988	0.120681	-0.000075
C22	C	1.335988	0.620681	0.499925
C23	C	0.743037	0.119032	-0.000066
C24	C	1.243037	0.619032	0.499934
C25	C	0.572852	0.116038	-0.000078
C26	C	1.072852	0.616038	0.499922
C27	C	0.549525	0.023238	-0.000078
C28	C	1.049525	0.523238	0.499922
C29	C	0.452848	0.021493	-0.000429
C30	C	0.952848	0.521493	0.499571
C31	C	0.405292	0.113089	-0.000090
C32	C	0.905292	0.613089	0.499910
C33	C	0.434365	0.159755	-0.086991
C34	C	0.934365	0.659755	0.413009
C35	C	0.531158	0.160856	-0.087058
C36	C	1.031158	0.660856	0.412942
C37	C	0.531086	0.162206	0.086347
C38	C	1.031086	0.662206	0.586347
C39	C	0.434592	0.158780	0.087484
C40	C	0.934592	0.658780	0.587484
C41	C	0.310595	0.111428	-0.000099
C42	C	0.810595	0.611428	0.499901
C43	C	0.667549	0.117702	-0.000075
C44	C	1.167549	0.617702	0.499925
C45	C	0.995217	-0.038523	-0.000085
C46	C	1.495217	0.461477	0.499915
C47	C	0.993584	-0.131476	-0.000078
C48	C	1.493584	0.368524	0.499922
C49	C	0.987583	-0.469214	-0.000086
C50	C	1.487583	0.030786	0.499914
C51	C	1.080388	-0.445904	-0.000434
C52	C	1.580388	0.054096	0.499566
C53	C	1.082152	-0.349229	-0.000088
C54	C	1.582152	0.150771	0.499912
C55	C	0.990561	-0.301658	-0.000082
C56	C	1.490561	0.198342	0.499918
C57	C	0.944172	-0.330762	0.086993
C58	C	1.444172	0.169238	0.586993
C59	C	0.943055	-0.427553	0.087063
C60	C	1.443055	0.072447	0.587063
C61	C	0.941142	-0.427401	-0.086336
C62	C	1.441142	0.072599	0.413664
C63	C	0.944581	-0.330909	-0.087484
C64	C	1.444581	0.169091	0.412516
C65	C	0.992239	-0.206962	-0.000077
C66	C	1.492239	0.293038	0.499923
C67	C	0.985902	-0.563910	-0.000084
C68	C	1.485902	-0.063910	0.499916
C69	C	1.142156	0.108447	-0.000099
C70	C	1.642156	0.608447	0.499901
C71	C	1.235107	0.110096	-0.000102
C72	C	1.735107	0.610096	0.499898
C73	C	0.982927	0.267650	-0.000089
C74	C	1.482927	0.767650	0.499911
C75	C	0.984560	0.360603	-0.000090
C76	C	1.484560	0.860603	0.499910
N77	N	0.989056	0.114574	-0.217083
N78	N	1.489056	0.614574	0.282917
C79	C	1.039840	0.165374	-0.452094
C80	C	1.539840	0.665374	0.047906
C81	C	1.039848	0.165368	-0.548076
C82	C	1.539848	0.665368	-0.048076
C83	C	0.938309	0.063741	-0.548075
C84	C	1.438309	0.563741	-0.048075
C85	C	0.938305	0.063743	-0.452096
C86	C	1.438305	0.563743	0.047904
C87	C	0.989069	0.114564	-0.404108
C88	C	1.489069	0.614564	0.095892
C89	C	0.989082	0.114557	-0.596068
C90	C	1.489082	0.614557	-0.096068
C91	C	0.989091	0.114550	-0.700136
C92	C	1.489091	0.614550	-0.200136
C93	C	0.989061	0.114570	-0.300034
C94	C	1.489061	0.614570	0.199966
N95	N	0.989095	0.114547	0.216907
N96	N	1.489095	0.614547	0.716907
H97	H	0.401621	0.225614	0.093000
H98	H	0.901621	0.725614	0.593000
Cl99	Cl	0.841362	-0.280007	-0.095599
Cl100	Cl	1.341362	0.219993	0.404401
H101	H	0.545085	0.230512	0.087184
H102	H	1.045085	0.730512	0.587184
Cl103	Cl	1.103664	0.229257	-0.391770
Cl104	Cl	1.603664	0.729257	0.108230
Cl105	Cl	0.985958	-0.471087	-0.188233
Cl106	Cl	1.485958	0.028913	0.311767
H107	H	0.578511	-0.012142	-0.062302
H108	H	1.078511	0.487858	0.437698
H109	H	0.402505	0.227168	-0.089979
H110	H	0.902505	0.727168	0.410021
H111	H	0.978359	-0.312341	-0.151902
H112	H	1.478359	0.187659	0.348098
Cl113	Cl	0.403350	0.110332	-0.187220
Cl114	Cl	0.903350	0.610332	0.312780
H115	H	0.896978	0.022365	-0.587158
H116	H	1.396978	0.522365	-0.087158
Cl117	Cl	1.135611	-0.489126	-0.096847
Cl118	Cl	1.635611	0.010874	0.403153
H119	H	1.118483	-0.330202	-0.062505
H120	H	1.618483	0.169798	0.437495
Cl121	Cl	0.423501	-0.034905	0.095729
Cl122	Cl	0.923501	0.465095	0.595729
Cl123	Cl	0.592788	-0.032307	0.096121
Cl124	Cl	1.092788	0.467693	0.596121
Cl125	Cl	0.424376	-0.034613	-0.097182
Cl126	Cl	0.924376	0.465387	0.402818
Cl127	Cl	0.574749	0.116995	0.188075
Cl128	Cl	1.074749	0.616995	0.688075
H129	H	1.081192	0.206742	-0.587142
H130	H	1.581192	0.706742	-0.087142
H131	H	0.896961	0.022363	-0.413024
H132	H	1.396961	0.522363	0.086976
Cl133	Cl	0.553640	0.265921	-0.092787
Cl134	Cl	1.053640	0.765921	0.407213
Cl135	Cl	0.572516	0.111552	-0.187731
Cl136	Cl	1.072516	0.611552	0.312269
Cl137	Cl	1.135323	-0.490709	0.095426
Cl138	Cl	1.635323	0.009291	0.595426
Cl139	Cl	0.838003	-0.450019	0.093178
Cl140	Cl	1.338003	0.049981	0.593178
H141	H	0.416048	0.124796	0.151775
H142	H	0.916048	0.624796	0.651775
H143	H	1.118710	-0.330828	0.062434
H144	H	1.618710	0.169172	0.562434
Cl145	Cl	0.992683	-0.468966	0.187546
Cl146	Cl	1.492683	0.031034	0.687546
Cl147	Cl	0.993928	-0.299804	0.187037
Cl148	Cl	1.493928	0.200196	0.687037
Cl149	Cl	0.840115	-0.281556	0.092006
Cl150	Cl	1.340115	0.218444	0.592006
Cl151	Cl	0.835676	-0.449000	-0.087239
Cl152	Cl	1.335676	0.051000	0.412761
