data_functionalizedCrystal
_audit_creation_method	'MofGen! by Chris Wilmer'
_symmetry_space_group_name_H-M	'P1'
_symmetry_Int_Tables_number	1
_symmetry_cell_setting	triclinic
loop_
_symmetry_equiv_pos_as_xyz
  x,y,z
_cell_length_a	17.699083
_cell_length_b	9.065218
_cell_length_c	8.140239
_cell_angle_alpha	90.001686
_cell_angle_beta	89.996690
_cell_angle_gamma	84.149450
loop_
_atom_site_label
_atom_site_type_symbol
_atom_site_fract_x
_atom_site_fract_y
_atom_site_fract_z
O1	O	-1.005529	-0.186555	-0.136376
O2	O	-0.505529	0.313445	0.363624
O3	O	-0.785340	-0.210827	-0.136429
O4	O	-0.285340	0.289173	0.363571
O5	O	-0.899986	0.016086	-0.136398
O6	O	-0.399986	0.516086	0.363602
O7	O	-0.890883	-0.413468	-0.136407
O8	O	-0.390883	0.086532	0.363593
O9	O	-0.899979	0.016089	0.136829
O10	O	-0.399979	0.516089	0.636829
O11	O	-0.785333	-0.210824	0.136798
O12	O	-0.285333	0.289176	0.636798
O13	O	-1.005522	-0.186553	0.136851
O14	O	-0.505522	0.313447	0.636851
Zn15	Zn	-0.895427	-0.198688	0.180205
Zn16	Zn	-0.395427	0.301312	0.680205
Zn17	Zn	-0.895435	-0.198691	-0.179783
Zn18	Zn	-0.395435	0.301309	0.320217
O19	O	-0.890877	-0.413466	0.136820
O20	O	-0.390877	0.086534	0.636820
C21	C	-0.757133	-0.209956	0.000177
C22	C	-0.257133	0.290044	0.500177
C23	C	-0.673094	-0.207347	0.000157
C24	C	-0.173094	0.292653	0.500157
C25	C	-0.899108	0.071048	0.000212
C26	C	-0.399108	0.571048	0.500212
C27	C	-0.896492	0.234814	0.000204
C28	C	-0.396492	0.734814	0.500204
C29	C	-1.033729	-0.187423	0.000240
C30	C	-0.533729	0.312577	0.500240
C31	C	-1.117768	-0.190033	0.000250
C32	C	-0.617768	0.309967	0.500250
C33	C	-0.625512	-0.340540	0.000155
C34	C	-0.125512	0.159460	0.500155
C35	C	-0.546550	-0.338080	0.000176
C36	C	-0.046550	0.161920	0.500176
C37	C	-0.515171	-0.202425	0.000188
C38	C	-0.015171	0.297575	0.500188
C39	C	-0.562759	-0.069221	0.000195
C40	C	-0.062759	0.430779	0.500195
C41	C	-0.641720	-0.071683	0.000186
C42	C	-0.141720	0.428317	0.500186
C43	C	-0.244319	-0.059289	0.000236
C44	C	0.255681	0.440711	0.500236
C45	C	-0.165352	-0.056838	0.000241
C46	C	0.334648	0.443162	0.500241
C47	C	-0.149148	-0.325686	0.000226
C48	C	0.350852	0.174314	0.500226
C49	C	-0.228109	-0.328148	0.000217
C50	C	0.271891	0.171852	0.500217
C51	C	-0.275691	-0.194946	0.000233
C52	C	0.224309	0.305054	0.500233
C53	C	-0.361311	-0.197615	0.000213
C54	C	0.138689	0.302385	0.500213
C55	C	-0.429552	-0.199754	0.000196
C56	C	0.070448	0.300246	0.500196
C57	C	-0.891755	-0.468428	0.000206
C58	C	-0.391755	0.031572	0.500206
C59	C	-0.894370	-0.632193	0.000203
C60	C	-0.394370	-0.132193	0.500203
N61	N	-0.895427	-0.198685	0.425888
N62	N	-0.395427	0.301315	0.925888
N63	N	-0.895441	-0.198683	-0.425466
N64	N	-0.395441	0.301317	0.074534
H65	H	-0.651054	-0.451006	0.000144
H66	H	-0.151054	0.048994	0.500144
H67	H	-0.283051	0.049173	0.000250
H68	H	0.216949	0.549173	0.500250
H69	H	-0.537205	0.041232	0.000228
H70	H	-0.037205	0.541232	0.500228
O71	O	-0.102957	-0.455124	-0.000063
O72	O	0.397043	0.044876	0.499937
C73	C	-0.064973	-0.684198	-0.141583
C74	C	0.435027	-0.184198	0.358417
C75	C	-0.117311	-0.537657	-0.141470
C76	C	0.382689	-0.037657	0.358530
H77	H	-0.076571	-0.750982	-0.255880
H78	H	0.423429	-0.250982	0.244120
H79	H	-0.003132	-0.659233	-0.141673
H80	H	0.496868	-0.159233	0.358327
H81	H	-0.076505	-0.750914	-0.027195
H82	H	0.423495	-0.250914	0.472805
H83	H	-0.105847	-0.470869	-0.255838
H84	H	0.394153	0.029131	0.244162
H85	H	-0.179135	-0.562727	-0.141294
H86	H	0.320865	-0.062727	0.358706
O87	O	-0.134780	0.074854	0.000481
O88	O	0.365220	0.574854	0.500481
C89	C	-0.055071	0.233679	0.142103
C90	C	0.444929	0.733679	0.642103
C91	C	-0.089629	0.084486	0.142021
C92	C	0.410371	0.584486	0.642021
H93	H	-0.018572	0.241529	0.256543
H94	H	0.481428	0.741529	0.756543
H95	H	-0.018456	0.241579	0.027837
H96	H	0.481544	0.741579	0.527837
H97	H	-0.102654	0.328437	0.142037
H98	H	0.397346	0.828437	0.642037
H99	H	-0.042096	-0.010357	0.142145
H100	H	0.457904	0.489643	0.642145
H101	H	-0.126264	0.076715	0.256277
H102	H	0.373736	0.576715	0.756277
O103	O	-0.687835	0.057837	0.000106
O104	O	-0.187835	0.557837	0.500106
C105	C	-0.695579	0.324768	0.000213
C106	C	-0.195579	0.824768	0.500213
C107	C	-0.643268	0.178193	0.000257
C108	C	-0.143268	0.678193	0.500257
H109	H	-0.659568	0.422114	0.000370
H110	H	-0.159568	0.922114	0.500370
H111	H	-0.732932	0.330438	-0.114163
H112	H	-0.232932	0.830438	0.385837
H113	H	-0.732974	0.330255	0.114527
H114	H	-0.232974	0.830255	0.614527
H115	H	-0.605827	0.172608	-0.113980
H116	H	-0.105827	0.672608	0.386020
H117	H	-0.605967	0.172584	0.114709
H118	H	-0.105967	0.672584	0.614709
H119	H	-0.507811	-0.446539	0.000172
H120	H	-0.007811	0.053461	0.500172
H121	H	-0.253653	-0.438612	0.000200
H122	H	0.246347	0.061388	0.500200
