data_functionalizedCrystal
_audit_creation_method	'MofGen! by Chris Wilmer'
_symmetry_space_group_name_H-M	'P1'
_symmetry_Int_Tables_number	1
_symmetry_cell_setting	triclinic
loop_
_symmetry_equiv_pos_as_xyz
  x,y,z
_cell_length_a	8.497365
_cell_length_b	12.759401
_cell_length_c	12.759400
_cell_angle_alpha	90.014845
_cell_angle_beta	90.051021
_cell_angle_gamma	90.031201
loop_
_atom_site_label
_atom_site_type_symbol
_atom_site_fract_x
_atom_site_fract_y
_atom_site_fract_z
Zn1	Zn	-0.891905	-1.606387	0.417998
Zn2	Zn	-0.628109	-1.606243	0.593777
Zn3	Zn	-0.628138	-1.430650	0.418113
Zn4	Zn	-0.891847	-1.430678	0.593636
O5	O	-0.760000	-1.518490	0.505881
O6	O	-0.856924	-1.753389	0.441326
O7	O	-0.407351	-1.582878	0.570581
O8	O	-0.663164	-1.454011	0.271077
O9	O	-0.663114	-1.753283	0.570470
O10	O	-0.856952	-1.583124	0.270992
O11	O	-0.407372	-1.453871	0.441522
O12	O	-0.663108	-1.283633	0.441385
O13	O	-1.112618	-1.454058	0.570231
O14	O	-0.856854	-1.283653	0.570342
O15	O	-1.112660	-1.583151	0.441190
O16	O	-0.663059	-1.582905	0.740779
O17	O	-0.856826	-1.453918	0.740676
C18	C	-0.759979	-1.245522	0.505862
C19	C	-0.760007	-1.128746	0.505879
C20	C	-0.759967	-1.518427	0.778848
C21	C	-0.760006	-1.518497	0.895625
C22	C	-0.760023	-1.792523	0.505901
C23	C	-0.760032	-1.909299	0.505910
C24	C	-0.350120	-1.518414	0.505995
C25	C	-0.171477	-1.518563	0.505780
C26	C	-0.760068	-1.518581	0.231848
C27	C	-0.760096	-1.518620	0.115071
C28	C	-0.860724	-1.073922	0.573134
C29	C	-0.860741	-0.964197	0.573147
C30	C	-0.659311	-0.964131	0.438647
C31	C	-0.659303	-1.073853	0.438629
C32	C	-0.977013	-1.073959	0.650789
C33	C	-0.977030	-0.964235	0.650803
C34	C	-0.659223	-1.585735	0.950506
C35	C	-0.659271	-1.585799	1.060230
C36	C	-0.860891	-1.451379	1.060182
C37	C	-0.860849	-1.451320	0.950460
C38	C	-0.542815	-1.663338	0.950534
C39	C	-0.542863	-1.663402	1.060258
H40	H	-0.577323	-0.919424	0.383894
N41	N	-0.918781	-1.119006	0.753134
H42	H	-1.004067	-1.163599	0.785539
H43	H	-0.822584	-1.163481	0.739762
N44	N	-0.933398	-0.924739	0.758557
H45	H	-1.012457	-0.951129	0.811407
H46	H	-0.825072	-0.951054	0.777756
H47	H	-0.575626	-1.744686	0.920669
H48	H	-0.420664	-1.641647	1.090148
H49	H	-0.942995	-1.396687	1.104843
N50	N	-0.969563	-1.378810	0.891265
H51	H	-1.033445	-1.336263	0.942655
H52	H	-0.905272	-1.330174	0.845829
N53	N	-1.138922	-1.113481	0.622015
H54	H	-1.211180	-1.051976	0.609179
H55	H	-1.131951	-1.157489	0.556381
H56	H	-0.577300	-1.118487	0.383857
N57	N	-1.130860	-0.919256	0.612223
H58	H	-1.219314	-0.943706	0.659064
H59	H	-1.125155	-0.840203	0.613594
N60	N	-0.389019	-1.624744	0.905589
H61	H	-0.314739	-1.606140	0.964575
H62	H	-0.340619	-1.681626	0.861007
N63	N	-0.600887	-1.765820	1.105222
H64	H	-0.628897	-1.815258	1.046245
H65	H	-0.515462	-1.798095	1.149820
