data_functionalizedCrystal
_audit_creation_method	'MofGen! by Chris Wilmer'
_symmetry_space_group_name_H-M	'P1'
_symmetry_Int_Tables_number	1
_symmetry_cell_setting	triclinic
loop_
_symmetry_equiv_pos_as_xyz
  x,y,z
_cell_length_a	29.839131
_cell_length_b	13.032831
_cell_length_c	13.033327
_cell_angle_alpha	76.683917
_cell_angle_beta	82.825863
_cell_angle_gamma	97.154634
loop_
_atom_site_label
_atom_site_type_symbol
_atom_site_fract_x
_atom_site_fract_y
_atom_site_fract_z
Zn1	Zn	-0.315927	-1.699576	0.806274
Zn2	Zn	0.184073	-1.199576	1.306274
Zn3	Zn	-0.380092	-1.676892	0.628642
Zn4	Zn	0.119908	-1.176892	1.128642
Zn5	Zn	-0.294046	-1.499477	0.606181
Zn6	Zn	0.205954	-0.999477	1.106181
Zn7	Zn	-0.380076	-1.521865	0.783680
Zn8	Zn	0.119924	-1.021865	1.283680
O9	O	-0.342535	-1.599453	0.706194
O10	O	0.157465	-1.099453	1.206194
O11	O	-0.333602	-1.845189	0.801566
O12	O	0.166398	-1.345189	1.301566
O13	O	-0.359527	-1.634495	0.477039
O14	O	0.140473	-1.134495	0.977039
O15	O	-0.234091	-1.526145	0.632780
O16	O	0.265909	-1.026145	1.132780
O17	O	-0.380744	-1.828523	0.671060
O18	O	0.119256	-1.328523	1.171060
O19	O	-0.250167	-1.673157	0.779787
O20	O	0.249833	-1.173157	1.279787
O21	O	-0.296310	-1.504149	0.460537
O22	O	0.203690	-1.004149	0.960537
O23	O	-0.296295	-1.353825	0.610872
O24	O	0.203705	-0.853825	1.110872
O25	O	-0.380717	-1.564301	0.935301
O26	O	0.119283	-1.064301	1.435301
O27	O	-0.359501	-1.370273	0.741279
O28	O	0.140499	-0.870273	1.241279
O29	O	-0.333587	-1.694865	0.951900
O30	O	0.166413	-1.194865	1.451900
O31	O	-0.442947	-1.656204	0.649152
O32	O	0.057053	-1.156204	1.149152
O33	O	-0.442936	-1.542306	0.763058
O34	O	0.057064	-1.042306	1.263058
C35	C	-0.325522	-1.323513	0.671187
C36	C	0.174478	-0.823513	1.171187
C37	C	-0.318256	-1.205468	0.656236
C38	C	0.181744	-0.705468	1.156236
C39	C	-0.459243	-1.599254	0.706117
C40	C	0.040757	-1.099254	1.206117
C41	C	-0.509179	-1.599271	0.706132
C42	C	-0.009179	-1.099271	1.206132
C43	C	-0.359591	-1.634611	0.983214
C44	C	0.140409	-1.134611	1.483214
C45	C	-0.366859	-1.649593	1.101264
C46	C	0.133141	-1.149593	1.601264
C47	C	-0.818843	-1.658895	0.646998
C48	C	-0.318843	-1.158895	1.146998
C49	C	-1.006526	-1.659032	0.647056
C50	C	-0.506526	-1.159032	1.147056
O51	O	-1.030797	-1.709569	0.596718
O52	O	-0.530797	-1.209569	1.096718
N53	N	-1.029996	-1.599683	0.706302
N54	N	-0.529996	-1.099683	1.206302
C55	C	-1.006542	-1.540302	0.765544
C56	C	-0.506542	-1.040302	1.265544
O57	O	-1.030812	-1.489834	0.815946
O58	O	-0.530812	-0.989834	1.315946
C59	C	-0.818860	-1.540172	0.765491
C60	C	-0.318860	-1.040172	1.265491
C61	C	-0.795392	-1.599516	0.706233
C62	C	-0.295392	-1.099516	1.206233
C63	C	-0.795375	-1.718235	0.587745
C64	C	-0.295375	-1.218235	1.087745
C65	C	-0.748456	-1.718196	0.587727
C66	C	-0.248456	-1.218196	1.087727
C67	C	-0.725006	-1.658817	0.646961
C68	C	-0.225006	-1.158817	1.146961
C69	C	-0.748473	-1.599477	0.706214
C70	C	-0.248473	-1.099477	1.206214
C71	C	-0.795408	-1.480797	0.824738
C72	C	-0.295408	-0.980797	1.324738
C73	C	-0.748485	-1.480772	0.824722
C74	C	-0.248485	-0.980772	1.324722
C75	C	-0.725017	-1.540116	0.765463
C76	C	-0.225017	-1.040116	1.265463
C77	C	-0.678104	-1.540058	0.765430
C78	C	-0.178104	-1.040058	1.265430
N79	N	-0.654635	-1.599407	0.706184
N80	N	-0.154635	-1.099407	1.206184
C81	C	-0.678085	-1.658786	0.646949
C82	C	-0.178085	-1.158786	1.146949
C83	C	-1.105078	-1.540372	0.765565
C84	C	-0.605078	-1.040372	1.265565
C85	C	-1.151998	-1.540403	0.765577
C86	C	-0.651998	-1.040403	1.265577
C87	C	-1.151979	-1.659135	0.647091
C88	C	-0.651979	-1.159135	1.147091
C89	C	-1.105057	-1.659097	0.647074
C90	C	-0.605057	-1.159097	1.147074
C91	C	-1.081608	-1.599721	0.706319
C92	C	-0.581608	-1.099721	1.206319
C93	C	-0.579553	-1.658698	0.646914
C94	C	-0.079553	-1.158698	1.146914
C95	C	-0.532630	-1.658650	0.646898
C96	C	-0.032630	-1.158650	1.146898
C97	C	-0.532653	-1.539923	0.765388
C98	C	-0.032653	-1.039923	1.265388
C99	C	-0.579572	-1.539966	0.765401
C100	C	-0.079572	-1.039966	1.265401
C101	C	-0.603021	-1.599362	0.706162
C102	C	-0.103021	-1.099362	1.206162
O103	O	-0.653806	-1.489556	0.815751
O104	O	-0.153806	-0.989556	1.315751
O105	O	-0.653810	-1.709265	0.596573
O106	O	-0.153810	-1.209265	1.096573
C107	C	-0.865761	-1.658935	0.647017
C108	C	-0.365761	-1.158935	1.147017
C109	C	-0.889229	-1.599594	0.706270
C110	C	-0.389229	-1.099594	1.206270
C111	C	-0.865779	-1.540215	0.765504
C112	C	-0.365779	-1.040215	1.265504
C113	C	-0.936149	-1.599625	0.706281
C114	C	-0.436149	-1.099625	1.206281
C115	C	-0.959600	-1.659005	0.647047
C116	C	-0.459600	-1.159005	1.147047
C117	C	-0.936131	-1.718353	0.587801
C118	C	-0.436131	-1.218353	1.087801
C119	C	-0.889212	-1.718314	0.587782
C120	C	-0.389212	-1.218314	1.087782
C121	C	-0.889248	-1.480866	0.824750
C122	C	-0.389248	-0.980866	1.324750
C123	C	-0.936167	-1.480910	0.824763
C124	C	-0.436167	-0.980910	1.324763
C125	C	-0.959617	-1.540289	0.765528
C126	C	-0.459617	-1.040289	1.265528
C127	C	-0.225375	-1.599684	0.706298
C128	C	0.274625	-1.099684	1.206298
C129	C	-0.175449	-1.599782	0.706343
C130	C	0.324551	-1.099782	1.206343
C131	C	-0.359615	-1.876469	0.741338
C132	C	0.140385	-1.376469	1.241338
C133	C	-0.366894	-1.994518	0.756315
C134	C	0.133106	-1.494518	1.256315
C135	C	-0.346328	-1.160994	0.713997
C136	C	0.153672	-0.660994	1.213997
C137	C	-0.338819	-1.038988	0.698546
C138	C	0.161181	-0.538988	1.198546
C139	C	-0.338821	-1.591780	1.145729
C140	C	0.161179	-1.091780	1.645729
C141	C	-0.346332	-1.607264	1.267740
C142	C	0.153668	-1.107264	1.767740
C143	C	-0.325556	-1.564424	1.430251
C144	C	0.174444	-1.064424	1.930251
C145	C	-0.318290	-1.549443	1.312201
C146	C	0.181710	-1.049443	1.812201
H147	H	-0.513523	-1.706975	0.598639
H148	H	-0.013523	-1.206975	1.098639
H149	H	-0.288723	-1.488477	1.259947
H150	H	0.211277	-0.988477	1.759947
F151	F	-0.384981	-1.686943	1.336036
F152	F	0.115019	-1.186943	1.836036
H153	H	-0.309223	-0.986745	0.637656
H154	H	0.190777	-0.486745	1.137656
F155	F	-0.723531	-1.417576	0.887783
F156	F	-0.223531	-0.917576	1.387783
F157	F	-0.405572	-1.062800	0.835923
F158	F	0.094428	-0.562800	1.335923
H159	H	-0.396425	-1.710551	1.153523
H160	H	0.103575	-1.210551	1.653523
H161	H	-0.598640	-1.707067	0.598679
H162	H	-0.098640	-1.207067	1.098679
H163	H	-0.814464	-1.766595	0.539510
H164	H	-0.314464	-1.266595	1.039510
F165	F	-1.080085	-1.722259	0.584004
F166	F	-0.580085	-1.222259	1.084004
F167	F	-0.723487	-1.781372	0.524669
F168	F	-0.223487	-1.281372	1.024669
F169	F	-0.300172	-1.512111	1.077430
F170	F	0.199828	-1.012111	1.577430
H171	H	-0.288662	-1.153221	0.595351
H172	H	0.211338	-0.653221	1.095351
H173	H	-1.171081	-1.707484	0.598860
H174	H	-0.671081	-1.207484	1.098860
H175	H	-1.085989	-1.492018	0.813811
H176	H	-0.585989	-0.992018	1.313811
F177	F	-1.176968	-1.477227	0.828635
F178	F	-0.676968	-0.977227	1.328635
H179	H	-0.598681	-1.491647	0.813658
H180	H	-0.098681	-0.991647	1.313658
F181	F	-0.820375	-1.417644	0.887821
F182	F	-0.320375	-0.917644	1.387821
H183	H	-0.513552	-1.491573	0.813613
H184	H	-0.013552	-0.991573	1.313613
H185	H	-0.870108	-1.766638	0.539529
H186	H	-0.370108	-1.266638	1.039529
H187	H	-0.955232	-1.766699	0.539567
H188	H	-0.455232	-1.266699	1.039567
H189	H	-0.955270	-1.432575	0.873016
H190	H	-0.455270	-0.932575	1.373016
H191	H	-0.870158	-1.432514	0.872987
H192	H	-0.370158	-0.932514	1.372987
F193	F	-0.385009	-1.229280	0.793584
F194	F	0.114991	-0.729280	1.293584
