data_functionalizedCrystal
_audit_creation_method	'MofGen! by Chris Wilmer'
_symmetry_space_group_name_H-M	'P1'
_symmetry_Int_Tables_number	1
_symmetry_cell_setting	triclinic
loop_
_symmetry_equiv_pos_as_xyz
  x,y,z
_cell_length_a	21.395362
_cell_length_b	19.077068
_cell_length_c	21.395355
_cell_angle_alpha	92.279051
_cell_angle_beta	89.956060
_cell_angle_gamma	92.343691
loop_
_atom_site_label
_atom_site_type_symbol
_atom_site_fract_x
_atom_site_fract_y
_atom_site_fract_z
Zn1	Zn	0.947861	-0.279990	-0.364586
Zn2	Zn	0.943561	-0.397672	-0.264012
Zn3	Zn	0.843074	-0.280023	-0.259789
Zn4	Zn	0.838842	-0.397686	-0.368717
O5	O	0.893334	-0.338843	-0.314276
O6	O	1.034969	-0.295581	-0.351283
O7	O	0.930203	-0.382073	-0.175774
O8	O	0.860546	-0.181525	-0.270194
O9	O	1.031810	-0.382041	-0.277392
O10	O	0.937532	-0.181501	-0.347188
O11	O	0.856376	-0.295637	-0.172671
O12	O	0.754834	-0.295651	-0.274200
O13	O	0.853331	-0.382066	-0.455847
O14	O	0.751725	-0.382098	-0.354229
O15	O	0.933427	-0.295595	-0.452812
O16	O	0.926098	-0.496167	-0.281398
O17	O	0.849162	-0.496177	-0.358324
C18	C	0.730545	-0.338880	-0.314205
C19	C	0.660903	-0.338913	-0.314190
C20	C	0.626585	-0.383985	-0.355803
C21	C	0.561150	-0.383968	-0.355830
C22	C	0.530036	-0.338886	-0.314233
C23	C	0.564362	-0.293804	-0.272617
C24	C	0.629796	-0.293818	-0.272595
C25	C	0.426513	-0.333216	-0.257626
C26	C	0.361081	-0.333207	-0.257647
C27	C	0.328216	-0.338840	-0.314301
C28	C	0.360792	-0.344496	-0.370937
C29	C	0.426226	-0.344510	-0.370915
C30	C	0.459084	-0.338866	-0.314253
C31	C	0.222946	-0.383896	-0.355947
C32	C	0.157511	-0.383874	-0.355976
C33	C	0.160724	-0.293714	-0.272756
C34	C	0.226158	-0.293732	-0.272734
C35	C	0.257266	-0.338827	-0.314328
C36	C	0.886721	-0.521710	-0.320781
C37	C	0.883949	-0.599942	-0.323585
C38	C	0.922735	-0.636666	-0.284884
C39	C	0.920132	-0.710173	-0.287525
C40	C	0.878739	-0.746954	-0.328864
C41	C	0.839952	-0.710224	-0.367570
C42	C	0.842559	-0.636719	-0.364931
C43	C	0.866647	-0.966795	-0.341049
C44	C	0.864041	-1.040305	-0.343683
C45	C	0.944222	-1.040249	-0.263639
C46	C	0.946823	-0.966742	-0.261002
C47	C	0.908038	-0.930019	-0.299709
N48	N	0.876076	-0.822090	-0.331564
N49	N	0.910705	-0.854884	-0.297013
C50	C	1.056759	-0.338806	-0.314348
C51	C	1.126401	-0.338790	-0.314379
C52	C	0.893387	-0.338828	-0.477699
C53	C	0.893409	-0.338822	-0.547340
C54	C	0.899990	-0.155261	-0.307759
C55	C	0.902827	-0.077030	-0.304982
C56	C	0.935113	-0.293795	-0.578474
C57	C	0.935114	-0.293765	-0.643908
C58	C	0.893416	-0.338774	-0.678207
C59	C	0.851704	-0.383805	-0.647065
C60	C	0.851700	-0.383829	-0.581632
C61	C	0.886177	-0.402150	-0.784134
C62	C	0.886184	-0.402127	-0.849566
C63	C	0.893422	-0.338700	-0.880025
C64	C	0.900666	-0.275294	-0.845043
C65	C	0.900663	-0.275318	-0.779610
C66	C	0.893414	-0.338753	-0.749158
C67	C	0.935129	-0.293636	-0.982110
C68	C	0.935125	-0.293605	-1.047545
C69	C	0.851718	-0.383651	-1.050701
C70	C	0.851719	-0.383676	-0.985267
C71	C	0.893428	-0.338670	-0.950975
C72	C	0.893320	-0.338806	-0.151487
C73	C	0.893426	-0.338614	-0.081839
H74	H	0.135391	-0.257003	-0.238890
N75	N	0.819397	-1.079976	-0.388276
H76	H	0.823629	-1.132114	-0.384069
H77	H	0.775107	-1.067187	-0.378011
H78	H	0.835065	-0.936900	-0.372565
N79	N	0.980104	-0.245024	-1.081120
H80	H	1.024475	-0.255950	-1.070158
H81	H	0.973724	-0.251849	-1.127766
H82	H	0.906561	-0.223645	-0.869841
N83	N	0.795308	-0.749891	-0.412160
H84	H	0.799539	-0.802030	-0.407958
H85	H	0.751020	-0.737101	-0.401892
N86	N	0.878376	-0.470567	-0.751288
H87	H	0.879472	-0.460962	-0.704528
H88	H	0.836962	-0.494494	-0.763550
N89	N	0.967379	-0.596994	-0.240298
H90	H	0.957218	-0.609825	-0.195979
H91	H	1.011672	-0.609741	-0.250599
N92	N	0.908467	-0.206931	-0.741886
H93	H	0.870535	-0.200352	-0.714475
H94	H	0.947061	-0.207920	-0.714836
N95	N	0.325357	-0.350576	-0.432048
H96	H	0.278962	-0.349706	-0.423471
H97	H	0.338317	-0.309924	-0.458669
N98	N	0.986050	-1.079856	-0.221890
H99	H	0.978118	-1.132003	-0.229831
H100	H	1.031251	-1.066948	-0.231232
N101	N	0.263178	-0.245113	-0.227854
H102	H	0.233540	-0.216548	-0.201508
H103	H	0.289252	-0.273714	-0.199823
H104	H	0.817761	-0.420292	-1.078627
H105	H	0.817763	-0.420347	-0.959918
H106	H	0.951715	-0.740071	-0.256010
H107	H	0.248275	-0.420611	-0.389819
N108	N	0.120493	-0.432495	-0.400857
H109	H	0.094424	-0.403940	-0.428934
H110	H	0.150172	-0.461054	-0.427157
N111	N	0.878377	-0.470511	-0.887294
H112	H	0.873783	-0.510695	-0.858071
H113	H	0.839810	-0.469494	-0.914380
H114	H	0.657737	-0.257112	-0.238708
N115	N	0.530805	-0.245186	-0.227747
H116	H	0.562477	-0.216634	-0.201380
H117	H	0.504873	-0.212651	-0.252149
N118	N	0.980110	-0.245095	-0.945118
H119	H	1.006527	-0.216560	-0.974773
H120	H	0.955786	-0.212540	-0.916784
H121	H	0.651908	-0.420704	-0.389674
H122	H	0.334562	-0.328606	-0.211530
N123	N	0.991477	-0.927072	-0.216424
H124	H	1.015657	-0.961491	-0.192311
H125	H	1.021538	-0.896530	-0.240879
H126	H	0.817751	-0.420450	-0.674995
N127	N	0.800728	-0.597105	-0.406675
H128	H	0.774110	-0.631558	-0.433263
H129	H	0.772825	-0.566656	-0.380043
H130	H	0.817737	-0.420495	-0.556283
N131	N	0.461957	-0.327137	-0.196516
H132	H	0.431393	-0.323558	-0.160643
H133	H	0.487530	-0.370017	-0.192153
N134	N	0.980103	-0.245204	-0.677497
H135	H	0.973777	-0.252021	-0.724152
H136	H	0.972181	-0.194941	-0.664260
H137	H	0.969075	-0.257146	-0.550557
H138	H	0.533203	-0.420671	-0.389719
H139	H	0.452747	-0.349113	-0.417029
