data_functionalizedCrystal
_audit_creation_method	'MofGen! by Chris Wilmer'
_symmetry_space_group_name_H-M	'P1'
_symmetry_Int_Tables_number	1
_symmetry_cell_setting	triclinic
loop_
_symmetry_equiv_pos_as_xyz
  x,y,z
_cell_length_a	16.109301
_cell_length_b	17.038272
_cell_length_c	14.586319
_cell_angle_alpha	89.995924
_cell_angle_beta	89.999213
_cell_angle_gamma	87.286518
loop_
_atom_site_label
_atom_site_type_symbol
_atom_site_fract_x
_atom_site_fract_y
_atom_site_fract_z
O1	O	1.110268	0.100495	-0.076183
O2	O	0.869094	0.113001	-0.076198
O3	O	0.988248	-0.007067	-0.076183
O4	O	0.991114	0.220564	-0.076198
O5	O	0.988239	-0.007069	0.076298
O6	O	0.869085	0.113000	0.076283
O7	O	1.110259	0.100493	0.076298
Cu8	Cu	0.989671	0.106746	0.090213
Cu9	Cu	0.989682	0.106748	-0.090113
O10	O	0.991105	0.220562	0.076283
C11	C	0.838079	0.112494	0.000041
C12	C	0.745676	0.110975	0.000035
C13	C	0.528212	0.178690	0.000042
C14	C	0.441390	0.177257	0.000048
C15	C	0.451147	0.034799	0.000053
C16	C	0.537968	0.036233	0.000054
C17	C	0.576498	0.108181	0.000043
C18	C	0.402855	0.105314	0.000049
C19	C	0.308719	0.103759	0.000055
C20	C	0.670640	0.109736	0.000039
C21	C	0.985636	-0.036196	0.000057
C22	C	0.977857	-0.122989	0.000056
C23	C	1.049277	-0.173104	0.000062
C24	C	1.041963	-0.254654	0.000052
C25	C	0.963228	-0.286089	0.000044
C26	C	0.891802	-0.235967	0.000036
C27	C	0.899116	-0.154418	0.000039
C28	C	0.937385	-0.531846	0.000030
C29	C	0.930076	-0.613402	0.000031
C30	C	1.080238	-0.632083	0.000045
C31	C	1.087546	-0.550532	0.000053
C32	C	1.016120	-0.500418	0.000040
C33	C	0.955749	-0.369446	0.000038
C34	C	1.023599	-0.417062	0.000040
C35	C	1.141274	0.101001	0.000057
C36	C	1.233677	0.102519	0.000057
C37	C	0.993717	0.249691	0.000041
C38	C	1.001496	0.336484	0.000036
N39	N	0.989670	0.106744	0.217045
N40	N	0.989689	0.106744	-0.216945
C41	C	1.042451	0.053596	0.452058
C42	C	1.042453	0.053594	0.548039
C43	C	0.936902	0.159895	0.548036
C44	C	0.936896	0.159893	0.452056
C45	C	0.989675	0.106744	0.404070
C46	C	0.989684	0.106744	0.596030
C47	C	0.989686	0.106743	0.700098
C48	C	0.989672	0.106744	0.299996
H49	H	0.402079	0.234672	0.000048
N50	N	0.569765	0.256290	0.000033
H51	H	0.552522	0.287176	0.056558
H52	H	0.632082	0.246440	-0.000005
H53	H	0.419765	-0.023778	0.000067
N54	N	0.806879	-0.269870	0.000037
H55	H	0.762745	-0.225745	0.000033
H56	H	0.800575	-0.303296	-0.056489
H57	H	0.840958	-0.113615	0.000035
H58	H	1.085426	0.010315	0.587108
N59	N	0.590047	-0.039824	0.000053
H60	H	0.626289	-0.042402	-0.056470
H61	H	0.626232	-0.042360	0.056617
N62	N	1.134200	-0.139203	0.000079
H63	H	1.178334	-0.183328	0.000079
H64	H	1.140511	-0.105769	-0.056445
H65	H	1.100122	-0.295455	0.000059
H66	H	1.151661	-0.524945	0.000059
H67	H	0.893932	0.203169	0.587116
H68	H	0.891642	-0.395049	0.000034
N69	N	1.108520	-0.383164	0.000056
H70	H	1.114909	-0.349738	-0.056464
H71	H	1.114830	-0.349790	0.056623
N72	N	1.157272	-0.686133	0.000060
H73	H	1.140695	-0.742564	0.000058
H74	H	1.191341	-0.675954	-0.056463
N75	N	0.860351	-0.477801	0.000020
H76	H	0.809364	-0.510091	0.000020
H77	H	0.860110	-0.443562	0.056547
H78	H	1.085425	0.010318	0.412989
H79	H	0.865956	-0.638991	0.000039
H80	H	0.893916	0.203173	0.412982
