data_functionalizedCrystal
_audit_creation_method	'MofGen! by Chris Wilmer'
_symmetry_space_group_name_H-M	'P1'
_symmetry_Int_Tables_number	1
_symmetry_cell_setting	triclinic
loop_
_symmetry_equiv_pos_as_xyz
  x,y,z
_cell_length_a	19.805407
_cell_length_b	13.897447
_cell_length_c	19.805399
_cell_angle_alpha	90.023747
_cell_angle_beta	90.017803
_cell_angle_gamma	90.016846
loop_
_atom_site_label
_atom_site_type_symbol
_atom_site_fract_x
_atom_site_fract_y
_atom_site_fract_z
Zn1	Zn	1.034768	-0.384106	0.382706
Zn2	Zn	1.534768	0.115894	0.882706
Zn3	Zn	1.034696	-0.545412	0.269525
Zn4	Zn	1.534696	-0.045412	0.769525
Zn5	Zn	0.921583	-0.384125	0.269534
Zn6	Zn	1.421583	0.115875	0.769534
Zn7	Zn	0.921560	-0.545353	0.382675
Zn8	Zn	1.421560	-0.045353	0.882675
O9	O	0.978152	-0.464749	0.326110
O10	O	1.478152	0.035251	0.826110
O11	O	1.129475	-0.405521	0.367701
O12	O	1.629475	0.094479	0.867701
O13	O	1.019671	-0.524050	0.174810
O14	O	1.519671	-0.024050	0.674810
O15	O	0.936636	-0.249141	0.284563
O16	O	1.436636	0.250859	0.784563
O17	O	1.129422	-0.524031	0.284548
O18	O	1.629422	-0.024031	0.784548
O19	O	1.019793	-0.249127	0.367710
O20	O	1.519793	0.250873	0.867710
O21	O	0.936567	-0.405553	0.174816
O22	O	1.436567	0.094447	0.674816
O23	O	0.826863	-0.405496	0.284533
O24	O	1.326863	0.094504	0.784533
O25	O	0.936597	-0.523931	0.477396
O26	O	1.436597	-0.023931	0.977396
O27	O	0.826846	-0.523950	0.367658
O28	O	1.326846	-0.023950	0.867658
O29	O	1.019771	-0.405464	0.477418
O30	O	1.519771	0.094536	0.977418
O31	O	1.019649	-0.680386	0.284518
O32	O	1.519649	-0.180386	0.784518
O33	O	0.936528	-0.680343	0.367649
O34	O	1.436528	-0.180343	0.867649
C35	C	0.802296	-0.464719	0.326094
C36	C	1.302296	0.035281	0.826094
C37	C	0.727064	-0.464729	0.326103
C38	C	1.227064	0.035271	0.826103
C39	C	0.691748	-0.403130	0.369466
C40	C	1.191748	0.096870	0.869466
C41	C	0.621059	-0.403135	0.369469
C42	C	1.121059	0.096865	0.869469
C43	C	0.585688	-0.464745	0.326111
C44	C	1.085688	0.035255	0.826111
C45	C	0.621009	-0.526347	0.282742
C46	C	1.121009	-0.026347	0.782742
C47	C	0.691696	-0.526337	0.282737
C48	C	1.191696	-0.026337	0.782737
C49	C	0.335936	-0.526391	0.282763
C50	C	0.835936	-0.026391	0.782763
C51	C	0.265244	-0.526399	0.282773
C52	C	0.765244	-0.026399	0.782773
C53	C	0.265299	-0.403189	0.369495
C54	C	0.765299	0.096811	0.869495
C55	C	0.335986	-0.403178	0.369490
C56	C	0.835986	0.096822	0.869490
C57	C	0.371301	-0.464777	0.326119
C58	C	0.871301	0.035223	0.826119
C59	C	0.447949	-0.464769	0.326116
C60	C	0.947949	0.035231	0.826116
C61	C	0.509041	-0.464758	0.326117
C62	C	1.009041	0.035242	0.826117
C63	C	0.978097	-0.715364	0.326094
C64	C	1.478097	-0.215364	0.826094
C65	C	0.978135	-0.822578	0.326110
C66	C	1.478135	-0.322578	0.826110
C67	C	0.978168	-0.909647	0.326126
C68	C	1.478168	-0.409647	0.826126
C69	C	0.978215	-1.018880	0.326143
C70	C	1.478215	-0.518880	0.826143
C71	C	1.154694	-0.464780	0.326127
C72	C	1.654694	0.035220	0.826127
C73	C	1.229926	-0.464794	0.326134
C74	C	1.729926	0.035206	0.826134
C75	C	0.978190	-0.464689	0.502653
C76	C	1.478190	0.035311	1.002653
C77	C	0.978206	-0.464663	0.577885
C78	C	1.478206	0.035337	1.077885
C79	C	0.978225	-0.213156	0.326141
C80	C	1.478225	0.286844	0.826141
C81	C	0.978257	-0.105942	0.326154
C82	C	1.478257	0.394058	0.826154
C83	C	0.978153	-0.464740	0.150254
C84	C	1.478153	0.035260	0.650254
C85	C	0.978268	-0.464494	0.075022
C86	C	1.478268	0.035506	0.575022
C87	C	1.021515	-0.402974	0.613242
C88	C	1.521515	0.097026	1.113242
C89	C	1.021522	-0.402946	0.683930
C90	C	1.521522	0.097054	1.183930
C91	C	0.978223	-0.464612	0.719260
C92	C	1.478223	0.035388	1.219260
C93	C	0.934908	-0.526304	0.683899
C94	C	1.434908	-0.026304	1.183899
C95	C	0.934899	-0.526327	0.613211
C96	C	1.434899	-0.026327	1.113211
C97	C	0.934947	-0.526214	0.968972
C98	C	1.434947	-0.026214	1.468972
C99	C	0.934961	-0.526189	1.039664
C100	C	1.434961	-0.026189	1.539664
C101	C	1.021570	-0.402833	1.039691
C102	C	1.521570	0.097167	1.539691
C103	C	1.021560	-0.402856	0.969004
C104	C	1.521560	0.097144	1.469004
C105	C	0.978244	-0.464544	0.933648
C106	C	1.478244	0.035456	1.433648
C107	C	0.978236	-0.464572	0.856999
C108	C	1.478236	0.035428	1.356999
C109	C	0.978234	-0.464590	0.795908
C110	C	1.478234	0.035410	1.295908
H111	H	0.364781	-0.353012	0.404799
H112	H	0.864781	0.146988	0.904799
H113	H	0.899651	-0.576511	0.712670
H114	H	1.399651	-0.076511	1.212670
C115	C	1.069212	-0.334963	1.078588
C116	C	1.569212	0.165037	1.578588
N117	N	1.105094	-0.283844	1.107885
N118	N	1.605094	0.216156	1.607885
C119	C	0.887256	-0.594191	0.574319
C120	C	1.387256	-0.094191	1.074319
N121	N	0.851369	-0.645307	0.545026
N122	N	1.351369	-0.145307	1.045026
H123	H	0.720450	-0.576497	0.247425
H124	H	1.220450	-0.076497	0.747425
H125	H	1.056791	-0.352714	0.712715
H126	H	1.556791	0.147286	1.212715
C127	C	0.887295	-0.594070	0.930090
C128	C	1.387295	-0.094070	1.430090
N129	N	0.851400	-0.645180	0.900802
N130	N	1.351400	-0.145180	1.400802
C131	C	0.582215	-0.335374	0.417175
C132	C	1.082215	0.164626	0.917175
N133	N	0.552957	-0.284333	0.453109
N134	N	1.052957	0.215667	0.953109
C135	C	0.730649	-0.335352	0.417164
C136	C	1.230649	0.164648	0.917164
N137	N	0.759948	-0.284296	0.453089
N138	N	1.259948	0.215704	0.953089
H139	H	0.236537	-0.353029	0.404807
H140	H	0.736537	0.146971	0.904807
C141	C	0.226337	-0.594170	0.235068
C142	C	0.726337	-0.094170	0.735068
N143	N	0.197033	-0.645211	0.199137
N144	N	0.697033	-0.145211	0.699137
C145	C	0.374773	-0.594155	0.235057
C146	C	0.874773	-0.094155	0.735057
N147	N	0.404028	-0.645199	0.199122
N148	N	0.904028	-0.145199	0.699122
H149	H	0.592205	-0.576507	0.247436
H150	H	1.092205	-0.076507	0.747436
H151	H	1.056777	-0.352760	0.584481
H152	H	1.556777	0.147240	1.084481
C153	C	1.069191	-0.335014	0.930144
C154	C	1.569191	0.164986	1.430144
N155	N	1.105064	-0.283909	0.900876
N156	N	1.605064	0.216091	1.400876
C157	C	0.887321	-0.594024	1.078526
C158	C	1.387321	-0.094024	1.578526
N159	N	0.851440	-0.645114	1.107797
N160	N	1.351440	-0.145114	1.607797
