data_functionalizedCrystal
_audit_creation_method	'MofGen! by Chris Wilmer'
_symmetry_space_group_name_H-M	'P1'
_symmetry_Int_Tables_number	1
_symmetry_cell_setting	triclinic
loop_
_symmetry_equiv_pos_as_xyz
  x,y,z
_cell_length_a	6.817900
_cell_length_b	19.551900
_cell_length_c	14.858572
_cell_angle_alpha	95.601936
_cell_angle_beta	104.524003
_cell_angle_gamma	101.664829
loop_
_atom_site_label
_atom_site_type_symbol
_atom_site_fract_x
_atom_site_fract_y
_atom_site_fract_z
V1	V	-4.029324	-0.097116	-0.290399
O2	O	-4.026003	0.004214	-0.284421
O3	O	-3.971962	-0.192129	-0.288846
O4	O	-3.986084	-0.095820	-0.416855
O5	O	-4.011783	-0.092761	-0.155526
V6	V	-4.513445	-0.084972	-0.274215
O7	O	-4.289272	-0.123754	-0.325901
O8	O	-4.703695	-0.058334	-0.238713
O9	O	-4.347601	0.010041	-0.275768
O10	O	-4.634163	-0.186302	-0.280193
O11	O	-4.648383	-0.089327	-0.409088
O12	O	-4.333478	-0.086267	-0.147759
C13	C	-3.814616	-0.215285	-0.284376
C14	C	-3.849036	-0.292961	-0.283949
C15	C	-4.279344	-0.856319	-0.286414
C16	C	-4.247018	-0.783334	-0.286810
C17	C	-4.048454	-0.743166	-0.281477
C18	C	-3.882193	-0.775986	-0.275726
C19	C	-3.914519	-0.848969	-0.275321
C20	C	-3.883735	-0.631198	-0.332607
C21	C	-3.851420	-0.558218	-0.333018
C22	C	-3.948740	-0.518062	-0.282720
C23	C	-4.078418	-0.550899	-0.232026
C24	C	-4.110745	-0.623881	-0.231621
C25	C	-4.013381	-0.664028	-0.281915
C26	C	-4.079938	-0.406111	-0.288894
C27	C	-4.047601	-0.333124	-0.289283
C28	C	-3.682776	-0.325778	-0.278208
C29	C	-3.715113	-0.398763	-0.277810
C30	C	-3.913700	-0.438926	-0.283157
C31	C	-3.832629	-0.092433	-0.447664
C32	C	-3.878500	-0.092003	-0.551045
C33	C	-4.046387	-0.090430	-0.929606
C34	C	-3.999668	-0.090867	-0.824278
C35	C	-3.962445	-0.091217	-0.740329
C36	C	-3.915722	-0.091653	-0.634994
C37	C	-4.168289	0.033194	-0.280235
C38	C	-4.113106	0.110869	-0.280669
C39	C	-4.150275	-0.089657	-0.116946
C40	C	-4.083643	-0.090084	-0.013564
H41	H	-3.579743	-0.425479	-0.273135
H42	H	-3.720517	-0.743276	-0.271382
N43	N	-3.711581	-0.522805	-0.387701
H44	H	-3.654816	-0.559315	-0.419495
H45	H	-3.592230	-0.485828	-0.343283
N46	N	-3.778751	-0.674502	-0.386861
H47	H	-3.888102	-0.711800	-0.435727
H48	H	-3.686092	-0.698044	-0.342094
N49	N	-4.493556	-0.899641	-0.292239
H50	H	-4.488829	-0.950859	-0.291136
H51	H	-4.595210	-0.895317	-0.352665
H52	H	-4.157668	-0.518205	-0.191068
N53	N	-4.226920	-0.297734	-0.295491
H54	H	-4.193910	-0.260770	-0.237993
H55	H	-4.357538	-0.334303	-0.298853
H56	H	-3.779142	-0.875684	-0.270645
N57	N	-4.294009	-0.449406	-0.294429
H58	H	-4.289234	-0.500612	-0.293236
H59	H	-4.396096	-0.445162	-0.354768
N60	N	-4.426318	-0.747931	-0.293004
H61	H	-4.557024	-0.784448	-0.296328
H62	H	-4.448597	-0.724660	-0.351329
H63	H	-4.216327	-0.650613	-0.190342
N64	N	-3.468600	-0.282470	-0.272453
H65	H	-3.419290	-0.245177	-0.214461
H66	H	-3.474962	-0.258921	-0.330327
