data_functionalizedCrystal
_audit_creation_method	'MofGen! by Chris Wilmer'
_symmetry_space_group_name_H-M	'P1'
_symmetry_Int_Tables_number	1
_symmetry_cell_setting	triclinic
loop_
_symmetry_equiv_pos_as_xyz
  x,y,z
_cell_length_a	12.784905
_cell_length_b	12.837942
_cell_length_c	11.295483
_cell_angle_alpha	85.469583
_cell_angle_beta	86.329925
_cell_angle_gamma	96.031870
loop_
_atom_site_label
_atom_site_type_symbol
_atom_site_fract_x
_atom_site_fract_y
_atom_site_fract_z
O1	O	1.417356	0.001116	-0.098956
O2	O	1.112358	-0.042875	-0.098973
O3	O	1.258094	0.129413	-0.098958
O4	O	1.271621	-0.171172	-0.098972
O5	O	1.245291	0.114302	0.099092
O6	O	1.099556	-0.057986	0.099076
O7	O	1.404554	-0.013995	0.099093
Cu8	Cu	1.250886	-0.037370	0.117168
Cu9	Cu	1.266026	-0.019500	-0.117048
O10	O	1.258818	-0.186283	0.099078
C11	C	1.066647	-0.053291	0.000049
C12	C	0.949516	-0.061804	0.000043
C13	C	1.247123	0.160067	0.000066
C14	C	1.233496	0.273915	0.000063
C15	C	1.450265	-0.003578	0.000068
C16	C	1.567396	0.004935	0.000067
C17	C	1.269789	-0.216936	0.000051
C18	C	1.283417	-0.330784	0.000046
C19	C	1.781349	-0.168505	0.000032
C20	C	1.891405	-0.160511	0.000031
C21	C	1.897565	0.028917	0.000053
C22	C	1.787510	0.020923	0.000055
C23	C	1.729406	-0.077792	0.000046
C24	C	1.619348	-0.085785	0.000056
C25	C	1.625510	0.103642	0.000070
C26	C	1.735566	0.111636	0.000069
N27	N	1.240245	-0.049938	0.281903
C28	C	1.397328	0.529643	0.000048
C29	C	1.384529	0.636615	0.000045
C30	C	1.195099	0.594835	0.000047
C31	C	1.207898	0.487863	0.000049
C32	C	1.309016	0.455271	0.000052
C33	C	1.321814	0.348296	0.000063
C34	C	1.132385	0.306519	0.000056
C35	C	1.119586	0.413491	0.000053
N36	N	1.276675	-0.006923	-0.281783
C37	C	1.353271	0.083606	0.531205
C38	C	1.345238	0.074101	0.655868
C39	C	1.216139	-0.078446	0.655894
C40	C	1.224173	-0.068941	0.531231
C41	C	1.292742	0.012086	0.468891
C42	C	1.300780	0.021585	0.344226
C43	C	1.171677	-0.130957	0.344255
C44	C	1.163643	-0.140461	0.468917
H45	H	1.572040	-0.166164	0.000055
H46	H	1.782889	0.192006	0.000072
Br47	Br	1.555009	0.226760	0.000107
Br48	Br	1.057881	0.639091	0.000001
H49	H	1.037259	0.440044	0.000047
Br50	Br	1.446343	0.193556	0.446597
Br51	Br	1.012524	0.205578	0.000083
H52	H	1.394525	0.132341	0.706600
Br53	Br	1.702487	-0.302472	0.000048
Br54	Br	1.393843	0.131545	0.259623
Br55	Br	1.534552	0.485401	0.000087
H56	H	1.160304	-0.144410	0.706668
Br57	Br	1.459042	0.304063	0.000078
Br58	Br	1.089537	-0.228032	0.259675
H59	H	1.933693	-0.234380	0.000022
Br60	Br	1.070583	-0.250418	0.553529
H61	H	1.944893	0.109285	0.000051
Br62	Br	1.504387	0.737547	0.000031
