data_functionalizedCrystal
_audit_creation_method	'MofGen! by Chris Wilmer'
_symmetry_space_group_name_H-M	'P1'
_symmetry_Int_Tables_number	1
_symmetry_cell_setting	triclinic
loop_
_symmetry_equiv_pos_as_xyz
  x,y,z
_cell_length_a	10.489716
_cell_length_b	23.532357
_cell_length_c	9.565339
_cell_angle_alpha	89.994707
_cell_angle_beta	89.996780
_cell_angle_gamma	83.678714
loop_
_atom_site_label
_atom_site_type_symbol
_atom_site_fract_x
_atom_site_fract_y
_atom_site_fract_z
O1	O	1.691370	0.080275	-0.116268
O2	O	1.319916	0.087832	-0.116275
O3	O	1.516878	0.001194	-0.116242
O4	O	1.494409	0.166913	-0.116300
O5	O	1.516862	0.001199	0.116278
O6	O	1.319901	0.087837	0.116245
O7	O	1.691355	0.080281	0.116252
Zn8	Zn	1.505625	0.084060	0.153166
Zn9	Zn	1.505646	0.084053	-0.153189
O10	O	1.494393	0.166919	0.116220
C11	C	1.272395	0.087267	-0.000015
C12	C	1.130822	0.085568	-0.000017
C13	C	1.031360	0.138697	-0.000039
C14	C	0.954951	0.110625	0.114622
C15	C	0.954973	0.110607	-0.114624
C16	C	1.056277	0.057518	0.114739
C17	C	1.056305	0.057508	-0.114611
C18	C	0.979946	0.029397	0.000078
C19	C	1.516308	-0.020024	0.000022
C20	C	1.514618	-0.083254	0.000035
C21	C	1.504019	-0.475338	-0.126787
C22	C	1.502412	-0.534748	-0.126795
O23	O	1.501546	-0.565472	-0.234588
N24	N	1.501607	-0.564461	-0.000050
C25	C	1.502396	-0.534761	0.126711
O26	O	1.501562	-0.565490	0.234517
C27	C	1.503993	-0.475351	0.126717
C28	C	1.504811	-0.445642	-0.000036
C29	C	1.504835	-0.445628	-0.253530
C30	C	1.506444	-0.386222	-0.253522
C31	C	1.507236	-0.356526	-0.126770
C32	C	1.506419	-0.386236	-0.000027
C33	C	1.504772	-0.445652	0.253477
C34	C	1.506368	-0.386238	0.253473
C35	C	1.507186	-0.356528	0.126720
C36	C	1.508820	-0.297134	0.126733
N37	N	1.509625	-0.267421	-0.000012
C38	C	1.508833	-0.297117	-0.126764
C39	C	1.499040	-0.659525	0.126688
C40	C	1.497452	-0.718933	0.126682
C41	C	1.497466	-0.718916	-0.126824
C42	C	1.499063	-0.659507	-0.126818
C43	C	1.499845	-0.629811	-0.000057
C44	C	1.512212	-0.172360	-0.126736
C45	C	1.513826	-0.112949	-0.126716
C46	C	1.513805	-0.112972	0.126789
C47	C	1.512198	-0.172378	0.126771
C48	C	1.511397	-0.202070	-0.000004
O49	O	1.509682	-0.266372	0.234471
O50	O	1.509650	-0.266380	-0.234551
C51	C	1.738875	0.080846	-0.000010
C52	C	1.880449	0.082544	-0.000018
C53	C	1.494963	0.188136	-0.000048
C54	C	1.496653	0.251366	-0.000070
N55	N	1.505620	0.084064	0.362246
N56	N	1.505660	0.084044	-0.362268
C57	C	1.414505	0.124118	0.453434
C58	C	1.529616	0.135636	0.546610
C59	C	1.390560	0.072550	0.546625
C60	C	1.620789	0.095609	0.453370
C61	C	1.481657	0.032500	0.453377
C62	C	1.596851	0.043997	0.546511
H63	H	0.910707	0.133055	0.211541
H64	H	1.100341	0.035106	0.211771
H65	H	1.507105	-0.362037	-0.356737
H66	H	1.504186	-0.469800	-0.356752
H67	H	0.957072	-0.016851	0.000160
N68	N	1.507206	-0.354209	0.390196
H69	H	1.506446	-0.382049	0.470483
H70	H	1.586949	-0.333861	0.395733
N71	N	1.749727	0.108572	0.399351
H72	H	1.808141	0.114416	0.480807
H73	H	1.788888	0.075541	0.340457
N74	N	1.454726	-0.025233	0.399088
H75	H	1.374769	-0.020662	0.339499
H76	H	1.529757	-0.042336	0.341037
N77	N	1.499945	-0.627465	-0.263528
H78	H	1.499205	-0.655297	-0.343818
H79	H	1.421530	-0.598518	-0.269058
N80	N	1.261649	0.059655	0.600871
H81	H	1.272837	0.023608	0.658962
H82	H	1.222955	0.092574	0.660411
H83	H	1.337521	0.158021	0.412566
N84	N	1.556506	0.193380	0.600885
H85	H	1.642756	0.202381	0.565504
H86	H	1.487549	0.223583	0.567031
N87	N	1.699039	-0.000885	0.600319
H88	H	1.785879	0.007879	0.566213
H89	H	1.697890	-0.000852	0.705897
H90	H	1.054474	0.184911	0.000052
N91	N	1.114932	0.027815	-0.242990
H92	H	1.077887	0.047928	-0.329554
H93	H	1.210911	0.028875	-0.241434
N94	N	1.496611	-0.750951	-0.263540
H95	H	1.495471	-0.793094	-0.244301
H96	H	1.417816	-0.736267	-0.318892
N97	N	0.896305	0.140367	-0.242917
H98	H	0.965872	0.155374	-0.300767
H99	H	0.851828	0.112387	-0.300279
N100	N	1.514714	-0.080906	-0.263433
H101	H	1.513964	-0.108736	-0.343728
H102	H	1.436306	-0.051955	-0.268959
N103	N	1.511384	-0.204383	-0.263467
H104	H	1.512160	-0.176540	-0.343746
H105	H	1.589809	-0.233325	-0.268966
H106	H	1.496805	-0.743119	0.229898
N107	N	1.499897	-0.627498	0.263416
H108	H	1.499148	-0.655341	0.343698
H109	H	1.579640	-0.607149	0.268945
H110	H	1.504108	-0.469831	0.356694
H111	H	1.511543	-0.196569	0.229983
N112	N	1.514666	-0.080932	0.263487
H113	H	1.436255	-0.051984	0.269121
H114	H	1.513954	-0.108800	0.343714
