data_functionalizedCrystal
_audit_creation_method	'MofGen! by Chris Wilmer'
_symmetry_space_group_name_H-M	'P1'
_symmetry_Int_Tables_number	1
_symmetry_cell_setting	triclinic
loop_
_symmetry_equiv_pos_as_xyz
  x,y,z
_cell_length_a	17.699083
_cell_length_b	11.792241
_cell_length_c	16.176319
_cell_angle_alpha	89.993071
_cell_angle_beta	89.998611
_cell_angle_gamma	83.738215
loop_
_atom_site_label
_atom_site_type_symbol
_atom_site_fract_x
_atom_site_fract_y
_atom_site_fract_z
O1	O	1.004844	0.143527	-0.068631
O2	O	1.504844	0.643527	0.431369
O3	O	0.784565	0.162200	-0.068658
O4	O	1.284565	0.662200	0.431342
O5	O	0.900050	-0.012371	-0.068638
O6	O	1.400050	0.487629	0.431362
O7	O	0.889359	0.318098	-0.068651
O8	O	1.389359	0.818098	0.431349
O9	O	0.900034	-0.012382	0.068855
O10	O	1.400034	0.487618	0.568855
O11	O	0.784549	0.162189	0.068835
O12	O	1.284549	0.662189	0.568835
O13	O	1.004828	0.143516	0.068862
O14	O	1.504828	0.643516	0.568862
Cu15	Cu	0.894687	0.152851	0.081403
Cu16	Cu	1.394687	0.652851	0.581403
Cu17	Cu	0.894706	0.152865	-0.081199
Cu18	Cu	1.394706	0.652865	0.418801
O19	O	0.889343	0.318087	0.068842
O20	O	1.389343	0.818087	0.568842
C21	C	0.756356	0.161525	0.000085
C22	C	1.256356	0.661525	0.500085
C23	C	0.672328	0.159518	0.000075
C24	C	1.172328	0.659518	0.500075
C25	C	0.624253	0.261988	0.000071
C26	C	1.124253	0.761988	0.500071
C27	C	0.545299	0.260095	0.000082
C28	C	1.045299	0.760095	0.500082
C29	C	0.514422	0.155731	0.000091
C30	C	1.014422	0.655731	0.500091
C31	C	0.562503	0.053254	0.000097
C32	C	1.062503	0.553254	0.500097
C33	C	0.641455	0.055148	0.000092
C34	C	1.141455	0.555148	0.500092
C35	C	0.244099	0.045613	0.000118
C36	C	0.744099	0.545613	0.500118
C37	C	0.165141	0.043727	0.000120
C38	C	0.665141	0.543727	0.500120
C39	C	0.147944	0.250560	0.000108
C40	C	0.647944	0.750560	0.500108
C41	C	0.226896	0.252454	0.000103
C42	C	0.726896	0.752454	0.500103
C43	C	0.274970	0.149977	0.000113
C44	C	0.774970	0.649977	0.500113
C45	C	0.360580	0.152031	0.000103
C46	C	0.860580	0.652031	0.500103
C47	C	0.428814	0.153676	0.000095
C48	C	0.928814	0.653676	0.500095
C49	C	0.899370	-0.054660	0.000108
C50	C	1.399370	0.445340	0.500108
C51	C	0.897360	-0.180649	0.000107
C52	C	1.397360	0.319351	0.500107
C53	C	0.893664	-0.411317	0.000093
C54	C	1.393664	0.088683	0.500093
C55	C	0.895718	-0.282956	0.000101
C56	C	1.395718	0.217044	0.500101
C57	C	1.033036	0.144190	0.000117
C58	C	1.533036	0.644190	0.500117
C59	C	1.117065	0.146198	0.000122
C60	C	1.617065	0.646198	0.500122
C61	C	0.890022	0.360375	0.000094
C62	C	1.390022	0.860375	0.500094
C63	C	0.892032	0.486365	0.000090
C64	C	1.392032	0.986365	0.500090
N65	N	0.894679	0.152841	0.195768
N66	N	1.394679	0.652841	0.695768
N67	N	0.894720	0.152865	-0.195564
N68	N	1.394720	0.652865	0.304436
C69	C	0.945831	0.075573	0.239041
C70	C	1.445831	0.575573	0.739041
C71	C	0.945835	0.075572	0.325588
C72	C	1.445835	0.575572	0.825588
C73	C	0.894690	0.152845	0.368861
C74	C	1.394690	0.652845	0.868861
C75	C	0.843532	0.230118	0.325582
C76	C	1.343532	0.730118	0.825582
C77	C	0.843525	0.230113	0.239036
C78	C	1.343525	0.730113	0.739036
C79	C	0.843558	0.230139	0.674610
C80	C	1.343558	0.730139	1.174610
C81	C	0.843570	0.230140	0.761161
C82	C	1.343570	0.730140	1.261161
C83	C	0.945868	0.075598	0.761162
C84	C	1.445868	0.575598	1.261162
C85	C	0.945861	0.075593	0.674617
C86	C	1.445861	0.575593	1.174617
C87	C	0.894701	0.152861	0.631345
C88	C	1.394701	0.652861	1.131345
C89	C	0.894697	0.152860	0.537501
C90	C	1.394697	0.652860	1.037501
C91	C	0.894697	0.152853	0.462703
C92	C	1.394697	0.652853	0.962703
H93	H	0.252031	0.337438	0.000092
H94	H	0.752031	0.837438	0.500092
O95	O	1.000985	-0.007782	0.192363
O96	O	1.500985	0.492218	0.692363
H97	H	1.060048	0.006549	0.208961
H98	H	1.560048	0.506549	0.708961
O99	O	1.001020	-0.007747	0.372265
O100	O	1.501020	0.492253	0.872265
H101	H	1.036594	-0.061464	0.327635
H102	H	1.536594	0.438536	0.827635
O103	O	0.131840	-0.068846	0.000137
O104	O	0.631840	0.431154	0.500137
H105	H	0.068864	-0.052942	0.000129
H106	H	0.568864	0.447058	0.500129
H107	H	0.801871	0.293031	0.203804
H108	H	1.301871	0.793031	0.703804
H109	H	0.801884	0.293032	0.360819
H110	H	1.301884	0.793032	0.860819
H111	H	0.283232	-0.037830	0.000127
H112	H	0.783232	0.462170	0.500127
O113	O	0.493444	0.370614	0.000078
O114	O	0.993444	0.870614	0.500078
H115	H	0.528179	0.443502	0.000062
H116	H	1.028179	0.943502	0.500062
H117	H	0.680598	-0.028294	0.000095
H118	H	1.180598	0.471706	0.500095
O119	O	0.096089	0.361092	0.000115
O120	O	0.596089	0.861092	0.500115
H121	H	0.059696	0.365181	-0.055916
H122	H	0.559696	0.865181	0.444084
O123	O	0.657555	0.374552	0.000070
O124	O	1.157555	0.874552	0.500070
H125	H	0.610858	0.445487	0.000080
H126	H	1.110858	0.945487	0.500080
O127	O	0.529206	-0.059315	0.000109
O128	O	1.029206	0.440685	0.500109
H129	H	0.466229	-0.043419	0.000104
H130	H	0.966229	0.456581	0.500104
H131	H	0.987523	0.012679	0.796403
H132	H	1.487523	0.512679	1.296403
O133	O	1.001020	-0.007757	0.627942
O134	O	1.501020	0.492243	1.127942
H135	H	1.036586	-0.061498	0.672573
H136	H	1.536586	0.438502	1.172573
O137	O	0.788416	0.313506	0.807839
O138	O	1.288416	0.813506	1.307839
H139	H	0.752839	0.367236	0.763211
H140	H	1.252839	0.867236	1.263211
O141	O	0.788388	0.313483	0.627942
O142	O	1.288388	0.813483	1.127942
H143	H	0.752833	0.367225	0.672575
H144	H	1.252833	0.867225	1.172575
