data_functionalizedCrystal
_audit_creation_method	'MofGen! by Chris Wilmer'
_symmetry_space_group_name_H-M	'P1'
_symmetry_Int_Tables_number	1
_symmetry_cell_setting	triclinic
loop_
_symmetry_equiv_pos_as_xyz
  x,y,z
_cell_length_a	16.959455
_cell_length_b	25.639240
_cell_length_c	16.959447
_cell_angle_alpha	89.964856
_cell_angle_beta	90.020374
_cell_angle_gamma	89.959818
loop_
_atom_site_label
_atom_site_type_symbol
_atom_site_fract_x
_atom_site_fract_y
_atom_site_fract_z
Zn1	Zn	1.208257	0.208182	0.447010
Zn2	Zn	1.208126	0.295623	0.314820
Zn3	Zn	1.076085	0.208199	0.314833
Zn4	Zn	1.075997	0.295584	0.446945
O5	O	1.142116	0.251897	0.380902
O6	O	1.318851	0.219791	0.429496
O7	O	1.190593	0.284049	0.204211
O8	O	1.093710	0.135031	0.332400
O9	O	1.318754	0.284033	0.332377
O10	O	1.190816	0.135019	0.429509
O11	O	1.093583	0.219819	0.204221
O12	O	0.965463	0.219781	0.332336
O13	O	1.093559	0.283966	0.557564
O14	O	0.965398	0.283982	0.429398
O15	O	1.190730	0.219753	0.557612
O16	O	1.190507	0.368783	0.332314
O17	O	1.093432	0.368754	0.429385
C18	C	0.936750	0.251880	0.380862
C19	C	0.848894	0.251885	0.380864
C20	C	0.477357	0.285315	0.330306
C21	C	0.477479	0.218522	0.431594
C22	C	0.560024	0.218514	0.431575
C23	C	0.601241	0.251907	0.380921
C24	C	0.559911	0.285308	0.330287
C25	C	0.601360	0.185117	0.482214
C26	C	0.683911	0.185107	0.482197
C27	C	0.725129	0.218498	0.431539
C28	C	0.683794	0.251900	0.380902
C29	C	0.725010	0.285293	0.330249
C30	C	0.683677	0.318693	0.279607
C31	C	0.601128	0.318699	0.279629
C32	C	0.807677	0.218492	0.431517
C33	C	0.807564	0.285286	0.330230
C34	C	1.141967	0.387739	0.380858
C35	C	1.141976	0.445853	0.380866
C36	C	1.192730	0.806219	0.330413
C37	C	1.192754	0.860823	0.330420
O38	O	1.235801	0.889062	0.287499
N39	N	1.142180	0.888136	0.380920
C40	C	1.091585	0.860841	0.431420
O41	O	1.048570	0.889087	0.474375
C42	C	1.091565	0.806238	0.431416
C43	C	1.142136	0.778928	0.380908
C44	C	1.243298	0.778909	0.279909
C45	C	1.243272	0.724308	0.279901
C46	C	1.192679	0.697018	0.330396
C47	C	1.142111	0.724328	0.380899
C48	C	1.040974	0.778945	0.481920
C49	C	1.040959	0.724338	0.481912
C50	C	1.091531	0.697028	0.431404
C51	C	1.091492	0.642437	0.431386
N52	N	1.142066	0.615124	0.380887
C53	C	1.192659	0.642414	0.330392
C54	C	1.091631	0.975512	0.431426
C55	C	1.091646	1.030114	0.431427
C56	C	1.192816	1.030092	0.330428
C57	C	1.192797	0.975489	0.330424
C58	C	1.142204	0.948199	0.380927
C59	C	1.192602	0.527749	0.330377
C60	C	1.192569	0.473144	0.330371
C61	C	1.091402	0.473171	0.431373
C62	C	1.091431	0.527771	0.431376
C63	C	1.142037	0.555059	0.380876
O64	O	1.048469	0.614163	0.474288
O65	O	1.235673	0.614162	0.287452
C66	C	1.348285	0.251914	0.380942
C67	C	1.436141	0.251922	0.380960
C68	C	1.142149	0.251853	0.587070
C69	C	1.142163	0.251835	0.674927
C70	C	1.142258	1.115524	0.380949
C71	C	1.142242	1.057410	0.380934
C72	C	1.142129	0.251902	0.175536
C73	C	1.142268	0.251773	0.087680
C74	C	1.091665	0.285213	1.046380
C75	C	1.192850	0.218347	1.046425
C76	C	1.192829	0.218358	0.963879
C77	C	1.142226	0.251798	0.922580
C78	C	1.091644	0.285226	0.963827
C79	C	1.243416	0.184934	0.922626
C80	C	1.243398	0.184944	0.840075
C81	C	1.192790	0.218381	0.798775
C82	C	1.142205	0.251811	0.840026
C83	C	1.091602	0.285250	0.798727
C84	C	1.041013	0.318678	0.839978
C85	C	1.041037	0.318664	0.922526
C86	C	1.192766	0.218395	0.716226
C87	C	1.091581	0.285264	0.716174
H88	H	1.233750	0.450910	0.289238
H89	H	0.443915	0.191338	0.472838
O90	O	1.036874	0.557225	0.485846
H91	H	0.996689	0.582142	0.450431
H92	H	1.284619	0.157712	0.956258
H93	H	1.233976	0.953256	0.289296
H94	H	0.717246	0.345884	0.238369
H95	H	1.284454	0.702076	0.238775
H96	H	1.284590	0.157725	0.806496
H97	H	1.233957	0.191181	0.682644
H98	H	1.050458	1.052346	0.472548
H99	H	1.234053	0.191125	1.080056
H100	H	0.567467	0.345891	0.238399
O101	O	1.036984	0.321319	0.671629
H102	H	1.001811	0.344557	0.714183
H103	H	0.567796	0.157933	0.523458
O104	O	1.247402	1.059531	0.275976
H105	H	1.238925	1.102088	0.284479
H106	H	0.841116	0.312478	0.288978
H107	H	0.999816	0.345907	0.806341
O108	O	0.432785	0.321338	0.275685
H109	H	0.368459	0.315736	0.284206
H110	H	0.717558	0.157910	0.523432
O111	O	0.852261	0.182471	0.486126
H112	H	0.809733	0.159251	0.521350
H113	H	0.999852	0.345880	0.956119
O114	O	1.247175	0.557178	0.275905
H115	H	1.282323	0.529007	0.240783
H116	H	1.050426	0.953295	0.472550
O117	O	1.297868	0.808343	0.225444
H118	H	1.284339	0.797898	0.163396
O119	O	0.986434	0.808393	0.536402
H120	H	0.951264	0.780234	0.571516
H121	H	0.999762	0.702121	0.523040
O122	O	1.036838	0.443732	0.485838
H123	H	1.045329	0.401175	0.477350
H124	H	1.050475	0.312427	1.079970
