data_functionalizedCrystal
_audit_creation_method	'MofGen! by Chris Wilmer'
_symmetry_space_group_name_H-M	'P1'
_symmetry_Int_Tables_number	1
_symmetry_cell_setting	triclinic
loop_
_symmetry_equiv_pos_as_xyz
  x,y,z
_cell_length_a	29.999520
_cell_length_b	29.998686
_cell_length_c	29.995014
_cell_angle_alpha	60.005185
_cell_angle_beta	60.010401
_cell_angle_gamma	59.993433
loop_
_atom_site_label
_atom_site_type_symbol
_atom_site_fract_x
_atom_site_fract_y
_atom_site_fract_z
O1	O	0.061772	-0.651300	0.544623
O2	O	0.023267	-0.507084	0.438819
O3	O	0.114589	-0.598332	0.438743
O4	O	-0.029550	-0.560051	0.544699
O5	O	0.144886	-0.568039	0.468961
O6	O	0.053564	-0.476791	0.469038
O7	O	0.092069	-0.621007	0.574841
Zn8	Zn	0.077627	-0.544089	0.526737
Zn9	Zn	0.037709	-0.584002	0.486923
O10	O	0.000748	-0.529758	0.574918
N11	N	0.104871	-0.516854	0.553912
N12	N	0.010470	-0.611242	0.459748
C13	C	0.143162	-0.478782	0.827124
C14	C	0.378203	-0.478734	0.591892
C15	C	0.143005	-0.478752	0.591997
C16	C	0.142986	-0.243586	0.592008
C17	C	0.180857	-0.357087	0.629814
C18	C	0.180866	-0.440920	0.629807
C19	C	0.201840	-0.419964	0.650755
C20	C	0.293272	-0.404201	0.602606
C21	C	0.350426	-0.423248	0.583534
C22	C	0.350451	-0.515727	0.618798
C23	C	0.293297	-0.496678	0.637872
C24	C	0.194628	-0.328499	0.573626
C25	C	0.175551	-0.271340	0.554591
C26	C	0.128936	-0.271362	0.647935
C27	C	0.148014	-0.328521	0.666970
C28	C	0.124672	-0.427119	0.643641
C29	C	0.105611	-0.446170	0.624592
C30	C	0.198934	-0.492820	0.577889
C31	C	0.217998	-0.473770	0.596931
C32	C	0.124740	-0.427136	0.742229
C33	C	0.105728	-0.446202	0.799386
C34	C	0.199085	-0.492863	0.799337
C35	C	0.218096	-0.473798	0.742178
C36	C	0.180923	-0.440933	0.713626
C37	C	0.264710	-0.440915	0.629773
C38	C	0.121509	-0.499370	0.889991
C39	C	0.441068	-0.498953	0.570621
C40	C	0.121297	-0.499349	0.571429
C41	C	0.121653	-0.180715	0.571802
C42	C	-0.111071	-0.648912	0.421584
C43	C	-0.027286	-0.649018	0.421777
C44	C	-0.048200	-0.669944	0.400740
C45	C	-0.064036	-0.761340	0.448814
C46	C	-0.045033	-0.818500	0.467893
C47	C	0.047447	-0.818609	0.432797
C48	C	0.028444	-0.761451	0.413717
C49	C	-0.139731	-0.662677	0.477755
C50	C	-0.196885	-0.643554	0.496701
C51	C	-0.196717	-0.596907	0.403303
C52	C	-0.139562	-0.616030	0.384357
C53	C	-0.041053	-0.592827	0.407952
C54	C	-0.022041	-0.573809	0.427083
C55	C	0.024504	-0.667167	0.473848
C56	C	0.005492	-0.686188	0.454725
C57	C	-0.040886	-0.592836	0.309259
C58	C	-0.021740	-0.573821	0.252102
C59	C	0.024886	-0.667185	0.252163
C60	C	0.005743	-0.686199	0.309322
C61	C	-0.027145	-0.649023	0.337868
C62	C	-0.027299	-0.732818	0.421728
N63	N	0.492511	-0.516826	0.553742
O64	O	0.679283	-0.525926	0.419277
O65	O	0.679465	-0.632059	0.563349
O66	O	0.679393	-0.631817	0.471975
O67	O	0.679355	-0.526168	0.510650
O68	O	0.588593	-0.601610	0.502313
O69	O	0.588665	-0.601852	0.593686
O70	O	0.588483	-0.495720	0.449614
Zn71	Zn	0.574158	-0.543990	0.526467
Zn72	Zn	0.693790	-0.583788	0.486496
O73	O	0.588555	-0.495962	0.540987
N74	N	0.775436	-0.610952	0.459215
N75	N	0.104844	-0.129269	0.553931
O76	O	-0.029548	0.057600	0.544709
O77	O	0.114530	0.057617	0.438578
O78	O	0.023130	0.057594	0.438850
O79	O	0.061852	0.057623	0.544437
O80	O	0.053431	-0.033213	0.469115
O81	O	0.144831	-0.033190	0.468843
O82	O	0.000753	-0.033207	0.574974
Zn83	Zn	0.077603	-0.047616	0.526714
Zn84	Zn	0.037680	0.072026	0.486838
O85	O	0.092153	-0.033184	0.574702
N86	N	0.010432	0.153679	0.459622
N87	N	0.105130	-0.516904	0.941437
O88	O	0.095923	-0.651280	1.128292
O89	O	-0.010184	-0.507155	1.128318
O90	O	-0.009938	-0.598539	1.128284
O91	O	0.095677	-0.559897	1.128326
O92	O	0.020315	-0.568257	1.037481
O93	O	0.020068	-0.476874	1.037515
O94	O	0.126176	-0.620999	1.037489
Zn95	Zn	0.077925	-0.544128	1.023085
Zn96	Zn	0.038066	-0.584026	1.142722
O97	O	0.125929	-0.529616	1.037523
N98	N	0.010860	-0.611256	1.224371
C99	C	0.034807	-0.473765	0.439352
C100	C	0.147897	-0.586765	0.439257
C101	C	0.080529	-0.654326	0.574308
C102	C	-0.032561	-0.541326	0.574403
C103	C	0.634087	-0.631571	0.596668
C104	C	0.633999	-0.631272	0.483513
C105	C	0.633858	-0.496206	0.416295
C106	C	0.633949	-0.496507	0.529449
C107	C	0.147793	0.012327	0.439058
C108	C	0.034644	0.012187	0.439432
C109	C	-0.032548	0.012195	0.574457
C110	C	0.080639	0.012222	0.574120
C111	C	-0.009670	-0.473857	1.082920
C112	C	-0.009359	-0.587018	1.082860
C113	C	0.125662	-0.654297	1.082887
C114	C	0.125358	-0.541129	1.082927
H115	H	0.059977	-0.434960	0.822668
C116	C	-0.088445	0.012191	0.619472
C117	C	-0.092130	-0.034960	0.674394
C118	C	-0.148026	-0.034964	0.719409
C119	C	-0.200238	0.012182	0.709501
C120	C	-0.196555	0.059337	0.654575
C121	C	-0.140658	0.059341	0.609561
H122	H	-0.053478	-0.069863	0.681731
H123	H	-0.150753	-0.069871	0.760068
H124	H	-0.241616	0.012179	0.742823
H125	H	-0.235207	0.094240	0.647238
H126	H	-0.137932	0.094248	0.568901
C127	C	-0.108387	-0.698846	0.518701
C128	C	-0.069107	-0.679921	0.518534
C129	C	-0.037764	-0.716091	0.559482
C130	C	-0.045701	-0.771186	0.600597
C131	C	-0.084983	-0.790114	0.600765
C132	C	-0.116326	-0.753944	0.559817
H133	H	-0.063230	-0.639133	0.488098
H134	H	-0.008684	-0.702079	0.559358
H135	H	-0.022499	-0.797961	0.630909
H136	H	-0.090860	-0.830902	0.631201
H137	H	-0.145406	-0.767956	0.559941
C138	C	-0.228417	-0.658689	0.558493
C139	C	-0.220623	-0.642070	0.594435
C140	C	-0.252155	-0.657203	0.656225
C141	C	-0.291482	-0.688955	0.682074
C142	C	-0.299278	-0.705575	0.646131
C143	C	-0.267745	-0.690442	0.584341
H144	H	-0.191510	-0.618565	0.575301
H145	H	-0.246384	-0.644900	0.682832
H146	H	-0.314824	-0.700157	0.727815
H147	H	-0.328391	-0.729080	0.665266
H148	H	-0.273516	-0.702745	0.557734
C149	C	0.091636	-0.710291	0.619203
C150	C	0.087715	-0.714089	0.674110
C151	C	0.098821	-0.770054	0.719005
C152	C	0.113849	-0.822220	0.708992
C153	C	0.117770	-0.818424	0.654082
C154	C	0.106664	-0.762459	0.609187
H155	H	0.076590	-0.675470	0.681525
H156	H	0.095918	-0.772864	0.759653
H157	H	0.122070	-0.863649	0.742226
H158	H	0.128895	-0.857042	0.646668
H159	H	0.109567	-0.759649	0.568539
H160	H	0.633941	-0.463320	0.537725
H161	H	0.189295	-0.594927	0.405983
H162	H	-0.042525	-0.595273	1.082811
C163	C	0.170186	-0.529965	1.082935
C164	C	0.160099	-0.514899	1.130096
C165	C	0.204927	-0.503735	1.130104
C166	C	0.259842	-0.507636	1.082951
C167	C	0.269930	-0.522702	1.035787
C168	C	0.225102	-0.533867	1.035779
H169	H	0.119446	-0.512010	1.165004
H170	H	0.197459	-0.492581	1.165018
H171	H	0.293026	-0.499371	1.082957
H172	H	0.310583	-0.525591	1.000879
H173	H	0.232571	-0.545020	1.000865
H174	H	-0.073962	-0.533167	0.607674
C175	C	0.634154	-0.676586	0.652566
C176	C	0.634179	-0.665675	0.697558
C177	C	0.634247	-0.710690	0.753456
C178	C	0.634289	-0.766617	0.764361
C179	C	0.634263	-0.777531	0.719367
C180	C	0.634196	-0.732516	0.663470
H181	H	0.634148	-0.624272	0.689487
H182	H	0.634265	-0.702610	0.786763
H183	H	0.634338	-0.799940	0.805740
H184	H	0.634294	-0.818934	0.727439
H185	H	0.634177	-0.740595	0.630162
C186	C	0.091835	0.012229	0.618937
C187	C	0.147832	0.012240	0.607746
C188	C	0.159028	0.012247	0.652562
C189	C	0.114227	0.012244	0.708570
C190	C	0.058226	0.012234	0.719763
C191	C	0.047030	0.012227	0.674947
H192	H	0.181000	0.012242	0.566284
H193	H	0.200484	0.012255	0.644276
H194	H	0.122515	0.012250	0.741745
H195	H	0.025058	0.012232	0.761225
H196	H	0.005575	0.012219	0.683233
H197	H	0.634015	-0.664461	0.475235
H198	H	0.189085	0.012584	0.405656
H199	H	0.026351	0.012184	0.406260
C200	C	0.170669	-0.710215	1.082878
C201	C	0.159764	-0.755207	1.082858
C202	C	0.204770	-0.811124	1.082849
C203	C	0.260682	-0.822049	1.082859
C204	C	0.271589	-0.777056	1.082879
C205	C	0.226583	-0.721138	1.082888
H206	H	0.118373	-0.747121	1.082851
H207	H	0.196695	-0.844432	1.082834
H208	H	0.293998	-0.863443	1.082852
H209	H	0.312980	-0.785142	1.082886
H210	H	0.234657	-0.687831	1.082903
C211	C	0.633782	-0.451188	0.360401
C212	C	0.633752	-0.462098	0.315410
C213	C	0.633676	-0.417080	0.259515
C214	C	0.633630	-0.361152	0.248611
C215	C	0.633660	-0.350239	0.293604
C216	C	0.633736	-0.395257	0.349498
H217	H	0.633787	-0.503502	0.323480
H218	H	0.633654	-0.425159	0.226209
H219	H	0.633574	-0.327826	0.207235
H220	H	0.633625	-0.308835	0.285533
H221	H	0.633758	-0.387179	0.382805
C222	C	-0.054677	-0.417940	1.082930
C223	C	-0.044767	-0.365739	1.035791
C224	C	-0.089774	-0.309822	1.035801
C225	C	-0.144690	-0.306105	1.082950
C226	C	-0.154602	-0.358307	1.130092
C227	C	-0.109596	-0.414225	1.130082
H228	H	-0.004113	-0.368489	1.000885
H229	H	-0.082436	-0.271179	1.000903
H230	H	-0.178007	-0.264712	1.082957
H231	H	-0.195257	-0.355558	1.164998
H232	H	-0.116934	-0.452868	1.164980
H233	H	0.094465	-0.400370	0.718985
H234	H	0.229358	-0.519614	0.822579
H235	H	0.263847	-0.485039	0.718893
H236	H	0.094434	-0.400372	0.670409
H237	H	0.059853	-0.434921	0.635844
H238	H	0.102202	-0.248101	0.678192
H239	H	0.229173	-0.519573	0.551126
H240	H	-0.109425	-0.738032	0.455342
H241	H	0.263756	-0.485001	0.585661
H242	H	0.373728	-0.561133	0.625383
C243	C	0.261876	-0.537065	0.667755
C244	C	0.222616	-0.542725	0.726871
C245	C	0.191195	-0.583112	0.756756
C246	C	0.199034	-0.617839	0.727525
C247	C	0.238296	-0.612180	0.668406
C248	C	0.269717	-0.571793	0.638521
H249	H	0.216812	-0.517017	0.748512
H250	H	0.162131	-0.587301	0.800520
H251	H	0.175775	-0.647735	0.749648
H252	H	0.244100	-0.637888	0.646765
H253	H	0.298781	-0.567604	0.594757
C254	C	0.381845	-0.382861	0.553645
C255	C	0.374002	-0.348126	0.582869
C256	C	0.405421	-0.307736	0.552979
C257	C	0.444683	-0.302083	0.493865
C258	C	0.452528	-0.336820	0.464638
C259	C	0.421109	-0.377209	0.494528
H260	H	0.344936	-0.352310	0.626632
H261	H	0.399613	-0.282022	0.574615
H262	H	0.467942	-0.272185	0.471738
H263	H	0.481594	-0.332636	0.420875
H264	H	0.426917	-0.402923	0.472892
C265	C	0.261828	-0.342861	0.593699
C266	C	0.222559	-0.323082	0.643114
C267	C	0.191115	-0.261741	0.634206
C268	C	0.198939	-0.220178	0.575884
C269	C	0.238209	-0.239956	0.526465
C270	C	0.269654	-0.301297	0.535373
H271	H	0.216766	-0.353850	0.686291
H272	H	0.162044	-0.247100	0.670790
H273	H	0.175661	-0.174770	0.569290
H274	H	0.244002	-0.209188	0.483288
H275	H	0.298724	-0.315938	0.498789
C276	C	0.230752	-0.359926	0.532757
C277	C	0.288782	-0.399213	0.532986
C278	C	0.324906	-0.430640	0.492116
C279	C	0.303000	-0.422779	0.451018
C280	C	0.244968	-0.383491	0.450787
C281	C	0.208844	-0.352064	0.491657
H282	H	0.305000	-0.405033	0.563411
H283	H	0.367866	-0.459724	0.492287
H284	H	0.329742	-0.446043	0.420764
H285	H	0.228749	-0.377671	0.420362
H286	H	0.165884	-0.322980	0.491486
C287	C	0.190697	-0.239888	0.492780
C288	C	0.251052	-0.247732	0.456878
C289	C	0.266200	-0.216280	0.395069
C290	C	0.220993	-0.176984	0.369161
C291	C	0.160634	-0.169138	0.405063
C292	C	0.145486	-0.200590	0.466873
H293	H	0.284520	-0.276823	0.476057
H294	H	0.310882	-0.222089	0.368492
H295	H	0.232206	-0.153702	0.323405
H296	H	0.127165	-0.140047	0.385885
H297	H	0.100804	-0.194782	0.493450
C298	C	0.132868	-0.359973	0.728781
C299	C	0.178075	-0.399268	0.754688
C300	C	0.162928	-0.430720	0.816498
C301	C	0.102574	-0.422876	0.852400
C302	C	0.057362	-0.383579	0.826494
C303	C	0.072509	-0.352127	0.764684
H304	H	0.222757	-0.405077	0.728111
H305	H	0.196397	-0.459811	0.835676
H306	H	0.091361	-0.446158	0.898156
H307	H	0.012680	-0.377770	0.853071
H308	H	0.039041	-0.323036	0.745506
H309	H	0.092838	-0.841923	0.426277
H310	H	-0.032937	-0.528066	0.228816
H311	H	-0.067667	-0.562559	0.332499
H312	H	0.051655	-0.697459	0.228927
H313	H	-0.033252	-0.528055	0.415829
C314	C	0.020859	-0.748009	0.340790
C315	C	-0.024366	-0.773874	0.380004
C316	C	-0.009249	-0.835683	0.411470
C317	C	0.051094	-0.871628	0.403723
C318	C	0.096324	-0.845764	0.364507
C319	C	0.081207	-0.783954	0.333041
H320	H	-0.069040	-0.747265	0.385741
H321	H	-0.042732	-0.854829	0.440501
H322	H	0.062285	-0.917383	0.427016
H323	H	0.140997	-0.872373	0.358770
H324	H	0.114689	-0.764808	0.304010
C325	C	-0.077111	-0.551938	0.371714
C326	C	-0.055154	-0.510859	0.316610
C327	C	-0.091212	-0.469968	0.280369
C328	C	-0.149227	-0.470155	0.299232
C329	C	-0.171187	-0.511235	0.354340
C330	C	-0.135129	-0.552127	0.390581
H331	H	-0.012205	-0.510719	0.302643
H332	H	-0.074955	-0.439557	0.239575
H333	H	-0.175919	-0.439885	0.272405
H334	H	-0.214136	-0.511375	0.368306
H335	H	-0.151386	-0.582537	0.431375
H336	H	0.026581	-0.432337	0.406123
H337	H	0.016700	-0.731943	0.465981
C338	C	0.068856	-0.730075	0.383923
C339	C	0.103518	-0.737969	0.413255
C340	C	0.143931	-0.706593	0.383460
C341	C	0.149682	-0.667323	0.324332
C342	C	0.115020	-0.659428	0.294997
C343	C	0.074607	-0.690804	0.324792
H344	H	0.099261	-0.767040	0.457028
H345	H	0.169590	-0.712438	0.405177
H346	H	0.179598	-0.644097	0.302276
H347	H	0.119277	-0.630357	0.251224
H348	H	0.048948	-0.684959	0.303075
C349	C	-0.085439	-0.849884	0.497707
C350	C	-0.079003	-0.889184	0.474484
C351	C	-0.119407	-0.920574	0.504307
C352	C	-0.166247	-0.912664	0.557353
C353	C	-0.172686	-0.873362	0.580579
C354	C	-0.132281	-0.841972	0.550756
H355	H	-0.044327	-0.895041	0.435214
H356	H	-0.114641	-0.949668	0.487113
H357	H	-0.196157	-0.935901	0.579429
H358	H	-0.207362	-0.867505	0.619849
H359	H	-0.137048	-0.812878	0.567949
C360	C	-0.228066	-0.560743	0.362359
C361	C	-0.267348	-0.579674	0.362536
C362	C	-0.298697	-0.543509	0.321594
C363	C	-0.290765	-0.488412	0.280475
C364	C	-0.251482	-0.469479	0.280297
C365	C	-0.220132	-0.505644	0.321239
H366	H	-0.273221	-0.620462	0.392976
H367	H	-0.327778	-0.557525	0.321726
H368	H	-0.313972	-0.461641	0.250167
H369	H	-0.245608	-0.428690	0.249857
H370	H	-0.191051	-0.491628	0.321107
H371	H	-0.116227	-0.604815	0.338615
H372	H	0.051198	-0.697438	0.500669
