data_functionalizedCrystal
_audit_creation_method	'MofGen! by Chris Wilmer'
_symmetry_space_group_name_H-M	'P1'
_symmetry_Int_Tables_number	1
_symmetry_cell_setting	triclinic
loop_
_symmetry_equiv_pos_as_xyz
  x,y,z
_cell_length_a	10.686220
_cell_length_b	18.050589
_cell_length_c	10.686551
_cell_angle_alpha	85.596139
_cell_angle_beta	90.308082
_cell_angle_gamma	94.409750
loop_
_atom_site_label
_atom_site_type_symbol
_atom_site_fract_x
_atom_site_fract_y
_atom_site_fract_z
Zn1	Zn	1.972217	-0.181059	-0.562396
Zn2	Zn	1.955936	-0.315479	-0.352644
Zn3	Zn	1.746328	-0.200057	-0.368714
Zn4	Zn	1.762366	-0.313974	-0.578422
O5	O	1.859212	-0.252642	-0.465544
O6	O	2.145602	-0.191569	-0.521139
O7	O	1.914605	-0.308749	-0.179231
O8	O	1.776395	-0.093607	-0.394425
O9	O	2.133640	-0.290327	-0.367036
O10	O	1.942354	-0.079649	-0.536722
O11	O	1.760607	-0.223949	-0.191038
O12	O	1.572911	-0.222489	-0.409965
O13	O	1.803729	-0.287762	-0.751841
O14	O	1.584694	-0.306184	-0.564036
O15	O	1.957906	-0.190110	-0.740067
O16	O	1.930156	-0.419209	-0.382576
O17	O	1.787942	-0.418104	-0.548454
C18	C	1.533286	-0.266235	-0.490484
C19	C	1.393856	-0.272067	-0.501183
C20	C	1.859059	-0.445602	-0.465535
C21	C	1.859111	-0.528144	-0.465564
C22	C	1.781855	-0.727018	-0.555733
C23	C	1.742482	-0.783311	-0.443604
C24	C	1.859236	-0.679268	-0.465571
C25	C	1.898671	-0.770054	-0.577708
C26	C	1.859354	-0.825247	-0.465588
C27	C	1.819798	-0.734480	-0.353387
C28	C	1.976046	-0.721212	-0.487563
C29	C	1.936711	-0.777484	-0.375352
C30	C	1.859164	-0.595174	-0.465563
C31	C	1.859425	-0.909341	-0.465583
C32	C	2.186411	-0.238997	-0.440508
C33	C	2.325843	-0.233182	-0.429838
C34	C	1.884423	-0.236649	-0.792743
C35	C	1.895166	-0.229833	-0.932176
C36	C	1.859402	-0.058926	-0.465578
C37	C	1.859483	0.023624	-0.465593
C38	C	1.834171	-0.268517	-0.139612
C39	C	1.823671	-0.275113	-0.000161
H40	H	1.374283	-0.195430	-0.360571
H41	H	1.716305	-0.704886	-0.631887
H42	H	2.074755	-0.694126	-0.506203
Cl43	Cl	1.950092	-0.794536	-0.724108
Cl44	Cl	1.319067	-0.330366	-0.608122
Cl45	Cl	1.590047	-0.825105	-0.414879
H46	H	1.786378	-0.718720	-0.258543
H47	H	1.754245	-0.319095	-0.951696
H48	H	2.002194	-0.799490	-0.299031
H49	H	1.964605	-0.185853	-0.980647
