data_functionalizedCrystal
_audit_creation_method	'MofGen! by Chris Wilmer'
_symmetry_space_group_name_H-M	'P1'
_symmetry_Int_Tables_number	1
_symmetry_cell_setting	triclinic
loop_
_symmetry_equiv_pos_as_xyz
  x,y,z
_cell_length_a	16.974829
_cell_length_b	16.992695
_cell_length_c	14.048226
_cell_angle_alpha	89.993436
_cell_angle_beta	86.338224
_cell_angle_gamma	87.025716
loop_
_atom_site_label
_atom_site_type_symbol
_atom_site_fract_x
_atom_site_fract_y
_atom_site_fract_z
O1	O	1.055466	0.099962	-0.160470
O2	O	1.388800	0.433296	0.172863
O3	O	1.722133	0.766629	0.506197
O4	O	0.826063	0.112684	-0.142800
O5	O	1.159397	0.446017	0.190533
O6	O	1.492730	0.779351	0.523867
O7	O	0.939845	-0.007818	-0.151556
O8	O	1.273179	0.325515	0.181777
O9	O	1.606512	0.658848	0.515110
O10	O	0.941685	0.220465	-0.151713
O11	O	1.275018	0.553798	0.181620
O12	O	1.608351	0.887132	0.514953
O13	O	0.939830	-0.007826	0.006766
O14	O	1.273164	0.325508	0.340099
O15	O	1.606497	0.658841	0.673433
O16	O	0.826048	0.112677	0.015523
O17	O	1.159382	0.446010	0.348856
O18	O	1.492715	0.779344	0.682189
O19	O	1.055451	0.099955	-0.002147
O20	O	1.388785	0.433289	0.331186
O21	O	1.722118	0.766622	0.664519
Zn22	Zn	0.940747	0.106315	0.031825
Zn23	Zn	1.274081	0.439648	0.365158
Zn24	Zn	1.607414	0.772982	0.698491
Zn25	Zn	0.940767	0.106324	-0.176772
Zn26	Zn	1.274101	0.439658	0.156561
Zn27	Zn	1.607434	0.772991	0.489895
O28	O	0.941669	0.220458	0.006609
O29	O	1.275003	0.553791	0.339943
O30	O	1.608336	0.887124	0.673276
C31	C	0.796567	0.112195	-0.061367
C32	C	1.129900	0.445529	0.271966
C33	C	1.463234	0.778862	0.605300
C34	C	0.708698	0.110741	-0.054599
C35	C	1.042032	0.444074	0.278735
C36	C	1.375365	0.777407	0.612068
C37	C	0.214088	0.102578	-0.007235
C38	C	0.547421	0.435912	0.326098
C39	C	0.880754	0.769245	0.659431
C40	C	0.296650	0.103945	-0.013597
C41	C	0.629983	0.437278	0.319736
C42	C	0.963316	0.770612	0.653070
C43	C	0.337939	0.104626	-0.103081
C44	C	0.671273	0.437960	0.230252
C45	C	1.004606	0.771293	0.563586
C46	C	0.296662	0.103949	-0.186209
C47	C	0.629996	0.437282	0.147125
C48	C	0.963329	0.770616	0.480458
C49	C	0.214101	0.102588	-0.179846
C50	C	0.547435	0.435921	0.153487
C51	C	0.880768	0.769254	0.486821
C52	C	0.584860	0.108702	-0.131364
C53	C	0.918194	0.442036	0.201969
C54	C	1.251527	0.775369	0.535303
C55	C	0.667427	0.110061	-0.137720
C56	C	1.000760	0.443394	0.195613
C57	C	1.334094	0.776728	0.528947
C58	C	0.667409	0.110059	0.034892
C59	C	1.000742	0.443392	0.368226
C60	C	1.334075	0.776725	0.701559
C61	C	0.584847	0.108693	0.041247
C62	C	0.918180	0.442026	0.374580
C63	C	1.251513	0.775359	0.707913
C64	C	0.543576	0.108020	-0.041881
C65	C	0.876910	0.441353	0.291453
C66	C	1.210243	0.774686	0.624786
N67	N	0.422331	0.106021	-0.109586
N68	N	0.755664	0.439354	0.223748
N69	N	1.088998	0.772688	0.557081
N70	N	0.459186	0.106631	-0.035375
N71	N	0.792519	0.439964	0.297958
N72	N	1.125852	0.773297	0.631291
C73	C	0.937472	-0.037032	-0.072213
C74	C	1.270805	0.296301	0.261120
C75	C	1.604138	0.629635	0.594454
C76	C	0.930412	-0.124069	-0.071670
C77	C	1.263745	0.209264	0.261664
C78	C	1.597079	0.542598	0.594997
C79	C	0.998528	-0.174381	-0.076915
C80	C	1.331861	0.158953	0.256418
C81	C	1.665194	0.492286	0.589751
C82	C	0.991890	-0.256160	-0.076413
C83	C	1.325223	0.077173	0.256920
C84	C	1.658556	0.410506	0.590254
C85	C	0.917135	-0.287627	-0.070658
C86	C	1.250469	0.045707	0.262675
C87	C	1.583802	0.379040	0.596008
C88	C	0.849015	-0.237308	-0.065415
C89	C	1.182348	0.096025	0.267918
C90	C	1.515681	0.429359	0.601252
C91	C	0.855653	-0.155530	-0.065924
C92	C	1.188987	0.177803	0.267409
C93	C	1.522320	0.511137	0.600743
C94	C	0.889621	-0.531195	-0.068552
C95	C	1.222954	-0.197862	0.264781
C96	C	1.556287	0.135471	0.598115
C97	C	0.882987	-0.612980	-0.068040
C98	C	1.216320	-0.279647	0.265293
C99	C	1.549654	0.053687	0.598626
C100	C	1.025863	-0.631827	-0.079040
C101	C	1.359196	-0.298493	0.254293
C102	C	1.692530	0.034840	0.587626
C103	C	1.032495	-0.550046	-0.079543
C104	C	1.365828	-0.216713	0.253790
C105	C	1.699162	0.116621	0.587124
C106	C	0.964374	-0.499735	-0.074305
C107	C	1.297708	-0.166402	0.259028
C108	C	1.631041	0.166932	0.592362
N109	N	0.910349	-0.371218	-0.070142
N110	N	1.243682	-0.037885	0.263192
N111	N	1.577015	0.295448	0.596525
N112	N	0.971162	-0.416145	-0.074828
N113	N	1.304495	-0.082811	0.258505
N114	N	1.637828	0.250522	0.591838
C115	C	1.084948	0.100444	-0.083582
C116	C	1.418281	0.433777	0.249751
C117	C	1.751615	0.767111	0.583084
C118	C	1.172817	0.101899	-0.090357
C119	C	1.506150	0.435232	0.242976
C120	C	1.839483	0.768565	0.576310
C121	C	0.944043	0.249671	-0.072736
C122	C	1.277376	0.583005	0.260597
C123	C	1.610710	0.916338	0.593930
C124	C	0.951103	0.336708	-0.073286
C125	C	1.284436	0.670042	0.260047
C126	C	1.617769	1.003375	0.593381
N127	N	0.940740	0.106308	0.174186
N128	N	1.274073	0.439641	0.507519
N129	N	1.607406	0.772975	0.840853
N130	N	0.940781	0.106325	-0.319134
N131	N	1.274114	0.439658	0.014200
N132	N	1.607448	0.772992	0.347533
C133	C	0.991141	0.052972	0.220125
C134	C	1.324474	0.386305	0.553459
C135	C	1.657807	0.719638	0.886792
C136	C	0.991146	0.052971	0.319782
C137	C	1.324479	0.386305	0.653116
C138	C	1.657812	0.719638	0.986449
C139	C	0.940754	0.106312	0.373498
C140	C	1.274087	0.439645	0.706832
C141	C	1.607420	0.772978	1.040165
C142	C	0.890347	0.159651	0.327553
C143	C	1.223681	0.492984	0.660886
C144	C	1.557014	0.826317	0.994219
C145	C	0.890339	0.159647	0.227897
C146	C	1.223672	0.492980	0.561231
C147	C	1.557005	0.826313	0.894564
C148	C	0.890371	0.159656	0.535265
C149	C	1.223704	0.492990	0.868598
C150	C	1.557037	0.826323	1.201932
C151	C	0.890380	0.159661	0.634927
C152	C	1.223713	0.492995	0.968260
C153	C	1.557047	0.826328	1.301594
C154	C	0.991178	0.052981	0.627150
C155	C	1.324511	0.386314	0.960483
C156	C	1.657844	0.719647	1.293817
C157	C	0.991169	0.052977	0.527495
C158	C	1.324502	0.386310	0.860828
C159	C	1.657836	0.719644	1.194162
C160	C	0.940763	0.106317	0.481556
C161	C	1.274097	0.439650	0.814889
C162	C	1.607430	0.772984	1.148223
H163	H	0.551235	0.108121	0.114114
H164	H	0.884569	0.441454	0.447447
H165	H	1.217902	0.774788	0.780781
H166	H	0.849322	0.203089	0.497866
H167	H	1.182655	0.536423	0.831199
H168	H	1.515989	0.869756	1.164532
H169	H	0.330249	0.104497	0.054089
H170	H	0.663582	0.437830	0.387423
H171	H	0.996916	0.771163	0.720756
H172	H	0.701043	0.110622	-0.210592
H173	H	1.034376	0.443956	0.122741
H174	H	1.367709	0.777289	0.456074
H175	H	1.047357	-0.297122	-0.080683
H176	H	1.380690	0.036212	0.252651
H177	H	1.714024	0.369545	0.585984
H178	H	0.849345	0.203096	0.678658
H179	H	1.182678	0.536429	1.011991
H180	H	1.516011	0.869763	1.345325
H181	H	1.032179	0.009539	0.176395
H182	H	1.365512	0.342872	0.509729
H183	H	1.698846	0.676206	0.843062
Cl184	Cl	1.126476	-0.510495	-0.086809
Cl185	Cl	1.459809	-0.177162	0.246524
Cl186	Cl	1.793143	0.156171	0.579858
Cl187	Cl	0.826992	0.226705	0.395080
Cl188	Cl	1.160325	0.560038	0.728413
Cl189	Cl	1.493659	0.893372	1.061746
Cl190	Cl	0.755037	-0.276866	-0.058192
Cl191	Cl	1.088370	0.056468	0.275141
Cl192	Cl	1.421704	0.389801	0.608475
H193	H	1.059401	-0.148768	-0.081596
H194	H	1.392734	0.184565	0.251738
H195	H	1.726067	0.517899	0.585071
H196	H	0.701020	0.110608	0.102570
H197	H	1.034353	0.443942	0.435903
H198	H	1.367686	0.777275	0.769237
Cl199	Cl	0.162217	0.101738	-0.284346
Cl200	Cl	0.495551	0.435071	0.048987
Cl201	Cl	0.828884	0.768404	0.382320
Cl202	Cl	0.826971	0.226699	0.170147
Cl203	Cl	1.160305	0.560032	0.503480
Cl204	Cl	1.493638	0.893366	0.836813
Cl205	Cl	0.532989	0.107851	-0.235868
Cl206	Cl	0.866322	0.441184	0.097465
Cl207	Cl	1.199656	0.774518	0.430798
Cl208	Cl	1.054545	-0.014073	0.684905
Cl209	Cl	1.387878	0.319260	1.018238
Cl210	Cl	1.721211	0.652594	1.351572
Cl211	Cl	0.348570	0.104806	-0.298704
Cl212	Cl	0.681903	0.438139	0.034630
Cl213	Cl	1.015236	0.771473	0.367963
Cl214	Cl	0.789003	-0.652535	-0.060799
Cl215	Cl	1.122336	-0.319202	0.272534
Cl216	Cl	1.455670	0.014131	0.605867
H217	H	1.081323	-0.672798	-0.083307
H218	H	1.414656	-0.339465	0.250027
H219	H	1.747989	-0.006132	0.583360
Cl220	Cl	1.054524	-0.014075	0.459964
Cl221	Cl	1.387857	0.319258	0.793297
Cl222	Cl	1.721191	0.652592	1.126631
Cl223	Cl	0.803982	-0.467958	-0.061969
Cl224	Cl	1.137315	-0.134624	0.271364
Cl225	Cl	1.470648	0.198709	0.604698
Cl226	Cl	0.162189	0.101715	0.105265
Cl227	Cl	0.495522	0.435048	0.438598
Cl228	Cl	0.828856	0.768381	0.771931
Cl229	Cl	0.770018	-0.092280	-0.059333
Cl230	Cl	1.103352	0.241053	0.274001
Cl231	Cl	1.436685	0.574387	0.607334
Cl232	Cl	1.054507	-0.014082	0.377536
Cl233	Cl	1.387840	0.319251	0.710870
Cl234	Cl	1.721174	0.652584	1.044203
