data_functionalizedCrystal
_audit_creation_method	'MofGen! by Chris Wilmer'
_symmetry_space_group_name_H-M	'P1'
_symmetry_Int_Tables_number	1
_symmetry_cell_setting	triclinic
loop_
_symmetry_equiv_pos_as_xyz
  x,y,z
_cell_length_a	10.654556
_cell_length_b	15.944551
_cell_length_c	9.130313
_cell_angle_alpha	89.997799
_cell_angle_beta	89.999332
_cell_angle_gamma	83.993074
loop_
_atom_site_label
_atom_site_type_symbol
_atom_site_fract_x
_atom_site_fract_y
_atom_site_fract_z
O1	O	1.666303	0.117997	-0.121818
O2	O	1.300680	0.129232	-0.121818
O3	O	1.493476	0.001398	-0.121804
O4	O	1.473507	0.245831	-0.121831
O5	O	1.493473	0.001401	0.121794
O6	O	1.300678	0.129235	0.121781
O7	O	1.666300	0.118001	0.121781
Cu8	Cu	1.483489	0.123618	0.144024
Cu9	Cu	1.483492	0.123614	-0.144060
O10	O	1.473505	0.245835	0.121768
C11	C	1.253892	0.128408	-0.000018
C12	C	1.114481	0.125936	-0.000018
C13	C	0.917997	0.122457	-0.132815
C14	C	1.048989	0.124774	-0.132809
C15	C	1.048975	0.124773	0.132776
C16	C	0.917986	0.122450	0.132768
C17	C	0.918005	0.122461	-0.286149
C18	C	1.048998	0.124778	-0.286142
C19	C	1.492646	-0.029899	-0.000005
C20	C	1.490160	-0.123160	-0.000004
C21	C	1.364716	-0.338745	-0.000024
C22	C	1.422967	-0.399422	0.120085
C23	C	1.485664	-0.293912	-0.000015
C24	C	1.422998	-0.399409	-0.120084
C25	C	1.481312	-0.458850	-0.000032
C26	C	1.543948	-0.353361	0.120193
C27	C	1.543962	-0.353341	-0.120084
C28	C	1.602301	-0.414001	0.000054
C29	C	1.488168	-0.198895	-0.000004
C30	C	1.478818	-0.553865	-0.000033
C31	C	1.713089	0.118825	-0.000022
C32	C	1.852500	0.121296	-0.000032
C33	C	1.474335	0.277132	-0.000035
C34	C	1.476820	0.370392	-0.000045
N35	N	1.483496	0.123621	0.346646
N36	N	1.483494	0.123605	-0.346683
C37	C	1.568888	0.067035	0.423304
C38	C	1.568884	0.067025	0.576641
C39	C	1.398094	0.180193	0.576649
C40	C	1.398092	0.180199	0.423315
C41	C	1.667496	0.001700	0.423301
C42	C	1.667493	0.001690	0.576638
H43	H	1.102310	0.125712	0.240897
H44	H	1.758415	0.022159	0.375740
H45	H	1.371810	-0.419826	0.221627
C46	C	1.305175	0.241522	0.659817
C47	C	1.181779	0.227112	0.622543
C48	C	1.096148	0.283585	0.699140
H49	H	1.318636	0.297706	0.634761
H50	H	1.317317	0.233408	0.762131
H51	H	1.169641	0.235233	0.520252
H52	H	1.168278	0.170939	0.647603
H53	H	1.108290	0.275471	0.801454
H54	H	1.109620	0.339765	0.674077
H55	H	1.012415	0.273810	0.673870
H56	H	1.101479	0.064955	-0.333715
C57	C	1.354970	-0.426723	-0.255531
C58	C	1.437686	-0.481759	-0.338615
C59	C	1.375050	-0.506943	-0.463379
H60	H	1.326938	-0.378575	-0.312625
H61	H	1.284409	-0.454639	-0.226705
H62	H	1.508224	-0.453843	-0.367443
H63	H	1.465722	-0.529920	-0.281565
H64	H	1.304488	-0.534859	-0.434553
H65	H	1.347020	-0.458790	-0.520460
H66	H	1.431159	-0.544293	-0.519760
C67	C	0.846684	0.121300	0.276822
C68	C	0.757329	0.192086	0.284576
C69	C	0.691609	0.191044	0.417251
H70	H	0.904290	0.122359	0.356037
H71	H	0.805087	0.071518	0.282330
H72	H	0.798924	0.241855	0.279082
H73	H	0.699696	0.191042	0.205392
H74	H	0.650012	0.141262	0.422760
H75	H	0.749225	0.192100	0.496456
H76	H	0.630966	0.239066	0.422524
C77	C	1.612002	-0.326145	0.255690
C78	C	1.613456	-0.238444	0.254167
C79	C	1.676116	-0.213339	0.378972
H80	H	1.696189	-0.352501	0.256167
H81	H	1.569314	-0.342238	0.340915
H82	H	1.656147	-0.222358	0.168965
H83	H	1.529287	-0.212066	0.253712
H84	H	1.633427	-0.229433	0.464197
H85	H	1.760298	-0.239701	0.379438
H86	H	1.677100	-0.153831	0.377962
C87	C	1.627689	-0.079663	0.639839
C88	C	1.505478	-0.090402	0.592239
C89	C	1.468788	-0.165344	0.650407
H90	H	1.628945	-0.076967	0.743751
H91	H	1.684440	-0.125918	0.607645
H92	H	1.448742	-0.044159	0.624442
H93	H	1.504190	-0.093114	0.488335
H94	H	1.525539	-0.211598	0.618213
H95	H	1.470051	-0.162640	0.754318
H96	H	1.385870	-0.172644	0.618109
H97	H	1.763818	0.016083	0.618253
H98	H	0.893949	0.063155	-0.345021
H99	H	0.865527	0.182281	-0.333732
H100	H	1.264324	-0.306019	0.000096
C101	C	1.736301	-0.457402	0.000440
C102	C	1.799023	-0.434050	0.126418
C103	C	1.922456	-0.474025	0.126840
H104	H	1.779738	-0.440959	-0.083973
H105	H	1.734045	-0.516809	-0.000290
H106	H	1.801285	-0.374656	0.127134
H107	H	1.755624	-0.450494	0.210851
H108	H	1.920200	-0.533432	0.126111
H109	H	1.965881	-0.457579	0.042422
H110	H	1.965025	-0.458193	0.212320
H111	H	1.073064	0.184089	-0.345006
H112	H	1.595076	-0.332916	-0.221632
H113	H	1.646889	-0.062861	0.381688
C114	C	1.305515	0.241768	0.340168
C115	C	1.325888	0.324437	0.377446
C116	C	1.240636	0.381179	0.300869
H117	H	1.221655	0.232228	0.365240
H118	H	1.317743	0.233728	0.237852
H119	H	1.313649	0.332473	0.479739
H120	H	1.409730	0.334004	0.352370
H121	H	1.252864	0.373140	0.198552
H122	H	1.156782	0.371632	0.325947
H123	H	1.254455	0.437277	0.326141
