data_functionalizedCrystal
_audit_creation_method	'MofGen! by Chris Wilmer'
_symmetry_space_group_name_H-M	'P1'
_symmetry_Int_Tables_number	1
_symmetry_cell_setting	triclinic
loop_
_symmetry_equiv_pos_as_xyz
  x,y,z
_cell_length_a	15.944545
_cell_length_b	15.944551
_cell_length_c	9.565339
_cell_angle_alpha	89.999279
_cell_angle_beta	89.999231
_cell_angle_gamma	83.497455
loop_
_atom_site_label
_atom_site_type_symbol
_atom_site_fract_x
_atom_site_fract_y
_atom_site_fract_z
O1	O	1.114527	0.108301	-0.116173
O2	O	1.614527	0.608301	0.383827
O3	O	0.869977	0.121663	-0.116196
O4	O	1.369977	0.621663	0.383804
O5	O	0.998930	-0.007293	-0.116171
O6	O	1.498930	0.492707	0.383829
O7	O	0.985574	0.237257	-0.116197
O8	O	1.485574	0.737257	0.383803
O9	O	0.998920	-0.007285	0.116349
O10	O	1.498920	0.492715	0.616349
O11	O	0.869966	0.121671	0.116325
O12	O	1.369966	0.621671	0.616325
O13	O	1.114517	0.108309	0.116348
O14	O	1.614517	0.608309	0.616348
Zn15	Zn	0.992240	0.114991	0.153254
Zn16	Zn	1.492240	0.614991	0.653254
Zn17	Zn	0.992253	0.114981	-0.153102
Zn18	Zn	1.492253	0.614981	0.346898
O19	O	0.985563	0.237265	0.116323
O20	O	1.485563	0.737265	0.616323
C21	C	0.838677	0.121113	0.000062
C22	C	1.338677	0.621113	0.500062
C23	C	0.745431	0.119453	0.000053
C24	C	1.245431	0.619453	0.500053
C25	C	0.474798	0.034559	0.000077
C26	C	0.974798	0.534559	0.500077
C27	C	0.525375	0.075492	0.114721
C28	C	1.025375	0.575492	0.614721
C29	C	0.409787	0.113532	0.000078
C30	C	0.909787	0.613532	0.500078
C31	C	0.525366	0.075505	-0.114526
C32	C	1.025366	0.575505	0.385474
C33	C	0.574701	0.116437	0.000063
C34	C	1.074701	0.616437	0.500063
C35	C	0.459136	0.154444	0.114816
C36	C	0.959136	0.654444	0.614816
C37	C	0.459123	0.154446	-0.114533
C38	C	0.959123	0.654446	0.385467
C39	C	0.509667	0.195436	0.000138
C40	C	1.009667	0.695436	0.500138
C41	C	0.314785	0.111856	0.000087
C42	C	0.814785	0.611856	0.500087
C43	C	0.669700	0.118119	0.000064
C44	C	1.169700	0.618119	0.500064
C45	C	0.998370	-0.038583	0.000089
C46	C	1.498370	0.461417	0.500089
C47	C	0.996708	-0.131829	0.000090
C48	C	1.496708	0.368171	0.500090
C49	C	0.912803	-0.346684	0.000063
C50	C	1.412803	0.153316	0.500063
C51	C	0.951761	-0.407698	0.114713
C52	C	1.451761	0.092302	0.614713
C53	C	0.993701	-0.302555	0.000079
C54	C	1.493701	0.197445	0.500079
C55	C	0.951790	-0.407689	-0.114534
C56	C	1.451790	0.092311	0.385466
C57	C	0.990790	-0.467468	0.000062
C58	C	1.490790	0.032532	0.500062
C59	C	1.032680	-0.362341	0.114824
C60	C	1.532680	0.137659	0.614824
C61	C	1.032698	-0.362326	-0.114526
C62	C	1.532698	0.137674	0.385474
C63	C	1.071715	-0.423322	0.000152
C64	C	1.571715	0.076678	0.500152
C65	C	0.995375	-0.207553	0.000090
C66	C	1.495375	0.292447	0.500090
C67	C	0.989122	-0.562469	0.000062
C68	C	1.489122	-0.062469	0.500062
C69	C	1.145816	0.108859	0.000087
C70	C	1.645816	0.608859	0.500087
C71	C	1.239062	0.110519	0.000086
C72	C	1.739062	0.610519	0.500086
C73	C	0.986123	0.268555	0.000060
C74	C	1.486123	0.768555	0.500060
C75	C	0.987785	0.361801	0.000050
C76	C	1.487785	0.861801	0.500050
N77	N	0.992237	0.114998	0.362333
N78	N	1.492237	0.614998	0.862333
N79	N	0.992263	0.114967	-0.362181
N80	N	1.492263	0.614967	0.137819
C81	C	0.932582	0.174616	0.453525
C82	C	1.432582	0.674616	0.953525
C83	C	1.008487	0.190917	0.546709
C84	C	1.508487	0.690917	1.046709
C85	C	0.916365	0.098703	0.546704
C86	C	1.416365	0.598703	1.046704
C87	C	1.068180	0.131337	0.453465
C88	C	1.568180	0.631337	0.953465
C89	C	0.976008	0.039090	0.453453
C90	C	1.476008	0.539090	0.953453
C91	C	1.051968	0.055359	0.546595
C92	C	1.551968	0.555359	1.046595
H93	H	0.430181	0.187765	-0.211466
H94	H	0.930181	0.687765	0.288534
H95	H	0.882180	0.225079	0.412660
H96	H	1.382180	0.725079	0.912660
F97	F	1.026454	0.274804	0.600251
F98	F	1.526454	0.774804	1.100251
F99	F	0.563170	0.031891	-0.241202
F100	F	1.063170	0.531891	0.258798
F101	F	0.825036	-0.303147	0.000197
F102	F	1.325036	0.196853	0.500197
H103	H	0.917540	-0.427802	0.211634
H104	H	1.417540	0.072198	0.711634
H105	H	1.132368	0.145183	0.412682
H106	H	1.632368	0.645183	0.912682
F107	F	0.958013	-0.044772	0.399866
F108	F	1.458013	0.455228	0.899866
F109	F	1.117991	-0.010560	0.599681
F110	F	1.617991	0.489440	1.099681
F111	F	1.159558	-0.466667	0.000241
F112	F	1.659558	0.033333	0.500241
F113	F	0.421478	0.198010	0.241638
F114	F	0.921478	0.698010	0.741638
F115	F	0.907054	-0.433953	-0.241215
F116	F	1.407054	0.066047	0.258785
F117	F	1.077363	-0.336212	0.241653
F118	F	1.577363	0.163788	0.741653
F119	F	0.563183	0.031905	0.241417
F120	F	1.063183	0.531905	0.741417
F121	F	1.077390	-0.336018	-0.241216
F122	F	1.577390	0.163982	0.258784
F123	F	0.454336	-0.054336	0.000229
F124	F	0.954336	0.445664	0.500229
F125	F	0.529915	0.284402	0.000208
F126	F	1.029915	0.784402	0.500208
H127	H	0.852191	0.084934	0.587664
H128	H	1.352191	0.584934	1.087664
