data_functionalizedCrystal
_audit_creation_method	'MofGen! by Chris Wilmer'
_symmetry_space_group_name_H-M	'P1'
_symmetry_Int_Tables_number	1
_symmetry_cell_setting	triclinic
loop_
_symmetry_equiv_pos_as_xyz
  x,y,z
_cell_length_a	10.685980
_cell_length_b	13.032868
_cell_length_c	13.034059
_cell_angle_alpha	74.935080
_cell_angle_beta	77.854058
_cell_angle_gamma	77.919775
loop_
_atom_site_label
_atom_site_type_symbol
_atom_site_fract_x
_atom_site_fract_y
_atom_site_fract_z
Zn1	Zn	1.988644	0.385976	-0.766198
Zn2	Zn	2.488644	0.885976	-0.266198
Zn3	Zn	1.939787	0.544048	-0.608423
Zn4	Zn	2.439787	1.044048	-0.108423
Zn5	Zn	1.749366	0.377229	-0.575166
Zn6	Zn	2.249366	0.877229	-0.075166
Zn7	Zn	1.749647	0.576974	-0.775190
Zn8	Zn	2.249647	1.076974	-0.275190
O9	O	1.856861	0.471057	-0.681244
O10	O	2.356861	0.971057	-0.181244
O11	O	2.161876	0.396826	-0.755423
O12	O	2.661876	0.896826	-0.255423
O13	O	1.893962	0.504478	-0.454271
O14	O	2.393962	1.004478	0.045729
O15	O	1.801436	0.228642	-0.582825
O16	O	2.301436	0.728642	-0.082825
O17	O	2.125981	0.512960	-0.639506
O18	O	2.625981	1.012960	-0.139506
O19	O	1.977233	0.235068	-0.723175
O20	O	2.477233	0.735068	-0.223175
O21	O	1.754061	0.381917	-0.429837
O22	O	2.254061	0.881917	0.070163
O23	O	1.569690	0.413844	-0.591545
O24	O	2.069690	0.913844	-0.091545
O25	O	1.801915	0.569078	-0.923738
O26	O	2.301915	1.069078	-0.423738
O27	O	1.569896	0.560596	-0.738502
O28	O	2.069896	1.060596	-0.238502
O29	O	1.977505	0.428753	-0.917131
O30	O	2.477505	0.928753	-0.417131
O31	O	1.894235	0.698163	-0.648226
O32	O	2.394235	1.198163	-0.148226
O33	O	1.754540	0.722353	-0.770750
O34	O	2.254540	1.222353	-0.270750
C35	C	1.523195	0.489845	-0.662391
C36	C	2.023195	0.989845	-0.162391
C37	C	1.380452	0.497911	-0.654354
C38	C	1.880452	0.997911	-0.154354
C39	C	1.819155	0.749087	-0.714098
C40	C	2.319155	1.249087	-0.214098
C41	C	1.803146	0.868027	-0.728195
C42	C	2.303146	1.368027	-0.228195
C43	C	1.865203	0.909052	-0.673911
C44	C	2.365203	1.409052	-0.173911
C45	C	1.848659	1.031982	-0.688480
C46	C	2.348659	1.531982	-0.188480
C47	C	2.191829	0.452196	-0.700171
C48	C	2.691829	0.952196	-0.200171
C49	C	2.334573	0.444159	-0.708237
C50	C	2.834573	0.944159	-0.208237
C51	C	1.895192	0.503564	-0.960346
C52	C	2.395192	1.003564	-0.460346
C53	C	1.911526	0.517417	-1.079283
C54	C	2.411526	1.017417	-0.579283
C55	C	1.894709	1.191943	-0.648273
C56	C	2.394709	1.691943	-0.148273
C57	C	1.910725	1.073004	-0.634187
C58	C	2.410725	1.573004	-0.134187
C59	C	1.818764	0.438594	-0.403223
C60	C	2.318764	0.938594	0.096777
C61	C	1.802719	0.424426	-0.284266
C62	C	2.302719	0.924426	0.215734
C63	C	1.865409	0.478239	-0.243246
C64	C	2.365409	0.978239	0.256754
C65	C	1.848827	0.463597	-0.120298
C66	C	2.348827	0.963597	0.379702
H67	H	1.310519	0.550105	-0.602066
H68	H	1.810519	1.050105	-0.102066
H69	H	1.404498	0.391961	-0.760514
H70	H	1.904498	0.891961	-0.260514
H71	H	1.782872	0.406685	-0.064397
H72	H	2.282872	0.906685	0.435603
Br73	Br	2.021442	0.612289	-0.172444
Br74	Br	2.521442	1.112289	0.327556
Br75	Br	1.974188	0.815916	-0.578479
Br76	Br	2.474188	1.315916	-0.078479
Br77	Br	1.739696	1.125116	-0.783936
Br78	Br	2.239696	1.625116	-0.283936
H79	H	1.976112	1.017122	-0.576927
H80	H	2.476112	1.517122	-0.076927
H81	H	1.737775	0.923913	-0.785461
H82	H	2.237775	1.423913	-0.285461
H83	H	1.931349	0.535155	-0.299151
H84	H	2.431349	1.035155	0.200849
H85	H	1.736768	0.367519	-0.228362
H86	H	2.236768	0.867519	0.271638
