data_functionalizedCrystal
_audit_creation_method	'MofGen! by Chris Wilmer'
_symmetry_space_group_name_H-M	'P1'
_symmetry_Int_Tables_number	1
_symmetry_cell_setting	triclinic
loop_
_symmetry_equiv_pos_as_xyz
  x,y,z
_cell_length_a	29.019771
_cell_length_b	29.019011
_cell_length_c	29.015668
_cell_angle_alpha	60.004890
_cell_angle_beta	60.009825
_cell_angle_gamma	59.993818
loop_
_atom_site_label
_atom_site_type_symbol
_atom_site_fract_x
_atom_site_fract_y
_atom_site_fract_z
O1	O	0.063866	-0.673289	0.563007
O2	O	0.563866	-0.173289	1.063007
O3	O	0.024059	-0.524205	0.453633
O4	O	0.524059	-0.024205	0.953633
O5	O	0.118464	-0.618532	0.453552
O6	O	0.618464	-0.118532	0.953552
O7	O	-0.030540	-0.578962	0.563088
O8	O	0.469460	-0.078962	1.063088
O9	O	0.149785	-0.587215	0.484789
O10	O	0.649785	-0.087215	0.984789
O11	O	0.055379	-0.492888	0.484869
O12	O	0.555379	0.007112	0.984869
O13	O	0.095186	-0.641972	0.594244
O14	O	0.595186	-0.141972	1.094244
Cu15	Cu	0.078143	-0.564571	0.542409
Cu16	Cu	0.578143	-0.064571	1.042409
Cu17	Cu	0.041102	-0.601606	0.505468
Cu18	Cu	0.541102	-0.101606	1.005468
O19	O	0.000781	-0.547645	0.594325
O20	O	0.500781	-0.047645	1.094325
N21	N	0.104196	-0.538525	0.568394
N22	N	0.604196	-0.038525	1.068394
N23	N	0.015054	-0.627656	0.479483
N24	N	0.515054	-0.127656	0.979483
C25	C	0.143783	-0.499167	0.850823
C26	C	0.643783	0.000833	1.350823
C27	C	0.386758	-0.499111	0.607645
C28	C	0.886758	0.000889	1.107645
C29	C	0.143618	-0.499136	0.607763
C30	C	0.643618	0.000864	1.107763
C31	C	0.143598	-0.256029	0.607770
C32	C	0.643598	0.243971	1.107770
C33	C	0.182748	-0.373362	0.646852
C34	C	0.682748	0.126638	1.146852
C35	C	0.182758	-0.460025	0.646847
C36	C	0.682758	0.039975	1.146847
C37	C	0.204440	-0.438361	0.668500
C38	C	0.704440	0.061639	1.168500
C39	C	0.298958	-0.422064	0.618723
C40	C	0.798958	0.077936	1.118723
C41	C	0.358043	-0.441753	0.599006
C42	C	0.858043	0.058247	1.099006
C43	C	0.358069	-0.537354	0.635461
C44	C	0.858069	-0.037354	1.135461
C45	C	0.298985	-0.517664	0.655180
C46	C	0.798985	-0.017664	1.155180
C47	C	0.196983	-0.343808	0.588767
C48	C	0.696983	0.156192	1.088767
C49	C	0.177262	-0.284720	0.569090
C50	C	0.677262	0.215280	1.069090
C51	C	0.129075	-0.284743	0.665586
C52	C	0.629075	0.215257	1.165586
C53	C	0.148797	-0.343831	0.685263
C54	C	0.648797	0.156169	1.185263
C55	C	0.124666	-0.445760	0.661149
C56	C	0.624666	0.054240	1.161149
C57	C	0.104961	-0.465454	0.641458
C58	C	0.604961	0.034546	1.141458
C59	C	0.201435	-0.513678	0.593176
C60	C	0.701435	-0.013678	1.093176
C61	C	0.221143	-0.493984	0.612860
C62	C	0.721143	0.006016	1.112860
C63	C	0.124738	-0.445777	0.763064
C64	C	0.624738	0.054223	1.263064
C65	C	0.105085	-0.465488	0.822151
C66	C	0.605085	0.034512	1.322151
C67	C	0.201594	-0.513722	0.822097
C68	C	0.701594	-0.013722	1.322097
C69	C	0.221247	-0.494012	0.763009
C70	C	0.721247	0.005988	1.263009
C71	C	0.182817	-0.460038	0.733494
C72	C	0.682817	0.039962	1.233494
C73	C	0.269432	-0.460018	0.646809
C74	C	0.769432	0.039982	1.146809
C75	C	0.121399	-0.520450	0.915812
C76	C	0.621399	-0.020450	1.415812
C77	C	0.451745	-0.520012	0.585655
C78	C	0.951745	-0.020012	1.085655
C79	C	0.121177	-0.520429	0.586502
C80	C	0.621177	-0.020429	1.086502
C81	C	0.121544	-0.191035	0.586883
C82	C	0.621544	0.308965	1.086883
C83	C	-0.110592	-0.666601	0.440035
C84	C	0.389408	-0.166601	0.940035
C85	C	-0.023978	-0.666709	0.440231
C86	C	0.476022	-0.166709	0.940231
C87	C	-0.045598	-0.688342	0.418486
C88	C	0.454402	-0.188342	0.918486
C89	C	-0.061967	-0.782825	0.468184
C90	C	0.438033	-0.282825	0.968184
C91	C	-0.042323	-0.841914	0.487907
C92	C	0.457677	-0.341914	0.987907
C93	C	0.053280	-0.842025	0.451623
C94	C	0.553280	-0.342025	0.951623
C95	C	0.033634	-0.782937	0.431899
C96	C	0.533634	-0.282937	0.931899
C97	C	-0.140218	-0.680832	0.498102
C98	C	0.359782	-0.180832	0.998102
C99	C	-0.199302	-0.661065	0.517690
C100	C	0.300698	-0.161065	1.017690
C101	C	-0.199129	-0.612843	0.421140
C102	C	0.300871	-0.112843	0.921140
C103	C	-0.140045	-0.632610	0.401552
C104	C	0.359955	-0.132610	0.901552
C105	C	-0.038209	-0.608622	0.425941
C106	C	0.461791	-0.108622	0.925941
C107	C	-0.018555	-0.588961	0.445716
C108	C	0.481445	-0.088961	0.945716
C109	C	0.029562	-0.685470	0.494059
C110	C	0.529562	-0.185470	0.994059
C111	C	0.009908	-0.705133	0.474291
C112	C	0.509908	-0.205133	0.974291
C113	C	-0.038037	-0.608631	0.323917
C114	C	0.461963	-0.108631	0.823917
C115	C	-0.018247	-0.588973	0.264830
C116	C	0.481753	-0.088973	0.764830
C117	C	0.029955	-0.685489	0.264893
C118	C	0.529955	-0.185489	0.764893
C119	C	0.010165	-0.705145	0.323981
C120	C	0.510165	-0.205145	0.823981
C121	C	-0.023833	-0.666715	0.353492
C122	C	0.476167	-0.166715	0.853492
C123	C	-0.023990	-0.753339	0.440182
C124	C	0.476010	-0.253339	0.940182
N125	N	0.504925	-0.538487	0.568205
N126	N	1.004925	-0.038487	1.068205
O127	O	0.685342	-0.543679	0.433426
O128	O	1.185342	-0.043679	0.933426
O129	O	0.685533	-0.653395	0.582361
O130	O	1.185533	-0.153395	1.082361
O131	O	0.685457	-0.653145	0.487904
O132	O	1.185457	-0.153145	0.987904
O133	O	0.685418	-0.543929	0.527882
O134	O	1.185418	-0.043929	1.027882
O135	O	0.591592	-0.621921	0.519268
O136	O	1.091592	-0.121921	1.019268
O137	O	0.591667	-0.622171	0.613725
O138	O	1.091667	-0.122171	1.113725
O139	O	0.591477	-0.512455	0.464790
O140	O	1.091477	-0.012455	0.964790
Cu141	Cu	0.583001	-0.564462	0.542121
Cu142	Cu	1.083001	-0.064462	1.042121
Cu143	Cu	0.694008	-0.601388	0.505029
Cu144	Cu	1.194008	-0.101388	1.005029
O145	O	0.591553	-0.512705	0.559246
O146	O	1.091553	-0.012705	1.059246
N147	N	0.772084	-0.627363	0.478939
N148	N	1.272084	-0.127363	0.978939
N149	N	0.104168	-0.137853	0.568408
N150	N	0.604168	0.362147	1.068408
O151	O	-0.030538	0.042663	0.563097
O152	O	0.469462	0.542663	1.063097
O153	O	0.118403	0.042683	0.453379
O154	O	0.618403	0.542683	0.953379
O155	O	0.023918	0.042657	0.453664
O156	O	0.523918	0.542657	0.953664
O157	O	0.063947	0.042689	0.562813
O158	O	0.563947	0.542689	1.062813
O159	O	0.055242	-0.051215	0.484950
O160	O	0.555242	0.448785	0.984950
O161	O	0.149727	-0.051189	0.484666
O162	O	0.649727	0.448811	0.984666
O163	O	0.000787	-0.051210	0.594384
O164	O	0.500787	0.448790	1.094384
Cu165	Cu	0.078117	-0.059771	0.542381
Cu166	Cu	0.578117	0.440229	1.042381
Cu167	Cu	0.041072	0.051244	0.505382
Cu168	Cu	0.541072	0.551244	1.005382
O169	O	0.095272	-0.051184	0.594099
O170	O	0.595272	0.448816	1.094099
N171	N	0.015015	0.129326	0.479356
N172	N	0.515015	0.629326	0.979356
N173	N	0.104469	-0.538576	0.968995
N174	N	0.604469	-0.038576	1.468995
O175	O	0.099171	-0.673268	1.149499
O176	O	0.599171	-0.173268	1.649499
O177	O	-0.010519	-0.524279	1.149527
O178	O	0.489481	-0.024279	1.649527
O179	O	-0.010265	-0.618748	1.149494
O180	O	0.489735	-0.118748	1.649494
O181	O	0.098916	-0.578799	1.149533
O182	O	0.598916	-0.078799	1.649533
O183	O	0.021008	-0.587443	1.055625
O184	O	0.521008	-0.087443	1.555625
O185	O	0.020753	-0.492974	1.055659
O186	O	0.520753	0.007026	1.555659
O187	O	0.130444	-0.641963	1.055630
O188	O	0.630444	-0.141963	1.555630
Cu189	Cu	0.078454	-0.564610	1.047074
Cu190	Cu	0.578454	-0.064610	1.547074
Cu191	Cu	0.041470	-0.601632	1.158084
Cu192	Cu	0.541470	-0.101632	1.658084
O193	O	0.130189	-0.547494	1.055664
O194	O	0.630189	-0.047494	1.555664
N195	N	0.015455	-0.627672	1.236163
N196	N	0.515455	-0.127672	1.736163
C197	C	0.035988	-0.489761	0.454182
C198	C	0.535988	0.010239	0.954182
C199	C	0.152897	-0.606574	0.454082
C200	C	0.652897	-0.106574	0.954082
C201	C	0.083257	-0.676417	0.593694
C202	C	0.583257	-0.176417	1.093694
C203	C	-0.033653	-0.559604	0.593794
C204	C	0.466347	-0.059604	1.093794
C205	C	0.638623	-0.652892	0.616806
C206	C	1.138623	-0.152892	1.116806
C207	C	0.638531	-0.652583	0.499833
C208	C	1.138531	-0.152583	0.999833
C209	C	0.638384	-0.512957	0.430345
C210	C	1.138384	-0.012957	0.930345
C211	C	0.638480	-0.513267	0.547317
C212	C	1.138480	-0.013267	1.047317
C213	C	0.152789	-0.004135	0.453875
C214	C	0.652789	0.495865	0.953875
C215	C	0.035820	-0.004282	0.454266
C216	C	0.535820	0.495718	0.954266
C217	C	-0.033639	-0.004275	0.593849
C218	C	0.466361	0.495725	1.093849
C219	C	0.083370	-0.004245	0.593498
C220	C	0.583370	0.495755	1.093498
C221	C	-0.009989	-0.489856	1.102597
C222	C	0.490011	0.010144	1.602597
C223	C	-0.009667	-0.606839	1.102536
C224	C	0.490333	-0.106839	1.602536
C225	C	0.129914	-0.676386	1.102561
C226	C	0.629914	-0.176386	1.602561
C227	C	0.129599	-0.559396	1.102601
C228	C	0.629599	-0.059396	1.602601
H229	H	0.057789	-0.453866	0.846219
H230	H	0.557789	0.046134	1.346219
H231	H	0.027247	-0.004286	0.419974
H232	H	0.527247	0.495714	0.919974
O233	O	0.171070	-0.727392	1.102527
O234	O	0.671070	-0.227392	1.602527
C235	C	0.266212	-0.785245	1.102562
C236	C	0.766212	-0.285245	1.602562
C237	C	0.219657	-0.727452	1.102588
C238	C	0.719657	-0.227452	1.602588
H239	H	0.305501	-0.785317	1.102624
H240	H	0.805501	-0.285317	1.602624
H241	H	0.276913	-0.793520	1.063261
H242	H	0.776913	-0.293520	1.563261
H243	H	0.250667	-0.819702	1.141828
H244	H	0.750667	-0.319702	1.641828
H245	H	0.235163	-0.692959	1.063349
H246	H	0.735163	-0.192959	1.563349
H247	H	0.208962	-0.719226	1.141916
H248	H	0.708962	-0.219226	1.641916
O249	O	0.203734	-0.003789	0.412730
O250	O	0.703734	0.496211	0.912730
C251	C	0.296568	-0.003340	0.386322
C252	C	0.796568	0.496660	0.886322
C253	C	0.238895	-0.003718	0.432964
C254	C	0.738895	0.496282	0.932964
H255	H	0.325016	-0.003294	0.402668
H256	H	0.825016	0.496706	0.902668
H257	H	0.290429	0.036040	0.347953
H258	H	0.790429	0.536040	0.847953
H259	H	0.316969	-0.042530	0.373825
H260	H	0.816969	0.457470	0.873825
H261	H	0.218463	0.035445	0.445509
H262	H	0.718463	0.535445	0.945509
H263	H	0.245071	-0.043124	0.471302
H264	H	0.745071	0.456876	0.971302
O265	O	-0.084730	-0.549445	0.634779
O266	O	0.415270	-0.049445	1.134779
C267	C	-0.177684	-0.482582	0.660868
C268	C	0.322316	0.017418	1.160868
C269	C	-0.119862	-0.494008	0.614407
C270	C	0.380138	0.005992	1.114407
H271	H	-0.206108	-0.437767	0.644411
H272	H	0.293892	0.062233	1.144411
H273	H	-0.171801	-0.487633	0.699356
H274	H	0.328199	0.012367	1.199356
H275	H	-0.197962	-0.513910	0.673222
H276	H	0.302038	-0.013910	1.173222
H277	H	-0.099552	-0.462690	0.602005
H278	H	0.400448	0.037310	1.102005
H279	H	-0.125781	-0.488977	0.575950
H280	H	0.374219	0.011023	1.075950
H281	H	0.638547	-0.686893	0.491276
H282	H	1.138547	-0.186893	0.991276
O283	O	0.386639	-0.404805	0.571712
O284	O	0.886639	0.095195	1.071712
C285	C	0.380380	-0.307908	0.537659
C286	C	0.880380	0.192092	1.037659
C287	C	0.347923	-0.349689	0.568567
C288	C	0.847923	0.150311	1.068567
H289	H	0.349093	-0.263339	0.535117
H290	H	0.849093	0.236661	1.035117
H291	H	0.408004	-0.309668	0.493214
H292	H	0.908004	0.190332	0.993214
H293	H	0.408078	-0.319798	0.561800
H294	H	0.908078	0.180202	1.061800
H295	H	0.320195	-0.337827	0.544473
H296	H	0.820195	0.162173	1.044473
H297	H	0.320335	-0.347921	0.613014
H298	H	0.820335	0.152079	1.113014
H299	H	0.638471	-0.478960	0.555871
H300	H	1.138471	0.021040	1.055871
H301	H	0.163899	-0.550848	1.102605
H302	H	0.663899	-0.050848	1.602605
H303	H	0.091761	-0.719242	0.628046
H304	H	0.591761	-0.219242	1.128046
H305	H	-0.044426	-0.447066	1.102605
H306	H	0.455574	0.052934	1.602605
H307	H	-0.043953	-0.615372	1.102487
H308	H	0.456047	-0.115372	1.602487
H309	H	0.638671	-0.687334	0.659583
H310	H	1.138671	-0.187334	1.159583
H311	H	0.137197	-0.367895	0.732563
H312	H	0.637197	0.132105	1.232563
O313	O	0.093490	-0.004213	0.634463
O314	O	0.593490	0.495787	1.134463
C315	C	0.056622	-0.004247	0.729568
C316	C	0.556622	0.495753	1.229568
C317	C	0.045082	-0.004269	0.683221
C318	C	0.545082	0.495731	1.183221
H319	H	0.017497	-0.004304	0.769004
H320	H	0.517497	0.495696	1.269004
H321	H	0.067333	0.035054	0.713956
H322	H	0.567333	0.535054	1.213956
H323	H	0.093602	-0.043518	0.740067
H324	H	0.593602	0.456482	1.240067
H325	H	0.008096	0.034975	0.672701
H326	H	0.508096	0.534975	1.172701
H327	H	0.034405	-0.043596	0.698858
H328	H	0.534405	0.456404	1.198858
O329	O	-0.084709	-0.004247	0.634871
O330	O	0.415291	0.495753	1.134871
C331	C	-0.177683	-0.004279	0.661140
C332	C	0.322317	0.495721	1.161140
C333	C	-0.119875	-0.004305	0.614632
C334	C	0.380125	0.495695	1.114632
H335	H	-0.206126	-0.004339	0.644799
H336	H	0.293874	0.495661	1.144799
H337	H	-0.197982	0.035023	0.673432
H338	H	0.302018	0.535023	1.173432
H339	H	-0.171722	-0.043548	0.699641
H340	H	0.328278	0.456452	1.199641
H341	H	-0.125787	0.034937	0.576101
H342	H	0.374213	0.534937	1.076101
H343	H	-0.099596	-0.043633	0.602388
H344	H	0.400404	0.456367	1.102388
O345	O	0.048512	-0.451573	0.655426
O346	O	0.548512	0.048427	1.155426
C347	C	-0.045102	-0.401650	0.705380
C348	C	0.454898	0.098350	1.205380
C349	C	0.018810	-0.417337	0.689613
C350	C	0.518810	0.082663	1.189613
H351	H	-0.069135	-0.373958	0.733012
H352	H	0.430865	0.126042	1.233012
H353	H	-0.056738	-0.441736	0.729467
H354	H	0.443262	0.058264	1.229467
H355	H	-0.056747	-0.377611	0.665292
H356	H	0.443253	0.122389	1.165292
H357	H	0.030500	-0.441362	0.729671
H358	H	0.530500	0.058638	1.229671
H359	H	0.030411	-0.377231	0.665504
H360	H	0.530411	0.122769	1.165504
O361	O	0.638336	-0.471929	0.379280
O362	O	1.138336	0.028071	0.879280
C363	C	0.638199	-0.445670	0.286337
C364	C	1.138199	0.054330	0.786337
C365	C	0.638268	-0.492188	0.344136
C366	C	1.138268	0.007812	0.844136
H367	H	0.638132	-0.462028	0.257910
H368	H	1.138132	0.037972	0.757910
H369	H	0.677467	-0.433329	0.266003
H370	H	1.177467	0.066671	0.766003
H371	H	0.598902	-0.407195	0.292323
H372	H	1.098902	0.092805	0.792323
H373	H	0.677539	-0.530693	0.338198
H374	H	1.177539	-0.030693	0.838198
H375	H	0.598974	-0.504481	0.364450
H376	H	1.098974	-0.004481	0.864450
H377	H	0.093440	-0.418108	0.739036
H378	H	0.593440	0.081892	1.239036
O379	O	0.203911	-0.616546	0.412973
O380	O	0.703911	-0.116546	0.912973
C381	C	0.261824	-0.579375	0.317832
C382	C	0.761824	-0.079375	0.817832
C383	C	0.204022	-0.568011	0.364333
C384	C	0.704022	-0.068011	0.864333
H385	H	0.261936	-0.540139	0.278499
H386	H	0.761936	-0.040139	0.778499
H387	H	0.270072	-0.616276	0.307189
H388	H	0.770072	-0.116276	0.807189
H389	H	0.296272	-0.590116	0.333401
H390	H	0.796272	-0.090116	0.833401
H391	H	0.169537	-0.557246	0.348802
H392	H	0.669537	-0.057246	0.848802
H393	H	0.195822	-0.531126	0.374969
H394	H	0.695822	-0.031126	0.874969
H395	H	0.232890	-0.541375	0.846122
H396	H	0.732890	-0.041375	1.346122
H397	H	0.093408	-0.418110	0.688821
H398	H	0.593408	0.081890	1.188821
O399	O	0.277687	-0.507901	0.734373
O400	O	0.777687	-0.007901	1.234373
C401	C	0.371336	-0.557853	0.740559
C402	C	0.871336	-0.057853	1.240559
C403	C	0.307435	-0.542155	0.773057
C404	C	0.807435	-0.042155	1.273057
H405	H	0.395406	-0.585559	0.771821
H406	H	0.895406	-0.085559	1.271821
H407	H	0.382980	-0.517773	0.712912
H408	H	0.882980	-0.017773	1.212912
H409	H	0.382928	-0.581881	0.712879
H410	H	0.882928	-0.081881	1.212879
H411	H	0.295797	-0.518141	0.800768
H412	H	0.795797	-0.018141	1.300768
H413	H	0.295825	-0.582256	0.800669
H414	H	0.795825	-0.082256	1.300669
H415	H	0.232695	-0.541333	0.565509
H416	H	0.732695	-0.041333	1.065509
H417	H	0.268446	-0.505593	0.601208
H418	H	0.768446	-0.005593	1.101208
H419	H	0.382132	-0.584293	0.642268
H420	H	0.882132	-0.084293	1.142268
O421	O	0.270390	-0.554607	0.682428
O422	O	0.770390	-0.054607	1.182428
C423	C	0.276653	-0.651513	0.716532
C424	C	0.776653	-0.151513	1.216532
C425	C	0.309107	-0.609735	0.685652
C426	C	0.809107	-0.109735	1.185652
H427	H	0.307942	-0.696095	0.719159
H428	H	0.807942	-0.196095	1.219159
H429	H	0.248984	-0.639695	0.692390
H430	H	0.748984	-0.139695	1.192390
H431	H	0.249000	-0.649680	0.760948
H432	H	0.749000	-0.149680	1.260948
H433	H	0.336791	-0.611547	0.641236
H434	H	0.836791	-0.111547	1.141236
H435	H	0.336740	-0.621567	0.709837
H436	H	0.836740	-0.121567	1.209837
H437	H	0.224626	-0.367851	0.557490
H438	H	0.724626	0.132149	1.057490
O439	O	0.270191	-0.366090	0.610691
O440	O	0.770191	0.133910	1.110691
C441	C	0.203526	-0.294594	0.654237
C442	C	0.703526	0.205406	1.154237
C443	C	0.236061	-0.358002	0.663414
C444	C	0.736061	0.141998	1.163414
H445	H	0.175933	-0.288034	0.696856
H446	H	0.675933	0.211966	1.196856
H447	H	0.175803	-0.277939	0.628304
H448	H	0.675803	0.222061	1.128304
H449	H	0.234793	-0.270860	0.630751
H450	H	0.734793	0.229140	1.130751
H451	H	0.204834	-0.381782	0.686915
H452	H	0.704834	0.118218	1.186915
H453	H	0.263792	-0.374614	0.689323
H454	H	0.763792	0.125386	1.189323
H455	H	0.101438	-0.260698	0.696864
H456	H	0.601438	0.239302	1.196864
O457	O	0.191159	-0.256095	0.512645
O458	O	0.691159	0.243905	1.012645
C459	C	0.241002	-0.262305	0.419008
C460	C	0.741002	0.237695	0.919008
C461	C	0.225317	-0.294791	0.482915
C462	C	0.725317	0.205209	0.982915
H463	H	0.268612	-0.293576	0.394953
H464	H	0.768612	0.206424	0.894953
H465	H	0.265086	-0.234652	0.407336
H466	H	0.765086	0.265348	0.907336
H467	H	0.200882	-0.234629	0.407423
H468	H	0.700882	0.265371	0.907423
H469	H	0.265409	-0.322497	0.494545
H470	H	0.765409	0.177503	0.994545
H471	H	0.201212	-0.322409	0.494553
H472	H	0.701212	0.177591	0.994553
H473	H	-0.029822	-0.541673	0.240758
H474	H	0.470178	-0.041673	0.740758
O475	O	-0.070973	-0.571280	0.352563
O476	O	0.429027	-0.071280	0.852563
C477	C	-0.078538	-0.494841	0.370659
C478	C	0.421462	0.005159	0.870659
C479	C	-0.041181	-0.537111	0.338189
C480	C	0.458819	-0.037111	0.838189
H481	H	-0.054470	-0.467197	0.359041
H482	H	0.445530	0.032803	0.859041
H483	H	-0.090222	-0.518845	0.417975
H484	H	0.409778	-0.018845	0.917975
H485	H	-0.118600	-0.467160	0.358970
H486	H	0.381400	0.032840	0.858970
H487	H	-0.001095	-0.564803	0.349831
H488	H	0.498905	-0.064803	0.849831
H489	H	-0.029542	-0.513073	0.290882
H490	H	0.470458	-0.013073	0.790882
O491	O	0.062985	-0.722897	0.236319
O492	O	0.562985	-0.222897	0.736319
C493	C	0.108665	-0.820704	0.242626
C494	C	0.608665	-0.320704	0.742626
C495	C	0.071263	-0.778399	0.275056
C496	C	0.571263	-0.278399	0.775056
H497	H	0.115360	-0.865587	0.273931
H498	H	0.615360	-0.365587	0.773931
H499	H	0.151215	-0.814001	0.215053
H500	H	0.651215	-0.314001	0.715053
H501	H	0.087073	-0.813839	0.214877
H502	H	0.587073	-0.313839	0.714877
H503	H	0.092805	-0.785239	0.302835
H504	H	0.592805	-0.285239	0.802835
H505	H	0.028715	-0.785113	0.302593
H506	H	0.528715	-0.285113	0.802593
H507	H	0.021738	-0.752445	0.348058
H508	H	0.521738	-0.252445	0.848058
H509	H	-0.065797	-0.577331	0.398207
H510	H	0.434203	-0.077331	0.898207
H511	H	-0.108889	-0.758731	0.474933
H512	H	0.391111	-0.258731	0.974933
H513	H	-0.030145	-0.541661	0.434082
H514	H	0.469855	-0.041661	0.934082
H515	H	0.057158	-0.716762	0.521784
H516	H	0.557158	-0.216762	1.021784
H517	H	0.027485	-0.446933	0.419832
H518	H	0.527485	0.053067	0.919832
H519	H	0.064563	-0.758931	0.409098
H520	H	0.564563	-0.258931	0.909098
O521	O	0.023707	-0.761569	0.488248
O522	O	0.523707	-0.261569	0.988248
C523	C	0.019044	-0.850040	0.563128
C524	C	0.519044	-0.350040	1.063128
C525	C	0.003390	-0.786140	0.547416
C526	C	0.503390	-0.286140	1.047416
H527	H	0.002614	-0.869923	0.610965
H528	H	0.502614	-0.369923	1.110965
H529	H	0.066885	-0.870043	0.546939
H530	H	0.566885	-0.370043	1.046939
H531	H	-0.000813	-0.857455	0.543104
H532	H	0.499187	-0.357455	1.043104
H533	H	0.023209	-0.778675	0.567435
H534	H	0.523209	-0.278675	1.067435
H535	H	-0.044456	-0.766170	0.563594
H536	H	0.455544	-0.266170	1.063594
O537	O	0.109279	-0.870693	0.443511
O538	O	0.609279	-0.370693	0.943511
C539	C	0.202028	-0.864573	0.405469
C540	C	0.702028	-0.364573	0.905469
C541	C	0.138628	-0.832037	0.414608
C542	C	0.638628	-0.332037	0.914608
H543	H	0.225774	-0.833333	0.382111
H544	H	0.725774	-0.333333	0.882111
H545	H	0.218724	-0.892230	0.379457
H546	H	0.718724	-0.392230	0.879457
H547	H	0.208516	-0.892249	0.448115
H548	H	0.708516	-0.392249	0.948115
H549	H	0.132092	-0.804330	0.371989
H550	H	0.632092	-0.304330	0.871989
H551	H	0.121964	-0.804415	0.440646
H552	H	0.621964	-0.304415	0.940646
H553	H	-0.073247	-0.865920	0.510699
H554	H	0.426753	-0.365920	1.010699
O555	O	-0.111693	-0.713824	0.535558
O556	O	0.388307	-0.213824	1.035558
C557	C	-0.118101	-0.759589	0.633393
C558	C	0.381899	-0.259589	1.133393
C559	C	-0.150475	-0.722210	0.591034
C560	C	0.349525	-0.222210	1.091034
H561	H	-0.149442	-0.766391	0.678253
H562	H	0.350558	-0.266391	1.178253
H563	H	-0.090451	-0.737991	0.626692
H564	H	0.409549	-0.237991	1.126692
H565	H	-0.090436	-0.802096	0.626586
H566	H	0.409564	-0.302096	1.126586
H567	H	-0.178170	-0.679697	0.597814
H568	H	0.321830	-0.179697	1.097814
H569	H	-0.178089	-0.743853	0.597745
H570	H	0.321911	-0.243853	1.097745
H571	H	-0.223425	-0.672650	0.564976
H572	H	0.276575	-0.172650	1.064976
O573	O	-0.227657	-0.579815	0.383683
O574	O	0.272343	-0.079815	0.883683
C575	C	-0.221253	-0.534117	0.285850
C576	C	0.278747	-0.034117	0.785850
C577	C	-0.188877	-0.571515	0.328207
C578	C	0.311123	-0.071515	0.828207
H579	H	-0.189914	-0.527405	0.240989
H580	H	0.310086	-0.027405	0.740989
H581	H	-0.248885	-0.491571	0.292575
H582	H	0.251115	0.008429	0.792575
H583	H	-0.248935	-0.555726	0.292634
H584	H	0.251065	-0.055726	0.792634
H585	H	-0.161164	-0.549956	0.321449
H586	H	0.338836	-0.049956	0.821449
H587	H	-0.161280	-0.614060	0.321472
H588	H	0.338720	-0.114060	0.821472
H589	H	-0.115923	-0.621016	0.354266
H590	H	0.384077	-0.121016	0.854266
