data_functionalizedCrystal
_audit_creation_method	'MofGen! by Chris Wilmer'
_symmetry_space_group_name_H-M	'P1'
_symmetry_Int_Tables_number	1
_symmetry_cell_setting	triclinic
loop_
_symmetry_equiv_pos_as_xyz
  x,y,z
_cell_length_a	10.489741
_cell_length_b	10.489741
_cell_length_c	9.565339
_cell_angle_alpha	90.000516
_cell_angle_beta	89.999100
_cell_angle_gamma	84.539174
loop_
_atom_site_label
_atom_site_type_symbol
_atom_site_fract_x
_atom_site_fract_y
_atom_site_fract_z
O1	O	1.694053	0.179959	-0.116173
O2	O	1.322857	0.196852	-0.116194
O3	O	1.516901	0.002807	-0.116175
O4	O	1.500009	0.374003	-0.116192
O5	O	1.516886	0.002819	0.116345
O6	O	1.322842	0.196864	0.116326
O7	O	1.694038	0.179971	0.116347
Zn8	Zn	1.508437	0.188419	0.153254
Zn9	Zn	1.508458	0.188403	-0.153101
O10	O	1.499993	0.374015	0.116328
C11	C	1.275318	0.195582	0.000063
C12	C	1.133688	0.191765	0.000055
C13	C	1.065548	0.068300	0.000074
C14	C	0.973429	0.126617	-0.114571
C15	C	0.973448	0.126659	0.114676
C16	C	1.043435	0.250133	-0.114684
C17	C	1.043463	0.250157	0.114665
C18	C	0.951371	0.308564	-0.000007
C19	C	1.515618	-0.044718	0.000084
C20	C	1.511801	-0.186348	0.000082
C21	C	1.388336	-0.254488	0.000064
C22	C	1.446652	-0.346604	0.114712
C23	C	1.446696	-0.346591	-0.114534
C24	C	1.570168	-0.276599	0.114824
C25	C	1.570195	-0.276576	-0.114525
C26	C	1.628600	-0.368665	0.000150
C27	C	1.741577	0.181241	0.000087
C28	C	1.883206	0.185058	0.000086
C29	C	1.501277	0.421541	0.000066
C30	C	1.505094	0.563170	0.000059
N31	N	1.508433	0.188429	0.362334
N32	N	1.508472	0.188383	-0.362180
C33	C	1.418666	0.278138	0.453528
C34	C	1.534163	0.303949	0.546712
C35	C	1.392986	0.162629	0.546704
C36	C	1.623988	0.214298	0.453466
C37	C	1.482735	0.072928	0.453451
C38	C	1.598314	0.098690	0.546593
H39	H	0.942421	0.074372	-0.211491
C40	C	1.342669	-0.044577	0.315485
C41	C	1.453311	-0.058861	0.398087
H42	H	1.324500	-0.125937	0.281298
H43	H	1.272697	-0.008540	0.370142
H44	H	1.355786	0.010420	0.238979
H45	H	1.440190	-0.113850	0.474599
H46	H	1.523299	-0.094916	0.343427
C47	C	0.808843	0.464571	0.119995
C48	C	0.884636	0.445719	-0.000090
H49	H	0.767649	0.549245	0.119940
H50	H	0.746120	0.404968	0.120799
H51	H	0.861367	0.452305	0.200689
H52	H	0.832111	0.457975	-0.080784
H53	H	0.947368	0.505340	-0.000906
H54	H	1.721659	0.236217	0.412683
C55	C	1.374332	-0.521718	-0.244645
C56	C	1.376160	-0.388420	-0.245381
H57	H	1.330771	-0.547533	-0.325416
H58	H	1.459671	-0.561176	-0.244796
H59	H	1.331292	-0.546842	-0.163230
H60	H	1.419208	-0.363296	-0.326792
H61	H	1.290805	-0.348948	-0.245243
C62	C	1.167307	0.227273	0.554994
C63	C	1.261167	0.133179	0.601983
H64	H	1.085926	0.209092	0.589110
H65	H	1.186189	0.308680	0.588307
H66	H	1.166139	0.227845	0.455692
H67	H	1.262341	0.132613	0.701286
H68	H	1.242280	0.051751	0.568677
C69	C	1.050442	0.255797	0.365455
C70	C	1.085388	0.320624	0.245506
H71	H	1.076337	0.299291	0.446236
H72	H	0.960186	0.253211	0.366867
H73	H	1.091123	0.170929	0.364617
H74	H	1.044700	0.405490	0.246339
H75	H	1.175661	0.323225	0.244094
H76	H	0.942463	0.074401	0.211599
C77	C	1.575840	-0.269605	-0.365315
C78	C	1.640665	-0.234655	-0.245367
H79	H	1.619335	-0.243714	-0.446097
H80	H	1.573253	-0.359861	-0.366723
H81	H	1.490972	-0.228924	-0.364481
H82	H	1.725530	-0.275345	-0.246197
H83	H	1.643266	-0.144383	-0.243960
C84	C	1.163226	-0.279720	0.001528
C85	C	1.251303	-0.187454	0.000210
H86	H	1.078631	-0.238333	0.001632
H87	H	1.175331	-0.332267	-0.079150
H88	H	1.175973	-0.331120	0.083014
H89	H	1.238562	-0.136059	-0.081281
H90	H	1.239193	-0.134885	0.080896
C91	C	1.097490	-0.133073	-0.120286
C92	C	1.132600	-0.068726	-0.000079
H93	H	1.138896	-0.217660	-0.120389
H94	H	1.007329	-0.136453	-0.121100
H95	H	1.122453	-0.088754	-0.200896
H96	H	1.107627	-0.113040	0.080531
H97	H	1.222780	-0.065353	0.000747
C98	C	1.469405	0.529603	0.555063
C99	C	1.563542	0.435776	0.602029
H100	H	1.487535	0.610987	0.589219
H101	H	1.468837	0.530802	0.455775
H102	H	1.388001	0.510661	0.588368
H103	H	1.644945	0.454713	0.568716
H104	H	1.564124	0.434579	0.701338
C105	C	1.316555	0.378840	0.251969
C106	C	1.316283	0.380636	0.398342
H107	H	1.253347	0.442114	0.217901
H108	H	1.398399	0.396351	0.218688
H109	H	1.298082	0.296837	0.220051
H110	H	1.334766	0.462636	0.430260
H111	H	1.234420	0.363133	0.431637
C112	C	1.218226	0.323471	-0.244544
C113	C	1.085049	0.320583	-0.245685
H114	H	1.243916	0.366954	-0.325424
H115	H	1.242748	0.367042	-0.163247
H116	H	1.258330	0.238370	-0.244212
H117	H	1.044944	0.405685	-0.246007
H118	H	1.060514	0.277015	-0.327004
H119	H	1.674328	0.022802	0.587199
H120	H	1.394405	-0.377611	0.211633
H121	H	1.730204	-0.418089	0.000220
C122	C	1.643501	-0.101805	0.244680
C123	C	1.640614	-0.234981	0.245826
H124	H	1.686982	-0.076112	0.325560
H125	H	1.687075	-0.077284	0.163384
H126	H	1.558400	-0.061701	0.244345
H127	H	1.725716	-0.275085	0.246151
H128	H	1.597043	-0.259515	0.327144
