data_functionalizedCrystal
_audit_creation_method	'MofGen! by Chris Wilmer'
_symmetry_space_group_name_H-M	'P1'
_symmetry_Int_Tables_number	1
_symmetry_cell_setting	triclinic
loop_
_symmetry_equiv_pos_as_xyz
  x,y,z
_cell_length_a	16.625546
_cell_length_b	12.759401
_cell_length_c	12.759393
_cell_angle_alpha	90.019559
_cell_angle_beta	89.963806
_cell_angle_gamma	89.979382
loop_
_atom_site_label
_atom_site_type_symbol
_atom_site_fract_x
_atom_site_fract_y
_atom_site_fract_z
Zn1	Zn	-0.320994	-1.606199	-0.593977
Zn2	Zn	-0.455851	-1.606069	-0.418283
Zn3	Zn	-0.321031	-1.430501	-0.418313
Zn4	Zn	-0.455784	-1.430465	-0.593921
O5	O	-0.388415	-1.518308	-0.506124
O6	O	-0.338895	-1.753202	-0.570682
O7	O	-0.438010	-1.582740	-0.271266
O8	O	-0.208194	-1.453876	-0.441652
O9	O	-0.437974	-1.753107	-0.441600
O10	O	-0.208166	-1.582961	-0.570711
O11	O	-0.338959	-1.453751	-0.271288
O12	O	-0.338894	-1.283475	-0.441597
O13	O	-0.437860	-1.453816	-0.740950
O14	O	-0.437896	-1.283449	-0.570616
O15	O	-0.338830	-1.582927	-0.740991
O16	O	-0.568674	-1.582706	-0.441546
O17	O	-0.568625	-1.453691	-0.570587
C18	C	-0.388393	-1.245341	-0.506105
C19	C	-0.388403	-1.128564	-0.506121
C20	C	-0.440034	-1.073716	-0.573189
C21	C	-0.440041	-0.963992	-0.573198
C22	C	-0.336783	-0.963974	-0.439063
C23	C	-0.336773	-1.073696	-0.439060
C24	C	-0.499652	-1.073726	-0.650628
C25	C	-0.499659	-0.964002	-0.650637
C26	C	-0.597906	-1.518209	-0.506080
C27	C	-0.687527	-1.518263	-0.506096
C28	C	-1.015702	-1.518446	-0.506206
C29	C	-0.924394	-1.518392	-0.506178
C30	C	-0.851618	-1.518353	-0.506150
C31	C	-0.760303	-1.518301	-0.506124
C32	C	-0.178106	-1.518437	-0.506191
C33	C	-0.088485	-1.518492	-0.506220
C34	C	-0.388334	-1.518382	-0.780157
C35	C	-0.388299	-1.518413	-0.896934
C36	C	-0.388431	-0.792342	-0.506139
C37	C	-0.388421	-0.909118	-0.506134
C38	C	-0.336729	-1.585650	-0.951819
C39	C	-0.336700	-1.585675	-1.061543
C40	C	-0.439817	-1.451223	-1.061488
C41	C	-0.439842	-1.451194	-0.951765
C42	C	-0.277198	-1.663279	-0.951852
C43	C	-0.277169	-1.663304	-1.061576
C44	C	-0.388438	-1.518296	-0.233156
C45	C	-0.388245	-1.518468	-0.116380
H46	H	-0.477368	-0.930008	-0.727991
H47	H	-0.562091	-0.934196	-0.628698
H48	H	-0.217837	-1.634200	-1.095630
H49	H	-0.294748	-0.919287	-0.384465
H50	H	-0.294724	-1.118349	-0.384454
H51	H	-0.299585	-1.740546	-0.917815
N52	N	-0.478748	-1.111114	-0.752752
N53	N	-0.412337	-1.087475	-0.792153
H54	H	-0.397572	-1.113879	-0.864277
H55	H	-0.293896	-1.744671	-1.091354
H56	H	-0.481832	-1.396439	-0.907082
N57	N	-0.492456	-1.382566	-1.117515
N58	N	-0.492423	-1.382595	-1.215480
H59	H	-0.529600	-1.334104	-1.255049
N60	N	-0.198866	-1.635963	-0.914539
N61	N	-0.143657	-1.616735	-0.978229
H62	H	-0.088338	-1.597435	-0.951877
H63	H	-0.558940	-1.107730	-0.621338
