data_functionalizedCrystal
_audit_creation_method	'MofGen! by Chris Wilmer'
_symmetry_space_group_name_H-M	'P1'
_symmetry_Int_Tables_number	1
_symmetry_cell_setting	triclinic
loop_
_symmetry_equiv_pos_as_xyz
  x,y,z
_cell_length_a	14.560438
_cell_length_b	20.875641
_cell_length_c	20.875641
_cell_angle_alpha	60.089808
_cell_angle_beta	90.001786
_cell_angle_gamma	62.439823
loop_
_atom_site_label
_atom_site_type_symbol
_atom_site_fract_x
_atom_site_fract_y
_atom_site_fract_z
Zr1	Zr	0.926805	0.694341	-0.105763
O2	O	0.792213	0.820582	-0.209029
O3	O	0.963029	0.563086	-0.070832
O4	O	0.976555	0.687109	-0.204304
O5	O	0.773747	0.704013	0.026003
O6	O	1.127695	0.687108	-0.204303
O7	O	0.778688	0.696559	-0.075557
O8	O	1.103500	0.465253	0.034455
O9	O	0.797942	0.925868	-0.212755
O10	O	1.097357	0.618930	-0.059890
O11	O	0.980875	0.624493	0.015901
O12	O	0.996800	0.770514	-0.141245
O13	O	0.880318	0.776077	-0.065453
Zr14	Zr	1.159977	0.706227	0.056213
Zr15	Zr	1.167856	0.694340	-0.105762
Zr16	Zr	0.918926	0.706229	0.056212
Zr17	Zr	0.935942	0.862259	-0.111706
Zr18	Zr	1.150840	0.538310	0.062156
O19	O	1.123753	0.837483	0.021282
O20	O	1.134957	0.820580	-0.209026
O21	O	0.781009	0.837485	0.021279
O22	O	1.294569	0.579986	0.159479
O23	O	1.305773	0.563084	-0.070829
O24	O	0.951825	0.579988	0.159476
O25	O	1.313035	0.696556	-0.075553
O26	O	1.110227	0.713460	0.154754
O27	O	0.959087	0.713460	0.154753
O28	O	1.308094	0.704010	0.026007
O29	O	0.989545	0.925866	-0.212753
O30	O	1.097237	0.474702	0.163203
O31	O	1.288840	0.474701	0.163205
O32	O	1.295104	0.465252	0.034456
O33	O	0.791678	0.935317	-0.084006
O34	O	0.983282	0.935315	-0.084005
O35	O	1.089982	0.630055	0.091695
O36	O	1.206464	0.624491	0.015903
O37	O	1.105907	0.776076	-0.065451
O38	O	0.989425	0.781639	0.010340
C39	C	1.031963	0.490245	-0.017342
C40	C	1.028085	0.418960	-0.014819
C41	C	1.087061	0.382566	-0.053196
C42	C	1.083420	0.315581	-0.050819
C43	C	1.020794	0.284996	-0.010068
C44	C	0.961815	0.321393	0.028314
C45	C	0.965464	0.388372	0.025941
C46	C	1.003367	0.084985	0.001278
C47	C	0.999721	0.018003	0.003646
C48	C	1.121327	0.012195	-0.075486
C49	C	1.124965	0.079179	-0.077859
C50	C	1.065991	0.115567	-0.039474
N51	N	1.017067	0.216529	-0.007638
N52	N	1.069724	0.184028	-0.041899
C53	C	0.741873	0.700286	-0.024777
C54	C	0.639540	0.700287	-0.024778
C55	C	0.594186	0.696183	-0.080729
C56	C	0.498038	0.696177	-0.080725
C57	C	0.492604	0.704384	0.031185
C58	C	0.588755	0.704383	0.031183
C59	C	0.403637	0.640390	-0.120650
C60	C	0.358270	0.636300	-0.176612
C61	C	0.358132	0.683542	-0.253313
C62	C	0.403347	0.734895	-0.274065
C63	C	0.448704	0.738992	-0.218106
C64	C	0.448856	0.691730	-0.141397
C65	C	0.683153	0.760177	0.071101
C66	C	0.728508	0.764281	0.127057
C67	C	0.728643	0.717045	0.203760
C68	C	0.683417	0.665706	0.224511
C69	C	0.638062	0.661602	0.168555
C70	C	0.637934	0.708837	0.091853
C71	C	1.344909	0.700283	-0.024773
C72	C	1.447242	0.700282	-0.024772
C73	C	1.053248	0.685415	-0.227381
C74	C	1.056593	0.680369	-0.296144
C75	C	1.054819	0.910324	-0.032208
C76	C	1.058698	0.981609	-0.034731
C77	C	1.005676	0.757121	-0.370915
C78	C	1.008834	0.752374	-0.435522
C79	C	1.062901	0.670874	-0.425356
C80	C	1.113824	0.594116	-0.350577
C81	C	1.110673	0.598863	-0.285972
C82	C	1.077961	0.648190	-0.614022
C83	C	1.081106	0.643448	-0.678635
C84	C	0.976116	0.801707	-0.763575
C85	C	0.972964	0.806448	-0.698965
C86	C	1.023892	0.729689	-0.624192
N87	N	1.066127	0.666020	-0.491394
N88	N	1.020672	0.734544	-0.558156
C89	C	1.033535	0.715154	0.177831
C90	C	1.030189	0.720200	0.246594
C91	C	1.333481	0.490243	-0.017340
C92	C	1.431935	0.418957	-0.014816
C93	C	1.022107	0.505114	0.185264
C94	C	1.014883	0.438875	0.256550
C95	C	1.323625	0.505113	0.185267
C96	C	1.418733	0.438873	0.256553
C97	C	0.763157	0.895456	-0.234817
C98	C	0.668049	0.961696	-0.306103
C99	C	0.753301	0.910326	-0.032210
C100	C	0.654847	0.981612	-0.034734
C101	C	1.064675	0.895454	-0.234814
C102	C	1.071899	0.961693	-0.306100
C103	C	1.421218	0.382577	-0.053201
C104	C	1.513718	0.315604	-0.050845
C105	C	1.616934	0.285009	-0.010100
C106	C	1.627649	0.321396	0.028286
C107	C	1.535151	0.388372	0.025926
C108	C	1.068443	0.410673	0.329596
C109	C	1.061651	0.348444	0.396582
C110	C	1.001306	0.314415	0.390520
C111	C	0.947739	0.342624	0.317466
C112	C	0.954525	0.404856	0.250481
C113	C	1.524210	0.404862	0.250467
C114	C	1.613585	0.342632	0.317441
C115	C	1.597481	0.314409	0.390501
C116	C	1.491993	0.348426	0.396585
C117	C	1.402621	0.410660	0.329611
C118	C	0.562573	0.995715	-0.300017
C119	C	0.473199	1.057966	-0.366992
C120	C	0.489303	1.086192	-0.440052
C121	C	0.594790	1.052171	-0.446136
C122	C	0.684162	0.989925	-0.379162
C123	C	0.665565	1.017998	0.003644
C124	C	0.573067	1.084988	0.001270
C125	C	0.469851	1.115586	-0.039478
C126	C	0.459135	1.079196	-0.077861
C127	C	0.551633	1.012211	-0.075491
C128	C	1.132254	0.995703	-0.300013
C129	C	1.139063	1.057933	-0.366986
C130	C	1.085509	1.086157	-0.440046
C131	C	1.025152	1.052140	-0.446132
C132	C	1.018351	0.989907	-0.379159
H133	H	1.131444	0.285949	-0.082068
H134	H	1.692243	0.230472	-0.008183
C135	C	0.403792	0.588421	-0.036278
H136	H	0.437291	0.598206	-0.005919
H137	H	0.331160	0.607119	-0.034734
H138	H	0.443036	0.527872	-0.016124
C139	C	1.140554	0.553793	-0.667450
H140	H	1.170432	0.508758	-0.613665
H141	H	1.090674	0.548671	-0.690889
H142	H	1.197238	0.548639	-0.690888
C143	C	0.584868	1.125008	0.043492
H144	H	0.515003	1.169294	0.036239
H145	H	0.619667	1.080742	0.097243
H146	H	0.627203	1.149695	0.023025
H147	H	1.711700	0.296475	0.061460
H148	H	0.321188	0.680212	-0.298878
C149	C	1.092993	1.154614	-0.513712
H150	H	1.052463	1.166552	-0.558100
H151	H	1.064322	1.206868	-0.515558
H152	H	1.166823	1.132645	-0.512929
H153	H	1.504972	0.285986	-0.082104
H154	H	1.670263	0.263734	0.445029
C155	C	0.544837	0.964686	-0.219661
H156	H	0.469215	0.993878	-0.225640
H157	H	0.575141	0.903422	-0.190567
H158	H	0.579196	0.977641	-0.193207
H159	H	1.543892	0.417985	0.057188
H160	H	1.478897	0.325438	0.456079
C161	C	1.286600	0.448062	0.336311
H162	H	1.235670	0.489173	0.285964
H163	H	1.274263	0.401938	0.364865
H164	H	1.278286	0.476164	0.362232
C165	C	0.390987	1.154648	-0.513716
H166	H	0.325865	1.170853	-0.499621
H167	H	0.395227	1.204771	-0.544804
H168	H	0.391203	1.130540	-0.542162
H169	H	1.117583	0.438373	0.334547
H170	H	1.105277	0.325484	0.456059
C171	C	0.357177	1.095370	-0.360286
H172	H	0.360394	1.069629	-0.307181
H173	H	0.321799	1.156876	-0.386070
H174	H	0.317767	1.082662	-0.383459
C175	C	0.881378	0.305176	0.310808
H176	H	0.885027	0.264066	0.361168
H177	H	0.807833	0.351276	0.282262
H178	H	0.910357	0.277061	0.284898
H179	H	0.394543	1.170129	-0.041402
H180	H	0.995789	0.263742	0.445070
C181	C	0.966172	1.083245	-0.526500
H182	H	0.929231	1.054092	-0.520542
H183	H	0.915223	1.144511	-0.555539
H184	H	1.017660	1.070322	-0.552998
H185	H	1.152134	0.536363	-0.225090
H186	H	0.969199	0.962223	-0.384126
C187	C	0.345595	1.112853	-0.122674
H188	H	0.292050	1.157950	-0.118576
H189	H	0.341093	1.135167	-0.175652
H190	H	0.333587	1.066202	-0.101424
H191	H	0.542891	0.982587	-0.106741
C192	C	0.895613	0.435866	0.170135
H193	H	0.858713	0.406677	0.176126
H194	H	0.844639	0.497131	0.141037
H195	H	0.947149	0.422903	0.143679
H196	H	1.175865	0.972734	-0.240530
C197	C	1.541946	0.435899	0.170110
H198	H	1.617569	0.406731	0.176089
H199	H	1.507602	0.422949	0.143647
H200	H	1.511628	0.497169	0.141026
H201	H	0.607890	1.075161	-0.505629
H202	H	1.188210	1.085623	-0.362017
C203	C	0.800179	0.952500	-0.385865
H204	H	0.796960	0.978223	-0.438970
H205	H	0.839610	0.965194	-0.362696
H206	H	0.835537	0.890991	-0.360077
C207	C	0.403186	0.786864	-0.358439
H208	H	0.369707	0.777064	-0.388792
H209	H	0.363945	0.847410	-0.378595
H210	H	0.475824	0.768164	-0.359982
H211	H	0.749600	0.993092	0.036831
H212	H	1.699469	0.314941	0.312474
H213	H	1.138053	0.407467	-0.086384
H214	H	1.175960	0.104079	-0.111042
H215	H	0.948718	-0.006895	0.036830
C216	C	1.186205	-0.027842	-0.117696
H217	H	1.175074	-0.072118	-0.110442
H218	H	1.162285	0.016418	-0.171449
H219	H	1.261298	-0.052544	-0.097223
H220	H	0.910830	0.296482	0.061499
C221	C	0.938487	0.125011	0.043491
H222	H	0.900658	0.097209	0.068092
H223	H	0.986885	0.116782	0.081320
H224	H	0.887869	0.185745	0.007097
H225	H	0.917436	0.418006	0.057189
H226	H	0.635535	0.692845	-0.126295
C227	C	0.682998	0.812141	-0.013276
H228	H	0.649519	0.802338	-0.043627
H229	H	0.643753	0.872687	-0.033432
H230	H	0.755633	0.793444	-0.014822
H231	H	0.485513	0.780805	-0.235003
H232	H	0.451244	0.707721	0.076746
C233	C	0.308541	0.579814	-0.153790
H234	H	0.281494	0.584153	-0.198106
H235	H	0.362652	0.520611	-0.115300
H236	H	0.250776	0.599850	-0.133898
H237	H	0.601237	0.619797	0.185456
C238	C	0.683559	0.613747	0.308883
H239	H	0.717055	0.623538	0.339237
H240	H	0.610927	0.632447	0.310424
H241	H	0.722803	0.553196	0.329044
H242	H	0.765567	0.720398	0.249318
C243	C	0.778152	0.820827	0.104218
H244	H	0.805140	0.816534	0.148522
H245	H	0.835923	0.800844	0.084316
H246	H	0.723976	0.880015	0.065728
C247	C	0.952821	0.836802	-0.517767
H248	H	0.920157	0.886020	-0.514568
H249	H	1.005132	0.838246	-0.544736
H250	H	0.898596	0.838236	-0.544735
H251	H	0.961641	0.823488	-0.379201
H252	H	1.337183	0.407486	-0.086390
H253	H	0.934655	0.864199	-0.824460
C254	C	0.913489	0.896098	-0.710152
H255	H	0.883622	0.941131	-0.763937
H256	H	0.856811	0.901236	-0.686715
H257	H	0.963350	0.901241	-0.686713
C258	C	1.133967	0.563759	-0.531782
H259	H	1.166605	0.514543	-0.534984
H260	H	1.188191	0.562315	-0.504808
H261	H	1.081643	0.562323	-0.504818
C262	C	1.173295	0.504467	-0.339394
H263	H	1.167871	0.512631	-0.388579
H264	H	1.247615	0.472730	-0.311354
H265	H	1.141068	0.472737	-0.311358
