data_functionalizedCrystal
_audit_creation_method	'MofGen! by Chris Wilmer'
_symmetry_space_group_name_H-M	'P1'
_symmetry_Int_Tables_number	1
_symmetry_cell_setting	triclinic
loop_
_symmetry_equiv_pos_as_xyz
  x,y,z
_cell_length_a	14.853558
_cell_length_b	14.853567
_cell_length_c	13.930277
_cell_angle_alpha	90.001389
_cell_angle_beta	89.993178
_cell_angle_gamma	83.633032
loop_
_atom_site_label
_atom_site_type_symbol
_atom_site_fract_x
_atom_site_fract_y
_atom_site_fract_z
O1	O	1.196374	0.117661	-0.079811
O2	O	0.933913	0.131691	-0.079814
O3	O	1.072154	-0.006554	-0.079815
O4	O	1.058133	0.255906	-0.079810
O5	O	1.072134	-0.006551	0.079846
O6	O	0.933893	0.131694	0.079847
O7	O	1.196354	0.117664	0.079851
Zn8	Zn	1.065120	0.124679	0.105199
Zn9	Zn	1.065147	0.124675	-0.105162
O10	O	1.058113	0.255909	0.079852
C11	C	0.900314	0.131058	0.000016
C12	C	0.800230	0.129158	0.000014
C13	C	0.753221	0.128265	-0.087021
C14	C	0.753197	0.128257	0.087048
C15	C	0.659164	0.126467	0.087050
C16	C	0.612155	0.125574	0.000015
C17	C	0.659179	0.126471	-0.087022
C18	C	0.612134	0.125560	0.174085
C19	C	0.518094	0.123768	0.174090
C20	C	0.471082	0.122882	0.087054
C21	C	0.518113	0.123781	0.000014
C22	C	0.471103	0.122888	-0.087022
C23	C	0.518131	0.123793	-0.174063
C24	C	0.612167	0.125585	-0.174059
C25	C	0.377046	0.121090	0.087049
C26	C	0.377061	0.121094	-0.087023
C27	C	1.071509	-0.040141	0.000013
C28	C	1.069605	-0.140225	0.000004
C29	C	0.979439	-0.552756	0.000021
C30	C	1.143673	-0.574042	0.000024
C31	C	1.145463	-0.480009	0.000018
C32	C	1.064240	-0.422344	0.000015
C33	C	0.981227	-0.458713	0.000019
C34	C	1.228474	-0.443632	0.000024
C35	C	1.230268	-0.349593	0.000020
C36	C	1.149044	-0.291927	0.000011
C37	C	1.066027	-0.328301	0.000013
C38	C	0.984805	-0.270637	0.000010
C39	C	0.901787	-0.307009	0.000006
C40	C	0.900003	-0.401047	0.000009
C41	C	1.150828	-0.197890	0.000007
C42	C	0.986592	-0.176594	0.000008
C43	C	1.229953	0.118296	0.000019
C44	C	1.330037	0.120197	0.000014
C45	C	1.058758	0.289496	0.000022
C46	C	1.060662	0.389580	0.000024
N47	N	1.065109	0.124681	0.248765
N48	N	1.065166	0.124666	-0.248728
C49	C	1.010368	0.069903	0.299026
C50	C	1.119861	0.179454	0.299009
C51	C	1.119872	0.179454	0.399505
C52	C	1.065131	0.124676	0.449766
C53	C	1.010380	0.069899	0.399531
C54	C	1.174629	0.234223	0.449747
C55	C	1.174643	0.234224	0.550249
C56	C	1.119897	0.179450	0.600512
C57	C	1.065143	0.124671	0.550271
C58	C	1.010403	0.069894	0.600532
C59	C	0.955643	0.015119	0.550293
C60	C	0.955634	0.015125	0.449794
C61	C	1.119906	0.179444	0.701011
C62	C	1.010414	0.069889	0.701037
H63	H	0.479844	0.123061	-0.244927
O64	O	1.231382	-0.162407	0.000055
C65	C	1.215545	-0.067042	0.000022
H66	H	1.145211	-0.045046	0.030242
H67	H	1.219960	-0.040869	-0.076578
C68	C	1.373678	-0.054953	0.025522
C69	C	1.287295	-0.027938	0.062646
H70	H	1.417938	-0.030831	0.064147
H71	H	1.384348	-0.119202	0.025540
H72	H	1.377344	-0.033141	-0.038310
H73	H	1.283626	-0.049760	0.126472
H74	H	1.276625	0.036309	0.062640
H75	H	1.164433	0.224046	0.258080
H76	H	0.965833	0.025286	0.741953
H77	H	0.338792	0.120373	-0.157899
H78	H	0.650466	0.126321	-0.244923
O79	O	0.819310	-0.436271	0.000138
C80	C	0.769789	-0.406826	0.082838
H81	H	0.794432	-0.341572	0.110401
H82	H	0.780160	-0.461222	0.140745
C83	C	0.638132	-0.469477	0.023864
C84	C	0.668393	-0.389327	0.057713
H85	H	0.575585	-0.458686	0.008368
H86	H	0.671495	-0.489318	-0.031851
H87	H	0.646782	-0.514799	0.072126
H88	H	0.659753	-0.344011	0.009447
H89	H	0.635025	-0.369478	0.113420
O90	O	0.907773	-0.120453	-0.000038
C91	C	0.927148	-0.029653	-0.000010
H92	H	0.997969	-0.025957	-0.030233
H93	H	0.923749	-0.002461	0.076588
C94	C	0.770250	0.023269	-0.025507
C95	C	0.857231	0.027810	-0.062635
H96	H	0.727120	0.058717	-0.064132
H97	H	0.757196	-0.037904	-0.025522
H98	H	0.767430	0.045928	0.038324
H99	H	0.860052	0.005141	-0.126460
H100	H	0.870284	0.088981	-0.062632
O101	O	0.657781	0.126261	0.258648
C102	C	0.644905	0.047810	0.311596
H103	H	0.626128	-0.007208	0.260665
H104	H	0.588034	0.064399	0.365875
C105	C	0.756094	0.081597	0.427464
C106	C	0.733039	0.014021	0.364909
H107	H	0.810457	0.060756	0.460354
H108	H	0.764767	0.134454	0.391795
H109	H	0.708695	0.095416	0.472688
H110	H	0.780433	0.000211	0.319680
H111	H	0.724376	-0.038839	0.400572
O112	O	0.472400	0.122730	0.258615
C113	C	0.428102	0.043687	0.263807
H114	H	0.463513	-0.010299	0.214407
H115	H	0.354546	0.059971	0.240432
C116	C	0.387749	0.074582	0.428457
C117	C	0.431246	0.008273	0.367790
H118	H	0.389684	0.052738	0.492598
H119	H	0.417590	0.127837	0.424959
H120	H	0.326457	0.088146	0.408966
H121	H	0.492539	-0.005282	0.387273
H122	H	0.401415	-0.044985	0.371294
O123	O	1.227669	0.287527	0.400879
C124	C	1.172773	0.348937	0.342745
H125	H	1.101056	0.358501	0.373058
H126	H	1.171196	0.321073	0.266580
C127	C	1.299898	0.428988	0.303952
C128	C	1.211816	0.440742	0.341187
H129	H	1.323983	0.485617	0.302986
H130	H	1.336884	0.387614	0.343114
H131	H	1.298572	0.405766	0.240484
H132	H	1.213144	0.463953	0.404657
H133	H	1.174831	0.482123	0.302035
H134	H	0.965781	0.025310	0.258117
H135	H	1.164494	0.224037	0.741911
O136	O	0.822914	-0.250953	-0.000166
C137	C	0.819065	-0.195904	-0.082841
H138	H	0.865130	-0.230289	-0.140637
H139	H	0.842488	-0.127499	-0.064141
C140	C	0.664415	-0.139495	-0.049355
C141	C	0.720987	-0.181731	-0.120343
H142	H	0.603915	-0.130748	-0.072486
H143	H	0.667008	-0.176579	0.006347
H144	H	0.683945	-0.082495	-0.033777
H145	H	0.701462	-0.238734	-0.135910
H146	H	0.718388	-0.144656	-0.176049
O147	O	0.898878	-0.588232	0.000061
C148	C	0.914710	-0.683597	0.000034
H149	H	0.985033	-0.705593	0.030263
H150	H	0.910319	-0.709779	-0.076565
C151	C	0.756567	-0.695674	0.025517
C152	C	0.842936	-0.722689	0.062652
H153	H	0.712292	-0.719789	0.064139
H154	H	0.745900	-0.631424	0.025532
H155	H	0.752921	-0.717494	-0.038314
H156	H	0.846585	-0.700860	0.126478
H157	H	0.853602	-0.786936	0.062650
H158	H	1.219232	0.278825	0.591145
O159	O	1.222484	-0.630182	-0.000012
C160	C	1.203106	-0.720981	0.000022
H161	H	1.132293	-0.724678	-0.030206
H162	H	1.206480	-0.748161	0.076622
C163	C	1.360010	-0.773914	-0.025460
C164	C	1.273039	-0.778456	-0.062593
H165	H	1.403149	-0.809369	-0.064079
H166	H	1.373067	-0.712741	-0.025479
H167	H	1.362808	-0.796563	0.038374
H168	H	1.270238	-0.755797	-0.126420
H169	H	1.259983	-0.839626	-0.062586
O170	O	1.307342	-0.499685	-0.000138
C171	C	1.311222	-0.554736	-0.082816
H172	H	1.265177	-0.520353	-0.140617
H173	H	1.287792	-0.623141	-0.064124
C174	C	1.465860	-0.611143	-0.049310
C175	C	1.409313	-0.568909	-0.120305
H176	H	1.526368	-0.619890	-0.072433
H177	H	1.463246	-0.574057	0.006393
H178	H	1.446324	-0.668142	-0.033740
H179	H	1.428842	-0.511907	-0.135866
H180	H	1.411932	-0.605986	-0.176012
H181	H	0.791515	0.129005	-0.157888
H182	H	1.297865	-0.319987	0.000023
H183	H	0.791479	0.128977	0.157909
H184	H	0.338759	0.120361	0.157917
O185	O	0.902502	-0.038215	0.401102
C186	C	0.927388	-0.129681	0.425637
H187	H	0.962351	-0.133487	0.498599
H188	H	0.975707	-0.162800	0.369065
C189	C	0.799126	-0.175040	0.340683
C190	C	0.842062	-0.179715	0.430301
H191	H	0.746495	-0.205906	0.343557
H192	H	0.782361	-0.113418	0.324150
H193	H	0.839401	-0.202638	0.293550
H194	H	0.801791	-0.152108	0.477431
H195	H	0.858818	-0.241334	0.446843
H196	H	0.911077	-0.029484	0.591229
