data_functionalizedCrystal
_audit_creation_method	'MofGen! by Chris Wilmer'
_symmetry_space_group_name_H-M	'P1'
_symmetry_Int_Tables_number	1
_symmetry_cell_setting	triclinic
loop_
_symmetry_equiv_pos_as_xyz
  x,y,z
_cell_length_a	14.560438
_cell_length_b	20.016444
_cell_length_c	14.560438
_cell_angle_alpha	90.002268
_cell_angle_beta	60.000905
_cell_angle_gamma	60.002114
loop_
_atom_site_label
_atom_site_type_symbol
_atom_site_fract_x
_atom_site_fract_y
_atom_site_fract_z
Zr1	Zr	1.005319	0.643579	-0.120508
O2	O	1.196915	0.536905	-0.267153
O3	O	0.813720	0.676281	-0.075556
O4	O	1.005324	0.676277	-0.267157
O5	O	1.005309	0.536911	0.075588
O6	O	1.005331	0.786217	-0.267157
O7	O	1.005311	0.536908	-0.075552
O8	O	0.662587	0.786223	0.075581
O9	O	1.348053	0.536905	-0.267150
O10	O	0.892534	0.772275	-0.056382
O11	O	0.892527	0.690230	0.056413
O12	O	1.118116	0.690226	-0.169172
O13	O	1.118108	0.608181	-0.056377
Zr14	Zr	1.005327	0.818925	0.120543
Zr15	Zr	1.005331	0.818921	-0.120509
Zr16	Zr	1.005315	0.643584	0.120544
Zr17	Zr	1.246367	0.643580	-0.120504
Zr18	Zr	0.764279	0.818925	0.120539
O19	O	1.196926	0.786224	0.075591
O20	O	1.196932	0.786218	-0.267154
O21	O	1.196909	0.536911	0.075592
O22	O	0.813730	0.925600	0.267188
O23	O	0.813736	0.925594	-0.075557
O24	O	0.813714	0.676287	0.267189
O25	O	1.005337	0.925594	-0.075553
O26	O	1.005322	0.786227	0.267192
O27	O	1.005315	0.676287	0.267192
O28	O	1.005334	0.925597	0.075588
O29	O	1.348062	0.676278	-0.267151
O30	O	0.662583	0.786227	0.267186
O31	O	0.662592	0.925600	0.267185
O32	O	0.662596	0.925596	0.075581
O33	O	1.348050	0.536908	-0.075546
O34	O	1.348059	0.676282	-0.075546
O35	O	0.892530	0.772279	0.169207
O36	O	0.892537	0.854324	0.056413
O37	O	1.118119	0.772275	-0.056378
O38	O	1.118112	0.690230	0.056417
C39	C	0.703809	0.731252	0.000012
C40	C	0.601478	0.731252	0.000010
C41	C	0.553406	0.774077	-0.058868
C42	C	0.457246	0.774080	-0.058857
C43	C	0.457244	0.688427	0.058910
C44	C	0.553395	0.688429	0.058906
C45	C	1.005308	0.511927	0.000018
C46	C	1.005304	0.437490	0.000018
C47	C	0.887567	0.309051	0.058896
C48	C	0.887573	0.239106	0.058899
C49	C	1.123088	0.153455	-0.058863
C50	C	1.123081	0.223399	-0.058858
C51	C	1.005317	0.301197	0.000018
C52	C	1.005329	0.161308	0.000017
C53	C	1.005336	0.085470	0.000019
C54	C	1.005309	0.377040	0.000018
C55	C	1.306837	0.731253	0.000023
C56	C	1.409168	0.731253	0.000025
C57	C	1.005328	0.731247	-0.301502
C58	C	1.005330	0.731245	-0.403835
C59	C	1.005337	0.950578	0.000017
C60	C	1.005342	1.025015	0.000017
C61	C	1.123079	0.688417	-0.510786
C62	C	1.123073	0.688427	-0.606935
C63	C	0.887558	0.774093	-0.489167
C64	C	0.887565	0.774087	-0.393021
C65	C	1.005318	0.731258	0.301537
C66	C	1.005316	0.731260	0.403870
C67	C	0.703823	0.950577	0.000012
C68	C	0.601497	1.025014	0.000009
C69	C	0.703804	0.731257	0.301531
C70	C	0.601471	0.731259	0.403862
C71	C	0.703818	0.950583	0.301531
C72	C	0.601490	1.025022	0.403862
C73	C	1.306827	0.511922	-0.301496
C74	C	1.409155	0.437483	-0.403827
C75	C	1.306822	0.511927	0.000024
C76	C	1.409148	0.437491	0.000026
C77	C	1.306842	0.731247	-0.301496
C78	C	1.409174	0.731245	-0.403827
C79	C	0.553442	1.017142	-0.058879
C80	C	0.457309	1.087076	-0.058904
C81	C	0.409227	1.164883	-0.000032
C82	C	0.457291	1.172753	0.058858
C83	C	0.553429	1.102820	0.058875
C84	C	0.553440	1.102813	0.393040
C85	C	0.457306	1.172763	0.489181
C86	C	0.409217	1.164920	0.596144
C87	C	0.457277	1.087120	0.606964
C88	C	0.553416	1.017172	0.510823
C89	C	1.457217	0.359692	-0.393005
C90	C	1.553382	0.289742	-0.489146
C91	C	1.601476	0.297585	-0.596109
C92	C	1.553409	0.375385	-0.606929
C93	C	1.457253	0.445333	-0.510788
C94	C	1.457214	0.445363	0.058904
C95	C	1.553373	0.375428	0.058902
C96	C	1.601459	0.297622	0.000027
C97	C	1.553390	0.289751	-0.058859
C98	C	1.457239	0.359685	-0.058862
C99	C	0.553395	0.774088	0.510815
C100	C	0.457251	0.774080	0.606962
C101	C	0.457265	0.688414	0.489190
C102	C	0.553413	0.688417	0.393045
H103	H	0.592534	0.653555	0.106856
H104	H	1.218967	0.090105	-0.106799
O105	O	1.405353	0.351221	-0.277645
H106	H	1.423786	0.381050	-0.231013
H107	H	0.592525	0.808969	0.519629
O108	O	0.405398	0.642227	0.122408
H109	H	0.454979	0.612451	0.163353
H110	H	1.679772	0.240622	-0.674383
O111	O	0.605213	0.933268	0.522501
H112	H	0.555599	0.939575	0.613033
H113	H	0.791674	0.808967	-0.305930
H114	H	0.592551	0.808947	-0.106822
O115	O	0.760558	0.392963	0.122405
H116	H	0.678681	0.386670	0.163355
H117	H	0.418123	0.653535	0.480396
O118	O	1.605191	0.205836	-0.477465
H119	H	1.555565	0.212141	-0.386933
O120	O	0.405379	0.820285	0.722322
H121	H	0.454943	0.850081	0.713685
O122	O	1.605277	0.383840	-0.722298
H123	H	1.680201	0.322127	-0.787322
O124	O	0.405387	1.078665	0.722333
H125	H	0.330449	1.140378	0.787357
H126	H	0.592561	0.653537	0.305953
O127	O	0.605300	1.111291	0.277684
H128	H	0.586835	1.081490	0.231054
H129	H	1.592556	0.226392	-0.106793
H130	H	1.218972	0.216998	-0.106801
O131	O	0.760565	0.247584	0.122397
H132	H	0.754919	0.217779	0.187483
H133	H	1.418106	0.353264	-0.106805
O134	O	0.405425	1.256674	0.122359
H135	H	0.299362	1.290577	0.187428
O136	O	0.405410	0.820260	-0.122376
H137	H	0.361626	0.886085	-0.088370
O138	O	1.250088	0.642214	-0.522441
H139	H	1.306553	0.666969	-0.569117
O140	O	1.250072	0.642231	-0.722293
H141	H	1.331956	0.612436	-0.713654
H142	H	0.791678	0.808973	-0.480376
H143	H	0.592590	0.953794	-0.106833
O144	O	1.405400	0.529237	-0.522466
H145	H	1.454993	0.522930	-0.612998
H146	H	0.330944	1.221821	-0.000054
O147	O	0.405468	1.078579	-0.122413
H148	H	0.455042	1.012725	-0.163325
H149	H	0.592543	1.109241	0.106836
H150	H	0.418185	1.236104	0.480352
O151	O	0.305505	1.240368	0.699835
H152	H	0.342408	1.277303	0.699762
O153	O	1.405386	0.529275	0.122393
H154	H	1.361603	0.536392	0.212884
O155	O	1.605193	0.383926	0.122433
H156	H	1.555576	0.449780	0.163388
H157	H	1.679752	0.240684	0.000040
