data_functionalizedCrystal
_audit_creation_method	'MofGen! by Chris Wilmer'
_symmetry_space_group_name_H-M	'P1'
_symmetry_Int_Tables_number	1
_symmetry_cell_setting	triclinic
loop_
_symmetry_equiv_pos_as_xyz
  x,y,z
_cell_length_a	15.995292
_cell_length_b	17.019294
_cell_length_c	14.472310
_cell_angle_alpha	86.119952
_cell_angle_beta	89.985801
_cell_angle_gamma	83.431263
loop_
_atom_site_label
_atom_site_type_symbol
_atom_site_fract_x
_atom_site_fract_y
_atom_site_fract_z
O1	O	1.110907	0.101455	-0.084937
O2	O	0.867110	0.114059	-0.085936
O3	O	0.995808	-0.007076	-0.076295
O4	O	0.982209	0.222591	-0.094578
O5	O	0.995775	-0.007069	0.077386
O6	O	0.867077	0.114066	0.067745
O7	O	1.110874	0.101463	0.068744
Cu8	Cu	0.988972	0.107765	0.082277
Cu9	Cu	0.989011	0.107757	-0.099469
O10	O	0.982176	0.222598	0.059103
C11	C	0.835899	0.113550	-0.009054
C12	C	0.742947	0.112012	-0.008930
C13	C	0.405216	0.106358	-0.008491
C14	C	0.428425	0.193791	-0.015794
C15	C	0.525098	0.195452	-0.015576
C16	C	0.572768	0.109164	-0.008709
C17	C	0.543699	0.065456	0.082527
C18	C	0.446910	0.064403	0.082680
C19	C	0.447094	0.062610	-0.091942
C20	C	0.543583	0.065850	-0.093356
C21	C	0.667462	0.110745	-0.008830
C22	C	0.310522	0.104775	-0.008364
C23	C	0.995275	-0.036461	0.002883
C24	C	0.993727	-0.124031	0.009848
C25	C	0.993020	-0.165171	-0.070650
C26	C	0.991560	-0.247451	-0.064103
C27	C	0.990813	-0.288591	0.022945
C28	C	0.991518	-0.247445	0.103449
C29	C	0.992972	-0.165166	0.096901
C30	C	0.986416	-0.537022	0.046908
C31	C	0.984964	-0.619307	0.053450
C32	C	0.985004	-0.619307	-0.114103
C33	C	0.986464	-0.537027	-0.120643
C34	C	0.987164	-0.495888	-0.040139
C35	C	0.989323	-0.372695	0.029639
C36	C	0.988648	-0.411784	-0.046834
C37	C	1.142085	0.101972	-0.008140
C38	C	1.235036	0.103510	-0.008270
C39	C	0.982708	0.251983	-0.020077
C40	C	0.984257	0.339553	-0.027049
N41	N	0.988951	0.107770	0.210108
N42	N	0.989040	0.107745	-0.227299
C43	C	0.989010	0.107754	0.584200
C44	C	0.919916	0.172354	0.539893
C45	C	0.920075	0.172589	0.432786
C46	C	0.988980	0.107762	0.398608
C47	C	1.076326	0.125722	0.436014
C48	C	1.075938	0.126181	0.543099
C49	C	0.971539	0.025002	0.551317
C50	C	0.969534	0.025554	0.444146
C51	C	0.988969	0.107765	0.293720
C52	C	0.989028	0.107752	0.689088
H53	H	0.432434	0.000298	0.091768
C54	C	1.097643	0.206328	0.393354
N55	N	1.113692	0.267044	0.361227
C56	C	0.588217	-0.019242	-0.093740
N57	N	0.621833	-0.083337	-0.094021
H58	H	0.984432	-0.652812	-0.179645
C59	C	0.410610	0.105320	0.168038
N60	N	0.383272	0.136146	0.232328
H61	H	0.433177	-0.001746	-0.087414
C62	C	1.147494	0.065054	0.582965
N63	N	1.201398	0.019024	0.612986
C64	C	0.831916	0.158154	0.575884
N65	N	0.765632	0.147462	0.603005
C66	C	0.887349	0.001682	0.589708
N67	N	0.823933	-0.015873	0.618623
H68	H	0.987003	-0.503538	0.112461
C69	C	0.990690	-0.292701	0.199203
N70	N	0.990069	-0.326788	0.271326
C71	C	0.987285	-0.491779	-0.216402
N72	N	0.987907	-0.457699	-0.288529
C73	C	0.934764	0.254849	0.569677
N74	N	0.945951	0.316983	0.592112
H75	H	0.575642	0.001959	0.090843
H76	H	0.563708	0.095814	0.145420
H77	H	1.128966	0.079922	0.414176
C78	C	0.989474	-0.366529	-0.142584
N79	N	0.990102	-0.332436	-0.214703
H80	H	0.905282	0.011924	0.419850
H81	H	0.931222	0.233998	0.402263
H82	H	1.016598	-0.024769	0.421377
H83	H	0.418749	0.089935	-0.160632
C84	C	0.993753	-0.119913	0.185456
N85	N	0.994338	-0.085829	0.252159
C86	C	0.993841	-0.119925	-0.166410
N87	N	0.994456	-0.085847	-0.238539
C88	C	0.984140	-0.664559	0.149213
N89	N	0.983520	-0.698643	0.221338
C90	C	0.389156	0.239070	0.065148
N91	N	0.359578	0.273173	0.126116
H92	H	0.562129	0.097674	-0.160811
C93	C	1.096741	0.207716	0.570351
N94	N	1.112404	0.269133	0.590872
H95	H	1.021927	-0.023071	0.580470
H96	H	0.544098	0.229679	-0.081210
C97	C	0.988501	-0.417957	0.125389
N98	N	0.987879	-0.452051	0.197508
C99	C	0.832354	0.158151	0.398464
N100	N	0.766278	0.147280	0.372617
H101	H	0.400402	0.227488	-0.081411
C102	C	0.549892	0.241971	0.065861
N103	N	0.568567	0.277008	0.127205
H104	H	0.990987	-0.280944	-0.129654
