data_functionalizedCrystal
_audit_creation_method	'MofGen! by Chris Wilmer'
_symmetry_space_group_name_H-M	'P1'
_symmetry_Int_Tables_number	1
_symmetry_cell_setting	triclinic
loop_
_symmetry_equiv_pos_as_xyz
  x,y,z
_cell_length_a	15.297475
_cell_length_b	18.050589
_cell_length_c	18.050582
_cell_angle_alpha	89.981088
_cell_angle_beta	80.320135
_cell_angle_gamma	80.331321
loop_
_atom_site_label
_atom_site_type_symbol
_atom_site_fract_x
_atom_site_fract_y
_atom_site_fract_z
Zn1	Zn	1.379120	-0.492492	-0.616078
Zn2	Zn	1.379009	-0.616661	-0.491881
Zn3	Zn	1.228267	-0.470980	-0.470447
Zn4	Zn	1.228206	-0.595110	-0.594582
O5	O	1.303650	-0.543811	-0.543247
O6	O	1.505349	-0.526985	-0.617569
O7	O	1.358992	-0.597352	-0.385111
O8	O	1.248350	-0.369919	-0.489791
O9	O	1.505267	-0.618212	-0.526323
O10	O	1.359180	-0.385724	-0.596785
O11	O	1.248242	-0.490320	-0.369363
O12	O	1.102015	-0.469424	-0.468948
O13	O	1.248246	-0.581482	-0.701361
O14	O	1.101970	-0.560622	-0.560149
O15	O	1.359121	-0.506089	-0.717154
O16	O	1.358933	-0.717717	-0.505479
O17	O	1.248139	-0.701883	-0.580933
C18	C	1.069259	-0.510351	-0.509891
C19	C	0.968986	-0.496054	-0.495638
C20	C	0.686338	-0.645995	-0.645114
C21	C	0.780550	-0.659433	-0.658503
C22	C	0.827664	-0.618589	-0.617788
C23	C	0.780556	-0.564306	-0.563682
C24	C	0.686335	-0.550871	-0.550287
C25	C	0.827660	-0.523465	-0.522961
C26	C	0.780552	-0.469181	-0.468855
C27	C	0.686340	-0.455748	-0.455463
C28	C	0.639227	-0.496592	-0.496178
C29	C	0.921881	-0.536900	-0.536356
C30	C	0.921878	-0.441775	-0.441529
C31	C	0.827666	-0.428338	-0.428140
C32	C	1.303541	-0.736747	-0.543219
C33	C	1.303577	-0.819298	-0.543244
C34	C	1.243387	-1.010174	-0.584267
C35	C	1.221401	-1.056472	-0.513373
C36	C	1.303666	-0.970441	-0.543266
C37	C	1.325696	-1.071232	-0.614175
C38	C	1.303750	-1.116438	-0.543294
C39	C	1.281637	-1.015645	-0.472330
C40	C	1.385970	-1.030406	-0.573183
C41	C	1.364016	-1.076686	-0.502247
C42	C	1.303615	-0.886336	-0.543251
C43	C	1.303801	-1.200542	-0.543301
C44	C	1.538957	-0.577402	-0.576735
C45	C	1.639230	-0.591717	-0.591005
C46	C	1.303689	-0.543781	-0.736958
C47	C	1.303706	-0.543768	-0.819507
C48	C	1.303784	-0.350124	-0.543295
C49	C	1.303841	-0.267587	-0.543315
C50	C	1.243468	-0.584694	-1.059752
C51	C	1.221432	-0.513813	-1.007225
C52	C	1.303782	-0.543670	-1.116638
C53	C	1.325738	-0.614590	-1.022072
C54	C	1.303743	-0.543722	-0.970647
C55	C	1.281704	-0.472746	-1.065192
C56	C	1.386048	-0.573575	-1.080049
C57	C	1.364043	-0.502651	-1.027548
C58	C	1.303803	-0.543641	-1.200739
C59	C	1.303722	-0.543743	-0.886548
C60	C	1.303663	-0.543794	-0.350297
C61	C	1.303822	-0.543623	-0.267774
H62	H	0.647988	-0.411555	-0.411399
H63	H	1.344326	-0.674546	-1.003024
H64	H	1.262957	-0.991414	-0.412347
H65	H	0.960237	-0.408518	-0.408374
H66	H	1.192336	-0.981242	-0.618870
H67	H	1.263038	-0.412763	-1.084139
H68	H	0.904375	-0.629534	-0.628693
H69	H	1.415032	-0.467932	-1.013268
H70	H	1.455615	-0.598867	-1.111663
H71	H	1.151838	-1.068326	-0.488090
H72	H	1.455517	-1.018552	-0.598496
H73	H	1.415028	-1.105475	-0.467537
H74	H	0.562512	-0.485653	-0.485281
H75	H	1.151845	-0.488538	-0.975624
H76	H	1.344296	-1.095541	-0.674131
H77	H	1.192441	-0.619307	-1.074166
H78	H	0.818898	-0.703633	-0.702555
H79	H	0.647970	-0.679249	-0.678254
H80	H	0.789297	-0.384139	-0.384086
H81	H	0.960227	-0.581098	-0.580410
