data_functionalizedCrystal
_audit_creation_method	'MofGen! by Chris Wilmer'
_symmetry_space_group_name_H-M	'P1'
_symmetry_Int_Tables_number	1
_symmetry_cell_setting	triclinic
loop_
_symmetry_equiv_pos_as_xyz
  x,y,z
_cell_length_a	19.288840
_cell_length_b	16.974885
_cell_length_c	18.366186
_cell_angle_alpha	93.647587
_cell_angle_beta	89.983729
_cell_angle_gamma	83.261670
loop_
_atom_site_label
_atom_site_type_symbol
_atom_site_fract_x
_atom_site_fract_y
_atom_site_fract_z
O1	O	0.921540	0.098542	-0.054867
O2	O	1.421540	0.598542	0.445133
O3	O	0.719301	0.111869	-0.054057
O4	O	1.219301	0.611869	0.445943
O5	O	0.826059	-0.009917	-0.061239
O6	O	1.326059	0.490083	0.438761
O7	O	0.814782	0.220328	-0.047685
O8	O	1.314782	0.720328	0.452315
O9	O	0.826041	-0.009923	0.059860
O10	O	1.326041	0.490077	0.559860
O11	O	0.719283	0.111863	0.067042
O12	O	1.219283	0.611863	0.567042
O13	O	0.921522	0.098536	0.066232
O14	O	1.421522	0.598536	0.566232
Zn15	Zn	0.820399	0.105199	0.085864
Zn16	Zn	1.320399	0.605199	0.585864
Zn17	Zn	0.820423	0.105206	-0.073689
Zn18	Zn	1.320423	0.605206	0.426311
O19	O	0.814763	0.220322	0.073414
O20	O	1.314763	0.720322	0.573414
C21	C	0.693414	0.111440	0.006471
C22	C	1.193414	0.611440	0.506471
C23	C	0.616307	0.110163	0.006405
C24	C	1.116307	0.610163	0.506405
C25	C	0.580113	0.109553	-0.059644
C26	C	1.080113	0.609553	0.440356
C27	C	0.507663	0.108344	-0.059724
C28	C	1.007663	0.608344	0.440276
C29	C	0.471414	0.107729	0.006248
C30	C	0.971414	0.607729	0.506248
C31	C	0.507617	0.108344	0.072306
C32	C	1.007617	0.608344	0.572306
C33	C	0.580063	0.109561	0.072385
C34	C	1.080063	0.609561	0.572385
C35	C	0.361992	0.059486	0.053969
C36	C	0.861992	0.559486	0.553969
C37	C	0.289547	0.058264	0.053888
C38	C	0.789547	0.558264	0.553888
C39	C	0.247963	0.103979	0.006008
C40	C	0.747963	0.603979	0.506008
C41	C	0.278834	0.150906	-0.041802
C42	C	0.778834	0.650906	0.458198
C43	C	0.351281	0.152123	-0.041724
C44	C	0.851281	0.652123	0.458276
C45	C	0.392857	0.106410	0.006170
C46	C	0.892857	0.606410	0.506170
C47	C	0.133211	0.102059	-0.060132
C48	C	0.633211	0.602059	0.439868
C49	C	0.060760	0.100855	-0.060209
C50	C	0.560760	0.600855	0.439791
C51	C	0.060716	0.100848	0.071822
C52	C	0.560716	0.600848	0.571822
C53	C	0.133164	0.102060	0.071898
C54	C	0.633164	0.602060	0.571898
C55	C	0.169408	0.102662	0.005918
C56	C	0.669408	0.602662	0.505918
C57	C	0.825621	-0.039376	-0.002424
C58	C	1.325621	0.460624	0.497576
C59	C	0.824335	-0.127147	-0.007595
C60	C	1.324335	0.372853	0.492405
C61	C	0.823720	-0.168392	0.055984
C62	C	1.323720	0.331608	0.555984
C63	C	0.822516	-0.250863	0.051119
C64	C	1.322516	0.249137	0.551119
C65	C	0.821923	-0.292086	-0.017325
C66	C	1.321923	0.207914	0.482675
C67	C	0.822541	-0.250835	-0.080909
C68	C	1.322541	0.249165	0.419091
C69	C	0.823749	-0.168367	-0.076043
C70	C	1.323749	0.331633	0.423957
C71	C	0.818314	-0.538729	-0.038955
C72	C	1.318314	-0.038729	0.461045
C73	C	0.817103	-0.621203	-0.043815
C74	C	1.317103	-0.121203	0.456185
C75	C	0.817079	-0.621225	0.088213
C76	C	1.317079	-0.121225	0.588213
C77	C	0.818284	-0.538754	0.093072
C78	C	1.318284	-0.038754	0.593072
C79	C	0.818905	-0.497511	0.029489
C80	C	1.318905	0.002489	0.529489
N81	N	0.820690	-0.376384	-0.022299
N82	N	1.320690	0.123616	0.477701
N83	N	0.820143	-0.413216	0.034464
N84	N	1.320143	0.086784	0.534464
C85	C	0.947408	0.098965	0.005703
C86	C	1.447408	0.598965	0.505703
C87	C	1.024515	0.100242	0.005763
C88	C	1.524515	0.600242	0.505763
C89	C	0.815201	0.249781	0.014598
C90	C	1.315201	0.749781	0.514598
C91	C	0.816487	0.337552	0.019764
C92	C	1.316487	0.837552	0.519764
N93	N	0.820388	0.105193	0.194755
N94	N	1.320388	0.605193	0.694755
N95	N	0.820440	0.105206	-0.182580
N96	N	1.320440	0.605206	0.317420
C97	C	0.867676	0.051292	0.229677
C98	C	1.367676	0.551292	0.729677
C99	C	0.867681	0.051289	0.305904
C100	C	1.367681	0.551289	0.805904
C101	C	0.820403	0.105199	0.347208
C102	C	1.320403	0.605199	0.847208
C103	C	0.773107	0.159104	0.312277
C104	C	1.273107	0.659104	0.812277
C105	C	0.773099	0.159100	0.236051
C106	C	1.273099	0.659100	0.736051
C107	C	0.811234	0.177244	0.472210
C108	C	1.311234	0.677244	0.972210
C109	C	0.811246	0.177248	0.548435
C110	C	1.311246	0.677248	1.048435
C111	C	0.820423	0.105209	0.582316
C112	C	1.320423	0.605209	1.082316
C113	C	0.829602	0.033163	0.539962
C114	C	1.329602	0.533163	1.039962
C115	C	0.829594	0.033159	0.463736
C116	C	1.329594	0.533159	0.963736
C117	C	0.820406	0.105208	0.429863
C118	C	1.320406	0.605208	0.929863
C119	C	0.867719	0.051301	0.699892
C120	C	1.367719	0.551301	1.199892
C121	C	0.867718	0.051296	0.776121
C122	C	1.367718	0.551296	1.276121
C123	C	0.773148	0.159118	0.782493
C124	C	1.273148	0.659118	1.282493
C125	C	0.773145	0.159115	0.706265
C126	C	1.273145	0.659115	1.206265
C127	C	0.820434	0.105208	0.664969
C128	C	1.320434	0.605208	1.164969
H129	H	0.609533	0.110059	0.126171
H130	H	1.109533	0.610059	0.626171
O131	O	0.821848	-0.295351	0.119692
O132	O	1.321848	0.204649	0.619692
H133	H	0.822453	-0.252830	0.168103
H134	H	1.322453	0.247170	0.668103
O135	O	0.816415	-0.665706	0.156791
O136	O	1.316415	-0.165706	0.656791
H137	H	0.863960	-0.657094	0.188947
H138	H	1.363960	-0.157094	0.688947
H139	H	0.906180	0.007396	0.196056
H140	H	1.406180	0.507396	0.696056
H141	H	0.818782	-0.505198	0.148807
H142	H	1.318782	-0.005198	0.648807
H143	H	0.734641	0.203009	0.677830
H144	H	1.234641	0.703009	1.177830
H145	H	0.816613	-0.654764	-0.099553
H146	H	1.316613	-0.154764	0.400447
H147	H	0.818818	-0.505159	-0.090729
H148	H	1.318818	-0.005159	0.409271
O149	O	0.839517	-0.044549	0.576485
O150	O	1.339517	0.455451	1.076485
H151	H	0.797101	-0.080595	0.559747
H152	H	1.297101	0.419405	1.059747
O153	O	0.821897	-0.295291	-0.154733
O154	O	1.321897	0.204709	0.345267
H155	H	0.820944	-0.359565	-0.147437
H156	H	1.320944	0.140435	0.352563
O157	O	0.918734	-0.006837	0.813786
O158	O	1.418734	0.493163	1.313786
H159	H	0.909960	-0.068454	0.795533
H160	H	1.409960	0.431546	1.295533
O161	O	0.824406	-0.123874	-0.144616
O162	O	1.324406	0.376126	0.355384
H163	H	0.823782	-0.166390	-0.193028
H164	H	1.323782	0.333610	0.306972
O165	O	0.918693	-0.006840	0.343585
O166	O	1.418693	0.493160	0.843585
H167	H	0.951578	-0.044320	0.302063
H168	H	1.451578	0.455680	0.802063
O169	O	0.722086	0.217235	0.198383
O170	O	1.222086	0.717235	0.698383
H171	H	0.730020	0.208171	0.138440
H172	H	1.230020	0.708171	0.638440
O173	O	0.256256	0.007656	0.105457
O174	O	0.756256	0.507656	0.605457
H175	H	0.277537	-0.055595	0.094271
H176	H	0.777537	0.444405	0.594271
H177	H	0.837066	-0.025503	0.429254
H178	H	1.337066	0.474497	0.929254
H179	H	0.906222	0.007403	0.666268
H180	H	1.406222	0.507403	1.166268
H181	H	0.803777	0.235913	0.582914
H182	H	1.303777	0.735913	1.082914
H183	H	0.734651	0.203009	0.816122
H184	H	1.234651	0.703009	1.316122
O185	O	0.384634	0.202642	-0.093327
O186	O	0.884634	0.702642	0.406673
H187	H	0.412630	0.246678	-0.061470
H188	H	0.912630	0.746678	0.438530
H189	H	0.609618	0.110043	-0.113369
H190	H	1.109618	0.610043	0.386631
H191	H	0.803749	0.235911	0.444631
H192	H	1.303749	0.735911	0.944631
O193	O	0.722117	0.217256	0.356820
O194	O	1.222117	0.717256	0.856820
H195	H	0.730072	0.208210	0.415693
H196	H	1.230072	0.708210	0.915693
H197	H	0.478188	0.107848	-0.113511
H198	H	0.978188	0.607848	0.386489
H199	H	0.031201	0.100352	0.125538
H200	H	0.531201	0.600352	0.625538
H201	H	0.244977	0.188135	-0.080788
H202	H	0.744977	0.688135	0.419212
H203	H	0.162721	0.102558	-0.113856
H204	H	0.662721	0.602558	0.386144
H205	H	0.031291	0.100363	-0.113996
H206	H	0.531291	0.600363	0.386004
H207	H	0.395845	0.022257	0.092962
H208	H	0.895845	0.522257	0.592962
O209	O	0.172209	0.102730	0.143137
O210	O	0.672209	0.602730	0.643137
H211	H	0.134833	0.102101	0.189000
H212	H	0.634833	0.602101	0.689000
H213	H	0.824191	-0.134832	0.111718
H214	H	1.324191	0.365168	0.611718
O215	O	0.468482	0.108064	0.143486
O216	O	0.968482	0.608064	0.643486
H217	H	0.412008	0.107247	0.132343
H218	H	0.912008	0.607247	0.632343
