data_functionalizedCrystal
_audit_creation_method	'MofGen! by Chris Wilmer'
_symmetry_space_group_name_H-M	'P1'
_symmetry_Int_Tables_number	1
_symmetry_cell_setting	triclinic
loop_
_symmetry_equiv_pos_as_xyz
  x,y,z
_cell_length_a	19.077105
_cell_length_b	19.077068
_cell_length_c	12.759393
_cell_angle_alpha	87.737652
_cell_angle_beta	92.320093
_cell_angle_gamma	90.115316
loop_
_atom_site_label
_atom_site_type_symbol
_atom_site_fract_x
_atom_site_fract_y
_atom_site_fract_z
Zn1	Zn	1.063019	-0.322938	0.677057
Zn2	Zn	1.058198	-0.440458	0.508115
Zn3	Zn	0.945503	-0.318244	0.494066
Zn4	Zn	0.940754	-0.435680	0.676426
O5	O	1.001869	-0.379330	0.588916
O6	O	1.160711	-0.342491	0.660790
O7	O	1.043220	-0.424281	0.359230
O8	O	0.965097	-0.220537	0.512725
O9	O	1.157170	-0.428832	0.536669
O10	O	1.051435	-0.223986	0.647167
O11	O	0.960423	-0.334491	0.348909
O12	O	0.846542	-0.329858	0.512113
O13	O	0.957002	-0.420689	0.823530
O14	O	0.843052	-0.416138	0.646092
O15	O	1.046830	-0.337858	0.823994
O16	O	1.038614	-0.538153	0.536057
O17	O	0.952328	-0.534643	0.659714
C18	C	0.819301	-0.371971	0.577510
C19	C	0.741196	-0.368839	0.572657
C20	C	0.702702	-0.412357	0.640030
C21	C	0.629315	-0.409405	0.635474
C22	C	0.594424	-0.362939	0.563539
C23	C	0.632924	-0.319417	0.496163
C24	C	0.706310	-0.322365	0.500724
C25	C	0.375138	-0.349293	0.542432
C26	C	0.301747	-0.346349	0.537873
C27	C	0.298144	-0.436337	0.677187
C28	C	0.371531	-0.439285	0.681738
C29	C	0.410024	-0.395760	0.614365
N30	N	0.519411	-0.359923	0.558878
N31	N	0.485036	-0.398773	0.619032
C32	C	0.994452	-0.561895	0.599365
C33	C	0.991343	-0.639999	0.603875
C34	C	1.034842	-0.678499	0.541670
C35	C	1.031922	-0.751886	0.545918
C36	C	0.985500	-0.786773	0.612366
C37	C	0.941999	-0.748268	0.674578
C38	C	0.944923	-0.674882	0.670335
C39	C	0.971938	-1.006060	0.631959
C40	C	0.969016	-1.079452	0.636195
C41	C	1.058940	-1.083065	0.507535
C42	C	1.061857	-1.009677	0.503293
C43	C	1.018359	-0.971179	0.565510
N44	N	0.982513	-0.861787	0.616707
N45	N	1.021350	-0.896166	0.561173
C46	C	1.185150	-0.386718	0.600367
C47	C	1.263253	-0.389867	0.605246
C48	C	1.001924	-0.379265	0.862949
C49	C	1.001947	-0.379237	0.979725
C50	C	1.009334	-0.196053	0.578450
C51	C	1.012515	-0.117951	0.573990
C52	C	1.001856	-0.379346	0.315949
C53	C	1.001977	-0.379181	0.199170
C54	C	1.048724	-0.336100	1.034830
C55	C	1.048737	-0.336070	1.144553
C56	C	0.955195	-0.422320	1.144057
C57	C	0.955179	-0.422346	1.034336
H58	H	0.737651	-0.286925	0.445867
O59	O	0.736564	-0.457418	0.710054
C60	C	0.719271	-0.441434	0.812814
H61	H	0.701379	-0.384492	0.813785
H62	H	0.767301	-0.449467	0.868056
H63	H	0.675152	-0.477416	0.839695
H64	H	0.936518	-0.974721	0.682616
H65	H	0.399934	-0.477124	0.740313
H66	H	0.917082	-0.457472	0.989468
H67	H	1.099658	-0.981274	0.449186
H68	H	1.086805	-0.300995	0.990369
O69	O	0.591839	-0.451711	0.700765
C70	C	0.547541	-0.495347	0.640785
H71	H	0.537533	-0.470053	0.559122
H72	H	0.495565	-0.502725	0.680886
H73	H	0.573703	-0.548548	0.633845
H74	H	0.917119	-0.457419	1.188534
H75	H	0.266794	-0.471772	0.732039
H76	H	0.273342	-0.308503	0.479300
O77	O	0.412417	-0.306987	0.476882
C78	C	0.365882	-0.265333	0.412433
H79	H	0.312405	-0.292016	0.407115
H80	H	0.387366	-0.258614	0.330558
H81	H	0.360248	-0.211687	0.447508
H82	H	0.904204	-0.776679	0.728686
O83	O	0.598922	-0.274337	0.426320
C84	C	0.525896	-0.281052	0.436757
H85	H	0.513681	-0.334907	0.473509
H86	H	0.498175	-0.275096	0.356062
H87	H	0.506780	-0.238584	0.489138
O88	O	1.079998	-0.644724	0.477095
C89	C	1.117752	-0.694445	0.423084
H90	H	1.118088	-0.746828	0.469297
H91	H	1.173966	-0.675430	0.414171
H92	H	1.091733	-0.701281	0.342110
H93	H	0.909502	-0.643537	0.720990
O94	O	1.094245	-0.294148	1.197922
C95	C	1.135505	-0.256094	1.126187
H96	H	1.136753	-0.284994	1.049772
H97	H	1.191179	-0.250825	1.160928
H98	H	1.111948	-0.201692	1.109856
H99	H	1.067343	-0.783229	0.495263
H100	H	1.094355	-1.114418	0.456884
O101	O	0.923905	-1.113233	0.700845
C102	C	0.886128	-1.063517	0.754834
H103	H	0.916991	-1.012336	0.757278
H104	H	0.877768	-1.084384	0.838356
H105	H	0.833078	-1.053630	0.712526
