data_functionalizedCrystal
_audit_creation_method	'MofGen! by Chris Wilmer'
_symmetry_space_group_name_H-M	'P1'
_symmetry_Int_Tables_number	1
_symmetry_cell_setting	triclinic
loop_
_symmetry_equiv_pos_as_xyz
  x,y,z
_cell_length_a	27.731994
_cell_length_b	27.732048
_cell_length_c	14.472310
_cell_angle_alpha	89.993924
_cell_angle_beta	89.993100
_cell_angle_gamma	82.631595
loop_
_atom_site_label
_atom_site_type_symbol
_atom_site_fract_x
_atom_site_fract_y
_atom_site_fract_z
O1	O	0.640951	0.057389	-0.076719
O2	O	1.140951	0.557389	0.423281
O3	O	0.500153	0.066162	-0.076751
O4	O	1.000153	0.566162	0.423249
O5	O	0.574925	-0.008622	-0.076716
O6	O	1.074925	0.491378	0.423284
O7	O	0.566179	0.132173	-0.076754
O8	O	1.066179	0.632173	0.423246
O9	O	0.574906	-0.008618	0.076966
O10	O	1.074906	0.491382	0.576966
O11	O	0.500134	0.066166	0.076931
O12	O	1.000134	0.566166	0.576931
O13	O	0.640932	0.057393	0.076963
O14	O	1.140932	0.557393	0.576963
Cu15	Cu	0.570531	0.061780	0.090979
Cu16	Cu	1.070531	0.561780	0.590979
Cu17	Cu	0.570554	0.061775	-0.090767
Cu18	Cu	1.070554	0.561775	0.409233
O19	O	0.566160	0.132177	0.076928
O20	O	1.066160	0.632177	0.576928
C21	C	0.482137	0.065984	0.000086
C22	C	0.982137	0.565984	0.500086
C23	C	0.428480	0.065442	0.000074
C24	C	0.928480	0.565442	0.500074
C25	C	0.095751	0.062028	0.083883
C26	C	0.595751	0.562028	0.583883
C27	C	-0.105907	0.059967	0.083894
C28	C	0.394093	0.559967	0.583894
O29	O	-0.131988	0.059681	0.155139
O30	O	0.368012	0.559681	0.655139
N31	N	-0.131111	0.059708	0.000122
N32	N	0.368889	0.559708	0.500122
C33	C	-0.105898	0.059962	-0.083658
C34	C	0.394102	0.559962	0.416342
O35	O	-0.131962	0.059690	-0.154911
O36	O	0.368038	0.559690	0.345089
C37	C	0.095760	0.062020	-0.083668
C38	C	0.595760	0.562020	0.416332
C39	C	0.120961	0.062283	0.000109
C40	C	0.620961	0.562283	0.500109
C41	C	0.120953	0.062291	0.167654
C42	C	0.620953	0.562291	0.667654
C43	C	0.171364	0.062809	0.167650
C44	C	0.671364	0.562809	0.667650
C45	C	0.196574	0.063064	0.083876
C46	C	0.696574	0.563064	0.583876
C47	C	0.171372	0.062801	0.000105
C48	C	0.671372	0.562801	0.500105
C49	C	0.120973	0.062270	-0.167448
C50	C	0.620973	0.562270	0.332552
C51	C	0.171391	0.062784	-0.167443
C52	C	0.671391	0.562784	0.332557
C53	C	0.196592	0.063047	-0.083666
C54	C	0.696592	0.563047	0.416334
C55	C	0.246993	0.063575	-0.083672
C56	C	0.746993	0.563575	0.416328
N57	N	0.272198	0.063833	0.000099
N58	N	0.772198	0.563833	0.500099
C59	C	0.246988	0.063578	0.083874
C60	C	0.746988	0.563578	0.583874
C61	C	-0.211771	0.058882	-0.083647
C62	C	0.288229	0.558882	0.416353
C63	C	-0.262185	0.058369	-0.083645
C64	C	0.237815	0.558369	0.416355
C65	C	-0.262191	0.058373	0.083908
C66	C	0.237809	0.558373	0.583908
C67	C	-0.211776	0.058890	0.083905
C68	C	0.288224	0.558890	0.583905
C69	C	-0.186566	0.059141	0.000125
C70	C	0.313434	0.559141	0.500125
C71	C	0.352855	0.064666	0.083860
C72	C	0.852855	0.564666	0.583860
C73	C	0.403270	0.065186	0.083849
C74	C	0.903270	0.565186	0.583849
C75	C	0.403272	0.065180	-0.083704
C76	C	0.903272	0.565180	0.416296
C77	C	0.352861	0.064663	-0.083693
C78	C	0.852861	0.564663	0.416307
C79	C	0.327654	0.064404	0.000096
C80	C	0.827654	0.564404	0.500096
O81	O	0.273107	0.063855	-0.154880
O82	O	0.773107	0.563855	0.345120
O83	O	0.273062	0.063839	0.155116
O84	O	0.773062	0.563839	0.655116
C85	C	0.045340	0.061510	0.083887
C86	C	0.545340	0.561510	0.583887
C87	C	0.020139	0.061247	0.000116
C88	C	0.520139	0.561247	0.500116
C89	C	0.045349	0.061503	-0.083658
C90	C	0.545349	0.561503	0.416342
C91	C	-0.030275	0.060734	0.000118
C92	C	0.469725	0.560734	0.500118
C93	C	-0.055485	0.060479	0.083893
C94	C	0.444515	0.560479	0.583893
C95	C	-0.030281	0.060737	0.167665
C96	C	0.469719	0.560737	0.667665
C97	C	0.020130	0.061255	0.167661
C98	C	0.520130	0.561255	0.667661
C99	C	0.020144	0.061244	-0.167430
C100	C	0.520144	0.561244	0.332570
C101	C	-0.030267	0.060727	-0.167420
C102	C	0.469733	0.560727	0.332580
C103	C	-0.055477	0.060471	-0.083645
C104	C	0.444523	0.560471	0.416355
C105	C	0.574732	-0.026627	0.000127
C106	C	1.074732	0.473373	0.500127
C107	C	0.574179	-0.080282	0.000134
C108	C	1.074179	0.419718	0.500134
C109	C	0.614884	-0.419105	0.000096
C110	C	1.114884	0.080895	0.500096
C111	C	0.612833	-0.620764	0.000083
C112	C	1.112833	-0.120764	0.500083
O113	O	0.650055	-0.652027	0.000051
O114	O	1.150055	-0.152027	0.500051
N115	N	0.568496	-0.639879	0.000074
N116	N	1.068496	-0.139879	0.500074
C117	C	0.524670	-0.608576	0.000062
C118	C	1.024670	-0.108576	0.500062
O119	O	0.486912	-0.629462	0.000044
O120	O	0.986912	-0.129462	0.500044
C121	C	0.526721	-0.406918	0.000068
C122	C	1.026721	0.093082	0.500068
C123	C	0.571061	-0.387805	0.000087
C124	C	1.071061	0.112195	0.500087
C125	C	0.659220	-0.399992	0.000114
C126	C	1.159220	0.100008	0.500114
C127	C	0.659732	-0.349580	0.000122
C128	C	1.159732	0.150420	0.500122
C129	C	0.615908	-0.318281	0.000113
C130	C	1.115908	0.181719	0.500113
C131	C	0.571573	-0.337394	0.000095
C132	C	1.071573	0.162606	0.500095
C133	C	0.482895	-0.375615	0.000050
C134	C	0.982895	0.124385	0.500050
C135	C	0.483412	-0.325198	0.000049
C136	C	0.983412	0.174802	0.500049
C137	C	0.527751	-0.306086	0.000068
C138	C	1.027751	0.193914	0.500068
C139	C	0.528262	-0.255683	0.000095
C140	C	1.028262	0.244317	0.500095
N141	N	0.572598	-0.236567	0.000104
N142	N	1.072598	0.263433	0.500104
C143	C	0.616421	-0.267867	0.000113
C144	C	1.116421	0.232133	0.500113
C145	C	0.523596	-0.714450	0.000060
C146	C	1.023596	-0.214450	0.500060
C147	C	0.523083	-0.764864	0.000060
C148	C	1.023083	-0.264864	0.500060
C149	C	0.611246	-0.777049	0.000080
C150	C	1.111246	-0.277049	0.500080
C151	C	0.611759	-0.726633	0.000086
C152	C	1.111759	-0.226633	0.500086
C153	C	0.567932	-0.695335	0.000069
C154	C	1.067932	-0.195335	0.500069
C155	C	0.617494	-0.161998	0.000132
C156	C	1.117494	0.338002	0.500132
C157	C	0.618002	-0.111581	0.000144
C158	C	1.118002	0.388419	0.500144
C159	C	0.529839	-0.099401	0.000119
C160	C	1.029839	0.400599	0.500119
C161	C	0.529331	-0.149813	0.000112
C162	C	1.029331	0.350187	0.500112
C163	C	0.573162	-0.181111	0.000115
C164	C	1.073162	0.318889	0.500115
O165	O	0.491060	-0.224391	0.000116
O166	O	0.991060	0.275609	0.500116
O167	O	0.654174	-0.246971	0.000110
O168	O	1.154174	0.253029	0.500110
C169	C	0.614372	-0.469517	0.000088
C170	C	1.114372	0.030483	0.500088
C171	C	0.570036	-0.488629	0.000070
C172	C	1.070036	0.011371	0.500070
C173	C	0.526213	-0.457330	0.000061
C174	C	1.026213	0.042670	0.500061
C175	C	0.569523	-0.539043	0.000070
C176	C	1.069523	-0.039043	0.500070
C177	C	0.613346	-0.570343	0.000080
C178	C	1.113346	-0.070343	0.500080
C179	C	0.657683	-0.551228	0.000089
C180	C	1.157683	-0.051228	0.500089
C181	C	0.658195	-0.500816	0.000097
C182	C	1.158195	-0.000816	0.500097
C183	C	0.481876	-0.476445	0.000052
C184	C	0.981876	0.023555	0.500052
C185	C	0.481367	-0.526857	0.000045
C186	C	0.981367	-0.026857	0.500045
C187	C	0.525191	-0.558157	0.000054
C188	C	1.025191	-0.058157	0.500054
C189	C	0.658949	0.057571	0.000124
C190	C	1.158949	0.557571	0.500124
C191	C	0.712605	0.058114	0.000129
C192	C	1.212605	0.558114	0.500129
C193	C	0.566353	0.150182	0.000083
C194	C	1.066353	0.650182	0.500083
C195	C	0.566906	0.203837	0.000069
C196	C	1.066906	0.703837	0.500069
N197	N	0.570519	0.061784	0.218810
N198	N	1.070519	0.561784	0.718810
N199	N	0.570570	0.061768	-0.218598
N200	N	1.070570	0.561768	0.281402
C201	C	0.570553	0.061773	0.592901
C202	C	1.070553	0.561773	1.092901
C203	C	0.530412	0.101656	0.553717
C204	C	1.030412	0.601656	1.053717
C205	C	0.530503	0.101800	0.446629
C206	C	1.030503	0.601800	0.946629
C207	C	0.570536	0.061778	0.407310
C208	C	1.070536	0.561778	0.907310
C209	C	0.620892	0.072408	0.446156
C210	C	1.120892	0.572408	0.946156
C211	C	0.620666	0.072691	0.553277
C212	C	1.120666	0.572691	1.053277
C213	C	0.560789	0.011139	0.553441
C214	C	1.060789	0.511139	1.053441
C215	C	0.559629	0.011486	0.446314
C216	C	1.059629	0.511486	0.946314
C217	C	0.570529	0.061780	0.302422
C218	C	1.070529	0.561780	0.802422
C219	C	0.570563	0.061772	0.697790
C220	C	1.070563	0.561772	1.197790
H221	H	-0.282725	0.058166	0.152120
H222	H	0.217275	0.558166	0.652120
C223	C	0.538663	0.152144	0.590058
C224	C	1.038663	0.652144	1.090058
N225	N	0.544879	0.190171	0.617431
N226	N	1.044879	0.690171	1.117431
H227	H	0.654110	-0.096023	0.000161
H228	H	1.154110	0.403977	0.500161
C229	C	0.432587	-0.547874	0.000025
C230	C	0.932587	-0.047874	0.500025
N231	N	0.395847	-0.563702	0.000001
N232	N	0.895847	-0.063702	0.500001
H233	H	0.536699	0.139382	0.420987
H234	H	1.036699	0.639382	0.920987
H235	H	-0.191250	0.059087	-0.151875
H236	H	0.308750	0.559087	0.348125
C237	C	0.480556	-0.170837	0.000098
C238	C	0.980556	0.329163	0.500098
N239	N	0.443817	-0.186669	0.000077
N240	N	0.943817	0.313331	0.500077
C241	C	0.665711	-0.196418	0.000143
C242	C	1.165711	0.303582	0.500143
N243	N	0.702028	-0.222344	0.000160
N244	N	1.202028	0.277656	0.500160
C245	C	0.632359	0.122565	0.587010
C246	C	1.132359	0.622565	1.087010
N247	N	0.641162	0.160133	0.612413
N248	N	1.141162	0.660133	1.112413
H249	H	0.590066	-0.018536	0.578781
H250	H	1.090066	0.481464	1.078781
C251	C	0.662215	0.034925	0.588296
C252	C	1.162215	0.534925	1.088296
N253	N	0.693514	0.006486	0.614668
N254	N	1.193514	0.506486	1.114668
C255	C	0.479663	0.093334	0.588568
C256	C	0.979663	0.593334	1.088568
N257	N	0.441438	0.087067	0.614829
N258	N	0.941438	0.587067	1.114829
H259	H	0.646929	-0.802541	0.000088
H260	H	1.146929	-0.302541	0.500088
H261	H	-0.050782	0.060516	-0.235646
H262	H	0.449218	0.560516	0.264354
C263	C	0.662190	0.034188	0.411746
C264	C	1.162190	0.534188	0.911746
N265	N	0.693295	0.005400	0.385827
N266	N	1.193295	0.505400	0.885827
H267	H	0.040665	0.061451	-0.235651
H268	H	0.540665	0.561451	0.264349
H269	H	0.487905	-0.688970	0.000047
H270	H	0.987905	-0.188970	0.500047
C271	C	0.199079	0.063092	0.259813
C272	C	0.699079	0.563092	0.759813
N273	N	0.219952	0.063302	0.329235
N274	N	0.719952	0.563302	0.829235
C275	C	-0.289901	0.058083	-0.175807
C276	C	0.210099	0.558083	0.324193
N277	N	-0.310775	0.057864	-0.245226
N278	N	0.189225	0.557864	0.254774
C279	C	0.474306	-0.785881	0.000051
C280	C	0.974306	-0.285881	0.500051
N281	N	0.437566	-0.801709	0.000038
N282	N	0.937566	-0.301709	0.500038
H283	H	0.446789	-0.391167	0.000029
H284	H	0.946789	0.108833	0.500029
C285	C	0.706972	-0.479800	0.000112
C286	C	1.206972	0.020200	0.500112
N287	N	0.743714	-0.463974	0.000120
N288	N	1.243714	0.036026	0.500120
H289	H	-0.191261	0.059105	0.152124
H290	H	0.308739	0.559105	0.652124
C291	C	0.093264	0.061973	-0.259612
C292	C	0.593264	0.561973	0.240388
N293	N	0.072396	0.061745	-0.329035
N294	N	0.572396	0.561745	0.170965
C295	C	0.430989	0.065474	0.176014
C296	C	0.930989	0.565474	0.676014
N297	N	0.451865	0.065689	0.245432
N298	N	0.951865	0.565689	0.745432
H299	H	0.446189	-0.450966	0.000042
H300	H	0.946189	0.049034	0.500042
H301	H	0.494160	-0.073908	0.000115
H302	H	0.994160	0.426092	0.500115
H303	H	0.629771	0.108900	0.419311
H304	H	1.129771	0.608900	0.919311
C305	C	0.435198	-0.290772	0.000034
C306	C	0.935198	0.209228	0.500034
N307	N	0.398883	-0.264843	0.000026
N308	N	0.898883	0.235157	0.500026
H309	H	0.694908	-0.425472	0.000118
H310	H	1.194908	0.074528	0.500118
C311	C	0.325134	0.064387	0.176032
C312	C	0.825134	0.564387	0.676032
N313	N	0.304254	0.064181	0.245456
N314	N	0.804254	0.564181	0.745456
C315	C	0.512276	-0.002789	0.589967
C316	C	1.012276	0.497211	1.089967
N317	N	0.475733	-0.013273	0.617479
N318	N	0.975733	0.486727	1.117479
C319	C	0.596608	-0.030447	0.410182
C320	C	1.096608	0.469553	0.910182
N321	N	0.624468	-0.062030	0.382975
N322	N	1.124468	0.437970	0.882975
C323	C	0.705889	-0.585666	0.000097
C324	C	1.205889	-0.085666	0.500097
N325	N	0.742195	-0.611608	0.000098
N326	N	1.242195	-0.111608	0.500098
H327	H	0.423807	0.065390	-0.151910
H328	H	0.923807	0.565390	0.348090
C329	C	0.093229	0.062017	0.259820
C330	C	0.593229	0.562017	0.759820
N331	N	0.072350	0.061816	0.329246
N332	N	0.572350	0.561816	0.829246
C333	C	0.479917	0.093330	0.411147
C334	C	0.979917	0.593330	0.911147
N335	N	0.441812	0.086953	0.384427
N336	N	0.941812	0.586953	0.884427
C337	C	0.509587	0.000577	0.412022
C338	C	1.009587	0.500577	0.912022
N339	N	0.471894	-0.007639	0.386189
N340	N	0.971894	0.492361	0.886189
H341	H	0.191914	0.062989	-0.235669
H342	H	0.691914	0.562989	0.264331
H343	H	0.040645	0.061469	0.235881
H344	H	0.540645	0.561469	0.735881
C345	C	0.325138	0.064378	-0.175852
C346	C	0.825138	0.564378	0.324148
N347	N	0.304261	0.064160	-0.245268
N348	N	0.804261	0.564160	0.254732
C349	C	0.708509	-0.328564	0.000133
C350	C	1.208509	0.171436	0.500133
N351	N	0.745250	-0.312738	0.000137
N352	N	1.245250	0.187262	0.500137
C353	C	0.660535	-0.705615	0.000099
C354	C	1.160535	-0.205615	0.500099
N355	N	0.697275	-0.689787	0.000105
N356	N	1.197275	-0.189787	0.500105
C357	C	-0.058021	0.060455	0.259816
C358	C	0.441979	0.560455	0.759816
N359	N	-0.078918	0.060240	0.329221
N360	N	0.421082	0.560240	0.829221
