data_functionalizedCrystal
_audit_creation_method	'MofGen! by Chris Wilmer'
_symmetry_space_group_name_H-M	'P1'
_symmetry_Int_Tables_number	1
_symmetry_cell_setting	triclinic
loop_
_symmetry_equiv_pos_as_xyz
  x,y,z
_cell_length_a	31.640172
_cell_length_b	20.919309
_cell_length_c	31.640172
_cell_angle_alpha	57.453156
_cell_angle_beta	90.011976
_cell_angle_gamma	62.590278
loop_
_atom_site_label
_atom_site_type_symbol
_atom_site_fract_x
_atom_site_fract_y
_atom_site_fract_z
Zr1	Zr	0.425210	0.700661	-0.073424
O2	O	0.361155	0.834214	-0.144346
O3	O	0.442463	0.567103	-0.049300
O4	O	0.445896	0.700637	-0.140899
O5	O	0.357725	0.700701	0.016798
O6	O	0.515453	0.700623	-0.140889
O7	O	0.357722	0.700680	-0.052747
O8	O	0.509312	0.461755	0.022964
O9	O	0.363866	0.939569	-0.147056
O10	O	0.504610	0.622029	-0.041883
O11	O	0.452703	0.622055	0.010011
O12	O	0.456745	0.779274	-0.097835
O13	O	0.404838	0.779299	-0.045941
Zr14	Zr	0.536150	0.700673	0.037508
Zr15	Zr	0.536145	0.700640	-0.073408
Zr16	Zr	0.425215	0.700695	0.037493
Zr17	Zr	0.429534	0.868690	-0.077745
Zr18	Zr	0.531826	0.532644	0.041829
O19	O	0.518897	0.834232	0.013385
O20	O	0.518890	0.834184	-0.144324
O21	O	0.361162	0.834262	0.013363
O22	O	0.600206	0.567120	0.108430
O23	O	0.600198	0.567072	-0.049279
O24	O	0.442471	0.567150	0.108409
O25	O	0.603635	0.700633	-0.052713
O26	O	0.515464	0.700698	0.104983
O27	O	0.445908	0.700711	0.104974
O28	O	0.603639	0.700654	0.016832
O29	O	0.452044	0.939552	-0.147043
O30	O	0.509316	0.461782	0.111128
O31	O	0.597495	0.461765	0.111140
O32	O	0.597491	0.461738	0.022976
O33	O	0.363870	0.939596	-0.058892
O34	O	0.452048	0.939579	-0.058880
O35	O	0.504615	0.622060	0.061919
O36	O	0.556522	0.622035	0.010025
O37	O	0.508657	0.779280	-0.045927
O38	O	0.456750	0.779305	0.005967
C39	C	0.475272	0.490488	-0.012553
C40	C	0.473436	0.419156	-0.010718
C41	C	0.341918	0.700694	-0.017977
C42	C	0.294823	0.700703	-0.017984
C43	C	0.499667	0.385630	-0.036944
C44	C	0.497944	0.318601	-0.035215
C45	C	0.469986	0.285102	-0.007263
C46	C	0.443754	0.318631	0.018966
C47	C	0.445481	0.385654	0.017240
C48	C	0.463419	0.082731	-0.000694
C49	C	0.461693	0.015704	0.001028
C50	C	0.515884	0.015677	-0.053152
C51	C	0.517606	0.082706	-0.054878
C52	C	0.491376	0.116225	-0.028647
C53	C	0.468222	0.216590	-0.005497
C54	C	0.493143	0.184733	-0.030410
C55	C	0.027801	0.618578	0.011259
C56	C	-0.149185	0.618563	0.011270
O57	O	-0.150822	0.548756	0.036128
N58	N	-0.196300	0.700642	-0.017937
C59	C	-0.199167	0.782732	-0.047146
O60	O	-0.243302	0.852545	-0.071984
C61	C	-0.022182	0.782746	-0.047154
C62	C	0.024932	0.700661	-0.017949
C63	C	0.074913	0.536500	0.040462
C64	C	0.119157	0.536505	0.040457
C65	C	0.116288	0.618588	0.011249
C66	C	0.069176	0.700666	-0.017954
C67	C	-0.025050	0.864835	-0.076359
C68	C	0.019201	0.864831	-0.076357
C69	C	0.066315	0.782746	-0.047153
C70	C	0.110550	0.782754	-0.047167
N71	N	0.157665	0.700674	-0.017960
C72	C	0.160534	0.618591	0.011248
C73	C	-0.292085	0.782718	-0.047141
C74	C	-0.336331	0.782715	-0.047140
C75	C	-0.286345	0.618545	0.011277
C76	C	-0.242099	0.618550	0.011272
C77	C	-0.244970	0.700639	-0.017934
C78	C	0.253446	0.618608	0.011234
C79	C	0.297692	0.618620	0.011225
C80	C	0.247702	0.782788	-0.047190
C81	C	0.203461	0.782777	-0.047183
C82	C	0.206336	0.700679	-0.017967
O83	O	0.112226	0.852524	-0.072007
O84	O	0.204673	0.548789	0.036091
C85	C	-0.016443	0.618574	0.011264
C86	C	-0.063555	0.700652	-0.017938
C87	C	-0.066424	0.782735	-0.047146
C88	C	-0.107801	0.700649	-0.017937
C89	C	-0.104932	0.618566	0.011271
C90	C	-0.057817	0.536486	0.040478
C91	C	-0.013574	0.536491	0.040473
C92	C	-0.113539	0.864815	-0.076353
C93	C	-0.157780	0.864803	-0.076346
C94	C	-0.154911	0.782720	-0.047138
C95	C	0.619443	0.700641	-0.017939
C96	C	0.666538	0.700632	-0.017932
C97	C	0.480674	0.700625	-0.156698
C98	C	0.480672	0.700611	-0.203784
C99	C	0.486089	0.910846	-0.023363
C100	C	0.487924	0.982179	-0.025198
C101	C	0.505677	0.618580	-0.510885
C102	C	0.505668	0.618553	-0.333885
O103	O	0.526932	0.548744	-0.286162
N104	N	0.480681	0.700631	-0.340958
C105	C	0.455698	0.782722	-0.392285
O106	O	0.434449	0.852533	-0.394239
C107	C	0.455709	0.782748	-0.569284
C108	C	0.480694	0.700664	-0.562207
C109	C	0.530659	0.536503	-0.503811
C110	C	0.530659	0.536511	-0.548058
C111	C	0.505676	0.618595	-0.599380
C112	C	0.480693	0.700672	-0.606455
C113	C	0.430729	0.864838	-0.620610
C114	C	0.430735	0.864837	-0.664860
C115	C	0.455720	0.782753	-0.657783
C116	C	0.455710	0.782764	-0.702024
N117	N	0.480697	0.700686	-0.694952
C118	C	0.505679	0.618602	-0.643630
C119	C	0.455692	0.782702	-0.299356
C120	C	0.455689	0.782696	-0.255107
C121	C	0.505660	0.618526	-0.196709
C122	C	0.505660	0.618534	-0.240960
C123	C	0.480679	0.700624	-0.292283
C124	C	0.505676	0.618624	-0.736555
C125	C	0.505672	0.618639	-0.780809
C126	C	0.455703	0.782807	-0.839202
C127	C	0.455705	0.782793	-0.794952
C128	C	0.480695	0.700694	-0.743627
O129	O	0.434461	0.852536	-0.749761
O130	O	0.526934	0.548800	-0.641687
C131	C	0.505677	0.618572	-0.466637
C132	C	0.480694	0.700649	-0.473712
C133	C	0.455711	0.782734	-0.525034
C134	C	0.480691	0.700643	-0.429462
C135	C	0.505674	0.618558	-0.378140
C136	C	0.530660	0.536480	-0.371068
C137	C	0.530660	0.536488	-0.415315
C138	C	0.430725	0.864812	-0.532106
C139	C	0.430727	0.864797	-0.487856
C140	C	0.455710	0.782713	-0.436534
C141	C	0.480687	0.700709	0.120782
C142	C	0.480689	0.700723	0.167869
C143	C	0.614034	0.490462	-0.012533
C144	C	0.659293	0.419120	-0.010692
C145	C	0.475278	0.490530	0.126187
C146	C	0.473445	0.419212	0.175109
C147	C	0.614041	0.490504	0.126206
C148	C	0.659302	0.419176	0.175134
C149	C	0.347320	0.910831	-0.162122
C150	C	0.302058	0.982158	-0.211050
C151	C	0.347326	0.910872	-0.023382
C152	C	0.302067	0.982214	-0.025223
C153	C	0.486082	0.910804	-0.162103
C154	C	0.487916	0.982123	-0.211024
C155	C	0.653450	0.385614	-0.036928
C156	C	0.695972	0.318590	-0.035209
C157	C	0.744336	0.285069	-0.007250
C158	C	0.750179	0.318582	0.018986
C159	C	0.707658	0.385609	0.017263
C160	C	0.499681	0.385723	0.225183
C161	C	0.497957	0.318721	0.271154
C162	C	0.469998	0.285204	0.267049
C163	C	0.443759	0.318700	0.216970
C164	C	0.445481	0.385705	0.171000
C165	C	0.707657	0.385667	0.171023
C166	C	0.750189	0.318656	0.216992
C167	C	0.744366	0.285152	0.267071
C168	C	0.696006	0.318668	0.271181
C169	C	0.653475	0.385682	0.225213
C170	C	0.253704	1.015676	-0.206939
C171	C	0.211172	1.082707	-0.252908
C172	C	0.216996	1.116215	-0.302988
C173	C	0.265355	1.082694	-0.307097
C174	C	0.307886	1.015669	-0.261129
C175	C	0.307911	1.015727	0.001007
C176	C	0.265389	1.082769	-0.000725
C177	C	0.217025	1.116293	-0.028684
C178	C	0.211182	1.082778	-0.054918
C179	C	0.253703	1.015741	-0.053189
C180	C	0.515879	1.015618	-0.206903
C181	C	0.517611	1.082620	-0.252865
C182	C	0.491378	1.116131	-0.302949
C183	C	0.463414	1.082629	-0.307069
C184	C	0.461684	1.015623	-0.261107
H185	H	0.522431	0.412904	-0.059708
H186	H	0.519303	0.291304	-0.056570
H187	H	0.519326	0.291457	0.311926
H188	H	0.336054	0.551773	0.035008
H189	H	0.270091	1.109985	-0.347877
H190	H	0.347258	0.988379	-0.264482
H191	H	0.347287	0.988437	0.023779
Br192	Br	0.587852	0.431147	0.230801
Br193	Br	0.273330	1.128238	0.034883
H194	H	0.182360	1.170791	-0.340414
H195	H	0.492790	1.170692	-0.340370
H196	H	0.438912	0.988359	-0.264470
Br197	Br	0.467667	0.194268	0.329443
Br198	Br	0.430289	0.171109	0.032447
H199	H	0.691271	0.291379	0.311961
Br200	Br	0.688031	0.273122	-0.070816
H201	H	0.540371	0.109979	-0.077639
H202	H	0.182406	1.170879	-0.030088
H203	H	0.778956	0.230490	-0.005852
H204	H	0.712408	0.412936	0.130251
Br205	Br	0.537631	0.431190	0.230768
Br206	Br	0.257356	0.507189	0.050884
Br207	Br	0.551480	-0.029817	-0.088749
Br208	Br	0.539578	0.507232	-0.771200
H209	H	0.614073	0.412907	-0.059701
Br210	Br	0.245786	0.970213	-0.138981
H211	H	0.420996	0.291401	0.213636
H212	H	0.157516	0.469663	0.064236
Br213	Br	0.409872	0.431143	0.103044
H214	H	0.171800	1.109988	-0.249552
H215	H	0.424119	0.412952	0.038595
Br216	Br	0.245764	0.970263	-0.088789
H217	H	0.171798	1.110083	-0.077683
H218	H	0.515909	0.212005	-0.053167
H219	H	0.537242	0.988344	-0.166127
H220	H	0.789562	0.291374	0.213636
H221	H	0.442063	0.110011	0.020668
Br222	Br	0.078819	0.425086	0.080110
Br223	Br	0.396815	0.976224	-0.601755
H224	H	0.779001	0.230585	0.304497
H225	H	0.410386	0.931679	-0.626383
Br226	Br	0.555562	1.128076	-0.247261
Br227	Br	0.815820	0.273076	0.056929
Br228	Br	0.427809	1.128125	-0.375044
Br229	Br	0.423745	-0.029752	0.038962
H230	H	-0.203739	0.551709	0.035058
Br231	Br	0.405820	0.273154	0.056912
H232	H	-0.284016	0.551710	0.035056
H233	H	-0.374690	0.849556	-0.070928
Br234	Br	-0.295992	0.894136	-0.086783
H235	H	-0.063406	0.931677	-0.100140
H236	H	0.016857	0.931679	-0.100135
H237	H	0.245375	0.849618	-0.070972
Br238	Br	0.139519	0.894178	-0.086830
H239	H	0.024785	0.469649	0.064255
H240	H	-0.055488	0.469651	0.064257
H241	H	-0.115882	0.931658	-0.100140
Br242	Br	-0.221719	0.976215	-0.115988
Br243	Br	0.539595	0.507203	-0.666906
H244	H	0.551006	0.469656	-0.462024
Br245	Br	0.564569	0.425106	-0.538445
Br246	Br	0.564568	0.425083	-0.405702
Br247	Br	0.539569	0.507131	-0.231350
H248	H	0.410393	0.931686	-0.706649
H249	H	0.526000	0.551690	-0.154914
H250	H	0.435348	0.849553	-0.341144
Br251	Br	0.421766	0.894099	-0.264718
H252	H	0.435353	0.849632	-0.800715
H253	H	0.435361	0.849639	-0.880996
Br254	Br	0.396807	0.976207	-0.497470
Br255	Br	0.564562	0.425081	-0.301408
H256	H	0.712422	0.412881	0.038630
