data_functionalizedCrystal
_audit_creation_method	'MofGen! by Chris Wilmer'
_symmetry_space_group_name_H-M	'P1'
_symmetry_Int_Tables_number	1
_symmetry_cell_setting	triclinic
loop_
_symmetry_equiv_pos_as_xyz
  x,y,z
_cell_length_a	18.215407
_cell_length_b	15.296118
_cell_length_c	18.215407
_cell_angle_alpha	99.699802
_cell_angle_beta	90.009037
_cell_angle_gamma	99.691242
loop_
_atom_site_label
_atom_site_type_symbol
_atom_site_fract_x
_atom_site_fract_y
_atom_site_fract_z
Zn1	Zn	1.074315	-0.359369	0.365331
Zn2	Zn	1.407648	-0.026035	0.698664
Zn3	Zn	1.740981	0.307298	1.031998
Zn4	Zn	1.052971	-0.510233	0.220945
Zn5	Zn	1.386305	-0.176900	0.554279
Zn6	Zn	1.719638	0.156434	0.887612
Zn7	Zn	0.951272	-0.359360	0.242280
Zn8	Zn	1.284605	-0.026026	0.575613
Zn9	Zn	1.617938	0.307307	0.908947
Zn10	Zn	0.929940	-0.510221	0.343972
Zn11	Zn	1.263273	-0.176888	0.677305
Zn12	Zn	1.596606	0.156445	1.010639
O13	O	1.002124	-0.434796	0.293132
O14	O	1.335458	-0.101462	0.626465
O15	O	1.668791	0.231871	0.959799
O16	O	1.174467	-0.379390	0.346188
O17	O	1.507800	-0.046056	0.679522
O18	O	1.841133	0.287277	1.012855
O19	O	1.039476	-0.490220	0.120791
O20	O	1.372809	-0.156887	0.454124
O21	O	1.706142	0.176446	0.787458
O22	O	0.985454	-0.233088	0.276470
O23	O	1.318787	0.100246	0.609804
O24	O	1.652120	0.433579	0.943137
O25	O	1.158786	-0.490229	0.240109
O26	O	1.492119	-0.156896	0.573442
O27	O	1.825452	0.176438	0.906776
O28	O	1.075853	-0.233094	0.366876
O29	O	1.409186	0.100239	0.700209
O30	O	1.742519	0.433572	1.033542
O31	O	0.964758	-0.379375	0.136465
O32	O	1.298091	-0.046041	0.469799
O33	O	1.631424	0.287292	0.803132
O34	O	0.845459	-0.379363	0.255759
O35	O	1.178792	-0.046030	0.589092
O36	O	1.512126	0.287304	0.922426
O37	O	0.949096	-0.490209	0.449790
O38	O	1.282430	-0.156876	0.783123
O39	O	1.615763	0.176458	1.116456
O40	O	0.829786	-0.490200	0.330472
O41	O	1.163120	-0.156867	0.663805
O42	O	1.496453	0.176466	0.997139
O43	O	1.055168	-0.379378	0.465482
O44	O	1.388501	-0.046045	0.798816
O45	O	1.721835	0.287288	1.132149
O46	O	1.018791	-0.636505	0.219398
O47	O	1.352124	-0.303171	0.552731
O48	O	1.685458	0.030162	0.886064
O49	O	0.928400	-0.636496	0.309785
O50	O	1.261734	-0.303163	0.643118
O51	O	1.595067	0.030171	0.976451
C52	C	0.810920	-0.434780	0.293113
C53	C	1.144254	-0.101447	0.626446
C54	C	1.477587	0.231886	0.959780
C55	C	0.729119	-0.434795	0.293119
C56	C	1.062453	-0.101462	0.626453
C57	C	1.395786	0.231871	0.959786
C58	C	0.532771	-0.492599	0.331950
C59	C	0.866104	-0.159266	0.665284
C60	C	1.199438	0.174068	0.998617
C61	C	0.455912	-0.492602	0.331959
C62	C	0.789245	-0.159268	0.665293
C63	C	1.122579	0.174065	0.998626
C64	C	0.472227	-0.377009	0.254327
C65	C	0.805561	-0.043675	0.587661
C66	C	1.138894	0.289658	0.920994
C67	C	0.549086	-0.377002	0.254323
C68	C	0.882419	-0.043669	0.587657
C69	C	1.215752	0.289665	0.920990
C70	C	0.579355	-0.434802	0.293133
C71	C	0.912688	-0.101469	0.626467
C72	C	1.246021	0.231864	0.959800
C73	C	0.425637	-0.434812	0.293146
C74	C	0.758971	-0.101478	0.626479
C75	C	1.092304	0.231855	0.959813
C76	C	0.342303	-0.434814	0.293155
C77	C	0.675637	-0.101481	0.626488
C78	C	1.008970	0.231852	0.959822
C79	C	0.662694	-0.434799	0.293125
C80	C	0.996028	-0.101465	0.626459
C81	C	1.329361	0.231868	0.959792
C82	C	0.968985	-0.669242	0.259974
C83	C	1.302318	-0.335908	0.593308
C84	C	1.635651	-0.002575	0.926641
C85	C	0.954875	-0.769539	0.245814
C86	C	1.288208	-0.436205	0.579147
C87	C	1.621541	-0.102872	0.912481
C88	C	0.901204	-0.816735	0.192047
C89	C	1.234538	-0.483402	0.525380
C90	C	1.567871	-0.150068	0.858713
C91	C	0.887950	-0.910969	0.178746
C92	C	1.221284	-0.577636	0.512079
C93	C	1.554617	-0.244302	0.845413
C94	C	0.928361	-0.958016	0.219215
C95	C	1.261694	-0.624682	0.552549
C96	C	1.595028	-0.291349	0.885882
C97	C	0.982029	-0.910819	0.272987
C98	C	1.315362	-0.577486	0.606321
C99	C	1.648696	-0.244152	0.939654
C100	C	0.995288	-0.816576	0.286285
C101	C	1.328622	-0.483243	0.619619
C102	C	1.661955	-0.149909	0.952952
C103	C	1.022445	-0.957857	0.313454
C104	C	1.355779	-0.624523	0.646787
C105	C	1.689112	-0.291190	0.980121
C106	C	1.076113	-0.910660	0.367226
C107	C	1.409446	-0.577327	0.700559
C108	C	1.742780	-0.243993	1.033893
C109	C	1.089370	-0.816426	0.380522
C110	C	1.422703	-0.483093	0.713855
C111	C	1.756036	-0.149759	1.047189
C112	C	1.048959	-0.769379	0.340053
C113	C	1.382292	-0.436046	0.673386
C114	C	1.715625	-0.102713	1.006719
C115	C	1.009186	-1.052100	0.300156
C116	C	1.342519	-0.718766	0.633489
C117	C	1.675852	-0.385433	0.966822
C118	C	1.103270	-1.051941	0.394394
C119	C	1.436603	-0.718607	0.727728
C120	C	1.769936	-0.385274	1.061061
C121	C	1.116524	-0.957707	0.407695
C122	C	1.449857	-0.624373	0.741029
C123	C	1.783190	-0.291040	1.074362
C124	C	1.194075	-0.434812	0.293151
C125	C	1.527408	-0.101478	0.626485
C126	C	1.860742	0.231855	0.959818
C127	C	1.275873	-0.434819	0.293160
C128	C	1.609206	-0.101485	0.626493
C129	C	1.942540	0.231848	0.959826
C130	C	1.002133	-0.434793	0.485085
C131	C	1.335467	-0.101460	0.818419
C132	C	1.668800	0.231873	1.151752
C133	C	1.002137	-0.434792	0.566884
C134	C	1.335470	-0.101459	0.900218
C135	C	1.668804	0.231874	1.233551
C136	C	1.035413	-0.199434	0.326435
C137	C	1.368747	0.133899	0.659769
C138	C	1.702080	0.467232	0.993102
C139	C	1.049599	-0.099137	0.340627
C140	C	1.382933	0.234196	0.673960
C141	C	1.716266	0.567530	1.007294
C142	C	1.057347	-0.377090	0.840113
C143	C	1.390680	-0.043757	1.173446
C144	C	1.724014	0.289576	1.506780
C145	C	1.057352	-0.377090	0.763254
C146	C	1.390686	-0.043757	1.096588
C147	C	1.724019	0.289577	1.429921
C148	C	0.946903	-0.492510	0.746902
C149	C	1.280237	-0.159176	1.080235
C150	C	1.613570	0.174157	1.413569
C151	C	0.946902	-0.492514	0.823759
C152	C	1.280235	-0.159180	1.157092
C153	C	1.613568	0.174153	1.490425
C154	C	1.002123	-0.434799	0.870363
C155	C	1.335457	-0.101466	1.203696
C156	C	1.668790	0.231868	1.537030
C157	C	1.002130	-0.434794	0.716648
C158	C	1.335463	-0.101461	1.049981
C159	C	1.668797	0.231872	1.383314
C160	C	1.002135	-0.434795	0.633314
C161	C	1.335469	-0.101461	0.966647
C162	C	1.668802	0.231872	1.299981
C163	C	1.002119	-0.434800	0.953702
C164	C	1.335452	-0.101466	1.287035
C165	C	1.668786	0.231867	1.620368
C166	C	1.002110	-0.434813	1.101923
C167	C	1.335444	-0.101480	1.435257
C168	C	1.668777	0.231853	1.768590
C169	C	1.002116	-0.434801	1.020126
C170	C	1.335450	-0.101468	1.353460
C171	C	1.668783	0.231866	1.686793
H172	H	0.965488	-1.090518	0.256374
H173	H	1.298822	-0.757185	0.589708
H174	H	1.632155	-0.423851	0.923041
H175	H	0.901931	-0.539512	0.848387
H176	H	1.235264	-0.206179	1.181721
H177	H	1.568597	0.127155	1.515054
Cl178	Cl	1.126781	-0.304540	0.725229
Cl179	Cl	1.460114	0.028793	1.058563
Cl180	Cl	1.793448	0.362126	1.391896
Cl181	Cl	1.126767	-0.304534	0.898699
Cl182	Cl	1.460101	0.028800	1.232032
Cl183	Cl	1.793434	0.362133	1.565366
Cl184	Cl	0.434169	-0.304352	0.205539
Cl185	Cl	0.767502	0.028982	0.538872
Cl186	Cl	1.100835	0.362315	0.872206
H187	H	0.844255	-0.949390	0.134963
H188	H	1.177589	-0.616057	0.468297
H189	H	1.510922	-0.282723	0.801630
H190	H	0.901943	-0.539498	0.708948
H191	H	1.235276	-0.206164	1.042281
H192	H	1.568610	0.127169	1.375614
H193	H	0.868311	-0.778424	0.159097
H194	H	1.201644	-0.445090	0.492431
H195	H	1.534977	-0.111757	0.825764
Cl196	Cl	0.570822	-0.565258	0.380743
Cl197	Cl	0.904155	-0.231925	0.714077
Cl198	Cl	1.237488	0.101409	1.047410
H199	H	1.059743	-0.692646	0.350884
H200	H	1.393076	-0.359313	0.684217
H201	H	1.726410	-0.025980	1.017550
Cl202	Cl	0.607653	-0.304331	0.205526
Cl203	Cl	0.940987	0.029002	0.538859
Cl204	Cl	1.274320	0.362335	0.872193
Cl205	Cl	0.397353	-0.565262	0.380762
Cl206	Cl	0.730686	-0.231929	0.714095
Cl207	Cl	1.064019	0.101404	1.047429
H208	H	0.917566	-1.034745	0.208383
H209	H	1.250899	-0.701412	0.541716
H210	H	1.584233	-0.368079	0.875049
H211	H	1.133075	-0.777998	0.424300
H212	H	1.466408	-0.444665	0.757634
H213	H	1.799742	-0.111332	1.090967
H214	H	1.136177	-1.090246	0.427347
H215	H	1.469510	-0.756912	0.760680
H216	H	1.802844	-0.423579	1.094013
Cl217	Cl	1.183988	-0.898363	0.475294
Cl218	Cl	1.517321	-0.565030	0.808627
Cl219	Cl	1.850655	-0.231696	1.141960
