data_functionalizedCrystal
_audit_creation_method	'MofGen! by Chris Wilmer'
_symmetry_space_group_name_H-M	'P1'
_symmetry_Int_Tables_number	1
_symmetry_cell_setting	triclinic
loop_
_symmetry_equiv_pos_as_xyz
  x,y,z
_cell_length_a	19.077312
_cell_length_b	16.625545
_cell_length_c	19.076919
_cell_angle_alpha	87.727920
_cell_angle_beta	85.331053
_cell_angle_gamma	87.731596
loop_
_atom_site_label
_atom_site_type_symbol
_atom_site_fract_x
_atom_site_fract_y
_atom_site_fract_z
Zn1	Zn	1.061644	-0.386153	0.355274
Zn2	Zn	1.561644	0.113847	0.855274
Zn3	Zn	1.066297	-0.515779	0.237395
Zn4	Zn	1.566297	-0.015779	0.737395
Zn5	Zn	0.948502	-0.375770	0.242142
Zn6	Zn	1.448502	0.124230	0.742142
Zn7	Zn	0.943728	-0.515745	0.359978
Zn8	Zn	1.443728	-0.015745	0.859978
O9	O	1.005043	-0.448362	0.298697
O10	O	1.505043	0.051638	0.798697
O11	O	1.160907	-0.407707	0.335682
O12	O	1.660907	0.092293	0.835682
O13	O	1.054616	-0.492875	0.139377
O14	O	1.554616	0.007125	0.639377
O15	O	0.963561	-0.264318	0.257167
O16	O	1.463561	0.235682	0.757167
O17	O	1.164325	-0.502943	0.249077
O18	O	1.664325	-0.002943	0.749077
O19	O	1.046686	-0.271946	0.340285
O20	O	1.546686	0.228054	0.840285
O21	O	0.968072	-0.390011	0.142864
O22	O	1.468072	0.109989	0.642864
O23	O	0.849223	-0.389978	0.261728
O24	O	1.349223	0.110022	0.761728
O25	O	0.955425	-0.502886	0.458001
O26	O	1.455425	-0.002886	0.958001
O27	O	0.845715	-0.492818	0.348301
O28	O	1.345715	0.007182	0.848301
O29	O	1.042057	-0.407675	0.454546
O30	O	1.542057	0.092325	0.954546
O31	O	1.049987	-0.628603	0.253637
O32	O	1.549987	-0.128603	0.753637
O33	O	0.959936	-0.628579	0.343698
O34	O	1.459936	-0.128579	0.843698
C35	C	0.821891	-0.440268	0.306040
C36	C	1.321891	0.059732	0.806040
C37	C	0.743538	-0.436826	0.309199
C38	C	1.243538	0.063174	0.809199
C39	C	0.302298	-0.412074	0.331858
C40	C	0.802298	0.087926	0.831858
C41	C	0.375920	-0.415323	0.328886
C42	C	0.875920	0.084677	0.828886
C43	C	0.414504	-0.466444	0.282237
C44	C	0.914504	0.033556	0.782237
C45	C	0.379463	-0.514324	0.238561
C46	C	0.879463	-0.014324	0.738561
C47	C	0.305842	-0.511079	0.241536
C48	C	0.805842	-0.011079	0.741536
C49	C	0.634876	-0.481461	0.268498
C50	C	1.134876	0.018539	0.768498
C51	C	0.708502	-0.484701	0.265525
C52	C	1.208502	0.015299	0.765525
C53	C	0.704953	-0.385701	0.355851
C54	C	1.204953	0.114299	0.855851
C55	C	0.631332	-0.382457	0.358820
C56	C	1.131332	0.117543	0.858820
C57	C	0.596297	-0.430340	0.315147
C58	C	1.096297	0.069660	0.815147
N59	N	0.489757	-0.469764	0.279197
N60	N	0.989757	0.030236	0.779197
N61	N	0.521045	-0.427024	0.318191
N62	N	1.021045	0.072976	0.818191
C63	C	1.004967	-0.657848	0.298678
C64	C	1.504967	-0.157848	0.798678
C65	C	1.004998	-0.747471	0.298691
C66	C	1.504998	-0.247471	0.798691
C67	C	1.005025	-0.820255	0.298704
C68	C	1.505025	-0.320255	0.798704
C69	C	1.005065	-0.911566	0.298717
C70	C	1.505065	-0.411566	0.798717
C71	C	1.005101	-0.984345	0.298725
C72	C	1.505101	-0.484345	0.798725
C73	C	1.005141	-1.075661	0.298738
C74	C	1.505141	-0.575661	0.798738
C75	C	1.188909	-0.456487	0.291325
C76	C	1.688909	0.043513	0.791325
C77	C	1.267262	-0.459949	0.288184
C78	C	1.767262	0.040051	0.788184
C79	C	0.997690	-0.456435	0.482567
C80	C	1.497690	0.043565	0.982567
C81	C	0.994556	-0.459875	0.560921
C82	C	1.494556	0.040125	1.060921
C83	C	1.005137	-0.238059	0.298731
C84	C	1.505137	0.261941	0.798731
C85	C	1.005177	-0.148440	0.298745
C86	C	1.505177	0.351560	0.798745
C87	C	1.012408	-0.440263	0.115541
C88	C	1.512408	0.059737	0.615541
C89	C	1.015678	-0.436602	0.037181
C90	C	1.515678	0.063398	0.537181
C91	C	1.038187	-0.411923	0.595934
C92	C	1.538187	0.088077	1.095934
C93	C	1.035234	-0.415152	0.669557
C94	C	1.535234	0.084848	1.169557
C95	C	0.988654	-0.466339	0.708165
C96	C	1.488654	0.033661	1.208165
C97	C	0.945018	-0.514293	0.673147
C98	C	1.445018	-0.014293	1.173147
C99	C	0.947968	-0.511059	0.599526
C100	C	1.447968	-0.011059	1.099526
C101	C	0.974992	-0.481322	0.928542
C102	C	1.474992	0.018678	1.428542
C103	C	0.972047	-0.484554	1.002168
C104	C	1.472047	0.015446	1.502168
C105	C	1.062262	-0.385411	0.998573
C106	C	1.562262	0.114589	1.498573
C107	C	1.065210	-0.382186	0.924951
C108	C	1.565210	0.117814	1.424951
C109	C	1.021573	-0.430137	0.889939
C110	C	1.521573	0.069863	1.389939
N111	N	0.985636	-0.469643	0.783419
N112	N	1.485636	0.030357	1.283419
N113	N	1.024587	-0.426828	0.814686
N114	N	1.524587	0.073172	1.314686
H115	H	0.277317	-0.550066	0.205974
H116	H	0.777317	-0.050066	0.705974
H117	H	0.270888	-0.370441	0.369841
H118	H	0.770888	0.129559	0.869841
H119	H	0.410884	-0.555951	0.200581
H120	H	0.910884	-0.055951	0.700581
H121	H	1.103143	-0.340506	0.893521
H122	H	1.603143	0.159494	1.393521
H123	H	0.934114	-0.526239	1.033601
H124	H	1.434114	-0.026239	1.533601
H125	H	1.097788	-0.346371	1.027088
H126	H	1.597788	0.153629	1.527088
H127	H	0.739915	-0.526333	0.227536
H128	H	1.239915	-0.026333	0.727536
H129	H	0.939469	-0.520380	0.900044
H130	H	1.439469	-0.020380	1.400044
H131	H	0.404442	-0.376341	0.364453
H132	H	0.904442	0.123659	0.864453
H133	H	0.599921	-0.340832	0.396809
H134	H	1.099921	0.159168	0.896809
H135	H	0.733487	-0.346718	0.391408
H136	H	1.233487	0.153282	0.891408
H137	H	0.912432	-0.550099	0.571020
H138	H	1.412432	-0.050099	1.071020
H139	H	0.907089	-0.555968	0.704588
H140	H	1.407089	-0.055968	1.204588
H141	H	0.606360	-0.520449	0.232934
H142	H	1.106360	-0.020449	0.732934
H143	H	1.076119	-0.370243	0.564505
H144	H	1.576119	0.129757	1.064505
H145	H	1.070764	-0.376106	0.698061
H146	H	1.570764	0.123894	1.198061
