data_functionalizedCrystal
_audit_creation_method	'MofGen! by Chris Wilmer'
_symmetry_space_group_name_H-M	'P1'
_symmetry_Int_Tables_number	1
_symmetry_cell_setting	triclinic
loop_
_symmetry_equiv_pos_as_xyz
  x,y,z
_cell_length_a	10.908937
_cell_length_b	11.026607
_cell_length_c	9.730223
_cell_angle_alpha	89.997552
_cell_angle_beta	89.994794
_cell_angle_gamma	84.335986
loop_
_atom_site_label
_atom_site_type_symbol
_atom_site_fract_x
_atom_site_fract_y
_atom_site_fract_z
O1	O	1.662446	-0.179059	-0.114332
O2	O	1.309514	-0.088522	-0.114324
O3	O	1.456729	-0.304541	-0.114323
O4	O	1.515231	0.036960	-0.114334
O5	O	1.456716	-0.304543	0.114257
O6	O	1.309500	-0.088524	0.114255
O7	O	1.662433	-0.179061	0.114248
Zn8	Zn	1.485965	-0.133793	0.150544
Zn9	Zn	1.485982	-0.133790	-0.150620
O10	O	1.515217	0.036958	0.114246
C11	C	1.263622	-0.080062	-0.000034
C12	C	1.126895	-0.054865	-0.000031
C13	C	0.915317	-0.120775	-0.000053
C14	C	1.056631	-0.146820	-0.000035
C15	C	1.445930	-0.347575	-0.000034
C16	C	1.413757	-0.475796	-0.000038
C17	C	1.502592	-0.567529	-0.000042
C18	C	1.469342	-0.700053	-0.000046
C19	C	1.708325	-0.187521	-0.000046
C20	C	1.845052	-0.212718	-0.000058
C21	C	1.526016	0.079992	-0.000045
C22	C	1.558189	0.208213	-0.000050
N23	N	1.485962	-0.133798	0.356080
N24	N	1.485993	-0.133796	-0.356157
C25	C	1.551184	-0.229423	0.428007
C26	C	1.551197	-0.229426	0.571890
C27	C	1.420762	-0.038165	0.571907
C28	C	1.420743	-0.038169	0.428026
H29	H	1.101088	-0.244824	-0.000035
H30	H	1.368665	-0.719623	-0.000053
H31	H	0.870855	-0.022779	-0.000071
C32	C	1.712381	-0.288177	0.733665
C33	C	1.622893	-0.334537	0.650956
H34	H	1.756637	-0.353073	0.782482
H35	H	1.767657	-0.248802	0.677521
H36	H	1.673531	-0.231228	0.797102
H37	H	1.661744	-0.391480	0.587512
H38	H	1.567609	-0.373932	0.707106
C39	C	0.938518	0.077638	-0.000062
C40	C	1.066894	0.077441	-0.000046
H41	H	0.901479	0.159317	-0.000065
H42	H	0.913520	0.036875	-0.079769
H43	H	0.913491	0.036871	0.079653
H44	H	1.091922	0.118200	-0.079767
H45	H	1.091902	0.118221	0.079669
C46	C	1.430560	0.124982	0.266193
C47	C	1.349050	0.066954	0.348952
H48	H	1.386297	0.189871	0.217371
H49	H	1.491265	0.156416	0.322304
H50	H	1.469384	0.068014	0.202760
H51	H	1.310233	0.123921	0.412392
H52	H	1.288323	0.035521	0.292836
H53	H	1.367664	0.039695	0.630499
C54	C	1.033436	-0.345209	-0.000026
C55	C	0.905060	-0.345016	-0.000043
H56	H	1.070478	-0.426887	-0.000009
H57	H	1.058462	-0.304450	-0.079732
H58	H	1.058432	-0.304436	0.079691
H59	H	0.880064	-0.385782	-0.079765
H60	H	0.880024	-0.385792	0.079671
C61	C	1.541242	-0.392612	0.266295
C62	C	1.622816	-0.334592	0.348956
H63	H	1.585454	-0.457551	0.217501
H64	H	1.480528	-0.423975	0.322470
H65	H	1.502435	-0.335657	0.202838
H66	H	1.661617	-0.391544	0.412420
H67	H	1.683551	-0.303229	0.292776
C68	C	1.645130	-0.414944	-0.000030
C69	C	1.638498	-0.541116	-0.000038
H70	H	1.729036	-0.398644	-0.000019
H71	H	1.605448	-0.380308	-0.079737
H72	H	1.605420	-0.380317	0.079685
H73	H	1.678200	-0.575742	-0.079759
H74	H	1.678197	-0.575766	0.079677
H75	H	1.658866	-0.772219	-0.000156
C76	C	1.271219	-0.628381	-0.000039
C77	C	1.277851	-0.502209	-0.000036
H78	H	1.187313	-0.644681	-0.000030
H79	H	1.310914	-0.663008	-0.079748
H80	H	1.310916	-0.663018	0.079675
H81	H	1.238162	-0.467573	-0.079756
H82	H	1.238139	-0.467568	0.079680
