data_functionalizedCrystal
_audit_creation_method	'MofGen! by Chris Wilmer'
_symmetry_space_group_name_H-M	'P1'
_symmetry_Int_Tables_number	1
_symmetry_cell_setting	triclinic
loop_
_symmetry_equiv_pos_as_xyz
  x,y,z
_cell_length_a	15.538191
_cell_length_b	23.532407
_cell_length_c	14.750779
_cell_angle_alpha	77.433997
_cell_angle_beta	97.572172
_cell_angle_gamma	65.060386
loop_
_atom_site_label
_atom_site_type_symbol
_atom_site_fract_x
_atom_site_fract_y
_atom_site_fract_z
O1	O	1.231045	-0.168713	-0.079813
O2	O	0.956168	-0.102826	-0.079822
O3	O	1.101900	-0.220390	-0.079800
O4	O	1.085313	-0.051149	-0.079835
O5	O	1.143097	-0.253621	0.079857
O6	O	0.997364	-0.136057	0.079835
O7	O	1.272242	-0.201944	0.079843
Zn8	Zn	1.141344	-0.174277	0.105188
Zn9	Zn	1.087066	-0.130493	-0.105166
O10	O	1.126510	-0.084380	0.079821
C11	C	0.941606	-0.112548	0.000006
C12	C	0.836839	-0.092014	0.000003
C13	C	0.550965	-0.296010	0.000031
C14	C	0.452517	-0.276701	0.000026
C15	C	0.429052	-0.168092	0.000004
C16	C	0.527501	-0.187393	0.000013
C17	C	0.588450	-0.251353	0.000026
C18	C	0.564986	-0.142735	0.000008
C19	C	0.663425	-0.162034	0.000012
C20	C	0.724379	-0.225990	0.000022
C21	C	0.686889	-0.270651	0.000030
C22	C	0.504034	-0.078774	-0.000012
C23	C	0.541519	-0.034116	-0.000017
C24	C	0.639961	-0.053416	-0.000006
C25	C	0.700915	-0.117373	0.000004
C26	C	0.677451	-0.008755	-0.000014
C27	C	0.775891	-0.028054	-0.000010
C28	C	0.799354	-0.136672	0.000008
C29	C	1.122077	-0.258136	0.000031
C30	C	1.120810	-0.321097	0.000038
C31	C	1.199074	-0.736103	-0.000012
C32	C	1.197893	-0.795262	-0.000019
O33	O	1.270448	-0.846752	-0.000052
N34	N	1.111258	-0.800275	-0.000021
C35	C	1.025796	-0.746122	-0.000026
O36	O	0.951997	-0.755818	-0.000029
C37	C	1.026976	-0.686963	-0.000025
C38	C	1.113619	-0.681957	-0.000013
C39	C	1.285710	-0.731095	-0.000001
C40	C	1.286891	-0.671940	0.000008
C41	C	1.201436	-0.617794	0.000006
C42	C	1.114800	-0.622802	-0.000004
C43	C	0.941513	-0.632810	-0.000037
C44	C	0.942701	-0.573649	-0.000037
C45	C	1.029344	-0.568643	-0.000025
C46	C	1.030526	-0.509501	0.000003
N47	N	1.117161	-0.504489	0.000005
C48	C	1.202616	-0.558635	0.000007
C49	C	1.023324	-0.870362	-0.000028
C50	C	1.022144	-0.929521	-0.000022
C51	C	1.194241	-0.978656	-0.000017
C52	C	1.195421	-0.919497	-0.000017
C53	C	1.109959	-0.865349	-0.000026
C54	C	1.205090	-0.434404	0.000027
C55	C	1.206264	-0.375243	0.000040
C56	C	1.034167	-0.326112	0.000030
C57	C	1.032993	-0.385268	0.000022
C58	C	1.118461	-0.439415	0.000017
O59	O	0.958008	-0.457984	0.000032
O60	O	1.276399	-0.548925	-0.000002
C61	C	1.286804	-0.192222	0.000014
C62	C	1.391568	-0.212754	0.000010
C63	C	1.106332	-0.046633	-0.000012
C64	C	1.107598	0.016329	-0.000025
N65	N	1.178395	-0.204160	0.248749
N66	N	1.050023	-0.100616	-0.248728
C67	C	0.946546	-0.017183	0.600532
C68	C	0.972516	-0.038120	0.701035
C69	C	1.101588	-0.142200	0.701018
C70	C	1.075626	-0.121272	0.600512
C71	C	0.998105	-0.058763	0.550278
C72	C	1.127185	-0.162853	0.550258
C73	C	1.101228	-0.141925	0.449762
C74	C	1.023713	-0.079417	0.399520
C75	C	0.972148	-0.037835	0.449781
C76	C	1.204710	-0.225360	0.600495
C77	C	1.256269	-0.266941	0.550240
C78	C	1.230308	-0.246015	0.449742
C79	C	1.152792	-0.183507	0.399500
C80	C	1.281872	-0.287597	0.399480
C81	C	1.255915	-0.266669	0.298984
C82	C	1.126836	-0.162579	0.299004
H83	H	0.848985	-0.188755	0.000024
H84	H	0.423878	-0.063063	-0.000018
O85	O	0.819955	-0.244638	-0.000102
C86	C	0.825076	-0.204098	-0.082806
H87	H	0.754388	-0.155526	-0.110382
H88	H	0.889968	-0.194186	-0.064211
H89	H	0.835015	-0.229801	-0.140699
O90	O	0.871342	0.043589	0.551766
C91	C	0.892470	0.091803	0.576326
H92	H	0.975158	0.070743	0.603942
H93	H	0.864276	0.136441	0.510230
H94	H	0.855061	0.107213	0.634662
O95	O	0.938007	-0.934435	-0.000152
C96	C	0.910818	-0.949943	-0.082858
H97	H	0.978236	-0.974402	-0.110422
H98	H	0.878358	-0.985012	-0.064269
H99	H	0.853877	-0.902959	-0.140757
H100	H	0.930524	-0.004255	0.741948
O101	O	0.812454	0.015239	0.000121
C102	C	0.890011	-0.009883	0.082824
H103	H	0.922055	-0.065664	0.110395
H104	H	0.949472	0.003401	0.064230
H105	H	0.861224	0.012300	0.140721
H106	H	0.962448	-0.389349	0.000039
H107	H	0.627810	0.043323	-0.000034
H108	H	0.873104	-0.529561	-0.000046
H109	H	1.164709	-0.193095	0.741930
O110	O	0.857369	-0.637712	-0.000186
C111	C	0.830187	-0.653221	-0.082894
H112	H	0.897611	-0.677689	-0.110445
H113	H	0.797712	-0.688282	-0.064314
H114	H	0.773259	-0.606236	-0.140800
H115	H	1.276823	-0.371174	0.000052
O116	O	1.306069	-0.307152	0.250309
C117	C	1.380070	-0.366806	0.316197
H118	H	1.359890	-0.374388	0.387844
H119	H	1.387396	-0.409299	0.287158
H120	H	1.452762	-0.364969	0.326866
O121	O	0.998393	-0.058971	0.301897
C122	C	0.918901	0.005109	0.268338
H123	H	0.917081	0.030436	0.326254
H124	H	0.927920	0.034417	0.201096
H125	H	0.847423	0.002292	0.250528
O126	O	1.277184	-1.031241	-0.000197
C127	C	1.260291	-1.049715	-0.082878
H128	H	1.196904	-1.005905	-0.140666
H129	H	1.329215	-1.066338	-0.110638
H130	H	1.241096	-1.091839	-0.064189
O131	O	0.369973	-0.105972	0.000120
C132	C	0.408212	-0.094870	0.082818
H133	H	0.490133	-0.130064	0.110393
H134	H	0.396052	-0.041978	0.064216
H135	H	0.369371	-0.103588	0.140715
H136	H	1.355300	-0.775177	-0.000003
H137	H	0.953727	-0.826275	-0.000028
H138	H	1.265973	-0.915427	-0.000008
O139	O	0.896944	0.022937	0.401016
C140	C	0.918072	0.071150	0.425575
H141	H	1.000761	0.050090	0.453191
H142	H	0.889879	0.115788	0.359479
H143	H	0.880663	0.086560	0.483911
O144	O	0.416181	-0.320116	-0.000095
C145	C	0.426014	-0.340644	-0.082789
H146	H	0.487041	-0.333478	-0.110355
H147	H	0.444909	-0.394857	-0.064187
H148	H	0.354046	-0.310199	-0.140694
H149	H	1.225844	-0.242396	0.682325
H150	H	1.319390	-0.317836	0.591153
H151	H	1.274686	-0.478484	0.000019
O152	O	0.482181	0.028020	-0.000155
C153	C	0.403217	0.059653	-0.082858
H154	H	0.391543	0.021132	-0.110424
H155	H	0.333827	0.092336	-0.064267
H156	H	0.420427	0.091070	-0.140758
O157	O	1.357055	-0.348353	0.448331
C158	C	1.321867	-0.385226	0.506503
H159	H	1.239629	-0.364528	0.476234
H160	H	1.361096	-0.438766	0.507651
H161	H	1.336422	-0.382200	0.582663
O162	O	0.746023	-0.332755	-0.000126
C163	C	0.707763	-0.343876	-0.082794
H164	H	0.658918	-0.294767	-0.140595
H165	H	0.770664	-0.375420	-0.110543
H166	H	0.662773	-0.370435	-0.064092
O167	O	0.610260	-0.358171	0.000218
C168	C	0.689252	-0.389786	0.082896
H169	H	0.667839	-0.365179	0.140681
H170	H	0.707911	-0.443815	0.110665
H171	H	0.755879	-0.385929	0.064199
O172	O	1.371126	-0.667183	-0.000031
C173	C	1.446292	-0.727670	-0.000009
H174	H	1.412413	-0.756338	-0.030236
H175	H	1.494856	-0.718116	-0.046361
H176	H	1.492390	-0.757469	0.076586
O177	O	0.951176	-0.273562	0.000193
C178	C	0.919844	-0.290284	0.082857
H179	H	0.984770	-0.332957	0.140662
H180	H	0.888751	-0.246009	0.110604
H181	H	0.860678	-0.305405	0.064152
O182	O	1.051631	-0.101808	0.250238
C183	C	1.072759	-0.053594	0.274797
H184	H	1.155448	-0.074654	0.302414
H185	H	1.044566	-0.008956	0.208701
H186	H	1.035350	-0.038184	0.333134
