data_functionalizedCrystal
_audit_creation_method	'MofGen! by Chris Wilmer'
_symmetry_space_group_name_H-M	'P1'
_symmetry_Int_Tables_number	1
_symmetry_cell_setting	triclinic
loop_
_symmetry_equiv_pos_as_xyz
  x,y,z
_cell_length_a	18.215405
_cell_length_b	18.215407
_cell_length_c	11.169409
_cell_angle_alpha	90.022045
_cell_angle_beta	89.960202
_cell_angle_gamma	89.983379
loop_
_atom_site_label
_atom_site_type_symbol
_atom_site_fract_x
_atom_site_fract_y
_atom_site_fract_z
Zn1	Zn	-0.293087	-1.125097	-0.678551
Zn2	Zn	-0.416178	-1.124998	-0.477842
Zn3	Zn	-0.293112	-1.002022	-0.477878
Zn4	Zn	-0.416099	-1.001996	-0.678479
O5	O	-0.354619	-1.063528	-0.578188
O6	O	-0.309438	-1.228068	-0.651942
O7	O	-0.399897	-1.108655	-0.309897
O8	O	-0.190125	-1.018401	-0.504543
O9	O	-0.399872	-1.227996	-0.504482
O10	O	-0.190106	-1.108824	-0.651977
O11	O	-0.309481	-1.018305	-0.309923
O12	O	-0.309404	-0.899035	-0.504473
O13	O	-0.399737	-1.018356	-0.846439
O14	O	-0.399761	-0.899015	-0.651854
O15	O	-0.309361	-1.108798	-0.846492
O16	O	-0.519152	-1.108629	-0.504412
O17	O	-0.519093	-1.018260	-0.651819
C18	C	-0.354577	-0.872322	-0.578160
C19	C	-0.354577	-0.790523	-0.578177
C20	C	-0.307594	-0.525498	-0.655081
C21	C	-0.307586	-0.602357	-0.655079
C22	C	-0.401619	-0.602300	-0.501299
C23	C	-0.401630	-0.525443	-0.501308
C24	C	-0.354614	-0.487044	-0.578198
C25	C	-0.354594	-0.640760	-0.578186
C26	C	-0.354586	-0.724093	-0.578183
C27	C	-0.354623	-0.403705	-0.578202
C28	C	-0.545825	-1.063451	-0.578130
C29	C	-0.627624	-1.063485	-0.578145
C30	C	-0.815824	-1.110651	-0.501532
C31	C	-0.892683	-1.110683	-0.501561
C32	C	-0.892662	-1.016500	-0.654930
C33	C	-0.815804	-1.016472	-0.654906
C34	C	-0.777388	-1.063546	-0.578200
C35	C	-0.931104	-1.063607	-0.578253
C36	C	-1.014437	-1.063643	-0.578285
C37	C	-0.694049	-1.063512	-0.578169
C38	C	-0.162666	-1.063626	-0.578272
C39	C	-0.080867	-1.063668	-0.578308
C40	C	-0.354537	-1.063585	-0.891230
C41	C	-0.354502	-1.063609	-1.024630
C42	C	-0.354649	-0.255481	-0.578211
C43	C	-0.354631	-0.337280	-0.578207
C44	C	-0.354647	-1.063514	-0.266363
C45	C	-0.354475	-1.063633	-0.132964
H46	H	-0.439897	-0.633574	-0.438697
H47	H	-0.269310	-0.494236	-0.717689
Br48	Br	-0.763689	-1.174537	-0.397432
Br49	Br	-0.465449	-0.473250	-0.396961
H50	H	-0.784507	-0.978113	-0.717344
H51	H	-0.923950	-0.978173	-0.717379
Br52	Br	-0.243775	-0.654542	-0.759433
Br53	Br	-0.944844	-1.174618	-0.397513
