data_functionalizedCrystal
_audit_creation_method	'MofGen! by Chris Wilmer'
_symmetry_space_group_name_H-M	'P1'
_symmetry_Int_Tables_number	1
_symmetry_cell_setting	triclinic
loop_
_symmetry_equiv_pos_as_xyz
  x,y,z
_cell_length_a	21.395362
_cell_length_b	18.215405
_cell_length_c	18.215399
_cell_angle_alpha	89.969449
_cell_angle_beta	89.960921
_cell_angle_gamma	90.040762
loop_
_atom_site_label
_atom_site_type_symbol
_atom_site_fract_x
_atom_site_fract_y
_atom_site_fract_z
Zn1	Zn	0.957855	-0.292680	-0.416481
Zn2	Zn	0.957777	-0.415751	-0.293409
Zn3	Zn	0.853079	-0.292737	-0.293387
Zn4	Zn	0.853050	-0.415743	-0.416392
O5	O	0.905440	-0.354228	-0.354917
O6	O	1.045522	-0.308985	-0.400201
O7	O	0.943868	-0.399460	-0.190421
O8	O	0.867022	-0.189745	-0.309743
O9	O	1.045465	-0.399405	-0.309781
O10	O	0.944001	-0.189703	-0.400180
O11	O	0.866947	-0.309082	-0.190405
O12	O	0.765397	-0.309075	-0.309657
O13	O	0.866973	-0.399391	-0.519388
O14	O	0.765376	-0.399447	-0.400029
O15	O	0.943973	-0.308977	-0.519453
O16	O	0.943840	-0.518734	-0.309695
O17	O	0.866897	-0.518729	-0.400051
C18	C	0.742652	-0.354267	-0.354832
C19	C	0.673011	-0.354301	-0.354813
C20	C	0.640303	-0.401420	-0.401799
C21	C	0.574868	-0.401402	-0.401832
C22	C	0.542143	-0.354273	-0.354865
C23	C	0.574858	-0.307145	-0.307876
C24	C	0.640293	-0.307159	-0.307850
C25	C	0.438422	-0.348357	-0.288613
C26	C	0.372989	-0.348348	-0.288638
C27	C	0.340322	-0.354225	-0.354946
C28	C	0.373096	-0.360127	-0.421232
C29	C	0.438530	-0.360141	-0.421206
C30	C	0.471190	-0.354252	-0.354889
C31	C	0.236662	-0.401327	-0.401972
C32	C	0.171225	-0.401304	-0.402006
C33	C	0.171217	-0.307050	-0.308044
C34	C	0.236652	-0.307069	-0.308016
C35	C	0.269371	-0.354212	-0.354979
C36	C	0.905374	-0.545434	-0.354882
C37	C	0.905403	-0.627233	-0.354891
C38	C	0.945561	-0.815405	-0.307930
C39	C	0.945589	-0.892264	-0.307948
C40	C	0.865399	-0.892298	-0.401957
C41	C	0.865375	-0.815441	-0.401943
C42	C	0.905455	-0.776996	-0.354925
C43	C	0.905507	-0.930713	-0.354957
C44	C	0.905537	-1.014046	-0.354977
C45	C	0.905426	-0.693658	-0.354906
C46	C	1.068863	-0.354189	-0.355003
C47	C	1.138505	-0.354173	-0.355040
C48	C	0.905478	-0.354177	-0.546870
C49	C	0.905494	-0.354155	-0.628669
C50	C	0.905523	-0.162275	-0.354969
C51	C	0.905559	-0.080476	-0.354991
C52	C	0.945603	-0.307033	-0.816898
C53	C	0.945610	-0.307011	-0.893757
C54	C	0.865430	-0.401164	-0.893678
C55	C	0.865420	-0.401182	-0.816821
C56	C	0.905510	-0.354117	-0.778433
C57	C	0.905528	-0.354078	-0.932149
C58	C	0.905535	-0.354055	-1.015483
C59	C	0.905501	-0.354139	-0.695094
C60	C	0.905438	-0.354225	-0.163711
C61	C	0.905543	-0.354040	-0.081912
H62	H	0.666938	-0.439806	-0.440041
H63	H	0.978248	-0.923533	-0.269680
C64	C	0.538882	-0.453241	-0.453520
N65	N	0.511779	-0.492288	-0.492450
H66	H	0.832767	-0.923609	-0.440237
C67	C	0.135223	-0.255206	-0.256380
N68	N	0.108110	-0.216155	-0.217467
C69	C	0.989653	-0.773119	-0.256213
N70	N	1.022867	-0.741272	-0.217259
C71	C	0.821265	-0.773188	-0.453659
N72	N	0.788049	-0.741364	-0.492616
C73	C	0.989697	-0.255254	-0.774674
N74	N	1.022908	-0.216250	-0.742873
C75	C	0.989717	-0.255217	-0.936065
N76	N	1.022940	-0.216203	-0.967932
H77	H	0.832792	-0.439484	-0.924943
H78	H	0.666923	-0.268786	-0.269588
H79	H	0.346500	-0.364911	-0.475227
H80	H	0.832767	-0.439522	-0.785501
H81	H	0.263283	-0.268703	-0.269751
H82	H	0.465212	-0.364944	-0.475177
H83	H	0.144595	-0.439672	-0.440272
C84	C	0.272654	-0.453176	-0.453640
N85	N	0.299762	-0.492227	-0.492559
H86	H	0.465015	-0.343567	-0.234613
C87	C	0.336945	-0.341850	-0.215724
N88	N	0.309797	-0.336953	-0.160803
H89	H	0.548210	-0.268770	-0.269637
