data_functionalizedCrystal
_audit_creation_method	'MofGen! by Chris Wilmer'
_symmetry_space_group_name_H-M	'P1'
_symmetry_Int_Tables_number	1
_symmetry_cell_setting	triclinic
loop_
_symmetry_equiv_pos_as_xyz
  x,y,z
_cell_length_a	19.077068
_cell_length_b	19.077212
_cell_length_c	19.805399
_cell_angle_alpha	87.677406
_cell_angle_beta	92.269429
_cell_angle_gamma	94.708021
loop_
_atom_site_label
_atom_site_type_symbol
_atom_site_fract_x
_atom_site_fract_y
_atom_site_fract_z
Zn1	Zn	-0.237477	1.066453	-0.433184
Zn2	Zn	-0.355370	1.061626	-0.324358
Zn3	Zn	-0.242221	0.948563	-0.315626
Zn4	Zn	-0.360055	0.943789	-0.433122
O5	O	-0.298781	1.005108	-0.376573
O6	O	-0.249170	1.164465	-0.422428
O7	O	-0.340385	1.046606	-0.228483
O8	O	-0.142940	0.968220	-0.327591
O9	O	-0.335785	1.160918	-0.342474
O10	O	-0.139454	1.054833	-0.413961
O11	O	-0.257255	0.963539	-0.222068
O12	O	-0.261798	0.849278	-0.327532
O13	O	-0.343770	0.960083	-0.527847
O14	O	-0.348370	0.845770	-0.413856
O15	O	-0.253713	1.050204	-0.527892
O16	O	-0.454643	1.041976	-0.342415
O17	O	-0.458086	0.955402	-0.422324
C18	C	-0.306108	0.821944	-0.369740
C19	C	-0.309260	0.743586	-0.366834
C20	C	-0.331834	0.302310	-0.346021
C21	C	-0.328869	0.375937	-0.348746
C22	C	-0.282364	0.414596	-0.391810
C23	C	-0.238816	0.379625	-0.432145
C24	C	-0.241778	0.306000	-0.429416
C25	C	-0.268674	0.634990	-0.404441
C26	C	-0.265717	0.708620	-0.407168
C27	C	-0.355769	0.704927	-0.323768
C28	C	-0.358729	0.631300	-0.321045
C29	C	-0.315179	0.596336	-0.361378
N30	N	-0.279334	0.489854	-0.394598
N31	N	-0.318207	0.521079	-0.358586
C32	C	-0.481943	0.997666	-0.383326
C33	C	-0.560298	0.994547	-0.386240
C34	C	-0.595293	1.038191	-0.346042
C35	C	-0.668916	1.035262	-0.348787
C36	C	-0.707543	0.988684	-0.391726
C37	C	-0.672543	0.945038	-0.431929
C38	C	-0.598922	0.947972	-0.429187
C39	C	-0.927923	0.975077	-0.404387
C40	C	-1.001550	0.972145	-0.407124
C41	C	-0.997917	1.062370	-0.323983
C42	C	-0.924294	1.065296	-0.321242
C43	C	-0.889301	1.021653	-0.361447
N44	N	-0.782797	0.985687	-0.394531
N45	N	-0.814048	1.024654	-0.358645
C46	C	-0.114902	1.012598	-0.369809
C47	C	-0.036544	1.015789	-0.366926
C48	C	-0.298735	1.005149	-0.553115
C49	C	-0.298715	1.005167	-0.628347
C50	C	-0.291425	1.188986	-0.383432
C51	C	-0.288291	1.267344	-0.386355
C52	C	-0.251820	1.052094	-0.663716
C53	C	-0.251799	1.052102	-0.734404
C54	C	-0.298678	1.005186	-0.769722
C55	C	-0.345575	0.958254	-0.734348
C56	C	-0.345592	0.958243	-0.663661
C57	C	-0.345508	0.958296	-1.019421
C58	C	-0.345489	0.958312	-1.090113
C59	C	-0.251715	1.052155	-1.090163
C60	C	-0.251732	1.052144	-1.019476
C61	C	-0.298626	1.005210	-0.984109
C62	C	-0.298647	1.005201	-0.907461
C63	C	-0.298661	1.005198	-0.846369
C64	C	-0.298774	1.005109	-0.200716
C65	C	-0.298590	1.005236	-0.125483
H66	H	-0.200948	0.411107	-0.467206
O67	O	-0.381993	0.260620	-0.299570
H68	H	-0.376744	0.203549	-0.304451
H69	H	-0.703999	0.907117	-0.466894
O70	O	-0.194810	0.268282	-0.472915
H71	H	-0.227757	0.233467	-0.507219
O72	O	-0.201129	1.102765	-1.128320
H73	H	-0.211012	1.157602	-1.117277
O74	O	-0.201172	1.102746	-0.981381
H75	H	-0.168554	1.135376	-1.017851
H76	H	-0.570430	0.912433	-0.461921
O77	O	-0.553631	1.088432	-0.299731
H78	H	-0.590336	1.118293	-0.272246
O79	O	-0.890196	0.927983	-0.447734
H80	H	-0.903803	0.939463	-0.501841
H81	H	-0.383742	0.920051	-0.763110
O82	O	-0.706663	1.082330	-0.305427
H83	H	-0.667434	1.115204	-0.275100
H84	H	-1.026416	1.097903	-0.291251
O85	O	-0.201258	1.102696	-0.625623
H86	H	-0.168641	1.135324	-0.662095
O87	O	-0.201224	1.102719	-0.772554
H88	H	-0.168637	1.135348	-0.736120
O89	O	-0.221704	0.597283	-0.447942
H90	H	-0.233305	0.610942	-0.502018
O91	O	-0.882629	1.115527	-0.274924
H92	H	-0.847590	1.152709	-0.305328
H93	H	-0.364325	0.404403	-0.315901
H94	H	-0.227842	0.740094	-0.442235
O95	O	-0.396049	0.907643	-0.981275
H96	H	-0.428634	0.875014	-1.017711
O97	O	-1.043217	0.921911	-0.453445
H98	H	-1.006516	0.892061	-0.480948
H99	H	-0.396598	0.599829	-0.285978
H100	H	-0.383664	0.920104	-1.118867
O101	O	-0.396162	0.907620	-0.625508
H102	H	-0.428758	0.874998	-0.661941
H103	H	-0.391224	0.733403	-0.290930
