data_functionalizedCrystal
_audit_creation_method	'MofGen! by Chris Wilmer'
_symmetry_space_group_name_H-M	'P1'
_symmetry_Int_Tables_number	1
_symmetry_cell_setting	triclinic
loop_
_symmetry_equiv_pos_as_xyz
  x,y,z
_cell_length_a	6.817900
_cell_length_b	9.514063
_cell_length_c	14.858572
_cell_angle_alpha	90.778508
_cell_angle_beta	104.524003
_cell_angle_gamma	118.843314
loop_
_atom_site_label
_atom_site_type_symbol
_atom_site_fract_x
_atom_site_fract_y
_atom_site_fract_z
V1	V	-4.123447	-0.223219	-0.290698
V2	V	-3.623447	0.276781	0.209302
O3	O	-4.021918	0.009687	-0.284409
O4	O	-3.521918	0.509687	0.215591
O5	O	-4.158170	-0.441606	-0.289436
O6	O	-3.658170	0.058394	0.210564
O7	O	-4.078952	-0.220242	-0.417150
O8	O	-3.578952	0.279758	0.082850
O9	O	-4.101685	-0.213210	-0.155811
O10	O	-3.601685	0.286790	0.344189
V11	V	-4.595798	-0.195307	-0.274476
V12	V	-4.095798	0.304693	0.225524
O13	O	-4.409212	-0.284447	-0.326282
O14	O	-3.909212	0.215553	0.173718
O15	O	-4.760231	-0.134079	-0.238892
O16	O	-4.260231	0.365921	0.261108
O17	O	-4.337869	0.023080	-0.275737
O18	O	-3.837869	0.523080	0.224263
O19	O	-4.814724	-0.428213	-0.280765
O20	O	-4.314724	0.071787	0.219235
O21	O	-4.734957	-0.205316	-0.409363
O22	O	-4.234957	0.294684	0.090637
O23	O	-4.417087	-0.198284	-0.148024
O24	O	-3.917087	0.301716	0.351976
C25	C	-4.023266	-0.494829	-0.285038
C26	C	-3.523266	0.005171	0.214962
C27	C	-4.132968	-0.673366	-0.284850
C28	C	-3.632968	-0.173366	0.215150
C29	C	-3.922213	-0.212456	-0.447948
C30	C	-3.422213	0.287544	0.052052
C31	C	-3.967667	-0.211467	-0.551328
C32	C	-3.467667	0.288533	-0.051328
C33	C	-4.134030	-0.207852	-0.929884
C34	C	-3.634030	0.292148	-0.429884
C35	C	-4.087734	-0.208858	-0.824558
C36	C	-3.587734	0.291142	-0.324558
C37	C	-4.050851	-0.209661	-0.740609
C38	C	-3.550851	0.290339	-0.240609
C39	C	-4.004551	-0.210664	-0.635276
C40	C	-3.504551	0.289336	-0.135276
C41	C	-4.136118	0.076295	-0.280133
C42	C	-3.636118	0.576295	0.219867
C43	C	-4.005654	0.254830	-0.280328
C44	C	-3.505654	0.754830	0.219672
C45	C	-4.237169	-0.206076	-0.117221
C46	C	-3.737169	0.293924	0.382779
C47	C	-4.170951	-0.207057	-0.013840
C48	C	-3.670951	0.292943	0.486160
H49	H	-4.325886	-0.748475	-0.288565
H50	H	-3.825886	-0.248475	0.211435
H51	H	-3.812714	-0.670049	-0.276599
H52	H	-3.312714	-0.170049	0.223401
