data_functionalizedCrystal
_audit_creation_method	'MofGen! by Chris Wilmer'
_symmetry_space_group_name_H-M	'P1'
_symmetry_Int_Tables_number	1
_symmetry_cell_setting	triclinic
loop_
_symmetry_equiv_pos_as_xyz
  x,y,z
_cell_length_a	13.897447
_cell_length_b	13.897449
_cell_length_c	13.897441
_cell_angle_alpha	90.023394
_cell_angle_beta	90.029327
_cell_angle_gamma	90.020357
loop_
_atom_site_label
_atom_site_type_symbol
_atom_site_fract_x
_atom_site_fract_y
_atom_site_fract_z
Zn1	Zn	-0.383963	1.474690	0.545458
Zn2	Zn	0.116037	1.974690	1.045458
Zn3	Zn	-0.545285	1.474579	0.384163
Zn4	Zn	-0.045285	1.974579	0.884163
Zn5	Zn	-0.384007	1.313379	0.384169
Zn6	Zn	0.115993	1.813379	0.884169
Zn7	Zn	-0.545220	1.313356	0.545408
Zn8	Zn	-0.045220	1.813356	1.045408
O9	O	-0.464619	1.394001	0.464800
O10	O	0.035381	1.894001	0.964800
O11	O	-0.405371	1.609657	0.524080
O12	O	0.094629	2.109657	1.024080
O13	O	-0.523937	1.453159	0.249182
O14	O	-0.023937	1.953159	0.749182
O15	O	-0.249020	1.334834	0.405588
O16	O	0.250980	1.834834	0.905588
O17	O	-0.523893	1.609576	0.405578
O18	O	-0.023893	2.109576	0.905578
O19	O	-0.248987	1.453348	0.524086
O20	O	0.251013	1.953348	1.024086
O21	O	-0.405447	1.334726	0.249187
O22	O	0.094553	1.834726	0.749187
O23	O	-0.405384	1.178395	0.405539
O24	O	0.094616	1.678395	0.905539
O25	O	-0.523783	1.334794	0.680397
O26	O	-0.023783	1.834794	1.180397
O27	O	-0.523826	1.178378	0.524001
O28	O	-0.023826	1.678378	1.024001
O29	O	-0.405308	1.453326	0.680433
O30	O	0.094692	1.953326	1.180433
O31	O	-0.680258	1.453136	0.405529
O32	O	-0.180258	1.953136	0.905529
O33	O	-0.680210	1.334686	0.523995
O34	O	-0.180210	1.834686	1.023995
C35	C	-0.464604	1.143387	0.464766
C36	C	0.035396	1.643387	0.964766
C37	C	-0.464621	1.036173	0.464775
C38	C	0.035379	1.536173	0.964775
C39	C	-0.464624	0.949103	0.464791
C40	C	0.035376	1.449103	0.964791
C41	C	-0.464631	0.839871	0.464820
C42	C	0.035369	1.339871	0.964820
C43	C	-0.715233	1.393923	0.464777
C44	C	-0.215233	1.893923	0.964777
C45	C	-0.822447	1.393978	0.464800
C46	C	-0.322447	1.893978	0.964800
C47	C	-0.909517	1.394024	0.464822
C48	C	-0.409517	1.894024	0.964822
C49	C	-1.018749	1.394092	0.464847
C50	C	-0.518749	1.894092	0.964847
C51	C	-0.213026	1.394106	0.464843
C52	C	0.286974	1.894106	0.964843
C53	C	-0.105812	1.394151	0.464862
C54	C	0.394188	1.894151	0.964862
C55	C	-0.464533	1.394070	0.716393
C56	C	0.035467	1.894070	1.216393
C57	C	-0.464497	1.394099	0.823607
C58	C	0.035503	1.894099	1.323607
C59	C	-0.464634	1.645594	0.464834
C60	C	0.035366	2.145594	0.964834
C61	C	-0.464641	1.752808	0.464849
C62	C	0.035359	2.252808	0.964849
C63	C	-0.464634	1.393989	0.214185
C64	C	0.035366	1.893989	0.714185
C65	C	-0.464399	1.394146	0.106972
C66	C	0.035601	1.894146	0.606972
C67	C	-0.464432	1.394125	1.019902
C68	C	0.035568	1.894125	1.519902
C69	C	-0.464471	1.394107	0.910669
C70	C	0.035529	1.894107	1.410669
