data_functionalizedCrystal
_audit_creation_method	'MofGen! by Chris Wilmer'
_symmetry_space_group_name_H-M	'P1'
_symmetry_Int_Tables_number	1
_symmetry_cell_setting	triclinic
loop_
_symmetry_equiv_pos_as_xyz
  x,y,z
_cell_length_a	21.395362
_cell_length_b	21.395361
_cell_length_c	21.395356
_cell_angle_alpha	90.030681
_cell_angle_beta	89.957023
_cell_angle_gamma	89.953415
loop_
_atom_site_label
_atom_site_type_symbol
_atom_site_fract_x
_atom_site_fract_y
_atom_site_fract_z
Zn1	Zn	0.957854	0.249189	-0.354573
Zn2	Zn	1.207854	0.499189	-0.104573
Zn3	Zn	1.457854	0.749189	0.145427
Zn4	Zn	1.707854	0.999189	0.395427
Zn5	Zn	0.957758	0.353965	-0.249790
Zn6	Zn	1.207758	0.603965	0.000210
Zn7	Zn	1.457758	0.853965	0.250210
Zn8	Zn	1.707758	1.103965	0.500210
Zn9	Zn	0.853070	0.249235	-0.249774
Zn10	Zn	1.103070	0.499235	0.000226
Zn11	Zn	1.353070	0.749235	0.250226
Zn12	Zn	1.603070	0.999235	0.500226
Zn13	Zn	0.853038	0.353962	-0.354494
Zn14	Zn	1.103038	0.603962	-0.104494
Zn15	Zn	1.353038	0.853962	0.145506
Zn16	Zn	1.603038	1.103962	0.395506
O17	O	0.905430	0.301588	-0.302158
O18	O	1.155430	0.551588	-0.052158
O19	O	1.405430	0.801588	0.197842
O20	O	1.655430	1.051588	0.447842
O21	O	1.045519	0.263070	-0.340712
O22	O	1.295519	0.513070	-0.090712
O23	O	1.545519	0.763070	0.159288
O24	O	1.795519	1.013070	0.409288
O25	O	0.943844	0.340094	-0.162110
O26	O	1.193844	0.590094	0.087890
O27	O	1.443844	0.840094	0.337890
O28	O	1.693844	1.090094	0.587890
O29	O	0.867024	0.161551	-0.263702
O30	O	1.117024	0.411551	-0.013702
O31	O	1.367024	0.661551	0.236298
O32	O	1.617024	0.911551	0.486298
O33	O	1.045448	0.340049	-0.263729
O34	O	1.295448	0.590049	-0.013729
O35	O	1.545448	0.840049	0.236271
O36	O	1.795448	1.090049	0.486271
O37	O	0.944008	0.161517	-0.340697
O38	O	1.194008	0.411517	-0.090697
O39	O	1.444008	0.661517	0.159303
O40	O	1.694008	0.911517	0.409303
O41	O	0.866931	0.263148	-0.162098
O42	O	1.116931	0.513148	0.087902
O43	O	1.366931	0.763148	0.337902
O44	O	1.616931	1.013148	0.587902
O45	O	0.765388	0.263145	-0.263626
O46	O	1.015388	0.513145	-0.013626
O47	O	1.265388	0.763145	0.236374
O48	O	1.515388	1.013145	0.486374
O49	O	0.866968	0.340042	-0.442183
O50	O	1.116968	0.590042	-0.192183
O51	O	1.366968	0.840042	0.057817
O52	O	1.616968	1.090042	0.307817
O53	O	0.765364	0.340087	-0.340564
O54	O	1.015364	0.590087	-0.090564
O55	O	1.265364	0.840087	0.159436
O56	O	1.515364	1.090087	0.409436
O57	O	0.943976	0.263066	-0.442240
O58	O	1.193976	0.513066	-0.192240
O59	O	1.443976	0.763066	0.057760
O60	O	1.693976	1.013066	0.307760
O61	O	0.943813	0.441643	-0.263653
O62	O	1.193813	0.691643	-0.013653
O63	O	1.443813	0.941643	0.236347
O64	O	1.693813	1.191643	0.486347
O65	O	0.866875	0.441640	-0.340579
O66	O	1.116875	0.691640	-0.090579
O67	O	1.366875	0.941640	0.159421
O68	O	1.616875	1.191640	0.409421
C69	C	0.905347	0.464375	-0.302123
C70	C	1.155347	0.714375	-0.052123
C71	C	1.405347	0.964375	0.197877
C72	C	1.655347	1.214375	0.447877
C73	C	0.905369	0.534017	-0.302129
C74	C	1.155369	0.784017	-0.052129
C75	C	1.405369	1.034017	0.197871
C76	C	1.655369	1.284017	0.447871
C77	C	0.742642	0.301621	-0.302085
C78	C	0.992642	0.551621	-0.052085
C79	C	1.242642	0.801621	0.197915
C80	C	1.492642	1.051621	0.447915
C81	C	0.673001	0.301650	-0.302069
C82	C	0.923001	0.551650	-0.052069
C83	C	1.173001	0.801650	0.197931
C84	C	1.423001	1.051650	0.447931
C85	C	0.905479	0.301549	-0.465581
C86	C	1.155479	0.551549	-0.215581
C87	C	1.405479	0.801549	0.034419
C88	C	1.655479	1.051549	0.284419
C89	C	0.905500	0.301532	-0.535222
C90	C	1.155500	0.551532	-0.285222
C91	C	1.405500	0.801532	-0.035222
C92	C	1.655500	1.051532	0.214778
C93	C	0.640292	0.341767	-0.342070
C94	C	0.890292	0.591767	-0.092070
C95	C	1.140292	0.841767	0.157930
C96	C	1.390292	1.091767	0.407930
C97	C	0.574856	0.341752	-0.342098
C98	C	0.824856	0.591752	-0.092098
C99	C	1.074856	0.841752	0.157902
C100	C	1.324856	1.091752	0.407902
C101	C	0.542133	0.301626	-0.302113
C102	C	0.792133	0.551626	-0.052113
C103	C	1.042133	0.801626	0.197887
C104	C	1.292133	1.051626	0.447887
C105	C	0.574850	0.261501	-0.262109
C106	C	0.824850	0.511501	-0.012109
C107	C	1.074850	0.761501	0.237891
C108	C	1.324850	1.011501	0.487891
C109	C	0.640284	0.261513	-0.262087
C110	C	0.890284	0.511513	-0.012087
C111	C	1.140284	0.761513	0.237913
C112	C	1.390284	1.011513	0.487913
C113	C	0.438409	0.296587	-0.245708
C114	C	0.688409	0.546587	0.004292
C115	C	0.938409	0.796587	0.254292
C116	C	1.188409	1.046587	0.504292
C117	C	0.372976	0.296580	-0.245730
C118	C	0.622976	0.546580	0.004270
C119	C	0.872976	0.796580	0.254270
C120	C	1.122976	1.046580	0.504270
C121	C	0.340312	0.301585	-0.302182
C122	C	0.590312	0.551585	-0.052182
C123	C	0.840312	0.801585	0.197818
C124	C	1.090312	1.051585	0.447818
C125	C	0.373089	0.306611	-0.358616
C126	C	0.623089	0.556611	-0.108616
C127	C	0.873089	0.806611	0.141384
C128	C	1.123089	1.056611	0.391384
C129	C	0.438523	0.306623	-0.358594
C130	C	0.688523	0.556623	-0.108594
C131	C	0.938523	0.806623	0.141406
C132	C	1.188523	1.056623	0.391406
C133	C	0.471180	0.301608	-0.302133
C134	C	0.721180	0.551608	-0.052133
C135	C	0.971180	0.801608	0.197867
C136	C	1.221180	1.051608	0.447867
C137	C	0.236650	0.341687	-0.342218
C138	C	0.486650	0.591687	-0.092218
C139	C	0.736650	0.841687	0.157782
C140	C	0.986650	1.091687	0.407782
C141	C	0.171214	0.341668	-0.342247
C142	C	0.421214	0.591668	-0.092247
C143	C	0.671214	0.841668	0.157753
C144	C	0.921214	1.091668	0.407753
C145	C	0.171208	0.261421	-0.262252
C146	C	0.421208	0.511421	-0.012252
C147	C	0.671208	0.761421	0.237748
C148	C	0.921208	1.011421	0.487748
C149	C	0.236644	0.261437	-0.262229
C150	C	0.486644	0.511437	-0.012229
C151	C	0.736644	0.761437	0.237771
C152	C	0.986644	1.011437	0.487771
C153	C	0.269361	0.301574	-0.302211
C154	C	0.519361	0.551574	-0.052211
C155	C	0.769361	0.801574	0.197789
C156	C	1.019361	1.051574	0.447789
C157	C	1.068853	0.301555	-0.302231
C158	C	1.318853	0.551555	-0.052231
C159	C	1.568853	0.801555	0.197769
C160	C	1.818853	1.051555	0.447769
C161	C	1.138494	0.301541	-0.302262
C162	C	1.388494	0.551541	-0.052262
C163	C	1.638494	0.801541	0.197738
C164	C	1.888494	1.051541	0.447738
C165	C	0.905530	0.138164	-0.302206
C166	C	1.155530	0.388164	-0.052206
C167	C	1.405530	0.638164	0.197794
C168	C	1.655530	0.888164	0.447794
C169	C	0.905573	0.068523	-0.302227
C170	C	1.155573	0.318523	-0.052227
C171	C	1.405573	0.568523	0.197773
C172	C	1.655573	0.818523	0.447773
C173	C	0.945466	0.566710	-0.262114
C174	C	1.195466	0.816710	-0.012114
C175	C	1.445466	1.066710	0.237886
C176	C	1.695466	1.316710	0.487886
C177	C	0.945495	0.632146	-0.262128
C178	C	1.195495	0.882146	-0.012128
C179	C	1.445495	1.132146	0.237872
C180	C	1.695495	1.382146	0.487872
C181	C	0.905416	0.664885	-0.302150
C182	C	1.155416	0.914885	-0.052150
C183	C	1.405416	1.164885	0.197850
C184	C	1.655416	1.414885	0.447850
C185	C	0.865317	0.632183	-0.342172
C186	C	1.115317	0.882183	-0.092172
C187	C	1.365317	1.132183	0.157828
C188	C	1.615317	1.382183	0.407828
C189	C	0.865293	0.566749	-0.342162
C190	C	1.115293	0.816749	-0.092162
C191	C	1.365293	1.066749	0.157838
C192	C	1.615293	1.316749	0.407838
C193	C	0.849001	0.768615	-0.307041
C194	C	1.099001	1.018615	-0.057041
C195	C	1.349001	1.268615	0.192959
C196	C	1.599001	1.518615	0.442959
C197	C	0.849024	0.834048	-0.307047
C198	C	1.099024	1.084048	-0.057047
C199	C	1.349024	1.334048	0.192953
C200	C	1.599024	1.584048	0.442953
C201	C	0.905489	0.866706	-0.302187
C202	C	1.155489	1.116706	-0.052187
C203	C	1.405489	1.366706	0.197813
C204	C	1.655489	1.616706	0.447813
C205	C	0.961934	0.833922	-0.297307
C206	C	1.211934	1.083922	-0.047307
C207	C	1.461934	1.333922	0.202693
C208	C	1.711934	1.583922	0.452693
C209	C	0.961910	0.768488	-0.297296
C210	C	1.211910	1.018488	-0.047296
C211	C	1.461910	1.268488	0.202704
C212	C	1.711910	1.518488	0.452704
C213	C	0.905438	0.735837	-0.302167
C214	C	1.155438	0.985837	-0.052167
C215	C	1.405438	1.235837	0.197833
C216	C	1.655438	1.485837	0.447833
C217	C	0.945621	0.970352	-0.262186
C218	C	1.195621	1.220352	-0.012186
C219	C	1.445621	1.470352	0.237814
C220	C	1.695621	1.720352	0.487814
C221	C	0.945651	1.035788	-0.262204
C222	C	1.195651	1.285788	-0.012204
C223	C	1.445651	1.535788	0.237796
C224	C	1.695651	1.785788	0.487796
C225	C	0.865467	1.035825	-0.342245
C226	C	1.115467	1.285825	-0.092245
C227	C	1.365467	1.535825	0.157755
C228	C	1.615467	1.785825	0.407755
C229	C	0.865442	0.970389	-0.342230
C230	C	1.115442	1.220389	-0.092230
C231	C	1.365442	1.470389	0.157770
C232	C	1.615442	1.720389	0.407770
C233	C	0.905519	0.937657	-0.302197
C234	C	1.155519	1.187657	-0.052197
C235	C	1.405519	1.437657	0.197803
C236	C	1.655519	1.687657	0.447803
C237	C	0.865462	0.261462	-0.567919
C238	C	1.115462	0.511462	-0.317919
C239	C	1.365462	0.761462	-0.067919
C240	C	1.615462	1.011462	0.182081
C241	C	0.865460	0.261451	-0.633355
C242	C	1.115460	0.511451	-0.383355
C243	C	1.365460	0.761451	-0.133355
C244	C	1.615460	1.011451	0.116645
C245	C	0.905507	0.301502	-0.666091
C246	C	1.155507	0.551502	-0.416091
C247	C	1.405507	0.801502	-0.166091
C248	C	1.655507	1.051502	0.083909
C249	C	0.945548	0.341580	-0.633385
C250	C	1.195548	0.591580	-0.383385
C251	C	1.445548	0.841580	-0.133385
C252	C	1.695548	1.091580	0.116615
C253	C	0.945545	0.341595	-0.567951
C254	C	1.195545	0.591595	-0.317951
C255	C	1.445545	0.841595	-0.067951
C256	C	1.695545	1.091595	0.182049
C257	C	0.961959	0.306413	-0.769796
C258	C	1.211959	0.556413	-0.519796
C259	C	1.461959	0.806413	-0.269796
C260	C	1.711959	1.056413	-0.019796
C261	C	0.961964	0.306393	-0.835229
C262	C	1.211964	0.556393	-0.585229
C263	C	1.461964	0.806393	-0.335229
C264	C	1.711964	1.056393	-0.085229
C265	C	0.905517	0.301460	-0.867911
C266	C	1.155517	0.551460	-0.617911
C267	C	1.405517	0.801460	-0.367911
C268	C	1.655517	1.051460	-0.117911
C269	C	0.849065	0.296533	-0.835153
C270	C	1.099065	0.546533	-0.585153
C271	C	1.349065	0.796533	-0.335153
C272	C	1.599065	1.046533	-0.085153
C273	C	0.849061	0.296548	-0.769719
C274	C	1.099061	0.546548	-0.519719
C275	C	1.349061	0.796548	-0.269719
C276	C	1.599061	1.046548	-0.019719
C277	C	0.905515	0.301491	-0.737043
C278	C	1.155515	0.551491	-0.487043
C279	C	1.405515	0.801491	-0.237043
C280	C	1.655515	1.051491	0.012957
C281	C	0.865474	0.261376	-0.971561
C282	C	1.115474	0.511376	-0.721561
C283	C	1.365474	0.761376	-0.471561
C284	C	1.615474	1.011376	-0.221561
C285	C	0.865470	0.261368	-1.036998
C286	C	1.115470	0.511368	-0.786998
C287	C	1.365470	0.761368	-0.536998
C288	C	1.615470	1.011368	-0.286998
C289	C	0.945564	0.341494	-1.037027
C290	C	1.195564	0.591494	-0.787027
C291	C	1.445564	0.841494	-0.537027
C292	C	1.695564	1.091494	-0.287027
C293	C	0.945562	0.341505	-0.971592
C294	C	1.195562	0.591505	-0.721592
C295	C	1.445562	0.841505	-0.471592
C296	C	1.695562	1.091505	-0.221592
C297	C	0.905517	0.301442	-0.938863
C298	C	1.155517	0.551442	-0.688863
C299	C	1.405517	0.801442	-0.438863
C300	C	1.655517	1.051442	-0.188863
C301	C	0.905417	0.301581	-0.139370
C302	C	1.155417	0.551581	0.110630
C303	C	1.405417	0.801581	0.360630
C304	C	1.655417	1.051581	0.610630
C305	C	0.905517	0.301421	-0.069729
C306	C	1.155517	0.551421	0.180271
C307	C	1.405517	0.801421	0.430271
C308	C	1.655517	1.051421	0.680271
H309	H	0.666926	0.374449	-0.374627
H310	H	0.916926	0.624449	-0.124627
H311	H	1.166926	0.874449	0.125373
H312	H	1.416926	1.124449	0.375373
H313	H	0.832857	0.228818	-0.659982
H314	H	1.082857	0.478818	-0.409982
H315	H	1.332857	0.728818	-0.159982
H316	H	1.582857	0.978818	0.090018
H317	H	1.007868	0.741798	-0.293325
H318	H	1.257868	0.991798	-0.043325
H319	H	1.507868	1.241798	0.206675
H320	H	1.757868	1.491798	0.456675
H321	H	0.548202	0.228829	-0.229554
H322	H	0.798202	0.478829	0.020446
H323	H	1.048202	0.728829	0.270446
H324	H	1.298202	0.978829	0.520446
Cl325	Cl	1.032927	0.312620	-0.728716
Cl326	Cl	1.282927	0.562620	-0.478716
Cl327	Cl	1.532927	0.812620	-0.228716
Cl328	Cl	1.782927	1.062620	0.021284
H329	H	0.832862	0.228741	-1.063619
H330	H	1.082862	0.478741	-0.813619
H331	H	1.332862	0.728741	-0.563619
H332	H	1.582862	0.978741	-0.313619
H333	H	0.832789	0.943768	-0.374811
H334	H	1.082789	1.193768	-0.124811
H335	H	1.332789	1.443768	0.125189
H336	H	1.582789	1.693768	0.375189
Cl337	Cl	0.995890	0.391934	-0.674538
Cl338	Cl	1.245890	0.641934	-0.424538
Cl339	Cl	1.495890	0.891934	-0.174538
Cl340	Cl	1.745890	1.141934	0.075462
Cl341	Cl	0.815117	0.211101	-0.526778
Cl342	Cl	1.065117	0.461101	-0.276778
Cl343	Cl	1.315117	0.711101	-0.026778
Cl344	Cl	1.565117	0.961101	0.223222
H345	H	0.803101	0.292511	-0.861762
H346	H	1.053101	0.542511	-0.611762
H347	H	1.303101	0.792511	-0.361762
H348	H	1.553101	1.042511	-0.111762
H349	H	0.803063	0.860735	-0.311015
H350	H	1.053063	1.110735	-0.061015
H351	H	1.303063	1.360735	0.188985
H352	H	1.553063	1.610735	0.438985
H353	H	0.803017	0.742031	-0.311001
H354	H	1.053017	0.992031	-0.061001
H355	H	1.303017	1.242031	0.188999
H356	H	1.553017	1.492031	0.438999
Cl357	Cl	0.814935	0.673340	-0.392489
Cl358	Cl	1.064935	0.923340	-0.142489
Cl359	Cl	1.314935	1.173340	0.107511
Cl360	Cl	1.564935	1.423340	0.357511
Cl361	Cl	0.479465	0.290297	-0.174732
Cl362	Cl	0.729465	0.540297	0.075268
Cl363	Cl	0.979465	0.790297	0.325268
Cl364	Cl	1.229465	1.040297	0.575268
H365	H	0.832641	0.540129	-0.374747
H366	H	1.082641	0.790129	-0.124747
H367	H	1.332641	1.040129	0.125253
H368	H	1.582641	1.290129	0.375253
H369	H	0.978255	0.943700	-0.229590
H370	H	1.228255	1.193700	0.020410
H371	H	1.478255	1.443700	0.270410
H372	H	1.728255	1.693700	0.520410
Cl373	Cl	0.332033	0.312900	-0.429591
Cl374	Cl	0.582033	0.562900	-0.179591
Cl375	Cl	0.832033	0.812900	0.070409
Cl376	Cl	1.082033	1.062900	0.320409
H377	H	0.978173	0.374104	-1.063680
H378	H	1.228173	0.624104	-0.813680
H379	H	1.478173	0.874104	-0.563680
H380	H	1.728173	1.124104	-0.313680
Cl381	Cl	0.995903	0.391877	-0.930484
Cl382	Cl	1.245903	0.641877	-0.680484
Cl383	Cl	1.495903	0.891877	-0.430484
Cl384	Cl	1.745903	1.141877	-0.180484
H385	H	0.263290	0.374366	-0.374776
H386	H	0.513290	0.624366	-0.124776
H387	H	0.763290	0.874366	0.125224
H388	H	1.013290	1.124366	0.375224
Cl389	Cl	0.331777	0.290261	-0.174786
Cl390	Cl	0.581777	0.540261	0.075214
Cl391	Cl	0.831777	0.790261	0.325214
Cl392	Cl	1.081777	1.040261	0.575214
Cl393	Cl	0.778096	0.290358	-0.728539
Cl394	Cl	1.028096	0.540358	-0.478539
Cl395	Cl	1.278096	0.790358	-0.228539
Cl396	Cl	1.528096	1.040358	0.021461
H397	H	0.832867	0.228755	-0.944912
H398	H	1.082867	0.478755	-0.694912
H399	H	1.332867	0.728755	-0.444912
H400	H	1.582867	0.978755	-0.194912
H401	H	1.007931	0.310402	-0.861896
H402	H	1.257931	0.560402	-0.611896
H403	H	1.507931	0.810402	-0.361896
H404	H	1.757931	1.060402	-0.111896
H405	H	1.007913	0.860511	-0.293349
H406	H	1.257913	1.110511	-0.043349
H407	H	1.507913	1.360511	0.206651
H408	H	1.757913	1.610511	0.456651
Cl409	Cl	0.996068	1.076890	-0.211900
Cl410	Cl	1.246068	1.326890	0.038100
Cl411	Cl	1.496068	1.576890	0.288100
Cl412	Cl	1.746068	1.826890	0.538100
Cl413	Cl	0.995884	0.391972	-0.526844
Cl414	Cl	1.245884	0.641972	-0.276844
Cl415	Cl	1.495884	0.891972	-0.026844
Cl416	Cl	1.745884	1.141972	0.223156
H417	H	0.465207	0.310714	-0.404543
H418	H	0.715207	0.560714	-0.154543
H419	H	0.965207	0.810714	0.095457
H420	H	1.215207	1.060714	0.345457
Cl421	Cl	0.533727	0.392189	-0.392389
Cl422	Cl	0.783727	0.642189	-0.142389
Cl423	Cl	1.033727	0.892189	0.107611
Cl424	Cl	1.283727	1.142189	0.357611
Cl425	Cl	0.130093	0.392102	-0.392543
Cl426	Cl	0.380093	0.642102	-0.142543
Cl427	Cl	0.630093	0.892102	0.107457
Cl428	Cl	0.880093	1.142102	0.357457
H429	H	0.144565	0.228746	-0.229699
H430	H	0.394565	0.478746	0.020301
H431	H	0.644565	0.728746	0.270301
H432	H	0.894565	0.978746	0.520301
Cl433	Cl	0.277766	0.211003	-0.211936
Cl434	Cl	0.527766	0.461003	0.038064
Cl435	Cl	0.777766	0.711003	0.288064
Cl436	Cl	1.027766	0.961003	0.538064
Cl437	Cl	0.815086	1.076976	-0.392563
Cl438	Cl	1.065086	1.326976	-0.142563
Cl439	Cl	1.315086	1.576976	0.107437
Cl440	Cl	1.565086	1.826976	0.357437
H441	H	0.666915	0.228843	-0.229513
H442	H	0.916915	0.478843	0.020487
H443	H	1.166915	0.728843	0.270487
H444	H	1.416915	0.978843	0.520487
H445	H	0.978100	0.540061	-0.229519
H446	H	1.228100	0.790061	0.020481
H447	H	1.478100	1.040061	0.270481
H448	H	1.728100	1.290061	0.520481
Cl449	Cl	0.995905	0.673255	-0.211820
Cl450	Cl	1.245905	0.923255	0.038180
Cl451	Cl	1.495905	1.173255	0.288180
Cl452	Cl	1.745905	1.423255	0.538180
