data_functionalizedCrystal
_audit_creation_method	'MofGen! by Chris Wilmer'
_symmetry_space_group_name_H-M	'P1'
_symmetry_Int_Tables_number	1
_symmetry_cell_setting	triclinic
loop_
_symmetry_equiv_pos_as_xyz
  x,y,z
_cell_length_a	10.654562
_cell_length_b	16.109304
_cell_length_c	9.130313
_cell_angle_alpha	90.001562
_cell_angle_beta	89.996930
_cell_angle_gamma	83.976371
loop_
_atom_site_label
_atom_site_type_symbol
_atom_site_fract_x
_atom_site_fract_y
_atom_site_fract_z
O1	O	1.666242	0.116820	-0.121886
O2	O	1.300615	0.127935	-0.121866
O3	O	1.493470	0.001407	-0.121877
O4	O	1.473386	0.243348	-0.121875
O5	O	1.493468	0.001410	0.121721
O6	O	1.300612	0.127938	0.121732
O7	O	1.666239	0.116824	0.121713
Cu8	Cu	1.483426	0.122381	0.143965
Cu9	Cu	1.483428	0.122377	-0.144119
O10	O	1.473384	0.243352	0.121724
C11	C	1.253827	0.127118	-0.000065
C12	C	1.114418	0.124670	-0.000058
C13	C	1.048901	0.123530	0.132717
C14	C	0.917910	0.121236	0.132692
C15	C	0.917963	0.121226	-0.132893
C16	C	1.048953	0.123514	-0.132867
C17	C	1.048869	0.123539	0.286050
C18	C	0.917878	0.121245	0.286026
C19	C	1.492655	-0.029571	-0.000081
C20	C	1.490214	-0.121881	-0.000091
C21	C	1.484576	-0.334254	-0.132871
C22	C	1.482271	-0.420988	-0.132870
C23	C	1.482274	-0.420981	0.132715
C24	C	1.484571	-0.334248	0.132712
C25	C	1.485728	-0.290887	-0.000085
C26	C	1.481126	-0.464354	-0.000081
C27	C	1.478627	-0.558395	-0.000078
C28	C	1.488225	-0.196840	-0.000088
C29	C	1.713027	0.117640	-0.000092
C30	C	1.852436	0.120088	-0.000108
C31	C	1.474199	0.274330	-0.000075
C32	C	1.476640	0.366639	-0.000075
N33	N	1.483433	0.122384	0.346588
N34	N	1.483431	0.122368	-0.346741
C35	C	1.568851	0.066376	0.423235
C36	C	1.568848	0.066366	0.576572
C37	C	1.398004	0.178378	0.576601
C38	C	1.398002	0.178384	0.423267
C39	C	1.667490	0.001709	0.423220
C40	C	1.667487	0.001699	0.576556
H41	H	1.077621	0.184175	0.333627
H42	H	1.485515	-0.298952	-0.241003
H43	H	1.328437	0.223982	0.360862
H44	H	1.758399	0.021961	0.375657
H45	H	1.763805	0.015947	0.618168
H46	H	1.328448	0.223972	0.639049
O47	O	0.855513	0.197348	0.364001
H48	H	0.790365	0.233995	0.287522
H49	H	1.481330	-0.456293	-0.240997
O50	O	1.640221	-0.082931	0.368067
H51	H	1.626859	-0.124371	0.462671
O52	O	1.628201	-0.078308	0.639529
H53	H	1.531324	-0.086842	0.601928
H54	H	1.481335	-0.456296	0.240834
O55	O	1.485821	-0.287474	0.275946
H56	H	1.401319	-0.241048	0.282313
O57	O	1.119625	0.124736	-0.276071
H58	H	1.052092	0.123555	-0.368420
H59	H	0.864645	0.120285	-0.241021
H60	H	0.889111	0.060612	0.333604
O61	O	1.111194	0.047437	0.364040
H62	H	1.037824	0.008359	0.402188
