data_functionalizedCrystal
_audit_creation_method	'MofGen! by Chris Wilmer'
_symmetry_space_group_name_H-M	'P1'
_symmetry_Int_Tables_number	1
_symmetry_cell_setting	triclinic
loop_
_symmetry_equiv_pos_as_xyz
  x,y,z
_cell_length_a	11.169417
_cell_length_b	13.897448
_cell_length_c	11.169409
_cell_angle_alpha	90.035576
_cell_angle_beta	90.019824
_cell_angle_gamma	90.018571
loop_
_atom_site_label
_atom_site_type_symbol
_atom_site_fract_x
_atom_site_fract_y
_atom_site_fract_z
Zn1	Zn	1.834901	-0.383914	0.678516
Zn2	Zn	2.168234	-0.050581	1.011849
Zn3	Zn	2.501568	0.282752	1.345182
Zn4	Zn	1.834765	-0.545250	0.477821
Zn5	Zn	2.168098	-0.211917	0.811155
Zn6	Zn	2.501431	0.121417	1.144488
Zn7	Zn	1.634187	-0.383973	0.477850
Zn8	Zn	1.967520	-0.050640	0.811183
Zn9	Zn	2.300854	0.282694	1.144517
Zn10	Zn	1.634169	-0.545171	0.678466
Zn11	Zn	1.967502	-0.211838	1.011799
Zn12	Zn	2.300835	0.121495	1.345133
O13	O	1.734505	-0.464577	0.578163
O14	O	2.067839	-0.131244	0.911497
O15	O	2.401172	0.202090	1.244830
O16	O	2.002833	-0.405324	0.651902
O17	O	2.336166	-0.071991	0.985235
O18	O	2.669499	0.261343	1.318569
O19	O	1.808108	-0.523914	0.309875
O20	O	2.141441	-0.190580	0.643209
O21	O	2.474775	0.142753	0.976542
O22	O	1.660877	-0.248984	0.504502
O23	O	1.994210	0.084350	0.837835
O24	O	2.327543	0.417683	1.171168
O25	O	2.002732	-0.523857	0.504453
O26	O	2.336066	-0.190523	0.837786
O27	O	2.669399	0.142810	1.171119
O28	O	1.808341	-0.248940	0.651930
O29	O	2.141674	0.084393	0.985263
O30	O	2.475007	0.417726	1.318596
O31	O	1.660745	-0.405424	0.309896
O32	O	1.994078	-0.072091	0.643230
O33	O	2.327411	0.261242	0.976563
O34	O	1.466235	-0.405348	0.504454
O35	O	1.799568	-0.072015	0.837787
O36	O	2.132901	0.261319	1.171120
O37	O	1.660846	-0.523723	0.846423
O38	O	1.994179	-0.190389	1.179756
O39	O	2.327512	0.142944	1.513089
O40	O	1.466221	-0.523780	0.651845
O41	O	1.799555	-0.190446	0.985179
O42	O	2.132888	0.142887	1.318512
O43	O	1.808323	-0.405248	0.846459
O44	O	2.141656	-0.071914	1.179792
O45	O	2.474990	0.261419	1.513126
O46	O	1.808090	-0.680221	0.504404
O47	O	2.141424	-0.346888	0.837738
O48	O	2.474757	-0.013554	1.171071
O49	O	1.660713	-0.680163	0.651817
O50	O	1.994047	-0.346830	0.985151
O51	O	2.327380	-0.013497	1.318484
C52	C	1.422681	-0.464562	0.578148
C53	C	1.756014	-0.131229	0.911481
C54	C	2.089347	0.202104	1.244815
C55	C	1.289281	-0.464579	0.578170
C56	C	1.622614	-0.131246	0.911503
C57	C	1.955947	0.202087	1.244836
C58	C	1.734418	-0.715191	0.578129
C59	C	2.067751	-0.381858	0.911462
C60	C	2.401084	-0.048525	1.244795
C61	C	1.734490	-0.822405	0.578154
C62	C	2.067823	-0.489072	0.911487
C63	C	2.401157	-0.155739	1.244821
C64	C	1.734616	-1.018700	0.578229
C65	C	2.067949	-0.685367	0.911562
C66	C	2.401283	-0.352034	1.244896
C67	C	1.734543	-0.909468	0.578191
C68	C	2.067876	-0.576135	0.911524
C69	C	2.401209	-0.242801	1.244858
C70	C	2.047548	-0.464592	0.578180
C71	C	2.380881	-0.131259	0.911513
C72	C	2.714214	0.202074	1.244846
C73	C	2.180948	-0.464599	0.578186
C74	C	2.514281	-0.131266	0.911520
C75	C	2.847614	0.202068	1.244853
C76	C	1.734597	-0.464470	0.891206
C77	C	2.067931	-0.131137	1.224539
C78	C	2.401264	0.202197	1.557873
C79	C	1.734637	-0.464424	1.024606
C80	C	2.067970	-0.131091	1.357939
C81	C	2.401303	0.202242	1.691273
C82	C	1.734626	-0.212984	0.578224
C83	C	2.067959	0.120349	0.911558
C84	C	2.401293	0.453683	1.244891
C85	C	1.734677	-0.105770	0.578251
C86	C	2.068011	0.227563	0.911584
C87	C	2.401344	0.560897	1.244917
C88	C	1.734483	-0.464614	0.266339
C89	C	2.067816	-0.131281	0.599672
C90	C	2.401149	0.202052	0.933005
C91	C	1.734676	-0.464388	0.132939
C92	C	2.068009	-0.131055	0.466273
C93	C	2.401342	0.202279	0.799606
