data_functionalizedCrystal
_audit_creation_method	'MofGen! by Chris Wilmer'
_symmetry_space_group_name_H-M	'P1'
_symmetry_Int_Tables_number	1
_symmetry_cell_setting	triclinic
loop_
_symmetry_equiv_pos_as_xyz
  x,y,z
_cell_length_a	9.065218
_cell_length_b	16.053934
_cell_length_c	9.065218
_cell_angle_alpha	92.610757
_cell_angle_beta	94.984115
_cell_angle_gamma	92.603777
loop_
_atom_site_label
_atom_site_type_symbol
_atom_site_fract_x
_atom_site_fract_y
_atom_site_fract_z
O1	O	-1.954274	0.069427	0.222483
O2	O	-1.524989	0.069427	0.240230
O3	O	-1.748505	0.069425	0.016714
O4	O	-1.730758	0.069429	0.445999
O5	O	-1.760741	-0.069431	0.004453
O6	O	-1.537225	-0.069429	0.227969
O7	O	-1.966510	-0.069430	0.210223
Zn8	Zn	-1.753810	-0.091476	0.217149
Zn9	Zn	-1.737689	0.091473	0.233303
O10	O	-1.742994	-0.069428	0.433739
C11	C	-1.476120	-0.000001	0.232394
C12	C	-1.312277	-0.000000	0.227294
N13	N	-1.764823	-0.216334	0.206124
C14	C	-1.752917	-0.000002	-0.044403
C15	C	-1.747817	0.000002	-0.208245
C16	C	-2.015378	0.000000	0.218059
C17	C	-2.179221	0.000005	0.223159
C18	C	-1.669697	-0.260047	0.301194
C19	C	-1.677444	-0.347453	0.293476
C20	C	-1.780310	-0.391143	0.190679
C21	C	-1.875446	-0.347423	0.095605
C22	C	-1.867705	-0.260019	0.103331
C23	C	-1.814082	-0.652545	0.156969
C24	C	-1.821813	-0.739955	0.149247
C25	C	-1.623812	-0.739979	0.347121
C26	C	-1.616075	-0.652573	0.354832
C27	C	-1.711215	-0.608861	0.259763
N28	N	-1.788228	-0.480485	0.182784
N29	N	-1.703304	-0.519521	0.267666
N30	N	-1.726687	0.216331	0.244317
C31	C	-1.738582	0.000001	0.494856
C32	C	-1.743681	0.000002	0.658699
H33	H	-1.585927	-0.224481	0.384896
H34	H	-1.891547	-0.616962	0.079557
H35	H	-1.599987	-0.383044	0.370891
O36	O	-1.516110	-0.610265	0.454823
C37	C	-1.433782	-0.667591	0.537056
H38	H	-1.499814	-0.729888	0.534067
H39	H	-1.410599	-0.642339	0.656813
H40	H	-1.324363	-0.676902	0.486787
O41	O	-1.531561	-0.782570	0.439409
C42	C	-1.560418	-0.869084	0.410528
H43	H	-1.678046	-0.881007	0.355958
H44	H	-1.548434	-0.902303	0.519111
H45	H	-1.478113	-0.893898	0.333166
H46	H	-1.945168	-0.224428	0.025916
H47	H	-1.905583	-0.775523	0.065531
O48	O	-1.975241	-0.389990	-0.004210
C49	C	-1.961700	-0.476509	0.009376
H50	H	-1.846185	-0.488463	0.061831
H51	H	-1.979570	-0.509722	-0.105079
H52	H	-2.048394	-0.501304	0.082357
