data_functionalizedCrystal
_audit_creation_method	'MofGen! by Chris Wilmer'
_symmetry_space_group_name_H-M	'P1'
_symmetry_Int_Tables_number	1
_symmetry_cell_setting	triclinic
loop_
_symmetry_equiv_pos_as_xyz
  x,y,z
_cell_length_a	12.645331
_cell_length_b	12.645330
_cell_length_c	12.645323
_cell_angle_alpha	90.027006
_cell_angle_beta	90.022676
_cell_angle_gamma	90.011625
loop_
_atom_site_label
_atom_site_type_symbol
_atom_site_fract_x
_atom_site_fract_y
_atom_site_fract_z
Zn1	Zn	1.620768	-0.422060	0.599431
Zn2	Zn	1.620666	-0.599348	0.422164
Zn3	Zn	1.443483	-0.422096	0.422175
Zn4	Zn	1.443480	-0.599279	0.599379
O5	O	1.532099	-0.510695	0.510787
O6	O	1.769102	-0.445591	0.575933
O7	O	1.597120	-0.575879	0.273818
O8	O	1.467044	-0.273744	0.445714
O9	O	1.769027	-0.575844	0.445696
O10	O	1.597295	-0.273717	0.575943
O11	O	1.466945	-0.445653	0.273826
O12	O	1.295135	-0.445585	0.445665
O13	O	1.467040	-0.575726	0.747734
O14	O	1.295133	-0.575761	0.575856
O15	O	1.597293	-0.445524	0.747771
O16	O	1.597118	-0.747686	0.445646
O17	O	1.466940	-0.747635	0.575845
C18	C	1.256670	-0.510670	0.510757
C19	C	1.138840	-0.510685	0.510769
C20	C	0.971241	-0.428415	0.429317
C21	C	1.093801	-0.428628	0.428958
C22	C	1.094329	-0.622359	0.480250
C23	C	0.971731	-0.621910	0.479694
C24	C	0.971688	-0.482344	0.623054
C25	C	1.094293	-0.479849	0.622430
C26	C	1.532046	-0.786125	0.510762
C27	C	1.532121	-0.903955	0.510787
C28	C	1.613884	-1.071507	0.428712
C29	C	1.614150	-0.948947	0.428913
C30	C	1.562421	-0.948338	0.622532
C31	C	1.563069	-1.070936	0.622096
C32	C	1.420025	-1.071281	0.482218
C33	C	1.420562	-0.948676	0.479712
C34	C	1.808605	-0.510722	0.510819
C35	C	1.926435	-0.510733	0.510832
C36	C	1.532177	-0.510613	0.787293
C37	C	1.532211	-0.510579	0.905123
C38	C	1.532182	-0.234190	0.510836
C39	C	1.532217	-0.116360	0.510856
C40	C	1.532083	-0.510701	0.235357
C41	C	1.532255	-0.510437	0.117528
C42	C	1.450016	-0.592103	1.072663
C43	C	1.450231	-0.592506	0.950103
C44	C	1.643913	-0.540899	0.949642
C45	C	1.643462	-0.541410	1.072240
C46	C	1.503760	-0.398278	1.072325
C47	C	1.501267	-0.398951	0.949718
H48	H	1.123081	-0.447391	0.345797
C49	C	1.475191	-0.703735	1.114278
N50	N	1.494161	-0.787817	1.145617
C51	C	1.389688	-0.909489	0.368623
N52	N	1.366433	-0.879963	0.284952
H53	H	0.942714	-0.542301	0.683790
H54	H	1.359177	-1.100287	0.542047
H55	H	1.123390	-0.397670	0.645443
H56	H	1.667614	-0.623400	1.100848
C57	C	1.486213	-1.111017	0.707609
N58	N	1.428333	-1.141201	0.772023
H59	H	1.504749	-0.919191	0.685375
C60	C	1.133756	-0.707438	0.557928
N61	N	1.163459	-0.771518	0.616434
C62	C	1.134459	-0.316750	0.454786
N63	N	1.165076	-0.232477	0.474234
C64	C	1.671962	-0.906758	0.655847
N65	N	1.754472	-0.875442	0.680934
H66	H	0.940784	-0.402333	0.650808
C67	C	0.933032	-0.654421	0.368858
N68	N	0.903889	-0.678903	0.285372
C69	C	0.931422	-0.316202	0.454877
N70	N	0.901423	-0.231681	0.474130
C71	C	1.390236	-0.368034	0.910364
N72	N	1.306615	-0.344741	0.880701
H73	H	1.392472	-1.102289	0.402153
H74	H	1.595192	-0.918943	0.346056
C75	C	1.333921	-0.907315	0.554611
N76	N	1.268665	-0.876163	0.611034
H77	H	1.706815	-0.484511	1.101920
C78	C	1.725538	-1.113043	0.453998
N79	N	1.809634	-1.144338	0.473041
C80	C	1.576260	-0.312399	0.908335
N81	N	1.632748	-0.247208	0.877157
C82	C	1.135707	-0.554946	0.708870
N83	N	1.166897	-0.611519	0.773974
H84	H	1.423724	-0.370640	1.103230
H85	H	0.942092	-0.685319	0.536477
C86	C	1.338331	-0.566870	0.909435
N87	N	1.254042	-0.547565	0.878809
H88	H	1.366940	-0.573311	1.102138
H89	H	1.469043	-0.675654	0.920786
C90	C	1.588603	-1.111442	0.316447
N91	N	1.569559	-1.141526	0.231885
H92	H	1.697246	-0.919540	0.447855
H93	H	1.124987	-0.646847	0.399090
H94	H	1.706830	-0.483299	0.920508
H95	H	1.645076	-1.099450	0.646354
H96	H	0.940395	-0.446970	0.346645
C97	C	1.677099	-0.650507	0.908187
N98	N	1.702089	-0.733068	0.876966
H99	H	1.563658	-0.337434	1.101341
