data_functionalizedCrystal
_audit_creation_method	'MofGen! by Chris Wilmer'
_symmetry_space_group_name_H-M	'P1'
_symmetry_Int_Tables_number	1
_symmetry_cell_setting	triclinic
loop_
_symmetry_equiv_pos_as_xyz
  x,y,z
_cell_length_a	14.519709
_cell_length_b	14.519731
_cell_length_c	13.596369
_cell_angle_alpha	90.005416
_cell_angle_beta	90.006934
_cell_angle_gamma	83.684499
loop_
_atom_site_label
_atom_site_type_symbol
_atom_site_fract_x
_atom_site_fract_y
_atom_site_fract_z
O1	O	0.120986	1.223856	0.081796
O2	O	0.454320	1.557190	0.415129
O3	O	0.787653	1.890523	0.748462
O4	O	0.135202	0.955382	0.081797
O5	O	0.468536	1.288715	0.415131
O6	O	0.801869	1.622049	0.748464
O7	O	-0.006144	1.096737	0.081788
O8	O	0.327190	1.430071	0.415121
O9	O	0.660523	1.763404	0.748454
O10	O	0.262332	1.082501	0.081805
O11	O	0.595666	1.415834	0.415139
O12	O	0.928999	1.749168	0.748472
O13	O	-0.006151	1.096723	-0.081795
O14	O	0.327182	1.430057	0.251538
O15	O	0.660516	1.763390	0.584871
O16	O	0.135195	0.955368	-0.081785
O17	O	0.468528	1.288701	0.251548
O18	O	0.801862	1.622035	0.584881
O19	O	0.120979	1.223842	-0.081787
O20	O	0.454312	1.557176	0.251546
O21	O	0.787645	1.890509	0.584879
Zn22	Zn	0.128086	1.089603	-0.107759
Zn23	Zn	0.461419	1.422936	0.225575
Zn24	Zn	0.794752	1.756270	0.558908
Zn25	Zn	0.128096	1.089621	0.107769
Zn26	Zn	0.461429	1.422955	0.441102
Zn27	Zn	0.794762	1.756288	0.774436
O28	O	0.262325	1.082487	-0.081777
O29	O	0.595658	1.415820	0.251556
O30	O	0.928991	1.749154	0.584889
C31	C	0.134532	0.921016	0.000006
C32	C	0.467866	1.254349	0.333339
C33	C	0.801199	1.587682	0.666673
C34	C	0.132536	0.818635	0.000007
C35	C	0.465870	1.151969	0.333340
C36	C	0.799203	1.485302	0.666673
C37	C	0.130915	0.735491	0.000010
C38	C	0.464248	1.068825	0.333344
C39	C	0.797581	1.402158	0.666677
C40	C	0.128888	0.631182	0.000011
C41	C	0.462221	0.964516	0.333344
C42	C	0.795555	1.297849	0.666677
C43	C	0.127280	0.548043	0.000010
C44	C	0.460613	0.881377	0.333344
C45	C	0.793946	1.214710	0.666677
C46	C	0.125253	0.443728	0.000012
C47	C	0.458586	0.777061	0.333346
C48	C	0.791920	1.110395	0.666679
C49	C	-0.040507	1.096067	-0.000004
C50	C	0.292826	1.429400	0.333329
C51	C	0.626160	1.762734	0.666663
C52	C	-0.142889	1.094079	-0.000005
C53	C	0.190445	1.427412	0.333329
C54	C	0.523778	1.760745	0.666662
C55	C	-0.517785	1.086759	0.000021
C56	C	-0.184452	1.420093	0.333354
C57	C	0.148882	1.753426	0.666688
C58	C	-0.413477	1.088792	0.000014
C59	C	-0.080143	1.422125	0.333347
C60	C	0.253190	1.755459	0.666680
C61	C	-0.330340	1.090419	0.000007
C62	C	0.002993	1.423752	0.333341
C63	C	0.336327	1.757085	0.666674
C64	C	-0.226025	1.092452	0.000002
C65	C	0.107308	1.425785	0.333335
C66	C	0.440641	1.759118	0.666668
C67	C	0.296688	1.083157	0.000016
C68	C	0.630022	1.416491	0.333350
C69	C	0.963355	1.749824	0.666683
C70	C	0.399070	1.085146	0.000023
C71	C	0.732403	1.418479	0.333357
C72	C	1.065736	1.751812	0.666690
C73	C	0.121649	1.258209	0.000006
C74	C	0.454982	1.591542	0.333340
C75	C	0.788315	1.924875	0.666673
C76	C	0.123645	1.360589	0.000012
C77	C	0.456978	1.693922	0.333346
C78	C	0.790311	2.027256	0.666679
N79	N	0.128078	1.089597	-0.254851
N80	N	0.461412	1.422930	0.078483
N81	N	0.794745	1.756264	0.411816
C82	C	0.128096	1.089620	-0.656141
C83	C	0.461430	1.422954	-0.322808
C84	C	0.794763	1.756287	0.010525
C85	C	0.128095	1.089611	-0.544490
C86	C	0.461428	1.422944	-0.211157
C87	C	0.794761	1.756278	0.122177
C88	C	0.128088	1.089609	-0.455500
C89	C	0.461421	1.422942	-0.122166
C90	C	0.794755	1.756276	0.211167
C91	C	0.128085	1.089599	-0.343841
C92	C	0.461418	1.422932	-0.010508
C93	C	0.794751	1.756266	0.322826
N94	N	0.128096	1.089635	0.254861
N95	N	0.461429	1.422968	0.588194
N96	N	0.794762	1.756301	0.921527
