data_functionalizedCrystal
_audit_creation_method	'MofGen! by Chris Wilmer'
_symmetry_space_group_name_H-M	'P1'
_symmetry_Int_Tables_number	1
_symmetry_cell_setting	triclinic
loop_
_symmetry_equiv_pos_as_xyz
  x,y,z
_cell_length_a	12.759401
_cell_length_b	14.908579
_cell_length_c	12.759393
_cell_angle_alpha	86.733776
_cell_angle_beta	89.980324
_cell_angle_gamma	86.677693
loop_
_atom_site_label
_atom_site_type_symbol
_atom_site_fract_x
_atom_site_fract_y
_atom_site_fract_z
Zn1	Zn	1.582069	0.359104	-0.618105
Zn2	Zn	1.571793	0.509988	-0.452560
Zn3	Zn	1.406364	0.359149	-0.442447
Zn4	Zn	1.396197	0.509922	-0.628197
O5	O	1.489106	0.434541	-0.535328
O6	O	1.727726	0.379128	-0.596154
O7	O	1.549803	0.490025	-0.304201
O8	O	1.438228	0.232899	-0.457293
O9	O	1.720176	0.489981	-0.474529
O10	O	1.567317	0.232865	-0.586348
O11	O	1.428263	0.379204	-0.296771
O12	O	1.257995	0.379141	-0.467079
O13	O	1.420898	0.489869	-0.773876
O14	O	1.250525	0.489913	-0.603548
O15	O	1.557458	0.379064	-0.766462
O16	O	1.539944	0.636223	-0.484314
O17	O	1.410934	0.636175	-0.613354
C18	C	1.216139	0.434525	-0.535312
C19	C	1.099362	0.434540	-0.535331
C20	C	1.048424	0.376923	-0.598772
C21	C	0.938700	0.376932	-0.598780
C22	C	0.930859	0.492183	-0.471903
C23	C	1.040582	0.492169	-0.471891
C24	C	1.473249	0.668933	-0.551050
C25	C	1.466561	0.769207	-0.557811
C26	C	1.588471	0.957621	-0.436255
C27	C	1.582191	1.051838	-0.442604
C28	C	1.447728	1.051857	-0.576863
C29	C	1.454008	0.957641	-0.570514
C30	C	1.524381	0.910526	-0.500206
C31	C	1.530654	0.816308	-0.493852
C32	C	1.396197	0.816330	-0.628116
C33	C	1.389917	0.910546	-0.634465
C34	C	1.763138	0.434557	-0.535344
C35	C	1.879914	0.434564	-0.535351
C36	C	1.489190	0.434454	-0.809355
C37	C	1.489226	0.434417	-0.926129
C38	C	1.505046	1.199233	-0.519581
C39	C	1.511821	1.098959	-0.512905
C40	C	1.560338	0.376712	-0.977132
C41	C	1.560358	0.376673	-1.086853
C42	C	1.418151	0.492053	-1.094561
C43	C	1.418127	0.492086	-0.984841
C44	C	1.489086	0.434562	-0.262362
C45	C	1.489271	0.434344	-0.145571
H46	H	1.096280	0.329995	-0.650426
H47	H	1.332625	0.948920	-0.691710
C48	C	1.339944	0.555484	-1.159153
N49	N	1.281037	0.603261	-1.207804
H50	H	0.882987	0.539104	-0.420253
C51	C	1.638590	0.313194	-1.142951
N52	N	1.697517	0.265379	-1.185203
C53	C	1.096616	0.555555	-0.402097
N54	N	1.138821	0.603295	-0.349528
C55	C	1.652692	1.103639	-0.372248
N56	N	1.705796	1.142656	-0.319253
H57	H	1.360211	0.539076	-0.943314
H58	H	1.587953	0.777948	-0.436602
H59	H	0.897232	0.330013	-0.650438
H60	H	1.390441	1.090234	-0.634110
C61	C	1.665878	0.905793	-0.358915
N62	N	1.724184	0.866758	-0.300662
C63	C	1.325693	0.764517	-0.698467
N64	N	1.272589	0.725492	-0.751452
H65	H	1.618229	0.329751	-0.929332
