data_functionalizedCrystal
_audit_creation_method	'MofGen! by Chris Wilmer'
_symmetry_space_group_name_H-M	'P1'
_symmetry_Int_Tables_number	1
_symmetry_cell_setting	triclinic
loop_
_symmetry_equiv_pos_as_xyz
  x,y,z
_cell_length_a	13.033293
_cell_length_b	16.625545
_cell_length_c	13.033109
_cell_angle_alpha	97.153577
_cell_angle_beta	74.800007
_cell_angle_gamma	97.195104
loop_
_atom_site_label
_atom_site_type_symbol
_atom_site_fract_x
_atom_site_fract_y
_atom_site_fract_z
Zn1	Zn	1.700241	-0.233630	-0.807168
Zn2	Zn	1.950241	0.016370	-0.557168
Zn3	Zn	2.200241	0.266370	-0.307168
Zn4	Zn	2.450241	0.516370	-0.057168
Zn5	Zn	1.677549	-0.353294	-0.629535
Zn6	Zn	1.927549	-0.103294	-0.379535
Zn7	Zn	2.177549	0.146706	-0.129535
Zn8	Zn	2.427549	0.396706	0.120465
Zn9	Zn	1.500045	-0.233645	-0.606971
Zn10	Zn	1.750045	0.016355	-0.356971
Zn11	Zn	2.000045	0.266355	-0.106971
Zn12	Zn	2.250045	0.516355	0.143029
Zn13	Zn	1.522542	-0.383600	-0.784507
Zn14	Zn	1.772542	-0.133600	-0.534507
Zn15	Zn	2.022542	0.116400	-0.284507
Zn16	Zn	2.272542	0.366400	-0.034507
O17	O	1.600094	-0.301042	-0.707045
O18	O	1.850094	-0.051042	-0.457045
O19	O	2.100094	0.198958	-0.207045
O20	O	2.350094	0.448958	0.042955
O21	O	1.845884	-0.236815	-0.802532
O22	O	2.095884	0.013185	-0.552532
O23	O	2.345884	0.263185	-0.302532
O24	O	2.595884	0.513185	-0.052532
O25	O	1.635090	-0.324746	-0.477902
O26	O	1.885090	-0.074746	-0.227902
O27	O	2.135090	0.175254	0.022098
O28	O	2.385090	0.425254	0.272098
O29	O	1.526683	-0.120807	-0.633568
O30	O	1.776683	0.129193	-0.383568
O31	O	2.026683	0.379193	-0.133568
O32	O	2.276683	0.629193	0.116432
O33	O	1.829212	-0.324732	-0.672025
O34	O	2.079212	-0.074732	-0.422025
O35	O	2.329212	0.175268	-0.172025
O36	O	2.579212	0.425268	0.077975
O37	O	1.673766	-0.120796	-0.780652
O38	O	1.923766	0.129204	-0.530652
O39	O	2.173766	0.379204	-0.280652
O40	O	2.423766	0.629204	-0.030652
O41	O	1.504679	-0.236840	-0.461324
O42	O	1.754679	0.013160	-0.211324
O43	O	2.004679	0.263160	0.038676
O44	O	2.254679	0.513160	0.288676
O45	O	1.354376	-0.266226	-0.611594
O46	O	1.604376	-0.016226	-0.361594
O47	O	1.854376	0.233774	-0.111594
O48	O	2.104376	0.483774	0.138406
O49	O	1.565027	-0.376382	-0.936153
O50	O	1.815027	-0.126382	-0.686153
O51	O	2.065027	0.123618	-0.436153
O52	O	2.315027	0.373618	-0.186153
O53	O	1.370905	-0.376397	-0.742030
O54	O	1.620905	-0.126397	-0.492030
O55	O	1.870905	0.123603	-0.242030
O56	O	2.120905	0.373603	0.007970
O57	O	1.695581	-0.266201	-0.952802
O58	O	1.945581	-0.016201	-0.702802
O59	O	2.195581	0.233799	-0.452802
O60	O	2.445581	0.483799	-0.202802
O61	O	1.656905	-0.470151	-0.650052
O62	O	1.906905	-0.220151	-0.400052
O63	O	2.156905	0.029849	-0.150052
O64	O	2.406905	0.279849	0.099948
O65	O	1.543023	-0.492416	-0.763909
O66	O	1.793023	-0.242416	-0.513909
O67	O	2.043023	0.007584	-0.263909
O68	O	2.293023	0.257584	-0.013909
C69	C	1.324096	-0.324602	-0.671905
C70	C	1.574096	-0.074602	-0.421905
C71	C	1.824096	0.175398	-0.171905
C72	C	2.074096	0.425398	0.078095
C73	C	1.206026	-0.334703	-0.656897
C74	C	1.456026	-0.084703	-0.406897
C75	C	1.706026	0.165297	-0.156897
C76	C	1.956026	0.415297	0.093103
C77	C	1.161649	-0.295791	-0.714878
C78	C	1.411649	-0.045791	-0.464878
C79	C	1.661649	0.204209	-0.214878
C80	C	1.911649	0.454209	0.035122
C81	C	1.039617	-0.306229	-0.699368
C82	C	1.289617	-0.056229	-0.449368
C83	C	1.539617	0.193771	-0.199368
C84	C	1.789617	0.443771	0.050632
C85	C	1.599975	-0.510540	-0.706997
C86	C	1.849975	-0.260540	-0.456997
C87	C	2.099975	-0.010540	-0.206997
C88	C	2.349975	0.239460	0.043003
C89	C	1.600025	-0.600159	-0.707024
C90	C	1.850025	-0.350159	-0.457024
C91	C	2.100025	-0.100159	-0.207024
C92	C	2.350025	0.149841	0.042976
C93	C	1.600069	-0.672940	-0.707051
C94	C	1.850069	-0.422940	-0.457051
C95	C	2.100069	-0.172940	-0.207051
C96	C	2.350069	0.077060	0.042949
C97	C	1.600134	-0.764245	-0.707082
C98	C	1.850134	-0.514245	-0.457082
C99	C	2.100134	-0.264245	-0.207082
C100	C	2.350134	-0.014245	0.042918
C101	C	1.600191	-0.837018	-0.707103
C102	C	1.850191	-0.587018	-0.457103
C103	C	2.100191	-0.337018	-0.207103
C104	C	2.350191	-0.087018	0.042897
C105	C	1.600254	-0.928329	-0.707132
C106	C	1.850254	-0.678329	-0.457132
C107	C	2.100254	-0.428329	-0.207132
C108	C	2.350254	-0.178329	0.042868
C109	C	1.877170	-0.277391	-0.742323
C110	C	2.127170	-0.027391	-0.492323
C111	C	2.377170	0.222609	-0.242323
C112	C	2.627170	0.472609	0.007677
C113	C	1.995243	-0.267312	-0.757357
C114	C	2.245243	-0.017312	-0.507357
C115	C	2.495243	0.232688	-0.257357
C116	C	2.745243	0.482688	-0.007357
C117	C	1.635344	-0.324670	-0.984096
C118	C	1.885344	-0.074670	-0.734096
C119	C	2.135344	0.175330	-0.484096
C120	C	2.385344	0.425330	-0.234096
C121	C	1.650366	-0.334739	-1.102158
C122	C	1.900366	-0.084739	-0.852158
C123	C	2.150366	0.165261	-0.602158
C124	C	2.400366	0.415261	-0.352158
C125	C	1.600246	-0.090726	-0.707120
C126	C	1.850246	0.159274	-0.457120
C127	C	2.100246	0.409274	-0.207120
C128	C	2.350246	0.659274	0.042880
C129	C	1.600311	-0.001101	-0.707153
C130	C	1.850311	0.248899	-0.457153
C131	C	2.100311	0.498899	-0.207153
C132	C	2.350311	0.748899	0.042847
C133	C	1.592538	-0.295734	-1.146592
C134	C	1.842538	-0.045734	-0.896592
C135	C	2.092538	0.204266	-0.646592
C136	C	2.342538	0.454266	-0.396592
C137	C	1.608062	-0.306140	-1.268615
C138	C	1.858062	-0.056140	-1.018615
C139	C	2.108062	0.193860	-0.768615
C140	C	2.358062	0.443860	-0.518615
C141	C	1.565042	-0.277443	-0.431080
C142	C	1.815042	-0.027443	-0.181080
C143	C	2.065042	0.222557	0.068920
C144	C	2.315042	0.472557	0.318920
C145	C	1.550227	-0.267129	-0.313045
C146	C	1.800227	-0.017129	-0.063045
C147	C	2.050227	0.232871	0.186955
C148	C	2.300227	0.482871	0.436955
H149	H	1.047587	-0.226263	-0.818478
H150	H	1.297587	0.023737	-0.568478
H151	H	1.547587	0.273737	-0.318478
H152	H	1.797587	0.523737	-0.068478
H153	H	0.987271	-0.347272	-0.638239
H154	H	1.237271	-0.097272	-0.388239
H155	H	1.487271	0.152728	-0.138239
H156	H	1.737271	0.402728	0.111761
N157	N	1.140348	-0.386180	-0.580212
N158	N	1.390348	-0.136180	-0.330212
N159	N	1.640348	0.113820	-0.080212
N160	N	1.890348	0.363820	0.169788
N161	N	1.041310	-0.394582	-0.567717
N162	N	1.291310	-0.144582	-0.317717
N163	N	1.541310	0.105418	-0.067717
N164	N	1.791310	0.355418	0.182283
H165	H	0.994924	-0.430938	-0.513555
H166	H	1.244924	-0.180938	-0.263555
H167	H	1.494924	0.069062	-0.013555
H168	H	1.744924	0.319062	0.236445
H169	H	1.531533	-0.254640	-1.094295
H170	H	1.781533	-0.004640	-0.844295
H171	H	2.031533	0.245360	-0.594295
H172	H	2.281533	0.495360	-0.344295
H173	H	1.669067	-0.347241	-1.320908
H174	H	1.919067	-0.097241	-1.070908
H175	H	2.169067	0.152759	-0.820908
H176	H	2.419067	0.402759	-0.570908
N177	N	1.473705	-0.215565	-1.247441
N178	N	1.723705	0.034435	-0.997441
N179	N	1.973705	0.284435	-0.747441
N180	N	2.223705	0.534435	-0.497441
N181	N	1.503295	-0.155750	-1.190296
N182	N	1.753295	0.094250	-0.940296
N183	N	2.003295	0.344250	-0.690296
N184	N	2.253295	0.594250	-0.440296
H185	H	1.449254	-0.119332	-1.143963
H186	H	1.699254	0.130668	-0.893963
H187	H	1.949254	0.380668	-0.643963
H188	H	2.199254	0.630668	-0.393963
N189	N	1.227325	-0.244299	-0.791545
N190	N	1.477325	0.005701	-0.541545
N191	N	1.727325	0.255701	-0.291545
N192	N	1.977325	0.505701	-0.041545
N193	N	1.326361	-0.235889	-0.804032
N194	N	1.576361	0.014111	-0.554032
N195	N	1.826361	0.264111	-0.304032
N196	N	2.076361	0.514111	-0.054032
H197	H	1.372745	-0.199521	-0.858179
H198	H	1.622745	0.050479	-0.608179
H199	H	1.872745	0.300479	-0.358179
H200	H	2.122745	0.550479	-0.108179
N201	N	1.726881	-0.386301	-1.167767
N202	N	1.976881	-0.136301	-0.917767
N203	N	2.226881	0.113699	-0.667767
N204	N	2.476881	0.363699	-0.417767
N205	N	1.739380	-0.394684	-1.266798
N206	N	1.989380	-0.144684	-1.016798
N207	N	2.239380	0.105316	-0.766798
N208	N	2.489380	0.355316	-0.516798
H209	H	1.793420	-0.431102	-1.313135
H210	H	2.043420	-0.181102	-1.063135
H211	H	2.293420	0.068898	-0.813135
H212	H	2.543420	0.318898	-0.563135
