data_functionalizedCrystal
_audit_creation_method	'MofGen! by Chris Wilmer'
_symmetry_space_group_name_H-M	'P1'
_symmetry_Int_Tables_number	1
_symmetry_cell_setting	triclinic
loop_
_symmetry_equiv_pos_as_xyz
  x,y,z
_cell_length_a	16.994730
_cell_length_b	12.827893
_cell_length_c	12.827885
_cell_angle_alpha	89.980728
_cell_angle_beta	89.950214
_cell_angle_gamma	90.044951
loop_
_atom_site_label
_atom_site_type_symbol
_atom_site_fract_x
_atom_site_fract_y
_atom_site_fract_z
Zn1	Zn	-0.313991	-1.598108	0.591427
Zn2	Zn	-0.445916	-1.598186	0.416930
Zn3	Zn	-0.314029	-1.423349	0.416700
Zn4	Zn	-0.445857	-1.423518	0.591629
O5	O	-0.379948	-1.510790	0.504171
O6	O	-0.331500	-1.744354	0.568290
O7	O	-0.428461	-1.574955	0.270663
O8	O	-0.203643	-1.446428	0.439697
O9	O	-0.428424	-1.744412	0.440088
O10	O	-0.203615	-1.574822	0.568068
O11	O	-0.331565	-1.446504	0.270495
O12	O	-0.331508	-1.277136	0.439894
O13	O	-0.428324	-1.446716	0.737839
O14	O	-0.428361	-1.277260	0.568414
O15	O	-0.331443	-1.574986	0.737689
O16	O	-0.556289	-1.575119	0.440285
O17	O	-0.556246	-1.446792	0.568636
C18	C	-0.379933	-1.239280	0.504152
C19	C	-0.379946	-1.123127	0.504168
C20	C	-0.674208	-1.510796	0.504304
C21	C	-0.584886	-1.510903	0.504425
Zn22	Zn	-0.944846	-1.423325	0.416330
Zn23	Zn	-0.813155	-1.598145	0.416851
Zn24	Zn	-0.945325	-1.597814	0.591325
Zn25	Zn	-0.813265	-1.423208	0.591281
O26	O	-0.879148	-1.510623	0.503947
O27	O	-0.927131	-1.446703	0.270163
O28	O	-0.830842	-1.744337	0.440232
O29	O	-1.055642	-1.574579	0.567913
O30	O	-0.830378	-1.575142	0.270546
O31	O	-1.055291	-1.446382	0.439344
O32	O	-0.927947	-1.744094	0.568418
O33	O	-0.928053	-1.574465	0.737555
O34	O	-0.830565	-1.276988	0.567837
O35	O	-0.831029	-1.446183	0.737523
O36	O	-0.927237	-1.277074	0.439301
O37	O	-0.702789	-1.575028	0.440189
O38	O	-0.702869	-1.446503	0.568342
C39	C	-0.174208	-1.510590	0.503831
C40	C	-0.084886	-1.510506	0.503685
C41	C	-0.379873	-1.510861	0.776742
C42	C	-0.379840	-1.510892	0.892895
C43	C	-0.379964	-1.783360	0.504192
C44	C	-0.379971	-1.899514	0.504201
C45	C	-0.427946	-1.071432	0.567666
C46	C	-0.427960	-0.951381	0.567684
C47	C	-0.379967	-1.510780	0.232662
C48	C	-0.379777	-1.510951	0.116509
C49	C	-0.331891	-1.574370	0.944606
C50	C	-0.331856	-1.574403	1.064656
C51	C	-0.879604	-1.510274	0.775456
C52	C	-0.879781	-1.510100	0.891609
C53	C	-0.878860	-1.238053	0.503506
C54	C	-0.878737	-1.121900	0.503318
C55	C	-0.878689	-1.510972	0.231377
C56	C	-0.878493	-1.511121	0.115224
C57	C	-0.879490	-1.782133	0.504327
C58	C	-0.879833	-1.898285	0.504315
C59	C	-0.831780	-1.446649	0.943351
C60	C	-0.831961	-1.446468	1.063401
C61	C	-0.926514	-1.070158	0.439637
C62	C	-0.926389	-0.950108	0.439442
H63	H	-0.469029	-1.116050	0.622019
H64	H	-0.790863	-1.392149	1.107897
C65	C	-0.823350	-1.061689	0.576780
C66	C	-0.857640	-0.986494	0.658571
C67	C	-0.802250	-0.926286	0.732035
C68	C	-0.712571	-0.941274	0.723708
C69	C	-0.678276	-1.016472	0.641913
C70	C	-0.733666	-1.076680	0.568449
H71	H	-0.924030	-0.975397	0.664738
H72	H	-0.827638	-0.870619	0.792585
H73	H	-0.671568	-0.896704	0.778090
H74	H	-0.611886	-1.027570	0.635746
H75	H	-0.708278	-1.132347	0.507899
C76	C	-0.981651	-0.890005	0.365784
C77	C	-0.975040	-0.905069	0.247008
C78	C	-1.030304	-0.844964	0.173347
C79	C	-1.092178	-0.769794	0.218463
C80	C	-1.098791	-0.754727	0.337245
C81	C	-1.043528	-0.814832	0.410905
H82	H	-0.929234	-0.960717	0.213605
H83	H	-1.025408	-0.856118	0.085417
H84	H	-1.133088	-0.725301	0.163935
H85	H	-1.144597	-0.699079	0.370647
H86	H	-1.048424	-0.803677	0.498836
H87	H	-0.420861	-1.456562	0.937500
H88	H	-0.469058	-0.906924	0.622044
C89	C	-0.276463	-1.647762	0.884361
C90	C	-0.282892	-1.766584	0.899286
C91	C	-0.227462	-1.839979	0.839046
C92	C	-0.165603	-1.794552	0.763879
C93	C	-0.159171	-1.675724	0.748951
C94	C	-0.214601	-1.602329	0.809191
H95	H	-0.328686	-1.800217	0.954932
H96	H	-0.232223	-1.927943	0.850098
H97	H	-0.124570	-1.848883	0.719286
H98	H	-0.113377	-1.642091	0.693305
H99	H	-0.209840	-1.514365	0.798139
C100	C	-0.776077	-1.373439	0.883141
C101	C	-0.782261	-1.254587	0.897819
C102	C	-0.726555	-1.181374	0.837613
C103	C	-0.664665	-1.227013	0.762730
C104	C	-0.658478	-1.345871	0.748048
C105	C	-0.714184	-1.419084	0.808254
H106	H	-0.828078	-1.220796	0.953255
H107	H	-0.731135	-1.093387	0.848482
H108	H	-0.623428	-1.172816	0.718162
H109	H	-0.612661	-1.379662	0.692612
H110	H	-0.709604	-1.507071	0.797385
H111	H	-0.338857	-1.078509	0.449823
C112	C	-0.276395	-1.647827	1.124723
C113	C	-0.276439	-1.647755	1.244769
C114	C	-0.220976	-1.721182	1.304838
C115	C	-0.165468	-1.794681	1.244862
C116	C	-0.165421	-1.794755	1.124809
C117	C	-0.220885	-1.721329	1.064740
H118	H	-0.317532	-1.593345	1.289173
H119	H	-0.221011	-1.721126	1.393709
H120	H	-0.124410	-1.849036	1.289328
H121	H	-0.124329	-1.849166	1.080405
H122	H	-0.220850	-1.721384	0.975869
C123	C	-0.435240	-1.437524	1.056449
C124	C	-0.401026	-1.355495	0.981325
C125	C	-0.456490	-1.282068	0.921256
C126	C	-0.546167	-1.290669	0.936311
C127	C	-0.580386	-1.372701	1.011438
C128	C	-0.524922	-1.446129	1.071507
H129	H	-0.334637	-1.349125	0.970178
H130	H	-0.431158	-1.221342	0.865643
H131	H	-0.587224	-1.236314	0.891844
H132	H	-0.646775	-1.379072	1.022585
H133	H	-0.550254	-1.506854	1.127120
C134	C	-0.935643	-1.583157	1.055127
C135	C	-1.025327	-1.574364	1.069882
C136	C	-1.080850	-1.647759	1.009777
C137	C	-1.046688	-1.729946	0.934918
C138	C	-0.956999	-1.738742	0.920161
C139	C	-0.901476	-1.665348	0.980265
H140	H	-1.050620	-1.513522	1.125299
H141	H	-1.147243	-1.641247	1.020702
H142	H	-1.087789	-1.784277	0.890426
H143	H	-0.931706	-1.799585	0.864743
H144	H	-0.835083	-1.671860	0.969341
H145	H	-0.837594	-0.942777	0.557472
C146	C	-0.981902	-1.130371	0.366177
C147	C	-0.947611	-1.205567	0.284387
C148	C	-1.003000	-1.265778	0.210925
C149	C	-1.092680	-1.250793	0.219253
C150	C	-1.126975	-1.175593	0.301046
C151	C	-1.071586	-1.115382	0.374508
H152	H	-0.881221	-1.216663	0.278219
H153	H	-0.977612	-1.321446	0.150376
H154	H	-1.133683	-1.295364	0.164872
H155	H	-1.193366	-1.164497	0.307214
H156	H	-1.096974	-1.059714	0.435057
H157	H	-0.921012	-1.564287	0.936189
C158	C	-0.324448	-0.959556	0.430752
C159	C	-0.262602	-1.034563	0.476116
C160	C	-0.207079	-1.094614	0.402667
C161	C	-0.213401	-1.079658	0.283854
C162	C	-0.275249	-1.004648	0.238485
C163	C	-0.330772	-0.944596	0.311933
H164	H	-0.257920	-1.045637	0.564073
H165	H	-0.161295	-1.150142	0.436253
H166	H	-0.172300	-1.124111	0.229483
H167	H	-0.279931	-0.993573	0.150527
H168	H	-0.376556	-0.889069	0.278347
