data_functionalizedCrystal
_audit_creation_method	'MofGen! by Chris Wilmer'
_symmetry_space_group_name_H-M	'P1'
_symmetry_Int_Tables_number	1
_symmetry_cell_setting	triclinic
loop_
_symmetry_equiv_pos_as_xyz
  x,y,z
_cell_length_a	14.971482
_cell_length_b	19.188930
_cell_length_c	17.666332
_cell_angle_alpha	89.990320
_cell_angle_beta	89.994730
_cell_angle_gamma	83.378695
loop_
_atom_site_label
_atom_site_type_symbol
_atom_site_fract_x
_atom_site_fract_y
_atom_site_fract_z
O1	O	1.186468	0.090974	-0.062947
O2	O	1.519801	0.424307	0.270386
O3	O	1.853135	0.757640	0.603719
O4	O	0.926010	0.101872	-0.062952
O5	O	1.259343	0.435206	0.270381
O6	O	1.592676	0.768539	0.603715
O7	O	1.063755	-0.005209	-0.062935
O8	O	1.397088	0.328125	0.270399
O9	O	1.730422	0.661458	0.603732
O10	O	1.048723	0.198055	-0.062965
O11	O	1.382056	0.531388	0.270369
O12	O	1.715389	0.864721	0.603702
O13	O	1.063740	-0.005211	0.062962
O14	O	1.397073	0.328122	0.396295
O15	O	1.730406	0.661456	0.729629
O16	O	0.925994	0.101870	0.062945
O17	O	1.259328	0.435203	0.396278
O18	O	1.592661	0.768536	0.729611
O19	O	1.186453	0.090971	0.062949
O20	O	1.519786	0.424304	0.396283
O21	O	1.853119	0.757638	0.729616
Cu22	Cu	1.056222	0.096420	0.074442
Cu23	Cu	1.389555	0.429753	0.407776
Cu24	Cu	1.722889	0.763087	0.741109
Cu25	Cu	1.056240	0.096423	-0.074445
Cu26	Cu	1.389574	0.429757	0.258888
Cu27	Cu	1.722907	0.763090	0.592222
O28	O	1.048707	0.198052	0.062932
O29	O	1.382041	0.531385	0.396265
O30	O	1.715374	0.864719	0.729599
C31	C	0.892680	0.101384	-0.000004
C32	C	1.226013	0.434717	0.333329
C33	C	1.559347	0.768051	0.666663
C34	C	0.793390	0.099925	-0.000005
C35	C	1.126724	0.433258	0.333328
C36	C	1.460057	0.766592	0.666661
C37	C	0.746741	0.099236	0.068622
C38	C	1.080074	0.432570	0.401955
C39	C	1.413408	0.765903	0.735289
C40	C	0.653450	0.097854	0.068623
C41	C	0.986783	0.431187	0.401956
C42	C	1.320116	0.764521	0.735290
C43	C	0.606809	0.097165	-0.000004
C44	C	0.940142	0.430499	0.333329
C45	C	1.273476	0.763832	0.666663
C46	C	0.653465	0.097852	-0.068637
C47	C	0.986798	0.431185	0.264697
C48	C	1.320132	0.764519	0.598030
C49	C	0.746755	0.099229	-0.068637
C50	C	1.080089	0.432563	0.264697
C51	C	1.413422	0.765896	0.598030
C52	C	0.459018	0.094983	-0.068631
C53	C	0.792352	0.428317	0.264702
C54	C	1.125685	0.761650	0.598035
C55	C	0.365721	0.093607	-0.068631
C56	C	0.699055	0.426941	0.264702
C57	C	1.032388	0.760274	0.598035
C58	C	0.365713	0.093608	0.068629
C59	C	0.699046	0.426941	0.401962
C60	C	1.032379	0.760274	0.735295
C61	C	0.459003	0.094985	0.068628
C62	C	0.792336	0.428318	0.401962
C63	C	1.125670	0.761652	0.735295
C64	C	0.505653	0.095673	-0.000005
C65	C	0.838986	0.429006	0.333329
C66	C	1.172319	0.762340	0.666662
C67	C	1.063261	-0.031222	0.000016
C68	C	1.396594	0.302111	0.333349
C69	C	1.729927	0.635444	0.666682
C70	C	1.061799	-0.108732	0.000022
C71	C	1.395133	0.224602	0.333356
C72	C	1.728466	0.557935	0.666689
C73	C	1.142624	-0.153396	0.000027
C74	C	1.475957	0.179937	0.333361
C75	C	1.809290	0.513270	0.666694
C76	C	1.141251	-0.226224	0.000015
C77	C	1.474584	0.107109	0.333349
C78	C	1.807918	0.440442	0.666682
C79	C	1.059049	-0.254385	0.000013
C80	C	1.392382	0.078949	0.333346
C81	C	1.725716	0.412282	0.666680
C82	C	0.978214	-0.209710	0.000004
C83	C	1.311547	0.123623	0.333337
C84	C	1.644881	0.456956	0.666670
C85	C	0.979589	-0.136884	0.000008
C86	C	1.312922	0.196450	0.333342
C87	C	1.646256	0.529783	0.666675
N88	N	0.996210	-0.362592	0.042857
N89	N	1.329543	-0.029259	0.376190
N90	N	1.662877	0.304074	0.709524
N91	N	0.994909	-0.431775	0.042854
N92	N	1.328243	-0.098442	0.376188
N93	N	1.661576	0.234892	0.709521
C94	C	1.054901	-0.473807	-0.000002
C95	C	1.388234	-0.140473	0.333331
C96	C	1.721567	0.192860	0.666664
N97	N	1.116256	-0.444043	-0.042847
N98	N	1.449589	-0.110710	0.290487
N99	N	1.782922	0.222623	0.623820
N100	N	1.117559	-0.374855	-0.042840
N101	N	1.450893	-0.041521	0.290493
N102	N	1.784226	0.291812	0.623826
C103	C	1.057549	-0.333352	0.000008
C104	C	1.390882	-0.000019	0.333341
C105	C	1.724215	0.333315	0.666674
C106	C	1.134242	-0.597441	-0.000011
C107	C	1.467575	-0.264107	0.333322
C108	C	1.800909	0.069226	0.666655
C109	C	1.132866	-0.670270	-0.000028
C110	C	1.466199	-0.336936	0.333305
C111	C	1.799532	-0.003603	0.666638
C112	C	0.969826	-0.653754	-0.000032
C113	C	1.303160	-0.320421	0.333301
C114	C	1.636493	0.012913	0.666635
C115	C	0.971205	-0.580926	-0.000023
C116	C	1.304538	-0.247593	0.333311
C117	C	1.637872	0.085740	0.666644
C118	C	1.053415	-0.552774	-0.000009
C119	C	1.386749	-0.219441	0.333324
C120	C	1.720082	0.113892	0.666658
C121	C	1.219782	0.091459	-0.000000
C122	C	1.553116	0.424793	0.333333
C123	C	1.886449	0.758126	0.666666
C124	C	1.319072	0.092919	-0.000004
C125	C	1.652405	0.426252	0.333329
C126	C	1.985739	0.759585	0.666663
C127	C	1.049202	0.224066	-0.000020
C128	C	1.382535	0.557399	0.333313
C129	C	1.715868	0.890732	0.666647
C130	C	1.050663	0.301575	-0.000032
C131	C	1.383996	0.634908	0.333302
C132	C	1.717330	0.968242	0.666635
N133	N	1.056216	0.096418	0.179162
N134	N	1.389549	0.429751	0.512495
N135	N	1.722882	0.763084	0.845829
N136	N	1.056254	0.096420	-0.179165
N137	N	1.389587	0.429754	0.154169
N138	N	1.722920	0.763087	0.487502
C139	C	1.117249	0.049018	0.781220
C140	C	1.450582	0.382351	1.114553
C141	C	1.783915	0.715685	1.447886
C142	C	1.117250	0.049020	0.701972
C143	C	1.450584	0.382353	1.035305
C144	C	1.783917	0.715686	1.368639
C145	C	1.056241	0.096417	0.662343
C146	C	1.389575	0.429750	0.995677
C147	C	1.722908	0.763084	1.329010
C148	C	0.995241	0.143828	0.701969
C149	C	1.328575	0.477162	1.035302
C150	C	1.661908	0.810495	1.368635
C151	C	0.995248	0.143830	0.781215
C152	C	1.328581	0.477163	1.114548
C153	C	1.661914	0.810497	1.447882
N154	N	0.977055	0.105211	0.537929
N155	N	1.310389	0.438544	0.871262
N156	N	1.643722	0.771878	1.204595
N157	N	0.977052	0.105205	0.462648
N158	N	1.310385	0.438539	0.795981
N159	N	1.643719	0.771872	1.129315
C160	C	1.056220	0.096416	0.423579
C161	C	1.389553	0.429749	0.756913
C162	C	1.722887	0.763082	1.090246
N163	N	1.135394	0.087618	0.462635
N164	N	1.468727	0.420952	0.795968
N165	N	1.802061	0.754285	1.129302
N166	N	1.135396	0.087620	0.537922
N167	N	1.468730	0.420954	0.871256
N168	N	1.802063	0.754287	1.204589
C169	C	1.056228	0.096421	0.576414
C170	C	1.389561	0.429754	0.909748
C171	C	1.722895	0.763087	1.243081
C172	C	1.117222	0.049012	0.298034
C173	C	1.450555	0.382346	0.631367
C174	C	1.783889	0.715679	0.964701
C175	C	1.117225	0.049019	0.218785
C176	C	1.450558	0.382352	0.552118
C177	C	1.783891	0.715686	0.885452
C178	C	0.995208	0.143824	0.218783
C179	C	1.328541	0.477158	0.552117
C180	C	1.661875	0.810491	0.885450
C181	C	0.995213	0.143821	0.298031
C182	C	1.328546	0.477154	0.631364
C183	C	1.661880	0.810488	0.964698
C184	C	1.056219	0.096411	0.337652
C185	C	1.389552	0.429745	0.670985
C186	C	1.722886	0.763078	1.004318
H187	H	0.496998	0.095544	-0.124519
H188	H	0.830331	0.428877	0.208814
H189	H	1.163664	0.762210	0.542147
H190	H	0.913770	-0.100517	0.000004
H191	H	1.247103	0.232816	0.333338
H192	H	1.580437	0.566150	0.666671
H193	H	0.784708	0.099803	0.124506
H194	H	1.118042	0.433136	0.457840
H195	H	1.451375	0.766469	0.791173
H196	H	0.945537	0.182419	0.186518
H197	H	1.278870	0.515752	0.519852
H198	H	1.612203	0.849085	0.853185
H199	H	0.902896	-0.676681	-0.000037
H200	H	1.236229	-0.343348	0.333296
H201	H	1.569563	-0.010015	0.666629
H202	H	0.615474	0.097281	0.124506
H203	H	0.948807	0.430615	0.457840
H204	H	1.282141	0.763948	0.791173
H205	H	0.615484	0.097287	-0.124514
H206	H	0.948817	0.430620	0.208819
H207	H	1.282150	0.763953	0.542153
H208	H	1.166899	0.010420	0.186529
H209	H	1.500232	0.343754	0.519862
H210	H	1.833566	0.677087	0.853196
H211	H	1.201183	-0.574518	-0.000004
H212	H	1.534516	-0.241185	0.333330
H213	H	1.867849	0.092149	0.666663
H214	H	1.207070	-0.262597	0.000016
H215	H	1.540403	0.070736	0.333350
H216	H	1.873737	0.404069	0.666683
H217	H	0.945568	0.182421	0.669699
H218	H	1.278902	0.515754	1.003033
H219	H	1.612235	0.849088	1.336366
H220	H	0.327749	0.093047	-0.124513
H221	H	0.661082	0.426380	0.208820
H222	H	0.994415	0.759714	0.542153
H223	H	1.198686	-0.706636	-0.000028
H224	H	1.532019	-0.373302	0.333305
H225	H	1.865352	-0.039969	0.666638
H226	H	0.911284	-0.232643	0.000000
H227	H	1.244618	0.100690	0.333334
H228	H	1.577951	0.434024	0.666667
H229	H	0.945541	0.182418	0.330288
H230	H	1.278875	0.515751	0.663622
H231	H	1.612208	0.849084	0.996955
H232	H	0.905389	-0.544559	-0.000023
H233	H	1.238722	-0.211226	0.333311
H234	H	1.572055	0.122107	0.666644
H235	H	0.784736	0.099791	-0.124520
H236	H	1.118069	0.433125	0.208813
H237	H	1.451403	0.766458	0.542147
H238	H	1.166926	0.010416	0.813476
H239	H	1.500259	0.343749	1.146810
H240	H	1.833592	0.677083	1.480143
H241	H	0.496975	0.095550	0.124510
H242	H	0.830308	0.428883	0.457844
H243	H	1.163641	0.762217	0.791177
H244	H	0.945577	0.182432	0.813471
H245	H	1.278910	0.515765	1.146804
H246	H	1.612244	0.849098	1.480138
H247	H	1.209566	-0.130480	0.000036
H248	H	1.542899	0.202853	0.333369
H249	H	1.876232	0.536187	0.666703
H250	H	1.166922	0.010418	0.669711
H251	H	1.500255	0.343751	1.003044
H252	H	1.833588	0.677084	1.336377
H253	H	1.166900	0.010411	0.330294
H254	H	1.500233	0.343744	0.663628
H255	H	1.833566	0.677077	0.996961
H256	H	0.327726	0.093048	0.124512
H257	H	0.661059	0.426381	0.457845
H258	H	0.994393	0.759715	0.791179
