data_functionalizedCrystal
_audit_creation_method	'MofGen! by Chris Wilmer'
_symmetry_space_group_name_H-M	'P1'
_symmetry_Int_Tables_number	1
_symmetry_cell_setting	triclinic
loop_
_symmetry_equiv_pos_as_xyz
  x,y,z
_cell_length_a	9.065218
_cell_length_b	18.266242
_cell_length_c	9.065215
_cell_angle_alpha	90.005319
_cell_angle_beta	94.984675
_cell_angle_gamma	89.988816
loop_
_atom_site_label
_atom_site_type_symbol
_atom_site_fract_x
_atom_site_fract_y
_atom_site_fract_z
O1	O	-1.960409	0.060917	0.216361
O2	O	-1.531124	0.060910	0.234107
O3	O	-1.754642	0.060910	0.010591
O4	O	-1.736891	0.060916	0.439877
O5	O	-1.754603	-0.060852	0.010579
O6	O	-1.531085	-0.060852	0.234095
O7	O	-1.960370	-0.060845	0.216349
Zn8	Zn	-1.745721	-0.080181	0.225220
Zn9	Zn	-1.745772	0.080246	0.225236
O10	O	-1.736852	-0.060846	0.439864
C11	C	-1.476118	0.000028	0.232395
C12	C	-1.312275	0.000025	0.227296
N13	N	-1.745697	-0.189668	0.225208
C14	C	-1.844705	-0.227977	0.126285
C15	C	-1.844714	-0.304621	0.126278
C16	C	-1.745731	-0.342955	0.225220
C17	C	-1.646704	-0.304637	0.324151
C18	C	-1.646688	-0.227993	0.324145
N19	N	-1.728692	-0.463286	0.355534
N20	N	-1.728717	-0.536094	0.355535
C21	C	-1.745772	-0.573877	0.225242
N22	N	-1.762831	-0.536102	0.094944
N23	N	-1.762814	-0.463287	0.094944
C24	C	-1.745737	-0.426062	0.225237
C25	C	-1.844795	-0.695293	0.126304
C26	C	-1.844794	-0.771939	0.126295
C27	C	-1.646792	-0.771953	0.324180
C28	C	-1.646785	-0.695308	0.324176
C29	C	-1.745795	-0.656983	0.225239
C30	C	-1.015376	0.000034	0.218060
C31	C	-1.179219	0.000028	0.223159
C32	C	-1.752917	0.000030	-0.044402
C33	C	-1.747819	0.000032	-0.208245
N34	N	-1.745808	0.189733	0.225236
C35	C	-1.738576	0.000036	0.494857
C36	C	-1.743674	0.000039	0.658700
H37	H	-1.925340	-0.335818	0.045720
H38	H	-1.925413	-0.803131	0.045732
N39	N	-1.545593	-0.343778	0.425236
N40	N	-1.457199	-0.309561	0.513559
H41	H	-1.385779	-0.337203	0.584951
N42	N	-1.545676	-0.811111	0.425224
N43	N	-1.545694	-0.879542	0.425211
H44	H	-1.474273	-0.907202	0.496571
H45	H	-1.925321	-0.196774	0.045722
N46	N	-1.545536	-0.188869	0.425203
N47	N	-1.457152	-0.223100	0.513531
H48	H	-1.385712	-0.195468	0.584907
H49	H	-1.925410	-0.664087	0.045739
N50	N	-1.545641	-0.656184	0.425236
N51	N	-1.457262	-0.690416	0.513566
H52	H	-1.385819	-0.662785	0.584941
