data_functionalizedCrystal
_audit_creation_method	'MofGen! by Chris Wilmer'
_symmetry_space_group_name_H-M	'P1'
_symmetry_Int_Tables_number	1
_symmetry_cell_setting	triclinic
loop_
_symmetry_equiv_pos_as_xyz
  x,y,z
_cell_length_a	18.215407
_cell_length_b	25.639240
_cell_length_c	18.215399
_cell_angle_alpha	90.037217
_cell_angle_beta	90.019833
_cell_angle_gamma	90.033205
loop_
_atom_site_label
_atom_site_type_symbol
_atom_site_fract_x
_atom_site_fract_y
_atom_site_fract_z
Zn1	Zn	1.125032	-0.208150	0.416068
Zn2	Zn	1.625032	0.291850	0.916068
Zn3	Zn	1.124923	-0.295586	0.292982
Zn4	Zn	1.624923	0.204414	0.792982
Zn5	Zn	1.001964	-0.208167	0.293016
Zn6	Zn	1.501964	0.291833	0.793016
Zn7	Zn	1.001913	-0.295557	0.416007
Zn8	Zn	1.501913	0.204443	0.916007
O9	O	1.063458	-0.251865	0.354518
O10	O	1.563458	0.248135	0.854518
O11	O	1.228002	-0.219754	0.399752
O12	O	1.728002	0.280246	0.899752
O13	O	1.108588	-0.284009	0.190002
O14	O	1.608588	0.215991	0.690002
O15	O	1.018356	-0.135000	0.309379
O16	O	1.518356	0.365000	0.809379
O17	O	1.227922	-0.283992	0.309322
O18	O	1.727922	0.216008	0.809322
O19	O	1.108773	-0.134987	0.399785
O20	O	1.608773	0.365013	0.899785
O21	O	1.018251	-0.219783	0.190027
O22	O	1.518251	0.280217	0.690027
O23	O	0.898973	-0.219754	0.309319
O24	O	1.398973	0.280246	0.809319
O25	O	1.018269	-0.283943	0.519000
O26	O	1.518269	0.216057	1.019000
O27	O	0.898936	-0.283959	0.399681
O28	O	1.398936	0.216041	0.899681
O29	O	1.108724	-0.219725	0.519045
O30	O	1.608724	0.280275	1.019045
O31	O	1.108539	-0.368747	0.309262
O32	O	1.608539	0.131253	0.809262
O33	O	1.018164	-0.368726	0.399648
O34	O	1.518164	0.131274	0.899648
C35	C	1.063354	-0.387708	0.354461
C36	C	1.563354	0.112292	0.854461
C37	C	1.063377	-0.445822	0.354461
C38	C	1.563377	0.054178	0.854461
C39	C	0.872252	-0.251856	0.354497
C40	C	1.372252	0.248144	0.854497
C41	C	0.790453	-0.251865	0.354506
C42	C	1.290453	0.248135	0.854506
C43	C	0.602259	-0.285349	0.401498
C44	C	1.102259	0.214651	0.901498
C45	C	0.525400	-0.285350	0.401507
C46	C	1.025400	0.214650	0.901507
C47	C	0.525409	-0.218391	0.307555
C48	C	1.025409	0.281609	0.807555
C49	C	0.602267	-0.218387	0.307550
C50	C	1.102267	0.281613	0.807550
C51	C	0.640689	-0.251869	0.354520
C52	C	1.140689	0.248131	0.854520
C53	C	0.486973	-0.251874	0.354535
C54	C	0.986973	0.248126	0.854535
C55	C	0.403640	-0.251876	0.354544
C56	C	0.903640	0.248124	0.854544
C57	C	0.724028	-0.251867	0.354512
C58	C	1.224028	0.248133	0.854512
C59	C	1.110562	-0.806140	0.401678
C60	C	1.610562	-0.306140	0.901678
C61	C	1.110583	-0.860744	0.401693
C62	C	1.610583	-0.360744	0.901693
O63	O	1.150578	-0.888942	0.441779
O64	O	1.650578	-0.388942	0.941779
N65	N	1.063560	-0.888104	0.354590
N66	N	1.563560	-0.388104	0.854590
C67	C	1.016507	-0.860857	0.307474
C68	C	1.516507	-0.360857	0.807474
O69	O	0.976512	-0.889143	0.267410
O70	O	1.476512	-0.389143	0.767410
C71	C	1.016482	-0.806254	0.307463
C72	C	1.516482	-0.306254	0.807463
C73	C	1.063514	-0.778896	0.354564
C74	C	1.563514	-0.278896	0.854564
C75	C	1.157589	-0.778782	0.448776
C76	C	1.657589	-0.278782	0.948776
C77	C	1.157568	-0.724182	0.448760
C78	C	1.657568	-0.224182	0.948760
C79	C	1.110520	-0.696938	0.401646
C80	C	1.610520	-0.196938	0.901646
C81	C	1.063493	-0.724296	0.354548
C82	C	1.563493	-0.224296	0.854548
C83	C	0.969426	-0.779008	0.260351
C84	C	1.469426	-0.279008	0.760351
C85	C	0.969405	-0.724401	0.260345
C86	C	1.469405	-0.224401	0.760345
C87	C	1.016436	-0.697043	0.307446
C88	C	1.516436	-0.197043	0.807446
C89	C	1.016424	-0.642452	0.307418
C90	C	1.516424	-0.142452	0.807418
N91	N	1.063447	-0.615092	0.354521
N92	N	1.563447	-0.115092	0.854521
C93	C	1.110495	-0.642335	0.401635
C94	C	1.610495	-0.142335	0.901635
C95	C	1.016562	-0.975528	0.307500
C96	C	1.516562	-0.475528	0.807500
C97	C	1.016590	-1.030130	0.307507
C98	C	1.516590	-0.530130	0.807507
C99	C	1.110666	-1.030013	0.401727
C100	C	1.610666	-0.530013	0.901727
C101	C	1.110641	-0.975410	0.401717
C102	C	1.610641	-0.475410	0.901717
C103	C	1.063585	-0.948167	0.354604
C104	C	1.563585	-0.448167	0.854604
C105	C	1.110448	-0.527670	0.401597
C106	C	1.610448	-0.027670	0.901597
C107	C	1.110425	-0.473065	0.401575
C108	C	1.610425	0.026935	0.901575
C109	C	1.016347	-0.473186	0.307357
C110	C	1.516347	0.026814	0.807357
C111	C	1.016372	-0.527787	0.307377
C112	C	1.516372	-0.027787	0.807377
C113	C	1.063425	-0.555027	0.354503
C114	C	1.563425	-0.055027	0.854503
O115	O	0.976448	-0.614219	0.267354
O116	O	1.476448	-0.114219	0.767354
O117	O	1.150477	-0.614043	0.441698
O118	O	1.650477	-0.114043	0.941698
C119	C	1.255411	-0.251874	0.354540
C120	C	1.755411	0.248126	0.854540
C121	C	1.337210	-0.251878	0.354549
C122	C	1.837210	0.248122	0.854549
C123	C	1.063503	-0.251829	0.546471
C124	C	1.563503	0.248171	1.046471
C125	C	1.063522	-0.251814	0.628270
C126	C	1.563522	0.248186	1.128270
C127	C	1.063583	-0.115492	0.354592
C128	C	1.563583	0.384508	0.854592
C129	C	1.063636	-0.057378	0.354624
C130	C	1.563636	0.442622	0.854624
C131	C	1.063456	-0.251863	0.163312
C132	C	1.563456	0.248137	0.663312
C133	C	1.063579	-0.251731	0.081514
C134	C	1.563579	0.248269	0.581514
C135	C	1.110639	-0.218344	0.816489
C136	C	1.610639	0.281656	1.316489
C137	C	1.110647	-0.218329	0.893348
C138	C	1.610647	0.281671	1.393348
C139	C	1.016457	-0.285202	0.893290
C140	C	1.516457	0.214798	1.393290
C141	C	1.016446	-0.285214	0.816432
C142	C	1.516446	0.214786	1.316432
C143	C	1.063540	-0.251786	0.778034
C144	C	1.563540	0.248214	1.278034
C145	C	1.063561	-0.251759	0.931750
C146	C	1.563561	0.248241	1.431750
C147	C	1.063570	-0.251742	1.015084
C148	C	1.563570	0.248258	1.515084
C149	C	1.063530	-0.251801	0.694695
C150	C	1.563530	0.248199	1.194695
H151	H	0.633540	-0.312611	0.439746
H152	H	1.133540	0.187389	0.939746
H153	H	1.148984	-0.191123	0.785227
H154	H	1.648984	0.308877	1.285227
O155	O	1.156470	-0.185828	0.930589
O156	O	1.656470	0.314172	1.430589
C157	C	1.198017	-0.156318	0.880213
C158	C	1.698017	0.343682	1.380213
H159	H	1.200538	-0.177745	0.825416
H160	H	1.700538	0.322255	1.325416
H161	H	1.256009	-0.150739	0.902435
H162	H	1.756009	0.349261	1.402435
H163	H	1.171102	-0.116610	0.872055
H164	H	1.671102	0.383390	1.372055
O165	O	0.970785	-0.317658	0.930705
O166	O	1.470785	0.182342	1.430705
C167	C	0.980881	-0.310469	1.006788
C168	C	1.480881	0.189531	1.506788
H169	H	1.037692	-0.293345	1.017306
H170	H	1.537692	0.206655	1.517306
H171	H	0.975860	-0.349627	1.035973
H172	H	1.475860	0.150373	1.535973
H173	H	0.937257	-0.282621	1.028608
H174	H	1.437257	0.217379	1.528608
O175	O	0.970669	-0.317752	0.779186
O176	O	1.470669	0.182248	1.279186
C177	C	0.929097	-0.347248	0.829556
C178	C	1.429097	0.152752	1.329556
H179	H	0.959245	-0.349053	0.884349
H180	H	1.459245	0.150947	1.384349
H181	H	0.921208	-0.388445	0.807320
H182	H	1.421208	0.111555	1.307320
H183	H	0.873221	-0.328099	0.837730
H184	H	1.373221	0.171901	1.337730
O185	O	0.970719	-0.446742	0.261491
O186	O	1.470719	0.053258	0.761491
C187	C	0.986823	-0.460121	0.188157
C188	C	1.486823	0.039879	0.688157
H189	H	1.045623	-0.475097	0.184485
H190	H	1.545623	0.024903	0.684485
H191	H	0.980483	-0.424234	0.151791
H192	H	1.480483	0.075766	0.651791
H193	H	0.947388	-0.491850	0.168895
H194	H	1.447388	0.008150	0.668895
O195	O	0.970840	-1.056621	0.261723
O196	O	1.470840	-0.556621	0.761723
C197	C	0.929328	-1.020859	0.220126
C198	C	1.429328	-0.520859	0.720126
H199	H	0.926752	-0.981921	0.250261
H200	H	1.426752	-0.481921	0.750261
H201	H	0.871353	-1.036672	0.212223
H202	H	1.371353	-0.536672	0.712223
H203	H	0.956309	-1.015068	0.164257
H204	H	1.456309	-0.515068	0.664257
H205	H	0.494113	-0.312613	0.439762
H206	H	0.994113	0.187387	0.939762
H207	H	0.494116	-0.191131	0.269313
H208	H	0.994116	0.308869	0.769313
H209	H	0.633558	-0.191120	0.269296
H210	H	1.133558	0.308880	0.769296
H211	H	1.148758	-0.549843	0.439977
H212	H	1.648758	-0.049843	0.939977
O213	O	1.156135	-0.446571	0.447403
O214	O	1.656135	0.053429	0.947403
C215	C	1.197674	-0.482330	0.488977
C216	C	1.697674	0.017670	0.988977
H217	H	1.167542	-0.521269	0.491505
H218	H	1.667542	-0.021269	0.991505
H219	H	1.205484	-0.466516	0.546965
H220	H	1.705484	0.033484	1.046965
H221	H	1.253585	-0.488121	0.462082
H222	H	1.753585	0.011879	0.962082
O223	O	0.923836	-0.805600	0.214528
O224	O	1.423836	-0.305600	0.714528
C225	C	0.965754	-0.837201	0.167043
C226	C	1.465754	-0.337201	0.667043
H227	H	1.023714	-0.820720	0.162530
H228	H	1.523714	-0.320720	0.662530
H229	H	0.939153	-0.837867	0.110390
H230	H	1.439153	-0.337867	0.610390
H231	H	0.968289	-0.878570	0.189809
H232	H	1.468289	-0.378570	0.689809
O233	O	1.203274	-0.697691	0.494587
O234	O	1.703274	-0.197691	0.994587
C235	C	1.244811	-0.733455	0.536156
C236	C	1.744811	-0.233455	1.036156
H237	H	1.214676	-0.772394	0.538677
H238	H	1.714676	-0.272394	1.038677
H239	H	1.252622	-0.717646	0.594147
H240	H	1.752622	-0.217646	1.094147
H241	H	1.300722	-0.739245	0.509260
H242	H	1.800722	-0.239245	1.009260
O243	O	1.203192	-0.805264	0.494623
O244	O	1.703192	-0.305264	0.994623
C245	C	1.161295	-0.836861	0.542120
C246	C	1.661295	-0.336861	1.042120
H247	H	1.103318	-0.820449	0.546612
H248	H	1.603318	-0.320449	1.046612
H249	H	1.187885	-0.837423	0.598778
H250	H	1.687885	-0.337423	1.098778
H251	H	1.158801	-0.878261	0.519379
H252	H	1.658801	-0.378261	1.019379
H253	H	1.148937	-0.953139	0.440071
H254	H	1.648937	-0.453139	0.940071
O255	O	1.156260	-1.056506	0.447579
O256	O	1.656260	-0.556506	0.947579
C257	C	1.114339	-1.088098	0.495062
C258	C	1.614339	-0.588098	0.995062
H259	H	1.056370	-1.071672	0.499547
H260	H	1.556370	-0.571672	0.999547
H261	H	1.140920	-1.088673	0.551724
H262	H	1.640920	-0.588673	1.051724
H263	H	1.111830	-1.129494	0.472311
H264	H	1.611830	-0.629494	0.972311
O265	O	0.923591	-0.697995	0.214614
O266	O	1.423591	-0.197995	0.714614
C267	C	0.850241	-0.711365	0.230652
C268	C	1.350241	-0.211365	0.730652
H269	H	0.848719	-0.750994	0.258953
H270	H	1.348719	-0.250994	0.758953
H271	H	0.817269	-0.713287	0.177512
H272	H	1.317269	-0.213287	0.677512
H273	H	0.825421	-0.680626	0.268458
H274	H	1.325421	-0.180626	0.768458
O275	O	0.970587	-0.554343	0.261699
O276	O	1.470587	-0.054343	0.761699
C277	C	0.897227	-0.541022	0.277697
C278	C	1.397227	-0.041022	0.777697
H279	H	0.893473	-0.525975	0.336480
H280	H	1.393473	-0.025975	0.836480
H281	H	0.860884	-0.576956	0.271339
H282	H	1.360884	-0.076956	0.771339
H283	H	0.878003	-0.509364	0.238211
H284	H	1.378003	-0.009364	0.738211
H285	H	0.978246	-0.953350	0.269129
H286	H	1.478246	-0.453350	0.769129
