data_functionalizedCrystal
_audit_creation_method	'MofGen! by Chris Wilmer'
_symmetry_space_group_name_H-M	'P1'
_symmetry_Int_Tables_number	1
_symmetry_cell_setting	triclinic
loop_
_symmetry_equiv_pos_as_xyz
  x,y,z
_cell_length_a	19.288864
_cell_length_b	17.699083
_cell_length_c	17.766277
_cell_angle_alpha	89.992740
_cell_angle_beta	89.976791
_cell_angle_gamma	83.209630
loop_
_atom_site_label
_atom_site_type_symbol
_atom_site_fract_x
_atom_site_fract_y
_atom_site_fract_z
O1	O	0.921465	0.094417	-0.062837
O2	O	1.421465	0.594417	0.437163
O3	O	0.719219	0.107154	-0.062786
O4	O	1.219219	0.607154	0.437214
O5	O	0.826056	-0.009412	-0.062806
O6	O	1.326056	0.490588	0.437194
O7	O	0.814628	0.210983	-0.062817
O8	O	1.314628	0.710983	0.437183
O9	O	0.826037	-0.009417	0.062382
O10	O	1.326037	0.490583	0.562382
O11	O	0.719201	0.107148	0.062403
O12	O	1.219201	0.607148	0.562403
O13	O	0.921446	0.094411	0.062351
O14	O	1.421446	0.594411	0.562351
Cu15	Cu	0.820322	0.100779	0.073808
Cu16	Cu	1.320322	0.600779	0.573808
Cu17	Cu	0.820344	0.100786	-0.074242
Cu18	Cu	1.320344	0.600786	0.425758
O19	O	0.814609	0.210977	0.062372
O20	O	1.314609	0.710977	0.562372
C21	C	0.693333	0.106741	-0.000185
C22	C	1.193333	0.606741	0.499815
C23	C	0.616228	0.105511	-0.000165
C24	C	1.116228	0.605511	0.499835
C25	C	0.571613	0.173906	-0.000180
C26	C	1.071613	0.673906	0.499820
C27	C	0.499164	0.172751	-0.000188
C28	C	0.999164	0.672751	0.499812
C29	C	0.471334	0.103196	-0.000197
C30	C	0.971334	0.603196	0.499803
C31	C	0.515959	0.034791	-0.000177
C32	C	1.015959	0.534791	0.499823
C33	C	0.588406	0.035949	-0.000162
C34	C	1.088406	0.535949	0.499838
C35	C	0.363014	0.048520	-0.044079
C36	C	0.863014	0.548520	0.455921
C37	C	0.290568	0.047365	-0.044099
C38	C	0.790568	0.547365	0.455901
C39	C	0.247884	0.099622	-0.000242
C40	C	0.747884	0.599622	0.499758
C41	C	0.277654	0.153047	0.043625
C42	C	0.777654	0.653047	0.543625
C43	C	0.350101	0.154204	0.043641
C44	C	0.850101	0.654204	0.543641
C45	C	0.392779	0.101932	-0.000213
C46	C	0.892779	0.601932	0.499787
C47	C	0.124712	0.166769	-0.000265
C48	C	0.624712	0.666769	0.499735
C49	C	0.052262	0.165610	-0.000269
C50	C	0.552262	0.665610	0.499731
C51	C	0.069059	0.027649	-0.000265
C52	C	0.569059	0.527649	0.499735
C53	C	0.141507	0.028809	-0.000254
C54	C	0.641507	0.528809	0.499746
C55	C	0.169329	0.098371	-0.000258
C56	C	0.669329	0.598371	0.499742
C57	C	0.825637	-0.037611	-0.000212
C58	C	1.325637	0.462389	0.499788
C59	C	0.824409	-0.121627	-0.000211
C60	C	1.324409	0.378373	0.499789
C61	C	0.887120	-0.170336	-0.000226
C62	C	1.387120	0.329664	0.499774
C63	C	0.885961	-0.249278	-0.000232
C64	C	1.385961	0.250722	0.499768
C65	C	0.822091	-0.279509	-0.000219
C66	C	1.322091	0.220491	0.499781
C67	C	0.759375	-0.230794	-0.000206
C68	C	1.259375	0.269206	0.499794
C69	C	0.760535	-0.151854	-0.000205
C70	C	1.260535	0.348146	0.499795
C71	C	0.754699	-0.549150	-0.000211
C72	C	1.254699	-0.049150	0.499789
C73	C	0.753545	-0.628097	-0.000210
C74	C	1.253545	-0.128097	0.499790
C75	C	0.880126	-0.646575	-0.000238
C76	C	1.380126	-0.146575	0.499762
C77	C	0.881285	-0.567635	-0.000237
C78	C	1.381285	-0.067635	0.499763
C79	C	0.818570	-0.518926	-0.000229
C80	C	1.318570	-0.018926	0.499771
C81	C	0.819827	-0.433329	-0.000223
C82	C	1.319827	0.066671	0.499777
C83	C	0.820834	-0.365105	-0.000219
C84	C	1.320834	0.134895	0.499781
C85	C	0.947332	0.094824	-0.000251
C86	C	1.447332	0.594824	0.499749
C87	C	1.024437	0.096054	-0.000276
C88	C	1.524437	0.596054	0.499724
C89	C	0.815028	0.239176	-0.000224
C90	C	1.315028	0.739176	0.499776
C91	C	0.816257	0.323193	-0.000230
C92	C	1.316257	0.823193	0.499770
N93	N	0.820311	0.100774	0.177938
N94	N	1.320311	0.600774	0.677938
N95	N	0.820360	0.100786	-0.178372
N96	N	1.320360	0.600786	0.321628
C97	C	0.867634	0.049184	0.217316
C98	C	1.367634	0.549184	0.717316
C99	C	0.867638	0.049180	0.296118
C100	C	1.367638	0.549180	0.796118
C101	C	0.820326	0.100780	0.335539
C102	C	1.320326	0.600780	0.835539
C103	C	0.772994	0.152374	0.296151
C104	C	1.272994	0.652374	0.796151
C105	C	0.772987	0.152371	0.217351
C106	C	1.272987	0.652371	0.717351
C107	C	0.811109	0.169742	0.460375
C108	C	1.311109	0.669742	0.960375
C109	C	0.811121	0.169746	0.539174
C110	C	1.311121	0.669746	1.039174
C111	C	0.820344	0.100789	0.578585
C112	C	1.320344	0.600789	1.078585
C113	C	0.829570	0.031825	0.539188
C114	C	1.329570	0.531825	1.039188
C115	C	0.829563	0.031822	0.460388
C116	C	1.329563	0.531822	0.960388
C117	C	0.820328	0.100789	0.420984
C118	C	1.320328	0.600789	0.920984
C119	C	0.867674	0.049191	0.703409
C120	C	1.367674	0.549191	1.203409
C121	C	0.867673	0.049186	0.782212
C122	C	1.367673	0.549186	1.282212
C123	C	0.773033	0.152386	0.782244
C124	C	1.273033	0.652386	1.282244
C125	C	0.773030	0.152384	0.703442
C126	C	1.273030	0.652384	1.203442
C127	C	0.820355	0.100787	0.664029
C128	C	1.320355	0.600787	1.164029
H129	H	0.177834	-0.026886	-0.000246
H130	H	0.677834	0.473114	0.499754
H131	H	0.734499	0.194397	0.671379
H132	H	1.234499	0.694397	1.171379
H133	H	0.939130	-0.145729	-0.000233
H134	H	1.439130	0.354271	0.499767
H135	H	0.594260	0.230549	-0.000184
H136	H	1.094260	0.730549	0.499816
H137	H	0.906207	0.007171	0.814274
H138	H	1.406207	0.507171	1.314274
F139	F	0.693789	-0.100014	-0.000191
F140	F	1.193789	0.399986	0.499809
F141	F	0.952707	-0.301115	-0.000247
F142	F	1.452707	0.198885	0.499753
H143	H	0.837073	-0.024330	0.428314
H144	H	1.337073	0.475670	0.928314
H145	H	0.933295	-0.543025	-0.000245
H146	H	1.433295	-0.043025	0.499755
F147	F	0.039445	-0.046378	-0.000267
F148	F	0.539445	0.453622	0.499733
F149	F	0.408435	-0.007104	-0.090760
F150	F	0.908435	0.492896	0.409240
H151	H	0.493296	-0.021841	-0.000195
H152	H	0.993296	0.478159	0.499805
F153	F	0.801306	0.243142	0.581096
F154	F	1.301306	0.743142	1.081096
H155	H	0.266336	0.003866	-0.079822
H156	H	0.766336	0.503866	0.420178
F157	F	0.685562	-0.660268	-0.000196
F158	F	1.185562	-0.160268	0.499804
H159	H	0.242902	0.195599	0.079339
H160	H	0.742902	0.695599	0.579339
F161	F	0.722676	0.207298	0.824195
F162	F	1.222676	0.707298	1.324195
F163	F	0.917997	-0.005732	0.175372
F164	F	1.417997	0.494268	0.675372
F165	F	0.946874	-0.698420	-0.000250
F166	F	1.446874	-0.198420	0.499750
F167	F	0.635891	-0.036850	-0.000146
F168	F	1.135891	0.463150	0.499854
F169	F	0.687952	-0.497321	-0.000204
F170	F	1.187952	0.002679	0.499796
H171	H	0.707371	-0.255414	-0.000199
H172	H	1.207371	0.244586	0.499801
H173	H	0.906175	0.007168	0.328185
H174	H	1.406175	0.507168	0.828185
F175	F	0.801342	0.243141	0.418438
F176	F	1.301342	0.743141	0.918438
H177	H	0.837081	-0.024326	0.571275
H178	H	1.337081	0.475674	1.071275
F179	F	0.722618	0.207282	0.175440
F180	F	1.222618	0.707282	0.675440
F181	F	0.918037	-0.005726	0.661462
F182	F	1.418037	0.494274	1.161462
H183	H	0.015936	0.221308	-0.000277
H184	H	0.515936	0.721308	0.499723
F185	F	0.722639	0.207287	0.338106
F186	F	1.222639	0.707287	0.838106
H187	H	0.374336	0.197702	0.079362
H188	H	0.874336	0.697702	0.579362
F189	F	0.154324	0.240802	-0.000263
F190	F	0.654324	0.740802	0.499737
F191	F	0.451672	0.245549	-0.000202
F192	F	0.951672	0.745549	0.499798
