data_functionalizedCrystal
_audit_creation_method	'MofGen! by Chris Wilmer'
_symmetry_space_group_name_H-M	'P1'
_symmetry_Int_Tables_number	1
_symmetry_cell_setting	triclinic
loop_
_symmetry_equiv_pos_as_xyz
  x,y,z
_cell_length_a	16.109295
_cell_length_b	10.065875
_cell_length_c	16.109301
_cell_angle_alpha	81.214708
_cell_angle_beta	96.539666
_cell_angle_gamma	81.258551
loop_
_atom_site_label
_atom_site_type_symbol
_atom_site_fract_x
_atom_site_fract_y
_atom_site_fract_z
O1	O	-1.115293	0.113403	0.094630
O2	O	-0.873233	0.113427	0.107932
O3	O	-1.000911	0.113400	-0.019749
O4	O	-0.987615	0.113430	0.222311
O5	O	-0.976565	-0.113583	0.004696
O6	O	-0.848886	-0.113557	0.132376
O7	O	-1.090947	-0.113581	0.119075
Zn8	Zn	-0.966051	-0.149607	0.129607
Zn9	Zn	-0.998129	0.149454	0.097400
O10	O	-0.963268	-0.113554	0.246755
C11	C	-0.830085	-0.000062	0.119616
C12	C	-0.737790	-0.000054	0.118002
N13	N	-0.944165	-0.353708	0.151586
C14	C	-0.515517	-0.000059	0.190014
C15	C	-0.428795	-0.000068	0.188493
C16	C	-0.448668	-0.000080	0.037005
C17	C	-0.535387	-0.000082	0.038528
C18	C	-0.568810	-0.000064	0.115035
C19	C	-0.395369	-0.000071	0.111990
C20	C	-0.301342	-0.000080	0.110340
C21	C	-0.662842	-0.000058	0.116686
C22	C	-0.990508	-0.421497	0.105042
C23	C	-0.973671	-0.578660	0.121965
C24	C	-0.134094	-0.000087	0.107395
C25	C	-0.226388	-0.000082	0.109023
C26	C	-0.988199	-0.000092	-0.038501
C27	C	-0.986584	-0.000094	-0.130796
N28	N	-1.020021	0.353555	0.075414
C29	C	-1.058593	-0.000079	-0.353072
C30	C	-1.057070	-0.000068	-0.439793
C31	C	-0.905582	-0.000058	-0.419917
C32	C	-0.907107	-0.000060	-0.333198
C33	C	-0.983614	-0.000077	-0.299777
C34	C	-0.980567	-0.000064	-0.473218
C35	C	-0.978915	-0.000052	-0.567245
C36	C	-0.985267	-0.000087	-0.205744
C37	C	-0.975981	-0.000059	0.265507
C38	C	-0.977597	-0.000048	0.357801
H39	H	-0.385407	-0.000067	0.249549
N40	N	-0.904593	-0.655891	0.191343
H41	H	-0.930145	-0.715168	0.234413
H42	H	-0.876002	-0.588975	0.220013
N43	N	-0.551562	-0.000066	0.272532
H44	H	-0.614585	-0.000065	0.262122
H45	H	-0.541086	0.084079	0.296284
N46	N	-0.412610	-0.000083	-0.045505
H47	H	-0.441069	0.084057	-0.087414
H48	H	-0.423022	-0.084285	-0.069223
N49	N	-0.823066	-0.000067	-0.455964
H50	H	-0.775798	-0.000065	-0.409041
H51	H	-0.828154	0.084075	-0.500571
N52	N	-1.137940	-0.000089	-0.497271
H53	H	-1.125369	-0.000082	-0.557280
H54	H	-1.180309	0.084049	-0.495508
H55	H	-0.578780	-0.000090	-0.022532
N56	N	-1.059558	-0.344268	0.035640
H57	H	-1.061790	-0.242942	0.033380
H58	H	-1.115935	-0.369138	0.047739
N59	N	-1.089090	-0.569224	0.006024
H60	H	-1.091329	-0.467898	0.003767
H61	H	-1.145458	-0.594113	0.018142
H62	H	-0.892020	-0.412024	0.203960
N63	N	-1.141107	-0.000096	-0.317023
H64	H	-1.188375	-0.000093	-0.363947
H65	H	-1.154064	0.084048	-0.290531
H66	H	-0.846047	-0.000054	-0.289803
