data_functionalizedCrystal
_audit_creation_method	'MofGen! by Chris Wilmer'
_symmetry_space_group_name_H-M	'P1'
_symmetry_Int_Tables_number	1
_symmetry_cell_setting	triclinic
loop_
_symmetry_equiv_pos_as_xyz
  x,y,z
_cell_length_a	20.919467
_cell_length_b	18.760487
_cell_length_c	18.760492
_cell_angle_alpha	90.032780
_cell_angle_beta	61.853879
_cell_angle_gamma	61.863508
loop_
_atom_site_label
_atom_site_type_symbol
_atom_site_fract_x
_atom_site_fract_y
_atom_site_fract_z
Zr1	Zr	0.664221	0.727307	-0.052354
O2	O	0.790819	0.621237	-0.158471
O3	O	0.537624	0.754454	-0.025212
O4	O	0.664221	0.762202	-0.166149
O5	O	0.664222	0.613484	0.099769
O6	O	0.664221	0.879505	-0.166077
O7	O	0.664222	0.613489	-0.017534
O8	O	0.437761	0.865645	0.086034
O9	O	0.890681	0.627344	-0.152342
O10	O	0.589695	0.860060	-0.007073
O11	O	0.589695	0.772515	0.080415
O12	O	0.738747	0.781637	-0.085520
O13	O	0.738748	0.694092	0.001968
Zr14	Zr	0.664221	0.914383	0.134845
Zr15	Zr	0.664221	0.914391	-0.052239
Zr16	Zr	0.664222	0.727299	0.134730
Zr17	Zr	0.823490	0.737047	-0.042580
Zr18	Zr	0.504952	0.904643	0.125070
O19	O	0.790819	0.887236	0.107702
O20	O	0.790819	0.887247	-0.158307
O21	O	0.790819	0.621226	0.107539
O22	O	0.537624	1.020453	0.240962
O23	O	0.537623	1.020464	-0.025048
O24	O	0.537624	0.754443	0.240798
O25	O	0.664221	1.028206	-0.017278
O26	O	0.664222	0.879487	0.248640
O27	O	0.664222	0.762185	0.248568
O28	O	0.664221	1.028201	0.100024
O29	O	0.890681	0.776051	-0.152251
O30	O	0.437761	0.865639	0.234741
O31	O	0.437761	1.014346	0.234833
O32	O	0.437761	1.014352	0.086126
O33	O	0.890682	0.627338	-0.003635
O34	O	0.890681	0.776045	-0.003544
O35	O	0.589695	0.860053	0.168011
O36	O	0.589695	0.947598	0.080523
O37	O	0.738747	0.869175	0.002075
O38	O	0.738748	0.781630	0.089563
C39	C	0.465000	0.808662	0.029018
C40	C	0.397386	0.804527	0.024869
C41	C	0.310600	0.863824	0.084201
C42	C	0.247089	0.859901	0.080297
C43	C	0.270365	0.796684	0.017057
C44	C	0.357160	0.737380	-0.042278
C45	C	0.420670	0.741301	-0.038370
C46	C	0.081361	0.781780	0.002195
C47	C	0.017843	0.777866	-0.001710
C48	C	-0.092225	0.900386	0.120866
C49	C	-0.028709	0.904304	0.124765
C50	C	0.058080	0.844998	0.065433
C51	C	0.205448	0.792674	0.013064
C52	C	0.122996	0.849005	0.069431
C53	C	0.664222	0.586831	0.041101
C54	C	0.664222	0.507408	0.041052
C55	C	0.742028	0.130656	0.000449
C56	C	0.586415	0.212535	0.082349
C57	C	0.586414	0.287157	0.082274
C58	C	0.664221	0.283531	0.041285
C59	C	0.742029	0.205283	0.000370
C60	C	0.508606	0.365410	0.123181
C61	C	0.508602	0.440038	0.123106
C62	C	0.586410	0.436413	0.082121
C63	C	0.664222	0.358159	0.041206
C64	C	0.742029	0.354533	0.000216
C65	C	0.819842	0.276280	-0.040694
C66	C	0.819838	0.201658	-0.040615
C67	C	0.586414	0.511034	0.082042
C68	C	0.742030	0.429160	0.000138
C69	C	0.863443	0.833028	0.053472
C70	C	0.931057	0.837163	0.057622
C71	C	0.664221	0.820855	-0.192769
C72	C	0.664221	0.820858	-0.272191
C73	C	0.664221	1.054859	0.041389
C74	C	0.664221	1.134282	0.041438
C75	C	0.586414	0.861772	-0.567056
C76	C	0.742028	0.779896	-0.648952
C77	C	0.742029	0.779902	-0.574332
C78	C	0.664222	0.820842	-0.496069
C79	C	0.586413	0.861777	-0.492427
C80	C	0.819836	0.738962	-0.577967
C81	C	0.819841	0.738965	-0.503344
C82	C	0.742032	0.779911	-0.425079
C83	C	0.664221	0.820847	-0.421440
C84	C	0.586414	0.861788	-0.343178
C85	C	0.508601	0.902730	-0.339537
C86	C	0.508605	0.902722	-0.414163
C87	C	0.742028	0.779918	-0.350453
C88	C	0.586412	0.861793	-0.268549
C89	C	0.664222	0.820835	0.275259
C90	C	0.664222	0.820831	0.354681
C91	C	0.465000	1.042676	0.029162
C92	C	0.397386	1.117964	0.025062
C93	C	0.465000	0.808652	0.263032
C94	C	0.397386	0.804513	0.338305
C95	C	0.465000	1.042666	0.263176
C96	C	0.397386	1.117950	0.338498
C97	C	0.863443	0.599024	-0.180686
C98	C	0.931057	0.523740	-0.256007
C99	C	0.863443	0.599014	0.053328
C100	C	0.931057	0.523726	0.057429
C101	C	0.863442	0.833038	-0.180542
C102	C	0.931056	0.837176	-0.255814
C103	C	0.365634	1.107625	-0.022596
C104	C	0.302112	1.178359	-0.026466
C105	C	0.270339	1.259430	0.017327
C106	C	0.302098	1.269767	0.064986
C107	C	0.365623	1.199034	0.068851
C108	C	0.365634	0.848264	0.419385
C109	C	0.302113	0.844373	0.490120
C110	C	0.270340	0.796736	0.479771
C111	C	0.302099	0.752980	0.398682
C112	C	0.365623	0.756867	0.327950
C113	C	0.365634	1.199010	0.328202
C114	C	0.302112	1.269755	0.398968
C115	C	0.270340	1.259438	0.480028
C116	C	0.302098	1.178370	0.490323
C117	C	0.365623	1.107627	0.419558
C118	C	0.962817	0.442680	-0.245711
C119	C	1.026358	0.371937	-0.316475
C120	C	1.058134	0.382254	-0.397536
C121	C	1.026371	0.463322	-0.407831
C122	C	0.962835	0.534064	-0.337067
C123	C	0.962816	0.534065	0.105079
C124	C	1.026355	0.463332	0.108930
C125	C	1.058130	0.382261	0.065134
C126	C	1.026368	0.371924	0.017478
C127	C	0.962835	0.442656	0.013623
C128	C	0.962809	0.884821	-0.245439
C129	C	1.026330	0.888726	-0.316159
C130	C	1.058103	0.844981	-0.397253
C131	C	1.026345	0.797334	-0.407627
C132	C	0.962819	0.793435	-0.336908
H133	H	0.291637	0.915305	0.135696
N134	N	0.928537	0.932023	-0.157981
H135	H	0.883472	0.922332	-0.114746
H136	H	0.977052	0.911009	-0.148101
H137	H	0.276262	1.169926	-0.065275
N138	N	0.928553	0.621500	0.152319
H139	H	0.958324	0.617304	0.183082
H140	H	0.939608	0.655129	0.111056
H141	H	0.218615	0.793578	0.537373
H142	H	1.109830	0.848163	-0.454830
H143	H	0.936948	0.434263	-0.179713
H144	H	0.218612	1.317019	0.014174
N145	N	0.825943	0.735759	-0.354373
H146	H	0.875233	0.709819	-0.415276
H147	H	0.829337	0.777925	-0.325176
N148	N	0.267826	1.357210	0.112217
H149	H	0.222763	1.400443	0.102534
H150	H	0.241505	1.362518	0.174513
N151	N	1.060633	0.284479	-0.029740
H152	H	1.086999	0.279077	-0.092057
H153	H	1.105660	0.241302	-0.019986
H154	H	0.883188	0.137940	-0.073921
N155	N	1.060616	0.474488	0.160320
H156	H	1.049579	0.444881	0.205607
H157	H	1.124375	0.449485	0.122233
H158	H	0.805381	0.066940	-0.032857
H159	H	0.805391	0.426198	-0.033232
H160	H	0.523061	0.574744	0.115359
N161	N	1.060590	0.284507	-0.305358
H162	H	1.105663	0.241251	-0.362482
H163	H	1.086885	0.279207	-0.270734
H164	H	0.391496	0.887056	0.427828
H165	H	0.523068	0.215481	0.115718
H166	H	0.391502	1.041620	-0.058268
H167	H	0.391468	0.721242	0.261933
H168	H	0.391467	1.207464	0.107664
H169	H	0.445260	0.368354	0.156552
N170	N	0.502489	0.905926	-0.563120
H171	H	0.468475	0.967771	-0.532205
H172	H	0.514360	0.899651	-0.622292
N173	N	0.267864	0.891572	0.577572
H174	H	0.297628	0.922345	0.573388
H175	H	0.204090	0.933609	0.606643
N176	N	0.267821	0.701607	0.387527
H177	H	0.222757	0.705794	0.444643
H178	H	0.241501	0.724002	0.352937
H179	H	1.109868	0.324644	-0.455149
N180	N	1.060642	0.474439	-0.495264
H181	H	1.030885	0.536524	-0.491059
H182	H	1.124416	0.449367	-0.524317
H183	H	0.276261	1.335758	0.390570
H184	H	0.936977	0.600064	-0.345461
N185	N	0.424684	0.946887	-0.255121
H186	H	0.390671	1.008733	-0.250179
H187	H	0.390731	0.920776	-0.250275
H188	H	0.883183	0.705628	-0.641692
N189	N	0.928591	0.742028	-0.348108
H190	H	0.883528	0.746187	-0.291008
H191	H	0.902284	0.764410	-0.382710
H192	H	0.391494	1.207426	0.262204
N193	N	0.201824	1.335743	0.556350
H194	H	0.186533	1.388657	0.537519
H195	H	0.149148	1.332485	0.589003
N196	N	1.126644	0.305971	0.069305
H197	H	1.179368	0.273273	0.010634
H198	H	1.141865	0.324892	0.106178
N199	N	0.153483	0.923861	0.144287
H200	H	0.148375	0.964508	0.184937
H201	H	0.124733	0.955975	0.114269
N202	N	-0.053815	0.972493	0.192969
H203	H	-0.118433	1.009464	0.229964
H204	H	-0.029853	0.945715	0.228321
N205	N	0.928583	0.431499	-0.037773
H206	H	0.958357	0.369407	-0.064927
H207	H	0.864811	0.456559	0.000288
N208	N	-0.185830	0.964338	0.184865
H209	H	-0.190937	1.004979	0.225520
H210	H	-0.214591	0.996460	0.154858
N211	N	0.382270	0.669192	-0.110485
H212	H	0.328869	0.675707	-0.103961
H213	H	0.417397	0.674205	-0.167623
H214	H	0.445254	0.936055	-0.411207
H215	H	0.391468	1.041626	0.427953
N216	N	1.060574	0.940120	-0.304959
H217	H	1.030809	0.967232	-0.242854
H218	H	1.124349	0.902070	-0.330044
N219	N	1.060619	0.750150	-0.495094
H220	H	1.049565	0.791390	-0.528743
H221	H	1.124382	0.708076	-0.524127
N222	N	0.042948	0.709678	-0.069922
H223	H	0.107565	0.672701	-0.106915
H224	H	0.018997	0.674313	-0.043150
H225	H	0.152020	0.733500	-0.046129
H226	H	0.883192	0.273337	-0.074073
H227	H	0.491336	0.693007	-0.086677
H228	H	0.224392	0.741202	-0.038427
N229	N	0.097891	0.917192	0.137631
H230	H	0.033274	0.954169	0.174627
H231	H	0.121852	0.890412	0.172982
H232	H	0.445242	0.503748	0.156417
N233	N	0.825945	0.735734	-0.733358
H234	H	0.814139	0.741940	-0.780080
H235	H	0.859922	0.761809	-0.738177
H236	H	0.276220	1.169982	0.556332
H237	H	0.523051	0.895134	-0.204827
N238	N	0.903761	0.694816	-0.507270
H239	H	0.953051	0.668882	-0.568173
H240	H	0.907145	0.736991	-0.478072
