data_functionalizedCrystal
_audit_creation_method	'MofGen! by Chris Wilmer'
_symmetry_space_group_name_H-M	'P1'
_symmetry_Int_Tables_number	1
_symmetry_cell_setting	triclinic
loop_
_symmetry_equiv_pos_as_xyz
  x,y,z
_cell_length_a	17.077404
_cell_length_b	15.297327
_cell_length_c	15.296720
_cell_angle_alpha	107.319222
_cell_angle_beta	99.661334
_cell_angle_gamma	99.707136
loop_
_atom_site_label
_atom_site_type_symbol
_atom_site_fract_x
_atom_site_fract_y
_atom_site_fract_z
Zn1	Zn	1.041702	-0.461219	-0.589831
Zn2	Zn	1.541702	0.038781	-0.089831
Zn3	Zn	1.041613	-0.589841	-0.461226
Zn4	Zn	1.541613	-0.089841	0.038774
Zn5	Zn	0.937910	-0.434348	-0.434349
Zn6	Zn	1.437910	0.065652	0.065651
Zn7	Zn	0.882939	-0.616684	-0.616670
Zn8	Zn	1.382939	-0.116684	-0.116670
O9	O	0.976041	-0.525523	-0.525519
O10	O	1.476041	-0.025523	-0.025519
O11	O	1.151533	-0.478293	-0.572787
O12	O	1.651533	0.021707	-0.072787
O13	O	1.050825	-0.546735	-0.327536
O14	O	1.550825	-0.046735	0.172464
O15	O	0.974721	-0.307776	-0.432494
O16	O	1.474721	0.192224	0.067506
O17	O	1.151468	-0.572791	-0.478301
O18	O	1.651468	-0.072791	0.021699
O19	O	1.050977	-0.327518	-0.546726
O20	O	1.550977	0.172482	-0.046726
O21	O	0.974635	-0.432495	-0.307790
O22	O	1.474635	0.067505	0.192210
O23	O	0.820775	-0.458523	-0.458519
O24	O	1.320775	0.041477	0.041481
O25	O	0.881032	-0.618541	-0.743234
O26	O	1.381032	-0.118541	-0.243234
O27	O	0.780389	-0.592485	-0.592469
O28	O	1.280389	-0.092485	-0.092469
O29	O	0.997674	-0.504322	-0.723516
O30	O	1.497674	-0.004322	-0.223516
O31	O	0.997522	-0.723539	-0.504326
O32	O	1.497522	-0.223539	-0.004326
O33	O	0.880945	-0.743260	-0.618530
O34	O	1.380945	-0.243260	-0.118530
C35	C	0.772101	-0.525502	-0.525491
C36	C	1.272101	-0.025502	-0.025491
C37	C	0.684846	-0.525519	-0.525504
C38	C	1.184846	-0.025519	-0.025504
C39	C	0.622848	-0.595346	-0.595172
C40	C	1.122848	-0.095346	-0.095172
C41	C	0.540865	-0.595351	-0.595188
C42	C	1.040865	-0.095351	-0.095188
C43	C	0.520881	-0.525531	-0.525530
C44	C	1.020881	-0.025531	-0.025530
C45	C	0.582887	-0.455697	-0.455858
C46	C	1.082887	0.044303	0.044142
C47	C	0.664868	-0.455690	-0.455848
C48	C	1.164868	0.044310	0.044152
C49	C	0.412009	-0.455719	-0.455884
C50	C	0.912009	0.044281	0.044116
C51	C	0.330022	-0.455728	-0.455893
C52	C	0.830022	0.044272	0.044107
C53	C	0.288006	-0.595380	-0.595224
C54	C	0.788006	-0.095380	-0.095224
C55	C	0.369988	-0.595373	-0.595213
C56	C	0.869988	-0.095373	-0.095213
C57	C	0.431988	-0.525539	-0.525540
C58	C	0.931988	-0.025539	-0.025540
C59	C	0.933276	-0.767146	-0.567277
C60	C	1.433276	-0.267146	-0.067277
C61	C	0.915048	-0.870519	-0.585172
C62	C	1.415048	-0.370519	-0.085172
C63	C	1.106591	-1.120740	-0.397936
C64	C	1.606591	-0.620740	0.102064
C65	C	1.123718	-1.023615	-0.381118
C66	C	1.623718	-0.523615	0.118882
C67	C	1.071553	-0.985336	-0.432130
C68	C	1.571553	-0.485336	0.067870
C69	C	1.002256	-1.044192	-0.499963
C70	C	1.502256	-0.544192	0.000037
C71	C	0.985124	-1.141325	-0.516778
C72	C	1.485124	-0.641325	-0.016778
C73	C	0.950085	-1.005921	-0.550972
C74	C	1.450085	-0.505921	-0.050972
C75	C	0.880789	-1.064777	-0.618805
C76	C	1.380789	-0.564777	-0.118805
C77	C	0.863660	-1.161900	-0.635617
C78	C	1.363660	-0.661900	-0.135617
C79	C	0.915826	-1.200179	-0.584605
C80	C	1.415826	-0.700179	-0.084605
C81	C	0.967217	-0.908788	-0.534157
C82	C	1.467217	-0.408788	-0.034157
C83	C	0.845750	-0.929373	-0.652999
C84	C	1.345750	-0.429373	-0.152999
C85	C	0.828623	-1.026498	-0.669818
C86	C	1.328623	-0.526498	-0.169818
C87	C	1.180778	-0.525545	-0.525548
C88	C	1.680778	-0.025545	-0.025548
C89	C	1.268024	-0.525555	-0.525561
C90	C	1.768024	-0.025555	-0.025561
C91	C	0.933231	-0.567423	-0.768058
C92	C	1.433231	-0.067423	-0.268058
C93	C	0.914988	-0.585279	-0.871413
C94	C	1.414988	-0.085279	-0.371413
C95	C	1.018991	-0.282960	-0.483619
C96	C	1.518991	0.217040	0.016381
C97	C	1.037293	-0.179594	-0.465763
C98	C	1.537293	0.320406	0.034237
C99	C	1.106486	-0.397745	-1.121692
C100	C	1.606486	0.102255	-0.621692
C101	C	1.123631	-0.380971	-1.024585
C102	C	1.623631	0.119029	-0.524585
C103	C	1.071472	-0.432046	-0.986287
C104	C	1.571472	0.067954	-0.486287
C105	C	1.002164	-0.499899	-1.045106
C106	C	1.502164	0.000101	-0.545106
C107	C	0.985021	-0.516680	-1.142224
C108	C	1.485021	-0.016680	-0.642224
C109	C	0.950007	-0.550981	-1.006819
C110	C	1.450007	-0.050981	-0.506819
C111	C	0.880699	-0.618834	-1.065639
C112	C	1.380699	-0.118834	-0.565639
C113	C	0.863559	-0.635612	-1.162747
C114	C	1.363559	-0.135612	-0.662747
C115	C	0.915718	-0.584537	-1.201044
C116	C	1.415718	-0.084537	-0.701044
C117	C	0.967150	-0.534200	-0.909701
C118	C	1.467150	-0.034200	-0.409701
C119	C	0.845685	-0.653135	-0.930234
C120	C	1.345685	-0.153135	-0.430234
C121	C	0.828540	-0.669909	-1.027341
C122	C	1.328540	-0.169909	-0.527341
C123	C	1.018742	-0.483719	-0.283912
C124	C	1.518742	0.016281	0.216088
C125	C	1.037183	-0.465602	-0.180512
C126	C	1.537183	0.034398	0.319488
H127	H	0.639111	-0.652204	-0.651893
H128	H	1.139111	-0.152204	-0.151893
Br129	Br	1.094985	-0.853571	-0.409586
Br130	Br	1.594985	-0.353571	0.090414
Br131	Br	0.734582	-1.106383	-0.761876
Br132	Br	1.234582	-0.606383	-0.261876
Br133	Br	0.892306	-1.331923	-0.607010
Br134	Br	1.392306	-0.831923	-0.107010
H135	H	0.237521	-0.652239	-0.651956
H136	H	0.737521	-0.152239	-0.151956
H137	H	0.386255	-0.652230	-0.651930
H138	H	0.886255	-0.152230	-0.151930
Br139	Br	0.302901	-0.360978	-0.361351
Br140	Br	0.802901	0.139022	0.138649
Br141	Br	0.774943	-0.877431	-0.722226
Br142	Br	1.274943	-0.377431	-0.222226
H143	H	0.462489	-0.398847	-0.399155
H144	H	0.962489	0.101153	0.100845
H145	H	0.772109	-0.725156	-1.075245
H146	H	1.272109	-0.225156	-0.575245
Br147	Br	0.892455	-0.607304	-1.332839
Br148	Br	1.392455	-0.107304	-0.832839
Br149	Br	0.555767	-0.360933	-0.361329
Br150	Br	1.055767	0.139067	0.138671
H151	H	1.023580	-0.478953	-0.861819
H152	H	1.523580	0.021047	-0.361819
Br153	Br	0.769610	-1.241773	-0.727670
Br154	Br	1.269610	-0.741773	-0.227670
Br155	Br	1.094740	-0.409279	-0.854496
Br156	Br	1.594740	0.090721	-0.354496
H157	H	0.715348	-0.398825	-0.399121
H158	H	1.215348	0.101175	0.100879
H159	H	1.149053	-1.151916	-0.356404
H160	H	1.649053	-0.651916	0.143596
H161	H	1.023639	-0.860876	-0.478927
H162	H	1.523639	-0.360876	0.021073
H163	H	0.803213	-0.694726	-0.899053
H164	H	1.303213	-0.194726	-0.399053
Br165	Br	1.217688	-0.288891	-0.944765
Br166	Br	1.717688	0.211109	-0.444765
H167	H	0.490388	-0.652212	-0.651918
H168	H	0.990388	-0.152212	-0.151918
Br169	Br	1.217764	-0.943749	-0.289071
Br170	Br	1.717764	-0.443749	0.210929
H171	H	0.807129	-0.690870	-1.210637
H172	H	1.307129	-0.190870	-0.710637
H173	H	1.148950	-0.356173	-1.152885
H174	H	1.648950	0.143827	-0.652885
