data_functionalizedCrystal
_audit_creation_method	'MofGen! by Chris Wilmer'
_symmetry_space_group_name_H-M	'P1'
_symmetry_Int_Tables_number	1
_symmetry_cell_setting	triclinic
loop_
_symmetry_equiv_pos_as_xyz
  x,y,z
_cell_length_a	17.699083
_cell_length_b	15.538191
_cell_length_c	16.776229
_cell_angle_alpha	89.995703
_cell_angle_beta	89.998886
_cell_angle_gamma	65.277554
loop_
_atom_site_label
_atom_site_type_symbol
_atom_site_fract_x
_atom_site_fract_y
_atom_site_fract_z
O1	O	0.971508	0.119201	-0.066172
O2	O	0.746892	0.134709	-0.066198
O3	O	0.902923	-0.010275	-0.066184
O4	O	0.815476	0.264184	-0.066186
O5	O	0.902910	-0.010283	0.066393
O6	O	0.746879	0.134700	0.066379
O7	O	0.971495	0.119192	0.066404
Zn8	Zn	0.859185	0.126945	0.087441
Zn9	Zn	0.859202	0.126956	-0.087235
O10	O	0.815463	0.264176	0.066390
C11	C	0.718840	0.134149	0.000087
C12	C	0.635277	0.132482	0.000077
C13	C	0.912066	-0.045395	0.000103
C14	C	0.939318	-0.150032	0.000098
C15	C	0.563403	0.217584	0.000077
C16	C	0.484889	0.216012	0.000087
C17	C	0.478252	0.129337	0.000092
C18	C	0.550134	0.044228	0.000095
C19	C	0.628646	0.045801	0.000090
C20	C	0.233505	0.037882	0.000115
C21	C	0.154985	0.036316	0.000117
C22	C	0.089748	0.208094	0.000111
C23	C	0.168260	0.209667	0.000107
C24	C	0.240135	0.124558	0.000114
C25	C	0.325269	0.126264	0.000104
C26	C	0.393120	0.127630	0.000096
C27	C	0.668571	-0.437202	0.000084
C28	C	0.694198	-0.535527	0.000089
C29	C	0.838344	-0.558300	0.000105
C30	C	0.812729	-0.459975	0.000096
C31	C	0.727842	-0.399434	0.000087
C32	C	0.872000	-0.422207	0.000099
C33	C	0.846387	-0.323891	0.000095
C34	C	0.761503	-0.263343	0.000087
C35	C	0.702229	-0.301118	0.000082
C36	C	0.956887	-0.482750	0.000114
C37	C	1.016158	-0.444981	0.000117
C38	C	0.990545	-0.346663	0.000107
C39	C	0.905661	-0.286116	0.000100
C40	C	1.049819	-0.308889	0.000112
C41	C	1.024206	-0.210573	0.000107
C42	C	0.880048	-0.187800	0.000095
C43	C	0.999546	0.119752	0.000117
C44	C	1.083109	0.121419	0.000122
C45	C	0.806321	0.299297	0.000102
C46	C	0.779068	0.403933	0.000101
N47	N	0.859179	0.126936	0.206652
N48	N	0.859216	0.126957	-0.206446
C49	C	0.928278	0.062764	0.248375
C50	C	0.928282	0.062763	0.331827
C51	C	0.859189	0.126940	0.373555
C52	C	0.790084	0.191115	0.331826
C53	C	0.790078	0.191111	0.248375
C54	C	0.790106	0.191134	0.668373
C55	C	0.790118	0.191135	0.751829
C56	C	0.928310	0.062786	0.751825
C57	C	0.928304	0.062781	0.668375
C58	C	0.859198	0.126953	0.626653
C59	C	0.859193	0.126952	0.536164
C60	C	0.859195	0.126946	0.464042
H61	H	0.568797	0.288165	0.000072
Br62	Br	0.953545	-0.640470	0.000127
H63	H	0.733851	0.243398	0.785803
Br64	Br	1.022100	-0.024308	0.808451
H65	H	0.031216	0.277393	0.000110
Br66	Br	0.587023	-0.218945	0.000058
Br67	Br	1.165019	-0.391062	0.000144
H68	H	0.733838	0.243386	0.634410
Br69	Br	1.131358	-0.527152	0.000139
H70	H	0.984568	0.010526	0.634403
H71	H	0.599448	-0.387905	0.000070
H72	H	0.645927	-0.566272	0.000098
H73	H	0.426369	0.285311	0.000086
Br74	Br	0.696293	0.278200	0.191750
Br75	Br	0.177262	0.327301	0.000092
Br76	Br	0.145981	-0.081323	0.000122
H77	H	1.072470	-0.179822	0.000111
Br78	Br	0.331041	-0.077622	0.000126
Br79	Br	1.022056	-0.024332	0.191754
Br80	Br	0.726738	-0.129912	0.000092
H81	H	0.544725	-0.026345	0.000111
H82	H	0.733824	0.243366	0.365805
Br83	Br	1.022059	-0.024333	0.388455
H84	H	0.810924	-0.138503	0.000082
H85	H	0.687169	-0.023498	0.000090
H86	H	0.977738	-0.562804	0.000111
