data_functionalizedCrystal
_audit_creation_method	'MofGen! by Chris Wilmer'
_symmetry_space_group_name_H-M	'P1'
_symmetry_Int_Tables_number	1
_symmetry_cell_setting	triclinic
loop_
_symmetry_equiv_pos_as_xyz
  x,y,z
_cell_length_a	21.395362
_cell_length_b	12.759399
_cell_length_c	21.395356
_cell_angle_alpha	89.978636
_cell_angle_beta	89.964230
_cell_angle_gamma	90.030995
loop_
_atom_site_label
_atom_site_type_symbol
_atom_site_fract_x
_atom_site_fract_y
_atom_site_fract_z
Zn1	Zn	0.957877	-0.417869	-0.354604
Zn2	Zn	1.291210	-0.084536	-0.021271
Zn3	Zn	1.624543	0.248798	0.312063
Zn4	Zn	0.957823	-0.593555	-0.249834
Zn5	Zn	1.291156	-0.260222	0.083499
Zn6	Zn	1.624489	0.073111	0.416832
Zn7	Zn	0.853107	-0.417940	-0.249805
Zn8	Zn	1.186440	-0.084606	0.083528
Zn9	Zn	1.519773	0.248727	0.416861
Zn10	Zn	0.853089	-0.593555	-0.354539
Zn11	Zn	1.186423	-0.260222	-0.021206
Zn12	Zn	1.519756	0.073111	0.312128
O13	O	0.905474	-0.505730	-0.302196
O14	O	1.238807	-0.172397	0.031138
O15	O	1.572141	0.160937	0.364471
O16	O	1.045548	-0.441145	-0.340746
O17	O	1.378881	-0.107811	-0.007412
O18	O	1.712214	0.225522	0.325921
O19	O	0.943917	-0.570289	-0.162153
O20	O	1.277250	-0.236956	0.171181
O21	O	1.610583	0.096377	0.504514
O22	O	0.867035	-0.270909	-0.263722
O23	O	1.200368	0.062424	0.069611
O24	O	1.533701	0.395757	0.402944
O25	O	1.045508	-0.570221	-0.263772
O26	O	1.378841	-0.236887	0.069562
O27	O	1.712174	0.096446	0.402895
O28	O	0.944009	-0.270857	-0.340717
O29	O	1.277342	0.062476	-0.007384
O30	O	1.610675	0.395809	0.325949
O31	O	0.866982	-0.441265	-0.162131
O32	O	1.200315	-0.107932	0.171202
O33	O	1.533649	0.225402	0.504535
O34	O	0.765426	-0.441265	-0.263659
O35	O	1.098760	-0.107932	0.069674
O36	O	1.432093	0.225402	0.403007
O37	O	0.867005	-0.570220	-0.442226
O38	O	1.200338	-0.236887	-0.108892
O39	O	1.533672	0.096446	0.224441
O40	O	0.765414	-0.570289	-0.340607
O41	O	1.098747	-0.236956	-0.007273
O42	O	1.432080	0.096378	0.326060
O43	O	0.943992	-0.441145	-0.442273
O44	O	1.277325	-0.107811	-0.108940
O45	O	1.610659	0.225522	0.224393
O46	O	0.943900	-0.740576	-0.263709
O47	O	1.277233	-0.407243	0.069625
O48	O	1.610566	-0.073910	0.402958
O49	O	0.866953	-0.740576	-0.340635
O50	O	1.200286	-0.407243	-0.007301
O51	O	1.533619	-0.073910	0.326032
C52	C	0.742686	-0.505785	-0.302123
C53	C	1.076020	-0.172452	0.031210
C54	C	1.409353	0.160881	0.364544
C55	C	0.673045	-0.505834	-0.302107
C56	C	1.006378	-0.172501	0.031226
C57	C	1.339712	0.160832	0.364560
C58	C	0.905436	-0.778697	-0.302182
C59	C	1.238769	-0.445364	0.031152
C60	C	1.572102	-0.112031	0.364485
C61	C	0.905476	-0.895474	-0.302196
C62	C	1.238810	-0.562141	0.031137
C63	C	1.572143	-0.228807	0.364470
C64	C	0.640342	-0.573106	-0.342113
C65	C	0.973675	-0.239773	-0.008780
C66	C	1.307008	0.093560	0.324553
C67	C	0.574906	-0.573081	-0.342141
C68	C	0.908240	-0.239747	-0.008808
C69	C	1.241573	0.093586	0.324525
C70	C	0.542177	-0.505794	-0.302151
C71	C	0.875510	-0.172461	0.031182
C72	C	1.208843	0.160873	0.364515
C73	C	0.574888	-0.438509	-0.262142
C74	C	0.908221	-0.105176	0.071191
C75	C	1.241555	0.228158	0.404525
C76	C	0.640322	-0.438529	-0.262120
C77	C	0.973655	-0.105196	0.071213
C78	C	1.306989	0.228137	0.404547
C79	C	0.438459	-0.497342	-0.245746
C80	C	0.771792	-0.164009	0.087587
C81	C	1.105125	0.169325	0.420921
C82	C	0.373026	-0.497329	-0.245767
C83	C	0.706359	-0.163996	0.087566
C84	C	1.039692	0.169338	0.420900
C85	C	0.340356	-0.505725	-0.302221
C86	C	0.673689	-0.172392	0.031113
C87	C	1.007023	0.160941	0.364446
C88	C	0.373127	-0.514157	-0.358655
C89	C	0.706461	-0.180823	-0.025321
C90	C	1.039794	0.152510	0.308012
C91	C	0.438561	-0.514177	-0.358632
C92	C	0.771895	-0.180844	-0.025299
C93	C	1.105228	0.152490	0.308034
C94	C	0.471224	-0.505764	-0.302172
C95	C	0.804558	-0.172431	0.031162
C96	C	1.137891	0.160903	0.364495
C97	C	0.236700	-0.572973	-0.342261
C98	C	0.570033	-0.239640	-0.008928
C99	C	0.903367	0.093694	0.324406
C100	C	0.171264	-0.572940	-0.342290
C101	C	0.504597	-0.239606	-0.008956
C102	C	0.837930	0.093727	0.324377
C103	C	0.171246	-0.438374	-0.262285
C104	C	0.504580	-0.105041	0.071048
C105	C	0.837913	0.228293	0.404382
C106	C	0.236682	-0.438402	-0.262262
C107	C	0.570015	-0.105068	0.071072
C108	C	0.903348	0.228265	0.404405
C109	C	0.269405	-0.505707	-0.302249
C110	C	0.602738	-0.172373	0.031085
C111	C	0.936071	0.160960	0.364418
C112	C	0.945588	-0.950301	-0.262187
C113	C	1.278922	-0.616968	0.071147
C114	C	1.612255	-0.283634	0.404480
C115	C	0.945629	-1.060025	-0.262208
C116	C	1.278962	-0.726692	0.071126
C117	C	1.612295	-0.393358	0.404459
C118	C	0.865439	-1.060085	-0.342250
C119	C	1.198773	-0.726752	-0.008917
C120	C	1.532106	-0.393418	0.324417
C121	C	0.865403	-0.950363	-0.342232
C122	C	1.198736	-0.617030	-0.008898
C123	C	1.532069	-0.283696	0.324435
C124	C	1.019585	-1.209863	-0.239938
C125	C	1.352919	-0.876530	0.093395
C126	C	1.686252	-0.543196	0.426728
C127	C	1.059692	-1.264694	-0.199919
C128	C	1.393025	-0.931361	0.133415
C129	C	1.726359	-0.598027	0.466748
C130	C	1.069337	-1.229132	-0.138789
C131	C	1.402671	-0.895799	0.194544
C132	C	1.736004	-0.562465	0.527878
C133	C	1.038867	-1.138741	-0.117667
C134	C	1.372201	-0.805408	0.215667
C135	C	1.705534	-0.472075	0.549000
C136	C	0.998756	-1.083916	-0.157683
C137	C	1.332090	-0.750583	0.175650
C138	C	1.665423	-0.417250	0.508984
C139	C	0.989122	-1.119476	-0.218821
C140	C	1.322456	-0.786143	0.114512
C141	C	1.655789	-0.452810	0.447845
C142	C	0.791445	-0.800523	-0.364494
C143	C	1.124779	-0.467190	-0.031161
C144	C	1.458112	-0.133856	0.302172
C145	C	0.751331	-0.745696	-0.404508
C146	C	1.084664	-0.412362	-0.071175
C147	C	1.417997	-0.079029	0.262159
C148	C	0.741678	-0.781255	-0.465639
C149	C	1.075012	-0.447922	-0.132305
C150	C	1.408345	-0.114589	0.201028
C151	C	0.772137	-0.871650	-0.486759
C152	C	1.105471	-0.538316	-0.153426
C153	C	1.438804	-0.204983	0.179908
C154	C	0.812252	-0.926477	-0.446745
C155	C	1.145586	-0.593143	-0.113412
C156	C	1.478919	-0.259810	0.219921
C157	C	0.821905	-0.890910	-0.385615
C158	C	1.155239	-0.557576	-0.052282
C159	C	1.488572	-0.224243	0.281051
C160	C	1.068897	-0.505675	-0.302269
C161	C	1.402231	-0.172341	0.031064
C162	C	1.735564	0.160992	0.364398
C163	C	1.138539	-0.505651	-0.302300
C164	C	1.471872	-0.172318	0.031033
C165	C	1.805205	0.161015	0.364366
C166	C	0.905503	-0.505675	-0.465619
C167	C	1.238836	-0.172341	-0.132286
C168	C	1.572169	0.160992	0.201048
C169	C	0.905515	-0.505651	-0.535260
C170	C	1.238848	-0.172318	-0.201927
C171	C	1.572182	0.161016	0.131406
C172	C	0.905530	-0.231697	-0.302224
C173	C	1.238863	0.101637	0.031110
C174	C	1.572196	0.434970	0.364443
C175	C	0.905553	-0.114920	-0.302236
C176	C	1.238887	0.218413	0.031098
C177	C	1.572220	0.551747	0.364431
C178	C	0.945645	-0.572614	-1.037068
C179	C	1.278978	-0.239280	-0.703735
C180	C	1.612312	0.094053	-0.370402
C181	C	0.945634	-0.572647	-0.971633
C182	C	1.278967	-0.239314	-0.638300
C183	C	1.612300	0.094020	-0.304966
C184	C	0.905575	-0.505484	-0.938899
C185	C	1.238908	-0.172151	-0.605566
C186	C	1.572241	0.161182	-0.272232
C187	C	0.865512	-0.438303	-0.971606
C188	C	1.198846	-0.104969	-0.638272
C189	C	1.532179	0.228364	-0.304939
C190	C	0.865520	-0.438279	-1.037040
C191	C	1.198854	-0.104945	-0.703707
C192	C	1.532187	0.228388	-0.370373
C193	C	0.900634	-0.410868	-0.835238
C194	C	1.233967	-0.077535	-0.501905
C195	C	1.567300	0.255799	-0.168571
C196	C	0.900630	-0.410890	-0.769805
C197	C	1.233963	-0.077557	-0.436472
C198	C	1.567297	0.255776	-0.103138
C199	C	0.905546	-0.505559	-0.737078
C200	C	1.238880	-0.172226	-0.403745
C201	C	1.572213	0.161108	-0.070411
C202	C	0.910479	-0.600208	-0.769792
C203	C	1.243813	-0.266875	-0.436459
C204	C	1.577146	0.066458	-0.103126
C205	C	0.910487	-0.600184	-0.835227
C206	C	1.243821	-0.266851	-0.501893
C207	C	1.577154	0.066482	-0.168560
C208	C	0.905561	-0.505503	-0.867947
C209	C	1.238895	-0.172170	-0.534613
C210	C	1.572228	0.161163	-0.201280
C211	C	0.945591	-0.572778	-0.633427
C212	C	1.278924	-0.239445	-0.300093
C213	C	1.612257	0.093889	0.033240
C214	C	0.945575	-0.572813	-0.567990
C215	C	1.278908	-0.239480	-0.234657
C216	C	1.612242	0.093854	0.098677
C217	C	0.865457	-0.438459	-0.567964
C218	C	1.198790	-0.105126	-0.234631
C219	C	1.532124	0.228207	0.098703
C220	C	0.865469	-0.438434	-0.633399
C221	C	1.198803	-0.105100	-0.300066
C222	C	1.532136	0.228233	0.033267
C223	C	0.905540	-0.505591	-0.666127
C224	C	1.238873	-0.172258	-0.332793
C225	C	1.572206	0.161075	0.000540
C226	C	0.905481	-0.505709	-0.139408
C227	C	1.238815	-0.172376	0.193925
C228	C	1.572148	0.160958	0.527258
C229	C	0.905590	-0.505437	-0.069767
C230	C	1.238924	-0.172103	0.263566
C231	C	1.572257	0.161230	0.596899
H232	H	0.666981	-0.627910	-0.374675
H233	H	1.000314	-0.294577	-0.041342
H234	H	1.333647	0.038757	0.291992
H235	H	0.263309	-0.383627	-0.229681
H236	H	0.596642	-0.050293	0.103652
H237	H	0.929976	0.283040	0.436986
H238	H	0.832812	-1.104789	-0.374844
H239	H	1.166145	-0.771456	-0.041511
H240	H	1.499479	-0.438123	0.291822
C241	C	0.845763	-1.025908	-0.469982
C242	C	1.179097	-0.692575	-0.136649
C243	C	1.512430	-0.359241	0.196684
N244	N	0.871005	-1.100796	-0.487485
N245	N	1.204339	-0.767463	-0.154152
N246	N	1.537672	-0.434130	0.179182
H247	H	0.832895	-0.383620	-0.944949
H248	H	1.166228	-0.050287	-0.611616
H249	H	1.499562	0.283047	-0.278283
H250	H	1.084501	-1.338290	-0.217123
H251	H	1.417834	-1.004957	0.116211
H252	H	1.751168	-0.671623	0.449544
C253	C	1.008982	-1.248986	-0.307186
C254	C	1.342315	-0.915653	0.026147
C255	C	1.675648	-0.582319	0.359481
N256	N	1.000993	-1.278461	-0.357837
N257	N	1.334326	-0.945127	-0.024504
N258	N	1.667660	-0.611794	0.308830
C259	C	0.915886	-0.704353	-0.733798
C260	C	1.249219	-0.371020	-0.400465
C261	C	1.582552	-0.037687	-0.067131
N262	N	0.919958	-0.782792	-0.706684
N263	N	1.253291	-0.449459	-0.373351
N264	N	1.586625	-0.116125	-0.040017
H265	H	0.726533	-0.672087	-0.387308
H266	H	1.059866	-0.338754	-0.053975
H267	H	1.393200	-0.005421	0.279359
H268	H	0.896671	-0.333766	-0.861879
H269	H	1.230005	-0.000433	-0.528545
H270	H	1.563338	0.332901	-0.195212
C271	C	0.915905	-0.704297	-0.871210
C272	C	1.249238	-0.370964	-0.537876
C273	C	1.582572	-0.037631	-0.204543
N274	N	0.919982	-0.782718	-0.898312
N275	N	1.253315	-0.449384	-0.564979
N276	N	1.586649	-0.116051	-0.231645
H277	H	0.832855	-0.383727	-0.660023
H278	H	1.166188	-0.050393	-0.326690
H279	H	1.499522	0.282940	0.006644
H280	H	0.799306	-0.771556	-0.314718
H281	H	1.132639	-0.438222	0.018615
H282	H	1.465973	-0.104889	0.351949
C283	C	0.895203	-0.306775	-0.733826
C284	C	1.228537	0.026558	-0.400492
C285	C	1.561870	0.359892	-0.067159
N286	N	0.891114	-0.228352	-0.706727
N287	N	1.224448	0.104981	-0.373394
N288	N	1.557781	0.438314	-0.040061
H289	H	0.548235	-0.383722	-0.229583
H290	H	0.881569	-0.050389	0.103750
H291	H	1.214902	0.282945	0.437083
C292	C	0.474389	-0.488109	-0.183638
C293	C	0.807722	-0.154776	0.149695
C294	C	1.141055	0.178557	0.483028
N295	N	0.501450	-0.481157	-0.136860
N296	N	0.834784	-0.147824	0.196473
N297	N	1.168117	0.185510	0.529807
H298	H	1.101994	-1.273783	-0.106205
H299	H	1.435327	-0.940449	0.227128
H300	H	1.768661	-0.607116	0.560462
H301	H	0.832903	-0.383573	-1.063663
H302	H	1.166236	-0.050239	-0.730330
H303	H	1.499569	0.283094	-0.396996
H304	H	0.666949	-0.383745	-0.229542
H305	H	1.000282	-0.050412	0.103792
H306	H	1.333615	0.282921	0.437125
C307	C	0.989662	-0.646662	-0.669429
C308	C	1.322995	-0.313329	-0.336096
C309	C	1.656329	0.020004	-0.002762
N310	N	1.022856	-0.702315	-0.696544
N311	N	1.356189	-0.368982	-0.363211
N312	N	1.689523	-0.035648	-0.029878
H313	H	0.346348	-0.490470	-0.199815
H314	H	0.679682	-0.157137	0.133518
H315	H	1.013015	0.176196	0.466852
C316	C	0.821389	-0.364582	-0.531960
C317	C	1.154723	-0.031249	-0.198627
C318	C	1.488056	0.302084	0.134706
N319	N	0.788195	-0.308939	-0.504839
N320	N	1.121529	0.024395	-0.171506
N321	N	1.454862	0.357728	0.161828
H322	H	0.548274	-0.627861	-0.374722
H323	H	0.881607	-0.294528	-0.041388
H324	H	1.214941	0.038806	0.291945
C325	C	0.697547	-0.720942	-0.509652
C326	C	1.030881	-0.387608	-0.176319
C327	C	1.364214	-0.054275	0.157014
N328	N	0.664310	-0.675515	-0.542804
N329	N	0.997644	-0.342182	-0.209471
N330	N	1.330977	-0.008848	0.123862
H331	H	0.764279	-0.900603	-0.536537
H332	H	1.097612	-0.567270	-0.203204
H333	H	1.430945	-0.233936	0.130130
H334	H	0.978189	-0.627526	-0.541368
H335	H	1.311522	-0.294193	-0.208034
H336	H	1.644856	0.039140	0.125299
H337	H	0.346529	-0.520992	-0.404625
H338	H	0.679862	-0.187659	-0.071291
H339	H	1.013196	0.145675	0.262042
C340	C	0.989674	-0.889927	-0.218150
C341	C	1.323007	-0.556593	0.115183
C342	C	1.656341	-0.223260	0.448517
N343	N	1.022882	-0.844456	-0.184982
N344	N	1.356215	-0.511122	0.148351
N345	N	1.689549	-0.177789	0.481685
H346	H	0.144638	-0.627719	-0.374872
H347	H	0.477971	-0.294385	-0.041538
H348	H	0.811304	0.038948	0.291795
H349	H	0.978271	-0.627302	-1.063711
H350	H	1.311605	-0.293968	-0.730378
H351	H	1.644938	0.039365	-0.397044
C352	C	0.272698	-0.646997	-0.386254
C353	C	0.606031	-0.313664	-0.052921
C354	C	0.939364	0.019669	0.280413
N355	N	0.299809	-0.702751	-0.419392
N356	N	0.633142	-0.369417	-0.086058
N357	N	0.966476	-0.036084	0.247275
H358	H	0.978260	-0.627339	-0.945004
H359	H	1.311593	-0.294005	-0.611671
H360	H	1.644927	0.039328	-0.278338
H361	H	0.144599	-0.383583	-0.229728
H362	H	0.477932	-0.050250	0.103606
H363	H	0.811265	0.283084	0.436939
C364	C	0.965244	-0.984487	-0.134453
C365	C	1.298577	-0.651154	0.198880
C366	C	1.631911	-0.317821	0.532214
N367	N	0.940007	-0.909591	-0.116956
N368	N	1.273340	-0.576258	0.216377
N369	N	1.606674	-0.242924	0.549711
C370	C	0.474607	-0.523450	-0.420708
C371	C	0.807941	-0.190117	-0.087375
C372	C	1.141274	0.143217	0.245958
N373	N	0.501757	-0.530433	-0.467465
N374	N	0.835090	-0.197100	-0.134132
N375	N	1.168424	0.136234	0.199202
H376	H	1.046719	-1.109800	-0.067886
H377	H	1.380053	-0.776467	0.265447
H378	H	1.713386	-0.443134	0.598781
