data_functionalizedCrystal
_audit_creation_method	'MofGen! by Chris Wilmer'
_symmetry_space_group_name_H-M	'P1'
_symmetry_Int_Tables_number	1
_symmetry_cell_setting	triclinic
loop_
_symmetry_equiv_pos_as_xyz
  x,y,z
_cell_length_a	19.288864
_cell_length_b	12.784905
_cell_length_c	18.366186
_cell_angle_alpha	89.994468
_cell_angle_beta	89.977106
_cell_angle_gamma	78.121783
loop_
_atom_site_label
_atom_site_type_symbol
_atom_site_fract_x
_atom_site_fract_y
_atom_site_fract_z
O1	O	0.913613	0.132632	-0.060779
O2	O	1.413613	0.632632	0.439221
O3	O	0.710309	0.150524	-0.060728
O4	O	1.210309	0.650524	0.439272
O5	O	0.826838	-0.013221	-0.060755
O6	O	1.326838	0.486779	0.439245
O7	O	0.797084	0.296376	-0.060752
O8	O	1.297084	0.796376	0.439248
O9	O	0.826821	-0.013229	0.060344
O10	O	1.326821	0.486771	0.560344
O11	O	0.710291	0.150516	0.060371
O12	O	1.210291	0.650516	0.560371
O13	O	0.913596	0.132624	0.060321
O14	O	1.413596	0.632624	0.560321
Zn15	Zn	0.811941	0.141568	0.079573
Zn16	Zn	1.311941	0.641568	0.579573
Zn17	Zn	0.811964	0.141579	-0.079981
Zn18	Zn	1.311964	0.641579	0.420019
O19	O	0.797066	0.296368	0.060347
O20	O	1.297066	0.796368	0.560347
C21	C	0.684457	0.149944	-0.000172
C22	C	1.184457	0.649944	0.499828
C23	C	0.607454	0.148216	-0.000153
C24	C	1.107454	0.648216	0.499847
C25	C	0.557152	0.244294	-0.000164
C26	C	1.057152	0.744294	0.499836
C27	C	0.484799	0.242670	-0.000172
C28	C	0.984799	0.742670	0.499828
C29	C	0.462753	0.144963	-0.000184
C30	C	0.962753	0.644963	0.499816
C31	C	0.513066	0.048873	-0.000170
C32	C	1.013066	0.548873	0.499830
C33	C	0.585417	0.050499	-0.000154
C34	C	1.085417	0.550499	0.499846
C35	C	0.358979	0.068157	-0.042636
C36	C	0.858979	0.568157	0.457364
C37	C	0.286629	0.066535	-0.042656
C38	C	0.786629	0.566535	0.457344
C39	C	0.239600	0.139943	-0.000228
C40	C	0.739600	0.639943	0.499772
C41	C	0.264928	0.214991	0.042210
C42	C	0.764928	0.714991	0.542210
C43	C	0.337278	0.216618	0.042225
C44	C	0.837278	0.716618	0.542225
C45	C	0.384303	0.143189	-0.000200
C46	C	0.884303	0.643189	0.499800
C47	C	0.110844	0.234267	-0.000246
C48	C	0.610844	0.734267	0.499754
C49	C	0.038491	0.232639	-0.000250
C50	C	0.538491	0.732639	0.499750
C51	C	0.066760	0.038839	-0.000255
C52	C	0.566760	0.538839	0.499745
C53	C	0.139111	0.040470	-0.000244
C54	C	0.639111	0.540470	0.499756
C55	C	0.161149	0.138186	-0.000243
C56	C	0.661149	0.638186	0.499757
C57	C	0.828765	-0.052834	-0.000207
C58	C	1.328765	0.447166	0.499793
C59	C	0.834523	-0.170855	-0.000212
C60	C	1.334523	0.329145	0.499788
C61	C	0.717213	-0.366677	-0.000175
C62	C	1.217213	0.133323	0.499825
C63	C	0.722619	-0.477568	-0.000180
C64	C	1.222619	0.022432	0.499820
C65	C	0.850742	-0.503529	-0.000219
C66	C	1.350742	-0.003529	0.499781
C67	C	0.845335	-0.392639	-0.000215
C68	C	1.345335	0.107361	0.499785
C69	C	0.778568	-0.324216	-0.000194
C70	C	1.278568	0.175784	0.499806
C71	C	0.773162	-0.213323	-0.000195
C72	C	1.273162	0.286677	0.499805
C73	C	0.901284	-0.239286	-0.000229
C74	C	1.401284	0.260714	0.499771
C75	C	0.906691	-0.350177	-0.000234
C76	C	1.406691	0.149823	0.499766
C77	C	0.939447	0.133203	-0.000237
C78	C	1.439447	0.633203	0.499763
C79	C	1.016450	0.134932	-0.000261
C80	C	1.516450	0.634932	0.499739
C81	C	0.795140	0.335981	-0.000202
C82	C	1.295140	0.835981	0.499798
C83	C	0.789382	0.454002	-0.000203
C84	C	1.289382	0.954002	0.499797
N85	N	0.811930	0.141561	0.188464
N86	N	1.311930	0.641561	0.688464
N87	N	0.811981	0.141578	-0.188872
N88	N	1.311981	0.641578	0.311128
C89	C	0.863542	0.069090	0.226552
C90	C	1.363542	0.569090	0.726552
C91	C	0.863547	0.069085	0.302780
C92	C	1.363547	0.569085	0.802780
C93	C	0.811945	0.141569	0.340917
C94	C	1.311945	0.641569	0.840917
C95	C	0.760323	0.214045	0.302819
C96	C	1.260323	0.714045	0.802819
C97	C	0.760315	0.214041	0.226593
C98	C	1.260315	0.714041	0.726593
C99	C	0.796994	0.238443	0.461679
C100	C	1.296994	0.738443	0.961679
C101	C	0.797006	0.238449	0.537904
C102	C	1.297006	0.738449	1.037904
C103	C	0.811964	0.141583	0.576024
C104	C	1.311964	0.641583	1.076024
C105	C	0.826924	0.044706	0.537910
C106	C	1.326924	0.544706	1.037910
C107	C	0.826917	0.044702	0.461683
C108	C	1.326917	0.544702	0.961683
C109	C	0.811947	0.141582	0.423571
C110	C	1.311947	0.641582	0.923571
C111	C	0.863584	0.069101	0.696768
C112	C	1.363584	0.569101	1.196768
C113	C	0.863584	0.069095	0.772997
C114	C	1.363584	0.569095	1.272997
C115	C	0.760363	0.214064	0.773034
C116	C	1.260363	0.714064	1.273034
C117	C	0.760360	0.214061	0.696806
C118	C	1.260360	0.714061	1.196806
C119	C	0.811974	0.141581	0.658678
C120	C	1.311974	0.641581	1.158678
H121	H	0.048811	-0.040716	-0.000310
H122	H	0.548811	0.459284	0.499690
H123	H	-0.002466	0.310881	-0.000254
H124	H	0.497534	0.810881	0.499746
H125	H	0.905568	0.010070	0.195510
H126	H	1.405568	0.510070	0.695510
H127	H	0.357897	0.277721	0.076782
H128	H	0.857897	0.777721	0.576782
H129	H	0.266014	0.005431	-0.077214
H130	H	0.766014	0.505431	0.422786
N131	N	0.580918	0.349685	-0.000146
N132	N	1.080918	0.849685	0.499854
H133	H	0.634385	0.336141	-0.000133
H134	H	1.134385	0.836141	0.499867
H135	H	0.562126	0.391720	-0.045040
H136	H	1.062126	0.891720	0.454960
H137	H	0.718345	0.273078	0.804084
H138	H	1.218345	0.773078	1.304084
N139	N	0.780864	0.342931	0.579009
N140	N	1.280864	0.842931	1.079009
H141	H	0.822677	0.349092	0.610611
H142	H	1.322677	0.849092	1.110611
H143	H	0.771361	0.404229	0.543248
H144	H	1.271361	0.904229	1.043248
N145	N	0.409699	-0.011028	-0.088399
N146	N	0.909699	0.488972	0.411601
H147	H	0.395694	-0.001401	-0.141341
H148	H	0.895694	0.498599	0.358659
H149	H	0.459357	0.001428	-0.081888
H150	H	0.959357	0.501428	0.418112
H151	H	0.839096	-0.034178	0.430654
H152	H	1.339096	0.465822	0.930654
N153	N	0.214214	0.294180	0.087971
N154	N	0.714214	0.794180	0.587971
H155	H	0.164537	0.281763	0.081526
H156	H	0.664537	0.781763	0.581526
H157	H	0.228283	0.284524	0.140893
H158	H	0.728283	0.784524	0.640893
H159	H	0.128788	0.313834	-0.000235
H160	H	0.628788	0.813834	0.499765
H161	H	0.839104	-0.034171	0.568945
H162	H	1.339104	0.465829	1.068945
H163	H	0.905578	0.010069	0.333798
H164	H	1.405578	0.510069	0.833798
N165	N	0.701152	-0.139524	-0.000154
N166	N	1.201152	0.360476	0.499846
H167	H	0.707035	-0.062831	-0.000152
H168	H	1.207035	0.437169	0.499848
H169	H	0.674117	-0.153225	-0.045033
H170	H	1.174117	0.346775	0.454967
N171	N	0.430530	0.346298	-0.000194
N172	N	0.930530	0.846298	0.499806
H173	H	0.399853	0.349948	0.044689
H174	H	0.899853	0.849948	0.544689
H175	H	0.455521	0.408388	-0.000219
H176	H	0.955521	0.908388	0.499781
H177	H	0.905100	-0.559257	-0.000227
H178	H	1.405100	-0.059257	0.499773
H179	H	0.495112	-0.030681	-0.000190
H180	H	0.995112	0.469319	0.499810
H181	H	0.626375	-0.027742	-0.000146
H182	H	1.126375	0.472258	0.499854
N183	N	0.645210	-0.292859	-0.000156
N184	N	1.145210	0.207141	0.499844
H185	H	0.618148	-0.306467	-0.045041
H186	H	1.118148	0.193533	0.454959
H187	H	0.618194	-0.306516	0.044772
H188	H	1.118194	0.193484	0.544772
N189	N	0.919229	-0.009108	0.655639
N190	N	1.419229	0.490892	1.155639
H191	H	0.911391	0.001882	0.601570
H192	H	1.411391	0.501882	1.101570
H193	H	0.967780	0.002953	0.668928
H194	H	1.467780	0.502953	1.168928
H195	H	0.180070	-0.037768	-0.000240
H196	H	0.680070	0.462232	0.499760
N197	N	0.919265	-0.009056	0.814082
N198	N	1.419265	0.490944	1.314082
H199	H	0.951965	-0.054960	0.778358
H200	H	1.451965	0.445040	1.278358
H201	H	0.947508	0.031560	0.845683
H202	H	1.447508	0.531560	1.345683
N203	N	0.978700	-0.423977	-0.000249
N204	N	1.478700	0.076023	0.499751
H205	H	0.972817	-0.500670	-0.000247
H206	H	1.472817	-0.000670	0.499753
H207	H	1.005734	-0.410259	-0.045150
H208	H	1.505734	0.089741	0.454850
H209	H	0.672657	-0.512135	-0.000161
H210	H	1.172657	-0.012135	0.499839
H211	H	0.718335	0.273078	0.665793
H212	H	1.218335	0.773078	1.165793
H213	H	0.784801	0.317328	0.430649
H214	H	1.284801	0.817328	0.930649
N215	N	0.704662	0.292220	0.343946
N216	N	1.204662	0.792220	0.843946
H217	H	0.712499	0.281229	0.398016
H218	H	1.212499	0.781229	0.898016
H219	H	0.708124	0.367615	0.330611
H220	H	1.208124	0.867615	0.830611
N221	N	0.967467	-0.193491	-0.000259
N222	N	1.467467	0.306509	0.499741
H223	H	0.953913	-0.112859	-0.000257
H224	H	1.453913	0.387141	0.499743
H225	H	0.996386	-0.218545	0.044623
H226	H	1.496386	0.281455	0.544623
N227	N	0.704643	0.292205	0.185506
N228	N	1.204643	0.792205	0.685506
H229	H	0.671950	0.338122	0.221229
H230	H	1.171950	0.838122	0.721229
H231	H	0.728394	0.339107	0.153862
H232	H	1.228394	0.839107	0.653862
