data_functionalizedCrystal
_audit_creation_method	'MofGen! by Chris Wilmer'
_symmetry_space_group_name_H-M	'P1'
_symmetry_Int_Tables_number	1
_symmetry_cell_setting	triclinic
loop_
_symmetry_equiv_pos_as_xyz
  x,y,z
_cell_length_a	19.188905
_cell_length_b	23.532407
_cell_length_c	18.266242
_cell_angle_alpha	89.988983
_cell_angle_beta	89.983837
_cell_angle_gamma	82.991616
loop_
_atom_site_label
_atom_site_type_symbol
_atom_site_fract_x
_atom_site_fract_y
_atom_site_fract_z
O1	O	0.925934	0.071034	-0.061009
O2	O	0.722589	0.080620	-0.060985
O3	O	0.830393	-0.007092	-0.060984
O4	O	0.818130	0.158746	-0.061010
O5	O	0.830375	-0.007096	0.060778
O6	O	0.722571	0.080616	0.060777
O7	O	0.925916	0.071030	0.060753
Zn8	Zn	0.824240	0.075822	0.080097
Zn9	Zn	0.824264	0.075828	-0.080329
O10	O	0.818112	0.158742	0.060752
C11	C	0.696570	0.080310	-0.000101
C12	C	0.619067	0.079385	-0.000091
C13	C	0.830072	-0.028311	-0.000101
C14	C	0.829133	-0.091530	-0.000096
C15	C	0.582687	0.078944	-0.066465
C16	C	0.509866	0.078068	-0.066474
C17	C	0.473430	0.077623	-0.000105
C18	C	0.509819	0.078068	0.066278
C19	C	0.582638	0.078949	0.066285
N20	N	0.364511	0.043829	0.049292
N21	N	0.295336	0.042991	0.049281
C22	C	0.254032	0.074970	-0.000122
N23	N	0.284517	0.107812	-0.049525
N24	N	0.353698	0.108648	-0.049516
C25	C	0.394471	0.076668	-0.000105
C26	C	0.138691	0.073580	-0.066511
C27	C	0.065868	0.072709	-0.066517
C28	C	0.065824	0.072703	0.066237
C29	C	0.138644	0.073580	0.066241
C30	C	0.175074	0.074016	-0.000135
C31	C	0.887040	-0.490514	-0.000143
C32	C	0.886168	-0.549916	-0.000148
O33	O	0.939848	-0.586551	-0.000181
N34	N	0.822078	-0.572674	-0.000140
C35	C	0.758857	-0.536026	-0.000134
O36	O	0.704264	-0.560837	-0.000128
C37	C	0.759730	-0.476625	-0.000134
C38	C	0.823824	-0.453871	-0.000134
C39	C	0.951129	-0.467759	-0.000144
C40	C	0.952000	-0.408362	-0.000137
C41	C	0.888784	-0.371718	-0.000129
C42	C	0.824696	-0.394473	-0.000127
C43	C	0.696509	-0.439978	-0.000133
C44	C	0.697388	-0.380574	-0.000133
C45	C	0.761482	-0.357820	-0.000134
C46	C	0.762351	-0.298432	-0.000112
N47	N	0.826440	-0.275674	-0.000120
C48	C	0.889657	-0.312317	-0.000129
C49	C	0.757029	-0.660772	-0.000136
C50	C	0.756155	-0.720172	-0.000131
C51	C	0.883466	-0.734058	-0.000146
C52	C	0.884339	-0.674657	-0.000146
C53	C	0.821118	-0.638014	-0.000144
C54	C	0.891483	-0.187577	-0.000114
C55	C	0.892350	-0.128173	-0.000104
C56	C	0.765039	-0.114292	-0.000092
C57	C	0.764172	-0.173691	-0.000098
C58	C	0.827400	-0.210332	-0.000111
O59	O	0.708699	-0.261762	-0.000082
O60	O	0.944241	-0.287498	-0.000144
C61	C	0.951935	0.071340	-0.000133
C62	C	1.029437	0.072265	-0.000147
C63	C	0.818433	0.179961	-0.000132
C64	C	0.819372	0.243180	-0.000143
N65	N	0.824229	0.075818	0.189584
N66	N	0.824281	0.075828	-0.189816
C67	C	0.871980	0.036998	0.227893
C68	C	0.871985	0.036995	0.304538
C69	C	0.824245	0.075822	0.342871
C70	C	0.776485	0.114645	0.304553
C71	C	0.776477	0.114643	0.227909
N72	N	0.815008	0.126238	0.463197
N73	N	0.815020	0.126238	0.536005
C74	C	0.824264	0.075830	0.573794
N75	N	0.833511	0.025420	0.536024
N76	N	0.833503	0.025421	0.463209
C77	C	0.824248	0.075829	0.425978
C78	C	0.872023	0.037004	0.695210
C79	C	0.872022	0.037001	0.771856
C80	C	0.776526	0.114656	0.771869
C81	C	0.776523	0.114654	0.695224
C82	C	0.824275	0.075829	0.656899
H83	H	0.612344	0.079299	-0.120514
O84	O	0.730014	0.152305	0.341754
C85	C	0.660965	0.143197	0.323045
H86	H	0.660943	0.097599	0.301990
H87	H	0.640229	0.174805	0.278557
C88	C	0.613604	0.208149	0.417009
C89	C	0.613577	0.152143	0.391154
H90	H	0.584372	0.213669	0.459020
H91	H	0.660124	0.214287	0.429612
H92	H	0.596326	0.234482	0.379929
H93	H	0.630863	0.125811	0.428231
H94	H	0.567059	0.146000	0.378559
O95	O	1.012496	-0.503408	-0.000054
C96	C	1.015804	-0.538181	0.063018
H97	H	0.960404	-0.541061	0.084045
H98	H	1.047538	-0.518714	0.107174
C99	C	1.119429	-0.595032	0.018037
C100	C	1.051385	-0.598574	0.043859
H101	H	1.141380	-0.632284	0.006221
H102	H	1.117203	-0.571604	-0.024454
H103	H	1.145865	-0.578807	0.054838
H104	H	1.024948	-0.614791	0.007055
H105	H	1.053608	-0.622006	0.086344
H106	H	0.737652	0.146268	0.803079
H107	H	0.910861	0.005383	0.196691
H108	H	0.705543	-0.630940	-0.000127
H109	H	0.036248	0.072352	-0.120569
O110	O	0.730240	0.152395	0.657928
C111	C	0.767384	0.187461	0.613585
H112	H	0.822172	0.164661	0.602087
H113	H	0.771839	0.229541	0.643112
C114	C	0.660636	0.227722	0.554917
C115	C	0.727927	0.199717	0.540790
H116	H	0.636296	0.235285	0.510015
H117	H	0.635610	0.204100	0.584793
H118	H	0.664358	0.262786	0.579525
H119	H	0.724203	0.164651	0.516191
H120	H	0.752951	0.223334	0.510907
H121	H	0.612258	0.079310	0.120337
H122	H	0.942970	-0.217404	-0.000127
H123	H	0.480239	0.077709	-0.120526
H124	H	0.737591	0.146255	0.196717
H125	H	0.936530	-0.656135	-0.000147
O126	O	1.014323	-0.386357	-0.000176
C127	C	1.069924	-0.431447	-0.000168
H128	H	1.050634	-0.471747	-0.023218
H129	H	1.089396	-0.439911	0.058244
C130	C	1.154106	-0.365330	-0.019617
C131	C	1.130416	-0.414826	-0.047933
H132	H	1.191422	-0.355077	-0.049078
H133	H	1.116648	-0.334952	-0.019620
H134	H	1.170328	-0.372390	0.029059
H135	H	1.114187	-0.407763	-0.096605
H136	H	1.167874	-0.445203	-0.047939
H137	H	0.910871	0.005382	0.335735
H138	H	0.480148	0.077708	0.120316
O139	O	0.918428	-0.000768	0.658089
C140	C	0.960584	-0.035028	0.708342
H141	H	0.931967	-0.035611	0.762987
H142	H	1.012321	-0.016645	0.716469
C143	C	1.010547	-0.095781	0.611324
C144	C	0.975397	-0.096501	0.678438
H145	H	1.019689	-0.133699	0.592877
H146	H	0.982149	-0.072698	0.577467
H147	H	1.053658	-0.080459	0.618106
H148	H	0.932284	-0.111815	0.671654
H149	H	1.003790	-0.119588	0.712293
H150	H	0.644318	-0.458493	-0.000137
O151	O	0.918315	-0.000768	0.809104
C152	C	0.881180	-0.035821	0.853474
H153	H	0.826125	-0.036673	0.830399
H154	H	0.877399	-0.017990	0.911558
C155	C	0.987714	-0.096001	0.882992
C156	C	0.920096	-0.097051	0.854647
H157	H	1.011720	-0.133770	0.883719
H158	H	1.012733	-0.072385	0.853102
H159	H	0.984553	-0.081140	0.931393
H160	H	0.923257	-0.111906	0.806244
H161	H	0.895078	-0.120672	0.884530
H162	H	0.168353	0.073941	-0.120558
H163	H	0.036158	0.072344	0.120276
O164	O	0.635909	-0.345061	-0.000098
C165	C	0.579158	-0.377888	-0.000118
H166	H	0.597196	-0.422270	0.022930
H167	H	0.559507	-0.382061	-0.058534
C168	C	0.497191	-0.293644	0.019327
C169	C	0.519344	-0.348154	0.047641
H170	H	0.460294	-0.275303	0.048784
H171	H	0.535425	-0.271528	0.019338
H172	H	0.480820	-0.297130	-0.029352
H173	H	0.535723	-0.344668	0.096316
H174	H	0.481112	-0.370270	0.047640
O175	O	0.173886	0.073976	0.130784
C176	C	0.126112	0.073411	0.189363
H177	H	0.077231	0.054758	0.169902
H178	H	0.110709	0.118996	0.209765
C179	C	0.220802	0.059322	0.275982
C180	C	0.160767	0.036407	0.252081
H181	H	0.242179	0.036499	0.314671
H182	H	0.252988	0.059705	0.236516
H183	H	0.207957	0.097309	0.292978
H184	H	0.173614	-0.001576	0.235077
H185	H	0.128584	0.036017	0.291545
H186	H	0.703964	-0.738692	-0.000117
O187	O	0.954552	-0.105976	-0.000076
C188	C	0.941773	-0.045689	-0.000087
H189	H	0.887184	-0.031609	0.022974
H190	H	0.945045	-0.029151	-0.058502
C191	C	1.064178	-0.038489	0.019334
C192	C	0.997134	-0.021196	0.047664
H193	H	1.098329	-0.023380	0.048785
H194	H	1.072789	-0.079105	0.019338
H195	H	1.066895	-0.024706	-0.029345
H196	H	0.994415	-0.034985	0.096337
H197	H	0.988525	0.019419	0.047668
H198	H	0.934940	-0.763904	-0.000156
H199	H	0.711982	-0.192218	-0.000077
O200	O	0.703697	-0.078610	-0.000118
C201	C	0.718219	-0.021304	-0.000097
H202	H	0.773051	-0.019162	-0.023149
H203	H	0.715437	-0.004127	0.058319
C204	C	0.596425	0.012566	-0.019534
C205	C	0.663768	0.015197	-0.047853
H206	H	0.562835	0.035083	-0.048989
H207	H	0.586640	-0.026041	-0.019545
H208	H	0.594117	0.026880	0.029145
H209	H	0.666077	0.000877	-0.096528
H210	H	0.673551	0.053804	-0.047851
