data_functionalizedCrystal
_audit_creation_method	'MofGen! by Chris Wilmer'
_symmetry_space_group_name_H-M	'P1'
_symmetry_Int_Tables_number	1
_symmetry_cell_setting	triclinic
loop_
_symmetry_equiv_pos_as_xyz
  x,y,z
_cell_length_a	16.120490
_cell_length_b	16.120484
_cell_length_c	13.033109
_cell_angle_alpha	79.614285
_cell_angle_beta	99.697676
_cell_angle_gamma	90.164100
loop_
_atom_site_label
_atom_site_type_symbol
_atom_site_fract_x
_atom_site_fract_y
_atom_site_fract_z
Zn1	Zn	1.322070	-0.470475	0.704627
Zn2	Zn	1.572070	-0.220475	0.954627
Zn3	Zn	1.822070	0.029525	1.204627
Zn4	Zn	2.072070	0.279525	1.454627
Zn5	Zn	1.298746	-0.591644	0.536093
Zn6	Zn	1.548746	-0.341644	0.786093
Zn7	Zn	1.798746	-0.091644	1.036093
Zn8	Zn	2.048746	0.158356	1.286093
Zn9	Zn	1.165129	-0.443648	0.518236
Zn10	Zn	1.415129	-0.193648	0.768236
Zn11	Zn	1.665129	0.056352	1.018236
Zn12	Zn	1.915129	0.306352	1.268236
Zn13	Zn	1.175829	-0.602317	0.703662
Zn14	Zn	1.425829	-0.352317	0.953662
Zn15	Zn	1.675829	-0.102317	1.203662
Zn16	Zn	1.925829	0.147683	1.453662
O17	O	1.240443	-0.527021	0.615655
O18	O	1.490443	-0.277021	0.865655
O19	O	1.740443	-0.027021	1.115655
O20	O	1.990443	0.222979	1.365655
O21	O	1.436097	-0.493308	0.690147
O22	O	1.686097	-0.243308	0.940147
O23	O	1.936097	0.006692	1.190147
O24	O	2.186097	0.256692	1.440147
O25	O	1.266782	-0.556318	0.385590
O26	O	1.516782	-0.306318	0.635590
O27	O	1.766782	-0.056318	0.885590
O28	O	2.016782	0.193682	1.135590
O29	O	1.191230	-0.330093	0.535892
O30	O	1.441230	-0.080093	0.785892
O31	O	1.691230	0.169907	1.035892
O32	O	1.941230	0.419907	1.285892
O33	O	1.418961	-0.582330	0.566326
O34	O	1.668961	-0.332330	0.816326
O35	O	1.918961	-0.082330	1.066326
O36	O	2.168961	0.167670	1.316326
O37	O	1.306534	-0.349803	0.672832
O38	O	1.556534	-0.099803	0.922832
O39	O	1.806534	0.150197	1.172832
O40	O	2.056534	0.400197	1.422832
O41	O	1.168614	-0.447586	0.372471
O42	O	1.418614	-0.197586	0.622471
O43	O	1.668614	0.052414	0.872471
O44	O	1.918614	0.302414	1.122471
O45	O	1.049427	-0.457936	0.534956
O46	O	1.299427	-0.207936	0.784956
O47	O	1.549427	0.042064	1.034956
O48	O	1.799427	0.292064	1.284956
O49	O	1.209468	-0.600522	0.851924
O50	O	1.459468	-0.350522	1.101924
O51	O	1.709468	-0.100522	1.351924
O52	O	1.959468	0.149478	1.601924
O53	O	1.057289	-0.574509	0.671188
O54	O	1.307289	-0.324509	0.921188
O55	O	1.557289	-0.074509	1.171188
O56	O	1.807289	0.175491	1.421188
O57	O	1.316910	-0.503658	0.852633
O58	O	1.566910	-0.253658	1.102633
O59	O	1.816910	-0.003658	1.352633
O60	O	2.066910	0.246342	1.602633
O61	O	1.277157	-0.710173	0.565391
O62	O	1.527157	-0.460173	0.815391
O63	O	1.777157	-0.210173	1.065391
O64	O	2.027157	0.039827	1.315391
O65	O	1.186851	-0.718015	0.688503
O66	O	1.436851	-0.468015	0.938503
O67	O	1.686851	-0.218015	1.188503
O68	O	1.936851	0.031985	1.438503
C69	C	1.022990	-0.514470	0.601031
C70	C	1.272990	-0.264470	0.851031
C71	C	1.522990	-0.014470	1.101031
C72	C	1.772990	0.235530	1.351031
C73	C	0.929963	-0.509124	0.594801
C74	C	1.179963	-0.259124	0.844801
C75	C	1.429963	-0.009124	1.094801
C76	C	1.679963	0.240876	1.344801
C77	C	1.230659	-0.744464	0.628805
C78	C	1.480659	-0.494464	0.878805
C79	C	1.730659	-0.244464	1.128805
C80	C	1.980659	0.005536	1.378805
C81	C	1.226554	-0.837495	0.634471
C82	C	1.476554	-0.587495	0.884471
C83	C	1.726554	-0.337495	1.134471
C84	C	1.976554	-0.087495	1.384471
C85	C	0.722094	-0.554747	0.647971
C86	C	0.972094	-0.304747	0.897971
C87	C	1.222094	-0.054747	1.147971
C88	C	1.472094	0.195253	1.397971
C89	C	0.759649	-0.499371	0.583426
C90	C	1.009649	-0.249371	0.833426
C91	C	1.259649	0.000629	1.083426
C92	C	1.509649	0.250629	1.333426
C93	C	0.854421	-0.504799	0.589757
C94	C	1.104421	-0.254799	0.839757
C95	C	1.354421	-0.004799	1.089757
C96	C	1.604421	0.245201	1.339757
C97	C	0.627314	-0.549319	0.641641
C98	C	0.877314	-0.299319	0.891641
C99	C	1.127314	-0.049319	1.141641
C100	C	1.377314	0.200681	1.391641
C101	C	1.219065	-1.007826	0.644838
C102	C	1.469065	-0.757826	0.894838
C103	C	1.719065	-0.507826	1.144838
C104	C	1.969065	-0.257826	1.394838
C105	C	1.261973	-1.045386	0.586499
C106	C	1.511973	-0.795386	0.836499
C107	C	1.761973	-0.545386	1.086499
C108	C	2.011973	-0.295386	1.336499
C109	C	1.257807	-1.140164	0.592267
C110	C	1.507807	-0.890164	0.842267
C111	C	1.757807	-0.640164	1.092267
C112	C	2.007807	-0.390164	1.342267
C113	C	1.223231	-0.913039	0.639071
C114	C	1.473231	-0.663039	0.889071
C115	C	1.723231	-0.413039	1.139071
C116	C	1.973231	-0.163039	1.389071
C117	C	1.458746	-0.539621	0.630336
C118	C	1.708746	-0.289621	0.880336
C119	C	1.958746	-0.039621	1.130336
C120	C	2.208746	0.210379	1.380336
C121	C	1.551774	-0.544990	0.636593
C122	C	1.801774	-0.294990	0.886593
C123	C	2.051774	-0.044990	1.136593
C124	C	2.301774	0.205010	1.386593
C125	C	1.266984	-0.556273	0.891762
C126	C	1.516984	-0.306273	1.141762
C127	C	1.766984	-0.056273	1.391762
C128	C	2.016984	0.193727	1.641762
C129	C	1.278294	-0.568739	1.009422
C130	C	1.528294	-0.318739	1.259422
C131	C	1.778294	-0.068739	1.509422
C132	C	2.028294	0.181261	1.759422
C133	C	1.250290	-0.308733	0.602478
C134	C	1.500290	-0.058733	0.852478
C135	C	1.750290	0.191267	1.102478
C136	C	2.000290	0.441267	1.352478
C137	C	1.254487	-0.215711	0.596863
C138	C	1.504487	0.034289	0.846863
C139	C	1.754487	0.284289	1.096863
C140	C	2.004487	0.534289	1.346863
C141	C	1.214056	-0.497825	0.340621
C142	C	1.464056	-0.247825	0.590621
C143	C	1.714056	0.002175	0.840621
C144	C	1.964056	0.252175	1.090621
C145	C	1.202919	-0.485133	0.222958
C146	C	1.452919	-0.235133	0.472958
C147	C	1.702919	0.014867	0.722958
C148	C	1.952919	0.264867	0.972958
C149	C	1.234765	-0.520498	1.055388
C150	C	1.484765	-0.270498	1.305388
C151	C	1.734765	-0.020498	1.555388
C152	C	1.984765	0.229502	1.805388
C153	C	1.246454	-0.533380	1.176996
C154	C	1.496454	-0.283380	1.426996
C155	C	1.746454	-0.033380	1.676996
C156	C	1.996454	0.216620	1.926996
H157	H	0.761116	-0.606229	0.707979
H158	H	1.011116	-0.356229	0.957979
H159	H	1.261116	-0.106229	1.207979
H160	H	1.511116	0.143771	1.457979
H161	H	1.301837	-1.006361	0.532220
H162	H	1.551837	-0.756361	0.782220
H163	H	1.801837	-0.506361	1.032220
H164	H	2.051837	-0.256361	1.282220
H165	H	1.188842	-0.469663	1.004711
H166	H	1.438842	-0.219663	1.254711
H167	H	1.688842	0.030337	1.504711
H168	H	1.938842	0.280337	1.754711
N169	N	0.707965	-0.431170	0.503928
N170	N	0.957965	-0.181170	0.753928
N171	N	1.207965	0.068830	1.003928
N172	N	1.457965	0.318830	1.253928
H173	H	0.646608	-0.436911	0.510615
H174	H	0.896608	-0.186911	0.760615
H175	H	1.146608	0.063089	1.010615
H176	H	1.396608	0.313089	1.260615
H177	H	0.715329	-0.436951	0.430080
H178	H	0.965329	-0.186951	0.680080
H179	H	1.215329	0.063049	0.930080
H180	H	1.465329	0.313049	1.180080
N181	N	1.166258	-1.059507	0.716729
N182	N	1.416258	-0.809507	0.966729
N183	N	1.666258	-0.559507	1.216729
N184	N	1.916258	-0.309507	1.466729
H185	H	1.170730	-1.120867	0.710703
H186	H	1.420730	-0.870867	0.960703
H187	H	1.670730	-0.620867	1.210703
H188	H	1.920730	-0.370867	1.460703
H189	H	1.105559	-1.039144	0.695259
H190	H	1.355559	-0.789144	0.945259
H191	H	1.605559	-0.539144	1.195259
H192	H	1.855559	-0.289144	1.445259
N193	N	1.307278	-0.600735	1.244106
N194	N	1.557278	-0.350735	1.494106
N195	N	1.807278	-0.100735	1.744106
N196	N	2.057278	0.149265	1.994106
H197	H	1.307004	-0.600393	1.321466
H198	H	1.557004	-0.350393	1.571466
H199	H	1.807004	-0.100393	1.821466
H200	H	2.057004	0.149607	2.071466
H201	H	1.365803	-0.589136	1.228076
H202	H	1.615803	-0.339136	1.478076
H203	H	1.865803	-0.089136	1.728076
H204	H	2.115803	0.160864	1.978076
H205	H	1.156994	-0.434293	1.172286
H206	H	1.406994	-0.184293	1.422286
H207	H	1.656994	0.065707	1.672286
H208	H	1.906994	0.315707	1.922286
H209	H	1.324214	-0.619577	1.060099
H210	H	1.574214	-0.369577	1.310099
H211	H	1.824214	-0.119577	1.560099
H212	H	2.074214	0.130423	1.810099
