data_functionalizedCrystal
_audit_creation_method	'MofGen! by Chris Wilmer'
_symmetry_space_group_name_H-M	'P1'
_symmetry_Int_Tables_number	1
_symmetry_cell_setting	triclinic
loop_
_symmetry_equiv_pos_as_xyz
  x,y,z
_cell_length_a	19.288840
_cell_length_b	14.044190
_cell_length_c	17.766277
_cell_angle_alpha	89.989261
_cell_angle_beta	89.983415
_cell_angle_gamma	88.158896
loop_
_atom_site_label
_atom_site_type_symbol
_atom_site_fract_x
_atom_site_fract_y
_atom_site_fract_z
O1	O	0.928955	0.118101	-0.062729
O2	O	1.428955	0.618101	0.437271
O3	O	0.727718	0.134072	-0.062705
O4	O	1.227718	0.634072	0.437295
O5	O	0.825313	-0.011885	-0.062702
O6	O	1.325313	0.488115	0.437298
O7	O	0.831359	0.264058	-0.062732
O8	O	1.331359	0.764058	0.437268
O9	O	0.825294	-0.011892	0.062487
O10	O	1.325294	0.488108	0.562487
O11	O	0.727699	0.134065	0.062484
O12	O	1.227699	0.634065	0.562484
O13	O	0.928935	0.118093	0.062459
O14	O	1.428935	0.618093	0.562459
Cu15	Cu	0.828315	0.126078	0.073902
Cu16	Cu	1.328315	0.626078	0.573902
Cu17	Cu	0.828338	0.126087	-0.074148
Cu18	Cu	1.328338	0.626087	0.425852
O19	O	0.831340	0.264051	0.062456
O20	O	1.331340	0.764051	0.562456
C21	C	0.701799	0.133559	-0.000107
C22	C	1.201799	0.633559	0.499893
C23	C	0.624596	0.132028	-0.000097
C24	C	1.124596	0.632028	0.499903
C25	C	0.588356	0.131297	-0.068339
C26	C	1.088356	0.631297	0.431661
C27	C	0.515816	0.129848	-0.068348
C28	C	1.015816	0.629848	0.431652
C29	C	0.479519	0.129111	-0.000111
C30	C	0.979519	0.629111	0.499889
C31	C	0.515768	0.129848	0.068140
C32	C	1.015768	0.629848	0.568140
C33	C	0.588307	0.131306	0.068147
C34	C	1.088307	0.631306	0.568147
C35	C	0.366468	0.071292	0.052164
C36	C	0.866468	0.571292	0.552164
C37	C	0.293931	0.069828	0.052154
C38	C	0.793931	0.569828	0.552154
C39	C	0.255787	0.124617	-0.000130
C40	C	0.755787	0.624617	0.499870
C41	C	0.290189	0.180858	-0.052417
C42	C	0.790189	0.680858	0.447583
C43	C	0.362727	0.182316	-0.052410
C44	C	0.862727	0.682316	0.447590
C45	C	0.400864	0.127530	-0.000111
C46	C	0.900864	0.627530	0.499889
C47	C	0.140890	0.122316	-0.068387
C48	C	0.640890	0.622316	0.431613
C49	C	0.068349	0.120873	-0.068393
C50	C	0.568349	0.620873	0.431607
C51	C	0.068303	0.120863	0.068097
C52	C	0.568303	0.620863	0.568097
C53	C	0.140843	0.122316	0.068101
C54	C	0.640843	0.622316	0.568101
C55	C	0.177132	0.123038	-0.000143
C56	C	0.677132	0.623038	0.499857
C57	C	0.822659	-0.047192	-0.000105
C58	C	1.322659	0.452808	0.499895
C59	C	0.814769	-0.152383	-0.000097
C60	C	1.314769	0.347617	0.499903
C61	C	0.856301	-0.402852	-0.000132
C62	C	1.356301	0.097148	0.499868
C63	C	0.800356	-0.344977	-0.000120
C64	C	1.300356	0.155023	0.499880
C65	C	0.808377	-0.237808	-0.000107
C66	C	1.308377	0.262192	0.499893
C67	C	0.848280	-0.510031	-0.000145
C68	C	1.348280	-0.010031	0.499855
C69	C	0.954854	0.118607	-0.000140
C70	C	1.454854	0.618607	0.499860
C71	C	1.032057	0.120138	-0.000155
C72	C	1.532057	0.620138	0.499845
C73	C	0.833995	0.299357	-0.000142
C74	C	1.333995	0.799357	0.499858
C75	C	0.841885	0.404549	-0.000155
C76	C	1.341885	0.904549	0.499845
N77	N	0.828304	0.126072	0.178033
N78	N	1.328304	0.626072	0.678033
N79	N	0.828354	0.126086	-0.178278
N80	N	1.328354	0.626086	0.321722
C81	C	0.871537	0.061473	0.217421
C82	C	1.371537	0.561473	0.717421
C83	C	0.871541	0.061469	0.296223
C84	C	1.371541	0.561469	0.796223
C85	C	0.828319	0.126079	0.335633
C86	C	1.328319	0.626079	0.835633
C87	C	0.785079	0.190683	0.296236
C88	C	1.285079	0.690683	0.796236
C89	C	0.785071	0.190679	0.217435
C90	C	1.285071	0.690679	0.717435
C91	C	0.824570	0.212423	0.460462
C92	C	1.324570	0.712423	0.960462
C93	C	0.824582	0.212428	0.539261
C94	C	1.324582	0.712428	1.039261
C95	C	0.828339	0.126091	0.578680
C96	C	1.328339	0.626091	1.078680
C97	C	0.832097	0.039745	0.539289
C98	C	1.332097	0.539745	1.039289
C99	C	0.832090	0.039741	0.460489
C100	C	1.332090	0.539741	0.960489
C101	C	0.828323	0.126090	0.421079
C102	C	1.328323	0.626090	0.921079
C103	C	0.871578	0.061482	0.703514
C104	C	1.371578	0.561482	1.203514
C105	C	0.871576	0.061477	0.782317
C106	C	1.371576	0.561477	1.282317
C107	C	0.785118	0.190698	0.782328
C108	C	1.285118	0.690698	1.282328
C109	C	0.785115	0.190696	0.703527
C110	C	1.285115	0.690696	1.203527
C111	C	0.828349	0.126089	0.664124
C112	C	1.328349	0.626089	1.164124
H113	H	0.265927	0.024029	0.094725
H114	H	0.765927	0.524029	0.594725
H115	H	0.906747	0.008863	0.328298
H116	H	1.406747	0.508863	0.828298
H117	H	0.821499	0.282734	0.428375
H118	H	1.321499	0.782734	0.928375
H119	H	0.749915	0.243302	0.671455
H120	H	1.249915	0.743302	1.171455
H121	H	0.617898	0.131884	-0.123908
H122	H	1.117898	0.631884	0.376092
N123	N	0.625330	0.132069	0.137858
N124	N	1.125330	0.632069	0.637858
N125	N	0.614944	0.198692	0.183539
N126	N	1.114944	0.698692	0.683539
H127	H	0.641093	0.199232	0.232773
H128	H	1.141093	0.699232	0.732773
H129	H	0.749865	0.243283	0.185365
H130	H	1.249865	0.743283	0.685365
N131	N	0.732707	-0.383765	-0.000104
N132	N	1.232707	0.116235	0.499896
N133	N	0.680104	-0.329412	-0.000086
N134	N	1.180104	0.170588	0.499914
H135	H	0.632327	-0.356808	-0.000072
H136	H	1.132327	0.143192	0.499928
H137	H	0.910216	-0.371915	-0.000131
H138	H	1.410216	0.128085	0.499869
N139	N	0.405416	0.015333	0.105591
N140	N	0.905416	0.515333	0.605591
N141	N	0.374695	-0.034875	0.152269
N142	N	0.874695	0.465125	0.652269
H143	H	0.402201	-0.074390	0.190004
H144	H	0.902201	0.425610	0.690004
N145	N	0.915765	-0.004446	0.177185
N146	N	1.415765	0.495554	0.677185
N147	N	0.954405	-0.062067	0.212369
N148	N	1.454405	0.437933	0.712369
H149	H	0.985665	-0.108594	0.183952
H150	H	1.485665	0.391406	0.683952
N151	N	0.835928	-0.048460	0.420264
N152	N	1.335928	0.451540	0.920264
N153	N	0.839283	-0.125545	0.455460
N154	N	1.339283	0.374455	0.955460
H155	H	0.841992	-0.187839	0.427052
H156	H	1.341992	0.312161	0.927052
H157	H	0.486303	0.129253	-0.123920
H158	H	0.986303	0.629253	0.376080
N159	N	0.397878	0.239778	-0.105794
N160	N	0.897878	0.739778	0.394206
N161	N	0.462644	0.241078	-0.105770
N162	N	0.962644	0.741078	0.394230
H163	H	0.487471	0.281668	-0.143469
H164	H	0.987471	0.781668	0.356531
N165	N	0.835924	-0.048447	0.579554
N166	N	1.335924	0.451553	1.079554
N167	N	0.835918	-0.048436	0.649911
N168	N	1.335918	0.451564	1.149911
H169	H	0.838617	-0.110718	0.678352
H170	H	1.338617	0.389282	1.178352
H171	H	0.906779	0.008872	0.671431
H172	H	1.406779	0.508872	1.171431
H173	H	0.906779	0.008868	0.814387
H174	H	1.406779	0.508868	1.314387
H175	H	0.259133	0.225476	-0.094989
H176	H	0.759133	0.725476	0.405011
N177	N	0.177953	0.123053	-0.138099
N178	N	0.677953	0.623053	0.361901
N179	N	0.145583	0.122408	-0.199027
N180	N	0.645583	0.622408	0.300973
H181	H	0.171757	0.122928	-0.248263
H182	H	0.671757	0.622928	0.251737
H183	H	0.038751	0.120270	0.123657
H184	H	0.538751	0.620270	0.623657
N185	N	0.740965	0.256682	0.822587
N186	N	1.240965	0.756682	1.322587
N187	N	0.740973	0.256673	0.892944
N188	N	1.240973	0.756673	1.392944
H189	H	0.709786	0.303272	0.921381
H190	H	1.209786	0.803272	1.421381
N191	N	0.820753	0.300632	0.579482
N192	N	1.320753	0.800632	1.079482
N193	N	0.817392	0.377712	0.544281
N194	N	1.317392	0.877712	1.044281
H195	H	0.814689	0.440010	0.572684
H196	H	1.314689	0.940010	1.072684
N197	N	0.740929	0.256668	0.336500
N198	N	1.240929	0.756668	0.836500
N199	N	0.740941	0.256664	0.406857
N200	N	1.240941	0.756664	0.906857
H201	H	0.709756	0.303265	0.435295
H202	H	1.209756	0.803265	0.935295
H203	H	0.038843	0.120283	-0.123966
H204	H	0.538843	0.620283	0.376034
H205	H	0.170350	0.122905	0.123672
H206	H	0.670350	0.622905	0.623672
N207	N	0.478685	0.129105	0.137836
N208	N	0.978685	0.629105	0.637836
N209	N	0.413919	0.127803	0.137821
N210	N	0.913919	0.627803	0.637821
H211	H	0.387728	0.127284	0.187046
H212	H	0.887728	0.627284	0.687046
