data_functionalizedCrystal
_audit_creation_method	'MofGen! by Chris Wilmer'
_symmetry_space_group_name_H-M	'P1'
_symmetry_Int_Tables_number	1
_symmetry_cell_setting	triclinic
loop_
_symmetry_equiv_pos_as_xyz
  x,y,z
_cell_length_a	14.560438
_cell_length_b	20.875641
_cell_length_c	20.875641
_cell_angle_alpha	60.089808
_cell_angle_beta	90.002779
_cell_angle_gamma	62.441314
loop_
_atom_site_label
_atom_site_type_symbol
_atom_site_fract_x
_atom_site_fract_y
_atom_site_fract_z
Zr1	Zr	0.926794	0.694359	-0.105761
O2	O	0.792203	0.820597	-0.209026
O3	O	0.963017	0.563104	-0.070829
O4	O	0.976543	0.687128	-0.204301
O5	O	0.773738	0.704027	0.026005
O6	O	1.127681	0.687129	-0.204299
O7	O	0.778678	0.696574	-0.075554
O8	O	1.103487	0.465274	0.034458
O9	O	0.797932	0.925883	-0.212752
O10	O	1.097343	0.618950	-0.059887
O11	O	0.980863	0.624511	0.015904
O12	O	0.996787	0.770533	-0.141242
O13	O	0.880307	0.776094	-0.065451
Zr14	Zr	1.159962	0.706249	0.056217
Zr15	Zr	1.167842	0.694362	-0.105758
Zr16	Zr	0.918914	0.706246	0.056214
Zr17	Zr	0.935930	0.862277	-0.111703
Zr18	Zr	1.150826	0.538331	0.062159
O19	O	1.123739	0.837504	0.021285
O20	O	1.134943	0.820602	-0.209023
O21	O	0.781000	0.837499	0.021281
O22	O	1.294553	0.580011	0.159482
O23	O	1.305757	0.563108	-0.070825
O24	O	0.951813	0.580006	0.159479
O25	O	1.313019	0.696581	-0.075549
O26	O	1.110214	0.713480	0.154757
O27	O	0.959075	0.713478	0.154755
O28	O	1.308078	0.704034	0.026010
O29	O	0.989533	0.925885	-0.212750
O30	O	1.097223	0.474723	0.163206
O31	O	1.288824	0.474725	0.163208
O32	O	1.295088	0.465277	0.034460
O33	O	0.791668	0.935331	-0.084004
O34	O	0.983270	0.935334	-0.084002
O35	O	1.089969	0.630075	0.091698
O36	O	1.206449	0.624514	0.015906
O37	O	1.105893	0.776097	-0.065448
O38	O	0.989413	0.781658	0.010343
C39	C	1.031950	0.490264	-0.017339
C40	C	1.028072	0.418979	-0.014816
C41	C	1.087048	0.382586	-0.053193
C42	C	1.083406	0.315602	-0.050816
C43	C	1.020781	0.285015	-0.010065
C44	C	0.961803	0.321411	0.028317
C45	C	0.965452	0.388390	0.025943
C46	C	1.003355	0.085004	0.001280
C47	C	0.999708	0.018022	0.003649
C48	C	1.121313	0.012216	-0.075483
C49	C	1.124951	0.079200	-0.077856
C50	C	1.065978	0.115587	-0.039471
N51	N	1.017054	0.216548	-0.007636
N52	N	1.069711	0.184048	-0.041896
C53	C	0.741864	0.700300	-0.024775
C54	C	0.639532	0.700299	-0.024776
C55	C	0.643943	0.621176	0.017690
C56	C	0.547788	0.621181	0.017696
C57	C	0.442816	0.779438	-0.067236
C58	C	0.538969	0.779433	-0.067237
C59	C	0.744506	0.542042	0.060151
C60	C	0.748921	0.462912	0.102620
C61	C	0.652766	0.462917	0.102626
C62	C	0.552196	0.542051	0.060164
C63	C	1.344892	0.700308	-0.024769
C64	C	1.447224	0.700309	-0.024768
C65	C	1.053234	0.685435	-0.227378
C66	C	1.056580	0.680388	-0.296141
C67	C	1.054806	0.910343	-0.032205
C68	C	1.058684	0.981629	-0.034728
C69	C	1.005664	0.757140	-0.370912
C70	C	1.008821	0.752393	-0.435519
C71	C	1.062888	0.670894	-0.425353
C72	C	1.113810	0.594136	-0.350574
C73	C	1.110659	0.598884	-0.285969
C74	C	1.077948	0.648210	-0.614019
C75	C	1.081092	0.643468	-0.678632
C76	C	0.976104	0.801725	-0.763573
C77	C	0.972952	0.806466	-0.698962
C78	C	1.023879	0.729708	-0.624189
N79	N	1.066114	0.666040	-0.491391
N80	N	1.020660	0.734563	-0.558153
C81	C	1.033522	0.715173	0.177834
C82	C	1.030177	0.720220	0.246597
C83	C	1.333465	0.490268	-0.017336
C84	C	1.431917	0.418984	-0.014812
C85	C	1.022094	0.505134	0.185267
C86	C	1.014870	0.438894	0.256552
C87	C	1.323608	0.505137	0.185270
C88	C	1.418716	0.438900	0.256557
C89	C	0.763148	0.895471	-0.234814
C90	C	0.668040	0.961708	-0.306101
C91	C	0.753292	0.910340	-0.032208
C92	C	0.654839	0.981624	-0.034732
C93	C	1.064662	0.895474	-0.234811
C94	C	1.071886	0.961713	-0.306097
C95	C	1.421200	0.382603	-0.053197
C96	C	1.513699	0.315633	-0.050841
C97	C	1.616914	0.285039	-0.010095
C98	C	1.627629	0.321426	0.028291
C99	C	1.535132	0.388400	0.025930
C100	C	1.068430	0.410693	0.329599
C101	C	1.061638	0.348464	0.396585
C102	C	1.001293	0.314433	0.390523
C103	C	0.947727	0.342641	0.317469
C104	C	0.954513	0.404874	0.250484
C105	C	1.524191	0.404891	0.250471
C106	C	1.613565	0.342662	0.317446
C107	C	1.597461	0.314439	0.390505
C108	C	1.491975	0.348454	0.396589
C109	C	1.402604	0.410686	0.329615
C110	C	0.562566	0.995725	-0.300016
C111	C	0.473193	1.057974	-0.366991
C112	C	0.489297	1.086201	-0.440051
C113	C	0.594783	1.052182	-0.446134
C114	C	0.684153	0.989938	-0.379160
C115	C	0.665557	1.018011	0.003646
C116	C	0.573060	1.084999	0.001272
C117	C	0.469845	1.115595	-0.039477
C118	C	0.459130	1.079204	-0.077860
C119	C	0.551626	1.012222	-0.075489
C120	C	1.132240	0.995724	-0.300010
C121	C	1.139049	1.057955	-0.366983
C122	C	1.085496	1.086177	-0.440043
C123	C	1.025140	1.052160	-0.446129
C124	C	1.018338	0.989926	-0.379156
H125	H	0.917424	0.418023	0.057192
F126	F	0.545402	0.965694	-0.222267
F127	F	0.394170	1.152447	-0.511325
F128	F	0.933048	-0.014527	0.047021
H129	H	0.387310	1.085663	-0.362023
F130	F	1.474853	0.318408	0.474351
F131	F	1.502272	0.276916	-0.091696
F132	F	0.968142	1.082211	-0.523892
H133	H	1.670242	0.263765	0.445034
F134	F	0.534276	0.863645	-0.112433
H135	H	1.337167	0.407511	-0.086387
F136	F	1.290351	0.446871	0.336104
F137	F	1.132664	0.446897	0.336069
H138	H	0.961629	0.823506	-0.379199
H139	H	0.830809	0.398484	0.137196
H140	H	0.542884	0.982597	-0.106740
H141	H	0.656365	0.398487	0.137212
F142	F	1.715349	0.213757	-0.007589
F143	F	0.611905	1.082230	-0.523896
H144	H	0.770033	0.962241	-0.384123
H145	H	1.711679	0.296507	0.061465
F146	F	1.546554	0.427108	0.066792
F147	F	0.883507	0.306414	0.311029
F148	F	1.725821	0.306469	0.310955
F149	F	0.449860	0.542053	0.060179
H150	H	1.105263	0.325505	0.456062
H151	H	0.749590	0.993106	0.036833
F152	F	0.954628	0.834083	-0.515096
F153	F	1.203284	1.094151	-0.360491
F154	F	0.846847	0.542030	0.060144
H155	H	1.537324	0.427861	0.190989
F156	F	1.138641	0.556721	-0.667807
H157	H	0.581806	1.114617	0.032531
H158	H	0.934643	0.864217	-0.824458
H159	H	0.995777	0.263760	0.445072
F160	F	0.335783	0.863652	-0.112425
F161	F	1.146158	0.276885	-0.091676
H162	H	0.910901	0.427827	0.191009
F163	F	1.132111	0.566517	-0.534448
H164	H	0.394538	1.170137	-0.041401
H165	H	1.169328	-0.017418	-0.106733
F166	F	0.349272	1.111774	-0.121223
F167	F	1.189244	0.965699	-0.222260
H168	H	0.928929	0.872831	-0.707248
F169	F	0.940593	0.123718	0.042137
H170	H	1.091043	1.136853	-0.494571
F171	F	0.954089	0.953742	-0.385646
H172	H	1.138038	0.407488	-0.086381
H173	H	1.175945	0.104101	-0.111039
F174	F	1.164861	0.517194	-0.206390
F175	F	1.171356	0.507398	-0.339757
F176	F	0.895167	0.288847	0.071698
