data_functionalizedCrystal
_audit_creation_method	'MofGen! by Chris Wilmer'
_symmetry_space_group_name_H-M	'P1'
_symmetry_Int_Tables_number	1
_symmetry_cell_setting	triclinic
loop_
_symmetry_equiv_pos_as_xyz
  x,y,z
_cell_length_a	17.052862
_cell_length_b	31.640172
_cell_length_c	17.052977
_cell_angle_alpha	77.689779
_cell_angle_beta	45.842756
_cell_angle_gamma	70.263359
loop_
_atom_site_label
_atom_site_type_symbol
_atom_site_fract_x
_atom_site_fract_y
_atom_site_fract_z
Zr1	Zr	0.878458	0.506271	-0.240817
O2	O	1.045921	0.470099	-0.394840
O3	O	0.711005	0.505861	-0.175678
O4	O	0.878451	0.541691	-0.368969
O5	O	0.878477	0.419086	-0.069465
O6	O	0.878434	0.611244	-0.368949
O7	O	0.878475	0.434269	-0.201549
O8	O	0.578904	0.547151	-0.023186
O9	O	1.178007	0.483179	-0.415228
O10	O	0.779864	0.571485	-0.169535
O11	O	0.779879	0.508247	-0.070977
O12	O	0.977025	0.550433	-0.298553
O13	O	0.977039	0.487195	-0.199995
Zr14	Zr	0.878435	0.592985	-0.030126
Zr15	Zr	0.878431	0.617201	-0.240785
Zr16	Zr	0.878461	0.482056	-0.030158
Zr17	Zr	1.089121	0.527133	-0.273333
Zr18	Zr	0.667772	0.572124	0.002390
O19	O	1.045888	0.593396	-0.095265
O20	O	1.045883	0.627827	-0.394794
O21	O	1.045926	0.435668	-0.095311
O22	O	0.710972	0.629157	0.123897
O23	O	0.710967	0.663588	-0.175632
O24	O	0.711009	0.471430	0.123852
O25	O	0.878416	0.680171	-0.201478
O26	O	0.878442	0.557565	0.098026
O27	O	0.878458	0.488012	0.098006
O28	O	0.878418	0.664988	-0.069394
O29	O	1.177986	0.571354	-0.415202
O30	O	0.578906	0.527903	0.144259
O31	O	0.578885	0.616077	0.144285
O32	O	0.578882	0.635325	-0.023160
O33	O	1.178010	0.463932	-0.247782
O34	O	1.177989	0.552106	-0.247757
O35	O	0.779868	0.548823	0.027610
O36	O	0.779854	0.612061	-0.070947
O37	O	0.977014	0.591009	-0.199965
O38	O	0.977028	0.527771	-0.101408
C39	C	0.614939	0.523533	-0.094799
C40	C	0.525507	0.514677	-0.080995
C41	C	0.273393	0.621751	-0.247884
C42	C	0.357423	0.630071	-0.260860
C43	C	0.399448	0.601224	-0.215895
C44	C	0.357435	0.564053	-0.157951
C45	C	0.273402	0.555730	-0.144980
C46	C	0.399458	0.535203	-0.112992
C47	C	0.357444	0.498033	-0.055048
C48	C	0.273420	0.489711	-0.042079
C49	C	0.231395	0.518559	-0.087044
C50	C	0.483490	0.543526	-0.125962
C51	C	0.483500	0.477506	-0.023059
C52	C	0.399469	0.469185	-0.010082
C53	C	0.878479	0.410872	-0.135512
C54	C	0.878491	0.363780	-0.135525
C55	C	0.775520	0.082750	-0.068104
C56	C	0.775500	-0.094240	-0.068081
O57	O	0.687974	-0.107784	-0.010770
N58	N	0.878415	-0.127358	-0.135429
C59	C	0.981342	-0.116229	-0.202781
O60	O	1.068877	-0.148460	-0.260055
C61	C	0.981361	0.060759	-0.202797
C62	C	0.878439	0.093877	-0.135453
C63	C	0.672607	0.115867	-0.000765
C64	C	0.672613	0.160112	-0.000776
C65	C	0.775532	0.171240	-0.068125
C66	C	0.878445	0.138123	-0.135464
C67	C	1.084287	0.071888	-0.270143
C68	C	1.084282	0.116138	-0.270139
C69	C	0.981361	0.149256	-0.202795
C70	C	0.981370	0.193495	-0.202824
N71	N	0.878455	0.226614	-0.135477
C72	C	0.775536	0.215486	-0.068128
C73	C	0.981325	-0.209149	-0.202769
C74	C	0.981321	-0.253395	-0.202767
C75	C	0.775478	-0.231404	-0.068066
C76	C	0.775484	-0.187156	-0.068075
C77	C	0.878410	-0.176030	-0.135422
C78	C	0.775556	0.308403	-0.068156
C79	C	0.775572	0.352652	-0.068176
C80	C	0.981413	0.330656	-0.202872
C81	C	0.981399	0.286412	-0.202857
C82	C	0.878461	0.275287	-0.135490
O83	O	1.068851	0.207071	-0.260096
O84	O	0.688014	0.247722	-0.010844
C85	C	0.775514	0.038505	-0.068093
C86	C	0.878427	0.005387	-0.135432
C87	C	0.981346	0.016515	-0.202782
C88	C	0.878423	-0.038859	-0.135430
C89	C	0.775504	-0.049987	-0.068080
C90	C	0.672589	-0.016868	-0.000733
C91	C	0.672595	0.027377	-0.000744
C92	C	1.084261	-0.016604	-0.270129
C93	C	1.084247	-0.060848	-0.270113
C94	C	0.981328	-0.071976	-0.202764
C95	C	1.141953	0.575723	-0.176144
C96	C	1.231385	0.584579	-0.189948
C97	C	0.878442	0.579918	-0.398973
C98	C	0.878441	0.590198	-0.488403
C99	C	0.878413	0.688384	-0.135431
C100	C	0.878402	0.735477	-0.135417
C101	C	0.878434	0.633347	-0.530403
C102	C	0.878426	0.643010	-0.614422
C103	C	0.878433	0.609523	-0.656456
C104	C	0.878447	0.566372	-0.614462
C105	C	0.878447	0.556709	-0.530428
C106	C	0.878445	0.532885	-0.656481
C107	C	0.878460	0.489733	-0.614487
C108	C	0.878460	0.480072	-0.530462
C109	C	0.878453	0.513559	-0.488428
C110	C	0.878446	0.542547	-0.740515
C111	C	0.878458	0.465909	-0.740540
C112	C	0.878466	0.456246	-0.656520
C113	C	0.878450	0.519339	0.128030
C114	C	0.878452	0.509059	0.217460
C115	C	0.614906	0.662289	-0.094759
C116	C	0.525463	0.700525	-0.080941
C117	C	0.614943	0.493244	0.168703
C118	C	0.525513	0.474107	0.271937
C119	C	0.614910	0.632000	0.168743
C120	C	0.525468	0.659956	0.271991
C121	C	1.141982	0.467257	-0.439686
C122	C	1.231424	0.439300	-0.542933
C123	C	1.141987	0.436967	-0.176184
C124	C	1.231430	0.398731	-0.190002
C125	C	1.141949	0.606013	-0.439645
C126	C	1.231380	0.625149	-0.542879
C127	C	0.483465	0.697302	-0.125923
C128	C	0.399435	0.733228	-0.112961
C129	C	0.357399	0.772376	-0.055011
C130	C	0.399405	0.775599	-0.010029
C131	C	0.483439	0.739674	-0.022998
C132	C	0.483510	0.486300	0.371887
C133	C	0.399492	0.468318	0.468892
C134	C	0.357473	0.438145	0.465946
C135	C	0.399485	0.425951	0.365985
C136	C	0.483507	0.443931	0.268981
C137	C	0.483458	0.706099	0.269031
C138	C	0.399430	0.732373	0.366033
C139	C	0.357408	0.712503	0.465995
C140	C	0.399426	0.666356	0.468951
C141	C	0.483458	0.640083	0.371949
C142	C	1.273444	0.393159	-0.539975
C143	C	1.357499	0.366887	-0.636981
C144	C	1.399526	0.386758	-0.736944
C145	C	1.357502	0.432904	-0.739900
C146	C	1.273455	0.459175	-0.642895
C147	C	1.273436	0.401956	-0.145030
C148	C	1.357489	0.366035	-0.158018
C149	C	1.399528	0.326888	-0.215972
C150	C	1.357518	0.323664	-0.260949
C151	C	1.273473	0.359586	-0.247967
C152	C	1.273372	0.655320	-0.539897
C153	C	1.357390	0.673309	-0.636887
C154	C	1.399420	0.661123	-0.736858
C155	C	1.357420	0.630950	-0.739837
C156	C	1.273397	0.612964	-0.642848
H157	H	0.517690	0.573791	-0.173141
H158	H	1.391578	0.697875	-0.634441
H159	H	0.517623	0.742303	0.013640
H160	H	0.288983	0.733901	0.544972
H161	H	0.365261	0.401383	0.363602
H162	H	0.467869	0.608001	-0.226464
H163	H	0.517695	0.434001	0.187602
H164	H	1.065130	-0.280356	-0.257618
H165	H	0.391628	0.660335	-0.308039
H166	H	0.239224	0.459442	0.005093
H167	H	1.239273	0.356954	-0.284587
H168	H	0.517652	0.602511	0.374375
H169	H	1.467964	0.297641	-0.226535
H170	H	1.239214	0.433827	-0.097832
H171	H	0.517719	0.454014	0.013552
H172	H	0.588793	0.106813	0.054085
H173	H	0.878478	0.421112	-0.622318
H174	H	0.365167	0.807478	0.037154
H175	H	1.239217	0.588396	-0.645291
H176	H	0.289057	0.423508	0.544941
H177	H	1.391759	0.291786	-0.308136
H178	H	1.239164	0.665247	-0.458506
H179	H	0.288972	0.801624	-0.044458
H180	H	0.517712	0.510867	0.374306
H181	H	0.239177	0.645233	-0.284496
H182	H	1.239231	0.376971	-0.458589
H183	H	0.878464	0.505692	-0.420016
H184	H	0.162965	0.511788	-0.076476
H185	H	1.391680	0.368667	-0.121385
H186	H	0.365296	0.478252	0.550275
H187	H	1.391700	0.329314	-0.634553
H188	H	0.517661	0.722285	0.187646
H189	H	0.365251	0.438920	0.037095
H190	H	0.691735	0.299352	-0.013298
H191	H	0.691757	0.379616	-0.013333
H192	H	1.467837	0.675772	-0.815825
H193	H	1.391654	0.621032	-0.821247
H194	H	1.239242	0.496746	-0.645316
H195	H	0.517690	0.665432	-0.173124
H196	H	0.365227	0.769946	0.363606
H197	H	0.691676	-0.160194	-0.013229
H198	H	0.588803	0.187074	0.054058
H199	H	1.391731	0.449079	-0.821301
H200	H	0.365199	0.650183	0.550353
H201	H	0.691678	-0.240470	-0.013233
H202	H	1.065145	-0.200096	-0.257619
H203	H	0.878461	0.438641	-0.774761
H204	H	1.168097	0.044929	-0.324980
H205	H	1.065206	0.259446	-0.257706
H206	H	1.168099	0.125191	-0.324970
H207	H	1.065207	0.339725	-0.257710
H208	H	1.467962	0.365361	-0.815923
H209	H	0.365244	0.730596	-0.149593
H210	H	0.588785	0.054338	0.054096
H211	H	1.168064	-0.087810	-0.324963
H212	H	0.588788	-0.025935	0.054099
H213	H	1.168072	-0.007549	-0.324976
H214	H	0.878426	0.617392	-0.724869
H215	H	0.878413	0.678144	-0.648610
H216	H	0.878434	0.577682	-0.774699
H217	H	0.878420	0.660610	-0.496168
H218	H	0.878459	0.444937	-0.496261
