data_functionalizedCrystal
_audit_creation_method	'MofGen! by Chris Wilmer'
_symmetry_space_group_name_H-M	'P1'
_symmetry_Int_Tables_number	1
_symmetry_cell_setting	triclinic
loop_
_symmetry_equiv_pos_as_xyz
  x,y,z
_cell_length_a	17.019282
_cell_length_b	17.019370
_cell_length_c	16.098538
_cell_angle_alpha	96.592070
_cell_angle_beta	91.140572
_cell_angle_gamma	83.127786
loop_
_atom_site_label
_atom_site_type_symbol
_atom_site_fract_x
_atom_site_fract_y
_atom_site_fract_z
O1	O	1.045902	0.101106	0.013029
O2	O	0.817017	0.113140	-0.002531
O3	O	0.938264	-0.008112	-0.002518
O4	O	0.924655	0.222357	0.013016
O5	O	0.931181	-0.001056	0.135992
O6	O	0.809934	0.120195	0.135979
O7	O	1.038820	0.108161	0.151539
Zn8	Zn	0.923252	0.115298	0.165751
Zn9	Zn	0.932584	0.106003	-0.016743
O10	O	0.917573	0.229412	0.151526
C11	C	0.784196	0.116074	0.064581
C12	C	0.696954	0.114296	0.058194
C13	C	0.652111	0.117304	0.130697
C14	C	0.570139	0.115621	0.124697
C15	C	0.533010	0.110935	0.046193
C16	C	0.577859	0.107924	-0.026315
C17	C	0.659831	0.109601	-0.020315
C18	C	0.285703	0.105671	0.024299
C19	C	0.203726	0.103996	0.018304
C20	C	0.196011	0.111692	0.169317
C21	C	0.277984	0.113374	0.175310
C22	C	0.322826	0.110359	0.102801
C23	C	0.449221	0.109216	0.040059
C24	C	0.406614	0.112072	0.108936
C25	C	0.934346	-0.034081	0.064595
C26	C	0.933215	-0.121974	0.058211
C27	C	0.928821	-0.159428	0.130711
C28	C	0.927763	-0.242013	0.124706
C29	C	0.931094	-0.287143	0.046201
C30	C	0.935490	-0.249684	-0.026303
C31	C	0.936554	-0.167101	-0.020298
C32	C	0.928082	-0.536684	0.024290
C33	C	0.927016	-0.619272	0.018290
C34	C	0.919290	-0.611596	0.169300
C35	C	0.920349	-0.529010	0.175299
C36	C	0.924750	-0.491559	0.102795
C37	C	0.930010	-0.371558	0.040061
C38	C	0.925839	-0.407146	0.108936
C39	C	1.071640	0.105227	0.084426
C40	C	1.158883	0.107005	0.090807
C41	C	0.921490	0.255382	0.084411
C42	C	0.922622	0.343274	0.090789
N43	N	0.916890	0.121641	0.290298
N44	N	0.938953	0.099653	-0.141290
C45	C	0.968370	0.070196	0.333891
C46	C	0.963927	0.074641	0.421079
C47	C	0.908005	0.130536	0.464674
C48	C	0.856519	0.181984	0.421074
C49	C	0.860960	0.177534	0.333887
C50	C	0.891907	0.146652	0.727923
C51	C	0.887472	0.151099	0.815117
C52	C	0.994879	0.043754	0.815116
C53	C	0.999318	0.039313	0.727927
C54	C	0.947829	0.090758	0.684335
C55	C	0.903463	0.135082	0.553795
C56	C	0.952368	0.086207	0.595215
H57	H	0.533633	0.118057	0.183736
H58	H	0.322205	0.103214	-0.034743
N59	N	0.914817	-0.649854	0.243359
N60	N	0.967754	-0.645221	0.298044
H61	H	0.964597	-0.672241	0.350352
H62	H	0.682334	0.121127	0.194623
H63	H	0.418982	0.105401	-0.023859
N64	N	0.705628	0.106521	-0.094384
N65	N	0.672471	0.102334	-0.164472
H66	H	0.704815	0.100154	-0.216787
H67	H	1.044854	-0.006201	0.692434
H68	H	0.926095	-0.122687	0.194637
N69	N	1.016489	0.022086	0.465628
N70	N	1.062664	0.049812	0.519592
H71	H	1.099775	0.012686	0.551062
N72	N	0.830337	0.208197	0.859636
N73	N	0.784365	0.254121	0.820705
H74	H	0.744013	0.294443	0.852146
H75	H	1.036798	0.001869	0.850617
H76	H	0.436848	0.115883	0.172853
N77	N	0.315910	0.118159	0.255498
N78	N	0.353276	0.175704	0.279159
H79	H	0.380060	0.179084	0.335795
N80	N	0.932575	-0.498448	-0.049777
N81	N	0.935545	-0.538753	-0.119863
H82	H	0.938717	-0.511747	-0.172178
N83	N	0.808376	0.230076	0.289341
N84	N	0.762193	0.202321	0.235403
H85	H	0.725052	0.239427	0.203942
N86	N	0.150193	0.114773	0.243370
N87	N	0.077006	0.113276	0.238006
H88	H	0.044646	0.115451	0.290309
N89	N	1.025447	0.013063	0.289343
N90	N	1.024169	-0.059614	0.293797
H91	H	1.064463	-0.099978	0.262325
H92	H	0.997897	0.040695	0.559718
N93	N	0.165799	0.099188	-0.061890
N94	N	0.128431	0.041640	-0.085527
H95	H	0.101643	0.038244	-0.142160
H96	H	0.938207	-0.286436	-0.090224
H97	H	0.923131	-0.370399	0.172854
H98	H	0.929721	-0.656014	-0.045642
H99	H	0.857932	0.180595	0.589297
N100	N	0.941057	-0.128841	-0.094352
N101	N	0.998930	-0.147793	-0.142110
H102	H	1.002116	-0.120773	-0.194413
N103	N	0.839306	0.199203	0.683415
N104	N	0.789381	0.249104	0.722352
H105	H	0.752227	0.286220	0.690915
N106	N	0.916940	-0.482905	0.255485
N107	N	0.861268	-0.428808	0.272217
H108	H	0.858856	-0.396245	0.328850
N109	N	0.539925	0.103128	-0.106499
N110	N	0.466737	0.101631	-0.111848
H111	H	0.439945	0.098246	-0.168479
H112	H	0.924189	-0.272504	0.183743
N113	N	0.933417	-0.417661	-0.040127
N114	N	0.989086	-0.471761	-0.056862
H115	H	0.991493	-0.504325	-0.113494
H116	H	0.810983	0.227492	0.456573
