data_functionalizedCrystal
_audit_creation_method	'MofGen! by Chris Wilmer'
_symmetry_space_group_name_H-M	'P1'
_symmetry_Int_Tables_number	1
_symmetry_cell_setting	triclinic
loop_
_symmetry_equiv_pos_as_xyz
  x,y,z
_cell_length_a	19.077105
_cell_length_b	18.050589
_cell_length_c	19.076919
_cell_angle_alpha	92.275255
_cell_angle_beta	90.076224
_cell_angle_gamma	87.724731
loop_
_atom_site_label
_atom_site_type_symbol
_atom_site_fract_x
_atom_site_fract_y
_atom_site_fract_z
Zn1	Zn	1.058247	-0.359281	-0.440438
Zn2	Zn	1.062879	-0.478689	-0.322938
Zn3	Zn	0.945466	-0.349333	-0.318231
Zn4	Zn	0.940701	-0.478241	-0.435691
O5	O	1.001823	-0.416386	-0.379325
O6	O	1.157193	-0.379472	-0.428809
O7	O	1.051237	-0.457554	-0.223983
O8	O	0.960482	-0.246731	-0.334459
O9	O	1.160596	-0.467201	-0.342482
O10	O	1.043342	-0.254040	-0.424244
O11	O	0.964973	-0.362516	-0.220524
O12	O	0.846502	-0.362082	-0.329856
O13	O	0.952361	-0.466437	-0.534652
O14	O	0.843002	-0.456790	-0.416153
O15	O	1.038722	-0.379038	-0.538140
O16	O	1.046617	-0.582551	-0.337879
O17	O	0.956853	-0.582222	-0.420717
C18	C	0.819256	-0.408308	-0.371979
C19	C	0.741152	-0.404871	-0.368853
C20	C	0.702657	-0.452635	-0.412244
C21	C	0.629270	-0.449396	-0.409310
C22	C	0.594379	-0.398396	-0.362981
C23	C	0.632879	-0.350627	-0.319588
C24	C	0.706264	-0.353863	-0.322526
C25	C	0.375093	-0.383419	-0.349388
C26	C	0.301702	-0.380188	-0.346452
C27	C	0.298098	-0.478956	-0.436175
C28	C	0.371485	-0.482191	-0.439105
C29	C	0.409979	-0.434419	-0.395715
N30	N	0.519366	-0.395085	-0.359980
N31	N	0.484990	-0.437727	-0.398721
C32	C	1.001739	-0.609334	-0.379310
C33	C	1.001766	-0.691882	-0.379329
C34	C	0.952999	-0.891182	-0.424363
C35	C	0.938449	-0.937256	-0.359556
C36	C	1.001835	-0.843016	-0.379341
C37	C	1.016419	-0.944025	-0.444157
C38	C	1.001900	-0.989004	-0.379358
C39	C	0.987253	-0.887999	-0.314499
C40	C	1.065250	-0.894768	-0.399145
C41	C	1.050726	-0.940818	-0.334295
C42	C	1.001796	-0.758915	-0.379332
C43	C	1.001939	-1.073102	-0.379360
C44	C	1.185104	-0.424496	-0.386700
C45	C	1.263207	-0.427952	-0.389843
C46	C	0.994493	-0.423797	-0.562605
C47	C	0.991370	-0.426955	-0.640709
C48	C	1.001926	-0.222686	-0.379356
C49	C	1.001970	-0.140143	-0.379369
C50	C	1.034863	-0.382937	-0.679219
C51	C	1.031920	-0.385901	-0.752605
C52	C	0.985486	-0.432888	-0.787479
C53	C	0.941988	-0.476908	-0.748964
C54	C	0.944928	-0.473940	-0.675579
C55	C	0.971867	-0.446642	-1.006761
C56	C	0.968931	-0.449609	-1.080151
C57	C	1.058863	-0.358601	-1.083787
C58	C	1.061802	-0.355639	-1.010401
C59	C	1.018301	-0.399657	-0.971892
N60	N	0.982478	-0.435921	-0.862492
N61	N	1.021307	-0.396619	-0.896881
C62	C	1.009165	-0.408952	-0.196759
C63	C	1.012425	-0.405591	-0.118661
H64	H	0.597931	-0.488291	-0.444643
C65	C	1.079765	-0.337485	-0.794969
C66	C	1.047329	-0.279871	-0.844200
C67	C	1.095176	-0.231452	-0.886566
C68	C	1.175458	-0.240648	-0.879701
C69	C	1.207899	-0.298264	-0.830468
C70	C	1.160052	-0.346683	-0.788102
H71	H	0.987895	-0.273061	-0.849284
H72	H	1.071161	-0.188801	-0.923012
H73	H	1.210877	-0.204806	-0.911063
H74	H	1.267333	-0.305074	-0.825384
H75	H	1.184067	-0.389334	-0.751657
H76	H	0.266749	-0.517848	-0.471502
C77	C	0.917871	-0.501311	-1.118529
C78	C	0.923985	-0.585579	-1.108656
C79	C	0.872940	-0.637286	-1.147041
C80	C	0.815782	-0.604725	-1.195299
C81	C	0.809666	-0.520452	-1.205174
C82	C	0.860710	-0.468745	-1.166789
H83	H	0.966299	-0.609686	-1.072931
H84	H	0.877468	-0.699670	-1.139731
H85	H	0.777996	-0.643001	-1.223714
H86	H	0.767351	-0.496345	-1.240900
H87	H	0.856182	-0.406361	-1.174100
H88	H	0.273296	-0.338649	-0.308729
C89	C	0.409863	-0.538286	-0.490074
C90	C	0.367520	-0.590823	-0.537810
C91	C	0.405898	-0.646919	-0.588778
C92	C	0.486619	-0.650479	-0.592011
C93	C	0.528967	-0.597940	-0.544274
C94	C	0.490589	-0.541844	-0.493306
H95	H	0.307761	-0.588189	-0.535418
H96	H	0.374549	-0.685811	-0.624116
H97	H	0.515028	-0.692004	-0.629741
H98	H	0.588725	-0.600574	-0.546666
H99	H	0.521938	-0.502952	-0.457968
H100	H	0.909504	-0.509777	-0.644225
C101	C	0.748613	-0.301324	-0.274795
C102	C	0.797870	-0.246530	-0.307363
C103	C	0.840218	-0.193986	-0.259633
C104	C	0.833310	-0.196236	-0.179337
C105	C	0.784051	-0.251033	-0.146765
C106	C	0.741703	-0.303576	-0.194494
H107	H	0.802986	-0.244862	-0.366807
H108	H	0.876683	-0.153422	-0.283746
H109	H	0.864659	-0.157340	-0.144004
H110	H	0.778935	-0.252701	-0.087320
H111	H	0.705238	-0.344140	-0.170382
C112	C	0.970535	-0.855028	-0.240433
C113	C	0.956969	-0.906775	-0.180059
C114	C	0.940249	-0.873802	-0.105996
C115	C	0.937095	-0.789083	-0.092307
C116	C	0.950661	-0.737331	-0.152684
C117	C	0.967381	-0.770304	-0.226747
H118	H	0.959304	-0.969494	-0.190191
H119	H	0.930207	-0.912113	-0.061302
H120	H	0.924718	-0.764675	-0.037482
H121	H	0.948326	-0.674613	-0.142552
H122	H	0.977423	-0.731993	-0.271441
C123	C	1.106559	-0.970083	-0.282817
C124	C	1.117351	-1.054148	-0.273688
C125	C	1.173179	-1.083417	-0.222210
C126	C	1.218216	-1.028621	-0.179860
C127	C	1.207425	-0.944550	-0.188988
C128	C	1.151596	-0.915281	-0.240466
H129	H	1.084011	-1.094717	-0.305039
H130	H	1.181167	-1.145652	-0.215453
H131	H	1.259544	-1.050287	-0.141753
H132	H	1.240765	-0.903982	-0.157637
H133	H	1.143609	-0.853046	-0.247222
H134	H	1.118835	-0.875974	-0.415910
H135	H	0.884851	-0.956052	-0.342820
H136	H	1.094278	-0.322763	-1.115149
C137	C	0.890919	-0.528602	-0.787330
C138	C	0.897024	-0.612870	-0.777453
C139	C	0.845961	-0.664570	-0.815820
C140	C	0.788794	-0.632003	-0.864064
C141	C	0.782687	-0.547731	-0.873943
C142	C	0.833749	-0.496031	-0.835576
H143	H	0.939345	-0.636982	-0.741738
H144	H	0.850482	-0.726954	-0.808507
H145	H	0.750994	-0.670275	-0.892466
H146	H	0.740366	-0.523619	-0.909658
H147	H	0.829228	-0.433647	-0.842890
H148	H	0.911645	-0.869387	-0.462377
H149	H	0.731060	-0.494167	-0.449968
H150	H	0.936456	-0.482496	-0.975416
H151	H	0.604465	-0.309099	-0.281869
H152	H	0.406425	-0.344525	-0.314051
C153	C	1.033055	-0.977122	-0.518195
C154	C	0.979911	-1.026418	-0.556490
C155	C	0.996541	-1.059512	-0.630529
C156	C	1.066314	-1.043310	-0.666273
C157	C	1.119462	-0.994011	-0.627977
C158	C	1.102832	-0.960917	-0.553939
H159	H	0.928257	-1.038414	-0.530031
H160	H	0.957196	-1.096006	-0.658878
H161	H	1.078624	-1.067808	-0.721081
H162	H	1.171116	-0.982015	-0.654437
H163	H	1.142177	-0.924423	-0.525590
C164	C	1.085942	-0.331249	-0.640860
C165	C	1.079846	-0.246981	-0.650733
C166	C	1.130924	-0.195290	-0.612376
C167	C	1.188098	-0.227868	-0.564146
C168	C	1.194197	-0.312141	-0.554270
C169	C	1.143119	-0.363832	-0.592627
H170	H	1.037520	-0.222861	-0.686438
H171	H	1.126409	-0.132905	-0.619687
H172	H	1.225909	-0.189603	-0.535751
H173	H	1.236523	-0.336261	-0.518565
H174	H	1.147633	-0.426216	-0.585316
H175	H	1.099616	-0.317380	-0.982011
