data_functionalizedCrystal
_audit_creation_method	'MofGen! by Chris Wilmer'
_symmetry_space_group_name_H-M	'P1'
_symmetry_Int_Tables_number	1
_symmetry_cell_setting	triclinic
loop_
_symmetry_equiv_pos_as_xyz
  x,y,z
_cell_length_a	6.817900
_cell_length_b	11.102188
_cell_length_c	11.168136
_cell_angle_alpha	91.984111
_cell_angle_beta	108.508683
_cell_angle_gamma	108.603875
loop_
_atom_site_label
_atom_site_type_symbol
_atom_site_fract_x
_atom_site_fract_y
_atom_site_fract_z
V1	V	-4.110378	-0.175858	-0.393699
O2	O	-4.069443	0.008431	-0.386205
O3	O	-4.087154	-0.348678	-0.391007
O4	O	-4.086661	-0.173161	-0.565405
O5	O	-4.069939	-0.168300	-0.210599
V6	V	-4.587546	-0.153814	-0.371799
O7	O	-4.385578	-0.224213	-0.441739
O8	O	-4.762543	-0.105458	-0.323759
O9	O	-4.387564	0.019006	-0.374492
O10	O	-4.745878	-0.338103	-0.379294
O11	O	-4.745382	-0.161371	-0.554899
O12	O	-4.388056	-0.156510	-0.200093
C13	C	-3.937480	-0.390807	-0.384796
C14	C	-3.999943	-0.532090	-0.383739
C15	C	-3.969455	-0.580310	-0.267609
C16	C	-4.028169	-0.713061	-0.266621
C17	C	-4.147851	-0.749362	-0.497903
C18	C	-4.089152	-0.616614	-0.498890
C19	C	-3.936851	-0.166917	-0.607257
C20	C	-3.998909	-0.165856	-0.747627
C21	C	-4.201433	-0.171411	-0.816319
C22	C	-4.265578	-0.170314	-0.961399
C23	C	-4.200580	0.061129	-0.380699
C24	C	-4.117357	0.202410	-0.381764
C25	C	-4.201209	-0.162759	-0.158235
C26	C	-4.118387	-0.163813	-0.017863
H27	H	-4.220487	-0.818197	-0.591655
O28	O	-3.911564	-0.158345	-0.947345
C29	C	-3.924127	-0.269161	-0.887852
H30	H	-4.094275	-0.311661	-0.879500
H31	H	-3.792544	-0.242344	-0.788486
H32	H	-3.895720	-0.343084	-0.947461
H33	H	-4.003340	-0.752314	-0.172057
H34	H	-4.113994	-0.577355	-0.593463
H35	H	-3.896818	-0.511493	-0.173846
H36	H	-4.327328	-0.176970	-0.767720
O37	O	-3.848501	-0.158983	-0.805498
C38	C	-3.665150	-0.044801	-0.752286
H39	H	-3.716746	0.028504	-0.707722
H40	H	-3.601074	-0.004153	-0.830426
H41	H	-3.529368	-0.066421	-0.675682
O42	O	-4.472581	-0.176154	-1.031999
C43	C	-4.574296	-0.286551	-1.125789
H44	H	-4.442218	-0.317761	-1.145546
H45	H	-4.680164	-0.263661	-1.217460
H46	H	-4.682755	-0.367501	-1.090206
