data_functionalizedCrystal
_audit_creation_method	'MofGen! by Chris Wilmer'
_symmetry_space_group_name_H-M	'P1'
_symmetry_Int_Tables_number	1
_symmetry_cell_setting	triclinic
loop_
_symmetry_equiv_pos_as_xyz
  x,y,z
_cell_length_a	18.760490
_cell_length_b	14.628931
_cell_length_c	14.628931
_cell_angle_alpha	60.000028
_cell_angle_beta	90.018495
_cell_angle_gamma	60.024305
loop_
_atom_site_label
_atom_site_type_symbol
_atom_site_fract_x
_atom_site_fract_y
_atom_site_fract_z
Zr1	Zr	0.686539	1.000945	-0.119861
O2	O	0.572746	1.191590	-0.265839
O3	O	0.721423	0.810257	-0.075110
O4	O	0.721423	1.000963	-0.265816
O5	O	0.572746	1.000885	0.075299
O6	O	0.838701	1.001025	-0.265799
O7	O	0.572746	1.000884	-0.075133
O8	O	0.838701	0.659888	0.075339
O9	O	0.572746	1.342022	-0.265839
O10	O	0.823824	0.888752	-0.056012
O11	O	0.736300	0.888706	0.056240
O12	O	0.736300	1.113237	-0.168291
O13	O	0.648776	1.113191	-0.056039
Zr14	Zr	0.873584	1.001045	0.120088
Zr15	Zr	0.873584	1.001044	-0.119833
Zr16	Zr	0.686538	1.000945	0.120060
Zr17	Zr	0.686538	1.240867	-0.119861
Zr18	Zr	0.873585	0.761123	0.120089
O19	O	0.838700	1.191732	0.075338
O20	O	0.838701	1.191731	-0.265799
O21	O	0.572745	1.191591	0.075298
O22	O	0.987377	0.810400	0.266066
O23	O	0.987378	0.810399	-0.075071
O24	O	0.721422	0.810258	0.266027
O25	O	0.987377	1.001105	-0.075071
O26	O	0.838700	1.001027	0.266044
O27	O	0.721422	1.000964	0.266026
O28	O	0.987377	1.001105	0.075360
O29	O	0.721422	1.342101	-0.265817
O30	O	0.838701	0.659888	0.266044
O31	O	0.987377	0.659967	0.266066
O32	O	0.987378	0.659967	0.075361
O33	O	0.572745	1.342023	-0.075134
O34	O	0.721422	1.342102	-0.075111
O35	O	0.823823	0.888753	0.168519
O36	O	0.911347	0.888799	0.056266
O37	O	0.823823	1.113284	-0.056013
O38	O	0.736299	1.113237	0.056240
C39	C	0.780062	0.700889	0.000114
C40	C	0.780062	0.599036	0.000115
C41	C	0.718660	0.632353	-0.078654
C42	C	0.718659	0.527084	-0.078656
C43	C	0.546096	1.000870	0.000079
C44	C	0.466690	1.000828	0.000067
C45	C	0.130702	1.001127	-0.082727
C46	C	0.130818	1.001127	0.083029
C47	C	0.205465	1.001063	0.083011
C48	C	0.242734	1.001029	0.000123
C49	C	0.205357	1.001059	-0.082746
C50	C	0.242852	1.001020	0.165885
C51	C	0.317504	1.000954	0.165871
C52	C	0.354771	1.000929	0.082978
C53	C	0.317389	1.000961	0.000104
C54	C	0.354658	1.000926	-0.082783
C55	C	0.317274	1.000967	-0.165662
C56	C	0.242624	1.001034	-0.165639
C57	C	0.429421	1.000863	0.082955
C58	C	0.429313	1.000858	-0.082802
C59	C	1.014027	1.001119	0.000149
C60	C	1.093433	1.001161	0.000160
C61	C	0.780062	1.000994	-0.299991
C62	C	0.780062	1.000994	-0.401844
C63	C	0.780061	1.301101	0.000113
C64	C	0.780061	1.402954	0.000113
C65	C	0.736644	1.112353	-0.502951
C66	C	0.736643	1.112355	-0.608222
C67	C	0.780061	1.000996	0.300219
C68	C	0.780061	1.000996	0.402071
C69	C	1.014028	0.701013	0.000149
C70	C	1.093434	0.599202	0.000161
C71	C	0.780062	0.700890	0.300219
C72	C	0.780062	0.599037	0.402072
C73	C	1.014027	0.701014	0.300254
C74	C	1.093433	0.599203	0.402119
C75	C	0.546096	1.300975	-0.300026
C76	C	0.466690	1.402786	-0.401891
C77	C	0.546095	1.300976	0.000078
C78	C	0.466689	1.402787	0.000066
C79	C	0.780061	1.301100	-0.299992
C80	C	0.780061	1.402953	-0.401845
C81	C	1.085037	0.551366	-0.058451
C82	C	1.159640	0.455717	-0.058463
C83	C	1.242639	0.407899	0.000146
C84	C	1.251034	0.455745	0.058760
C85	C	1.176432	0.551398	0.058764
C86	C	1.176417	0.551416	0.391361
C87	C	1.251035	0.455767	0.487065
C88	C	1.242666	0.407901	0.593525
C89	C	1.159673	0.455698	0.604281
C90	C	1.085058	0.551351	0.508578
C91	C	0.383706	1.450585	-0.391133
C92	C	0.309088	1.546263	-0.486837
C93	C	0.317457	1.594135	-0.593297
C94	C	0.400450	1.546332	-0.604053
C95	C	0.475065	1.450662	-0.508350
C96	C	0.475086	1.450633	0.058669
C97	C	0.400483	1.546309	0.058654
C98	C	0.317484	1.594130	0.000042
C99	C	0.309089	1.546280	-0.058568
C100	C	0.383691	1.450613	-0.058559
C101	C	0.823479	0.553651	0.503179
C102	C	0.823480	0.448381	0.608451
H103	H	0.832629	0.374594	0.067557
H104	H	0.832631	0.492578	0.067548
H105	H	0.459859	1.000821	0.150438
F106	F	0.468969	1.000831	-0.171029
F107	F	0.409343	1.597291	-0.717365
F108	F	0.731470	0.547970	0.390791
F109	F	0.731479	0.453954	0.484792
H110	H	0.256745	1.672028	0.000043
H111	H	0.666089	0.555434	-0.146090
H112	H	0.347631	1.000931	-0.233146
H113	H	0.542633	1.411745	-0.517123
F114	F	1.150780	0.404742	0.717593
H115	H	0.376843	1.411659	-0.106277
H116	H	0.256693	1.672035	-0.671216
F117	F	0.202836	1.001073	-0.253836
F118	F	1.339375	0.404837	0.121135
F119	F	0.090915	1.001177	-0.170933
H120	H	0.100475	1.001146	0.150518
H121	H	1.017491	0.590247	0.517353
F122	F	0.203192	1.001045	0.254102
H123	H	0.241501	1.585231	-0.106288
F124	F	0.357284	1.000914	0.254073
H125	H	0.860646	0.592734	0.511805
F126	F	0.563413	1.399759	0.121054
H127	H	1.152788	0.416773	-0.106193
F128	F	0.688050	1.236975	-0.721592
H129	H	0.699477	1.207690	-0.511577
F130	F	1.339353	0.404912	0.475594
H131	H	0.817230	0.905652	-0.511196
F132	F	0.872073	0.397361	0.721820
F133	F	1.185381	0.602292	0.121159
F134	F	0.828654	0.876376	-0.390562
F135	F	0.996710	0.602243	-0.120839
H136	H	0.666096	0.738811	-0.146093
F137	F	1.185344	0.602347	0.278067
F138	F	1.322031	0.306093	0.000133
H139	H	1.303430	0.330014	0.671443
H140	H	0.376875	1.411614	-0.304457
H141	H	0.241519	1.585168	-0.478058
H142	H	0.407335	1.585252	0.106385
