data_functionalizedCrystal
_audit_creation_method	'MofGen! by Chris Wilmer'
_symmetry_space_group_name_H-M	'P1'
_symmetry_Int_Tables_number	1
_symmetry_cell_setting	triclinic
loop_
_symmetry_equiv_pos_as_xyz
  x,y,z
_cell_length_a	10.540539
_cell_length_b	11.792241
_cell_length_c	10.268362
_cell_angle_alpha	90.005428
_cell_angle_beta	89.999003
_cell_angle_gamma	95.640546
loop_
_atom_site_label
_atom_site_type_symbol
_atom_site_fract_x
_atom_site_fract_y
_atom_site_fract_z
O1	O	1.685366	-0.159957	-0.108194
O2	O	2.185366	0.340043	0.391806
O3	O	1.315904	-0.175028	-0.108220
O4	O	1.815904	0.324972	0.391780
O5	O	1.509601	-0.002345	-0.108197
O6	O	2.009601	0.497655	0.391803
O7	O	1.491670	-0.332639	-0.108216
O8	O	1.991670	0.167361	0.391784
O9	O	1.509584	-0.002338	0.108404
O10	O	2.009584	0.497662	0.608404
O11	O	1.315887	-0.175021	0.108381
O12	O	1.815887	0.324979	0.608381
O13	O	1.685349	-0.159950	0.108407
O14	O	2.185349	0.340050	0.608407
Cu15	Cu	1.500617	-0.167484	0.128171
Cu16	Cu	2.000617	0.332516	0.628171
Cu17	Cu	1.500637	-0.167493	-0.127984
Cu18	Cu	2.000637	0.332507	0.372016
O19	O	1.491653	-0.332632	0.108384
O20	O	1.991653	0.167368	0.608384
C21	C	1.268596	-0.173894	0.000077
C22	C	1.768596	0.326106	0.500077
C23	C	1.127659	-0.170513	0.000068
C24	C	1.627659	0.329487	0.500068
C25	C	1.508466	0.039952	0.000103
C26	C	2.008466	0.539952	0.500103
C27	C	1.505095	0.165975	0.000101
C28	C	2.005095	0.665975	0.500101
C29	C	1.732657	-0.161083	0.000107
C30	C	2.232657	0.338917	0.500107
C31	C	1.873594	-0.164465	0.000108
C32	C	2.373594	0.335535	0.500108
C33	C	2.056599	-0.294036	0.000557
C34	C	2.556599	0.205964	0.500557
C35	C	1.909992	-0.290608	0.000091
C36	C	2.409992	0.209392	0.500091
C37	C	1.935434	-0.103762	-0.123585
C38	C	2.435434	0.396238	0.376415
C39	C	2.081964	-0.108068	-0.123710
C40	C	2.581964	0.391932	0.376290
C41	C	2.082523	-0.105495	0.122605
C42	C	2.582523	0.394505	0.622605
C43	C	1.935545	-0.104333	0.124262
C44	C	2.435545	0.395667	0.624262
C45	C	1.492787	-0.374930	0.000081
C46	C	1.992787	0.125070	0.500081
C47	C	1.496159	-0.500952	0.000074
C48	C	1.996159	-0.000952	0.500074
N49	N	1.500612	-0.167478	0.308337
N50	N	2.000612	0.332522	0.808337
C51	C	1.498896	0.396703	0.000079
C52	C	1.998896	0.896703	0.500079
C53	C	1.502340	0.268309	0.000091
C54	C	2.002340	0.768309	0.500091
N55	N	1.500652	-0.167491	-0.308150
N56	N	2.000652	0.332509	0.191850
C57	C	1.500630	-0.167491	0.574008
C58	C	2.000630	0.332509	1.074008
C59	C	1.500616	-0.167487	0.426170
C60	C	2.000616	0.332513	0.926170
H61	H	1.867244	-0.338378	0.088755
H62	H	2.367244	0.161622	0.588755
C63	C	1.877622	-0.160684	-0.247934
C64	C	2.377622	0.339316	0.252066
N65	N	1.834056	-0.203545	-0.341591
N66	N	2.334056	0.296455	0.158409
H67	H	2.110005	-0.152938	-0.216176
H68	H	2.610005	0.347062	0.283824
C69	C	2.146722	0.017594	0.123730
C70	C	2.646722	0.517594	0.623730
N71	N	2.195082	0.110302	0.124567
N72	N	2.695082	0.610302	0.624567
H73	H	1.868068	-0.338709	-0.088723
H74	H	2.368068	0.161291	0.411277
C75	C	2.147169	0.014488	-0.131321
C76	C	2.647169	0.514488	0.368679
N77	N	2.196275	0.106795	-0.137067
N78	N	2.696275	0.606795	0.362933
H79	H	2.113957	-0.146317	0.216346
H80	H	2.613957	0.353683	0.716346
C81	C	1.880054	-0.164248	0.247886
C82	C	2.380054	0.335752	0.747886
N83	N	1.838248	-0.209376	0.340999
N84	N	2.338248	0.290624	0.840999
H85	H	2.085051	-0.343864	0.089247
H86	H	2.585051	0.156136	0.589247
H87	H	1.911627	-0.012364	0.131740
H88	H	2.411627	0.487636	0.631740
C89	C	1.905636	0.021384	-0.129792
C90	C	2.405636	0.521384	0.370208
N91	N	1.883188	0.115643	-0.134466
N92	N	2.383188	0.615643	0.365534
H93	H	2.086632	-0.343665	-0.087655
H94	H	2.586632	0.156335	0.412345
