data_functionalizedCrystal
_audit_creation_method	'MofGen! by Chris Wilmer'
_symmetry_space_group_name_H-M	'P1'
_symmetry_Int_Tables_number	1
_symmetry_cell_setting	triclinic
loop_
_symmetry_equiv_pos_as_xyz
  x,y,z
_cell_length_a	19.077105
_cell_length_b	19.121111
_cell_length_c	19.076929
_cell_angle_alpha	85.394626
_cell_angle_beta	90.078300
_cell_angle_gamma	89.735527
loop_
_atom_site_label
_atom_site_type_symbol
_atom_site_fract_x
_atom_site_fract_y
_atom_site_fract_z
Zn1	Zn	1.043144	0.339711	-0.454319
Zn2	Zn	1.042767	0.452628	-0.341434
Zn3	Zn	0.930785	0.330310	-0.331728
Zn4	Zn	0.920603	0.452199	-0.454168
O5	O	0.984325	0.393712	-0.395412
O6	O	1.141243	0.358804	-0.443469
O7	O	1.032015	0.432648	-0.241661
O8	O	0.950109	0.233289	-0.343991
O9	O	1.140965	0.441763	-0.360533
O10	O	1.032659	0.240196	-0.434058
O11	O	0.949743	0.342781	-0.234531
O12	O	0.831286	0.342364	-0.343845
O13	O	0.932755	0.441032	-0.552673
O14	O	0.823805	0.431916	-0.433801
O15	O	1.022786	0.358387	-0.552784
O16	O	1.022142	0.550839	-0.360387
O17	O	0.932389	0.550523	-0.443213
C18	C	0.802097	0.386074	-0.387754
C19	C	0.724137	0.382824	-0.384495
C20	C	0.683635	0.427987	-0.429732
C21	C	0.610384	0.424924	-0.426673
C22	C	0.577636	0.376701	-0.378373
C23	C	0.618144	0.331534	-0.333135
C24	C	0.691393	0.334594	-0.336198
C25	C	0.358980	0.362540	-0.364201
C26	C	0.285725	0.359485	-0.361140
C27	C	0.277970	0.452875	-0.454680
C28	C	0.351221	0.455933	-0.457735
C29	C	0.391722	0.410763	-0.412499
N30	N	0.502762	0.373571	-0.375244
N31	N	0.466595	0.413891	-0.415633
C32	C	0.976138	0.576162	-0.402853
C33	C	0.972699	0.654218	-0.406062
C34	C	1.017846	0.691033	-0.364485
C35	C	1.014616	0.764376	-0.367508
C36	C	0.966234	0.800902	-0.412104
C37	C	0.921085	0.764082	-0.453685
C38	C	0.924319	0.690741	-0.450666
C39	C	0.954132	1.022338	-0.423379
C40	C	0.950900	1.095684	-0.426394
C41	C	1.044432	1.095973	-0.340218
C42	C	1.047659	1.022630	-0.337199
C43	C	1.002512	0.985817	-0.378783
C44	C	0.962930	0.875870	-0.415193
C45	C	1.005821	0.910850	-0.375697
C46	C	1.167265	0.401380	-0.403101
C47	C	1.245223	0.404648	-0.406377
C48	C	0.976677	0.400710	-0.578978
C49	C	0.973418	0.403693	-0.657203
C50	C	0.992556	1.210551	-0.387968
C51	C	0.996047	1.132499	-0.384818
C52	C	0.950046	0.425139	-1.097523
C53	C	0.953106	0.422326	-1.024021
C54	C	1.001513	0.377895	-0.987332
C55	C	1.046858	0.336269	-1.024148
C56	C	1.043795	0.339079	-1.097647
C57	C	1.015700	0.364876	-0.767518
C58	C	1.018762	0.362071	-0.694014
C59	C	0.925007	0.448127	-0.693892
C60	C	0.921951	0.450936	-0.767394
C61	C	0.967294	0.409307	-0.804202
N62	N	1.004643	0.375021	-0.912202
N63	N	0.964159	0.412178	-0.879331
C64	C	0.991985	0.386692	-0.212560
C65	C	0.995389	0.383517	-0.134333
H66	H	0.259064	0.320208	-0.321813
H67	H	0.887557	0.660767	-0.484523
O68	O	0.874958	0.494195	-0.802951
C69	C	0.887902	0.564138	-0.788481
H70	H	0.917028	0.564676	-0.736310
H71	H	0.835973	0.593408	-0.785106
H72	H	0.921170	0.590888	-0.832323
O73	O	0.881063	0.488594	-0.658059
C74	C	0.920727	0.534010	-0.619079
H75	H	0.975454	0.511054	-0.609302
H76	H	0.893893	0.540245	-0.566573
H77	H	0.924908	0.587457	-0.649840
O78	O	0.730768	0.290655	-0.292351
C79	C	0.773518	0.248673	-0.332418
H80	H	0.749336	0.245613	-0.386759
H81	H	0.777823	0.193658	-0.304882
H82	H	0.827960	0.272797	-0.338013
O83	O	0.874180	0.799645	-0.497048
C84	C	0.910311	0.845409	-0.545966
H85	H	0.964034	0.857643	-0.523873
H86	H	0.879067	0.896165	-0.556295
H87	H	0.917050	0.819426	-0.597286
H88	H	1.045216	0.881109	-0.339390
H89	H	0.923536	0.905618	-0.451502
O90	O	0.902960	0.468316	-1.133049
C91	C	0.863607	0.504460	-1.084795
H92	H	0.864658	0.473592	-1.031133
H93	H	0.807123	0.510443	-1.104010
H94	H	0.887215	0.558572	-1.080222
O95	O	0.570963	0.468824	-0.470511
C96	C	0.528237	0.510822	-0.430438
H97	H	0.520590	0.483476	-0.375673
H98	H	0.475115	0.519218	-0.457318
H99	H	0.554455	0.563732	-0.425917
O100	O	1.059646	0.324357	-0.803287
C101	C	1.019981	0.278958	-0.842287
H102	H	0.965857	0.271468	-0.817641
H103	H	1.047740	0.226009	-0.841978
H104	H	1.014273	0.302685	-0.898776
O105	O	1.065714	0.318808	-0.658391
C106	C	1.052802	0.248860	-0.672864
H107	H	0.996090	0.243731	-0.690573
H108	H	1.062415	0.212585	-0.623365
H109	H	1.089458	0.233704	-0.716355
H110	H	0.916189	0.456226	-0.994054
O111	O	1.064905	0.655665	-0.321147
C112	C	1.104048	0.703889	-0.285087
H113	H	1.102948	0.757353	-0.316170
H114	H	1.160562	0.684685	-0.279071
H115	H	1.080287	0.708624	-0.230862
H116	H	1.086270	0.300090	-0.994269
O117	O	1.087914	0.298625	-1.133300
C118	C	1.131285	0.258793	-1.085158
H119	H	1.134605	0.285656	-1.034035
H120	H	1.185997	0.254431	-1.108415
H121	H	1.108326	0.204085	-1.074094
H122	H	0.391947	0.325764	-0.327362
O123	O	0.715331	0.474851	-0.476714
C124	C	0.663871	0.514066	-0.515973
H125	H	0.612843	0.483220	-0.515099
H126	H	0.682396	0.524640	-0.572606
H127	H	0.654763	0.566049	-0.491963
H128	H	1.051379	0.794347	-0.333651
H129	H	1.087055	0.992892	-0.300886
O130	O	0.382918	0.502797	-0.504717
C131	C	0.331461	0.542016	-0.543976
H132	H	0.280433	0.511171	-0.543108
H133	H	0.349990	0.552595	-0.600607
H134	H	0.322352	0.593996	-0.519961
O135	O	0.238523	0.496674	-0.498593
C136	C	0.166848	0.483648	-0.485524
H137	H	0.160225	0.428127	-0.459932
H138	H	0.136609	0.489339	-0.537268
H139	H	0.145752	0.522945	-0.448807
O140	O	0.586223	0.284749	-0.286241
C141	C	0.512885	0.291719	-0.293248
H142	H	0.499497	0.346407	-0.317997
H143	H	0.487449	0.283696	-0.239179
H144	H	0.492408	0.250691	-0.328234
O145	O	1.088263	1.131844	-0.299905
C146	C	1.075027	1.204409	-0.312119
H147	H	1.049301	1.215528	-0.365855
H148	H	1.126540	1.234256	-0.310752
H149	H	1.038540	1.222121	-0.269630
H150	H	0.911510	1.125422	-0.462722
O151	O	0.910197	0.986689	-0.463786
C152	C	0.866809	1.034659	-0.503799
H153	H	0.863309	1.085754	-0.477022
H154	H	0.812160	1.011487	-0.508059
H155	H	0.889871	1.045523	-0.558672
