data_functionalizedCrystal
_audit_creation_method	'MofGen! by Chris Wilmer'
_symmetry_space_group_name_H-M	'P1'
_symmetry_Int_Tables_number	1
_symmetry_cell_setting	triclinic
loop_
_symmetry_equiv_pos_as_xyz
  x,y,z
_cell_length_a	13.596369
_cell_length_b	14.519709
_cell_length_c	14.519709
_cell_angle_alpha	96.319855
_cell_angle_beta	90.006965
_cell_angle_gamma	90.004651
loop_
_atom_site_label
_atom_site_type_symbol
_atom_site_fract_x
_atom_site_fract_y
_atom_site_fract_z
O1	O	0.081665	-1.223863	0.120893
O2	O	0.581665	-0.723863	0.620893
O3	O	0.081696	-0.955386	0.135130
O4	O	0.581696	-0.455386	0.635130
O5	O	0.081671	-1.096742	-0.006227
O6	O	0.581671	-0.596742	0.493773
O7	O	0.081690	-1.082506	0.262250
O8	O	0.581690	-0.582506	0.762250
O9	O	-0.081912	-1.096740	-0.006236
O10	O	0.418088	-0.596740	0.493764
O11	O	-0.081887	-0.955383	0.135121
O12	O	0.418113	-0.455383	0.635121
O13	O	-0.081917	-1.223860	0.120885
O14	O	0.418083	-0.723860	0.620885
Zn15	Zn	-0.107875	-1.089621	0.128001
Zn16	Zn	0.392125	-0.589621	0.628001
Zn17	Zn	0.107653	-1.089624	0.128013
Zn18	Zn	0.607653	-0.589624	0.628013
O19	O	-0.081893	-1.082504	0.262241
O20	O	0.418107	-0.582504	0.762241
C21	C	-0.000092	-0.921025	0.134462
C22	C	0.499908	-0.421025	0.634462
C23	C	-0.000081	-0.818643	0.132474
C24	C	0.499919	-0.318643	0.632474
N25	N	0.254745	-1.089627	0.128014
N26	N	0.754745	-0.589627	0.628014
C27	C	-0.000121	-1.096078	-0.040591
C28	C	0.499879	-0.596078	0.459409
C29	C	-0.000121	-1.094090	-0.142972
C30	C	0.499879	-0.594090	0.357028
N31	N	-0.254966	-1.089626	0.127993
N32	N	0.245034	-0.589626	0.627993
C33	C	0.656036	-1.089622	0.128004
C34	C	1.156036	-0.589622	0.628004
C35	C	0.544384	-1.089620	0.128010
C36	C	1.044384	-0.589620	0.628010
C37	C	0.455394	-1.089624	0.128009
C38	C	0.955394	-0.589624	0.628009
C39	C	0.343735	-1.089624	0.128015
C40	C	0.843735	-0.589624	0.628015
C41	C	-0.000128	-1.258221	0.121553
C42	C	0.499872	-0.758221	0.621553
C43	C	-0.000132	-1.360602	0.123541
C44	C	0.499868	-0.860602	0.623541
C45	C	-0.000126	-0.443748	0.125154
C46	C	0.499874	0.056252	0.625154
C47	C	-0.000113	-0.548056	0.127187
C48	C	0.499887	-0.048056	0.627187
C49	C	-0.000102	-0.631192	0.128814
C50	C	0.499898	-0.131192	0.628814
C51	C	-0.000091	-0.735507	0.130847
C52	C	0.499909	-0.235507	0.630847
C53	C	-0.000095	-1.086770	-0.517868
C54	C	0.499905	-0.586770	-0.017868
C55	C	-0.000102	-1.088803	-0.413560
C56	C	0.499898	-0.588803	0.086440
C57	C	-0.000109	-1.090430	-0.330423
C58	C	0.499891	-0.590430	0.169577
C59	C	-0.000114	-1.092463	-0.226109
C60	C	0.499886	-0.592463	0.273891
C61	C	-0.000099	-1.083168	0.296605
C62	C	0.499901	-0.583168	0.796605
C63	C	-0.000092	-1.085156	0.398987
C64	C	0.499908	-0.585156	0.898987
