data_functionalizedCrystal
_audit_creation_method	'MofGen! by Chris Wilmer'
_symmetry_space_group_name_H-M	'P1'
_symmetry_Int_Tables_number	1
_symmetry_cell_setting	triclinic
loop_
_symmetry_equiv_pos_as_xyz
  x,y,z
_cell_length_a	14.519709
_cell_length_b	22.010155
_cell_length_c	14.519731
_cell_angle_alpha	89.990057
_cell_angle_beta	83.684499
_cell_angle_gamma	89.996249
loop_
_atom_site_label
_atom_site_type_symbol
_atom_site_fract_x
_atom_site_fract_y
_atom_site_fract_z
O1	O	1.223876	0.050447	0.120869
O2	O	1.723876	0.550447	0.620869
O3	O	0.955400	0.050466	0.135106
O4	O	1.455400	0.550466	0.635106
O5	O	1.096746	0.050451	-0.006250
O6	O	1.596746	0.550451	0.493750
O7	O	1.082530	0.050463	0.262225
O8	O	1.582530	0.550463	0.762225
O9	O	1.096736	-0.050600	-0.006212
O10	O	1.596736	0.449400	0.493788
O11	O	0.955390	-0.050584	0.135143
O12	O	1.455390	0.449416	0.635143
O13	O	1.223866	-0.050603	0.120906
O14	O	1.723866	0.449397	0.620906
Cu15	Cu	1.089627	-0.059820	0.128028
Cu16	Cu	1.589627	0.440180	0.628028
Cu17	Cu	1.089638	0.059683	0.127984
Cu18	Cu	1.589638	0.559683	0.627984
O19	O	1.082520	-0.050588	0.262262
O20	O	1.582520	0.449412	0.762262
C21	C	0.921035	-0.000057	0.134461
C22	C	1.421035	0.499943	0.634461
C23	C	0.818654	-0.000050	0.132473
C24	C	1.318654	0.499950	0.632473
N25	N	1.089626	-0.143873	0.128058
N26	N	1.589626	0.356127	0.628058
C27	C	0.443757	-0.000078	0.125153
C28	C	0.943757	0.499922	0.625153
C29	C	0.548065	-0.000070	0.127186
C30	C	1.048065	0.499930	0.627186
C31	C	0.631202	-0.000063	0.128813
C32	C	1.131202	0.499937	0.628813
C33	C	0.735517	-0.000056	0.130846
C34	C	1.235517	0.499944	0.630846
C35	C	1.027016	-0.436478	0.190577
C36	C	1.527016	0.063522	0.690577
C37	C	1.027014	-0.372870	0.190585
C38	C	1.527014	0.127130	0.690585
O39	O	0.973753	-0.339973	0.243779
O40	O	1.473753	0.160027	0.743779
N41	N	1.089618	-0.341057	0.128023
N42	N	1.589618	0.158943	0.628023
C43	C	1.152223	-0.372854	0.065443
C44	C	1.652223	0.127146	0.565443
O45	O	1.205472	-0.339954	0.012229
O46	O	1.705472	0.160046	0.512229
C47	C	1.152220	-0.436461	0.065431
C48	C	1.652220	0.063539	0.565431
C49	C	1.089618	-0.468271	0.128003
C50	C	1.589618	0.031729	0.628003
C51	C	0.964418	-0.468288	0.253144
C52	C	1.464418	0.031712	0.753144
C53	C	0.964421	-0.531891	0.253136
C54	C	1.464421	-0.031891	0.753136
C55	C	1.027023	-0.563684	0.190562
C56	C	1.527023	-0.063684	0.690562
C57	C	1.089621	-0.531874	0.127996
C58	C	1.589621	-0.031874	0.627996
C59	C	1.214820	-0.468257	0.002846
C60	C	1.714820	0.031743	0.502846
C61	C	1.214811	-0.531868	0.002839
C62	C	1.714811	-0.031868	0.502839
C63	C	1.152209	-0.563678	0.065412
C64	C	1.652209	-0.063678	0.565412
C65	C	1.152227	-0.627271	0.065414
C66	C	1.652227	-0.127271	0.565414
N67	N	1.089622	-0.659084	0.127976
N68	N	1.589622	-0.159084	0.627976
C69	C	1.027020	-0.627291	0.190550
C70	C	1.527020	-0.127291	0.690550
C71	C	1.152223	-0.239277	0.065472
C72	C	1.652223	0.260723	0.565472
C73	C	1.152231	-0.175671	0.065487
C74	C	1.652231	0.324329	0.565487
C75	C	1.027020	-0.175692	0.190629
C76	C	1.527020	0.324308	0.690629
C77	C	1.027017	-0.239298	0.190617
C78	C	1.527017	0.260702	0.690617
C79	C	1.089618	-0.271090	0.128034
C80	C	1.589618	0.228910	0.628034
C81	C	1.027033	-0.760862	0.190531
C82	C	1.527033	-0.260862	0.690531
C83	C	1.027045	-0.824471	0.190520
C84	C	1.527045	-0.324471	0.690520
C85	C	1.152253	-0.824445	0.065376
C86	C	1.652253	-0.324445	0.565376
C87	C	1.152244	-0.760842	0.065389
C88	C	1.652244	-0.260842	0.565389
C89	C	1.089627	-0.729052	0.127970
C90	C	1.589627	-0.229052	0.627970
O91	O	1.205457	-0.660208	0.012246
O92	O	1.705457	-0.160208	0.512246
O93	O	0.973772	-0.660199	0.243747
O94	O	1.473772	-0.160199	0.743747
C95	C	1.258230	-0.000079	0.121551
C96	C	1.758230	0.499921	0.621551
C97	C	1.360612	-0.000082	0.123540
C98	C	1.860612	0.499918	0.623540
C99	C	1.096075	-0.000075	-0.040591
C100	C	1.596075	0.499925	0.459409
C101	C	1.094079	-0.000075	-0.142971
C102	C	1.594079	0.499925	0.357029
N103	N	1.089647	0.143736	0.127946
N104	N	1.589647	0.643736	0.627946
C105	C	1.092457	-0.000073	-0.226115
C106	C	1.592457	0.499927	0.273885
C107	C	1.090430	-0.000068	-0.330424
C108	C	1.590430	0.499932	0.169576
C109	C	1.088822	-0.000064	-0.413563
C110	C	1.588822	0.499936	0.086437
C111	C	1.086795	-0.000061	-0.517878
C112	C	1.586795	0.499939	-0.017878
C113	C	1.083191	-0.000061	0.296603
C114	C	1.583191	0.499939	0.796603
C115	C	1.085187	-0.000057	0.398983
C116	C	1.585187	0.499943	0.898983
H117	H	0.976067	-0.850369	0.241477
H118	H	1.476067	-0.350369	0.741477
H119	H	1.203230	-0.734942	0.014446
H120	H	1.703230	-0.234942	0.514446
H121	H	0.976045	-0.149794	0.241579
H122	H	1.476045	0.350206	0.741579
F123	F	1.218877	-0.858291	-0.001216
F124	F	1.718877	-0.358291	0.498784
F125	F	1.218862	-0.273107	-0.001137
F126	F	1.718862	0.226893	0.498863
F127	F	0.960389	-0.727038	0.257137
F128	F	1.460389	-0.227038	0.757137
F129	F	0.897788	-0.565740	0.319730
F130	F	1.397788	-0.065740	0.819730
H131	H	0.913435	-0.442408	0.304099
H132	H	1.413435	0.057592	0.804099
H133	H	1.203217	-0.149776	0.014545
H134	H	1.703217	0.350224	0.514545
F135	F	1.281449	-0.434414	-0.063753
F136	F	1.781449	0.065586	0.436247
H137	H	0.976041	-0.265194	0.241568
H138	H	1.476041	0.234806	0.741568
H139	H	1.265788	-0.557750	-0.048127
H140	H	1.765788	-0.057750	0.451873
