data_functionalizedCrystal
_audit_creation_method	'MofGen! by Chris Wilmer'
_symmetry_space_group_name_H-M	'P1'
_symmetry_Int_Tables_number	1
_symmetry_cell_setting	triclinic
loop_
_symmetry_equiv_pos_as_xyz
  x,y,z
_cell_length_a	14.519731
_cell_length_b	19.188930
_cell_length_c	17.666332
_cell_angle_alpha	90.023234
_cell_angle_beta	90.007449
_cell_angle_gamma	83.416816
loop_
_atom_site_label
_atom_site_type_symbol
_atom_site_fract_x
_atom_site_fract_y
_atom_site_fract_z
O1	O	0.115136	0.926566	0.063193
O2	O	0.130635	0.723311	0.063142
O3	O	-0.011385	0.830320	0.063162
O4	O	0.257156	0.819557	0.063173
O5	O	-0.011393	0.830301	-0.062735
O6	O	0.130627	0.723292	-0.062755
O7	O	0.115128	0.926547	-0.062703
Cu8	Cu	0.122877	0.824918	-0.074225
Cu9	Cu	0.122886	0.824940	0.074663
O10	O	0.257148	0.819539	-0.062724
C11	C	-0.045745	0.829806	0.000213
C12	C	-0.148116	0.828295	0.000213
C13	C	0.130129	0.697289	0.000187
C14	C	0.128623	0.619779	0.000167
C15	C	-0.231253	0.827067	0.000214
C16	C	-0.335552	0.825533	0.000219
C17	C	-0.418683	0.824315	0.000224
C18	C	-0.522989	0.822781	0.000228
C19	C	0.211955	0.575156	0.000182
C20	C	0.210540	0.502327	0.000190
C21	C	0.125787	0.474124	0.000199
C22	C	0.042443	0.518756	0.000179
C23	C	0.043861	0.591584	0.000163
N24	N	0.061006	0.365916	0.043074
N25	N	0.059665	0.296733	0.043091
C26	C	0.121510	0.254700	0.000245
N27	N	0.184760	0.284463	-0.042610
N28	N	0.186104	0.353653	-0.042623
C29	C	0.124240	0.395156	0.000215
C30	C	0.203313	0.131108	0.000268
C31	C	0.201894	0.058278	0.000271
C32	C	0.033795	0.074708	0.000268
C33	C	0.035217	0.147537	0.000256
C34	C	0.119978	0.175732	0.000260
C35	C	0.291508	0.820052	0.000227
C36	C	0.393879	0.821563	0.000233
C37	C	0.115634	0.952570	0.000253
C38	C	0.117141	1.030080	0.000278
N39	N	0.122870	0.824908	-0.178944
C40	C	0.060015	0.872307	-0.218545
C41	C	0.060010	0.872311	-0.297792
C42	C	0.122877	0.824922	-0.337436
C43	C	0.185738	0.777514	-0.297826
C44	C	0.185734	0.777507	-0.218580
N45	N	0.204515	0.816141	-0.461853
N46	N	0.204515	0.816153	-0.537133
C47	C	0.122890	0.824941	-0.576200
N48	N	0.041262	0.833731	-0.537143
N49	N	0.041263	0.833723	-0.461855
C50	C	0.122888	0.824925	-0.423365
C51	C	0.060024	0.872347	-0.701730
C52	C	0.060019	0.872346	-0.780979
C53	C	0.185755	0.777553	-0.781011
C54	C	0.185752	0.777551	-0.701764
C55	C	0.122888	0.824951	-0.662128
N56	N	0.122885	0.824956	0.179382
H57	H	0.280975	0.598108	0.000187
F58	F	0.252657	0.727115	-0.823199
F59	F	0.290594	0.010787	0.000284
F60	F	-0.006893	0.922751	-0.176363
F61	F	-0.053479	0.195029	0.000244
H62	H	0.272331	0.154065	0.000260
H63	H	-0.035212	0.051746	0.000321
F64	F	0.252656	0.727105	-0.659614
H65	H	0.008823	0.910910	-0.330041
H66	H	0.008834	0.910941	-0.669457
H67	H	0.236924	0.738929	-0.330108
H68	H	0.236920	0.738908	-0.186336
H69	H	0.278401	0.465989	0.000201
F70	F	-0.047757	0.488740	0.000184
F71	F	-0.044837	0.639076	0.000147
H72	H	0.008829	0.910942	-0.813223
