data_functionalizedCrystal
_audit_creation_method	'MofGen! by Chris Wilmer'
_symmetry_space_group_name_H-M	'P1'
_symmetry_Int_Tables_number	1
_symmetry_cell_setting	triclinic
loop_
_symmetry_equiv_pos_as_xyz
  x,y,z
_cell_length_a	25.993458
_cell_length_b	25.993459
_cell_length_c	25.993511
_cell_angle_alpha	59.998162
_cell_angle_beta	89.999156
_cell_angle_gamma	60.000225
loop_
_atom_site_label
_atom_site_type_symbol
_atom_site_fract_x
_atom_site_fract_y
_atom_site_fract_z
O1	O	-0.438486	-0.368218	0.015293
O2	O	-0.363675	-0.262871	-0.015241
O3	O	-0.363672	-0.368217	0.090105
O4	O	-0.438489	-0.262872	-0.090053
O5	O	-0.278107	-0.453782	0.090105
O6	O	-0.278110	-0.348435	-0.015242
O7	O	-0.352922	-0.453782	0.015293
Zn8	Zn	-0.301931	-0.414694	0.000025
Zn9	Zn	-0.414666	-0.301959	0.000026
O10	O	-0.352925	-0.348436	-0.090054
C11	C	-0.277316	-0.161982	-0.022175
C12	C	-0.309062	-0.098492	-0.017804
C13	C	-0.215401	-0.192794	-0.022608
C14	C	-0.277319	-0.255138	-0.022182
C15	C	-0.309067	-0.291250	-0.017818
C16	C	-0.215403	-0.285808	-0.022615
C17	C	-0.184156	-0.255142	-0.022175
C18	C	-0.116294	-0.291259	-0.017803
C19	C	-0.308422	-0.192790	-0.022615
C20	C	-0.621955	-0.565869	0.037072
C21	C	-0.590709	-0.628219	0.037508
C22	C	-0.528796	-0.565867	0.037069
C23	C	-0.497692	-0.628217	0.037505
C24	C	-0.528795	-0.659029	0.037072
C25	C	-0.590710	-0.535199	0.037505
C26	C	-0.722642	-0.464940	0.029513
C27	C	-0.786264	-0.430643	0.024742
C28	C	-0.818173	-0.460083	0.022351
C29	C	-0.887157	-0.422897	0.017175
C30	C	-0.786465	-0.523827	0.024735
C31	C	-0.722845	-0.558124	0.029508
C32	C	-0.690936	-0.528678	0.031894
C33	C	-0.529037	-0.752158	0.029515
C34	C	-0.499712	-0.811010	0.024744
C35	C	-0.438364	-0.840525	0.022349
C36	C	-0.406566	-0.904333	0.017173
C37	C	-0.406330	-0.811198	0.024730
C38	C	-0.435652	-0.752352	0.029503
C39	C	-0.497006	-0.722832	0.031893
C40	C	-0.529039	-0.464935	0.029505
C41	C	-0.499717	-0.430630	0.024723
C42	C	-0.438369	-0.460069	0.022328
C43	C	-0.406571	-0.422880	0.017149
C44	C	-0.406337	-0.523807	0.024709
C45	C	-0.435656	-0.558111	0.029489
C46	C	-0.497007	-0.528673	0.031887
C47	C	-0.528800	-0.150795	-0.471170
C48	C	-0.590715	-0.088445	-0.502276
C49	C	-0.528801	-0.150794	-0.378010
C50	C	-0.590716	-0.088444	-0.409257
C51	C	-0.621962	-0.057634	-0.471172
C52	C	-0.497696	-0.181464	-0.409255
C53	C	-0.435430	-0.251726	-0.470926
C54	C	-0.405903	-0.286024	-0.500250
C55	C	-0.437736	-0.256585	-0.561599
C56	C	-0.405725	-0.293773	-0.593395
C57	C	-0.499096	-0.192842	-0.593635
C58	C	-0.528620	-0.158544	-0.564313
C59	C	-0.496787	-0.187988	-0.502959
C60	C	-0.722649	0.035493	-0.564543
C61	C	-0.786272	0.094345	-0.594071
C62	C	-0.818182	0.123861	-0.562238
C63	C	-0.887167	0.187669	-0.594249
C64	C	-0.786474	0.094536	-0.500878
C65	C	-0.722854	0.035690	-0.471354
C66	C	-0.690944	0.006168	-0.503186
C67	C	-0.435431	-0.251724	-0.277321
C68	C	-0.405908	-0.286027	-0.213695
C69	C	-0.437741	-0.256588	-0.181786
C70	C	-0.405731	-0.293774	-0.112801
C71	C	-0.499099	-0.192850	-0.213493
C72	C	-0.528625	-0.158547	-0.277116
C73	C	-0.496788	-0.187987	-0.309028
O74	O	0.090091	-0.453793	0.015309
O75	O	-0.090066	-0.348444	-0.015226
O76	O	0.015273	-0.453795	0.090120
O77	O	-0.015248	-0.348442	-0.090038
O78	O	0.015276	-0.368235	0.090127
O79	O	-0.090063	-0.262884	-0.015220
O80	O	0.090094	-0.368232	0.015315
Zn81	Zn	0.000016	-0.301973	0.000049
Zn82	Zn	0.000012	-0.414703	0.000040
O83	O	-0.015245	-0.262881	-0.090031
O84	O	-0.352917	0.074778	0.015314
O85	O	-0.278103	-0.074844	-0.015220
O86	O	-0.278107	-0.074853	0.090126
O87	O	-0.352914	0.074787	-0.090033
O88	O	-0.363674	-0.074850	0.090119
O89	O	-0.363670	-0.074840	-0.015227
O90	O	-0.438484	0.074782	0.015307
Zn91	Zn	-0.414663	-0.000029	0.000039
Zn92	Zn	-0.301925	-0.000034	0.000048
O93	O	-0.438481	0.074791	-0.090039
O94	O	-1.090075	0.358185	-0.636308
O95	O	-0.909918	0.208556	-0.561490
O96	O	-1.015259	0.208553	-0.561488
O97	O	-0.984734	0.358188	-0.636310
O98	O	-1.015257	0.208552	-0.647052
O99	O	-0.909916	0.208554	-0.647054
O100	O	-1.090073	0.358183	-0.721872
Zn101	Zn	-0.999994	0.283368	-0.698048
Zn102	Zn	-0.999997	0.283371	-0.585314
O103	O	-0.984732	0.358186	-0.721874
O104	O	-0.363672	-0.368217	-0.721856
O105	O	-0.438486	-0.262875	-0.647043
O106	O	-0.438485	-0.368220	-0.647039
O107	O	-0.363673	-0.262872	-0.721860
O108	O	-0.352919	-0.453785	-0.561473
O109	O	-0.352920	-0.348441	-0.561477
O110	O	-0.278106	-0.453783	-0.636290
Zn111	Zn	-0.301928	-0.414697	-0.585298
Zn112	Zn	-0.414664	-0.301961	-0.698035
O113	O	-0.278107	-0.348438	-0.636294
C114	C	-0.184157	-0.554680	0.277358
C115	C	-0.116295	-0.618172	0.309104
C116	C	-0.215402	-0.523869	0.308461
C117	C	-0.277317	-0.461519	0.184196
C118	C	-0.309064	-0.425404	0.116335
C119	C	-0.308422	-0.430850	0.215442
C120	C	-0.277317	-0.461519	0.277356
C121	C	-0.309064	-0.425404	0.309102
C122	C	-0.215403	-0.523869	0.215443
C123	C	0.022216	-0.461546	0.277378
C124	C	0.017847	-0.425434	0.309127
C125	C	0.022649	-0.523895	0.308480
C126	C	0.022218	-0.461539	0.184215
C127	C	0.017852	-0.425421	0.116353
C128	C	0.022651	-0.523888	0.215458
C129	C	0.022213	-0.554702	0.277373
C130	C	0.017842	-0.618193	0.309116
C131	C	0.022654	-0.430874	0.215464
C132	C	-0.277320	-0.255179	0.277365
C133	C	-0.309067	-0.291295	0.309105
C134	C	-0.215404	-0.285854	0.308471
C135	C	-0.277318	-0.162008	0.184211
C136	C	-0.309065	-0.098506	0.116351
C137	C	-0.215403	-0.192825	0.215459
C138	C	-0.184157	-0.255183	0.277372
C139	C	-0.116295	-0.291304	0.309120
C140	C	-0.308424	-0.192820	0.215452
C141	C	-0.036996	-0.057627	-0.471149
C142	C	-0.037431	-0.088434	-0.502256
C143	C	-0.037001	-0.150789	-0.377991
C144	C	-0.037436	-0.181455	-0.409239
C145	C	-0.036998	-0.150783	-0.471154
C146	C	-0.037433	-0.088440	-0.409234
C147	C	-0.029433	0.035497	-0.470902
C148	C	-0.024659	0.094348	-0.500225
C149	C	-0.022263	0.123866	-0.561574
C150	C	-0.017083	0.187673	-0.593369
C151	C	-0.024646	0.094544	-0.593611
C152	C	-0.029422	0.035698	-0.564291
C153	C	-0.031813	0.006175	-0.502936
C154	C	-0.029436	-0.158096	-0.564526
C155	C	-0.024665	-0.192189	-0.594055
C156	C	-0.022273	-0.255931	-0.562224
C157	C	-0.017096	-0.292903	-0.594236
C158	C	-0.024659	-0.285585	-0.500864
C159	C	-0.029433	-0.251492	-0.471338
C160	C	-0.031819	-0.187750	-0.503169
C161	C	-0.029443	-0.158113	-0.277301
C162	C	-0.024666	-0.192218	-0.213674
C163	C	-0.022275	-0.255960	-0.181767
C164	C	-0.017101	-0.292938	-0.112782
C165	C	-0.024655	-0.285608	-0.213475
C166	C	-0.029430	-0.251509	-0.277098
C167	C	-0.031824	-0.187761	-0.309009
O168	O	-0.015283	-0.348468	0.438547
O169	O	0.015263	-0.453813	0.363734
O170	O	-0.090086	-0.348466	0.363721
O171	O	0.090067	-0.453815	0.438560
O172	O	-0.090076	-0.262903	0.278160
O173	O	0.015274	-0.368250	0.278173
O174	O	-0.015273	-0.262904	0.352986
Zn175	Zn	0.000002	-0.301992	0.301995
Zn176	Zn	-0.000011	-0.414726	0.414725
O177	O	0.090077	-0.368251	0.352999
C178	C	-0.621954	0.434195	-0.471145
C179	C	-0.590708	0.464866	-0.502245
C180	C	-0.528793	0.341020	-0.377984
C181	C	-0.497688	0.371833	-0.409225
C182	C	-0.528792	0.434191	-0.471138
C183	C	-0.590709	0.371836	-0.409233
C184	C	-0.722643	0.441515	-0.470910
C185	C	-0.786267	0.475617	-0.500237
C186	C	-0.818176	0.539368	-0.561584
C187	C	-0.887162	0.576348	-0.593384
C188	C	-0.786467	0.569022	-0.593614
C189	C	-0.722846	0.534920	-0.564289
C190	C	-0.690937	0.471170	-0.502938
C191	C	-0.529033	0.535130	-0.564499
C192	C	-0.499707	0.569430	-0.594020
C193	C	-0.438357	0.539984	-0.562184
C194	C	-0.406558	0.577173	-0.594188
C195	C	-0.406323	0.476234	-0.500827
C196	C	-0.435646	0.441934	-0.471308
C197	C	-0.497001	0.471385	-0.503145
C198	C	-0.529036	0.247880	-0.277303
C199	C	-0.499713	0.189024	-0.213679
C200	C	-0.438364	0.159502	-0.181766
C201	C	-0.406566	0.095685	-0.112783
C202	C	-0.406331	0.188830	-0.213467
C203	C	-0.435651	0.247685	-0.277089
C204	C	-0.497003	0.277207	-0.309004
H205	H	-0.190320	-0.335979	-0.023316
H206	H	-0.031386	0.011466	-0.420946
C207	C	-0.181508	-0.157966	-0.023541
N208	N	-0.155978	-0.131738	-0.024241
C209	C	-0.400408	-0.284112	-0.312421
N210	N	-0.374029	-0.308510	-0.338857
C211	C	0.023596	-0.558719	0.181565
N212	N	0.024308	-0.584954	0.156038
C213	C	-0.377150	-0.157947	-0.023572
N214	N	-0.428916	-0.131702	-0.024297
H215	H	-0.190315	-0.549659	0.359334
C216	C	-0.181519	-0.353635	0.377198
N217	N	-0.155997	-0.404684	0.428961
H218	H	0.023354	-0.380702	0.190382
C219	C	-0.624600	-0.467418	0.038447
N220	N	-0.650125	-0.416366	0.039157
C221	C	-0.428966	-0.663053	0.038452
N222	N	-0.377204	-0.689292	0.039167
H223	H	-0.359291	-0.380672	0.190350
H224	H	-0.409504	-0.275702	-0.420969
C225	C	-0.821138	-0.360528	0.022118
N226	N	-0.847406	-0.307717	0.020143
H227	H	0.023338	-0.549675	0.359349
H228	H	-0.615797	-0.654004	0.038210
H229	H	-0.022704	-0.337517	-0.187490
H230	H	-0.190317	-0.167038	0.190373
H231	H	-0.578993	-0.728129	0.031465
H232	H	-0.359295	-0.167034	0.190366
H233	H	-0.525803	-0.378735	0.022786
H234	H	-0.038138	-0.231626	-0.384153
C235	C	-0.038376	-0.053594	-0.570982
N236	N	-0.039088	-0.027355	-0.622744
C237	C	-0.821571	-0.556215	0.022111
N238	N	-0.848009	-0.580614	0.020139
H239	H	-0.190308	-0.549645	0.190353
C240	C	-0.338412	-0.356138	-0.465008
N241	N	-0.287575	-0.408949	-0.438464
H242	H	-0.022734	-0.168068	-0.187865
H243	H	-0.038084	-0.062687	-0.384132
H244	H	-0.031396	-0.106204	-0.303280
C245	C	-0.022036	0.126594	-0.464981
N246	N	-0.020061	0.150885	-0.438437
H247	H	-0.578992	-0.440963	0.031461
H248	H	-0.696663	-0.440962	0.031460
C249	C	-0.687964	-0.628246	0.032142
N250	N	-0.661690	-0.681065	0.034129
H251	H	-0.022694	0.118587	-0.643568
H252	H	-0.525801	-0.834882	0.022808
C253	C	-0.624598	0.532656	-0.570967
N254	N	-0.650124	0.583714	-0.622726
H255	H	-0.031353	0.011819	-0.590373
H256	H	-0.031381	-0.106192	-0.590450
C257	C	-0.032050	-0.284123	-0.311977
N258	N	-0.034024	-0.308689	-0.338247
H259	H	-0.356363	0.452259	-0.474909
C260	C	-0.596113	-0.088428	-0.599551
N261	N	-0.646949	-0.035617	-0.626093
C262	C	-0.022039	-0.159567	-0.661547
N263	N	-0.020059	-0.135000	-0.712383
H264	H	-0.022713	-0.337491	-0.474950
H265	H	-0.031379	-0.275635	-0.421380
C266	C	-0.428967	0.336999	-0.375328
N267	N	-0.377208	0.310767	-0.349797
C268	C	-0.338847	-0.556192	0.022074
N269	N	-0.288013	-0.580584	0.020092
C270	C	-0.624602	0.337004	-0.375347
N271	N	-0.650129	0.310769	-0.349823
H272	H	-0.356374	-0.835235	0.022774
H273	H	-0.409570	-0.728473	0.031438
C274	C	-0.338839	0.156351	-0.178360
N275	N	-0.288002	0.131883	-0.151916
H276	H	-0.525799	0.165148	-0.187874
C277	C	-0.624605	-0.053608	-0.375369
N278	N	-0.650130	-0.027368	-0.349846
H279	H	-0.578991	0.271911	-0.303287
H280	H	-0.615794	-0.062654	-0.553151
H281	H	-0.696664	0.389604	-0.420956
H282	H	-0.409573	-0.610008	0.031424
H283	H	-0.812078	0.451468	-0.474155
C284	C	-0.338413	-0.356133	-0.178824
N285	N	-0.287573	-0.408940	-0.152557
C286	C	-0.821577	0.639158	-0.661101
N287	N	-0.848019	0.691983	-0.711931
C288	C	-0.534113	-0.160463	-0.661124
N289	N	-0.560490	-0.136074	-0.711956
C290	C	-0.821144	0.126594	-0.661563
N291	N	-0.847414	0.150888	-0.712400
C292	C	-0.821586	0.127004	-0.465860
N293	N	-0.848030	0.151455	-0.439481
C294	C	-0.534949	0.639553	-0.661511
N295	N	-0.561491	0.692372	-0.712345
H296	H	-0.446824	-0.231634	-0.384172
H297	H	-0.696669	0.011463	-0.590469
C298	C	-0.534119	-0.160463	-0.178389
N299	N	-0.560493	-0.136070	-0.151948
H300	H	-0.697037	0.011820	-0.421397
H301	H	-0.578585	-0.106649	-0.302931
H302	H	-0.697029	0.559063	-0.590371
H303	H	-0.578988	0.559109	-0.590430
H304	H	-0.409562	0.390028	-0.421351
H305	H	-0.409566	0.271563	-0.302898
