data_functionalizedCrystal
_audit_creation_method	'MofGen! by Chris Wilmer'
_symmetry_space_group_name_H-M	'P1'
_symmetry_Int_Tables_number	1
_symmetry_cell_setting	triclinic
loop_
_symmetry_equiv_pos_as_xyz
  x,y,z
_cell_length_a	18.215407
_cell_length_b	18.215405
_cell_length_c	17.077396
_cell_angle_alpha	89.968409
_cell_angle_beta	89.980259
_cell_angle_gamma	90.025333
loop_
_atom_site_label
_atom_site_type_symbol
_atom_site_fract_x
_atom_site_fract_y
_atom_site_fract_z
Zn1	Zn	1.125071	-0.292975	-0.443831
Zn2	Zn	1.375071	-0.042975	-0.193831
Zn3	Zn	1.625071	0.207025	0.056169
Zn4	Zn	1.875071	0.457025	0.306169
Zn5	Zn	1.124980	-0.416049	-0.312558
Zn6	Zn	1.374980	-0.166049	-0.062558
Zn7	Zn	1.624980	0.083951	0.187442
Zn8	Zn	1.874980	0.333951	0.437442
Zn9	Zn	1.002004	-0.293002	-0.312578
Zn10	Zn	1.252004	-0.043002	-0.062578
Zn11	Zn	1.502004	0.206998	0.187422
Zn12	Zn	1.752004	0.456998	0.437422
Zn13	Zn	1.001970	-0.416006	-0.443781
Zn14	Zn	1.251970	-0.166006	-0.193781
Zn15	Zn	1.501970	0.083994	0.056219
Zn16	Zn	1.751970	0.333994	0.306219
O17	O	1.063506	-0.354508	-0.378187
O18	O	1.313506	-0.104508	-0.128187
O19	O	1.563506	0.145492	0.121813
O20	O	1.813506	0.395492	0.371813
O21	O	1.228043	-0.309309	-0.426430
O22	O	1.478043	-0.059309	-0.176430
O23	O	1.728043	0.190691	0.073570
O24	O	1.978043	0.440691	0.323570
O25	O	1.108643	-0.399756	-0.202713
O26	O	1.358643	-0.149756	0.047287
O27	O	1.608643	0.100244	0.297287
O28	O	1.858643	0.350244	0.547287
O29	O	1.018382	-0.190014	-0.330019
O30	O	1.268382	0.059986	-0.080019
O31	O	1.518382	0.309986	0.169981
O32	O	1.768382	0.559986	0.419981
O33	O	1.227976	-0.399730	-0.329984
O34	O	1.477976	-0.149730	-0.079984
O35	O	1.727976	0.100270	0.170016
O36	O	1.977976	0.350270	0.420016
O37	O	1.108799	-0.189995	-0.426449
O38	O	1.358799	0.060005	-0.176449
O39	O	1.608799	0.310005	0.073551
O40	O	1.858799	0.560005	0.323551
O41	O	1.018293	-0.309353	-0.202728
O42	O	1.268293	-0.059353	0.047272
O43	O	1.518293	0.190647	0.297272
O44	O	1.768293	0.440647	0.547272
O45	O	0.899015	-0.309311	-0.329970
O46	O	1.149015	-0.059311	-0.079970
O47	O	1.399015	0.190689	0.170030
O48	O	1.649015	0.440689	0.420030
O49	O	1.018323	-0.399656	-0.553634
O50	O	1.268323	-0.149656	-0.303634
O51	O	1.518323	0.100344	-0.053634
O52	O	1.768323	0.350344	0.196366
O53	O	0.898990	-0.399682	-0.426364
O54	O	1.148990	-0.149682	-0.176364
O55	O	1.398990	0.100318	0.073636
O56	O	1.648990	0.350318	0.323636
O57	O	1.108765	-0.309267	-0.553671
O58	O	1.358765	-0.059267	-0.303671
O59	O	1.608765	0.190733	-0.053671
O60	O	1.858765	0.440733	0.196329
O61	O	1.108610	-0.519028	-0.329935
O62	O	1.358610	-0.269028	-0.079935
O63	O	1.608610	-0.019028	0.170065
O64	O	1.858610	0.230972	0.420065
O65	O	1.018235	-0.518996	-0.426344
O66	O	1.268235	-0.268996	-0.176344
O67	O	1.518235	-0.018996	0.073656
O68	O	1.768235	0.231004	0.323656
C69	C	0.872300	-0.354495	-0.378164
C70	C	1.122300	-0.104495	-0.128164
C71	C	1.372300	0.145505	0.121836
C72	C	1.622300	0.395505	0.371836
C73	C	0.790501	-0.354508	-0.378173
C74	C	1.040501	-0.104508	-0.128173
C75	C	1.290501	0.145492	0.121827
C76	C	1.540501	0.395492	0.371827
C77	C	0.602313	-0.401638	-0.428303
C78	C	0.852313	-0.151638	-0.178303
C79	C	1.102313	0.098362	0.071697
C80	C	1.352313	0.348362	0.321697
C81	C	0.525455	-0.401640	-0.428312
C82	C	0.775455	-0.151640	-0.178312
C83	C	1.025455	0.098360	0.071688
C84	C	1.275455	0.348360	0.321688
C85	C	0.525451	-0.307392	-0.328088
C86	C	0.775451	-0.057392	-0.078088
C87	C	1.025451	0.192608	0.171912
C88	C	1.275451	0.442608	0.421912
C89	C	0.602309	-0.307386	-0.328083
C90	C	0.852309	-0.057386	-0.078083
C91	C	1.102309	0.192614	0.171917
C92	C	1.352309	0.442614	0.421917
C93	C	0.640738	-0.354513	-0.378189
C94	C	0.890738	-0.104513	-0.128189
C95	C	1.140738	0.145487	0.121811
C96	C	1.390738	0.395487	0.371811
C97	C	0.487022	-0.354521	-0.378204
C98	C	0.737022	-0.104521	-0.128204
C99	C	0.987022	0.145479	0.121796
C100	C	1.237022	0.395479	0.371796
C101	C	0.403688	-0.354523	-0.378214
C102	C	0.653688	-0.104523	-0.128214
C103	C	0.903688	0.145477	0.121786
C104	C	1.153688	0.395477	0.371786
C105	C	0.724077	-0.354510	-0.378180
C106	C	0.974077	-0.104510	-0.128180
C107	C	1.224077	0.145490	0.121820
C108	C	1.474077	0.395490	0.371820
C109	C	1.063429	-0.545714	-0.378149
C110	C	1.313429	-0.295714	-0.128149
C111	C	1.563429	-0.045714	0.121851
C112	C	1.813429	0.204286	0.371851
C113	C	1.063463	-0.627513	-0.378159
C114	C	1.313463	-0.377513	-0.128159
C115	C	1.563463	-0.127513	0.121841
C116	C	1.813463	0.122487	0.371841
C117	C	1.110631	-0.815699	-0.328051
C118	C	1.360631	-0.565699	-0.078051
C119	C	1.610631	-0.315699	0.171949
C120	C	1.860631	-0.065699	0.421949
C121	C	1.110664	-0.892558	-0.328070
C122	C	1.360664	-0.642558	-0.078070
C123	C	1.610664	-0.392558	0.171930
C124	C	1.860664	-0.142558	0.421930
C125	C	1.016475	-0.892565	-0.428379
C126	C	1.266475	-0.642565	-0.178379
C127	C	1.516475	-0.392565	0.071621
C128	C	1.766475	-0.142565	0.321621
C129	C	1.016447	-0.815707	-0.428363
C130	C	1.266447	-0.565707	-0.178363
C131	C	1.516447	-0.315707	0.071637
C132	C	1.766447	-0.065707	0.321637
C133	C	1.063524	-0.777277	-0.378195
C134	C	1.313524	-0.527277	-0.128195
C135	C	1.563524	-0.277277	0.121805
C136	C	1.813524	-0.027277	0.371805
C137	C	1.063585	-0.930993	-0.378230
C138	C	1.313585	-0.680993	-0.128230
C139	C	1.563585	-0.430993	0.121770
C140	C	1.813585	-0.180993	0.371770
C141	C	1.063620	-1.014326	-0.378251
C142	C	1.313620	-0.764326	-0.128251
C143	C	1.563620	-0.514326	0.121749
C144	C	1.813620	-0.264326	0.371749
C145	C	1.063489	-0.693938	-0.378175
C146	C	1.313489	-0.443938	-0.128175
C147	C	1.563489	-0.193938	0.121825
C148	C	1.813489	0.056062	0.371825
C149	C	1.255459	-0.354521	-0.378210
C150	C	1.505459	-0.104521	-0.128210
C151	C	1.755459	0.145479	0.121790
C152	C	2.005459	0.395479	0.371790
C153	C	1.337258	-0.354527	-0.378220
C154	C	1.587258	-0.104527	-0.128220
C155	C	1.837258	0.145473	0.121780
C156	C	2.087258	0.395473	0.371780
C157	C	1.063551	-0.354454	-0.582931
C158	C	1.313551	-0.104454	-0.332931
C159	C	1.563551	0.145546	-0.082931
C160	C	1.813551	0.395546	0.167069
C161	C	1.063570	-0.354431	-0.670181
C162	C	1.313570	-0.104431	-0.420181
C163	C	1.563570	0.145569	-0.170181
C164	C	1.813570	0.395569	0.079819
C165	C	1.063604	-0.162555	-0.378242
C166	C	1.313604	0.087445	-0.128242
C167	C	1.563604	0.337445	0.121758
C168	C	1.813604	0.587445	0.371758
C169	C	1.063646	-0.080756	-0.378265
C170	C	1.313646	0.169244	-0.128265
C171	C	1.563646	0.419244	0.121735
C172	C	1.813646	0.669244	0.371735
C173	C	1.110665	-0.307361	-0.711192
C174	C	1.360665	-0.057361	-0.461192
C175	C	1.610665	0.192639	-0.211192
C176	C	1.860665	0.442639	0.038808
C177	C	1.110674	-0.307336	-0.793172
C178	C	1.360674	-0.057336	-0.543172
C179	C	1.610674	0.192664	-0.293172
C180	C	1.860674	0.442664	-0.043172
C181	C	1.063591	-0.354386	-0.834141
C182	C	1.313591	-0.104386	-0.584141
C183	C	1.563591	0.145614	-0.334141
C184	C	1.813591	0.395614	-0.084141
C185	C	1.016490	-0.401458	-0.793124
C186	C	1.266490	-0.151458	-0.543124
C187	C	1.516490	0.098542	-0.293124
C188	C	1.766490	0.348542	-0.043124
C189	C	1.016478	-0.401478	-0.711145
C190	C	1.266478	-0.151478	-0.461145
C191	C	1.516478	0.098522	-0.211145
C192	C	1.766478	0.348522	0.038855
C193	C	1.016520	-0.401414	-0.963994
C194	C	1.266520	-0.151414	-0.713994
C195	C	1.516520	0.098586	-0.463994
C196	C	1.766520	0.348586	-0.213994
C197	C	1.016533	-0.401395	-1.045979
C198	C	1.266533	-0.151395	-0.795979
C199	C	1.516533	0.098605	-0.545979
C200	C	1.766533	0.348605	-0.295979
C201	C	1.110715	-0.307272	-1.046021
C202	C	1.360715	-0.057272	-0.796021
C203	C	1.610715	0.192728	-0.546021
C204	C	1.860715	0.442728	-0.296021
C205	C	1.110703	-0.307292	-0.964042
C206	C	1.360703	-0.057292	-0.714042
C207	C	1.610703	0.192708	-0.464042
C208	C	1.860703	0.442708	-0.214042
C209	C	1.063604	-0.354365	-0.923032
C210	C	1.313604	-0.104365	-0.673032
C211	C	1.563604	0.145635	-0.423032
C212	C	1.813604	0.395635	-0.173032
C213	C	1.063504	-0.354509	-0.174239
C214	C	1.313504	-0.104509	0.075761
C215	C	1.563504	0.145491	0.325761
C216	C	1.813504	0.395491	0.575761
C217	C	1.063628	-0.354325	-0.086990
C218	C	1.313628	-0.104325	0.163010
C219	C	1.563628	0.145675	0.413010
C220	C	1.813628	0.395675	0.663010
H221	H	0.494153	-0.269024	-0.287292
H222	H	0.744153	-0.019024	-0.037292
H223	H	0.994153	0.230976	0.212708
H224	H	1.244153	0.480976	0.462708
Cl225	Cl	1.169890	-0.940857	-0.265032
Cl226	Cl	1.419890	-0.690857	-0.015032
Cl227	Cl	1.669890	-0.440857	0.234968
Cl228	Cl	1.919890	-0.190857	0.484968
H229	H	0.978155	-0.439734	-0.930606
H230	H	1.228155	-0.189734	-0.680606
H231	H	1.478155	0.060266	-0.430606
H232	H	1.728155	0.310266	-0.180606
Cl233	Cl	0.957224	-0.767401	-0.491410
Cl234	Cl	1.207224	-0.517401	-0.241410
Cl235	Cl	1.457224	-0.267401	0.008590
Cl236	Cl	1.707224	-0.017401	0.258590
Cl237	Cl	0.650617	-0.248135	-0.265083
Cl238	Cl	0.900617	0.001865	-0.015083
Cl239	Cl	1.150617	0.251865	0.234917
Cl240	Cl	1.400617	0.501865	0.484917
Cl241	Cl	0.957294	-0.940883	-0.491441
Cl242	Cl	1.207294	-0.690883	-0.241441
Cl243	Cl	1.457294	-0.440883	0.008559
Cl244	Cl	1.707294	-0.190883	0.258559
Cl245	Cl	0.957297	-0.460604	-0.844628
Cl246	Cl	1.207297	-0.210604	-0.594628
Cl247	Cl	1.457297	0.039396	-0.344628
Cl248	Cl	1.707297	0.289396	-0.094628
H249	H	0.978121	-0.439800	-0.677755
H250	H	1.228121	-0.189800	-0.427755
H251	H	1.478121	0.060200	-0.177755
H252	H	1.728121	0.310200	0.072245
H253	H	0.633600	-0.440010	-0.469104
H254	H	0.883600	-0.190010	-0.219104
H255	H	1.133600	0.059990	0.030896
H256	H	1.383600	0.309990	0.280896
H257	H	1.148965	-0.784411	-0.287203
H258	H	1.398965	-0.534411	-0.037203
H259	H	1.648965	-0.284411	0.212797
H260	H	1.898965	-0.034411	0.462797
H261	H	1.149007	-0.269050	-0.677841
H262	H	1.399007	-0.019050	-0.427841
H263	H	1.649007	0.230950	-0.177841
H264	H	1.899007	0.480950	0.072159
Cl265	Cl	1.169914	-0.248192	-0.844725
Cl266	Cl	1.419914	0.001808	-0.594725
Cl267	Cl	1.669914	0.251808	-0.344725
Cl268	Cl	1.919914	0.501808	-0.094725
H269	H	1.149064	-0.268942	-1.079416
H270	H	1.399064	-0.018942	-0.829416
H271	H	1.649064	0.231058	-0.579416
H272	H	1.899064	0.481058	-0.329416
H273	H	0.494173	-0.440012	-0.469121
H274	H	0.744173	-0.190012	-0.219121
H275	H	0.994173	0.059988	0.030879
H276	H	1.244173	0.309988	0.280879
H277	H	1.149046	-0.268984	-0.930688
H278	H	1.399046	-0.018984	-0.680688
H279	H	1.649046	0.231016	-0.430688
H280	H	1.899046	0.481016	-0.180688
H281	H	0.978192	-0.439705	-1.079333
H282	H	1.228192	-0.189705	-0.829333
H283	H	1.478192	0.060295	-0.579333
H284	H	1.728192	0.310295	-0.329333
