data_functionalizedCrystal
_audit_creation_method	'MofGen! by Chris Wilmer'
_symmetry_space_group_name_H-M	'P1'
_symmetry_Int_Tables_number	1
_symmetry_cell_setting	triclinic
loop_
_symmetry_equiv_pos_as_xyz
  x,y,z
_cell_length_a	13.032831
_cell_length_b	13.033915
_cell_length_c	12.759393
_cell_angle_alpha	82.792275
_cell_angle_beta	82.806329
_cell_angle_gamma	74.824623
loop_
_atom_site_label
_atom_site_type_symbol
_atom_site_fract_x
_atom_site_fract_y
_atom_site_fract_z
Zn1	Zn	1.677738	-0.629328	-0.727629
Zn2	Zn	1.700210	-0.806963	-0.532154
Zn3	Zn	1.500106	-0.606792	-0.532193
Zn4	Zn	1.522656	-0.784302	-0.688046
O5	O	1.600178	-0.706846	-0.620006
O6	O	1.829365	-0.671807	-0.718248
O7	O	1.673634	-0.780462	-0.385127
O8	O	1.504827	-0.461152	-0.574701
O9	O	1.845876	-0.802314	-0.574633
O10	O	1.635332	-0.477709	-0.718287
O11	O	1.526618	-0.633397	-0.385156
O12	O	1.354451	-0.611424	-0.536318
O13	O	1.543261	-0.763692	-0.840329
O14	O	1.371019	-0.741839	-0.650822
O15	O	1.657199	-0.649833	-0.869410
O16	O	1.695500	-0.952586	-0.536251
O17	O	1.565052	-0.935937	-0.650784
C18	C	1.324192	-0.671728	-0.589280
C19	C	1.206128	-0.656730	-0.576157
C20	C	1.161729	-0.714674	-0.626854
C21	C	1.039703	-0.699174	-0.613293
C22	C	1.635190	-0.982803	-0.589244
C23	C	1.650266	-1.100871	-0.576130
C24	C	1.607962	-1.267329	-0.613329
C25	C	1.592387	-1.145300	-0.626892
C26	C	1.877241	-0.742102	-0.650852
C27	C	1.995309	-0.757126	-0.663997
C28	C	1.600238	-0.706748	-0.894059
C29	C	1.600264	-0.706707	-1.010845
C30	C	1.565057	-0.429815	-0.650914
C31	C	1.550091	-0.311761	-0.664085
C32	C	1.659600	-0.647415	-1.080853
C33	C	1.659620	-0.647380	-1.190584
C34	C	1.540967	-0.765937	-1.160288
C35	C	1.540942	-0.765965	-1.050559
C36	C	1.728107	-0.578971	-1.098345
C37	C	1.728128	-0.578936	-1.208077
C38	C	1.600169	-0.706875	-0.347033
C39	C	1.600310	-0.706643	-0.230305
H40	H	1.214056	-0.775753	-0.680302
C41	C	1.065991	-0.839654	-0.736203
N42	N	1.119229	-0.901814	-0.790586
C43	C	1.509868	-1.074651	-0.699168
N44	N	1.447717	-1.021437	-0.753606
C45	C	1.843049	-0.622844	-1.257363
N46	N	1.929604	-0.655918	-1.294484
C47	C	1.838721	-0.632203	-1.059673
N48	N	1.922037	-0.672292	-1.030545
C49	C	1.467576	-1.241109	-0.736356
N50	N	1.405426	-1.187895	-0.790794
C51	C	1.135440	-0.574206	-0.503957
N52	N	1.082199	-0.512048	-0.449572
H53	H	1.669035	-1.319629	-0.559830
H54	H	1.711346	-1.153168	-0.522629
C55	C	1.475650	-0.831172	-0.973552
N56	N	1.426467	-0.880286	-0.915550
H57	H	0.987379	-0.638082	-0.559850
H58	H	1.492666	-0.814180	-1.192637
C59	C	1.684242	-0.464067	-1.067207
N60	N	1.651200	-0.377523	-1.043753
H61	H	1.688758	-0.497034	-1.247553
