data_functionalizedCrystal
_audit_creation_method	'MofGen! by Chris Wilmer'
_symmetry_space_group_name_H-M	'P1'
_symmetry_Int_Tables_number	1
_symmetry_cell_setting	triclinic
loop_
_symmetry_equiv_pos_as_xyz
  x,y,z
_cell_length_a	13.339070
_cell_length_b	15.995350
_cell_length_c	12.376457
_cell_angle_alpha	101.278656
_cell_angle_beta	75.589755
_cell_angle_gamma	99.560835
loop_
_atom_site_label
_atom_site_type_symbol
_atom_site_fract_x
_atom_site_fract_y
_atom_site_fract_z
O1	O	1.361687	0.408219	-0.094025
O2	O	1.067160	0.353123	-0.094021
O3	O	1.222474	0.260654	-0.094022
O4	O	1.206373	0.500688	-0.094024
O5	O	1.183660	0.283730	0.093990
O6	O	1.028345	0.376200	0.093991
O7	O	1.322873	0.431295	0.093987
Zn8	Zn	1.169446	0.407411	0.123840
Zn9	Zn	1.220586	0.377007	-0.123874
O10	O	1.167558	0.523765	0.093988
C11	C	1.010063	0.355354	-0.000015
C12	C	0.897761	0.327613	-0.000013
C13	C	1.202402	0.240842	-0.000018
C14	C	1.200407	0.147428	-0.000025
C15	C	0.532972	0.543314	-0.000033
C16	C	0.638486	0.569381	-0.000038
C17	C	0.703309	0.508941	-0.000031
C18	C	0.662609	0.422430	-0.000021
C19	C	0.557087	0.396360	-0.000025
C20	C	0.727425	0.361987	-0.000023
C21	C	0.686725	0.275476	-0.000013
C22	C	0.581212	0.249410	-0.000016
C23	C	0.516389	0.309850	-0.000023
C24	C	0.832947	0.388057	-0.000019
C25	C	0.857062	0.241103	-0.000011
C26	C	0.751549	0.215036	-0.000006
C27	C	1.193239	-0.191985	-0.000021
C28	C	1.082714	-0.170299	-0.000441
C29	C	1.084622	-0.073093	-0.000017
C30	C	1.196795	-0.023598	-0.000023
C31	C	1.229188	-0.038823	0.107338
C32	C	1.226391	-0.136094	0.107428
C33	C	1.272816	-0.162164	-0.106377
C34	C	1.273082	-0.065398	-0.107796
C35	C	1.198810	0.071568	-0.000021
C36	C	1.191226	-0.287149	-0.000015
C37	C	1.379970	0.429064	-0.000022
C38	C	1.492273	0.456804	-0.000031
C39	C	1.187631	0.543576	-0.000018
C40	C	1.189627	0.636990	-0.000019
N41	N	1.134551	0.428163	0.292899
N42	N	1.255489	0.356251	-0.292933
C43	C	1.336490	0.308063	0.647882
C44	C	1.360907	0.293538	0.529542
C45	C	1.304320	0.327193	0.470376
C46	C	1.223312	0.375376	0.529561
C47	C	1.198898	0.389908	0.647912
C48	C	1.166728	0.409038	0.470405
C49	C	1.085720	0.457221	0.529590
C50	C	1.061310	0.471751	0.647930
C51	C	1.117897	0.438096	0.707097
C52	C	1.191142	0.394505	0.352054
C53	C	1.053550	0.476350	0.352084
C54	C	1.029133	0.490876	0.470424
H55	H	0.789223	0.530169	-0.000038
H56	H	0.430470	0.288631	-0.000018
H57	H	0.995356	0.510992	0.696119
H58	H	1.324204	0.315364	0.374018
H59	H	0.963175	0.530108	0.518627
H60	H	1.382561	0.280671	0.696064
N61	N	0.995759	0.510734	0.291642
N62	N	1.017569	0.497755	0.185978
H63	H	0.976762	0.522039	0.143283
N64	N	1.443753	0.244431	0.469108
N65	N	1.494336	0.214457	0.521944
H66	H	1.552889	0.179812	0.479262
N67	N	0.923261	0.179362	0.000023
N68	N	0.903187	0.136984	0.079280
H69	H	0.949945	0.093383	0.079304
H70	H	1.356221	-0.031829	-0.114283
H71	H	1.098014	0.449919	0.803459
H72	H	0.480186	0.592513	-0.000048
H73	H	0.548081	0.178966	-0.000020
N74	N	0.874493	0.476425	-0.000009
N75	N	0.838259	0.532434	0.079242
H76	H	0.867597	0.594850	0.079253
H77	H	0.671618	0.639816	-0.000055
H78	H	0.718397	0.144597	-0.000007
N79	N	1.375310	-0.178340	-0.107267
N80	N	1.389824	-0.211681	-0.029996
H81	H	1.462207	-0.223105	-0.030612
H82	H	1.057625	-0.064081	-0.076978
H83	H	1.249590	-0.057165	-0.187219
H84	H	1.054398	-0.208552	-0.077432
N85	N	1.160945	-0.001986	0.207577
N86	N	1.108011	-0.048556	0.276858
H87	H	1.059808	-0.022544	0.347650
H88	H	1.022893	-0.190721	0.076122
H89	H	1.025532	-0.045796	0.077076
N90	N	1.155678	-0.158285	0.208103
N91	N	1.061934	-0.147087	0.227158
H92	H	1.011989	-0.162756	0.298261
H93	H	1.306596	-0.148878	0.112295
H94	H	1.253451	-0.201093	-0.187751
N95	N	1.331539	0.003527	0.112331
N96	N	1.381869	0.045505	0.036638
H97	H	1.454156	0.075416	0.040160
N98	N	1.273834	0.345242	0.291595
N99	N	1.269670	0.269145	0.304826
H100	H	1.328058	0.234335	0.262118
