data_functionalizedCrystal
_audit_creation_method	'MofGen! by Chris Wilmer'
_symmetry_space_group_name_H-M	'P1'
_symmetry_Int_Tables_number	1
_symmetry_cell_setting	triclinic
loop_
_symmetry_equiv_pos_as_xyz
  x,y,z
_cell_length_a	27.440280
_cell_length_b	27.440280
_cell_length_c	27.440280
_cell_angle_alpha	90.008003
_cell_angle_beta	59.998992
_cell_angle_gamma	59.999099
loop_
_atom_site_label
_atom_site_type_symbol
_atom_site_fract_x
_atom_site_fract_y
_atom_site_fract_z
Zr1	Zr	0.533417	0.469480	-0.063976
O2	O	0.635096	0.391656	-0.141812
O3	O	0.431739	0.493340	-0.040104
O4	O	0.533405	0.493335	-0.141783
O5	O	0.533439	0.391663	0.040061
O6	O	0.533396	0.573538	-0.141773
O7	O	0.533429	0.391662	-0.040133
O8	O	0.351533	0.573547	0.040112
O9	O	0.715302	0.391653	-0.141825
O10	O	0.473554	0.563367	-0.029929
O11	O	0.473568	0.503514	0.029911
O12	O	0.593267	0.503508	-0.089803
O13	O	0.593281	0.443654	-0.029963
Zr14	Zr	0.533417	0.597396	0.063939
Zr15	Zr	0.533402	0.597395	-0.063960
Zr16	Zr	0.533432	0.469482	0.063923
Zr17	Zr	0.661337	0.469476	-0.063996
Zr18	Zr	0.405498	0.597401	0.063960
O19	O	0.635096	0.573537	0.040067
O20	O	0.635075	0.573534	-0.141789
O21	O	0.635118	0.391659	0.040044
O22	O	0.431739	0.675220	0.141775
O23	O	0.431717	0.675218	-0.040081
O24	O	0.431760	0.493343	0.141752
O25	O	0.533396	0.675214	-0.040097
O26	O	0.533429	0.573542	0.141746
O27	O	0.533439	0.493339	0.141736
O28	O	0.533405	0.675215	0.040096
O29	O	0.715290	0.493328	-0.141812
O30	O	0.351545	0.573549	0.141775
O31	O	0.351533	0.675223	0.141788
O32	O	0.351521	0.675222	0.040125
O33	O	0.715314	0.391655	-0.040162
O34	O	0.715302	0.493330	-0.040149
O35	O	0.473568	0.563369	0.089766
O36	O	0.473554	0.623223	0.029926
O37	O	0.593267	0.563363	-0.029948
O38	O	0.593281	0.503509	0.029892
C39	C	0.373410	0.533444	0.000007
C40	C	0.319105	0.533446	0.000016
C41	C	0.026606	0.489251	-0.044227
C42	C	-0.024411	0.489250	-0.044234
O43	O	-0.013218	0.451684	-0.081831
N44	N	-0.094115	0.533436	-0.000042
C45	C	-0.112802	0.577629	0.044156
O46	O	-0.176775	0.615213	0.081743
C47	C	-0.061785	0.577631	0.044159
C48	C	0.007919	0.533439	-0.000032
C49	C	0.096307	0.445062	-0.088415
C50	C	0.147321	0.445062	-0.088408
C51	C	0.128633	0.489251	-0.044213
C52	C	0.058932	0.533439	-0.000025
C53	C	-0.080473	0.621826	0.088353
C54	C	-0.029449	0.621825	0.088353
C55	C	0.040255	0.577632	0.044161
C56	C	0.091258	0.577627	0.044177
N57	N	0.160962	0.533441	-0.000015
C58	C	0.179650	0.489253	-0.044210
C59	C	-0.219937	0.577621	0.044145
C60	C	-0.270953	0.577617	0.044145
C61	C	-0.182558	0.489239	-0.044245
C62	C	-0.131542	0.489241	-0.044242
C63	C	-0.150233	0.533435	-0.000047
C64	C	0.286778	0.489256	-0.044192
C65	C	0.337792	0.489258	-0.044179
C66	C	0.249393	0.577638	0.044209
C67	C	0.198383	0.577634	0.044199
C68	C	0.217081	0.533440	-0.000007
O69	O	0.080117	0.615176	0.081754
O70	O	0.243623	0.451680	-0.081796
C71	C	0.533436	0.373437	-0.000038
C72	C	0.533443	0.319134	-0.000045
C73	C	0.470917	0.013683	0.031252
C74	C	0.470913	-0.037336	0.031257
O75	O	0.417768	-0.037150	0.057855
N76	N	0.533402	-0.094099	0.000003
C77	C	0.595898	-0.099842	-0.031254
O78	O	0.649049	-0.152808	-0.057837
C79	C	0.595901	-0.048824	-0.031255
C80	C	0.533408	0.007938	-0.000004
C81	C	0.408429	0.070443	0.062501
C82	C	0.408433	0.121457	0.062495
C83	C	0.470925	0.115712	0.031239
C84	C	0.533412	0.058953	-0.000010
C85	C	0.658397	-0.054569	-0.062508
C86	C	0.658395	-0.003545	-0.062506
C87	C	0.595902	0.053217	-0.031255
C88	C	0.595908	0.104222	-0.031272
N89	N	0.533420	0.160985	-0.000018
C90	C	0.470928	0.166730	0.031238
C91	C	0.595887	-0.206981	-0.031248
C92	C	0.595884	-0.257998	-0.031250
C93	C	0.470899	-0.195488	0.031262
C94	C	0.470902	-0.144470	0.031260
C95	C	0.533398	-0.150218	0.000007
C96	C	0.470941	0.273863	0.031222
C97	C	0.470951	0.324879	0.031210
C98	C	0.595936	0.262365	-0.031299
C99	C	0.595927	0.211352	-0.031290
C100	C	0.533424	0.217105	-0.000026
O101	O	0.649026	0.104083	-0.057855
O102	O	0.417786	0.219698	0.057823
C103	C	0.693425	0.533432	-0.000044
C104	C	0.747730	0.533430	-0.000053
C105	C	0.533399	0.533436	-0.160001
C106	C	0.533392	0.533435	-0.214297
C107	C	0.533399	0.693440	0.000002
C108	C	0.533392	0.747742	0.000009
C109	C	0.595918	0.502197	-0.582285
C110	C	0.595922	0.502199	-0.633307
O111	O	0.649067	0.475644	-0.686275
N112	N	0.533433	0.533444	-0.627571
C113	C	0.470937	0.564695	-0.570808
O114	O	0.417786	0.591272	-0.570614
C115	C	0.470934	0.564696	-0.519787
C116	C	0.533426	0.533444	-0.525528
C117	C	0.658406	0.470949	-0.588023
C118	C	0.658402	0.470946	-0.537005
C119	C	0.595910	0.502192	-0.480247
C120	C	0.533422	0.533441	-0.474509
C121	C	0.408438	0.595949	-0.463025
C122	C	0.408440	0.595949	-0.412003
C123	C	0.470933	0.564696	-0.417744
C124	C	0.470927	0.564685	-0.366733
N125	N	0.533415	0.533440	-0.372469
C126	C	0.595907	0.502194	-0.429226
C127	C	0.470948	0.564690	-0.677958
C128	C	0.470950	0.564686	-0.728977
C129	C	0.595936	0.502191	-0.791474
C130	C	0.595933	0.502192	-0.740453
C131	C	0.533437	0.533445	-0.683694
C132	C	0.595894	0.502191	-0.322081
C133	C	0.595884	0.502189	-0.271055
C134	C	0.470899	0.564686	-0.208563
C135	C	0.470908	0.564685	-0.259585
C136	C	0.533411	0.533436	-0.316345
O137	O	0.417809	0.591229	-0.313746
O138	O	0.649049	0.475628	-0.429410
C139	C	0.533436	0.533441	0.159964
C140	C	0.533443	0.533441	0.214261
C141	C	0.373391	0.693446	0.000027
C142	C	0.319080	0.747751	0.000043
C143	C	0.373429	0.533447	0.159990
C144	C	0.319130	0.533450	0.214295
C145	C	0.373410	0.693448	0.160010
C146	C	0.319105	0.747754	0.214322
C147	C	0.693425	0.373429	-0.160046
C148	C	0.747730	0.319123	-0.214358
C149	C	0.693444	0.373431	-0.000064
C150	C	0.747755	0.319126	-0.000079
C151	C	0.693406	0.533430	-0.160026
C152	C	0.747705	0.533427	-0.214332
C153	C	0.293574	0.742009	-0.031199
C154	C	0.242550	0.793029	-0.031196
C155	C	0.217028	0.849791	0.000052
C156	C	0.242539	0.855531	0.031294
C157	C	0.293566	0.804511	0.031288
C158	C	0.293631	0.564695	0.271046
C159	C	0.242618	0.564695	0.322077
C160	C	0.217103	0.533453	0.316354
C161	C	0.242607	0.502204	0.259597
C162	C	0.293622	0.502201	0.208568
C163	C	0.293595	0.804504	0.208591
C164	C	0.242577	0.855535	0.259618
C165	C	0.217066	0.849814	0.316375
C166	C	0.242580	0.793057	0.322104
C167	C	0.293601	0.742028	0.271078
C168	C	0.773246	0.262372	-0.208628
C169	C	0.824280	0.211341	-0.259655
C170	C	0.849794	0.217063	-0.316412
C171	C	0.824276	0.273819	-0.322141
C172	C	0.773246	0.324849	-0.271115
C173	C	0.773266	0.324868	0.031157
C174	C	0.824304	0.273847	0.031140
C175	C	0.849828	0.217086	-0.000110
C176	C	0.824315	0.211346	-0.031350
C177	C	0.773281	0.262365	-0.031336
C178	C	0.773204	0.564675	-0.208590
C179	C	0.824217	0.564684	-0.259611
C180	C	0.849733	0.533441	-0.316372
C181	C	0.824228	0.502193	-0.322112
C182	C	0.773213	0.502188	-0.271092
H183	H	-0.074788	0.453253	-0.080223
H184	H	0.221801	0.788408	0.368322
C185	C	0.214490	0.786707	-0.065558
H186	H	0.180450	0.825219	-0.061088
H187	H	0.194588	0.765511	-0.050123
H188	H	0.251125	0.765498	-0.106668
C189	C	0.745199	0.387300	0.065531
H190	H	0.711147	0.416869	0.061074
H191	H	0.781829	0.391773	0.050095
H192	H	0.725298	0.391776	0.106637
C193	C	0.745177	0.467805	-0.277415
H194	H	0.767689	0.449195	-0.318528
H195	H	0.697003	0.494764	-0.258804
H196	H	0.753559	0.438231	-0.258824
C197	C	0.160895	0.905909	0.000061
H198	H	0.149347	0.940539	0.023143
H199	H	0.121092	0.905906	0.016790
H200	H	0.177623	0.905906	-0.039748
C201	C	0.214567	0.599073	0.384503
H202	H	0.180536	0.594598	0.414079
H203	H	0.194656	0.640178	0.388982
H204	H	0.251209	0.583641	0.388962
H205	H	0.752437	0.590116	-0.162377
H206	H	0.314354	0.695795	-0.056652
H207	H	0.221808	0.901745	0.254943
C208	C	0.160938	0.905950	0.372499
H209	H	0.149398	0.940566	0.360952
H210	H	0.177658	0.905961	0.395581
H211	H	0.121124	0.905960	0.395583
C212	C	0.160985	0.533462	0.372488
H213	H	0.149440	0.510379	0.360956
H214	H	0.121177	0.573272	0.395578
H215	H	0.177725	0.516731	0.395558
C216	C	0.214455	0.917970	0.065670
H217	H	0.180407	0.947529	0.061202
H218	H	0.251073	0.922457	0.050247
H219	H	0.194541	0.922450	0.106778
H220	H	0.845068	0.278533	0.056582
C221	C	0.664624	-0.320433	-0.065631
H222	H	0.655679	-0.349999	-0.061158
H223	H	0.690304	-0.324906	-0.050210
H224	H	0.690295	-0.324914	-0.106739
C225	C	0.745190	0.256070	-0.146201
H226	H	0.711139	0.294586	-0.116626
H227	H	0.781824	0.234873	-0.141735
H228	H	0.725289	0.234867	-0.141727
H229	H	0.646782	-0.211670	-0.056701
H230	H	0.357545	0.167672	0.087940
C231	C	0.321653	0.810806	0.146164
H232	H	0.355690	0.772290	0.116589
H233	H	0.341558	0.832003	0.141690
H234	H	0.285016	0.832011	0.141698
C235	C	0.402210	0.599055	-0.722660
H236	H	0.411156	0.594580	-0.761173
H237	H	0.376529	0.640160	-0.701449
H238	H	0.376541	0.583620	-0.701467
H239	H	0.420015	-0.190818	0.056710
C240	C	0.321661	0.467834	0.146145
H241	H	0.299151	0.449235	0.150051
H242	H	0.369835	0.438263	0.124924
H243	H	0.313281	0.494806	0.124952
H244	H	0.314364	0.695820	0.275752
H245	H	0.357538	0.075131	0.087956
C246	C	0.852271	0.599051	-0.253286
H247	H	0.829775	0.617646	-0.212173
H248	H	0.843900	0.628625	-0.271874
H249	H	0.900447	0.572077	-0.271901
C250	C	0.852340	0.467786	-0.384550
H251	H	0.829860	0.449163	-0.380669
H252	H	0.900512	0.438231	-0.405724
H253	H	0.843993	0.494730	-0.405775
C254	C	0.852334	0.148917	-0.253342
H255	H	0.829819	0.152823	-0.212231
H256	H	0.900506	0.127708	-0.271945
H257	H	0.843971	0.127712	-0.271948
C258	C	0.905916	0.160927	-0.372536
H259	H	0.917448	0.126310	-0.360989
H260	H	0.945731	0.160911	-0.395629
H261	H	0.889181	0.160921	-0.395608
H262	H	0.420015	-0.098255	0.056713
C263	C	0.121709	0.626238	0.092813
H264	H	0.117889	0.652555	0.119134
H265	H	0.099969	0.608087	0.114629
H266	H	0.099971	0.648068	0.074664
C267	C	0.321608	0.810835	0.065664
H268	H	0.299091	0.851948	0.084278
H269	H	0.369780	0.792230	0.038700
H270	H	0.313237	0.792237	0.095233
C271	C	0.664627	0.467813	-0.277370
H272	H	0.655679	0.472281	-0.238857
H273	H	0.690300	0.483241	-0.298565
H274	H	0.690305	0.426705	-0.298580
C275	C	0.664645	0.467812	-0.384509
H276	H	0.701855	0.449198	-0.380611
H277	H	0.667252	0.494773	-0.405711
H278	H	0.667246	0.438242	-0.405716
C279	C	0.402198	0.599060	-0.615525
H280	H	0.364987	0.617662	-0.619422
H281	H	0.399587	0.628630	-0.594311
H282	H	0.399603	0.572088	-0.594332
C283	C	0.852340	0.280105	-0.384575
H284	H	0.886379	0.241583	-0.414139
H285	H	0.872245	0.301304	-0.389062
H286	H	0.815706	0.301298	-0.389045
H287	H	0.204074	0.409081	-0.124398
H288	H	0.646815	0.257697	-0.056748
H289	H	0.891383	0.175547	-0.000116
C290	C	0.321697	0.599054	0.277352
H291	H	0.299206	0.617653	0.318463
H292	H	0.313332	0.628625	0.258759
H293	H	0.369874	0.572074	0.258736
H294	H	0.752472	0.371057	-0.275787
C295	C	-0.162009	0.440634	-0.092862
H296	H	-0.202378	0.446969	-0.086535
H297	H	-0.135488	0.402489	-0.091041
H298	H	-0.135493	0.442470	-0.131005
C299	C	0.214528	0.467849	0.253310
H300	H	0.180487	0.472337	0.291832
H301	H	0.251149	0.426740	0.232103
H302	H	0.194606	0.483290	0.232126
C303	C	0.852390	0.148906	-0.065717
H304	H	0.886431	0.119348	-0.061241
H305	H	0.872295	0.144418	-0.106823
H306	H	0.815761	0.144429	-0.050276
C307	C	0.745216	0.256042	-0.065690
H308	H	0.767724	0.214929	-0.084295
H309	H	0.753565	0.274644	-0.095255
H310	H	0.697043	0.274643	-0.038708
C311	C	0.339695	0.630339	-0.456698
H312	H	0.302483	0.648955	-0.415585
H313	H	0.337081	0.603386	-0.475304
H314	H	0.337103	0.659909	-0.475294
H315	H	0.891273	0.533450	-0.357911
H316	H	0.394550	0.453268	-0.080164
H317	H	0.420060	0.371098	0.056661
H318	H	0.646820	0.476748	-0.837696
H319	H	0.302012	0.453270	-0.080189
H320	H	-0.327707	0.613597	0.080135
C321	C	0.116875	0.396448	-0.137031
H322	H	0.165696	0.370133	-0.163341
H323	H	0.098816	0.414587	-0.158860
H324	H	0.098817	0.374619	-0.118883
H325	H	-0.137222	0.657813	0.124338
C326	C	-0.240505	0.626231	0.092770
H327	H	-0.289325	0.652540	0.119089
H328	H	-0.222447	0.648062	0.074633
H329	H	-0.222441	0.608077	0.114595
H330	H	0.709290	0.445500	-0.541687
C331	C	0.727140	-0.116997	-0.096880
H332	H	0.764352	-0.113102	-0.115486
H333	H	0.729747	-0.138210	-0.126447
H334	H	0.729739	-0.138191	-0.069909
C335	C	-0.050010	0.670437	0.136969
H336	H	-0.009647	0.664114	0.130644
H337	H	-0.076533	0.668609	0.175109
H338	H	-0.076528	0.708581	0.135136
C339	C	0.228847	0.626244	0.092816
H340	H	0.269217	0.619916	0.086483
H341	H	0.202326	0.624422	0.130962
H342	H	0.202332	0.664388	0.090982
H343	H	0.709288	-0.008232	-0.087950
C344	C	0.402190	0.280197	0.065608
H345	H	0.364980	0.321311	0.084211
H346	H	0.399584	0.261602	0.095176
H347	H	0.399587	0.261593	0.038641
H348	H	0.646813	0.165133	-0.056745
H349	H	0.646820	0.476744	-0.745133
C350	C	0.727153	0.436570	-0.650452
H351	H	0.764361	0.417959	-0.646552
H352	H	0.729761	0.463529	-0.671657
H353	H	0.729755	0.406998	-0.671657
C354	C	0.339695	0.630321	-0.349569
H355	H	0.348637	0.625850	-0.320002
H356	H	0.314023	0.614894	-0.345102
H357	H	0.314017	0.671431	-0.345085
C358	C	0.402169	0.599042	-0.253272
H359	H	0.364951	0.617647	-0.212160
H360	H	0.399587	0.572067	-0.271887
H361	H	0.399556	0.628617	-0.271863
H362	H	0.420020	0.590124	-0.162343
