data_functionalizedCrystal
_audit_creation_method	'MofGen! by Chris Wilmer'
_symmetry_space_group_name_H-M	'P1'
_symmetry_Int_Tables_number	1
_symmetry_cell_setting	triclinic
loop_
_symmetry_equiv_pos_as_xyz
  x,y,z
_cell_length_a	19.288864
_cell_length_b	15.186229
_cell_length_c	19.288865
_cell_angle_alpha	89.991032
_cell_angle_beta	96.863755
_cell_angle_gamma	90.017200
loop_
_atom_site_label
_atom_site_type_symbol
_atom_site_fract_x
_atom_site_fract_y
_atom_site_fract_z
O1	O	0.921347	0.073521	-0.086647
O2	O	1.171347	0.323521	0.163353
O3	O	1.421347	0.573521	0.413353
O4	O	1.671347	0.823521	0.663353
O5	O	0.719087	0.073462	-0.098336
O6	O	0.969087	0.323462	0.151664
O7	O	1.219087	0.573462	0.401664
O8	O	1.469087	0.823462	0.651664
O9	O	0.826061	0.073476	0.008639
O10	O	1.076061	0.323476	0.258639
O11	O	1.326061	0.573476	0.508639
O12	O	1.576061	0.823476	0.758639
O13	O	0.814373	0.073507	-0.193621
O14	O	1.064373	0.323507	0.056379
O15	O	1.314373	0.573507	0.306379
O16	O	1.564373	0.823507	0.556379
O17	O	0.826054	-0.072981	0.008641
O18	O	1.076054	0.177019	0.258641
O19	O	1.326054	0.427019	0.508641
O20	O	1.576054	0.677019	0.758641
O21	O	0.719079	-0.072995	-0.098334
O22	O	0.969079	0.177005	0.151666
O23	O	1.219079	0.427005	0.401666
O24	O	1.469079	0.677005	0.651666
O25	O	0.921340	-0.072936	-0.086645
O26	O	1.171340	0.177064	0.163355
O27	O	1.421340	0.427064	0.413355
O28	O	1.671340	0.677064	0.663355
Zn29	Zn	0.820209	-0.096219	-0.092489
Zn30	Zn	1.070209	0.153781	0.157511
Zn31	Zn	1.320209	0.403781	0.407511
Zn32	Zn	1.570209	0.653781	0.657511
Zn33	Zn	0.820218	0.096745	-0.092491
Zn34	Zn	1.070218	0.346745	0.157509
Zn35	Zn	1.320218	0.596745	0.407509
Zn36	Zn	1.570218	0.846745	0.657509
O37	O	0.814365	-0.072950	-0.193620
O38	O	1.064365	0.177050	0.056380
O39	O	1.314365	0.427050	0.306380
O40	O	1.564365	0.677050	0.556380
C41	C	0.693207	0.000226	-0.097959
C42	C	0.943207	0.250226	0.152041
C43	C	1.193207	0.500226	0.402041
C44	C	1.443207	0.750226	0.652041
C45	C	0.616103	0.000202	-0.096830
C46	C	0.866103	0.250202	0.153170
C47	C	1.116103	0.500202	0.403170
C48	C	1.366103	0.750202	0.653170
N49	N	0.820207	-0.227912	-0.092488
N50	N	1.070207	0.022088	0.157512
N51	N	1.320207	0.272088	0.407512
N52	N	1.570207	0.522088	0.657512
C53	C	0.571407	0.000226	-0.159598
C54	C	0.821407	0.250226	0.090402
C55	C	1.071407	0.500226	0.340402
C56	C	1.321407	0.750226	0.590402
C57	C	0.498960	0.000236	-0.158537
C58	C	0.748960	0.250236	0.091463
C59	C	0.998960	0.500236	0.341463
C60	C	1.248960	0.750236	0.591463
C61	C	0.471212	0.000239	-0.094705
C62	C	0.721212	0.250239	0.155295
C63	C	0.971212	0.500239	0.405295
C64	C	1.221212	0.750239	0.655295
C65	C	0.515918	0.000211	-0.031929
C66	C	0.765918	0.250211	0.218071
C67	C	1.015918	0.500211	0.468071
C68	C	1.265918	0.750211	0.718071
C69	C	0.588364	0.000192	-0.032991
C70	C	0.838364	0.250192	0.217009
C71	C	1.088364	0.500192	0.467009
C72	C	1.338364	0.750192	0.717009
C73	C	0.362953	0.051572	-0.044526
C74	C	0.612953	0.301572	0.205474
C75	C	0.862953	0.551572	0.455474
C76	C	1.112953	0.801572	0.705474
C77	C	0.290508	0.051595	-0.043466
C78	C	0.540508	0.301595	0.206534
C79	C	0.790508	0.551595	0.456534
C80	C	1.040508	0.801595	0.706534
C81	C	0.247767	0.000292	-0.091425
C82	C	0.497767	0.250292	0.158575
C83	C	0.747767	0.500292	0.408575
C84	C	0.997767	0.750292	0.658575
C85	C	0.277477	-0.051024	-0.140456
C86	C	0.527477	0.198976	0.109544
C87	C	0.777477	0.448976	0.359544
C88	C	1.027477	0.698976	0.609544
C89	C	0.349922	-0.051042	-0.141518
C90	C	0.599922	0.198958	0.108482
C91	C	0.849922	0.448958	0.358482
C92	C	1.099922	0.698958	0.608482
C93	C	0.392658	0.000259	-0.093546
C94	C	0.642658	0.250259	0.156454
C95	C	0.892658	0.500259	0.406454
C96	C	1.142658	0.750259	0.656454
C97	C	0.124514	0.000325	-0.153047
C98	C	0.374514	0.250325	0.096953
C99	C	0.624514	0.500325	0.346953
C100	C	0.874514	0.750325	0.596953
C101	C	0.052066	0.000329	-0.151984
C102	C	0.302066	0.250329	0.098016
C103	C	0.552066	0.500329	0.348016
C104	C	0.802066	0.750329	0.598016
C105	C	0.069026	0.000313	-0.025374
C106	C	0.319026	0.250313	0.224626
C107	C	0.569026	0.500313	0.474626
C108	C	0.819026	0.750313	0.724626
C109	C	0.141473	0.000300	-0.026439
C110	C	0.391473	0.250300	0.223561
C111	C	0.641473	0.500300	0.473561
C112	C	0.891473	0.750300	0.723561
C113	C	0.169212	0.000310	-0.090278
C114	C	0.419212	0.250310	0.159722
C115	C	0.669212	0.500310	0.409722
C116	C	0.919212	0.750310	0.659722
C117	C	0.867592	-0.453628	-0.045135
C118	C	1.117592	-0.203628	0.204865
C119	C	1.367592	0.046372	0.454865
C120	C	1.617592	0.296372	0.704865
C121	C	0.867594	-0.545818	-0.045133
C122	C	1.117594	-0.295818	0.204867
C123	C	1.367594	-0.045818	0.454867
C124	C	1.617594	0.204182	0.704867
C125	C	0.772835	-0.545839	-0.139842
C126	C	1.022835	-0.295839	0.110158
C127	C	1.272835	-0.045839	0.360158
C128	C	1.522835	0.204161	0.610158
C129	C	0.772830	-0.453651	-0.139840
C130	C	1.022830	-0.203651	0.110160
C131	C	1.272830	0.046349	0.360160
C132	C	1.522830	0.296349	0.610160
C133	C	0.820213	-0.407548	-0.092487
C134	C	1.070213	-0.157548	0.157513
C135	C	1.320213	0.092452	0.407513
C136	C	1.570213	0.342452	0.657513
C137	C	0.820220	-0.591926	-0.092488
C138	C	1.070220	-0.341926	0.157512
C139	C	1.320220	-0.091926	0.407512
C140	C	1.570220	0.158074	0.657512
C141	C	0.820222	-0.691882	-0.092486
C142	C	1.070222	-0.441882	0.157514
C143	C	1.320222	-0.191882	0.407514
C144	C	1.570222	0.058118	0.657514
C145	C	0.820210	-0.307586	-0.092488
C146	C	1.070210	-0.057586	0.157512
C147	C	1.320210	0.192414	0.407512
C148	C	1.570210	0.442414	0.657512
C149	C	0.947220	0.000302	-0.087022
C150	C	1.197220	0.250302	0.162978
C151	C	1.447220	0.500302	0.412978
C152	C	1.697220	0.750302	0.662978
C153	C	1.024324	0.000331	-0.088151
C154	C	1.274324	0.250331	0.161849
C155	C	1.524324	0.500331	0.411849
C156	C	1.774324	0.750331	0.661849
C157	C	0.825682	0.000244	0.034516
C158	C	1.075682	0.250244	0.284516
C159	C	1.325682	0.500244	0.534516
C160	C	1.575682	0.750244	0.784516
C161	C	0.824553	0.000236	0.111620
C162	C	1.074553	0.250236	0.361620
C163	C	1.324553	0.500236	0.611620
C164	C	1.574553	0.750236	0.861620
N165	N	0.820225	0.228437	-0.092488
N166	N	1.070225	0.478437	0.157512
N167	N	1.320225	0.728437	0.407512
N168	N	1.570225	0.978437	0.657512
C169	C	0.814745	0.000283	-0.219497
C170	C	1.064745	0.250283	0.030503
C171	C	1.314745	0.500283	0.280503
C172	C	1.564745	0.750283	0.530503
C173	C	0.815874	0.000297	-0.296601
C174	C	1.065874	0.250297	-0.046601
C175	C	1.315874	0.500297	0.203399
C176	C	1.565874	0.750297	0.453399
C177	C	0.887321	0.000250	0.156316
C178	C	1.137321	0.250250	0.406316
C179	C	1.387321	0.500250	0.656316
C180	C	1.637321	0.750250	0.906316
C181	C	0.886260	0.000264	0.228763
C182	C	1.136260	0.250264	0.478763
C183	C	1.386260	0.500264	0.728763
C184	C	1.636260	0.750264	0.978763
C185	C	0.822428	0.000246	0.256511
C186	C	1.072428	0.250246	0.506511
C187	C	1.322428	0.500246	0.756511
C188	C	1.572428	0.750246	1.006511
C189	C	0.759652	0.000237	0.211805
C190	C	1.009652	0.250237	0.461805
C191	C	1.259652	0.500237	0.711805
C192	C	1.509652	0.750237	0.961805
C193	C	0.760714	0.000232	0.139359
C194	C	1.010714	0.250232	0.389359
C195	C	1.260714	0.500232	0.639359
C196	C	1.510714	0.750232	0.889359
C197	C	0.772246	-0.051069	0.364799
C198	C	1.022246	0.198931	0.614799
C199	C	1.272246	0.448931	0.864799
C200	C	1.522246	0.698931	1.114799
C201	C	0.771186	-0.051070	0.437243
C202	C	1.021186	0.198930	0.687243
C203	C	1.271186	0.448930	0.937243
C204	C	1.521186	0.698930	1.187243
C205	C	0.819148	0.000265	0.479956
C206	C	1.069148	0.250265	0.729956
C207	C	1.319148	0.500265	0.979956
C208	C	1.569148	0.750265	1.229956
C209	C	0.868182	0.051589	0.450218
C210	C	1.118182	0.301589	0.700218
C211	C	1.368182	0.551589	0.950218
C212	C	1.618182	0.801589	1.200218
C213	C	0.869244	0.051584	0.377772
C214	C	1.119244	0.301584	0.627772
C215	C	1.369244	0.551584	0.877772
C216	C	1.619244	0.801584	1.127772
C217	C	0.821269	0.000252	0.335065
C218	C	1.071269	0.250252	0.585065
C219	C	1.321269	0.500252	0.835065
C220	C	1.571269	0.750252	1.085065
C221	C	0.880770	0.000295	0.603209
C222	C	1.130770	0.250295	0.853209
C223	C	1.380770	0.500295	1.103209
C224	C	1.630770	0.750295	1.353209
C225	C	0.879707	0.000314	0.675657
C226	C	1.129707	0.250314	0.925657
C227	C	1.379707	0.500314	1.175657
C228	C	1.629707	0.750314	1.425657
C229	C	0.753097	0.000278	0.658697
C230	C	1.003097	0.250278	0.908697
C231	C	1.253097	0.500278	1.158697
C232	C	1.503097	0.750278	1.408697
C233	C	0.754162	0.000268	0.586250
C234	C	1.004162	0.250268	0.836250
C235	C	1.254162	0.500268	1.086250
C236	C	1.504162	0.750268	1.336250
C237	C	0.818000	0.000272	0.558511
C238	C	1.068000	0.250272	0.808511
C239	C	1.318000	0.500272	1.058511
C240	C	1.568000	0.750272	1.308511
H241	H	0.593987	0.000236	-0.211580
H242	H	0.843987	0.250236	0.038420
H243	H	1.093987	0.500236	0.288420
H244	H	1.343987	0.750236	0.538420
Cl245	Cl	0.713260	-0.395716	-0.199370
Cl246	Cl	0.963260	-0.145716	0.050630
Cl247	Cl	1.213260	0.104284	0.300630
Cl248	Cl	1.463260	0.354284	0.550630
H249	H	0.907237	0.093391	0.484994
H250	H	1.157237	0.343391	0.734994
H251	H	1.407237	0.593391	0.984994
H252	H	1.657237	0.843391	1.234994
H253	H	0.731257	-0.092856	0.461450
H254	H	0.981257	0.157144	0.711450
H255	H	1.231257	0.407144	0.961450
H256	H	1.481257	0.657144	1.211450
Cl257	Cl	0.961023	0.000295	0.568333
Cl258	Cl	1.211023	0.250295	0.818333
Cl259	Cl	1.461023	0.500295	1.068333
Cl260	Cl	1.711023	0.750295	1.318333
Cl261	Cl	0.927157	-0.603745	0.014399
Cl262	Cl	1.177157	-0.353745	0.264399
Cl263	Cl	1.427157	-0.103745	0.514399
Cl264	Cl	1.677157	0.146255	0.764399
H265	H	0.930822	0.000330	0.712049
H266	H	1.180822	0.250330	0.962049
H267	H	1.430822	0.500330	1.212049
H268	H	1.680822	0.750330	1.462049
Cl269	Cl	0.927155	-0.395674	0.014397
Cl270	Cl	1.177155	-0.145674	0.264397
Cl271	Cl	1.427155	0.104326	0.514397
Cl272	Cl	1.677155	0.354326	0.764397
Cl273	Cl	0.967575	0.000281	0.121448
Cl274	Cl	1.217575	0.250281	0.371448
Cl275	Cl	1.467575	0.500281	0.621448
Cl276	Cl	1.717575	0.750281	0.871448
H277	H	0.909168	0.093375	0.353562
H278	H	1.159168	0.343375	0.603562
H279	H	1.409168	0.593375	0.853562
H280	H	1.659168	0.843375	1.103562
H281	H	0.734259	-0.583386	-0.178397
H282	H	0.984259	-0.333386	0.071603
H283	H	1.234259	-0.083386	0.321603
H284	H	1.484259	0.166614	0.571603
Cl285	Cl	-0.004125	0.000354	-0.230900
Cl286	Cl	0.245875	0.250354	0.019100
Cl287	Cl	0.495875	0.500354	0.269100
Cl288	Cl	0.745875	0.750354	0.519100
H289	H	0.937375	0.000279	0.265162
H290	H	1.187375	0.250279	0.515162
H291	H	1.437375	0.500279	0.765162
H292	H	1.687375	0.750279	1.015162
H293	H	0.266324	0.093383	-0.003545
H294	H	0.516324	0.343383	0.246455
H295	H	0.766324	0.593383	0.496455
H296	H	1.016324	0.843383	0.746455
H297	H	0.701123	0.000268	0.681288
H298	H	0.951123	0.250268	0.931288
H299	H	1.201123	0.500268	1.181288
H300	H	1.451123	0.750268	1.431288
H301	H	0.703049	0.000251	0.549857
H302	H	0.953049	0.250251	0.799857
H303	H	1.203049	0.500251	1.049857
H304	H	1.453049	0.750251	1.299857
Cl305	Cl	0.644557	0.000164	0.045924
Cl306	Cl	0.894557	0.250164	0.295924
Cl307	Cl	1.144557	0.500164	0.545924
Cl308	Cl	1.394557	0.750164	0.795924
Cl309	Cl	0.711946	-0.115614	0.311109
Cl310	Cl	0.961946	0.134386	0.561109
Cl311	Cl	1.211946	0.384386	0.811109
Cl312	Cl	1.461946	0.634386	1.061109
H313	H	0.707679	0.000224	0.234401
H314	H	0.957679	0.250224	0.484401
H315	H	1.207679	0.500224	0.734401
H316	H	1.457679	0.750224	0.984401
H317	H	0.462561	0.000252	-0.209652
H318	H	0.712561	0.250252	0.040348
H319	H	0.962561	0.500252	0.290348
H320	H	1.212561	0.750252	0.540348
H321	H	0.374109	-0.092828	-0.181438
H322	H	0.624109	0.157172	0.068562
H323	H	0.874109	0.407172	0.318562
H324	H	1.124109	0.657172	0.568562
H325	H	0.242678	-0.092800	-0.179508
H326	H	0.492678	0.157200	0.070492
H327	H	0.742678	0.407200	0.320492
H328	H	0.992678	0.657200	0.570492
H329	H	0.709599	0.000220	0.102967
H330	H	0.959599	0.250220	0.352967
H331	H	1.209599	0.500220	0.602967
H332	H	1.459599	0.750220	0.852967
H333	H	0.397748	0.093354	-0.005471
H334	H	0.647748	0.343354	0.244529
H335	H	0.897748	0.593354	0.494529
H336	H	1.147748	0.843354	0.744529
Cl337	Cl	0.197666	0.000275	0.052474
Cl338	Cl	0.447666	0.250275	0.302474
Cl339	Cl	0.697666	0.500275	0.552474
Cl340	Cl	0.947666	0.750275	0.802474
Cl341	Cl	0.034151	0.000307	0.054873
Cl342	Cl	0.284151	0.250307	0.304873
Cl343	Cl	0.534151	0.500307	0.554873
Cl344	Cl	0.784151	0.750307	0.804873
Cl345	Cl	0.159390	0.000329	-0.233300
Cl346	Cl	0.409390	0.250329	0.016700
Cl347	Cl	0.659390	0.500329	0.266700
Cl348	Cl	0.909390	0.750329	0.516700
H349	H	0.493322	0.000226	0.020044
H350	H	0.743322	0.250226	0.270044
H351	H	0.993322	0.500226	0.520044
H352	H	1.243322	0.750226	0.770044
