data_functionalizedCrystal
_audit_creation_method	'MofGen! by Chris Wilmer'
_symmetry_space_group_name_H-M	'P1'
_symmetry_Int_Tables_number	1
_symmetry_cell_setting	triclinic
loop_
_symmetry_equiv_pos_as_xyz
  x,y,z
_cell_length_a	10.654549
_cell_length_b	15.624967
_cell_length_c	9.130307
_cell_angle_alpha	71.913712
_cell_angle_beta	89.997449
_cell_angle_gamma	84.356333
loop_
_atom_site_label
_atom_site_type_symbol
_atom_site_fract_x
_atom_site_fract_y
_atom_site_fract_z
O1	O	1.666523	0.126650	-0.189110
O2	O	1.300921	0.138710	-0.195511
O3	O	1.493482	0.001498	-0.122619
O4	O	1.473962	0.263863	-0.262003
O5	O	1.493476	0.001497	0.120981
O6	O	1.300915	0.138709	0.048088
O7	O	1.666517	0.126649	0.054489
Cu8	Cu	1.483715	0.132679	0.073531
Cu9	Cu	1.483723	0.132681	-0.214553
O10	O	1.473956	0.263862	-0.018403
C11	C	1.254129	0.137823	-0.073240
C12	C	1.114713	0.135171	-0.071829
C13	C	0.823083	0.294267	-0.156392
C14	C	0.873759	0.377553	-0.200632
C15	C	1.004751	0.380048	-0.201938
C16	C	1.085072	0.299248	-0.159004
C17	C	1.034397	0.215962	-0.114763
C18	C	0.903400	0.213476	-0.113458
C19	C	1.064038	0.051885	-0.027589
C20	C	0.933046	0.049388	-0.026271
C21	C	1.144359	-0.028915	0.015346
C22	C	1.093684	-0.112202	0.059598
C23	C	0.962683	-0.114694	0.060904
C24	C	0.882370	-0.033898	0.017969
C25	C	1.492592	-0.032097	0.017025
C26	C	1.489936	-0.132199	0.070196
C27	C	1.486189	-0.273295	0.277918
C28	C	1.488685	-0.179234	0.227940
C29	C	1.488698	-0.179215	-0.037632
C30	C	1.486208	-0.273278	0.012324
C31	C	1.484953	-0.320311	0.170100
C32	C	1.484971	-0.320294	-0.095494
C33	C	1.482475	-0.414349	-0.045541
C34	C	1.481216	-0.461388	0.112228
C35	C	1.482457	-0.414366	0.220052
C36	C	1.486218	-0.273259	-0.253270
C37	C	1.484981	-0.320275	-0.361087
C38	C	1.482494	-0.414332	-0.311135
C39	C	1.481235	-0.461371	-0.153366
C40	C	1.481254	-0.461354	-0.418960
C41	C	1.478758	-0.555409	-0.369008
C42	C	1.478739	-0.555425	-0.103414
C43	C	1.713309	0.127536	-0.067785
C44	C	1.852725	0.130188	-0.069206
C45	C	1.474846	0.297457	-0.158051
C46	C	1.477502	0.397559	-0.211231
N47	N	1.483719	0.132677	0.276155
N48	N	1.483729	0.132675	-0.417173
C49	C	1.654301	0.011211	0.340673
C50	C	1.739601	-0.049519	0.449597
C51	C	1.739613	-0.049519	0.602930
C52	C	1.654315	0.011215	0.647341
C53	C	1.569015	0.071945	0.538417
C54	C	1.569015	0.071941	0.385082
C55	C	1.398429	0.193405	0.473903
C56	C	1.398421	0.193412	0.320566
C57	C	1.313131	0.254140	0.518313
C58	C	1.227835	0.314876	0.409386
C59	C	1.227827	0.314875	0.256044
C60	C	1.313121	0.254142	0.211642
H61	H	1.159090	-0.177983	0.094541
H62	H	1.809067	-0.098975	0.691621
H63	H	1.158386	0.364318	0.445559
Br64	Br	1.073531	0.493079	-0.261995
Br65	Br	0.893921	-0.227732	0.120933
H66	H	1.654320	0.011203	0.772199
H67	H	1.313127	0.254139	0.086791
H68	H	0.808347	0.443338	-0.235593
Br69	Br	1.484514	-0.337137	0.492048
Br70	Br	1.490374	-0.115430	0.374283
H71	H	1.654310	0.011213	0.215819
H72	H	1.313139	0.254133	0.643169
Br73	Br	1.112046	0.397292	0.108234
H74	H	0.716421	0.292244	-0.155307
Br75	Br	1.490434	-0.115380	-0.251749
Br76	Br	1.262849	0.302636	-0.160813
H77	H	1.251019	-0.026877	0.014272
Br78	Br	1.855352	-0.131947	0.389327
H79	H	1.482264	-0.423045	-0.547422
Br80	Br	0.704592	-0.037272	0.019753
H81	H	1.477724	-0.593723	0.025064
H82	H	1.479173	-0.537972	0.152896
H83	H	1.488232	-0.196672	-0.293937
Br84	Br	1.486718	-0.256440	-0.575204
H85	H	1.481442	-0.452663	0.348530
H86	H	1.477741	-0.593689	-0.456804
