data_functionalizedCrystal
_audit_creation_method	'MofGen! by Chris Wilmer'
_symmetry_space_group_name_H-M	'P1'
_symmetry_Int_Tables_number	1
_symmetry_cell_setting	triclinic
loop_
_symmetry_equiv_pos_as_xyz
  x,y,z
_cell_length_a	10.654541
_cell_length_b	17.699083
_cell_length_c	16.176319
_cell_angle_alpha	89.992304
_cell_angle_beta	89.993951
_cell_angle_gamma	83.883471
loop_
_atom_site_label
_atom_site_type_symbol
_atom_site_fract_x
_atom_site_fract_y
_atom_site_fract_z
O1	O	1.665988	0.106296	-0.068723
O2	O	1.300332	0.116426	-0.068730
O3	O	1.493491	0.001237	-0.068719
O4	O	1.472829	0.221484	-0.068734
O5	O	1.493464	0.001230	0.068774
O6	O	1.300305	0.116418	0.068763
O7	O	1.665962	0.106288	0.068770
Cu8	Cu	1.483131	0.111352	0.081321
Cu9	Cu	1.483162	0.111361	-0.081281
O10	O	1.472803	0.221477	0.068759
C11	C	1.492737	-0.026968	0.000027
C12	C	1.490516	-0.111001	0.000028
C13	C	1.253534	0.115678	0.000015
C14	C	1.114129	0.113454	0.000013
C15	C	1.603896	-0.158901	0.000031
C16	C	1.601802	-0.237858	0.000024
C17	C	1.486326	-0.268912	0.000019
C18	C	1.372937	-0.221005	0.000013
C19	C	1.375033	-0.142050	0.000014
C20	C	1.364483	-0.539422	0.000006
C21	C	1.362396	-0.618383	0.000007
C22	C	1.591252	-0.635230	0.000016
C23	C	1.593348	-0.556275	0.000017
C24	C	1.479960	-0.508375	0.000007
C25	C	1.482232	-0.422761	0.000013
C26	C	1.484052	-0.354524	0.000018
C27	C	1.083747	0.251193	-0.000007
C28	C	1.003066	0.319015	-0.000020
C29	C	0.872084	0.316920	-0.000021
C30	C	0.821783	0.246997	-0.000006
C31	C	0.902464	0.179175	0.000007
C32	C	1.033447	0.181277	0.000005
C33	C	0.932846	0.041438	0.000033
C34	C	1.063828	0.043531	0.000028
C35	C	0.882545	-0.028485	0.000048
C36	C	0.963227	-0.096308	0.000055
C37	C	1.094215	-0.094211	0.000055
C38	C	1.144509	-0.024291	0.000041
C39	C	1.712760	0.107035	0.000023
C40	C	1.852165	0.109260	0.000020
C41	C	1.473556	0.249682	0.000010
C42	C	1.475777	0.333714	0.000005
N43	N	1.483118	0.111346	0.195686
N44	N	1.483185	0.111362	-0.195646
C45	C	1.568675	0.060362	0.238955
C46	C	1.568681	0.060361	0.325502
C47	C	1.483136	0.111348	0.368778
C48	C	1.397570	0.162335	0.325503
C49	C	1.397559	0.162332	0.238958
C50	C	1.397613	0.162350	0.674532
C51	C	1.397634	0.162351	0.761083
C52	C	1.568735	0.060379	0.761076
C53	C	1.568724	0.060375	0.674530
C54	C	1.483155	0.111359	0.631263
C55	C	1.483147	0.111358	0.537419
C56	C	1.483148	0.111353	0.462621
H57	H	1.697930	-0.133623	0.000040
Cl58	Cl	1.744344	-0.298073	0.000031
Cl59	Cl	1.248409	0.253832	-0.000022
Cl60	Cl	1.290049	0.226444	0.620144
H61	H	1.638340	0.018845	0.203725
Cl62	Cl	1.676273	-0.003723	0.620129
H63	H	1.327889	0.203847	0.203729
H64	H	1.638347	0.018845	0.360731
H65	H	1.638407	0.018863	0.796314
H66	H	1.278915	-0.246296	0.000004
H67	H	1.327968	0.203872	0.796317
H68	H	1.272155	-0.500431	-0.000002
Cl69	Cl	0.657119	0.244366	0.000008
Cl70	Cl	1.232491	-0.081831	0.000007
H71	H	1.687380	-0.530995	0.000025
Cl72	Cl	1.733800	-0.695452	0.000025
Cl73	Cl	0.770652	0.402182	-0.000030
Cl74	Cl	1.217215	-0.657421	-0.000001
H75	H	1.327912	0.203848	0.360744
Cl76	Cl	1.066308	0.406914	-0.000040
H77	H	0.775892	-0.030186	0.000052
Cl78	Cl	1.195633	-0.179478	0.000078
Cl79	Cl	0.899984	-0.184202	0.000081
H80	H	1.251159	-0.022576	0.000031
