data_functionalizedCrystal
_audit_creation_method	'MofGen! by Chris Wilmer'
_symmetry_space_group_name_H-M	'P1'
_symmetry_Int_Tables_number	1
_symmetry_cell_setting	triclinic
loop_
_symmetry_equiv_pos_as_xyz
  x,y,z
_cell_length_a	19.188905
_cell_length_b	19.188924
_cell_length_c	12.996460
_cell_angle_alpha	89.991787
_cell_angle_beta	89.987288
_cell_angle_gamma	83.138260
loop_
_atom_site_label
_atom_site_type_symbol
_atom_site_fract_x
_atom_site_fract_y
_atom_site_fract_z
O1	O	0.926155	0.087086	-0.085741
O2	O	0.722841	0.098839	-0.085706
O3	O	0.830367	-0.008694	-0.085713
O4	O	0.818628	0.194619	-0.085735
O5	O	0.830356	-0.008700	0.085421
O6	O	0.722830	0.098833	0.085427
O7	O	0.926144	0.087080	0.085393
Cu8	Cu	0.824486	0.092956	0.101036
Cu9	Cu	0.824499	0.092963	-0.101350
O10	O	0.818617	0.194613	0.085399
C11	C	0.696824	0.098458	-0.000135
C12	C	0.619318	0.097324	-0.000121
C13	C	0.582933	0.096783	-0.093409
C14	C	0.510109	0.095710	-0.093422
C15	C	0.473676	0.095164	-0.000141
C16	C	0.510070	0.095710	0.093159
C17	C	0.582891	0.096790	0.093169
N18	N	0.364652	0.053733	0.069283
N19	N	0.295475	0.052705	0.069267
C20	C	0.254269	0.091911	-0.000166
N21	N	0.284855	0.132175	-0.069598
N22	N	0.354039	0.133199	-0.069585
C23	C	0.394713	0.093993	-0.000142
C24	C	0.138920	0.090208	-0.093474
C25	C	0.066094	0.089139	-0.093483
C26	C	0.066057	0.089132	0.093100
C27	C	0.138881	0.090207	0.093107
C28	C	0.175308	0.090742	-0.000183
C29	C	0.829982	-0.034708	-0.000145
C30	C	0.828844	-0.112213	-0.000142
C31	C	0.828318	-0.148609	-0.093427
C32	C	0.827238	-0.221431	-0.093435
C33	C	0.826698	-0.257857	-0.000152
C34	C	0.827219	-0.221452	0.093146
C35	C	0.828292	-0.148630	0.093151
N36	N	0.864742	-0.377526	0.069270
N37	N	0.863724	-0.446704	0.069259
C38	C	0.823464	-0.477266	-0.000161
N39	N	0.784269	-0.436037	-0.069585
N40	N	0.785290	-0.366853	-0.069577
C41	C	0.825534	-0.336821	-0.000147
C42	C	0.821766	-0.592624	-0.093461
C43	C	0.820682	-0.665448	-0.093465
C44	C	0.820670	-0.665468	0.093118
C45	C	0.821748	-0.592645	0.093119
C46	C	0.822299	-0.556228	-0.000173
C47	C	0.952160	0.087461	-0.000181
C48	C	1.029666	0.088594	-0.000201
C49	C	0.819002	0.220627	-0.000171
C50	C	0.820141	0.298132	-0.000181
N51	N	0.824481	0.092950	0.243383
N52	N	0.824508	0.092963	-0.243697
C53	C	0.824498	0.092964	0.663197
C54	C	0.824491	0.092962	0.546392
C55	C	0.824490	0.092958	0.453294
C56	C	0.824483	0.092955	0.336481
H57	H	0.036470	0.088702	-0.169452
O58	O	0.826667	-0.256721	0.183853
C59	C	0.827380	-0.208980	0.266194
H60	H	0.806045	-0.154106	0.238853
H61	H	0.793175	-0.225490	0.331442
H62	H	0.883493	-0.208739	0.294871
O63	O	0.822299	-0.557400	0.183830
C64	C	0.821574	-0.605161	0.266165
H65	H	0.842907	-0.660029	0.238808
H66	H	0.855774	-0.588670	0.331402
H67	H	0.765457	-0.605404	0.294863
H68	H	0.828717	-0.118997	0.169117
O69	O	0.822175	-0.557249	-0.184100
C70	C	0.761470	-0.566937	-0.240866
H71	H	0.718911	-0.581304	-0.186288
H72	H	0.741893	-0.516315	-0.283163
H73	H	0.774517	-0.611024	-0.299051
H74	H	0.820251	-0.695079	-0.169432
O75	O	0.618204	0.097336	-0.184120
C76	C	0.570470	0.096609	-0.266462
H77	H	0.515592	0.117939	-0.239122
H78	H	0.586979	0.130811	-0.331712
H79	H	0.570239	0.040492	-0.295135
H80	H	0.820225	-0.695125	0.169071
H81	H	0.480478	0.095270	-0.169390
O82	O	0.030663	0.088473	0.183690
C83	C	-0.003369	0.027401	0.189260
H84	H	0.024250	-0.014525	0.136322
H85	H	-0.001487	0.007089	0.271768
H86	H	-0.060387	0.040252	0.164195
O87	O	0.474668	0.095052	0.183745
C88	C	0.440638	0.033978	0.189317
H89	H	0.468261	-0.007949	0.136386
H90	H	0.442516	0.013670	0.271828
H91	H	0.383621	0.046826	0.164246
H92	H	0.168579	0.090650	-0.169436
H93	H	0.168507	0.090644	0.169072
H94	H	0.612516	0.097231	0.169137
H95	H	0.828765	-0.118962	-0.169393
H96	H	0.826806	-0.251070	-0.169401
