data_functionalizedCrystal
_audit_creation_method	'MofGen! by Chris Wilmer'
_symmetry_space_group_name_H-M	'P1'
_symmetry_Int_Tables_number	1
_symmetry_cell_setting	triclinic
loop_
_symmetry_equiv_pos_as_xyz
  x,y,z
_cell_length_a	10.654550
_cell_length_b	14.044220
_cell_length_c	9.730223
_cell_angle_alpha	90.003717
_cell_angle_beta	90.007970
_cell_angle_gamma	88.836890
loop_
_atom_site_label
_atom_site_type_symbol
_atom_site_fract_x
_atom_site_fract_y
_atom_site_fract_z
O1	O	1.681230	0.133229	0.114408
O2	O	1.317027	0.145922	0.114387
O3	O	1.493662	0.001555	0.114384
O4	O	1.504595	0.277596	0.114411
O5	O	1.493644	0.001556	-0.114196
O6	O	1.317010	0.145923	-0.114193
O7	O	1.681213	0.133230	-0.114172
Zn8	Zn	1.499108	0.139577	-0.150474
Zn9	Zn	1.499131	0.139575	0.150689
O10	O	1.504578	0.277597	-0.114169
C11	C	1.270127	0.144991	0.000094
C12	C	1.130403	0.142202	0.000085
C13	C	1.059459	0.227203	0.000114
C14	C	0.928175	0.224578	0.000137
C15	C	0.938790	0.051942	0.000109
C16	C	1.070072	0.054569	0.000076
C17	C	1.119790	0.314837	0.000123
C18	C	1.048846	0.399845	0.000153
C19	C	0.917561	0.397219	0.000177
C20	C	0.857221	0.309585	0.000170
C21	C	1.488867	-0.033790	0.000093
C22	C	1.474592	-0.139110	0.000090
C23	C	1.448493	-0.331943	0.000108
C24	C	1.549741	-0.388911	0.000119
C25	C	1.535219	-0.496210	0.000129
C26	C	1.463013	-0.224634	0.000098
C27	C	1.728113	0.134161	0.000124
C28	C	1.867836	0.136950	0.000142
C29	C	1.509372	0.312942	0.000125
C30	C	1.523648	0.418262	0.000137
N31	N	1.499102	0.139577	-0.356011
C32	C	1.420874	0.203474	-0.427971
C33	C	1.420899	0.203472	-0.571854
C34	C	1.577383	0.075668	-0.571804
C35	C	1.577364	0.075675	-0.427924
C36	C	1.342613	0.267376	-0.356058
C37	C	1.264378	0.331278	-0.428018
C38	C	1.264403	0.331276	-0.571901
C39	C	1.342663	0.267373	-0.643824
N40	N	1.499146	0.139568	0.356226
H41	H	0.859801	0.466437	0.000187
H42	H	1.127836	-0.014647	0.000056
F43	F	1.677296	-0.347332	0.000115
H44	H	1.350913	-0.363754	0.000106
H45	H	1.226688	0.316985	0.000110
H46	H	1.342583	0.267382	-0.238901
H47	H	1.200668	0.383312	-0.369451
H48	H	1.200710	0.383314	-0.630489
H49	H	1.342686	0.267383	-0.760983
H50	H	1.097984	0.471193	0.000147
F51	F	1.660627	0.007669	-0.351338
F52	F	0.717494	0.306795	0.000176
F53	F	0.874567	-0.041317	0.000107
H54	H	1.641098	0.023639	-0.630373
