data_functionalizedCrystal
_audit_creation_method	'MofGen! by Chris Wilmer'
_symmetry_space_group_name_H-M	'P1'
_symmetry_Int_Tables_number	1
_symmetry_cell_setting	triclinic
loop_
_symmetry_equiv_pos_as_xyz
  x,y,z
_cell_length_a	12.837943
_cell_length_b	10.654550
_cell_length_c	9.130313
_cell_angle_alpha	90.004369
_cell_angle_beta	89.997453
_cell_angle_gamma	90.343065
loop_
_atom_site_label
_atom_site_type_symbol
_atom_site_fract_x
_atom_site_fract_y
_atom_site_fract_z
O1	O	1.377802	-0.326751	-0.121780
O2	O	1.075880	-0.310610	-0.121787
O3	O	1.233782	-0.136698	-0.121774
O4	O	1.219899	-0.500662	-0.121793
O5	O	1.233772	-0.136691	0.121825
O6	O	1.075869	-0.310603	0.121812
O7	O	1.377791	-0.326744	0.121819
Cu8	Cu	1.226829	-0.318673	0.144058
Cu9	Cu	1.226842	-0.318681	-0.144026
O10	O	1.219888	-0.500655	0.121806
C11	C	1.037215	-0.305153	0.000012
C12	C	0.922021	-0.288891	0.000009
C13	C	1.232758	-0.089786	0.000025
C14	C	1.229708	0.049990	0.000022
C15	C	1.416456	-0.332200	0.000017
C16	C	1.531650	-0.348462	0.000010
C17	C	1.771203	-0.152958	0.000035
C18	C	1.879438	-0.168232	0.000029
C19	C	1.856359	-0.394284	0.000001
C20	C	1.748123	-0.379009	0.000007
C21	C	1.705549	-0.258343	0.000023
C22	C	1.597312	-0.243070	0.000019
C23	C	1.574234	-0.469120	0.000001
C24	C	1.682470	-0.484394	-0.000006
C25	C	1.220913	-0.547568	0.000004
C26	C	1.223963	-0.687344	-0.000003
N27	N	1.226827	-0.318667	0.346681
C28	C	1.322678	0.119331	0.000024
C29	C	1.319806	0.250665	0.000006
C30	C	1.130985	0.243307	-0.000009
C31	C	1.133858	0.111975	-0.000002
N32	N	1.226851	-0.318677	-0.346648
C33	C	1.296770	-0.241698	0.423338
C34	C	1.296780	-0.241699	0.576675
C35	C	1.156901	-0.395650	0.576683
C36	C	1.156887	-0.395641	0.423349
H37	H	1.562650	-0.144817	0.000025
H38	H	1.932890	-0.082416	0.000040
H39	H	1.058146	0.055516	-0.000007
O40	O	1.730011	-0.035661	0.000102
C41	C	1.811170	0.054082	0.000061
H42	H	1.884942	0.010067	0.046178
H43	H	1.787964	0.137549	0.070783
H44	H	1.826230	0.087201	-0.116807
O45	O	1.897897	-0.511401	-0.000039
C46	C	2.007507	-0.502275	0.000023
H47	H	2.032208	-0.407237	-0.046116
H48	H	2.041290	-0.580279	-0.070669
H49	H	2.037657	-0.511932	0.116900
O50	O	1.415807	0.059173	-0.000230
C51	C	1.472551	0.093516	-0.126377
H52	H	1.416523	0.127458	-0.214556
H53	H	1.517266	0.008812	-0.168723
H54	H	1.529750	0.172046	-0.097859
H55	H	1.717149	-0.582638	-0.000012
H56	H	1.052948	0.293791	-0.000026
H57	H	1.353719	-0.179019	0.360918
O58	O	1.364825	-0.166898	0.650913
C59	C	1.426529	-0.098937	0.550356
H60	H	1.428058	-0.150610	0.441048
H61	H	1.509249	-0.089742	0.594642
H62	H	1.392179	-0.001507	0.534067
O63	O	1.410091	0.318075	-0.000249
C64	C	1.414080	0.394266	-0.126402
H65	H	1.361376	0.352590	-0.214582
H66	H	1.497550	0.398998	-0.168743
H67	H	1.386540	0.492818	-0.097893
H68	H	1.520767	-0.554932	-0.000010
O69	O	1.088927	-0.470248	0.651327
C70	C	1.024437	-0.395230	0.740027
H71	H	1.065058	-0.301851	0.763000
H72	H	1.008412	-0.445723	0.847848
H73	H	0.947693	-0.377456	0.680959
O74	O	1.088902	-0.470532	0.349101
C75	C	1.027162	-0.538458	0.449647
H76	H	1.069715	-0.545012	0.558939
H77	H	1.012045	-0.636925	0.405324
H78	H	0.949805	-0.488365	0.465982
