data_functionalizedCrystal
_audit_creation_method	'MofGen! by Chris Wilmer'
_symmetry_space_group_name_H-M	'P1'
_symmetry_Int_Tables_number	1
_symmetry_cell_setting	triclinic
loop_
_symmetry_equiv_pos_as_xyz
  x,y,z
_cell_length_a	14.908294
_cell_length_b	12.759401
_cell_length_c	12.759399
_cell_angle_alpha	89.983359
_cell_angle_beta	93.268796
_cell_angle_gamma	86.719911
loop_
_atom_site_label
_atom_site_type_symbol
_atom_site_fract_x
_atom_site_fract_y
_atom_site_fract_z
Zn1	Zn	-0.510062	-1.571937	-0.452485
Zn2	Zn	-0.010062	-1.071937	0.047515
Zn3	Zn	-0.359211	-1.581979	-0.618053
Zn4	Zn	0.140789	-1.081979	-0.118053
Zn5	Zn	-0.359225	-1.406387	-0.442394
Zn6	Zn	0.140775	-0.906387	0.057606
Zn7	Zn	-0.510024	-1.396229	-0.628125
Zn8	Zn	-0.010024	-0.896229	-0.128125
O9	O	-0.434630	-1.489133	-0.535264
O10	O	0.065370	-0.989133	-0.035264
O11	O	-0.490061	-1.720289	-0.474456
O12	O	0.009939	-1.220289	0.025544
O13	O	-0.232971	-1.567140	-0.586313
O14	O	0.267029	-1.067140	-0.086313
O15	O	-0.379255	-1.428396	-0.296713
O16	O	0.120745	-0.928396	0.203287
O17	O	-0.379231	-1.727667	-0.596098
O18	O	0.120769	-1.227667	-0.096098
O19	O	-0.490075	-1.550025	-0.304127
O20	O	0.009925	-1.050025	0.195873
O21	O	-0.232981	-1.438133	-0.457257
O22	O	0.267019	-0.938133	0.042743
O23	O	-0.379219	-1.258019	-0.467024
O24	O	0.120781	-0.758019	0.032976
O25	O	-0.636271	-1.411083	-0.613264
O26	O	-0.136271	-0.911083	-0.113264
O27	O	-0.490010	-1.250556	-0.603479
O28	O	0.009990	-0.750556	-0.103479
O29	O	-0.636299	-1.540175	-0.484223
O30	O	-0.136299	-1.040175	0.015777
O31	O	-0.379195	-1.557290	-0.766408
O32	O	0.120805	-1.057290	-0.266408
O33	O	-0.489997	-1.420820	-0.773808
O34	O	0.010003	-0.920820	-0.273808
C35	C	-0.434612	-1.216167	-0.535250
C36	C	0.065388	-0.716167	-0.035250
C37	C	-0.434626	-1.099389	-0.535271
C38	C	0.065374	-0.599389	-0.035271
C39	C	-0.669933	-1.473376	-0.550992
C40	C	-0.169933	-0.973376	-0.050992
C41	C	-0.770206	-1.466661	-0.557695
C42	C	-0.270206	-0.966661	-0.057695
C43	C	-0.434610	-1.489070	-0.808230
C44	C	0.065390	-0.989070	-0.308230
C45	C	-0.434631	-1.489137	-0.925008
C46	C	0.065369	-0.989137	-0.425008
C47	C	-0.911521	-1.389988	-0.634314
C48	C	-0.411521	-0.889988	-0.134314
C49	C	-0.817307	-1.396296	-0.628024
C50	C	-0.317307	-0.896296	-0.128024
C51	C	-0.817326	-1.530722	-0.493649
C52	C	-0.317326	-1.030722	0.006351
C53	C	-0.911540	-1.524415	-0.499939
C54	C	-0.411540	-1.024415	0.000061
C55	C	-0.958635	-1.454047	-0.570275
C56	C	-0.458635	-0.954047	-0.070275
C57	C	-1.052851	-1.447746	-0.576569
C58	C	-0.552851	-0.947746	-0.076569
C59	C	-1.052868	-1.582167	-0.442189
C60	C	-0.552868	-1.082167	0.057811
C61	C	-0.958654	-1.588474	-0.435899
C62	C	-0.458654	-1.088474	0.064101
C63	C	-0.200243	-1.504889	-0.519521
C64	C	0.299757	-1.004889	-0.019521
C65	C	-0.099971	-1.511807	-0.512523
C66	C	0.400029	-1.011807	-0.012523
C67	C	-0.434649	-1.763165	-0.535279
C68	C	0.065351	-1.263165	-0.035279
C69	C	-0.434657	-1.879941	-0.535285
C70	C	0.065343	-1.379941	-0.035285
C71	C	-0.492225	-1.040675	-0.606419
C72	C	0.007775	-0.540675	-0.106419
C73	C	-0.492243	-0.930950	-0.606425
C74	C	0.007757	-0.430950	-0.106425
C75	C	-0.377056	-0.938663	-0.464129
C76	C	0.122944	-0.438663	0.035871
C77	C	-0.377043	-1.048386	-0.464120
C78	C	0.122957	-0.548386	0.035880
C79	C	-0.377002	-1.560269	-0.975987
C80	C	0.122998	-1.060269	-0.475987
C81	C	-0.377032	-1.560334	-1.085713
C82	C	0.122968	-1.060334	-0.585713
C83	C	-0.492323	-1.418127	-1.093473
C84	C	0.007677	-0.918127	-0.593473
C85	C	-0.492297	-1.418067	-0.983749
C86	C	0.007703	-0.918067	-0.483749
C87	C	-0.434671	-1.489223	-0.261234
C88	C	0.065329	-0.989223	0.238766
C89	C	-0.434688	-1.489262	-0.144458
C90	C	0.065312	-0.989262	0.355542
H91	H	-1.091194	-1.390451	-0.633843
H92	H	-0.591194	-0.890451	-0.133843
F93	F	-0.315774	-0.884373	-0.388411
F94	F	0.184226	-0.384373	0.111589
H95	H	-0.949866	-1.332699	-0.691591
H96	H	-0.449866	-0.832699	-0.191591
H97	H	-1.091238	-1.634330	-0.390045
H98	H	-0.591238	-1.134330	0.109955
F99	F	-0.767189	-1.605555	-0.418747
F100	F	-0.267189	-1.105555	0.081253
H101	H	-0.330139	-1.096193	-0.406176
H102	H	0.169861	-0.596193	0.093824
H103	H	-0.920296	-1.645763	-0.378631
H104	H	-0.420296	-1.145763	0.121369
F105	F	-0.315631	-1.635909	-0.913474
F106	F	0.184369	-1.135909	-0.413474
F107	F	-0.315698	-1.636045	-1.139963
F108	F	0.184302	-1.136045	-0.639963
F109	F	-0.553512	-1.094952	-0.682142
F110	F	-0.053512	-0.594952	-0.182142
H111	H	-0.539271	-1.360262	-1.141312
H112	H	-0.039271	-0.860262	-0.641312
H113	H	-0.778950	-1.344126	-0.680165
H114	H	-0.278950	-0.844126	-0.180165
F115	F	-0.553641	-1.342359	-0.929491
F116	F	-0.053641	-0.842359	-0.429491
H117	H	-0.539146	-0.883149	-0.664360
H118	H	-0.039146	-0.383149	-0.164360
