data_functionalizedCrystal
_audit_creation_method	'MofGen! by Chris Wilmer'
_symmetry_space_group_name_H-M	'P1'
_symmetry_Int_Tables_number	1
_symmetry_cell_setting	triclinic
loop_
_symmetry_equiv_pos_as_xyz
  x,y,z
_cell_length_a	13.339070
_cell_length_b	10.654554
_cell_length_c	9.730223
_cell_angle_alpha	90.002271
_cell_angle_beta	89.995816
_cell_angle_gamma	79.942081
loop_
_atom_site_label
_atom_site_type_symbol
_atom_site_fract_x
_atom_site_fract_y
_atom_site_fract_z
O1	O	-1.346717	0.631120	0.114332
O2	O	-1.051607	0.548281	0.114325
O3	O	-1.205945	0.409252	0.114322
O4	O	-1.192379	0.770149	0.114335
O5	O	-1.205934	0.409248	-0.114258
O6	O	-1.051596	0.548277	-0.114255
O7	O	-1.346706	0.631116	-0.114248
Zn8	Zn	-1.199149	0.589696	-0.150544
Zn9	Zn	-1.199164	0.589701	0.150620
O10	O	-1.192368	0.770145	-0.114245
C11	C	-1.013814	0.534286	0.000034
C12	C	-0.901219	0.492576	0.000031
C13	C	-1.204943	0.362115	0.000033
C14	C	-1.201960	0.221665	0.000037
C15	C	-1.384499	0.645111	0.000046
C16	C	-1.497094	0.686821	0.000058
C17	C	-0.538706	0.816891	0.000065
C18	C	-0.644494	0.856084	0.000072
C19	C	-0.708680	0.765210	0.000061
C20	C	-0.667068	0.635137	0.000044
C21	C	-0.561270	0.595941	0.000048
C22	C	-0.731245	0.544260	0.000044
C23	C	-0.689633	0.414187	0.000028
C24	C	-0.583844	0.374997	0.000031
C25	C	-0.519658	0.465871	0.000041
C26	C	-0.837043	0.583456	0.000041
C27	C	-0.859607	0.362506	0.000024
C28	C	-0.753819	0.323313	0.000017
C29	C	-1.193370	0.817282	0.000047
C30	C	-1.196353	0.957732	0.000052
N31	N	-1.199147	0.589695	-0.356080
C32	C	-1.200565	1.155699	0.124640
C33	C	-1.197758	1.023730	0.124649
C34	C	-1.197745	1.023707	-0.124561
C35	C	-1.200545	1.155672	-0.124568
C36	C	-1.261186	0.687524	-0.427996
C37	C	-1.261203	0.687523	-0.571879
C38	C	-1.137132	0.491856	-0.571917
C39	C	-1.137122	0.491854	-0.428036
N40	N	-1.199174	0.589695	0.356157
H41	H	-0.870913	0.689362	0.000049
C42	C	-0.468100	0.916838	0.000081
C43	C	-0.392277	0.920261	0.118785
C44	C	-0.321668	1.020215	0.118805
C45	C	-0.326882	1.116746	0.000120
C46	C	-0.402708	1.113326	-0.118593
C47	C	-0.473317	1.013372	-0.118613
H48	H	-0.388415	0.848800	0.206651
H49	H	-0.265537	1.022747	0.206684
H50	H	-0.274614	1.190739	0.000134
H51	H	-0.406571	1.184787	-0.206459
H52	H	-0.529448	1.010841	-0.206493
H53	H	-0.433515	0.433966	0.000035
H54	H	-1.196595	0.969959	-0.226010
C55	C	-1.068893	0.384254	-0.651080
C56	C	-1.116943	0.298742	-0.750005
C57	C	-1.048696	0.191145	-0.829168
C58	C	-0.932399	0.169060	-0.809407
C59	C	-0.884343	0.254574	-0.710478
C60	C	-0.952590	0.362171	-0.631315
H61	H	-1.203038	0.315089	-0.764637
H62	H	-1.084271	0.127842	-0.902402
H63	H	-0.881879	0.089410	-0.868009
H64	H	-0.798248	0.238227	-0.695846
H65	H	-0.917015	0.425474	-0.558081
C66	C	-1.196229	0.951170	0.261717
C67	C	-1.284528	0.985695	0.364507
C68	C	-1.282997	0.913136	0.501583
C69	C	-1.193168	0.806052	0.535868
C70	C	-1.104862	0.771521	0.433076
C71	C	-1.106393	0.844080	0.296000
H72	H	-1.351031	1.064971	0.339129
H73	H	-1.348367	0.938699	0.577676
H74	H	-1.192034	0.752339	0.637339
H75	H	-1.038359	0.692245	0.458453
H76	H	-1.041023	0.818517	0.219907
H77	H	-1.201675	1.209382	-0.226042
H78	H	-1.201714	1.209426	0.226102
C79	C	-1.068871	0.384236	-0.348917
C80	C	-1.000635	0.276624	-0.428060
C81	C	-0.932391	0.169010	-0.348940
C82	C	-0.932384	0.169007	-0.190677
C83	C	-1.000622	0.276623	-0.111525
C84	C	-1.068866	0.384237	-0.190645
H85	H	-1.000639	0.276622	-0.545223
H86	H	-0.881877	0.089346	-0.407534
H87	H	-0.881865	0.089345	-0.132107
H88	H	-1.000619	0.276625	0.005638
H89	H	-1.119381	0.463902	-0.132051
H90	H	-1.311691	0.767192	-0.369414
H91	H	-0.719924	0.217406	0.000015
H92	H	-1.311723	0.767184	-0.630427
H93	H	-0.549968	0.269083	0.000033
H94	H	-0.794817	0.797129	0.000070
H95	H	-0.678366	0.961989	0.000096
H96	H	-0.911868	0.288508	0.000021
