data_functionalizedCrystal
_audit_creation_method	'MofGen! by Chris Wilmer'
_symmetry_space_group_name_H-M	'P1'
_symmetry_Int_Tables_number	1
_symmetry_cell_setting	triclinic
loop_
_symmetry_equiv_pos_as_xyz
  x,y,z
_cell_length_a	12.759401
_cell_length_b	18.050589
_cell_length_c	12.759393
_cell_angle_alpha	90.029302
_cell_angle_beta	89.981708
_cell_angle_gamma	89.965141
loop_
_atom_site_label
_atom_site_type_symbol
_atom_site_fract_x
_atom_site_fract_y
_atom_site_fract_z
Zn1	Zn	1.606107	0.295621	-0.593990
Zn2	Zn	1.605941	0.419828	-0.418313
Zn3	Zn	1.430410	0.295657	-0.418329
Zn4	Zn	1.430337	0.419774	-0.593955
O5	O	1.518199	0.357720	-0.506147
O6	O	1.753106	0.312105	-0.570694
O7	O	1.582617	0.403395	-0.271294
O8	O	1.453817	0.191728	-0.441652
O9	O	1.752984	0.403360	-0.441625
O10	O	1.582901	0.191701	-0.570709
O11	O	1.453655	0.312167	-0.271306
O12	O	1.283379	0.312114	-0.441618
O13	O	1.453692	0.403266	-0.740981
O14	O	1.283325	0.403302	-0.570650
O15	O	1.582830	0.312052	-0.741006
O16	O	1.582546	0.523746	-0.441591
O17	O	1.453531	0.523706	-0.570634
C18	C	1.245231	0.357706	-0.506132
C19	C	1.128455	0.357718	-0.506151
C20	C	1.073592	0.405276	-0.573227
C21	C	0.963868	0.405285	-0.573238
C22	C	0.963879	0.310178	-0.439089
C23	C	1.073601	0.310165	-0.439084
C24	C	1.128446	0.452829	-0.640294
C25	C	1.073583	0.500391	-0.707374
C26	C	0.963859	0.500401	-0.707385
C27	C	0.908998	0.452848	-0.640317
C28	C	1.518041	0.550672	-0.506130
C29	C	1.518070	0.633218	-0.506158
C30	C	1.447948	0.832674	-0.576308
C31	C	1.422326	0.882121	-0.480440
C32	C	1.518149	0.784348	-0.506173
C33	C	1.543799	0.881983	-0.602053
C34	C	1.518223	0.930333	-0.506195
C35	C	1.492477	0.832708	-0.410254
C36	C	1.613994	0.832566	-0.531931
C37	C	1.588408	0.881991	-0.435997
C38	C	1.518103	0.700250	-0.506161
C39	C	1.518269	1.014430	-0.506196
C40	C	1.792232	0.357734	-0.506162
C41	C	1.909009	0.357740	-0.506168
C42	C	1.518345	1.164014	-0.506187
C43	C	1.518305	1.081469	-0.506208
C44	C	1.518271	0.357649	-0.780180
C45	C	1.518302	0.357619	-0.896957
C46	C	1.585456	0.405103	-0.951810
C47	C	1.585488	0.405071	-1.061534
C48	C	1.451203	0.310069	-1.061542
C49	C	1.451177	0.310097	-0.951820
C50	C	1.652581	0.452624	-0.896947
C51	C	1.719739	0.500113	-0.951801
C52	C	1.719771	0.500081	-1.061525
C53	C	1.652644	0.452561	-1.116395
C54	C	1.518187	0.357737	-0.233179
C55	C	1.518360	0.357558	-0.116403
H56	H	1.118258	0.539102	-0.761985
C57	C	1.241805	0.267919	-0.379521
C58	C	1.133916	0.257890	-0.365355
H59	H	1.279039	0.235640	-0.334009
H60	H	1.259743	0.317795	-0.364019
H61	H	1.259804	0.257109	-0.450142
H62	H	1.115915	0.268705	-0.294735
H63	H	1.115971	0.208002	-0.380849
C64	C	0.974875	0.594412	-0.839978
C65	C	0.903552	0.552678	-0.781119
H66	H	0.937643	0.626691	-0.885492
H67	H	1.017705	0.562087	-0.880242
H68	H	1.017636	0.622772	-0.794116
H69	H	0.860796	0.524314	-0.826981
H70	H	0.860704	0.585007	-0.740852
H71	H	0.919202	0.271463	-0.384485
H72	H	1.652684	0.452533	-1.205740
C73	C	1.267427	0.828452	-0.629038
C74	C	1.367708	0.803431	-0.656261
H75	H	1.217890	0.810393	-0.678391
H76	H	1.266465	0.881067	-0.629157
H77	H	1.249911	0.810851	-0.561107
H78	H	1.385227	0.821036	-0.724190
H79	H	1.368672	0.750804	-0.656153
C80	C	1.285620	0.504597	-0.713316
C81	C	1.249055	0.452818	-0.640286
H82	H	1.360078	0.504586	-0.713311
H83	H	1.260761	0.552500	-0.695024
H84	H	1.260829	0.491813	-0.781146
H85	H	1.273840	0.465606	-0.572455
H86	H	1.273924	0.404904	-0.658572
H87	H	1.647807	0.903509	-0.376626
C88	C	0.751813	0.504604	-0.713423
C89	C	0.788386	0.452832	-0.640366
H90	H	0.677354	0.504591	-0.713455
H91	H	0.776704	0.491821	-0.781229
H92	H	0.776564	0.552516	-0.695118
H93	H	0.763642	0.404919	-0.658675
H94	H	0.763484	0.465611	-0.572545
H95	H	1.341309	0.903904	-0.458674
C96	C	1.672675	0.885114	-0.739144
C97	C	1.573057	0.911204	-0.711496
H98	H	1.690732	0.903157	-0.806709
H99	H	1.672221	0.832499	-0.740078
H100	H	1.722634	0.902004	-0.689402
H101	H	1.523096	0.894310	-0.761234
H102	H	1.573503	0.963830	-0.710570
H103	H	1.470717	0.811153	-0.329156
C104	C	1.762979	0.760496	-0.478754
C105	C	1.723341	0.803158	-0.561369
H106	H	1.830489	0.742345	-0.496936
H107	H	1.717315	0.719985	-0.465785
H108	H	1.768032	0.790231	-0.417517
H109	H	1.718281	0.773421	-0.622605
H110	H	1.769016	0.843674	-0.574352
C111	C	1.318465	0.216166	-1.050534
C112	C	1.377414	0.257841	-1.121853
H113	H	1.272914	0.183921	-1.087768
H114	H	1.278238	0.248530	-1.007729
H115	H	1.364269	0.187772	-1.007747
H116	H	1.331611	0.286239	-1.164635
H117	H	1.417644	0.225472	-1.164675
H118	H	1.652560	0.452657	-0.807604
C119	C	1.770778	0.625882	-0.918006
C120	C	1.793523	0.552346	-0.891492
H121	H	1.816335	0.658127	-0.880780
H122	H	1.700180	0.636744	-0.900016
H123	H	1.780411	0.632649	-0.991205
H124	H	1.783882	0.545578	-0.818294
H125	H	1.864138	0.541480	-0.909475
C126	C	1.897650	0.536264	-1.095291
C127	C	1.793596	0.552278	-1.121815
H128	H	1.943224	0.568495	-1.132505
H129	H	1.913076	0.486370	-1.113291
H130	H	1.907218	0.543081	-1.022089
H131	H	1.784026	0.545455	-1.195016
H132	H	1.778165	0.602184	-1.103822
H133	H	1.396498	0.271429	-0.907157
