data_functionalizedCrystal
_audit_creation_method	'MofGen! by Chris Wilmer'
_symmetry_space_group_name_H-M	'P1'
_symmetry_Int_Tables_number	1
_symmetry_cell_setting	triclinic
loop_
_symmetry_equiv_pos_as_xyz
  x,y,z
_cell_length_a	18.050589
_cell_length_b	13.897449
_cell_length_c	13.897441
_cell_angle_alpha	89.979267
_cell_angle_beta	89.972127
_cell_angle_gamma	90.029500
loop_
_atom_site_label
_atom_site_type_symbol
_atom_site_fract_x
_atom_site_fract_y
_atom_site_fract_z
Zn1	Zn	-0.295610	1.474632	-0.545399
Zn2	Zn	-0.045610	1.724632	-0.295399
Zn3	Zn	0.204390	1.974632	-0.045399
Zn4	Zn	0.454390	2.224632	0.204601
Zn5	Zn	-0.419815	1.474496	-0.384108
Zn6	Zn	-0.169815	1.724496	-0.134108
Zn7	Zn	0.080185	1.974496	0.115892
Zn8	Zn	0.330185	2.224496	0.365892
Zn9	Zn	-0.295646	1.313321	-0.384118
Zn10	Zn	-0.045646	1.563321	-0.134118
Zn11	Zn	0.204354	1.813321	0.115882
Zn12	Zn	0.454354	2.063321	0.365882
Zn13	Zn	-0.419766	1.313273	-0.545361
Zn14	Zn	-0.169766	1.563273	-0.295361
Zn15	Zn	0.080234	1.813273	-0.045361
Zn16	Zn	0.330234	2.063273	0.204639
O17	O	-0.357709	1.393931	-0.464747
O18	O	-0.107709	1.643931	-0.214747
O19	O	0.142291	1.893931	0.035253
O20	O	0.392291	2.143931	0.285253
O21	O	-0.312092	1.609596	-0.524016
O22	O	-0.062092	1.859596	-0.274016
O23	O	0.187908	2.109596	-0.024016
O24	O	0.437908	2.359596	0.225984
O25	O	-0.403379	1.453079	-0.249128
O26	O	-0.153379	1.703079	0.000872
O27	O	0.096621	1.953079	0.250872
O28	O	0.346621	2.203079	0.500872
O29	O	-0.191716	1.334796	-0.405532
O30	O	0.058284	1.584796	-0.155532
O31	O	0.308284	1.834796	0.094468
O32	O	0.558284	2.084796	0.344468
O33	O	-0.403344	1.609496	-0.405516
O34	O	-0.153344	1.859496	-0.155516
O35	O	0.096656	2.109496	0.094484
O36	O	0.346656	2.359496	0.344484
O37	O	-0.191690	1.453311	-0.524025
O38	O	0.058310	1.703311	-0.274025
O39	O	0.308310	1.953311	-0.024025
O40	O	0.558310	2.203311	0.225975
O41	O	-0.312152	1.334665	-0.249135
O42	O	-0.062152	1.584665	0.000865
O43	O	0.187848	1.834665	0.250865
O44	O	0.437848	2.084665	0.500865
O45	O	-0.312105	1.178333	-0.405495
O46	O	-0.062105	1.428333	-0.155495
O47	O	0.187895	1.678333	0.094505
O48	O	0.437895	1.928333	0.344505
O49	O	-0.403261	1.334715	-0.680348
O50	O	-0.153261	1.584715	-0.430348
O51	O	0.096739	1.834715	-0.180348
O52	O	0.346739	2.084715	0.069652
O53	O	-0.403295	1.178298	-0.523960
O54	O	-0.153295	1.428298	-0.273960
O55	O	0.096705	1.678298	-0.023960
O56	O	0.346705	1.928298	0.226040
O57	O	-0.312045	1.453264	-0.680376
O58	O	-0.062045	1.703264	-0.430376
O59	O	0.187955	1.953264	-0.180376
O60	O	0.437955	2.203264	0.069624
O61	O	-0.523733	1.453033	-0.405479
O62	O	-0.273733	1.703033	-0.155479
O63	O	-0.023733	1.953033	0.094521
O64	O	0.226267	2.203033	0.344521
O65	O	-0.523697	1.334583	-0.523951
O66	O	-0.273697	1.584583	-0.273951
O67	O	-0.023697	1.834583	-0.023951
O68	O	0.226303	2.084583	0.226049
C69	C	-0.357699	1.143316	-0.464725
C70	C	-0.107699	1.393316	-0.214725
C71	C	0.142301	1.643316	0.035275
C72	C	0.392301	1.893316	0.285275
C73	C	-0.357713	1.036102	-0.464738
C74	C	-0.107713	1.286102	-0.214738
C75	C	0.142287	1.536102	0.035262
C76	C	0.392287	1.786102	0.285262
C77	C	-0.357716	0.839807	-0.464763
C78	C	-0.107716	1.089807	-0.214763
C79	C	0.142284	1.339807	0.035237
C80	C	0.392284	1.589807	0.285237
C81	C	-0.357712	0.949040	-0.464747
C82	C	-0.107712	1.199040	-0.214747
C83	C	0.142288	1.449040	0.035253
C84	C	0.392288	1.699040	0.285253
C85	C	-0.550661	1.393814	-0.464731
C86	C	-0.300661	1.643814	-0.214731
C87	C	-0.050661	1.893814	0.035269
C88	C	0.199339	2.143814	0.285269
C89	C	-0.633207	1.393853	-0.464756
C90	C	-0.383207	1.643853	-0.214756
C91	C	-0.133207	1.893853	0.035244
C92	C	0.116793	2.143853	0.285244
C93	C	-0.832665	1.329503	-0.529158
C94	C	-0.582665	1.579503	-0.279158
C95	C	-0.332665	1.829503	-0.029158
C96	C	-0.082665	2.079503	0.220842
C97	C	-0.882111	1.305986	-0.441140
C98	C	-0.632111	1.555986	-0.191140
C99	C	-0.382111	1.805986	0.058860
C100	C	-0.132111	2.055986	0.308860
C101	C	-0.784337	1.393947	-0.464769
C102	C	-0.534337	1.643947	-0.214769
C103	C	-0.284337	1.893947	0.035231
C104	C	-0.034337	2.143947	0.285231
C105	C	-0.881973	1.417512	-0.552797
C106	C	-0.631973	1.667512	-0.302797
C107	C	-0.381973	1.917512	-0.052797
C108	C	-0.131973	2.167512	0.197203
C109	C	-0.930323	1.394037	-0.464789
C110	C	-0.680323	1.644037	-0.214789
C111	C	-0.430323	1.894037	0.035211
C112	C	-0.180323	2.144037	0.285211
C113	C	-0.832696	1.370384	-0.376703
C114	C	-0.582696	1.620384	-0.126703
C115	C	-0.332696	1.870384	0.123297
C116	C	-0.082696	2.120384	0.373297
C117	C	-0.832554	1.481951	-0.488420
C118	C	-0.582554	1.731951	-0.238420
C119	C	-0.332554	1.981951	0.011580
C120	C	-0.082554	2.231951	0.261580
C121	C	-0.881977	1.458467	-0.400341
C122	C	-0.631977	1.708467	-0.150341
C123	C	-0.381977	1.958467	0.099659
C124	C	-0.131977	2.208467	0.349659
C125	C	-0.700239	1.393893	-0.464758
C126	C	-0.450239	1.643893	-0.214758
C127	C	-0.200239	1.893893	0.035242
C128	C	0.049761	2.143893	0.285242
C129	C	-1.014419	1.394092	-0.464789
C130	C	-0.764419	1.644092	-0.214789
C131	C	-0.514419	1.894092	0.035211
C132	C	-0.264419	2.144092	0.285211
C133	C	-0.164004	1.394074	-0.464784
C134	C	0.085996	1.644074	-0.214784
C135	C	0.335996	1.894074	0.035216
C136	C	0.585996	2.144074	0.285216
C137	C	-0.081458	1.394135	-0.464800
C138	C	0.168542	1.644135	-0.214800
C139	C	0.418542	1.894135	0.035200
C140	C	0.668542	2.144135	0.285200
C141	C	-0.357644	1.393999	-0.716340
C142	C	-0.107644	1.643999	-0.466340
C143	C	0.142356	1.893999	-0.216340
C144	C	0.392356	2.143999	0.033660
C145	C	-0.357616	1.394028	-0.823554
C146	C	-0.107616	1.644028	-0.573554
C147	C	0.142384	1.894028	-0.323554
C148	C	0.392384	2.144028	-0.073554
C149	C	-0.357720	1.645524	-0.464769
C150	C	-0.107720	1.895524	-0.214769
C151	C	0.142280	2.145524	0.035231
C152	C	0.392280	2.395524	0.285231
C153	C	-0.357724	1.752738	-0.464779
C154	C	-0.107724	2.002738	-0.214779
C155	C	0.142276	2.252738	0.035221
C156	C	0.392276	2.502738	0.285221
C157	C	-0.357565	1.394055	-1.019849
C158	C	-0.107565	1.644055	-0.769849
C159	C	0.142435	1.894055	-0.519849
C160	C	0.392435	2.144055	-0.269849
C161	C	-0.357595	1.394037	-0.910616
C162	C	-0.107595	1.644037	-0.660616
C163	C	0.142405	1.894037	-0.410616
C164	C	0.392405	2.144037	-0.160616
C165	C	-0.357721	1.393918	-0.214132
C166	C	-0.107721	1.643918	0.035868
C167	C	0.142279	1.893918	0.285868
C168	C	0.392279	2.143918	0.535868
C169	C	-0.357540	1.394076	-0.106919
C170	C	-0.107540	1.644076	0.143081
C171	C	0.142460	1.894076	0.393081
C172	C	0.392460	2.144076	0.643081
H173	H	-0.811012	1.274924	-0.583534
H174	H	-0.561012	1.524924	-0.333534
H175	H	-0.311012	1.774924	-0.083534
H176	H	-0.061012	2.024924	0.166466
F177	F	-0.804081	1.579149	-0.514599
F178	F	-0.554081	1.829149	-0.264599
F179	F	-0.304081	2.079149	-0.014599
F180	F	-0.054081	2.329149	0.235401
H181	H	-0.903493	1.513005	-0.345834
H182	H	-0.653493	1.763005	-0.095834
H183	H	-0.403493	2.013005	0.154166
H184	H	-0.153493	2.263005	0.404166
H185	H	-0.903895	1.231606	-0.421153
H186	H	-0.653895	1.481606	-0.171153
H187	H	-0.403895	1.731606	0.078847
H188	H	-0.153895	1.981606	0.328847
H189	H	-0.811140	1.350403	-0.302246
H190	H	-0.561140	1.600403	-0.052246
H191	H	-0.311140	1.850403	0.197754
H192	H	-0.061140	2.100403	0.447754
F193	F	-0.910269	1.443515	-0.650090
F194	F	-0.660269	1.693515	-0.400090
F195	F	-0.410269	1.943515	-0.150090
F196	F	-0.160269	2.193515	0.099910
