data_functionalizedCrystal
_audit_creation_method	'MofGen! by Chris Wilmer'
_symmetry_space_group_name_H-M	'P1'
_symmetry_Int_Tables_number	1
_symmetry_cell_setting	triclinic
loop_
_symmetry_equiv_pos_as_xyz
  x,y,z
_cell_length_a	14.044220
_cell_length_b	13.596369
_cell_length_c	14.519709
_cell_angle_alpha	90.006934
_cell_angle_beta	91.565489
_cell_angle_gamma	89.999747
loop_
_atom_site_label
_atom_site_type_symbol
_atom_site_fract_x
_atom_site_fract_y
_atom_site_fract_z
O1	O	1.258085	-0.081691	-0.222370
O2	O	0.982102	-0.081716	-0.214346
O3	O	1.127410	-0.081694	-0.084710
O4	O	1.112776	-0.081713	-0.352006
O5	O	1.127396	0.081889	-0.084701
O6	O	0.982087	0.081867	-0.214337
O7	O	1.258070	0.081892	-0.222361
Zn8	Zn	1.120076	0.107852	-0.218348
Zn9	Zn	1.120095	-0.107676	-0.218359
O10	O	1.112761	0.081870	-0.351997
C11	C	0.946774	0.000073	-0.210829
C12	C	0.841531	0.000064	-0.200352
C13	C	1.126721	0.000098	-0.050290
C14	C	1.124677	0.000098	0.052256
N15	N	1.120070	0.254944	-0.218340
C16	C	0.648837	0.000084	-0.181197
C17	C	0.591329	0.000083	-0.255505
C18	C	0.484108	0.000095	-0.244848
C19	C	0.756068	0.000073	-0.191854
C20	C	1.293398	0.000101	-0.225878
C21	C	1.398641	0.000104	-0.236355
N22	N	1.120109	-0.254767	-0.218360
C23	C	1.120094	0.656235	-0.218360
C24	C	1.120085	0.544583	-0.218357
C25	C	1.120083	0.455593	-0.218351
C26	C	1.120072	0.343934	-0.218347
C27	C	1.113451	0.000076	-0.386416
C28	C	1.115494	0.000070	-0.488963
C29	C	1.117153	0.000072	0.427758
C30	C	1.119243	0.000079	0.323282
C31	C	1.120915	0.000086	0.240010
C32	C	1.123005	0.000092	0.135527
H33	H	0.617546	0.000095	-0.109582
H34	H	0.622622	0.000073	-0.327127
