data_functionalizedCrystal
_audit_creation_method	'MofGen! by Chris Wilmer'
_symmetry_space_group_name_H-M	'P1'
_symmetry_Int_Tables_number	1
_symmetry_cell_setting	triclinic
loop_
_symmetry_equiv_pos_as_xyz
  x,y,z
_cell_length_a	14.044220
_cell_length_b	14.044190
_cell_length_c	12.503572
_cell_angle_alpha	93.839403
_cell_angle_beta	86.164750
_cell_angle_gamma	93.190328
loop_
_atom_site_label
_atom_site_type_symbol
_atom_site_fract_x
_atom_site_fract_y
_atom_site_fract_z
O1	O	1.282207	0.225116	-0.089227
O2	O	1.782207	0.725116	0.410773
O3	O	1.005537	0.216809	-0.089254
O4	O	1.505537	0.716809	0.410746
O5	O	1.139714	0.082627	-0.089220
O6	O	1.639714	0.582627	0.410780
O7	O	1.148029	0.359297	-0.089261
O8	O	1.648029	0.859297	0.410739
O9	O	1.129625	0.092737	0.089420
O10	O	1.629625	0.592737	0.589420
O11	O	0.995447	0.226918	0.089386
O12	O	1.495447	0.726918	0.589386
O13	O	1.272117	0.235226	0.089412
O14	O	1.772117	0.735226	0.589412
Cu15	Cu	1.132861	0.231995	0.105710
Cu16	Cu	1.632861	0.731995	0.605710
Cu17	Cu	1.144793	0.220039	-0.105552
Cu18	Cu	1.644793	0.720039	0.394448
O19	O	1.137940	0.369407	0.089378
O20	O	1.637940	0.869407	0.589378
C21	C	1.131033	0.052060	0.000103
C22	C	1.631033	0.552060	0.500103
C23	C	1.120185	-0.054082	0.000111
C24	C	1.620185	0.445918	0.500111
C25	C	0.964870	0.218228	0.000063
C26	C	1.464870	0.718228	0.500063
C27	C	0.858728	0.207383	0.000054
C28	C	1.358728	0.707383	0.500054
C29	C	0.664388	0.187558	0.000078
C30	C	1.164388	0.687558	0.500078
C31	C	0.613260	0.264472	0.000071
C32	C	1.113260	0.764472	0.500071
C33	C	0.505123	0.253441	0.000085
C34	C	1.005123	0.753441	0.500085
C35	C	0.772535	0.198587	0.000065
C36	C	1.272535	0.698587	0.500065
C37	C	1.177287	-0.299543	0.000075
C38	C	1.677287	0.200457	0.500075
C39	C	1.100371	-0.248417	0.000075
C40	C	1.600371	0.251583	0.500075
C41	C	1.111398	-0.140279	0.000095
C42	C	1.611398	0.359721	0.500095
C43	C	1.166262	-0.407691	0.000054
C44	C	1.666262	0.092309	0.500054
C45	C	1.312784	0.233806	0.000093
C46	C	1.812784	0.733806	0.500093
C47	C	1.418927	0.244651	0.000095
C48	C	1.918927	0.744651	0.500095
C49	C	1.146621	0.399974	0.000053
C50	C	1.646621	0.899974	0.500053
C51	C	1.157469	0.506116	0.000038
C52	C	1.657469	1.006116	0.500038
N53	N	1.124476	0.240404	0.254300
N54	N	1.624476	0.740404	0.754300
N55	N	1.153185	0.211623	-0.254142
N56	N	1.653185	0.711623	0.245858
C57	C	1.112141	0.252782	0.473412
C58	C	1.612141	0.752782	0.973412
C59	C	1.165517	0.199248	0.526753
C60	C	1.665517	0.699248	1.026753
C61	C	1.158654	0.206136	0.648675
C62	C	1.658654	0.706136	1.148675
C63	C	1.119003	0.245896	0.351480
C64	C	1.619003	0.745896	0.851480
H65	H	0.650703	0.338605	0.000055
H66	H	1.150703	0.838605	0.500055
N67	N	1.229344	0.135275	0.469217
N68	N	1.729344	0.635275	0.969217
N69	N	1.219778	0.047616	0.481686
N70	N	1.719778	0.547616	0.981686
H71	H	1.264868	0.002444	0.441056
H72	H	1.764868	0.502444	0.941056
H73	H	0.626948	0.113431	0.000095
H74	H	1.126948	0.613431	0.500095
H75	H	1.251413	-0.262101	0.000093
H76	H	1.751413	0.237899	0.500093
H77	H	1.061294	0.303783	0.519307
H78	H	1.561294	0.803783	1.019307
H79	H	1.026239	-0.285862	0.000061
H80	H	1.526239	0.214138	0.500061
