data_functionalizedCrystal
_audit_creation_method	'MofGen! by Chris Wilmer'
_symmetry_space_group_name_H-M	'P1'
_symmetry_Int_Tables_number	1
_symmetry_cell_setting	triclinic
loop_
_symmetry_equiv_pos_as_xyz
  x,y,z
_cell_length_a	19.188930
_cell_length_b	15.944551
_cell_length_c	14.421503
_cell_angle_alpha	89.996660
_cell_angle_beta	90.021481
_cell_angle_gamma	83.321759
loop_
_atom_site_label
_atom_site_type_symbol
_atom_site_fract_x
_atom_site_fract_y
_atom_site_fract_z
O1	O	-0.926420	-0.104854	-0.077412
O2	O	-0.723145	-0.118971	-0.077348
O3	O	-0.830334	0.010383	-0.077374
O4	O	-0.819232	-0.234208	-0.077387
O5	O	-0.830316	0.010364	0.076850
O6	O	-0.723128	-0.118990	0.076875
O7	O	-0.926402	-0.104874	0.076812
Cu8	Cu	-0.824763	-0.111934	0.090925
Cu9	Cu	-0.824784	-0.111911	-0.091462
O10	O	-0.819214	-0.234228	0.076837
C11	C	-0.697124	-0.118524	-0.000229
C12	C	-0.619616	-0.117151	-0.000204
C13	C	-0.829864	0.041666	-0.000261
C14	C	-0.828482	0.134906	-0.000261
C15	C	-0.952423	-0.105321	-0.000310
C16	C	-1.029932	-0.106693	-0.000341
C17	C	-0.574889	-0.193052	-0.000223
C18	C	-0.502061	-0.191763	-0.000233
C19	C	-0.473965	-0.114568	-0.000243
C20	C	-0.518703	-0.038658	-0.000219
C21	C	-0.591528	-0.039949	-0.000200
N22	N	-0.365839	-0.055556	-0.052766
N23	N	-0.296657	-0.054335	-0.052787
C24	C	-0.254547	-0.110673	-0.000300
N25	N	-0.284230	-0.168291	0.052197
N26	N	-0.353418	-0.169515	0.052213
C27	C	-0.394999	-0.113160	-0.000263
C28	C	-0.130851	-0.185181	-0.000328
C29	C	-0.058023	-0.183888	-0.000332
C30	C	-0.074666	-0.030781	-0.000328
C31	C	-0.147492	-0.032076	-0.000314
C32	C	-0.175580	-0.109278	-0.000319
C33	C	-0.819684	-0.265510	-0.000277
C34	C	-0.821066	-0.358751	-0.000284
N35	N	-0.824754	-0.111949	0.219206
C36	C	-0.758739	0.349502	-0.000252
C37	C	-0.791117	0.410631	0.075780
C38	C	-0.825983	0.305623	-0.000267
C39	C	-0.791150	0.410634	-0.076272
C40	C	-0.823563	0.470527	-0.000277
C41	C	-0.858379	0.365524	0.075827
C42	C	-0.858403	0.365520	-0.076293
C43	C	-0.890829	0.426631	-0.000243
C44	C	-0.827374	0.210626	-0.000260
C45	C	-0.822176	0.565522	-0.000277
N46	N	-0.824800	-0.111889	-0.219743
C47	C	-0.775181	-0.171736	0.468872
C48	C	-0.838271	-0.187807	0.530653
C49	C	-0.824771	-0.111929	0.408368
C50	C	-0.761697	-0.095877	0.530680
C51	C	-0.824781	-0.111912	0.591089
C52	C	-0.887892	-0.128038	0.468789
C53	C	-0.811277	-0.036076	0.468810
C54	C	-0.874413	-0.052114	0.530564
C55	C	-0.824764	-0.111941	0.303107
C56	C	-0.824796	-0.111899	0.696348
H57	H	-0.597753	-0.255916	-0.000228
C58	C	-0.718589	-0.240116	0.432265
N59	N	-0.675968	-0.291621	0.404690
C60	C	-0.853699	-0.274455	0.567362
N61	N	-0.865313	-0.339720	0.595011
H62	H	-0.702924	0.315986	-0.000158
H63	H	-0.886827	0.345504	-0.140592
H64	H	-0.886788	0.345632	0.140176
H65	H	-0.941248	-0.141684	0.441717
H66	H	-0.916399	-0.001527	0.557482
C67	C	-0.196695	0.051422	-0.000304
N68	N	-0.233755	0.114317	-0.000296
C69	C	-0.752723	0.437636	-0.163107
N70	N	-0.723774	0.457969	-0.228508
C71	C	-0.795817	0.050546	0.432076
N72	N	-0.784164	0.115788	0.404405
C73	C	-0.043764	0.054134	-0.000338
N74	N	-0.020486	0.118094	-0.000343
H75	H	-0.762668	0.430625	0.140076
H76	H	-0.465637	-0.253572	-0.000246
C77	C	-0.487796	0.046256	-0.000231
N78	N	-0.464517	0.110216	-0.000238
C79	C	-0.640731	0.043551	-0.000185
N80	N	-0.677792	0.106445	-0.000178
H81	H	-0.708353	-0.082309	0.557868
H82	H	-0.153721	-0.248043	-0.000318
H83	H	-0.021605	-0.245698	-0.000342
C84	C	-0.966296	0.471718	-0.000207
N85	N	-1.023137	0.505681	-0.000173
