data_functionalizedCrystal
_audit_creation_method	'MofGen! by Chris Wilmer'
_symmetry_space_group_name_H-M	'P1'
_symmetry_Int_Tables_number	1
_symmetry_cell_setting	triclinic
loop_
_symmetry_equiv_pos_as_xyz
  x,y,z
_cell_length_a	12.759401
_cell_length_b	25.639240
_cell_length_c	12.759393
_cell_angle_alpha	90.044235
_cell_angle_beta	90.019377
_cell_angle_gamma	90.034465
loop_
_atom_site_label
_atom_site_type_symbol
_atom_site_fract_x
_atom_site_fract_y
_atom_site_fract_z
Zn1	Zn	1.606124	-0.208096	0.593914
Zn2	Zn	2.106124	0.291904	1.093914
Zn3	Zn	1.605963	-0.295543	0.418195
Zn4	Zn	2.105963	0.204457	0.918195
Zn5	Zn	1.430426	-0.208126	0.418250
Zn6	Zn	1.930426	0.291874	0.918250
Zn7	Zn	1.430359	-0.295505	0.593834
Zn8	Zn	1.930359	0.204495	1.093834
O9	O	1.518218	-0.251817	0.506048
O10	O	2.018218	0.248183	1.006048
O11	O	1.753123	-0.219700	0.570614
O12	O	2.253123	0.280300	1.070614
O13	O	1.582638	-0.283975	0.271181
O14	O	2.082638	0.216025	0.771181
O15	O	1.453828	-0.134957	0.441609
O16	O	1.953828	0.365043	0.941609
O17	O	1.753005	-0.283946	0.441515
O18	O	2.253005	0.216054	0.941515
O19	O	1.582912	-0.134935	0.570668
O20	O	2.082912	0.365065	1.070668
O21	O	1.453671	-0.219750	0.271222
O22	O	1.953671	0.280250	0.771222
O23	O	1.283396	-0.219713	0.441531
O24	O	1.783396	0.280287	0.941531
O25	O	1.453714	-0.283882	0.740865
O26	O	1.953714	0.216118	1.240865
O27	O	1.283347	-0.283911	0.570532
O28	O	1.783347	0.216089	1.070532
O29	O	1.582847	-0.219663	0.740924
O30	O	2.082847	0.280337	1.240924
O31	O	1.582573	-0.368703	0.441437
O32	O	2.082573	0.131297	0.941437
O33	O	1.453558	-0.368675	0.570478
O34	O	1.953558	0.131325	1.070478
C35	C	1.245250	-0.251812	0.506030
C36	C	1.745250	0.248188	1.006030
C37	C	1.128474	-0.251822	0.506047
C38	C	1.628474	0.248178	1.006047
C39	C	1.518069	-0.387660	0.505966
C40	C	2.018069	0.112340	1.005966
C41	C	1.518102	-0.445774	0.505966
C42	C	2.018102	0.054226	1.005966
C43	C	0.963954	-0.218427	0.573385
C44	C	1.463954	0.281573	1.073385
C45	C	1.073678	-0.218425	0.573373
C46	C	1.573678	0.281575	1.073373
C47	C	1.073539	-0.285225	0.438734
C48	C	1.573539	0.214775	0.938734
C49	C	0.963817	-0.285229	0.438752
C50	C	1.463817	0.214771	0.938752
C51	C	0.964035	-0.179859	0.651114
C52	C	1.464035	0.320141	1.151114
C53	C	1.073759	-0.179857	0.651103
C54	C	1.573759	0.320143	1.151103
C55	C	1.585465	-0.806087	0.573370
C56	C	2.085465	-0.306087	1.073370
C57	C	1.585496	-0.860692	0.573392
C58	C	2.085496	-0.360692	1.073392
O59	O	1.642595	-0.888886	0.630617
O60	O	2.142595	-0.388886	1.130617
N61	N	1.518363	-0.888057	0.506150
N62	N	2.018363	-0.388057	1.006150
C63	C	1.451188	-0.860814	0.438889
C64	C	1.951188	-0.360814	0.938889
O65	O	1.394088	-0.889104	0.381697
O66	O	1.894088	-0.389104	0.881697
C67	C	1.451152	-0.806211	0.438874
C68	C	1.951152	-0.306211	0.938874
C69	C	1.518297	-0.778849	0.506113
C70	C	2.018297	-0.278849	1.006113
C71	C	1.652604	-0.778725	0.640605
C72	C	2.152604	-0.278725	1.140605
C73	C	1.652574	-0.724125	0.640582
C74	C	2.152574	-0.224125	1.140582
C75	C	1.585406	-0.696886	0.573324
C76	C	2.085406	-0.196886	1.073324
C77	C	1.518267	-0.724248	0.506090
C78	C	2.018267	-0.224248	1.006090
C79	C	1.383972	-0.778970	0.371620
C80	C	1.883972	-0.278970	0.871620
C81	C	1.383941	-0.724363	0.371611
C82	C	1.883941	-0.224363	0.871611
C83	C	1.451086	-0.697001	0.438850
C84	C	1.951086	-0.197001	0.938850
C85	C	1.451069	-0.642409	0.438810
C86	C	1.951069	-0.142409	0.938810
N87	N	1.518202	-0.615045	0.506052
N88	N	2.018202	-0.115045	1.006052
C89	C	1.585370	-0.642283	0.573309
C90	C	2.085370	-0.142283	1.073309
C91	C	1.451266	-0.975485	0.438928
C92	C	1.951266	-0.475485	0.938928
C93	C	1.451306	-1.030087	0.438937
C94	C	1.951306	-0.530087	0.938937
C95	C	1.585614	-1.029961	0.573441
C96	C	2.085614	-0.529961	1.073441
C97	C	1.585578	-0.975357	0.573426
C98	C	2.085578	-0.475357	1.073426
C99	C	1.518399	-0.948120	0.506170
C100	C	2.018399	-0.448120	1.006170
C101	C	1.585303	-0.527618	0.573255
C102	C	2.085303	-0.027618	1.073255
C103	C	1.585270	-0.473012	0.573223
C104	C	2.085270	0.026988	1.073223
C105	C	1.450959	-0.473144	0.438723
C106	C	1.950959	0.026856	0.938723
C107	C	1.450995	-0.527744	0.438751
C108	C	1.950995	-0.027744	0.938751
C109	C	1.518171	-0.554980	0.506025
C110	C	2.018171	-0.054980	1.006025
O111	O	1.393997	-0.614180	0.381617
O112	O	1.893997	-0.114180	0.881617
O113	O	1.642450	-0.613986	0.630501
O114	O	2.142450	-0.113986	1.130501
C115	C	1.792251	-0.251824	0.506067
C116	C	2.292251	0.248176	1.006067
C117	C	1.909027	-0.251827	0.506075
C118	C	2.409027	0.248173	1.006075
C119	C	1.518291	-0.251765	0.780082
C120	C	2.018291	0.248235	1.280082
C121	C	1.518323	-0.251742	0.896858
C122	C	2.018323	0.248258	1.396858
C123	C	1.518395	-0.115444	0.506154
C124	C	2.018395	0.384556	1.006154
C125	C	1.518471	-0.057330	0.506199
C126	C	2.018471	0.442670	1.006199
C127	C	1.518205	-0.251832	0.233081
C128	C	2.018205	0.248168	0.733081
C129	C	1.518377	-0.251707	0.116305
C130	C	2.018377	0.248293	0.616305
C131	C	1.585572	-0.218300	0.951753
C132	C	2.085572	0.281700	1.451753
C133	C	1.585597	-0.218281	1.061477
C134	C	2.085597	0.281719	1.561477
C135	C	1.451120	-0.285151	1.061403
C136	C	1.951120	0.214849	1.561403
C137	C	1.451091	-0.285167	0.951680
C138	C	1.951091	0.214833	1.451680
C139	C	1.663214	-0.179695	0.951796
C140	C	2.163214	0.320305	1.451796
C141	C	1.663239	-0.179676	1.061521
C142	C	2.163239	0.320324	1.561521
H143	H	0.919100	-0.312431	0.383951
H144	H	1.419100	0.187569	0.883951
H145	H	1.634149	-0.141204	1.095585
H146	H	2.134149	0.358796	1.595585
F147	F	1.724096	-0.807706	0.712200
F148	F	2.224096	-0.307706	1.212200
H149	H	1.641471	-0.139205	0.922058
H150	H	2.141471	0.360795	1.422058
F151	F	1.379855	-1.059202	0.367359
F152	F	1.879855	-0.559202	0.867359
H153	H	1.396381	-0.312363	1.106052
H154	H	1.896381	0.187637	1.606052
F155	F	1.764201	-0.198665	0.907297
F156	F	2.264201	0.301335	1.407297
H157	H	0.934288	-0.190750	0.732448
H158	H	1.434288	0.309250	1.232448
H159	H	1.744603	-0.190520	1.091295
H160	H	2.244603	0.309480	1.591295
F161	F	1.657041	-0.946241	0.644991
F162	F	2.157041	-0.446241	1.144991
H163	H	1.118162	-0.312421	0.383924
H164	H	1.618162	0.187579	0.883924
F165	F	1.657100	-1.058959	0.645024
F166	F	2.157100	-0.558959	1.145024
H167	H	0.930030	-0.141378	0.622124
H168	H	1.430030	0.358622	1.122124
F169	F	1.379766	-0.946501	0.367334
F170	F	1.879766	-0.446501	0.867334
F171	F	1.379546	-0.556866	0.367175
F172	F	1.879546	-0.056866	0.867175
F173	F	1.118273	-0.198872	0.752053
F174	F	1.618273	0.301128	1.252053
F175	F	1.656800	-0.556596	0.644855
F176	F	2.156800	-0.056596	1.144855
H177	H	1.103572	-0.139351	0.629452
H178	H	1.603572	0.360649	1.129452
F179	F	1.656740	-0.443895	0.644789
F180	F	2.156740	0.056105	1.144789
F181	F	1.312503	-0.808079	0.300056
F182	F	1.812503	-0.308079	0.800056
H183	H	1.707246	-0.701850	0.695336
H184	H	2.207246	-0.201850	1.195336
H185	H	1.329233	-0.702189	0.316844
H186	H	1.829233	-0.202189	0.816844
H187	H	1.396274	-0.450958	0.383960
H188	H	1.896274	0.049042	0.883960
H189	H	1.396327	-0.312397	0.906990
H190	H	1.896327	0.187603	1.406990
