data_functionalizedCrystal
_audit_creation_method	'MofGen! by Chris Wilmer'
_symmetry_space_group_name_H-M	'P1'
_symmetry_Int_Tables_number	1
_symmetry_cell_setting	triclinic
loop_
_symmetry_equiv_pos_as_xyz
  x,y,z
_cell_length_a	10.723024
_cell_length_b	15.944551
_cell_length_c	9.198806
_cell_angle_alpha	89.995864
_cell_angle_beta	89.996352
_cell_angle_gamma	83.983304
loop_
_atom_site_label
_atom_site_type_symbol
_atom_site_fract_x
_atom_site_fract_y
_atom_site_fract_z
O1	O	1.655699	0.117808	-0.120886
O2	O	1.292405	0.129085	-0.120892
O3	O	1.483973	0.001228	-0.120876
O4	O	1.464131	0.245664	-0.120902
O5	O	1.483958	0.001228	0.120909
O6	O	1.292389	0.129084	0.120893
O7	O	1.655684	0.117808	0.120899
Cu8	Cu	1.474035	0.123446	0.142973
Cu9	Cu	1.474053	0.123446	-0.142966
O10	O	1.464116	0.245664	0.120883
C11	C	1.245908	0.128264	0.000000
C12	C	1.107384	0.125809	-0.000001
C13	C	1.031498	0.197350	-0.000010
C14	C	0.888327	0.194814	-0.000012
C15	C	1.483141	-0.030070	0.000017
C16	C	1.480672	-0.123331	0.000018
C17	C	1.356026	-0.338901	-0.000004
C18	C	1.413900	-0.399587	0.119211
C19	C	1.476205	-0.294082	0.000006
C20	C	1.413944	-0.399570	-0.119170
C21	C	1.471880	-0.459020	-0.000011
C22	C	1.534111	-0.353540	0.119320
C23	C	1.534138	-0.353516	-0.119168
C24	C	1.592099	-0.414184	0.000077
C25	C	1.478692	-0.199066	0.000018
C26	C	1.469402	-0.554035	-0.000011
C27	C	1.702181	0.118629	0.000003
C28	C	1.840704	0.121084	-0.000005
C29	C	1.464947	0.276963	-0.000013
C30	C	1.467417	0.370223	-0.000024
N31	N	1.474032	0.123445	0.344087
N32	N	1.474067	0.123441	-0.344080
C33	C	1.554469	0.069525	0.416290
C34	C	1.554488	0.069522	0.583703
H35	H	0.905903	0.059835	-0.000006
H36	H	1.623316	0.023361	0.354170
C37	C	1.345959	-0.426609	-0.253509
C38	C	1.222445	-0.388124	-0.252948
C39	C	1.159777	-0.412999	-0.376680
H40	H	1.345407	-0.486144	-0.253138
H41	H	1.387779	-0.410039	-0.338201
H42	H	1.180636	-0.404699	-0.168278
H43	H	1.222960	-0.328590	-0.253341
H44	H	1.201597	-0.396429	-0.461373
H45	H	1.159234	-0.472533	-0.376299
H46	H	1.075970	-0.386885	-0.376323
C47	C	1.382079	0.185035	0.426644
C48	C	1.307845	0.234766	0.327587
C49	C	1.223109	0.291505	0.403580
H50	H	1.427031	0.220228	0.486017
H51	H	1.329982	0.154590	0.486001
H52	H	1.359935	0.265208	0.268255
H53	H	1.262866	0.199596	0.268210
H54	H	1.171013	0.261060	0.462937
H55	H	1.268072	0.326691	0.462951
H56	H	1.172724	0.325249	0.336382
H57	H	1.066360	0.062682	-0.000032
C58	C	1.222996	-0.295288	0.000443
C59	C	1.160641	-0.318499	0.125559
C60	C	1.038102	-0.278329	0.126037
H61	H	1.179727	-0.311675	-0.083288
H62	H	1.225441	-0.235899	-0.000345
H63	H	1.158189	-0.377874	0.126333
H64	H	1.203872	-0.302110	0.209311
H65	H	1.040547	-0.218941	0.125249
H66	H	0.994845	-0.294720	0.042300
H67	H	0.995783	-0.294066	0.210932
H68	H	1.363063	-0.419986	0.219997
H69	H	1.584893	-0.333259	0.220218
C70	C	1.725245	-0.457601	0.000462
C71	C	1.787561	-0.434258	0.125502
C72	C	1.910209	-0.474247	0.125924
H73	H	1.768410	-0.441162	-0.083322
H74	H	1.723004	-0.517008	-0.000262
H75	H	1.789809	-0.374865	0.126213
H76	H	1.744435	-0.450699	0.209306
H77	H	1.907967	-0.533654	0.125199
H78	H	1.953361	-0.457805	0.042135
H79	H	1.952502	-0.458421	0.210768
C80	C	1.086112	0.281554	0.000282
C81	C	1.045579	0.327126	0.124687
C82	C	1.095872	0.404696	0.125015
H83	H	1.058769	0.312703	-0.083940
H84	H	1.175076	0.272108	0.000364
H85	H	0.956634	0.336575	0.124591
H86	H	1.072920	0.296003	0.208928
H87	H	1.184836	0.395250	0.125097
H88	H	1.068526	0.435837	0.040788
H89	H	1.068388	0.435623	0.209428
H90	H	0.823120	0.256060	-0.000025
H91	H	1.584931	-0.333095	-0.219959
H92	H	1.623358	0.023362	0.645795
H93	H	1.405202	0.169609	0.593837
