data_functionalizedCrystal
_audit_creation_method	'MofGen! by Chris Wilmer'
_symmetry_space_group_name_H-M	'P1'
_symmetry_Int_Tables_number	1
_symmetry_cell_setting	triclinic
loop_
_symmetry_equiv_pos_as_xyz
  x,y,z
_cell_length_a	27.440280
_cell_length_b	20.875492
_cell_length_c	20.875625
_cell_angle_alpha	60.168684
_cell_angle_beta	92.967592
_cell_angle_gamma	58.312804
loop_
_atom_site_label
_atom_site_type_symbol
_atom_site_fract_x
_atom_site_fract_y
_atom_site_fract_z
Zr1	Zr	0.435434	0.740595	-0.122766
O2	O	0.347718	0.881768	-0.232539
O3	O	0.466386	0.599429	-0.084017
O4	O	0.455249	0.740595	-0.225190
O5	O	0.363019	0.740600	0.014195
O6	O	0.535451	0.740586	-0.225193
O7	O	0.358855	0.740602	-0.091366
O8	O	0.555373	0.488066	0.027340
O9	O	0.343096	0.993120	-0.238338
O10	O	0.534532	0.657483	-0.073652
O11	O	0.477786	0.657488	0.005128
O12	O	0.464674	0.823693	-0.161085
O13	O	0.407928	0.823697	-0.082304
Zr14	Zr	0.569987	0.740577	0.045586
Zr15	Zr	0.563346	0.740581	-0.122770
Zr16	Zr	0.442075	0.740591	0.045590
Zr17	Zr	0.428064	0.918188	-0.132015
Zr18	Zr	0.577357	0.562984	0.054835
O19	O	0.539034	0.881744	0.006837
O20	O	0.529592	0.881749	-0.232544
O21	O	0.357160	0.881763	0.006843
O22	O	0.657703	0.599404	0.155359
O23	O	0.648261	0.599410	-0.084023
O24	O	0.475829	0.599423	0.155364
O25	O	0.642402	0.740572	-0.091375
O26	O	0.550172	0.740578	0.148010
O27	O	0.469970	0.740586	0.148013
O28	O	0.646566	0.740570	0.014186
O29	O	0.444769	0.993109	-0.238341
O30	O	0.560652	0.488063	0.161161
O31	O	0.662324	0.488052	0.161158
O32	O	0.657046	0.488055	0.027337
O33	O	0.348375	0.993117	-0.104517
O34	O	0.450048	0.993106	-0.104520
O35	O	0.540747	0.657480	0.083905
O36	O	0.597493	0.657475	0.005124
O37	O	0.527635	0.823684	-0.082308
O38	O	0.470889	0.823689	-0.003528
C39	C	0.511930	0.518444	-0.027021
C40	C	0.515059	0.443051	-0.023094
C41	C	0.467502	0.469004	-0.082611
C42	C	0.470443	0.398177	-0.078949
C43	C	0.520937	0.301399	-0.015768
C44	C	0.568499	0.275447	0.043751
C45	C	0.565560	0.346272	0.040086
C46	C	0.534985	0.082995	0.001769
C47	C	0.537919	0.012169	0.005431
C48	C	0.439863	0.134904	-0.117272
C49	C	0.436927	0.205726	-0.120928
C50	C	0.484490	0.179768	-0.061411
N51	N	0.523943	0.229001	-0.012023
N52	N	0.481486	0.252165	-0.065160
C53	C	0.342712	0.740603	-0.038585
C54	C	0.288410	0.740609	-0.038583
C55	C	0.056019	0.740572	0.019581
C56	C	0.107038	0.740574	0.019583
O57	O	0.135392	0.740541	0.069057
N58	N	0.130257	0.740583	-0.038576
C59	C	0.102458	0.740579	-0.096734
O60	O	0.126892	0.740586	-0.146202
C61	C	0.051442	0.740570	-0.096731
C62	C	0.028222	0.740571	-0.038574
C63	C	0.032799	0.740572	0.077734
C64	C	-0.018218	0.740571	0.077731
C65	C	-0.046014	0.740571	0.019576
C66	C	-0.022795	0.740570	-0.038577
C67	C	0.023647	0.740560	-0.154885
C68	C	-0.027372	0.740550	-0.154877
C69	C	-0.050592	0.740551	-0.096720
C70	C	-0.101608	0.740569	-0.096735
N71	N	-0.124827	0.740561	-0.038577
C72	C	-0.097030	0.740561	0.019579
C73	C	0.209595	0.740597	-0.096735
C74	C	0.260607	0.740613	-0.096742
C75	C	0.265185	0.740606	0.019576
C76	C	0.214169	0.740597	0.019579
C77	C	0.186376	0.740588	-0.038576
C78	C	-0.204169	0.740561	0.019569
C79	C	-0.255192	0.740564	0.019559
C80	C	-0.259764	0.740566	-0.096756
C81	C	-0.208747	0.740568	-0.096749
C82	C	-0.180950	0.740562	-0.038580
O83	O	-0.129991	0.740598	-0.146182
O84	O	-0.121466	0.740542	0.069045
C85	C	0.662709	0.740569	-0.038595
C86	C	0.717011	0.740564	-0.038597
C87	C	0.494404	0.740591	-0.249179
C88	C	0.491585	0.740593	-0.320650
C89	C	0.493491	0.962728	-0.050159
C90	C	0.490362	1.038121	-0.054086
C91	C	0.534443	0.740590	-0.354229
C92	C	0.531796	0.740583	-0.421380
C93	C	0.486287	0.740586	-0.454955
C94	C	0.443427	0.740586	-0.421369
C95	C	0.446077	0.740586	-0.354216
C96	C	0.473626	0.740580	-0.655791
C97	C	0.470978	0.740582	-0.722951
C98	C	0.559349	0.740578	-0.722956
C99	C	0.561992	0.740584	-0.655804
C100	C	0.519134	0.740579	-0.622222
N101	N	0.483579	0.740582	-0.523595
N102	N	0.521845	0.740576	-0.553579
C103	C	0.511017	0.740581	0.171999
C104	C	0.513836	0.740580	0.243470
C105	C	0.671928	0.518427	-0.027026
C106	C	0.729359	0.443029	-0.023101
C107	C	0.520237	0.518439	0.183568
C108	C	0.526185	0.443045	0.258966
C109	C	0.680235	0.518422	0.183563
C110	C	0.740485	0.443022	0.258959
C111	C	0.325186	0.962750	-0.260743
C112	C	0.264936	1.038150	-0.336139
C113	C	0.333493	0.962745	-0.050154
C114	C	0.276062	1.038144	-0.054079
C115	C	0.485184	0.962733	-0.260748
C116	C	0.479236	1.038128	-0.336146
C117	C	0.723464	0.407625	-0.062386
C118	C	0.777421	0.336790	-0.058714
C119	C	0.837272	0.301355	-0.015753
C120	C	0.843166	0.336765	0.023533
C121	C	0.789209	0.407604	0.019856
C122	C	0.561843	0.407634	0.335502
C123	C	0.567430	0.336803	0.406352
C124	C	0.537361	0.301378	0.400666
C125	C	0.501698	0.336796	0.324122
C126	C	0.496108	0.407630	0.253273
C127	C	0.798405	0.407611	0.253244
C128	C	0.855021	0.336774	0.324080
C129	C	0.853715	0.301345	0.400631
C130	C	0.795788	0.336763	0.406345
C131	C	0.739174	0.407603	0.335509
C132	C	0.207015	1.073570	-0.330424
C133	C	0.150399	1.144429	-0.401262
C134	C	0.151704	1.179861	-0.477813
C135	C	0.209631	1.144439	-0.483526
C136	C	0.266246	1.073586	-0.412690
C137	C	0.281956	1.073555	-0.014802
C138	C	0.227998	1.144410	-0.018493
C139	C	0.168147	1.179847	-0.061457
C140	C	0.162253	1.144433	-0.100739
C141	C	0.216210	1.073584	-0.097052
C142	C	0.509313	1.073530	-0.330433
C143	C	0.503736	1.144362	-0.401271
C144	C	0.468079	1.179795	-0.477821
C145	C	0.438001	1.144386	-0.483532
C146	C	0.443582	1.073550	-0.412695
H147	H	0.609615	0.196643	0.095192
H148	H	0.604286	0.325135	0.088551
H149	H	0.426378	0.547803	-0.134052
H150	H	0.113515	1.173297	-0.135719
H151	H	0.538348	1.044691	-0.268109
Br152	Br	0.615833	0.288750	0.510222
Br153	Br	0.387913	0.740580	-0.308640
Br154	Br	0.070516	0.740571	0.156671
Br155	Br	0.460511	1.275931	-0.573951
H156	H	0.891904	0.307904	0.058511
H157	H	0.124216	1.237537	-0.064452
Br158	Br	0.660571	0.455649	0.343281
Br159	Br	0.363176	1.025480	0.043509
H160	H	0.794018	0.436421	0.051851
Br161	Br	0.800195	0.455683	0.149362
H162	H	0.772610	0.307967	-0.090705
H163	H	-0.049998	0.740540	-0.202234
H164	H	0.401140	0.156029	-0.165728
H165	H	0.313406	1.044748	-0.417353
Br166	Br	0.794027	0.288671	0.510243
H167	H	0.408969	1.173247	-0.545869
H168	H	0.211403	1.044754	-0.129034
H169	H	0.205940	1.044724	-0.268099
Br170	Br	0.933626	0.288720	0.316307
Br171	Br	0.368390	0.337067	-0.206671
H172	H	0.103238	1.173258	-0.396594
H173	H	0.528229	1.173184	-0.396606
Br174	Br	0.211392	1.192535	-0.587424
H175	H	0.541918	0.243700	0.458362
Br176	Br	0.602661	0.455690	0.343242
Br177	Br	0.460894	0.288709	0.316419
Br178	Br	0.402753	1.025521	-0.420463
Br179	Br	0.292104	0.740635	-0.175684
Br180	Br	0.415461	0.740576	-0.610221
H181	H	0.579039	-0.066637	0.056884
Br182	Br	0.405898	0.433404	-0.159724
Br183	Br	-0.286705	0.740571	0.098488
Br184	Br	0.599531	0.047757	0.082548
H185	H	0.899819	0.243662	0.458304
H186	H	-0.037119	0.740568	0.125090
Br187	Br	-0.166452	0.740553	0.098514
Br188	Br	0.302920	0.740607	0.098502
H189	H	0.195267	0.740597	0.066936
H190	H	0.186965	0.740597	-0.144098
Br191	Br	0.447713	0.455675	0.149406
H192	H	0.042545	0.740558	-0.202241
Br193	Br	-0.177244	0.740585	-0.175689
H194	H	0.105600	1.237554	-0.535486
H195	H	0.232809	1.173232	0.013499
H196	H	-0.282406	0.740570	-0.144108
H197	H	0.571499	0.740593	-0.326901
Br198	Br	0.623752	0.740585	-0.610241
Br199	Br	0.617512	0.740582	-0.768532
Br200	Br	0.589965	0.740574	-0.466951
Br201	Br	0.409207	0.740592	-0.768515
H202	H	0.674734	0.436475	-0.097379
Br203	Br	0.381667	0.740579	-0.466927
H204	H	0.881202	0.243672	-0.012765
