data_functionalizedCrystal
_audit_creation_method	'MofGen! by Chris Wilmer'
_symmetry_space_group_name_H-M	'P1'
_symmetry_Int_Tables_number	1
_symmetry_cell_setting	triclinic
loop_
_symmetry_equiv_pos_as_xyz
  x,y,z
_cell_length_a	10.654550
_cell_length_b	18.366186
_cell_length_c	10.654550
_cell_angle_alpha	89.995685
_cell_angle_beta	84.484931
_cell_angle_gamma	89.997719
loop_
_atom_site_label
_atom_site_type_symbol
_atom_site_fract_x
_atom_site_fract_y
_atom_site_fract_z
O1	O	1.667843	-0.060495	0.176398
O2	O	1.302365	-0.060508	0.193204
O3	O	1.493507	-0.060497	0.002062
O4	O	1.476701	-0.060507	0.367541
O5	O	1.493486	0.060602	0.002057
O6	O	1.302344	0.060591	0.193200
O7	O	1.667823	0.060604	0.176394
Zn8	Zn	1.485080	0.079825	0.184796
Zn9	Zn	1.485107	-0.079729	0.184802
O10	O	1.476680	0.060593	0.367536
C11	C	1.255556	0.000040	0.191968
C12	C	1.116113	0.000035	0.188276
C13	C	1.036628	0.000034	0.300818
C14	C	0.905607	0.000046	0.297341
C15	C	0.933570	0.000058	0.068772
C16	C	1.064588	0.000050	0.072250
C17	C	1.492263	0.000052	-0.044738
C18	C	1.488571	0.000051	-0.184181
C19	C	1.714631	0.000055	0.177630
C20	C	1.854074	0.000055	0.181322
N21	N	1.485071	0.188716	0.184791
N22	N	1.485126	-0.188620	0.184797
C23	C	1.569766	0.773271	0.100183
C24	C	1.569768	0.697044	0.100186
C25	C	1.485107	0.658927	0.184791
C26	C	1.400461	0.697045	0.269421
C27	C	1.400471	0.773271	0.269424
C28	C	1.370860	0.538168	0.200198
C29	C	1.370849	0.461944	0.200186
C30	C	1.485079	0.423820	0.184788
C31	C	1.599325	0.461930	0.169376
C32	C	1.599334	0.538157	0.169379
C33	C	1.485088	0.576273	0.184797
C34	C	1.569727	0.303056	0.100172
C35	C	1.569730	0.226827	0.100184
C36	C	1.400413	0.226830	0.269413
C37	C	1.400421	0.303058	0.269407
C38	C	1.485076	0.341166	0.184780
C39	C	1.601112	0.000055	-0.263667
C40	C	1.597636	0.000046	-0.394688
C41	C	1.369066	0.000032	-0.366725
C42	C	1.372544	0.000036	-0.235706
C43	C	1.477925	0.000042	0.414336
C44	C	1.481616	0.000038	0.553779
H45	H	1.078574	0.000026	0.395294
H46	H	1.280893	0.000031	-0.170985
O47	O	0.828575	0.000011	0.406782
C48	C	0.902154	0.000015	0.509928
H49	H	0.999643	-0.022917	0.478900
H50	H	0.854516	-0.035146	0.588850
H51	H	0.911800	0.058109	0.545442
H52	H	1.689279	0.000048	-0.459401
O53	O	0.883308	0.000035	-0.043823
C54	C	0.750622	0.000058	-0.022763
H55	H	0.720710	-0.022872	0.074978
H56	H	0.709756	-0.035095	-0.097072
H57	H	0.714108	0.058157	-0.029167
O58	O	1.256334	-0.000106	-0.416722
C59	C	1.187660	-0.062819	-0.376167
H60	H	1.255493	-0.106651	-0.348322
H61	H	1.133541	-0.083875	-0.455986
H62	H	1.118415	-0.048641	-0.291402
O63	O	1.651835	0.189693	0.018032
C64	C	1.729907	0.145466	0.085773
H65	H	1.733301	0.168432	0.184788
H66	H	1.829151	0.144447	0.035164
H67	H	1.690403	0.087756	0.092143
O68	O	1.141757	-0.000079	-0.037115
C69	C	1.118225	-0.062783	-0.107507
H70	H	1.074022	-0.106622	-0.041599
H71	H	1.210731	-0.083837	-0.157055
H72	H	1.050898	-0.048596	-0.180788
H73	H	1.638701	0.804297	0.031277
O74	O	1.652076	0.339967	0.017922
C75	C	1.726767	0.289981	-0.056781
H76	H	1.728644	0.235645	-0.005269
H77	H	1.826892	0.312006	-0.075031
H78	H	1.685164	0.281874	-0.150449
O79	O	1.259854	0.575173	0.214911
C80	C	1.186148	0.556541	0.116652
H81	H	1.250053	0.535573	0.032439
H82	H	1.132946	0.606678	0.087480
H83	H	1.115844	0.512307	0.150579
O84	O	1.318415	0.810326	0.351742
C85	C	1.386346	0.854428	0.429824
H86	H	1.485405	0.831452	0.432865
H87	H	1.335974	0.855294	0.529175
H88	H	1.392591	0.912199	0.390573
O89	O	1.651860	0.660027	0.017838
C90	C	1.630412	0.678648	-0.106696
H91	H	1.529876	0.699627	-0.108268
H92	H	1.644280	0.628503	-0.169553
H93	H	1.699737	0.722870	-0.142968
H94	H	1.692357	0.569183	0.156834
H95	H	1.695588	0.000066	-0.221720
O96	O	1.318393	0.659942	0.351659
C97	C	1.386320	0.615852	0.429779
H98	H	1.484154	0.604429	0.380664
H99	H	1.334065	0.562252	0.449159
H100	H	1.395666	0.645221	0.522683
H101	H	1.692342	0.430892	0.156847
H102	H	1.331486	0.195796	0.338305
H103	H	1.331494	0.334088	0.338304
O104	O	1.259848	0.424964	0.215386
C105	C	1.194584	0.443606	0.332377
H106	H	1.264394	0.464547	0.398578
H107	H	1.144172	0.393481	0.375496
H108	H	1.122412	0.487864	0.317661
