data_functionalizedCrystal
_audit_creation_method	'MofGen! by Chris Wilmer'
_symmetry_space_group_name_H-M	'P1'
_symmetry_Int_Tables_number	1
_symmetry_cell_setting	triclinic
loop_
_symmetry_equiv_pos_as_xyz
  x,y,z
_cell_length_a	11.026660
_cell_length_b	12.811415
_cell_length_c	10.065875
_cell_angle_alpha	93.481155
_cell_angle_beta	79.302288
_cell_angle_gamma	96.258766
loop_
_atom_site_label
_atom_site_type_symbol
_atom_site_fract_x
_atom_site_fract_y
_atom_site_fract_z
O1	O	1.638220	0.422277	-0.165762
O2	O	1.283709	0.372836	-0.159644
O3	O	1.466980	0.248410	-0.144237
O4	O	1.454949	0.546702	-0.181168
O5	O	1.432035	0.272258	0.079798
O6	O	1.248764	0.396684	0.064392
O7	O	1.603275	0.446125	0.058274
Zn8	Zn	1.420472	0.425191	0.096904
Zn9	Zn	1.466512	0.393770	-0.198273
O10	O	1.420005	0.570550	0.042868
C11	C	1.220803	0.375638	-0.046497
C12	C	1.085426	0.348448	-0.043132
C13	C	0.873535	0.395433	-0.048953
C14	C	1.013453	0.423538	-0.052430
C15	C	1.447762	0.221553	-0.027421
C16	C	1.442548	0.105993	-0.013123
C17	C	1.470827	-0.137151	-0.230526
C18	C	1.465928	-0.245731	-0.217098
C19	C	1.427843	-0.219748	0.027161
C20	C	1.432741	-0.111169	0.013733
C21	C	1.454236	-0.069875	-0.115115
C22	C	1.459143	0.038708	-0.128542
C23	C	1.421049	0.064687	0.115715
C24	C	1.416150	-0.043892	0.129143
C25	C	1.666181	0.443322	-0.054876
C26	C	1.801560	0.470512	-0.058250
C27	C	1.439222	0.597408	-0.073952
C28	C	1.444439	0.712967	-0.088259
N29	N	1.389059	0.446636	0.298354
N30	N	1.497935	0.372319	-0.399723
C31	C	1.455575	0.401223	0.371756
C32	C	1.431409	0.417738	0.526878
H33	H	1.043482	0.263347	-0.032687
H34	H	1.398645	-0.077530	0.234047
H35	H	1.410333	-0.253391	0.132062
H36	H	1.479434	-0.300505	-0.311078
H37	H	1.407544	0.119477	0.209692
H38	H	1.356561	0.468842	0.578871
H39	H	1.055412	0.508629	-0.062956
H40	H	1.572773	0.321205	0.548285
H41	H	1.530409	0.350113	0.319760
H42	H	1.314217	0.497736	0.350353
H43	H	0.843524	0.555598	-0.068775
H44	H	0.831566	0.310350	-0.038399
H45	H	1.476649	0.072328	-0.233456
H46	H	1.488340	-0.103528	-0.335439
