data_functionalizedCrystal
_audit_creation_method	'MofGen! by Chris Wilmer'
_symmetry_space_group_name_H-M	'P1'
_symmetry_Int_Tables_number	1
_symmetry_cell_setting	triclinic
loop_
_symmetry_equiv_pos_as_xyz
  x,y,z
_cell_length_a	8.559649
_cell_length_b	8.559649
_cell_length_c	7.088929
_cell_angle_alpha	84.655815
_cell_angle_beta	84.675669
_cell_angle_gamma	110.221336
loop_
_atom_site_label
_atom_site_type_symbol
_atom_site_fract_x
_atom_site_fract_y
_atom_site_fract_z
O1	O	-2.108181	-0.036315	-0.158989
O2	O	-1.632696	0.047467	-0.158989
O3	O	-1.912330	-0.232167	-0.158987
O4	O	-1.828548	0.243319	-0.158991
O5	O	-1.949709	-0.269612	0.158988
O6	O	-1.670076	0.010021	0.158986
O7	O	-2.145561	-0.073760	0.158986
Cu8	Cu	-1.911231	-0.035289	0.188020
Cu9	Cu	-1.867026	0.008995	-0.188023
O10	O	-1.865927	0.205873	0.158984
C11	C	-1.591077	0.035093	-0.000002
C12	C	-1.411378	0.053992	-0.000002
C13	C	-1.937368	-0.311198	-0.000003
C14	C	-1.956266	-0.490896	-0.000014
C15	C	-1.187180	-0.061387	-0.000002
C16	C	-1.366879	-0.080286	-0.000003
C17	C	-1.840888	0.284905	-0.000004
C18	C	-1.821989	0.464604	-0.000006
N19	N	-1.942335	-0.066438	0.452508
N20	N	-1.835937	0.040130	-0.452511
H21	H	-1.466256	-0.209704	-0.000012
C22	C	-1.686958	0.189319	0.437187
N23	N	-1.574743	0.301690	0.354095
C24	C	-2.091320	-0.215636	0.562818
N25	N	-2.203533	-0.328013	0.645905
H26	H	-1.311988	0.183421	-0.000012
H27	H	-1.692570	-0.436018	-0.000000
H28	H	-2.085696	-0.590286	0.000002
