data_functionalizedCrystal
_audit_creation_method	'MofGen! by Chris Wilmer'
_symmetry_space_group_name_H-M	'P1'
_symmetry_Int_Tables_number	1
_symmetry_cell_setting	triclinic
loop_
_symmetry_equiv_pos_as_xyz
  x,y,z
_cell_length_a	19.121102
_cell_length_b	29.839131
_cell_length_c	29.839126
_cell_angle_alpha	90.031806
_cell_angle_beta	92.458332
_cell_angle_gamma	87.589066
loop_
_atom_site_label
_atom_site_type_symbol
_atom_site_fract_x
_atom_site_fract_y
_atom_site_fract_z
Zn1	Zn	1.073671	-0.208236	0.283241
Zn2	Zn	1.573671	0.291764	0.783241
Zn3	Zn	1.073562	-0.283354	0.208097
Zn4	Zn	1.573562	0.216646	0.708097
Zn5	Zn	0.956220	-0.205031	0.204922
Zn6	Zn	1.456220	0.294969	0.704922
Zn7	Zn	0.956167	-0.280128	0.280000
Zn8	Zn	1.456167	0.219872	0.780000
O9	O	1.014905	-0.244187	0.244065
O10	O	1.514905	0.255813	0.744065
O11	O	1.171940	-0.220892	0.275958
O12	O	1.671940	0.279108	0.775958
O13	O	1.057973	-0.272972	0.144809
O14	O	1.557973	0.227028	0.644809
O15	O	0.971868	-0.142591	0.215339
O16	O	1.471868	0.357409	0.715339
O17	O	1.171860	-0.276080	0.220750
O18	O	1.671860	0.223920	0.720750
O19	O	1.058159	-0.144946	0.272879
O20	O	1.558159	0.355054	0.772879
O21	O	0.971762	-0.215429	0.142476
O22	O	1.471762	0.284571	0.642476
O23	O	0.857929	-0.212301	0.212197
O24	O	1.357929	0.287699	0.712197
O25	O	0.971777	-0.270583	0.343297
O26	O	1.471777	0.229417	0.843297
O27	O	0.857890	-0.267475	0.267356
O28	O	1.357890	0.232525	0.767356
O29	O	1.058107	-0.217764	0.345678
O30	O	1.558107	0.282236	0.845678
O31	O	1.057921	-0.345791	0.217608
O32	O	1.557921	0.154209	0.717608
O33	O	0.971671	-0.343421	0.270434
O34	O	1.471671	0.156579	0.770434
C35	C	0.832426	-0.239190	0.239080
C36	C	1.332426	0.260810	0.739080
C37	C	0.754361	-0.237064	0.236958
C38	C	1.254361	0.262936	0.736958
C39	C	1.014798	-0.360907	0.244024
C40	C	1.514798	0.139093	0.744024
C41	C	1.014816	-0.410842	0.244024
C42	C	1.514816	0.089158	0.744024
C43	C	0.717683	-0.264834	0.264635
C44	C	1.217683	0.235166	0.764635
C45	C	0.644333	-0.262830	0.262643
C46	C	1.144333	0.237170	0.762643
C47	C	0.607661	-0.233057	0.232973
C48	C	1.107661	0.266943	0.732973
C49	C	0.644343	-0.205284	0.205295
C50	C	1.144343	0.294716	0.705295
C51	C	0.717692	-0.207286	0.207289
C52	C	1.217692	0.292714	0.707289
C53	C	0.386193	-0.225570	0.225519
C54	C	0.886193	0.274430	0.725519
C55	C	0.312839	-0.223571	0.223526
C56	C	0.812839	0.276429	0.723526
C57	C	0.312833	-0.281116	0.280875
C58	C	0.812833	0.218884	0.780875
C59	C	0.386184	-0.283118	0.282864
C60	C	0.886184	0.216882	0.782864
C61	C	0.422860	-0.255343	0.255189
C62	C	0.922860	0.244657	0.755189
C63	C	0.532684	-0.231009	0.230935
C64	C	1.032684	0.268991	0.730935
C65	C	0.497835	-0.257389	0.257229
C66	C	0.997835	0.242611	0.757229
C67	C	1.059826	-0.721678	0.274067
C68	C	1.559826	-0.221678	0.774067
C69	C	1.059903	-0.909354	0.274096
C70	C	1.559903	-0.409354	0.774096
O71	O	1.098067	-0.934630	0.299609
O72	O	1.598067	-0.434630	0.799609
N73	N	1.015024	-0.931632	0.244118
N74	N	1.515024	-0.431632	0.744118
C75	C	0.970120	-0.906989	0.214133
C76	C	1.470120	-0.406989	0.714133
O77	O	0.931945	-0.930245	0.188639
O78	O	1.431945	-0.430245	0.688639
C79	C	0.970041	-0.719315	0.214107
C80	C	1.470041	-0.219315	0.714107
C81	C	1.014927	-0.697039	0.244083
C82	C	1.514927	-0.197039	0.744083
C83	C	1.104709	-0.699402	0.304041
C84	C	1.604709	-0.199402	0.804041
C85	C	1.104692	-0.652486	0.304032
C86	C	1.604692	-0.152486	0.804032
C87	C	1.059793	-0.627847	0.274048
C88	C	1.559793	-0.127847	0.774048
C89	C	1.014910	-0.650123	0.244074
C90	C	1.514910	-0.150123	0.744074
C91	C	0.925133	-0.694673	0.184124
C92	C	1.425133	-0.194673	0.684124
C93	C	0.925116	-0.647751	0.184121
C94	C	1.425116	-0.147751	0.684121
C95	C	0.970003	-0.625475	0.214097
C96	C	1.470003	-0.125475	0.714097
C97	C	0.969994	-0.578567	0.214081
C98	C	1.469994	-0.078567	0.714081
N99	N	1.014873	-0.556289	0.244059
N100	N	1.514873	-0.056289	0.744059
C101	C	1.059772	-0.580928	0.274042
C102	C	1.559772	-0.080928	0.774042
C103	C	0.970166	-1.005521	0.214149
C104	C	1.470166	-0.505521	0.714149
C105	C	0.970186	-1.052440	0.214155
C106	C	1.470186	-0.552440	0.714155
C107	C	1.059968	-1.054801	0.274118
C108	C	1.559968	-0.554801	0.774118
C109	C	1.059951	-1.007881	0.274110
C110	C	1.559951	-0.507881	0.774110
C111	C	1.015044	-0.983242	0.244126
C112	C	1.515044	-0.483242	0.744126
C113	C	1.059734	-0.482401	0.274020
C114	C	1.559734	0.017599	0.774020
C115	C	1.059715	-0.435481	0.274007
C116	C	1.559715	0.064519	0.774007
C117	C	0.969931	-0.433124	0.214046
C118	C	1.469931	0.066876	0.714046
C119	C	0.969952	-0.480040	0.214057
C120	C	1.469952	0.019960	0.714057
C121	C	1.014856	-0.504678	0.244048
C122	C	1.514856	-0.004678	0.744048
O123	O	0.931844	-0.553262	0.188585
O124	O	1.431844	-0.053262	0.688585
O125	O	1.097931	-0.557664	0.299539
O126	O	1.597931	-0.057664	0.799539
C127	C	1.059843	-0.768594	0.274076
C128	C	1.559843	-0.268594	0.774076
C129	C	1.014961	-0.790871	0.244102
C130	C	1.514961	-0.290871	0.744102
C131	C	0.970062	-0.766231	0.214118
C132	C	1.470062	-0.266231	0.714118
C133	C	1.014981	-0.837789	0.244108
C134	C	1.514981	-0.337789	0.744108
C135	C	1.059881	-0.862429	0.274091
C136	C	1.559881	-0.362429	0.774091
C137	C	1.104759	-0.840150	0.304069
C138	C	1.604759	-0.340150	0.804069
C139	C	1.104742	-0.793234	0.304060
C140	C	1.604742	-0.293234	0.804060
C141	C	0.925183	-0.788510	0.184140
C142	C	1.425183	-0.288510	0.684140
C143	C	0.925204	-0.835426	0.184151
C144	C	1.425204	-0.335426	0.684151
C145	C	0.970103	-0.860066	0.214135
C146	C	1.470103	-0.360066	0.714135
C147	C	1.198096	-0.249203	0.249070
C148	C	1.698096	0.250797	0.749070
C149	C	1.276161	-0.251341	0.251202
C150	C	1.776161	0.248659	0.751202
C151	C	1.014948	-0.244171	0.361245
C152	C	1.514948	0.255829	0.861245
C153	C	1.014967	-0.244164	0.411180
C154	C	1.514967	0.255836	0.911180
C155	C	1.015031	-0.127012	0.244116
C156	C	1.515031	0.372988	0.744116
C157	C	1.015085	-0.077079	0.244138
C158	C	1.515085	0.422921	0.744138
C159	C	1.014902	-0.244172	0.127342
C160	C	1.514902	0.255828	0.627342
C161	C	1.015019	-0.244056	0.077412
C162	C	1.515019	0.255944	0.577412
C163	C	0.970091	-0.214157	0.719612
C164	C	1.470091	0.285843	1.219612
C165	C	0.970111	-0.214126	0.907285
C166	C	1.470111	0.285874	1.407285
O167	O	0.931921	-0.188657	0.930519
O168	O	1.431921	0.311343	1.430519
N169	N	1.015000	-0.244081	0.931966
N170	N	1.515000	0.255919	1.431966
C171	C	1.059884	-0.274047	0.909725
C172	C	1.559884	0.225953	1.409725
O173	O	1.098060	-0.299528	0.935023
O174	O	1.598060	0.200472	1.435023
C175	C	1.059860	-0.274080	0.722052
C176	C	1.559860	0.225920	1.222052
C177	C	1.014973	-0.244120	0.697374
C178	C	1.514973	0.255880	1.197374
C179	C	0.925207	-0.184200	0.694934
C180	C	1.425207	0.315800	1.194934
C181	C	0.925205	-0.184206	0.648018
C182	C	1.425205	0.315794	1.148018
C183	C	0.970087	-0.214169	0.625781
C184	C	1.470087	0.285831	1.125781
C185	C	1.014971	-0.244126	0.650459
C186	C	1.514971	0.255874	1.150459
C187	C	1.104740	-0.304048	0.699812
C188	C	1.604740	0.195952	1.199812
C189	C	1.104729	-0.304054	0.652890
C190	C	1.604729	0.195946	1.152890
C191	C	1.059842	-0.274094	0.628213
C192	C	1.559842	0.225906	1.128213
C193	C	1.059852	-0.274096	0.581305
C194	C	1.559852	0.225904	1.081305
N195	N	1.014963	-0.244141	0.556625
N196	N	1.514963	0.255859	1.056625
C197	C	0.970080	-0.214178	0.578863
C198	C	1.470080	0.285822	1.078863
C199	C	1.059895	-0.274027	1.008256
C200	C	1.559895	0.225973	1.508256
C201	C	1.059902	-0.274019	1.055174
C202	C	1.559902	0.225981	1.555174
C203	C	0.970127	-0.214098	1.052731
C204	C	1.470127	0.285902	1.552731
C205	C	0.970124	-0.214105	1.005812
C206	C	1.470124	0.285895	1.505812
C207	C	1.015005	-0.244073	0.983575
C208	C	1.515005	0.255927	1.483575
C209	C	0.970080	-0.214193	0.480337
C210	C	1.470080	0.285807	0.980337
C211	C	0.970085	-0.214201	0.433417
C212	C	1.470085	0.285799	0.933417
C213	C	1.059856	-0.274123	0.435864
C214	C	1.559856	0.225877	0.935864
C215	C	1.059855	-0.274114	0.482779
C216	C	1.559855	0.225886	0.982779
C217	C	1.014961	-0.244147	0.505015
C218	C	1.514961	0.255853	1.005015
O219	O	1.098016	-0.299555	0.558042
O220	O	1.598016	0.200445	1.058042
O221	O	0.931899	-0.188708	0.553556
O222	O	1.431899	0.311292	1.053556
C223	C	0.970093	-0.214151	0.766527
C224	C	1.470093	0.285849	1.266527
C225	C	1.014977	-0.244107	0.791205
C226	C	1.514977	0.255893	1.291205
C227	C	1.059859	-0.274071	0.768967
C228	C	1.559859	0.225929	1.268967
C229	C	1.014984	-0.244099	0.838123
C230	C	1.514984	0.255901	1.338123
C231	C	0.970102	-0.214136	0.860361
C232	C	1.470102	0.285864	1.360361
C233	C	0.925213	-0.184181	0.835680
C234	C	1.425213	0.315819	1.335680
C235	C	0.925211	-0.184187	0.788765
C236	C	1.425211	0.315813	1.288765
C237	C	1.104748	-0.304025	0.793648
C238	C	1.604748	0.195975	1.293648
C239	C	1.104747	-0.304016	0.840563
C240	C	1.604747	0.195984	1.340563
C241	C	1.059865	-0.274053	0.862801
C242	C	1.559865	0.225947	1.362801
H243	H	0.747536	-0.289079	0.288794
H244	H	1.247536	0.210921	0.788794
C245	C	1.109326	-0.983382	0.307087
C246	C	1.609326	-0.483382	0.807087
N247	N	1.146517	-0.964931	0.331929
N248	N	1.646517	-0.464931	0.831929
H249	H	1.141271	-0.719459	0.328460
H250	H	1.641271	-0.219459	0.828460
C251	C	0.426527	-0.195020	0.195072
C252	C	0.926527	0.304980	0.695072
N253	N	0.456909	-0.172008	0.172137
N254	N	0.956909	0.327992	0.672137
C255	C	0.875827	-0.151231	0.761625
C256	C	1.375827	0.348769	1.261625
N257	N	0.838627	-0.126408	0.741186
N258	N	1.338627	0.373592	1.241186
C259	C	0.920755	-0.978424	0.181167
C260	C	1.420755	-0.478424	0.681167
N261	N	0.883536	-0.958016	0.156325
N262	N	1.383536	-0.458016	0.656325
C263	C	0.758037	-0.176738	0.176842
C264	C	1.258037	0.323262	0.676842
N265	N	0.788424	-0.153727	0.153909
N266	N	1.288424	0.346273	0.653909
H267	H	0.888546	-0.627692	0.159705
H268	H	1.388546	-0.127692	0.659705
C269	C	1.109354	-1.081913	0.307103
C270	C	1.609354	-0.581913	0.807103
N271	N	1.146545	-1.102336	0.331948
N272	N	1.646545	-0.602336	0.831948
H273	H	0.614473	-0.285443	0.285180
H274	H	1.114473	0.214557	0.785180
H275	H	0.933643	-1.070573	0.189740
H276	H	1.433643	-0.570573	0.689740
C277	C	0.920741	-0.181150	0.978671
C278	C	1.420741	0.318850	1.478671
N279	N	0.883541	-0.156328	0.958230
N280	N	1.383541	0.343672	1.458230
C281	C	0.538176	-0.290139	0.289864
C282	C	1.038176	0.209861	0.789864
N283	N	0.568568	-0.314808	0.314443
N284	N	1.068568	0.185192	0.814443
H285	H	0.416038	-0.307362	0.307024
H286	H	0.916038	0.192638	0.807024
C287	C	1.154129	-0.336977	0.867704
C288	C	1.654129	0.163023	1.367704
N289	N	1.191318	-0.361805	0.888144
N290	N	1.691318	0.138195	1.388144
H291	H	0.933407	-0.498179	0.189644
H292	H	1.433407	0.001821	0.689644
C293	C	1.109098	-0.410980	0.306984
C294	C	1.609098	0.089020	0.806984
N295	N	1.146292	-0.392528	0.331822
N296	N	1.646292	0.107472	0.831822
C297	C	0.875749	-0.719166	0.151150
C298	C	1.375749	-0.219166	0.651150
N299	N	0.838547	-0.737613	0.126313
N300	N	1.338547	-0.237613	0.626313
C301	C	1.154147	-0.336976	0.769194
C302	C	1.654147	0.163024	1.269194
N303	N	1.191367	-0.361790	0.750777
N304	N	1.691367	0.138210	1.250777
C305	C	0.920541	-0.406012	0.181067
C306	C	1.420541	0.093988	0.681067
N307	N	0.883336	-0.385589	0.156230
N308	N	1.383336	0.114411	0.656230
H309	H	1.141293	-0.775100	0.328470
H310	H	1.641293	-0.275100	0.828470
C311	C	0.920753	-0.181141	1.077201
C312	C	1.420753	0.318859	1.577201
N313	N	0.883561	-0.156321	1.095634
N314	N	1.383561	0.343679	1.595634
C315	C	1.109135	-0.509496	0.307009
C316	C	1.609135	-0.009496	0.807009
N317	N	1.146348	-0.529903	0.331854
N318	N	1.646348	-0.029903	0.831854
C319	C	0.272484	-0.311663	0.311319
C320	C	0.772484	0.188337	0.811319
N321	N	0.242092	-0.334670	0.334253
N322	N	0.742092	0.165330	0.834253
H323	H	0.282982	-0.199322	0.199367
H324	H	0.782982	0.300678	0.699367
C325	C	1.154148	-0.867262	0.337052
C326	C	1.654148	-0.367262	0.837052
N327	N	1.191341	-0.887686	0.361895
N328	N	1.691341	-0.387686	0.861895
C329	C	0.875821	-0.859924	0.151173
C330	C	1.375821	-0.359924	0.651173
N331	N	0.838622	-0.878375	0.126337
N332	N	1.338622	-0.378375	0.626337
H333	H	0.502818	-0.206769	0.206776
H334	H	1.002818	0.293231	0.706776
C335	C	0.920701	-0.181243	0.406274
C336	C	1.420701	0.318757	0.906274
N337	N	0.883505	-0.156420	0.385832
N338	N	1.383505	0.343580	0.885832
H339	H	0.614479	-0.181041	0.181139
H340	H	1.114479	0.318959	0.681139
H341	H	0.933524	-0.189791	0.498435
H342	H	1.433524	0.310209	0.998435
H343	H	1.141240	-0.634352	0.328443
H344	H	1.641240	-0.134352	0.828443
C345	C	0.875841	-0.151222	0.860151
C346	C	1.375841	0.348778	1.360151
N347	N	0.838654	-0.126400	0.878584
N348	N	1.338654	0.373600	1.378584
H349	H	1.096461	-0.298410	1.075263
H350	H	1.596461	0.201590	1.575263
C351	C	1.109295	-0.306982	0.983802
C352	C	1.609295	0.193018	1.483802
N353	N	1.146514	-0.331797	0.965386
N354	N	1.646514	0.168203	1.465386
H355	H	0.888620	-0.768452	0.159724
H356	H	1.388620	-0.268452	0.659724
H357	H	0.888651	-0.159812	0.627930
H358	H	1.388651	0.340188	1.127930
C359	C	1.154107	-0.337019	0.628433
C360	C	1.654107	0.162981	1.128433
N361	N	1.191302	-0.361847	0.610013
N362	N	1.691302	0.138153	1.110013
H363	H	1.141292	-0.328445	0.719897
H364	H	1.641292	0.171555	1.219897
H365	H	0.888655	-0.159800	0.713035
H366	H	1.388655	0.340200	1.213035
H367	H	1.096413	-0.298505	0.502874
H368	H	1.596413	0.201495	1.002874
H369	H	1.096400	-0.298517	0.417750
H370	H	1.596400	0.201483	0.917750
