data_functionalizedCrystal
_audit_creation_method	'MofGen! by Chris Wilmer'
_symmetry_space_group_name_H-M	'P1'
_symmetry_Int_Tables_number	1
_symmetry_cell_setting	triclinic
loop_
_symmetry_equiv_pos_as_xyz
  x,y,z
_cell_length_a	6.817900
_cell_length_b	10.992410
_cell_length_c	10.992421
_cell_angle_alpha	91.831025
_cell_angle_beta	108.764763
_cell_angle_gamma	108.764651
loop_
_atom_site_label
_atom_site_type_symbol
_atom_site_fract_x
_atom_site_fract_y
_atom_site_fract_z
V1	V	-4.114248	-0.400575	-0.177761
O2	O	-4.072376	-0.392968	0.008542
O3	O	-4.091827	-0.397818	-0.352470
O4	O	-4.091840	-0.575288	-0.175026
O5	O	-4.072363	-0.214270	-0.170129
V6	V	-4.591142	-0.378294	-0.155477
O7	O	-4.390048	-0.449452	-0.226642
O8	O	-4.765539	-0.329417	-0.106595
O9	O	-4.390356	-0.381051	0.019232
O10	O	-4.750411	-0.385901	-0.341780
O11	O	-4.750424	-0.564599	-0.163108
O12	O	-4.390343	-0.203581	-0.158211
C13	C	-3.942307	-0.391494	-0.395060
C14	C	-4.005435	-0.390404	-0.537887
C15	C	-3.873099	-0.381618	-0.733174
C16	C	-3.807017	-0.382242	-0.584530
C17	C	-4.076044	-0.270588	-0.576522
C18	C	-4.140279	-0.269320	-0.725065
C19	C	-4.271785	-0.514935	-0.763647
C20	C	-4.202731	-0.517535	-0.615133
C21	C	-3.942322	-0.617873	-0.168712
C22	C	-4.005457	-0.760702	-0.167632
C23	C	-3.872580	-0.955826	-0.157795
C24	C	-3.807029	-0.807343	-0.159451
C25	C	-4.203473	-0.837793	-0.294312
C26	C	-4.267786	-0.986360	-0.293192
C27	C	-4.145552	-0.948352	-0.047893
C28	C	-4.074843	-0.799340	-0.047293
C29	C	-4.203219	-0.387371	0.061816
C30	C	-4.119331	-0.388470	0.204641
C31	C	-4.203203	-0.160989	-0.164530
C32	C	-4.119306	-0.018159	-0.165603
H33	H	-3.847276	-0.466700	-0.779594
Br34	Br	-3.711782	-0.524929	-0.541578
H35	H	-3.847642	-1.003810	-0.242371
Br36	Br	-4.433973	-0.269007	-0.793215
H37	H	-3.757306	-0.290415	-0.753734
Br38	Br	-4.121062	-0.665288	-0.575324
H39	H	-4.352513	-0.530916	-0.584926
H40	H	-4.221676	-0.271970	-0.546286
Br41	Br	-3.559196	-0.230107	-0.497110
H42	H	-4.029479	-0.174188	-0.742580
Br43	Br	-3.841729	-0.113713	-0.486126
H44	H	-4.451634	-0.521215	-0.804764
H45	H	-4.252224	-1.032621	-0.382320
H46	H	-4.157711	-0.812179	-0.383659
H47	H	-4.265447	-0.605597	-0.813163
H48	H	-3.658574	-0.754011	-0.068362
Br49	Br	-4.454125	-0.789797	-0.311921
Br50	Br	-3.677176	-0.986978	-0.004787
H51	H	-3.749849	-0.782519	-0.245200
H52	H	-4.449788	-1.028990	-0.304208
Br53	Br	-3.974033	-0.982305	0.112445
H54	H	-3.931589	-0.746991	0.046420
Br55	Br	-4.311695	-0.745140	-0.044798
H56	H	-4.324536	-0.989193	-0.052498
