data_functionalizedCrystal
_audit_creation_method	'MofGen! by Chris Wilmer'
_symmetry_space_group_name_H-M	'P1'
_symmetry_Int_Tables_number	1
_symmetry_cell_setting	triclinic
loop_
_symmetry_equiv_pos_as_xyz
  x,y,z
_cell_length_a	15.538191
_cell_length_b	23.532407
_cell_length_c	14.185569
_cell_angle_alpha	76.924933
_cell_angle_beta	97.875798
_cell_angle_gamma	65.060386
loop_
_atom_site_label
_atom_site_type_symbol
_atom_site_fract_x
_atom_site_fract_y
_atom_site_fract_z
O1	O	1.230119	-0.167965	-0.083405
O2	O	0.955241	-0.102078	-0.083414
O3	O	1.100973	-0.219642	-0.083391
O4	O	1.084386	-0.050401	-0.083428
O5	O	1.144024	-0.254369	0.083451
O6	O	0.998292	-0.136805	0.083427
O7	O	1.273169	-0.202692	0.083436
Cu8	Cu	1.139661	-0.172919	0.098666
Cu9	Cu	1.088749	-0.131851	-0.098643
O10	O	1.127437	-0.085128	0.083413
C11	C	0.941606	-0.112548	0.000006
C12	C	0.836839	-0.092014	0.000003
C13	C	1.122077	-0.258136	0.000032
C14	C	1.120810	-0.321097	0.000040
C15	C	0.550965	-0.296010	0.000032
C16	C	0.452518	-0.276701	0.000027
C17	C	0.429052	-0.168092	0.000004
C18	C	0.527501	-0.187393	0.000014
C19	C	0.588450	-0.251353	0.000027
C20	C	0.564986	-0.142735	0.000008
C21	C	0.663425	-0.162034	0.000013
C22	C	0.724379	-0.225991	0.000023
C23	C	0.686889	-0.270652	0.000031
C24	C	0.504034	-0.078774	-0.000012
C25	C	0.541519	-0.034116	-0.000018
C26	C	0.639961	-0.053416	-0.000006
C27	C	0.700915	-0.117373	0.000004
C28	C	0.677451	-0.008755	-0.000015
C29	C	0.775890	-0.028054	-0.000010
C30	C	0.799355	-0.136672	0.000009
C31	C	1.199074	-0.736103	-0.000012
C32	C	1.197893	-0.795262	-0.000020
O33	O	1.270447	-0.846751	-0.000055
N34	N	1.111258	-0.800275	-0.000022
C35	C	1.025796	-0.746122	-0.000027
O36	O	0.951997	-0.755818	-0.000030
C37	C	1.026976	-0.686963	-0.000026
C38	C	1.113619	-0.681957	-0.000014
C39	C	1.285710	-0.731095	-0.000001
C40	C	1.286891	-0.671940	0.000008
C41	C	1.201436	-0.617794	0.000007
C42	C	1.114800	-0.622802	-0.000004
C43	C	0.941513	-0.632810	-0.000038
C44	C	0.942700	-0.573649	-0.000038
C45	C	1.029343	-0.568643	-0.000026
C46	C	1.030526	-0.509502	0.000003
N47	N	1.117161	-0.504489	0.000006
C48	C	1.202616	-0.558635	0.000007
C49	C	1.023323	-0.870361	-0.000030
C50	C	1.022144	-0.929521	-0.000023
C51	C	1.194241	-0.978656	-0.000018
C52	C	1.195421	-0.919497	-0.000017
C53	C	1.109958	-0.865349	-0.000027
C54	C	1.205090	-0.434404	0.000028
C55	C	1.206265	-0.375243	0.000042
C56	C	1.034167	-0.326112	0.000032
C57	C	1.032993	-0.385269	0.000023
C58	C	1.118462	-0.439415	0.000018
O59	O	0.958009	-0.457984	0.000034
O60	O	1.276399	-0.548925	-0.000003
C61	C	1.286804	-0.192222	0.000014
C62	C	1.391568	-0.212754	0.000010
C63	C	1.106332	-0.046633	-0.000012
C64	C	1.107598	0.016329	-0.000026
N65	N	1.175477	-0.201806	0.237443
N66	N	1.052941	-0.102970	-0.237420
C67	C	0.947714	-0.018124	0.605056
C68	C	0.974850	-0.040003	0.710082
C69	C	1.103922	-0.144083	0.710064
C70	C	1.076793	-0.122214	0.605036
C71	C	0.998689	-0.059234	0.552540
C72	C	1.127769	-0.163323	0.552520
C73	C	1.100645	-0.141454	0.447501
C74	C	1.022546	-0.078476	0.394998
C75	C	0.971565	-0.037365	0.447521
C76	C	1.205877	-0.226302	0.605017
C77	C	1.256852	-0.267411	0.552501
C78	C	1.229724	-0.245544	0.447480
C79	C	1.151625	-0.182566	0.394977
C80	C	1.280705	-0.286655	0.394957
C81	C	1.253581	-0.264786	0.289938
C82	C	1.124502	-0.160697	0.289959
H83	H	0.804531	-0.241700	0.000013
O84	O	0.857367	-0.637711	-0.000194
C85	C	0.733799	-0.657915	-0.086700
C86	C	0.829116	-0.652405	-0.086631
H87	H	0.710919	-0.669782	-0.156587
H88	H	0.746907	-0.698941	-0.016932
H89	H	0.672965	-0.609048	-0.086661
H90	H	0.889996	-0.701239	-0.086705
H91	H	0.815928	-0.611348	-0.156393
O92	O	1.370981	-0.666976	0.000049
C93	C	1.449077	-0.597616	-0.000026
C94	C	1.353782	-0.603147	-0.000040
H95	H	1.435200	-0.546010	-0.000120
H96	H	1.509317	-0.635870	0.069809
H97	H	1.473250	-0.606864	-0.069837
H98	H	1.329520	-0.593885	0.069723
H99	H	1.293602	-0.564901	-0.069922
H100	H	0.422003	-0.313071	0.000030
O101	O	0.482433	0.028046	-0.000075
C102	C	0.469568	0.133728	-0.000025
C103	C	0.536580	0.063355	0.000013
H104	H	0.513325	0.162292	0.000067
H105	H	0.404894	0.160054	-0.069869
H106	H	0.440885	0.130920	0.069777
H107	H	0.565336	0.066104	-0.069742
H108	H	0.601202	0.037057	0.069903
H109	H	1.295092	-0.298262	0.247179
H110	H	0.962449	-0.389350	0.000041
O111	O	1.048731	-0.099468	0.238998
C112	C	0.984156	0.017856	0.206894
C113	C	1.070037	-0.051440	0.264652
H114	H	1.001342	0.056705	0.227629
H115	H	0.973529	0.026473	0.122802
H116	H	0.913976	0.021687	0.227543
H117	H	1.140267	-0.055319	0.244087
H118	H	1.080577	-0.060026	0.348729
H119	H	1.000466	-0.060670	0.309485
H120	H	0.736520	-0.322736	0.000048
O121	O	0.937887	-0.934261	-0.000068
C122	C	0.767332	-0.879278	-0.000013
C123	C	0.862685	-0.873820	0.000022
H124	H	0.706512	-0.830423	0.000081
H125	H	0.744385	-0.891165	-0.069857
H126	H	0.780535	-0.920312	0.069789
H127	H	0.849558	-0.832783	-0.069733
H128	H	0.885603	-0.861968	0.069912
O129	O	0.940281	-0.817710	-0.000202
C130	C	0.819446	-0.704393	-0.086602
C131	C	0.913478	-0.763969	-0.086540
H132	H	0.797759	-0.660924	-0.156388
H133	H	0.757277	-0.718096	-0.086666
H134	H	0.833730	-0.690042	-0.016745
H135	H	0.899290	-0.778350	-0.156385
H136	H	0.975616	-0.750234	-0.086424
O137	O	0.895695	0.023844	0.396674
C138	C	0.770479	0.124765	0.407763
C139	C	0.856390	0.055471	0.465473
H140	H	0.738663	0.150350	0.463362
H141	H	0.798215	0.155147	0.358612
H142	H	0.710910	0.120076	0.358581
H143	H	0.915991	0.060098	0.514710
H144	H	0.828579	0.025115	0.514561
H145	H	0.627810	0.043323	-0.000035
H146	H	0.848985	-0.188756	0.000025
H147	H	1.355300	-0.775177	-0.000003
H148	H	0.806413	0.008309	-0.000005
H149	H	0.600596	-0.348094	0.000049
H150	H	1.265973	-0.915427	-0.000008
H151	H	1.167518	-0.195362	0.752818
H152	H	0.873104	-0.529560	-0.000048
H153	H	1.344304	-0.337932	0.437712
H154	H	0.933333	-0.006521	0.752836
H155	H	0.379414	-0.116014	-0.000011
H156	H	1.276824	-0.371174	0.000054
O157	O	0.408390	-0.060071	-0.000152
C158	C	0.251245	-0.044144	-0.086619
C159	C	0.359542	-0.065356	-0.086573
H160	H	0.211714	-0.048396	-0.156493
H161	H	0.247671	-0.077512	-0.016838
H162	H	0.214157	0.009232	-0.086589
H163	H	0.396696	-0.118720	-0.086638
H164	H	0.363045	-0.031943	-0.156348
O165	O	0.871843	0.043085	0.554209
C166	C	0.746627	0.144005	0.565298
C167	C	0.832538	0.074712	0.623008
H168	H	0.714811	0.169590	0.620897
H169	H	0.774363	0.174387	0.516147
H170	H	0.687058	0.139316	0.516116
H171	H	0.892140	0.079339	0.672245
H172	H	0.804728	0.044355	0.672096
H173	H	1.274686	-0.478485	0.000020
H174	H	1.227961	-0.244104	0.690530
O175	O	1.332667	-0.328580	0.603654
C176	C	1.431698	-0.408388	0.765432
C177	C	1.345806	-0.339103	0.707630
H178	H	1.442361	-0.416912	0.849506
H179	H	1.414514	-0.447283	0.744869
H180	H	1.501857	-0.412243	0.744702
H181	H	1.275611	-0.335184	0.728328
H182	H	1.363075	-0.300242	0.728198
H183	H	1.263822	-1.022753	-0.000020
H184	H	0.964593	-0.282017	0.000034
