data_functionalizedCrystal
_audit_creation_method	'MofGen! by Chris Wilmer'
_symmetry_space_group_name_H-M	'P1'
_symmetry_Int_Tables_number	1
_symmetry_cell_setting	triclinic
loop_
_symmetry_equiv_pos_as_xyz
  x,y,z
_cell_length_a	8.497374
_cell_length_b	8.497374
_cell_length_c	16.120530
_cell_angle_alpha	92.899701
_cell_angle_beta	92.902542
_cell_angle_gamma	90.005237
loop_
_atom_site_label
_atom_site_type_symbol
_atom_site_fract_x
_atom_site_fract_y
_atom_site_fract_z
Zn1	Zn	0.750826	1.014365	1.274551
Zn2	Zn	1.084160	1.347698	1.607884
Zn3	Zn	1.417493	1.681031	1.941217
Zn4	Zn	1.014571	0.750630	1.274544
Zn5	Zn	1.347905	1.083963	1.607877
Zn6	Zn	1.681238	1.417296	1.941211
Zn7	Zn	0.737404	0.737222	1.135172
Zn8	Zn	1.070737	1.070556	1.468505
Zn9	Zn	1.404071	1.403889	1.801839
Zn10	Zn	1.001161	1.000990	1.135152
Zn11	Zn	1.334494	1.334324	1.468485
Zn12	Zn	1.667827	1.667657	1.801819
O13	O	0.875991	0.875802	1.204855
O14	O	1.209324	1.209135	1.538188
O15	O	1.542657	1.542468	1.871521
O16	O	0.797042	0.990588	1.391216
O17	O	1.130376	1.323921	1.724549
O18	O	1.463709	1.657255	2.057883
O19	O	0.977800	0.528089	1.256062
O20	O	1.311133	0.861423	1.589395
O21	O	1.644466	1.194756	1.922728
O22	O	0.518423	0.773972	1.153672
O23	O	0.851757	1.107305	1.487005
O24	O	1.185090	1.440639	1.820339
O25	O	0.990815	0.796823	1.391211
O26	O	1.324148	1.130156	1.724545
O27	O	1.657481	1.463490	2.057878
O28	O	0.528284	0.977587	1.256073
O29	O	0.861618	1.310921	1.589406
O30	O	1.194951	1.644254	1.922739
O31	O	0.774166	0.518239	1.153666
O32	O	1.107499	0.851572	1.486999
O33	O	1.440833	1.184906	1.820332
O34	O	0.761162	0.761004	1.018503
O35	O	1.094496	1.094337	1.351836
O36	O	1.427829	1.427670	1.685170
O37	O	0.967958	1.223526	1.153638
O38	O	1.301291	1.556860	1.486971
O39	O	1.634625	1.890193	1.820305
O40	O	0.954943	0.954793	1.018488
O41	O	1.288276	1.288126	1.351822
O42	O	1.621610	1.621459	1.685155
O43	O	0.784038	1.233352	1.256053
O44	O	1.117372	1.566686	1.589387
O45	O	1.450705	1.900019	1.922720
O46	O	1.233554	0.783854	1.256042
O47	O	1.566887	1.117188	1.589375
O48	O	1.900220	1.450521	1.922709
O49	O	1.223701	0.967793	1.153631
O50	O	1.557034	1.301127	1.486965
O51	O	1.890367	1.634460	1.820298
C52	C	0.855142	0.854993	0.988245
C53	C	1.188475	1.188326	1.321579
C54	C	1.521809	1.521660	1.654912
C55	C	0.846261	0.846128	0.895579
C56	C	1.179594	1.179462	1.228912
C57	C	1.512928	1.512795	1.562246
C58	C	1.285869	0.875824	1.204844
C59	C	1.619203	1.209157	1.538177
C60	C	1.952536	1.542490	1.871511
C61	C	1.464516	0.875800	1.204866
C62	C	1.797849	1.209133	1.538200
C63	C	2.131182	1.542467	1.871533
C64	C	0.875992	1.287281	1.204848
C65	C	1.209326	1.620615	1.538182
C66	C	1.542659	1.953948	1.871515
C67	C	0.876009	1.465926	1.204850
C68	C	1.209343	1.799259	1.538184
C69	C	1.542676	2.132592	1.871517
C70	C	0.830010	0.829957	0.725916
C71	C	1.163343	1.163291	1.059250
C72	C	1.496676	1.496624	1.392583
C73	C	0.922088	0.921762	0.684633
C74	C	1.255421	1.255095	1.017967
C75	C	1.588754	1.588428	1.351300
C76	C	0.913045	0.912764	0.590227
C77	C	1.246379	1.246097	0.923561
C78	C	1.579712	1.579431	1.256894
C79	C	0.839050	0.838953	0.820331
C80	C	1.172383	1.172286	1.153664
C81	C	1.505717	1.505619	1.486998
C82	C	0.896922	0.896693	1.422310
C83	C	1.230255	1.230026	1.755643
C84	C	1.563588	1.563359	2.088976
C85	C	0.905841	0.905595	1.514976
C86	C	1.239174	1.238929	1.848309
C87	C	1.572508	1.572262	2.181643
H88	H	1.007707	1.007117	0.720191
H89	H	1.341040	1.340451	1.053525
H90	H	1.674374	1.673784	1.386858
H91	H	0.744396	0.744609	0.690361
H92	H	1.077730	1.077943	1.023694
H93	H	1.411063	1.411276	1.357027
