data_functionalizedCrystal
_audit_creation_method	'MofGen! by Chris Wilmer'
_symmetry_space_group_name_H-M	'P1'
_symmetry_Int_Tables_number	1
_symmetry_cell_setting	triclinic
loop_
_symmetry_equiv_pos_as_xyz
  x,y,z
_cell_length_a	6.817900
_cell_length_b	16.306099
_cell_length_c	16.305550
_cell_angle_alpha	95.377095
_cell_angle_beta	103.455250
_cell_angle_gamma	103.465342
loop_
_atom_site_label
_atom_site_type_symbol
_atom_site_fract_x
_atom_site_fract_y
_atom_site_fract_z
V1	V	-4.026242	-0.117433	-0.263339
O2	O	-4.013841	0.004911	-0.258011
O3	O	-3.977690	-0.232145	-0.261841
O4	O	-3.977649	-0.115948	-0.378053
O5	O	-4.013883	-0.112091	-0.140996
V6	V	-4.509915	-0.102761	-0.248669
O7	O	-4.287172	-0.149616	-0.295519
O8	O	-4.699183	-0.070578	-0.216489
O9	O	-4.335261	0.011951	-0.250167
O10	O	-4.639713	-0.225104	-0.253997
O11	O	-4.639671	-0.108103	-0.371013
O12	O	-4.335303	-0.104246	-0.133956
C13	C	-3.822660	-0.260099	-0.257765
C14	C	-3.864249	-0.353879	-0.257305
C15	C	-3.940317	-0.525576	-0.256434
C16	C	-4.176204	-0.566502	-0.261357
C17	C	-4.219361	-0.663995	-0.260545
C18	C	-4.015214	-0.694623	-0.255578
C19	C	-3.847661	-0.643781	-0.172400
C20	C	-3.805831	-0.546231	-0.172859
C21	C	-3.886227	-0.571637	-0.334028
C22	C	-3.934127	-0.669482	-0.334692
C23	C	-4.057530	-0.790160	-0.255091
C24	C	-3.897992	-0.430037	-0.256915
C25	C	-3.822606	-0.111877	-0.406003
C26	C	-3.864158	-0.111422	-0.499784
C27	C	-4.015245	-0.109659	-0.840524
C28	C	-3.779197	-0.104424	-0.799582
C29	C	-3.736003	-0.105247	-0.702089
C30	C	-3.940287	-0.110533	-0.671479
C31	C	-4.107318	-0.193849	-0.722324
C32	C	-4.149182	-0.193378	-0.819872
C33	C	-4.070002	-0.032243	-0.794478
C34	C	-4.022073	-0.031584	-0.696634
C35	C	-3.897938	-0.111030	-0.575942
C36	C	-4.057604	-0.109168	-0.936062
C37	C	-4.153633	0.039901	-0.254241
C38	C	-4.091283	0.133680	-0.254707
C39	C	-4.153687	-0.108319	-0.106001
C40	C	-4.091374	-0.108770	-0.012220
H41	H	-3.694585	-0.662687	-0.165753
N42	N	-3.577283	-0.030102	-0.657968
N43	N	-3.400014	-0.015924	-0.671267
H44	H	-3.287905	0.037148	-0.640112
H45	H	-3.786993	-0.690855	-0.335969
H46	H	-3.734105	-0.160044	-0.831240
N47	N	-3.646132	-0.028926	-0.814948
N48	N	-3.649295	-0.016949	-0.889795
H49	H	-3.555345	0.036374	-0.900667
N50	N	-3.955310	0.046955	-0.811017
N51	N	-3.833318	0.101348	-0.750508
H52	H	-3.752296	0.157280	-0.762187
N53	N	-4.367242	-0.202541	-0.855038
N54	N	-4.426312	-0.145687	-0.892608
H55	H	-4.580316	-0.152165	-0.917446
N56	N	-4.001380	-0.555065	-0.413108
N57	N	-3.979729	-0.480090	-0.427904
H58	H	-4.061068	-0.468384	-0.483751
H59	H	-3.901028	0.030042	-0.662094
H60	H	-3.632090	-0.518234	-0.165792
N61	N	-4.285844	-0.036120	-0.828147
N62	N	-4.355163	-0.033937	-0.905716
H63	H	-4.507600	-0.036681	-0.929501
H64	H	-4.346231	-0.699173	-0.320337
N65	N	-4.206822	-0.030280	-0.669833
N66	N	-4.281561	-0.087777	-0.631590
H67	H	-4.412051	-0.086864	-0.612663
N68	N	-4.309886	-0.551183	-0.336701
N69	N	-4.503732	-0.579053	-0.351591
H70	H	-4.598150	-0.568229	-0.404804
H71	H	-4.113035	-0.251984	-0.850407
H72	H	-3.669576	-0.161508	-0.685944
H73	H	-4.285290	-0.680131	-0.204153
N74	N	-4.232147	-0.526771	-0.191410
N75	N	-4.099045	-0.468445	-0.137950
H76	H	-4.138545	-0.440384	-0.088546
N77	N	-3.850508	-0.507910	-0.099175
N78	N	-3.752343	-0.514480	-0.026185
H79	H	-3.783896	-0.487421	0.025858
N80	N	-4.037807	-0.267403	-0.701452
N81	N	-4.149479	-0.340411	-0.735500
H82	H	-4.100378	-0.392357	-0.720762
H83	H	-3.902580	-0.660432	-0.113662
H84	H	-3.714287	-0.544822	-0.331167
N85	N	-4.086571	-0.712920	-0.411805
N86	N	-4.141666	-0.792696	-0.426069
H87	H	-4.249374	-0.823420	-0.480504
N88	N	-4.299476	-0.202501	-0.698639
N89	N	-4.463750	-0.205247	-0.753643
H90	H	-4.599464	-0.211356	-0.736916
