data_functionalizedCrystal
_audit_creation_method	'MofGen! by Chris Wilmer'
_symmetry_space_group_name_H-M	'P1'
_symmetry_Int_Tables_number	1
_symmetry_cell_setting	triclinic
loop_
_symmetry_equiv_pos_as_xyz
  x,y,z
_cell_length_a	12.759401
_cell_length_b	19.805405
_cell_length_c	19.805399
_cell_angle_alpha	89.970699
_cell_angle_beta	90.016822
_cell_angle_gamma	89.972065
loop_
_atom_site_label
_atom_site_type_symbol
_atom_site_fract_x
_atom_site_fract_y
_atom_site_fract_z
Zn1	Zn	1.606138	0.269451	0.382662
Zn2	Zn	1.606006	0.382640	0.269470
Zn3	Zn	1.430450	0.269473	0.269492
Zn4	Zn	1.430393	0.382607	0.382622
O5	O	1.518247	0.326043	0.326062
O6	O	1.753142	0.284471	0.367654
O7	O	1.582686	0.367651	0.174756
O8	O	1.453834	0.174754	0.284530
O9	O	1.753045	0.367630	0.284493
O10	O	1.582912	0.174738	0.367675
O11	O	1.453706	0.284508	0.174772
O12	O	1.283421	0.284476	0.284491
O13	O	1.453737	0.367574	0.477344
O14	O	1.283379	0.367595	0.367608
O15	O	1.582857	0.284439	0.477373
O16	O	1.582631	0.477352	0.284455
O17	O	1.453609	0.477328	0.367587
C18	C	1.245279	0.326034	0.326048
C19	C	1.128503	0.326047	0.326058
C20	C	1.518128	0.501899	0.326029
C21	C	1.518174	0.577131	0.326037
C22	C	1.518306	0.326000	0.502604
C23	C	1.518331	0.325982	0.577836
C24	C	1.073647	0.369393	0.369269
C25	C	0.963922	0.369396	0.369283
C26	C	0.963920	0.282705	0.282869
C27	C	1.073642	0.282699	0.282859
C28	C	0.814010	0.393693	0.449076
C29	C	0.759150	0.437049	0.492280
C30	C	0.794726	0.503105	0.502548
C31	C	0.885159	0.525817	0.469600
C32	C	0.940014	0.482464	0.426390
C33	C	0.904440	0.416399	0.416136
C34	C	1.223557	0.258409	0.203065
C35	C	1.278413	0.215059	0.159852
C36	C	1.242840	0.149003	0.149578
C37	C	1.152402	0.126292	0.182513
C38	C	1.097546	0.169642	0.225727
C39	C	1.133127	0.235698	0.236002
C40	C	1.792280	0.326052	0.326075
C41	C	1.909057	0.326055	0.326081
C42	C	1.518394	0.149500	0.326109
C43	C	1.518457	0.074268	0.326130
C44	C	1.585421	0.612465	0.282796
C45	C	1.585466	0.683153	0.282811
C46	C	1.518257	0.718506	0.326065
C47	C	1.451007	0.683167	0.369311
C48	C	1.450969	0.612480	0.369299
C49	C	1.451162	0.968240	0.369361
C50	C	1.451204	1.038932	0.369368
C51	C	1.585659	1.038914	0.282873
C52	C	1.585621	0.968227	0.282861
C53	C	1.518375	0.932894	0.326110
C54	C	1.518329	0.856245	0.326094
C55	C	1.518297	0.795153	0.326077
C56	C	1.518248	0.326036	0.150206
C57	C	1.518427	0.325864	0.074974
C58	C	1.585565	0.282691	0.613197
C59	C	1.585575	0.282672	0.683885
C60	C	1.518357	0.325947	0.719212
C61	C	1.451115	0.369239	0.683847
C62	C	1.451100	0.369255	0.613160
C63	C	1.451175	0.369176	0.968920
C64	C	1.451197	0.369158	1.039612
C65	C	1.585650	0.282593	1.039646
C66	C	1.585635	0.282609	0.968959
C67	C	1.518390	0.325898	0.933600
C68	C	1.518378	0.325918	0.856951
C69	C	1.518374	0.325931	0.795859
H70	H	1.118311	0.404688	0.404446
H71	H	1.640327	0.247422	0.712673
H72	H	1.396406	0.939478	0.404574
H73	H	1.640418	1.067690	0.247660
O74	O	0.910739	0.240636	0.240810
C75	C	0.937476	0.255348	0.173320
H76	H	1.017126	0.281358	0.171861
H77	H	0.941237	0.206458	0.143060
H78	H	0.875688	0.290121	0.150465
H79	H	1.023912	0.151144	0.252549
H80	H	1.396435	0.404435	0.940139
O81	O	1.386031	1.073245	0.411489
C82	C	1.408915	1.055905	0.478957
H83	H	1.492832	1.036424	0.482415
H84	H	1.399868	1.102377	0.512396
H85	H	1.352549	1.014896	0.496618
O86	O	1.650896	0.240590	0.578988
C87	C	1.710257	0.202388	0.625360
H88	H	1.667235	0.200033	0.675744
H89	H	1.721504	0.149064	0.604954
H90	H	1.790031	0.227175	0.632879
O91	O	1.385754	0.717611	0.411264
C92	C	1.400222	0.787579	0.402014
H93	H	1.434684	0.797250	0.349801
H94	H	1.321535	0.814482	0.406564
H95	H	1.456142	0.807583	0.442197
O96	O	1.118008	0.062094	0.172484
C97	C	1.185803	0.028708	0.127269
H98	H	1.265830	0.054266	0.127989
H99	H	1.194606	-0.026333	0.143169
H100	H	1.151796	0.031192	0.074089
O101	O	1.650817	0.240470	0.934678
C102	C	1.627923	0.173010	0.951988
H103	H	1.543996	0.169593	0.971411
H104	H	1.636988	0.139576	0.905516
H105	H	1.684269	0.155311	0.993033
H106	H	1.287509	0.113710	0.114383
H107	H	1.396211	0.583711	0.404512
H108	H	1.640400	0.247342	1.068444
H109	H	1.352052	0.233556	0.133034
O110	O	1.385915	0.411253	0.718266
C111	C	1.400327	0.401947	0.788239
H112	H	1.481428	0.379782	0.797908
H113	H	1.393161	0.452640	0.815088
H114	H	1.338045	0.365895	0.808304
O115	O	1.258235	0.322568	0.212950
C116	C	1.349828	0.333313	0.174622
H117	H	1.352072	0.296067	0.130781
H118	H	1.349846	0.387100	0.154098
H119	H	1.421628	0.325461	0.207993
H120	H	1.396455	0.404399	1.068374
O121	O	1.650857	0.933961	0.240751
C122	C	1.627955	0.951278	0.173279
H123	H	1.587597	1.002624	0.171859
H124	H	1.703811	0.953675	0.142975
H125	H	1.573941	0.911538	0.150444
O126	O	1.027852	0.504621	0.394454
C127	C	1.047469	0.572232	0.412757
H128	H	1.008295	0.583466	0.463244
H129	H	1.135579	0.580537	0.417418
H130	H	1.014397	0.607365	0.372411
O131	O	0.919593	0.589999	0.479668
C132	C	0.851772	0.623398	0.524857
H133	H	0.808524	0.584512	0.556862
H134	H	0.899356	0.658005	0.559123
H135	H	0.792595	0.654686	0.495127
H136	H	0.685519	0.418550	0.519107
O137	O	1.650820	0.717372	0.240740
C138	C	1.710144	0.671011	0.202569
H139	H	1.667082	0.620649	0.200194
H140	H	1.721407	0.691465	0.149250
H141	H	1.789912	0.663431	0.227396
H142	H	0.750051	0.538405	0.537727
H143	H	1.396341	0.404499	0.584370
H144	H	1.640145	0.583685	0.247571
O145	O	0.779604	0.329478	0.439177
C146	C	0.857874	0.283523	0.459603
H147	H	0.912247	0.309038	0.497470
H148	H	0.819658	0.237658	0.484162
H149	H	0.905008	0.266711	0.413694
