data_functionalizedCrystal
_audit_creation_method	'MofGen! by Chris Wilmer'
_symmetry_space_group_name_H-M	'P1'
_symmetry_Int_Tables_number	1
_symmetry_cell_setting	triclinic
loop_
_symmetry_equiv_pos_as_xyz
  x,y,z
_cell_length_a	9.065218
_cell_length_b	14.044220
_cell_length_c	8.140239
_cell_angle_alpha	89.995422
_cell_angle_beta	89.997198
_cell_angle_gamma	89.102381
loop_
_atom_site_label
_atom_site_type_symbol
_atom_site_fract_x
_atom_site_fract_y
_atom_site_fract_z
O1	O	1.975818	0.139141	-0.136623
O2	O	2.475818	0.639141	0.363377
O3	O	1.547798	0.150554	-0.136626
O4	O	2.047798	0.650554	0.363374
O5	O	1.755383	0.006808	-0.136608
O6	O	2.255383	0.506808	0.363392
O7	O	1.768232	0.282887	-0.136641
O8	O	2.268232	0.782887	0.363359
O9	O	1.755371	0.006806	0.136619
O10	O	2.255371	0.506806	0.636619
O11	O	1.547785	0.150552	0.136601
O12	O	2.047785	0.650552	0.636601
O13	O	1.975805	0.139139	0.136604
O14	O	2.475805	0.639139	0.636604
Zn15	Zn	1.761793	0.144845	0.179983
Zn16	Zn	2.261793	0.644845	0.679983
Zn17	Zn	1.761810	0.144848	-0.180005
Zn18	Zn	2.261810	0.644848	0.319995
O19	O	1.768220	0.282885	0.136586
O20	O	2.268220	0.782885	0.636586
C21	C	1.492683	0.149456	-0.000013
C22	C	1.992683	0.649456	0.499987
C23	C	1.328477	0.146176	-0.000013
C24	C	1.828477	0.646176	0.499987
C25	C	1.749752	-0.028556	0.000006
C26	C	2.249752	0.471444	0.500006
C27	C	1.732975	-0.133926	0.000008
C28	C	2.232975	0.366074	0.500008
C29	C	1.702304	-0.326850	-0.000016
C30	C	2.202304	0.173150	0.499984
C31	C	1.821293	-0.383462	-0.000020
C32	C	2.321293	0.116538	0.499980
C33	C	1.804226	-0.490812	-0.000034
C34	C	2.304226	0.009188	0.499966
C35	C	1.719368	-0.219491	-0.000003
C36	C	2.219368	0.280509	0.499997
C37	C	2.030920	0.140237	-0.000013
C38	C	2.530920	0.640237	0.499987
C39	C	2.195126	0.143517	-0.000023
C40	C	2.695126	0.643517	0.499977
C41	C	1.773850	0.318249	-0.000032
C42	C	2.273850	0.818249	0.499968
C43	C	1.790627	0.423619	-0.000044
C44	C	2.290627	0.923619	0.499956
N45	N	1.761792	0.144843	0.425666
N46	N	2.261792	0.644843	0.925666
N47	N	1.761821	0.144842	-0.425688
N48	N	2.261821	0.644842	0.074312
H49	H	1.935980	-0.351306	-0.000130
H50	H	2.435980	0.148694	0.499870
C51	C	1.549514	-0.369901	0.000075
C52	C	2.049514	0.130099	0.500075
C53	C	1.562753	-0.469362	0.000111
C54	C	2.062753	0.030638	0.500111
C55	C	1.422037	-0.509064	0.000225
C56	C	1.922037	-0.009064	0.500225
H57	H	1.497240	-0.349658	-0.095171
H58	H	1.997240	0.150342	0.404829
H59	H	1.497359	-0.349618	0.095402
H60	H	1.997359	0.150382	0.595402
H61	H	1.614885	-0.489637	-0.095207
H62	H	2.114885	0.010363	0.404793
H63	H	1.615000	-0.489632	0.095350
H64	H	2.115000	0.010368	0.595350
H65	H	1.369883	-0.488781	0.095552
H66	H	1.869883	0.011219	0.595552
H67	H	1.369775	-0.488814	-0.095023
H68	H	1.869775	0.011186	0.404977
H69	H	1.431001	-0.576552	0.000264
H70	H	1.931001	-0.076552	0.500264
