data_functionalizedCrystal
_audit_creation_method	'MofGen! by Chris Wilmer'
_symmetry_space_group_name_H-M	'P1'
_symmetry_Int_Tables_number	1
_symmetry_cell_setting	triclinic
loop_
_symmetry_equiv_pos_as_xyz
  x,y,z
_cell_length_a	15.944493
_cell_length_b	15.944551
_cell_length_c	15.186229
_cell_angle_alpha	89.995303
_cell_angle_beta	89.997208
_cell_angle_gamma	83.486891
loop_
_atom_site_label
_atom_site_type_symbol
_atom_site_fract_x
_atom_site_fract_y
_atom_site_fract_z
O1	O	1.114553	0.108099	-0.073219
O2	O	0.869997	0.121506	-0.073223
O3	O	0.998953	-0.007474	-0.073213
O4	O	0.985597	0.237079	-0.073229
O5	O	0.998945	-0.007475	0.073244
O6	O	0.869988	0.121504	0.073234
O7	O	1.114545	0.108097	0.073238
Zn8	Zn	0.992265	0.114800	0.096489
Zn9	Zn	0.992276	0.114803	-0.096474
O10	O	0.985588	0.237077	0.073228
C11	C	0.838698	0.120957	0.000005
C12	C	0.745449	0.119314	0.000003
C13	C	0.509689	0.195235	-0.000002
C14	C	0.459127	0.154293	0.072215
C15	C	0.574728	0.116270	0.000005
C16	C	0.459140	0.154276	-0.072180
C17	C	0.409819	0.113336	0.000003
C18	C	0.525394	0.075350	0.072282
C19	C	0.525410	0.075344	-0.072178
C20	C	0.474880	0.034345	0.000057
C21	C	0.669728	0.117963	0.000007
C22	C	0.314821	0.111637	0.000008
C23	C	0.998395	-0.038768	0.000016
C24	C	0.996732	-0.132014	0.000016
C25	C	0.912826	-0.346853	0.000003
C26	C	0.951785	-0.407880	0.072216
C27	C	0.993725	-0.302739	0.000009
C28	C	0.951812	-0.407861	-0.072180
C29	C	0.990814	-0.467651	-0.000001
C30	C	1.032706	-0.362537	0.072282
C31	C	1.032723	-0.362513	-0.072178
C32	C	1.071741	-0.423521	0.000052
C33	C	0.995399	-0.207737	0.000016
C34	C	0.989146	-0.562652	-0.000001
C35	C	1.145844	0.108646	0.000008
C36	C	1.239092	0.110289	0.000004
C37	C	0.986147	0.268372	-0.000003
C38	C	0.987809	0.361617	-0.000009
N39	N	0.992264	0.114798	0.228182
N40	N	0.992285	0.114798	-0.228167
C41	C	1.049385	0.057705	0.453910
C42	C	1.049387	0.057703	0.546099
C43	C	0.935157	0.171894	0.546099
C44	C	0.935151	0.171891	0.453911
C45	C	0.992270	0.114798	0.407819
C46	C	0.992278	0.114799	0.592196
C47	C	0.992281	0.114797	0.692153
C48	C	0.992267	0.114798	0.307856
H49	H	0.554218	0.042021	0.133397
O50	O	0.879783	0.227393	0.409037
C51	C	0.861907	0.342132	0.304980
C52	C	0.924701	0.279316	0.355728
H53	H	0.898198	0.384139	0.261882
H54	H	0.819953	0.305894	0.261770
H55	H	0.821073	0.382904	0.353776
H56	H	0.965590	0.238527	0.306996
H57	H	0.966596	0.315605	0.398952
H58	H	0.888654	0.218379	0.583637
H59	H	1.066891	-0.342555	0.133399
H60	H	0.554360	0.042023	-0.133230
H61	H	0.459415	-0.033726	0.000103
O62	O	1.104836	0.002130	0.590774
C63	C	1.154023	-0.143906	0.619027
C64	C	1.091192	-0.081058	0.568363
H65	H	1.143001	-0.211177	0.600940
H66	H	1.221315	-0.133000	0.600876
H67	H	1.144229	-0.134059	0.692830
H68	H	1.100909	-0.090867	0.494549
H69	H	1.023922	-0.091979	0.586588
O70	O	0.528302	0.276389	0.000228
C71	C	0.515470	0.409698	0.076595
C72	C	0.494347	0.317810	0.076449
H73	H	0.488012	0.443219	0.138204
H74	H	0.586902	0.410265	0.076019
H75	H	0.487082	0.443656	0.015627
H76	H	0.522680	0.283798	0.137407
H77	H	0.422908	0.317304	0.076980
H78	H	0.430205	0.187641	-0.133226
H79	H	0.845675	-0.313532	0.000073
H80	H	0.430186	0.187640	0.133264
O81	O	0.910829	-0.431811	0.144981
C82	C	0.780801	-0.419517	0.227285
C83	C	0.827082	-0.392367	0.144836
H84	H	0.713088	-0.387625	0.227205
H85	H	0.780404	-0.490970	0.226918
H86	H	0.814675	-0.400009	0.288810
H87	H	0.793244	-0.411817	0.083268
H88	H	0.827486	-0.320916	0.145281
H89	H	1.138950	-0.456694	0.000094
O90	O	1.073523	-0.338357	-0.144942
C91	C	1.121350	-0.222888	-0.226056
C92	C	1.075153	-0.250135	-0.143593
H93	H	1.122668	-0.151558	-0.225002
H94	H	1.188745	-0.255597	-0.226692
H95	H	1.086780	-0.241340	-0.287560
H96	H	1.109652	-0.231688	-0.082045
H97	H	1.007755	-0.217433	-0.143034
O98	O	0.910872	-0.431701	-0.144987
C99	C	0.780808	-0.419441	-0.227218
C100	C	0.827085	-0.392364	-0.144744
H101	H	0.713053	-0.387664	-0.227039
H102	H	0.814579	-0.399857	-0.288786
H103	H	0.780522	-0.490907	-0.226854
H104	H	0.827384	-0.320903	-0.145022
H105	H	0.793299	-0.412011	-0.083213
O106	O	1.104730	0.002174	0.409057
C107	C	1.122534	-0.112631	0.305094
C108	C	1.059776	-0.049750	0.355801
H109	H	1.086214	-0.154639	0.262038
H110	H	1.164512	-0.076448	0.261845
H111	H	1.163346	-0.153397	0.353916
H112	H	1.018909	-0.008968	0.307043
H113	H	1.017856	-0.085984	0.399064
