data_functionalizedCrystal
_audit_creation_method	'MofGen! by Chris Wilmer'
_symmetry_space_group_name_H-M	'P1'
_symmetry_Int_Tables_number	1
_symmetry_cell_setting	triclinic
loop_
_symmetry_equiv_pos_as_xyz
  x,y,z
_cell_length_a	19.805407
_cell_length_b	12.759400
_cell_length_c	19.805399
_cell_angle_alpha	89.976763
_cell_angle_beta	89.980427
_cell_angle_gamma	90.014685
loop_
_atom_site_label
_atom_site_type_symbol
_atom_site_fract_x
_atom_site_fract_y
_atom_site_fract_z
Zn1	Zn	1.034791	-0.418291	-0.382740
Zn2	Zn	1.034729	-0.593984	-0.269560
Zn3	Zn	0.921605	-0.418320	-0.269565
Zn4	Zn	0.921592	-0.593928	-0.382707
O5	O	0.978179	-0.506131	-0.326143
O6	O	1.129499	-0.441608	-0.367739
O7	O	1.019702	-0.570717	-0.174844
O8	O	0.936651	-0.271295	-0.284593
O9	O	1.129454	-0.570689	-0.284586
O10	O	1.019808	-0.271273	-0.367743
O11	O	0.936591	-0.441657	-0.174848
O12	O	0.826887	-0.441603	-0.284561
O13	O	0.936629	-0.570594	-0.477428
O14	O	0.826877	-0.570622	-0.367687
O15	O	1.019795	-0.441554	-0.477452
O16	O	1.019689	-0.740998	-0.284554
O17	O	0.936568	-0.740957	-0.367682
C18	C	0.802323	-0.506110	-0.326121
C19	C	0.727091	-0.506127	-0.326128
C20	C	0.691760	-0.573408	-0.369341
C21	C	0.621071	-0.573410	-0.369351
C22	C	0.585716	-0.506135	-0.326143
C23	C	0.621052	-0.438847	-0.282928
C24	C	0.691739	-0.438840	-0.282922
C25	C	0.335979	-0.438870	-0.282950
C26	C	0.265287	-0.438884	-0.282958
C27	C	0.265311	-0.573440	-0.369379
C28	C	0.335998	-0.573433	-0.369373
C29	C	0.371328	-0.506141	-0.326161
C30	C	0.447977	-0.506139	-0.326152
C31	C	0.509069	-0.506142	-0.326148
C32	C	0.978139	-0.779098	-0.326129
C33	C	0.978184	-0.895875	-0.326146
C34	C	1.021513	-0.950723	-0.282908
C35	C	1.021555	-1.060447	-0.282929
C36	C	0.934932	-1.060464	-0.369426
C37	C	0.934894	-0.950742	-0.369408
C38	C	1.064802	-0.895855	-0.239646
C39	C	1.108135	-0.950704	-0.196404
C40	C	1.108176	-1.060428	-0.196425
C41	C	1.064886	-1.115303	-0.239687
C42	C	1.154722	-0.506152	-0.326165
C43	C	1.229954	-0.506160	-0.326175
C44	C	0.978217	-0.506064	-0.502686
C45	C	0.978233	-0.506036	-0.577918
C46	C	0.978238	-0.232097	-0.326172
C47	C	0.978263	-0.115321	-0.326184
C48	C	1.021539	-0.438842	-0.613276
C49	C	1.021546	-0.438811	-0.683964
C50	C	0.978250	-0.505981	-0.719294
C51	C	0.934940	-0.573179	-0.683931
C52	C	0.934930	-0.573203	-0.613244
C53	C	0.934978	-0.573081	-0.969004
C54	C	0.934992	-0.573054	-1.039696
C55	C	1.021594	-0.438689	-1.039725
C56	C	1.021584	-0.438713	-0.969038
C57	C	0.978272	-0.505906	-0.933681
C58	C	0.978264	-0.505937	-0.857033
C59	C	0.978261	-0.505957	-0.795941
C60	C	0.978180	-0.506121	-0.150287
C61	C	0.978295	-0.505853	-0.075055
H62	H	0.592308	-0.628198	-0.404539
N63	N	1.068280	-0.366261	-0.930935
H64	H	1.061703	-0.376474	-0.880789
H65	H	1.116619	-0.382614	-0.943298
H66	H	1.064772	-0.806512	-0.239622
H67	H	0.364781	-0.628219	-0.404555
H68	H	1.056859	-0.383973	-1.068521
N69	N	0.888225	-0.645605	-0.722032
H70	H	0.894800	-0.635391	-0.772178
H71	H	0.898729	-0.720651	-0.709675
H72	H	0.899733	-0.627754	-1.068460
H73	H	0.236536	-0.628228	-0.404567
N74	N	0.582916	-0.366300	-0.236319
H75	H	0.595223	-0.291248	-0.246908
H76	H	0.532788	-0.376615	-0.242902
N77	N	0.888242	-0.645515	-0.930875
H78	H	0.860812	-0.688053	-0.963984
H79	H	0.915753	-0.694164	-0.901531
N80	N	0.227151	-0.366321	-0.236353
H81	H	0.260258	-0.323688	-0.208978
H82	H	0.197837	-0.317767	-0.263964
N83	N	1.154831	-0.891525	-0.149752
H84	H	1.148231	-0.813693	-0.156299
H85	H	1.144334	-0.910769	-0.101406
N86	N	1.154915	-1.119589	-0.149796
H87	H	1.182331	-1.068178	-0.122389
H88	H	1.127397	-1.165183	-0.118457
N89	N	0.729851	-0.366266	-0.236319
H90	H	0.696728	-0.323648	-0.208947
H91	H	0.759163	-0.408959	-0.204945
N92	N	0.888215	-0.645674	-0.575111
H93	H	0.898709	-0.720740	-0.587404
H94	H	0.894793	-0.635409	-0.524982
N95	N	0.729891	-0.645977	-0.415940
H96	H	0.696779	-0.688598	-0.443317
H97	H	0.759239	-0.603274	-0.447308
N98	N	0.374080	-0.366278	-0.236356
H99	H	0.340954	-0.323660	-0.208988
H100	H	0.403398	-0.408956	-0.204978
H101	H	1.064928	-1.204648	-0.239706
H102	H	1.056812	-0.384097	-0.712749
H103	H	0.899686	-1.105153	-0.404648
N104	N	0.888165	-0.891575	-0.416044
H105	H	0.860744	-0.942981	-0.443451
H106	H	0.856843	-0.846114	-0.388458
H107	H	1.056798	-0.384147	-0.584516
