data_functionalizedCrystal
_audit_creation_method	'MofGen! by Chris Wilmer'
_symmetry_space_group_name_H-M	'P1'
_symmetry_Int_Tables_number	1
_symmetry_cell_setting	triclinic
loop_
_symmetry_equiv_pos_as_xyz
  x,y,z
_cell_length_a	12.759395
_cell_length_b	17.640280
_cell_length_c	12.759387
_cell_angle_alpha	101.230597
_cell_angle_beta	90.017228
_cell_angle_gamma	78.802277
loop_
_atom_site_label
_atom_site_type_symbol
_atom_site_fract_x
_atom_site_fract_y
_atom_site_fract_z
Zn1	Zn	1.690791	-0.314596	0.509546
Zn2	Zn	1.726222	-0.446789	0.298376
Zn3	Zn	1.515111	-0.314638	0.333871
Zn4	Zn	1.550597	-0.446734	0.474030
O5	O	1.620680	-0.380689	0.403956
O6	O	1.842513	-0.332137	0.481542
O7	O	1.698195	-0.429300	0.156052
O8	O	1.508735	-0.204026	0.386893
O9	O	1.868545	-0.429259	0.326397
O10	O	1.637807	-0.203995	0.515960
O11	O	1.543092	-0.332209	0.182130
O12	O	1.372795	-0.332155	0.352455
O13	O	1.569217	-0.429164	0.625773
O14	O	1.398867	-0.429206	0.455429
O15	O	1.672217	-0.332083	0.651867
O16	O	1.732605	-0.557388	0.291959
O17	O	1.603574	-0.557347	0.421011
C18	C	1.347710	-0.380680	0.403940
C19	C	1.230937	-0.380695	0.403953
C20	C	1.258169	-0.481916	0.510919
C21	C	1.216925	-0.532533	0.564403
C22	C	1.107206	-0.532543	0.564413
C23	C	1.038726	-0.481928	0.510936
C24	C	1.079970	-0.431311	0.457452
C25	C	1.189693	-0.431309	0.457445
C26	C	1.052738	-0.330087	0.350494
C27	C	1.162458	-0.330080	0.350476
C28	C	0.984258	-0.279472	0.297017
C29	C	1.025502	-0.228858	0.243525
C30	C	1.135229	-0.228851	0.243516
C31	C	1.203701	-0.279463	0.296992
C32	C	1.675813	-0.586047	0.348802
C33	C	1.699495	-0.673899	0.325242
C34	C	1.441200	-0.962867	0.583319
C35	C	1.463455	-1.045418	0.561147
C36	C	1.597898	-1.045395	0.426901
C37	C	1.575658	-0.962842	0.449065
C38	C	1.497307	-0.921585	0.527274
C39	C	1.631765	-0.921560	0.393020
C40	C	1.609523	-0.839015	0.415179
C41	C	1.531173	-0.797751	0.493382
C42	C	1.475064	-0.839039	0.549433
C43	C	1.710111	-0.962819	0.314806
C44	C	1.766218	-0.921537	0.258762
C45	C	1.743981	-0.838990	0.280925
C46	C	1.665631	-0.797727	0.359128
C47	C	1.800089	-0.797702	0.224875
C48	C	1.777847	-0.715157	0.247033
C49	C	1.643388	-0.715181	0.381287
C50	C	1.894716	-0.380700	0.403972
C51	C	2.011494	-0.380704	0.403978
C52	C	1.620723	-0.380613	0.678010
C53	C	1.620742	-0.380580	0.794795
C54	C	1.565361	-0.174530	0.459348
C55	C	1.541787	-0.086677	0.482952
C56	C	1.620682	-0.380709	0.130983
C57	C	1.620808	-0.380518	0.014258
C58	C	1.782309	-0.481626	0.987080
C59	C	1.863048	-0.532193	0.918627
C60	C	1.863021	-0.532223	0.808897
C61	C	1.782245	-0.481683	0.767619
C62	C	1.701507	-0.431116	0.836072
C63	C	1.701544	-0.431090	0.945803
C64	C	1.540003	-0.330014	0.863248
C65	C	1.540032	-0.329978	0.972980
C66	C	1.459227	-0.279474	0.821970
C67	C	1.378491	-0.228902	0.890425
C68	C	1.378522	-0.228874	1.000161
C69	C	1.459293	-0.279412	1.041433
H70	H	1.293043	-0.279464	0.296986
H71	H	1.347511	-0.481919	0.510907
H72	H	1.928811	-0.573344	0.952247
O73	O	1.941551	-0.581370	0.742552
C74	C	2.101705	-0.681694	0.727151
C75	C	2.012853	-0.626061	0.802410
H76	H	2.159363	-0.717852	0.775513
H77	H	2.146973	-0.645462	0.685542
H78	H	2.064506	-0.722994	0.664658
H79	H	2.049964	-0.584749	0.864963
H80	H	1.967595	-0.662341	0.843940
O81	O	1.509558	-0.717567	0.514719
C82	C	1.450655	-0.599165	0.445781
C83	C	1.475119	-0.689972	0.421464
H84	H	1.422785	-0.576827	0.370406
H85	H	1.525938	-0.576651	0.473631
H86	H	1.385055	-0.576789	0.511341
H87	H	1.540686	-0.712415	0.355885
H88	H	1.399784	-0.712432	0.393674
O89	O	1.283534	-0.581590	0.616427
C90	C	1.410314	-0.592353	0.755385
C91	C	1.334946	-0.536711	0.696541
H92	H	1.451884	-0.556090	0.820185
H93	H	1.472814	-0.633618	0.696022
H94	H	1.361975	-0.628549	0.793560
H95	H	1.383196	-0.500464	0.658364
H96	H	1.272444	-0.495498	0.755951
H97	H	1.823534	-0.681545	0.201394
O98	O	1.409121	-1.085609	0.615624
C99	C	1.419993	-1.178721	0.732501
C100	C	1.481660	-1.133267	0.670847
H101	H	1.478611	-1.217250	0.777183
H102	H	1.375548	-1.217473	0.673868
H103	H	1.360145	-1.135038	0.792158
H104	H	1.541560	-1.176893	0.611190
H105	H	1.526032	-1.094503	0.729544
H106	H	1.661689	-1.078998	0.363220
H107	H	1.728221	-1.030033	0.296770
H108	H	1.459208	-0.279505	0.732620
O109	O	0.932178	-0.482059	0.511016
C110	C	0.789658	-0.537573	0.569780
C111	C	0.910347	-0.537519	0.569757
H112	H	0.771966	-0.582396	0.617286
H113	H	0.764173	-0.553946	0.484020
H114	H	0.743470	-0.476366	0.608115
H115	H	0.956619	-0.598707	0.531472
H116	H	0.935749	-0.521102	0.655539
H117	H	1.312726	-0.187760	0.856805
H118	H	1.411270	-0.805446	0.613126
O119	O	0.877644	-0.279355	0.297153
C120	C	0.699852	-0.203611	0.344610
C121	C	0.820563	-0.203637	0.344553
H122	H	0.653666	-0.142396	0.382908
H123	H	0.682067	-0.248438	0.392064
H124	H	0.674455	-0.219975	0.258817
H125	H	0.846044	-0.187254	0.430307
H126	H	0.838281	-0.158826	0.297038
H127	H	0.969737	-0.187648	0.199995
O128	O	1.365037	-0.922905	0.659307
C129	C	1.234096	-0.931629	0.790214
C130	C	1.320294	-0.976985	0.704167
H131	H	1.197913	-0.975333	0.826523
H132	H	1.168719	-0.893053	0.752350
H133	H	1.271905	-0.892915	0.855528
H134	H	1.282581	-1.015742	0.638827
H135	H	1.385661	-1.015511	0.742110
H136	H	1.168799	-0.187627	0.199972
H137	H	1.073626	-0.573756	0.607971
O138	O	1.842311	-0.961740	0.182846
C139	C	1.936090	-1.088895	0.089130
C140	C	1.849912	-1.043466	0.175156
H141	H	1.942248	-1.154978	0.082870
H142	H	2.016454	-1.072675	0.111998
H143	H	1.913313	-1.072654	0.008775
H144	H	1.872588	-1.059683	0.255543
H145	H	1.769571	-1.059690	0.152197
O146	O	1.300036	-0.179678	1.066510
C147	C	1.139797	-0.079437	1.081861
C148	C	1.228633	-0.135097	1.006610
H149	H	1.082033	-0.043390	1.033459
H150	H	1.176890	-0.038040	1.144321
H151	H	1.094661	-0.115721	1.123514
H152	H	1.273801	-0.098877	0.964884
H153	H	1.191476	-0.176496	0.944216
H154	H	1.579595	-0.681588	0.444981
H155	H	1.459330	-0.279390	1.130780
H156	H	1.863875	-0.831307	0.161190
H157	H	1.782347	-0.481599	1.076428
H158	H	1.782224	-0.481718	0.678268
