data_functionalizedCrystal
_audit_creation_method	'MofGen! by Chris Wilmer'
_symmetry_space_group_name_H-M	'P1'
_symmetry_Int_Tables_number	1
_symmetry_cell_setting	triclinic
loop_
_symmetry_equiv_pos_as_xyz
  x,y,z
_cell_length_a	16.120542
_cell_length_b	16.120444
_cell_length_c	16.120297
_cell_angle_alpha	84.384883
_cell_angle_beta	90.127087
_cell_angle_gamma	89.835691
loop_
_atom_site_label
_atom_site_type_symbol
_atom_site_fract_x
_atom_site_fract_y
_atom_site_fract_z
Zn1	Zn	-1.224978	-0.422357	0.554850
Zn2	Zn	-1.224871	-0.555041	0.422156
Zn3	Zn	-1.093718	-0.408262	0.408089
Zn4	Zn	-1.078868	-0.554263	0.554085
O5	O	-1.155609	-0.484981	0.484795
O6	O	-1.340999	-0.446182	0.543455
O7	O	-1.213643	-0.529998	0.303658
O8	O	-1.117389	-0.293501	0.421990
O9	O	-1.340921	-0.543664	0.445966
O10	O	-1.213825	-0.303856	0.529814
O11	O	-1.117285	-0.422160	0.293322
O12	O	-0.975712	-0.421406	0.421248
O13	O	-1.092080	-0.542338	0.670819
O14	O	-0.964803	-0.528671	0.528511
O15	O	-1.199427	-0.445427	0.671381
O16	O	-1.199244	-0.671568	0.445224
O17	O	-1.091977	-0.670997	0.542152
C18	C	-0.940171	-0.473425	0.473271
C19	C	-0.848003	-0.468503	0.468361
C20	C	-0.632809	-0.510488	0.510215
C21	C	-0.679257	-0.459523	0.459397
C22	C	-0.773156	-0.464521	0.464386
C23	C	-0.538901	-0.505492	0.505227
C24	C	-1.144009	-0.701526	0.495151
C25	C	-1.139121	-0.794170	0.499613
C26	C	-0.371889	-0.496577	0.496353
C27	C	-0.464057	-0.501506	0.501248
C28	C	-1.181159	-1.005331	0.461837
C29	C	-1.130212	-0.963788	0.507769
C30	C	-1.135170	-0.869403	0.503230
C31	C	-1.176202	-1.099724	0.466376
C32	C	-1.144109	-0.495368	0.702187
C33	C	-1.139209	-0.499794	0.794827
C34	C	-1.167275	-0.267592	0.474418
C35	C	-1.172247	-0.174954	0.469996
C36	C	-1.167115	-0.474577	0.268248
C37	C	-1.172188	-0.469924	0.175607
C38	C	-1.130232	-0.507855	0.964438
C39	C	-1.181162	-0.461865	1.006001
C40	C	-1.176168	-0.466351	1.100378
C41	C	-1.135226	-0.503371	0.870052
H42	H	-0.663562	-0.557871	0.557464
C43	C	-1.245106	-0.957629	0.404106
H44	H	-1.276425	-0.996104	0.375884
H45	H	-1.217079	-0.920278	0.364476
H46	H	-1.281276	-0.927077	0.436349
H47	H	-1.082870	-0.999106	0.550502
C48	C	-1.245139	-0.404131	0.958325
H49	H	-1.240152	-0.408659	0.900228
H50	H	-1.235280	-0.348141	0.969207
H51	H	-1.299460	-0.419992	0.976117
H52	H	-1.082883	-0.550594	0.999732
H53	H	-0.648501	-0.412137	0.412144
