data_functionalizedCrystal
_audit_creation_method	'MofGen! by Chris Wilmer'
_symmetry_space_group_name_H-M	'P1'
_symmetry_Int_Tables_number	1
_symmetry_cell_setting	triclinic
loop_
_symmetry_equiv_pos_as_xyz
  x,y,z
_cell_length_a	12.811415
_cell_length_b	12.837943
_cell_length_c	11.892095
_cell_angle_alpha	94.310562
_cell_angle_beta	88.492960
_cell_angle_gamma	90.588083
loop_
_atom_site_label
_atom_site_type_symbol
_atom_site_fract_x
_atom_site_fract_y
_atom_site_fract_z
O1	O	0.265180	-1.385142	-0.121163
O2	O	0.765180	-0.885142	0.378837
O3	O	0.251783	-1.083182	-0.119797
O4	O	0.751783	-0.583182	0.380203
O5	O	0.107445	-1.240668	-0.104992
O6	O	0.607445	-0.740668	0.395008
O7	O	0.409518	-1.227656	-0.135968
O8	O	0.909518	-0.727656	0.364032
O9	O	0.119459	-1.227537	0.081783
O10	O	0.619459	-0.727537	0.581783
O11	O	0.263797	-1.070051	0.066978
O12	O	0.763797	-0.570051	0.566978
O13	O	0.277194	-1.372010	0.065612
O14	O	0.777194	-0.872010	0.565612
Zn15	Zn	0.272403	-1.218946	0.095950
Zn16	Zn	0.772403	-0.718946	0.595950
Zn17	Zn	0.256574	-1.236247	-0.150135
Zn18	Zn	0.756574	-0.736247	0.349865
O19	O	0.421532	-1.214524	0.050807
O20	O	0.921532	-0.714524	0.550807
C21	C	0.074520	-1.232971	-0.007614
C22	C	0.574520	-0.732971	0.492386
C23	C	-0.041488	-1.229587	0.004274
C24	C	0.458512	-0.729587	0.504274
C25	C	0.253265	-1.037943	-0.025946
C26	C	0.753265	-0.537943	0.474054
C27	C	0.239768	-0.922711	-0.024565
C28	C	0.739768	-0.422711	0.475435
C29	C	0.275712	-1.417249	-0.028241
C30	C	0.775712	-0.917249	0.471759
C31	C	0.289209	-1.532482	-0.029630
C32	C	0.789209	-1.032482	0.470370
C33	C	-0.272570	-1.237526	-0.177031
C34	C	0.227430	-0.737526	0.322969
C35	C	-0.381570	-1.234347	-0.165866
C36	C	0.118430	-0.734347	0.334134
C37	C	-0.368491	-1.220041	0.037769
C38	C	0.131509	-0.720041	0.537769
C39	C	-0.259491	-1.223221	0.026604
C40	C	0.240509	-0.723221	0.526604
C41	C	-0.211534	-1.231965	-0.080800
C42	C	0.288466	-0.731965	0.419200
C43	C	-0.102532	-1.235151	-0.091964
C44	C	0.397468	-0.735151	0.408036
C45	C	-0.089455	-1.220839	0.111670
C46	C	0.410545	-0.720839	0.611670
C47	C	-0.198455	-1.217659	0.122835
C48	C	0.301545	-0.717659	0.622835
C49	C	0.454458	-1.222222	-0.046573
C50	C	0.954458	-0.722222	0.453427
C51	C	0.570465	-1.225606	-0.058469
C52	C	1.070465	-0.725606	0.441531
N53	N	0.283206	-1.207146	0.263896
N54	N	0.783206	-0.707146	0.763896
C55	C	0.402028	-0.683625	-0.041188
C56	C	0.902028	-0.183625	0.458812
C57	C	0.389351	-0.575353	-0.039890
C58	C	0.889351	-0.075353	0.460110
C59	C	0.201738	-0.597892	-0.020663
C60	C	0.701738	-0.097892	0.479337
C61	C	0.214415	-0.706164	-0.021961
C62	C	0.714415	-0.206164	0.478039
C63	C	0.314563	-0.749026	-0.032226
C64	C	0.814563	-0.249026	0.467774
C65	C	0.327239	-0.857301	-0.033532
C66	C	0.827239	-0.357301	0.466468
C67	C	0.139627	-0.879837	-0.014297
C68	C	0.639627	-0.379837	0.485703
C69	C	0.126950	-0.771565	-0.012999
C70	C	0.626950	-0.271565	0.487001
N71	N	0.245764	-1.248054	-0.318080
N72	N	0.745764	-0.748054	0.181920
C73	C	0.170532	-1.330162	0.512101
C74	C	0.670532	-0.830162	1.012101
C75	C	0.178091	-1.321922	0.629667
C76	C	0.678091	-0.821922	1.129667
C77	C	0.305879	-1.182421	0.616598
C78	C	0.805879	-0.682421	1.116598
C79	C	0.298319	-1.190661	0.499031
C80	C	0.798319	-0.690661	0.999031
C81	C	0.230645	-1.264535	0.446787
C82	C	0.730645	-0.764535	0.946787
C83	C	0.223091	-1.272780	0.329218
C84	C	0.723091	-0.772780	0.829218
C85	C	0.350873	-1.133274	0.316151
C86	C	0.850873	-0.633274	0.816151
C87	C	0.358432	-1.125034	0.433718
C88	C	0.858432	-0.625034	0.933718
H89	H	-0.063488	-1.242274	-0.179417
H90	H	0.436512	-0.742274	0.320583
Cl91	Cl	-0.428797	-1.209019	0.172778
Cl92	Cl	0.071203	-0.709019	0.672778
Cl93	Cl	0.426453	-1.050775	0.234031
Cl94	Cl	0.926453	-0.550775	0.734031
H95	H	0.120208	-0.562967	-0.012214
H96	H	0.620208	-0.062967	0.487786
Cl97	Cl	-0.212278	-1.248534	-0.312048
Cl98	Cl	0.287722	-0.748534	0.187952
H99	H	0.115436	-1.390320	0.469562
H100	H	0.615436	-0.890320	0.969562
Cl101	Cl	-0.458297	-1.241336	-0.286847
Cl102	Cl	0.041703	-0.741336	0.213153
Cl103	Cl	-0.258754	-1.206659	0.257849
Cl104	Cl	0.241246	-0.706659	0.757849
H105	H	-0.039748	-1.216314	0.190028
H106	H	0.460252	-0.716314	0.690028
Cl107	Cl	0.138018	-1.365651	0.263541
Cl108	Cl	0.638018	-0.865651	0.763541
Cl109	Cl	0.102515	-1.404426	0.711773
Cl110	Cl	0.602515	-0.904426	1.211773
H111	H	0.483572	-0.718524	-0.049548
H112	H	0.983572	-0.218524	0.450452
H113	H	0.045413	-0.736651	-0.004629
H114	H	0.545413	-0.236651	0.495371
H115	H	0.413529	-1.064884	0.476269
H116	H	0.913529	-0.564884	0.976269
H117	H	0.360970	-1.122267	0.659152
H118	H	0.860970	-0.622267	1.159152
H119	H	0.408784	-0.892197	-0.041888
H120	H	0.908784	-0.392197	0.458112
H121	H	0.460575	-0.522106	-0.047185
H122	H	0.960575	-0.022106	0.452815
Cl123	Cl	0.029663	-0.962065	-0.003046
Cl124	Cl	0.529663	-0.462065	0.496954
