data_functionalizedCrystal
_audit_creation_method	'MofGen! by Chris Wilmer'
_symmetry_space_group_name_H-M	'P1'
_symmetry_Int_Tables_number	1
_symmetry_cell_setting	triclinic
loop_
_symmetry_equiv_pos_as_xyz
  x,y,z
_cell_length_a	27.731994
_cell_length_b	17.019294
_cell_length_c	16.098538
_cell_angle_alpha	88.846036
_cell_angle_beta	87.290733
_cell_angle_gamma	83.008704
loop_
_atom_site_label
_atom_site_type_symbol
_atom_site_fract_x
_atom_site_fract_y
_atom_site_fract_z
O1	O	0.643673	0.089782	-0.075575
O2	O	0.502964	0.104045	-0.076625
O3	O	0.576988	-0.017547	-0.067887
O4	O	0.569649	0.211374	-0.084313
O5	O	0.572664	-0.010472	0.070118
O6	O	0.498640	0.111120	0.061379
O7	O	0.639349	0.096857	0.062430
Zn8	Zn	0.568308	0.105112	0.083816
Zn9	Zn	0.574005	0.095790	-0.098011
O10	O	0.565325	0.218449	0.053691
C11	C	0.574462	-0.043288	0.003214
C12	C	0.573373	-0.130526	0.009468
C13	C	0.482793	0.107289	-0.007605
C14	C	0.429132	0.106407	-0.007553
C15	C	0.575220	-0.175363	-0.062819
C16	C	0.574194	-0.257332	-0.056941
C17	C	0.571324	-0.294463	0.021226
C18	C	0.569476	-0.249620	0.093519
C19	C	0.570499	-0.167652	0.087640
C20	C	0.568115	-0.541761	0.042742
C21	C	0.567093	-0.623736	0.048617
C22	C	0.571810	-0.631442	-0.101844
C23	C	0.572836	-0.549472	-0.107717
C24	C	0.570985	-0.504636	-0.035424
C25	C	0.570277	-0.378249	0.027237
C26	C	0.572029	-0.420851	-0.041436
C27	C	0.094021	0.104711	0.068104
C28	C	-0.107658	0.101360	0.068354
O29	O	-0.135738	0.104173	0.132364
N30	N	-0.130518	0.097087	-0.006842
C31	C	-0.102955	0.093646	-0.082106
O32	O	-0.127026	0.089927	-0.146059
C33	C	0.098723	0.096992	-0.082355
C34	C	0.121580	0.101274	-0.007154
C35	C	0.116878	0.108991	0.143299
C36	C	0.167295	0.109833	0.143235
C37	C	0.194854	0.106396	0.067977
C38	C	0.171997	0.102116	-0.007218
C39	C	0.126286	0.093546	-0.157617
C40	C	0.176709	0.094381	-0.157672
C41	C	0.199566	0.098662	-0.082472
C42	C	0.249972	0.099520	-0.082539
N43	N	0.272833	0.103793	-0.007343
C44	C	0.245273	0.107231	0.067915
C45	C	-0.208840	0.091892	-0.081970
C46	C	-0.259259	0.091057	-0.081908
C47	C	-0.263958	0.098769	0.068552
C48	C	-0.213538	0.099609	0.068489
C49	C	-0.185979	0.096165	-0.006774
C50	C	0.351152	0.109000	0.067776
C51	C	0.401573	0.109845	0.067705
C52	C	0.406268	0.102128	-0.082754
C53	C	0.355851	0.101288	-0.082684
C54	C	0.328294	0.104721	-0.007413
O55	O	0.278083	0.096700	-0.146515
O56	O	0.269355	0.110932	0.131860
C57	C	0.043605	0.103869	0.068168
C58	C	0.020747	0.099589	-0.007027
C59	C	0.048307	0.096151	-0.082285
C60	C	-0.029672	0.098754	-0.006965
C61	C	-0.057231	0.102192	0.068293
C62	C	-0.034371	0.106465	0.143489
C63	C	0.016045	0.107307	0.143426
C64	C	0.025446	0.091878	-0.157481
C65	C	-0.024970	0.091038	-0.157412
C66	C	-0.052530	0.094475	-0.082154
C67	C	0.659520	0.093612	-0.006592
C68	C	0.713182	0.094494	-0.006650
C69	C	0.567851	0.244189	-0.017412
C70	C	0.568940	0.331427	-0.023671
N71	N	0.564423	0.111473	0.207908
N72	N	0.577894	0.089422	-0.222103
C73	C	0.595853	0.059883	0.255200
C74	C	0.593140	0.064340	0.342069
C75	C	0.558999	0.120392	0.381643
C76	C	0.527566	0.171985	0.334344
C77	C	0.530277	0.167523	0.247477
C78	C	0.549171	0.136553	0.643732
C79	C	0.546464	0.141013	0.730605
C80	C	0.612038	0.033366	0.738324
C81	C	0.614748	0.028912	0.651455
C82	C	0.583313	0.080502	0.604163
C83	C	0.556226	0.124952	0.470436
C84	C	0.586084	0.075939	0.515372
H85	H	0.577559	-0.145138	-0.126472
O86	O	0.564398	-0.659856	0.124539
C87	C	0.605488	-0.716462	0.133110
H88	H	0.636359	-0.700527	0.089116
H89	H	0.595895	-0.777496	0.117208
C90	C	0.583711	-0.736950	0.277417
C91	C	0.621629	-0.717373	0.223387
H92	H	0.593667	-0.737515	0.333104
H93	H	0.556027	-0.698815	0.271642
H94	H	0.575721	-0.787809	0.264155
H95	H	0.629614	-0.666511	0.236643
H96	H	0.649315	-0.755500	0.229166
H97	H	-0.277866	0.087583	-0.143145
H98	H	0.185900	0.113315	0.204472
O99	O	0.333600	0.097033	-0.155674
C100	C	0.309965	0.028207	-0.155267
H101	H	0.302160	0.008726	-0.088314
H102	H	0.334325	-0.021051	-0.188991
C103	C	0.271373	0.069808	-0.281943
C104	C	0.261782	0.045885	-0.199710
H105	H	0.241652	0.080709	-0.309360
H106	H	0.287297	0.116176	-0.282220
H107	H	0.291673	0.028755	-0.310035
H108	H	0.241487	0.086940	-0.171616
H109	H	0.245854	-0.000477	-0.199429
O110	O	-0.191273	0.103654	0.141493
C111	C	-0.156889	0.036262	0.150861
H112	H	-0.145500	0.010336	0.087166
H113	H	-0.173723	-0.009838	0.191426
C114	C	-0.125962	0.091782	0.270569
C115	C	-0.111970	0.059944	0.192337
H116	H	-0.098255	0.106389	0.296157
H117	H	-0.149129	0.137185	0.264260
H118	H	-0.139991	0.053361	0.304364
H119	H	-0.097948	0.098369	0.158541
H120	H	-0.088800	0.014549	0.198641
O121	O	0.642617	-0.016791	0.784137
C122	C	0.673320	-0.067237	0.730581
H123	H	0.675852	-0.038196	0.666346
H124	H	0.657820	-0.125912	0.725523
C125	C	0.721269	-0.117981	0.844578
C126	C	0.724382	-0.082309	0.765685
H127	H	0.752766	-0.127282	0.866232
H128	H	0.700583	-0.083997	0.880660
H129	H	0.708350	-0.166873	0.840352
H130	H	0.737295	-0.033414	0.769913
H131	H	0.745072	-0.116286	0.729604
O132	O	0.647743	-0.025876	0.613135
C133	C	0.623164	-0.076607	0.566637
H134	H	0.585898	-0.045263	0.551151
H135	H	0.618507	-0.132676	0.604593
C136	C	0.698719	-0.137121	0.504514
C137	C	0.652950	-0.098621	0.485487
H138	H	0.717092	-0.150704	0.454458
H139	H	0.715279	-0.102945	0.535842
H140	H	0.694831	-0.183840	0.536145
H141	H	0.656838	-0.051898	0.453866
H142	H	0.636391	-0.132790	0.454152
O143	O	0.566603	-0.285633	0.169468
C144	C	0.523602	-0.253827	0.213124
H145	H	0.496030	-0.226965	0.167014
H146	H	0.532181	-0.205974	0.256774
C147	C	0.536153	-0.353002	0.320765
C148	C	0.502287	-0.320016	0.264132
H149	H	0.523005	-0.393829	0.352233
H150	H	0.565124	-0.374429	0.291356
H151	H	0.543299	-0.313118	0.357133
H152	H	0.495146	-0.359898	0.227760
H153	H	0.473313	-0.298598	0.293537
H154	H	0.618733	0.022331	0.380575
H155	H	0.573316	-0.667957	-0.160701
H156	H	0.566617	-0.505267	0.101609
H157	H	0.047880	0.089076	-0.218767
H158	H	0.623657	0.014242	0.222985
O159	O	0.090181	0.112374	0.216482
C160	C	0.121179	0.116309	0.282828
H161	H	0.155844	0.140660	0.258927
H162	H	0.130795	0.054509	0.310483
C163	C	0.052646	0.141290	0.379584
C164	C	0.095221	0.171204	0.350229
H165	H	0.036634	0.175148	0.421163
H166	H	0.031762	0.138636	0.334886
H167	H	0.060666	0.089790	0.402624
H168	H	0.087201	0.222698	0.327180
H169	H	0.116104	0.173868	0.394925
H170	H	0.568988	-0.131145	0.146504
H171	H	0.518660	0.186660	0.762821
O172	O	0.574745	-0.384686	-0.117323
C173	C	0.533646	-0.328102	-0.125911
H174	H	0.517811	-0.309337	-0.061701
H175	H	0.505129	-0.355003	-0.161244
C176	C	0.568110	-0.278351	-0.253164
C177	C	0.548664	-0.255298	-0.174300
H178	H	0.577372	-0.233443	-0.283016
H179	H	0.595798	-0.316474	-0.247380
H180	H	0.544343	-0.300769	-0.282597
H181	H	0.572433	-0.232890	-0.144865
H182	H	0.520979	-0.217169	-0.180081
O183	O	0.567434	-0.414401	0.103118
C184	C	0.524875	-0.452151	0.110349
H185	H	0.512818	-0.464623	0.045687
H186	H	0.494823	-0.412071	0.144747
C187	C	0.550078	-0.515362	0.238550
C188	C	0.535271	-0.530687	0.159130
H189	H	0.556489	-0.563805	0.268643
H190	H	0.578750	-0.489927	0.233680
H191	H	0.525032	-0.481960	0.267204
H192	H	0.560319	-0.564079	0.130474
H193	H	0.506603	-0.556129	0.163996
O194	O	0.518617	0.186752	0.597923
C195	C	0.487897	0.237169	0.651484
H196	H	0.505785	0.241007	0.713352
H197	H	0.451664	0.212537	0.662539
C198	C	0.457149	0.315618	0.535497
C199	C	0.479122	0.320337	0.611482
H200	H	0.451733	0.366919	0.510822
H201	H	0.477844	0.281650	0.499412
H202	H	0.426957	0.295088	0.544720
H203	H	0.509315	0.340857	0.602257
H204	H	0.458431	0.354311	0.647565
H205	H	0.420180	0.113334	0.128945
O206	O	-0.182105	0.088689	-0.155119
C207	C	-0.198381	0.154225	-0.205756
H208	H	-0.217367	0.203844	-0.165129
H209	H	-0.224973	0.135942	-0.251513
C210	C	-0.131274	0.122539	-0.304037
C211	C	-0.154589	0.183485	-0.254138
H212	H	-0.104262	0.140587	-0.333885
H213	H	-0.120310	0.078385	-0.269924
H214	H	-0.153439	0.107309	-0.342161
H215	H	-0.132426	0.198706	-0.216009
H216	H	-0.165550	0.227643	-0.288246
H217	H	-0.286406	0.101570	0.129830
H218	H	0.575699	-0.293836	-0.115805
O219	O	-0.061087	0.109701	0.216657
C220	C	-0.044833	0.044145	0.267284
H221	H	-0.005763	0.020960	0.247485
H222	H	-0.069118	-0.004546	0.260301
C223	C	-0.095036	0.098104	0.383082
C224	C	-0.047048	0.069632	0.358769
H225	H	-0.096404	0.113824	0.439515
H226	H	-0.105988	0.142269	0.348974
H227	H	-0.115268	0.057524	0.377257
H228	H	-0.026818	0.110216	0.364585
H229	H	-0.036093	0.025475	0.392881
H230	H	0.499765	0.217622	0.366570
O231	O	0.104171	0.089341	-0.230739
C232	C	0.139316	0.086498	-0.297167
H233	H	0.176529	0.063345	-0.273353
H234	H	0.140424	0.148474	-0.324843
C235	C	0.080236	0.059385	-0.393760
C236	C	0.125941	0.030942	-0.364513
H237	H	0.071985	0.025119	-0.435305
H238	H	0.056558	0.061303	-0.349008
H239	H	0.081165	0.111032	-0.416818
H240	H	0.125010	-0.020699	-0.341446
H241	H	0.149619	0.029014	-0.409263
H242	H	0.613880	0.030298	0.483148
H243	H	0.328720	0.111802	0.129069
O244	O	0.499725	0.217723	0.201657
C245	C	0.469002	0.268141	0.255212
H246	H	0.486887	0.271983	0.317082
H247	H	0.432769	0.243508	0.266264
C248	C	0.438257	0.346583	0.139218
C249	C	0.460227	0.351307	0.215205
H250	H	0.432842	0.397883	0.114539
H251	H	0.458955	0.312614	0.103136
H252	H	0.408066	0.326052	0.148438
H253	H	0.490420	0.371828	0.205982
H254	H	0.439534	0.385282	0.251284
H255	H	0.575173	-0.519246	-0.171369
H256	H	0.199145	0.091576	-0.218962
H257	H	0.428715	0.099333	-0.144028
H258	H	0.528429	0.170592	0.502665
H259	H	0.034651	0.110793	0.204662
H260	H	-0.043576	0.087558	-0.218654
