data_functionalizedCrystal
_audit_creation_method	'MofGen! by Chris Wilmer'
_symmetry_space_group_name_H-M	'P1'
_symmetry_Int_Tables_number	1
_symmetry_cell_setting	triclinic
loop_
_symmetry_equiv_pos_as_xyz
  x,y,z
_cell_length_a	13.032721
_cell_length_b	18.215407
_cell_length_c	18.215399
_cell_angle_alpha	89.982632
_cell_angle_beta	97.154738
_cell_angle_gamma	97.201717
loop_
_atom_site_label
_atom_site_type_symbol
_atom_site_fract_x
_atom_site_fract_y
_atom_site_fract_z
Zn1	Zn	-0.416122	1.087874	-0.453281
Zn2	Zn	-0.590884	1.072159	-0.345843
Zn3	Zn	-0.416147	0.964804	-0.330236
Zn4	Zn	-0.590817	0.949156	-0.468867
O5	O	-0.503493	1.018498	-0.399557
O6	O	-0.439322	1.188772	-0.439038
O7	O	-0.567744	1.057891	-0.240792
O8	O	-0.269905	0.994255	-0.333503
O9	O	-0.567719	1.177227	-0.360104
O10	O	-0.269887	1.084673	-0.423904
O11	O	-0.439365	0.979017	-0.229325
O12	O	-0.439300	0.859745	-0.348617
O13	O	-0.567605	0.967584	-0.569781
O14	O	-0.567629	0.848249	-0.450469
O15	O	-0.439257	1.069500	-0.558329
O16	O	-0.737114	1.042717	-0.375218
O17	O	-0.737064	0.952347	-0.465603
C18	C	-0.503460	0.827295	-0.399541
C19	C	-0.503472	0.745495	-0.399554
C20	C	-0.436753	0.563299	-0.440742
C21	C	-0.436762	0.486440	-0.440745
C22	C	-0.570261	0.474447	-0.358388
C23	C	-0.570246	0.551305	-0.358381
C24	C	-0.503494	0.595729	-0.399562
C25	C	-0.503518	0.442011	-0.399572
C26	C	-0.503528	0.358677	-0.399575
C27	C	-0.503482	0.679069	-0.399558
C28	C	-0.775007	0.994149	-0.423811
C29	C	-0.891162	0.983800	-0.434212
C30	C	-0.942938	1.023939	-0.394162
C31	C	-1.062990	1.013243	-0.404910
C32	C	-0.230918	1.042962	-0.375224
C33	C	-0.114763	1.053388	-0.364854
C34	C	-0.503421	1.018549	-0.591503
C35	C	-0.503390	1.018571	-0.673300
C36	C	-0.503526	1.210448	-0.399573
C37	C	-0.503540	1.292246	-0.399580
C38	C	-0.436497	1.071661	-0.855526
C39	C	-0.436466	1.071673	-0.932382
C40	C	-0.570121	0.965548	-0.944296
C41	C	-0.570146	0.965534	-0.867441
C42	C	-0.503335	1.018594	-0.823058
C43	C	-0.503280	1.018620	-0.976769
C44	C	-0.503248	1.018632	-1.060100
C45	C	-0.503366	1.018582	-0.739722
C46	C	-0.503489	1.018496	-0.208350
C47	C	-0.503225	1.018643	-0.126528
H48	H	-0.624596	0.577710	-0.324843
H49	H	-1.070216	1.095676	-0.322608
C50	C	-0.304370	1.176576	-0.912882
C51	C	-0.363001	1.130009	-0.968072
H52	H	-0.259018	1.212594	-0.934917
H53	H	-0.264403	1.148095	-0.879334
H54	H	-0.349930	1.200630	-0.886975
H55	H	-0.317441	1.105950	-0.993975
H56	H	-0.402971	1.158493	-1.001632
C57	C	-1.058583	0.927170	-0.490853
C58	C	-0.951294	0.926716	-0.491245
H59	H	-1.095702	0.891924	-0.526061
H60	H	-1.076345	0.975033	-0.503248
H61	H	-1.076467	0.914845	-0.442984
H62	H	-0.933409	0.939046	-0.539113
H63	H	-0.933525	0.878842	-0.478854
C64	C	-0.629436	0.918451	-1.067401
C65	C	-0.643565	0.907230	-0.993085
H66	H	-0.674785	0.882450	-1.097519
H67	H	-0.559225	0.913980	-1.073726
H68	H	-0.644733	0.966529	-1.081360
H69	H	-0.628260	0.859153	-0.979124
H70	H	-0.713792	0.911695	-0.986756
H71	H	-0.382092	1.114865	-0.819392
C72	C	-0.702272	0.860637	-0.886932
C73	C	-0.643625	0.907201	-0.831747
H74	H	-0.747634	0.824629	-0.864894
H75	H	-0.656730	0.836576	-0.912839
H76	H	-0.742238	0.889127	-0.920483
H77	H	-0.603652	0.878711	-0.798199
H78	H	-0.689172	0.931263	-0.805828
H79	H	-0.382396	0.599468	-0.474271
H80	H	-1.107537	0.970960	-0.447162
C81	C	-0.304816	0.506018	-0.522158
C82	C	-0.363404	0.450792	-0.486015
H83	H	-0.259531	0.484009	-0.550110
H84	H	-0.264780	0.539569	-0.486563
H85	H	-0.350407	0.531922	-0.554324
H86	H	-0.317813	0.424891	-0.453845
H87	H	-0.403443	0.417229	-0.521615
H88	H	-0.898389	1.066225	-0.351918
C89	C	-0.629569	0.351301	-0.321836
C90	C	-0.643643	0.425612	-0.313130
H91	H	-0.674880	0.321155	-0.293899
H92	H	-0.559347	0.344994	-0.304869
H93	H	-0.644953	0.337355	-0.372643
H94	H	-0.628251	0.439559	-0.262323
H95	H	-0.713881	0.431923	-0.330093
