data_functionalizedCrystal
_audit_creation_method	'MofGen! by Chris Wilmer'
_symmetry_space_group_name_H-M	'P1'
_symmetry_Int_Tables_number	1
_symmetry_cell_setting	triclinic
loop_
_symmetry_equiv_pos_as_xyz
  x,y,z
_cell_length_a	15.625020
_cell_length_b	14.519709
_cell_length_c	14.750779
_cell_angle_alpha	77.332886
_cell_angle_beta	85.134135
_cell_angle_gamma	83.969588
loop_
_atom_site_label
_atom_site_type_symbol
_atom_site_fract_x
_atom_site_fract_y
_atom_site_fract_z
O1	O	1.084515	0.234894	-0.457398
O2	O	1.584515	0.734894	0.042602
O3	O	0.842657	0.228163	-0.373199
O4	O	1.342657	0.728163	0.126801
O5	O	0.970001	0.097844	-0.417523
O6	O	1.470001	0.597844	0.082477
O7	O	0.957172	0.365213	-0.413074
O8	O	1.457172	0.865213	0.086926
O9	O	1.005999	0.061009	-0.270403
O10	O	1.505999	0.561009	0.229597
O11	O	0.878656	0.191327	-0.226078
O12	O	1.378656	0.691327	0.273922
O13	O	1.120513	0.198059	-0.310278
O14	O	1.620513	0.698059	0.189722
Zn15	Zn	1.005300	0.188845	-0.244820
Zn16	Zn	1.505300	0.688845	0.255180
Zn17	Zn	0.957871	0.237377	-0.438657
Zn18	Zn	1.457871	0.737377	0.061343
O19	O	0.993170	0.328378	-0.265954
O20	O	1.493170	0.828378	0.234046
C21	C	0.829703	0.206398	-0.288862
C22	C	1.329703	0.706398	0.211138
C23	C	0.737473	0.196414	-0.256753
C24	C	1.237473	0.696414	0.243247
C25	C	0.627099	0.162262	-0.131308
C26	C	1.127099	0.662262	0.368692
C27	C	0.713761	0.171647	-0.161488
C28	C	1.213761	0.671647	0.338512
C29	C	0.674526	0.211800	-0.321876
C30	C	1.174526	0.711800	0.178124
C31	C	0.587859	0.202415	-0.291709
C32	C	1.087859	0.702415	0.208291
C33	C	0.564153	0.177647	-0.196424
C34	C	1.064153	0.677647	0.303576
C35	C	0.524914	0.217799	-0.356825
C36	C	1.024914	0.717799	0.143175
C37	C	0.438254	0.208418	-0.326660
C38	C	0.938254	0.708418	0.173340
C39	C	0.414540	0.183654	-0.231379
C40	C	0.914540	0.683654	0.268621
C41	C	0.477494	0.168266	-0.166258
C42	C	0.977494	0.668266	0.333742
C43	C	0.548621	0.242573	-0.452110
C44	C	1.048621	0.742573	0.047890
C45	C	0.485675	0.257957	-0.517226
C46	C	0.985675	0.757957	-0.017226
C47	C	0.399015	0.248570	-0.487061
C48	C	0.899015	0.748570	0.012939
C49	C	0.375301	0.223806	-0.391780
C50	C	0.875301	0.723806	0.108220
C51	C	0.336061	0.263958	-0.552181
C52	C	0.836061	0.763958	-0.052181
C53	C	0.249402	0.254578	-0.522016
C54	C	0.749402	0.754578	-0.022016
C55	C	0.288641	0.214426	-0.361615
C56	C	0.788641	0.714426	0.138385
C57	C	0.987402	0.045015	-0.343754
C58	C	1.487402	0.545015	0.156246
C59	C	0.985611	-0.057522	-0.343130
C60	C	1.485611	0.442478	0.156870
C61	C	0.979012	-0.432984	-0.340858
C62	C	1.479012	0.067016	0.159142
C63	C	0.980845	-0.328519	-0.341489
C64	C	1.480845	0.171481	0.158511
C65	C	0.982311	-0.245256	-0.341993
C66	C	1.482311	0.254744	0.158007
C67	C	0.984144	-0.140784	-0.342626
C68	C	1.484144	0.359216	0.157374
C69	C	1.133467	0.219824	-0.394616
C70	C	1.633467	0.719824	0.105384
C71	C	1.225696	0.229810	-0.426731
C72	C	1.725696	0.729810	0.073269
C73	C	0.975768	0.381207	-0.339724
C74	C	1.475768	0.881207	0.160276
C75	C	0.977558	0.483746	-0.340354
C76	C	1.477558	0.983746	0.159646
N77	N	1.037675	0.155723	-0.112533
N78	N	1.537675	0.655723	0.387467
N79	N	0.925502	0.270492	-0.570946
N80	N	1.425502	0.770492	-0.070946
C81	C	0.835082	0.362955	0.309802
C82	C	1.335082	0.862955	0.809802
C83	C	0.857774	0.339752	0.402403
C84	C	1.357774	0.839752	0.902403
C85	C	0.970560	0.224403	0.363108
C86	C	1.470560	0.724403	0.863108
C87	C	0.947874	0.247593	0.270503
C88	C	1.447874	0.747593	0.770503
C89	C	0.880135	0.316871	0.243858
C90	C	1.380135	0.816871	0.743858
C91	C	0.992928	0.201509	0.204559
C92	C	1.492928	0.701509	0.704559
C93	C	0.970246	0.224701	0.111962
C94	C	1.470246	0.724701	0.611962
C95	C	0.902511	0.293977	0.085308
C96	C	1.402511	0.793977	0.585308
C97	C	0.857453	0.340063	0.151260
C98	C	1.357453	0.840063	0.651260
C99	C	1.060671	0.132237	0.231205
C100	C	1.560671	0.632237	0.731205
C101	C	1.105724	0.086152	0.165261
C102	C	1.605724	0.586152	0.665261
C103	C	1.083039	0.109339	0.072663
C104	C	1.583039	0.609339	0.572663
C105	C	1.015304	0.178616	0.046009
C106	C	1.515304	0.678616	0.546009
C107	C	1.128096	0.063254	0.006710
C108	C	1.628096	0.563254	0.506710
C109	C	1.105415	0.086446	-0.085888
C110	C	1.605415	0.586446	0.414112
C111	C	0.992622	0.201808	-0.046589
C112	C	1.492622	0.701808	0.453411
H113	H	0.269338	0.194269	-0.284024
H114	H	0.769338	0.694269	0.215976
F115	F	0.510915	0.284316	-0.618633
F116	F	1.010915	0.784316	-0.118633
H117	H	1.025717	0.167999	0.384813
H118	H	1.525717	0.667999	0.884813
H119	H	0.355375	0.284134	-0.629762
H120	H	0.855375	0.784134	-0.129762
F121	F	0.762977	0.436680	0.281446
F122	F	1.262977	0.936680	0.781446
H123	H	0.198148	0.267108	-0.575040
H124	H	0.698148	0.767108	-0.075040
H125	H	0.765011	0.159123	-0.108455
H126	H	1.265011	0.659123	0.391545
F127	F	1.200195	-0.010465	0.035076
F128	F	1.700195	0.489535	0.535076
F129	F	0.920518	0.275532	-0.074945
F130	F	1.420518	0.775532	0.425055
H131	H	0.884047	0.312862	0.009907
H132	H	1.384047	0.812862	0.509907
H133	H	1.079138	0.113360	0.306604
H134	H	1.579138	0.613360	0.806604
F135	F	0.785349	0.413787	0.122904
F136	F	1.285349	0.913787	0.622904
H137	H	0.458191	0.148109	-0.088667
H138	H	0.958191	0.648109	0.411333
H139	H	0.693840	0.231970	-0.399458
H140	H	1.193840	0.731970	0.100542
H141	H	0.607796	0.142105	-0.053716
H142	H	1.107796	0.642105	0.446284
F143	F	0.809816	0.388812	0.472582
F144	F	1.309816	0.888812	0.972582
H145	H	1.160880	0.029748	0.186966
H146	H	1.660880	0.529748	0.686966
F147	F	0.640853	0.252558	-0.484212
F148	F	1.140853	0.752558	0.015788
H149	H	0.343975	0.176022	-0.206819
H150	H	0.843975	0.676022	0.293181
H151	H	1.142103	0.048919	-0.139582
H152	H	1.642103	0.548919	0.360418
