data_functionalizedCrystal
_audit_creation_method	'MofGen! by Chris Wilmer'
_symmetry_space_group_name_H-M	'P1'
_symmetry_Int_Tables_number	1
_symmetry_cell_setting	triclinic
loop_
_symmetry_equiv_pos_as_xyz
  x,y,z
_cell_length_a	17.077404
_cell_length_b	12.759400
_cell_length_c	17.077396
_cell_angle_alpha	90.022949
_cell_angle_beta	90.019777
_cell_angle_gamma	90.009670
loop_
_atom_site_label
_atom_site_type_symbol
_atom_site_fract_x
_atom_site_fract_y
_atom_site_fract_z
Zn1	Zn	1.200102	-0.418396	0.443879
Zn2	Zn	1.700102	0.081604	0.943879
Zn3	Zn	1.200028	-0.594096	0.312625
Zn4	Zn	1.700028	-0.094096	0.812625
Zn5	Zn	1.068833	-0.418418	0.312626
Zn6	Zn	1.568833	0.081582	0.812626
Zn7	Zn	1.068821	-0.594019	0.443848
Zn8	Zn	1.568821	-0.094019	0.943848
O9	O	1.134446	-0.506232	0.378245
O10	O	1.634446	-0.006232	0.878245
O11	O	1.309939	-0.441726	0.426480
O12	O	1.809939	0.058274	0.926480
O13	O	1.182600	-0.570834	0.202778
O14	O	1.682600	-0.070834	0.702778
O15	O	1.086282	-0.271394	0.330050
O16	O	1.586282	0.228606	0.830050
O17	O	1.309885	-0.570812	0.330049
O18	O	1.809885	-0.070812	0.830049
O19	O	1.182724	-0.271378	0.426481
O20	O	1.682724	0.228622	0.926481
O21	O	1.086211	-0.441763	0.202779
O22	O	1.586211	0.058237	0.702779
O23	O	0.958985	-0.441688	0.330020
O24	O	1.458985	0.058312	0.830020
O25	O	1.086261	-0.570681	0.553699
O26	O	1.586261	-0.070681	1.053699
O27	O	0.958976	-0.570702	0.426429
O28	O	1.458976	-0.070702	0.926429
O29	O	1.182712	-0.441651	0.553722
O30	O	1.682712	0.058349	1.053722
O31	O	1.182588	-0.741107	0.330019
O32	O	1.682588	-0.241107	0.830019
O33	O	1.086190	-0.741050	0.426428
O34	O	1.586190	-0.241050	0.926428
C35	C	0.930498	-0.506190	0.378222
C36	C	1.430498	-0.006190	0.878222
C37	C	0.843248	-0.506197	0.378231
C38	C	1.343248	-0.006197	0.878231
C39	C	0.467450	-0.573560	0.428388
C40	C	0.967450	-0.073560	0.928388
C41	C	0.549430	-0.573546	0.428376
C42	C	1.049430	-0.073546	0.928376
C43	C	0.590400	-0.506260	0.378257
C44	C	1.090400	-0.006260	0.878257
C45	C	0.549384	-0.438991	0.328141
C46	C	1.049384	0.061009	0.828141
C47	C	0.467405	-0.439010	0.328150
C48	C	0.967405	0.060990	0.828150
C49	C	0.720254	-0.438952	0.328128
C50	C	1.220254	0.061048	0.828128
C51	C	0.802239	-0.438931	0.328120
C52	C	1.302239	0.061069	0.828120
C53	C	0.802279	-0.573488	0.428355
C54	C	1.302279	-0.073488	0.928355
C55	C	0.720300	-0.573508	0.428363
C56	C	1.220300	-0.073508	0.928363
C57	C	0.679291	-0.506237	0.378248
C58	C	1.179291	-0.006237	0.878248
C59	C	1.134401	-0.779199	0.378238
C60	C	1.634401	-0.279199	0.878238
C61	C	1.134453	-0.895976	0.378261
C62	C	1.634453	-0.395976	0.878261
C63	C	1.084249	-0.950847	0.428421
C64	C	1.584249	-0.450847	0.928421
C65	C	1.084290	-1.060571	0.428429
C66	C	1.584290	-0.560571	0.928429
C67	C	1.184748	-1.060544	0.328113
C68	C	1.684748	-0.560544	0.828113
C69	C	1.184702	-0.950822	0.328102
C70	C	1.684702	-0.450822	0.828102
C71	C	1.034000	-0.896001	0.478580
C72	C	1.534000	-0.396001	0.978580
C73	C	0.983791	-0.950872	0.528745
C74	C	1.483791	-0.450872	1.028745
C75	C	0.983833	-1.060596	0.528752
C76	C	1.483833	-0.560596	1.028752
C77	C	1.034083	-1.115449	0.478595
C78	C	1.534083	-0.615449	0.978595
C79	C	1.339190	-0.506275	0.378268
C80	C	1.839190	-0.006275	0.878268
C81	C	1.426440	-0.506293	0.378278
C82	C	1.926440	-0.006293	0.878278
C83	C	1.134494	-0.506155	0.582989
C84	C	1.634494	-0.006155	1.082989
C85	C	1.134514	-0.506122	0.670239
C86	C	1.634514	-0.006122	1.170239
C87	C	1.134513	-0.232199	0.378269
C88	C	1.634513	0.267801	0.878269
C89	C	1.134541	-0.115422	0.378279
C90	C	1.634541	0.384578	0.878279
C91	C	1.134444	-0.506233	0.174297
C92	C	1.634444	-0.006233	0.674297
C93	C	1.134576	-0.505970	0.087047
C94	C	1.634576	-0.005970	0.587047
C95	C	1.184738	-0.438930	0.711242
C96	C	1.684738	0.061070	1.211242
C97	C	1.184747	-0.438895	0.793222
C98	C	1.684747	0.061105	1.293222
C99	C	1.134536	-0.506058	0.834198
C100	C	1.634536	-0.006058	1.334198
C101	C	1.084307	-0.573252	0.793189
C102	C	1.584307	-0.073252	1.293189
C103	C	1.084294	-0.573281	0.711210
C104	C	1.584294	-0.073281	1.211210
C105	C	1.084338	-0.573189	0.964060
C106	C	1.584338	-0.073189	1.464060
C107	C	1.084352	-0.573162	1.046044
C108	C	1.584352	-0.073162	1.546044
C109	C	1.184792	-0.438803	1.046071
C110	C	1.684792	0.061197	1.546071
C111	C	1.184779	-0.438832	0.964092
C112	C	1.684779	0.061168	1.464092
C113	C	1.134550	-0.506028	0.923089
C114	C	1.634550	-0.006028	1.423089
H115	H	0.582748	-0.384210	0.287330
H116	H	1.082748	0.115790	0.787330
H117	H	1.043388	-0.627985	0.677827
H118	H	1.543388	-0.127985	1.177827
H119	H	1.033962	-0.806658	0.478581
H120	H	1.533962	-0.306658	0.978581
H121	H	1.225661	-1.105214	0.287278
H122	H	1.725661	-0.605214	0.787278
H123	H	1.034111	-1.204794	0.478603
H124	H	1.534111	-0.704794	0.978603
C125	C	1.029066	-0.647121	0.838266
C126	C	1.529066	-0.147121	1.338266
N127	N	0.987457	-0.702761	0.872217
N128	N	1.487457	-0.202761	1.372217
H129	H	0.434099	-0.628346	0.469205
H130	H	0.934099	-0.128346	0.969205
C131	C	1.239937	-0.890461	0.272929
C132	C	1.739937	-0.390461	0.772929
N133	N	1.281541	-0.844996	0.231372
N134	N	1.781541	-0.344996	0.731372
C135	C	0.594537	-0.647548	0.483499
C136	C	1.094537	-0.147548	0.983499
N137	N	0.628511	-0.703292	0.525018
N138	N	1.128511	-0.203292	1.025018
C139	C	0.847392	-0.647490	0.483479
C140	C	1.347392	-0.147490	0.983479
N141	N	0.881374	-0.703224	0.525000
N142	N	1.381374	-0.203224	1.025000
H143	H	1.225628	-0.384242	0.677885
H144	H	1.725628	0.115758	1.177885
H145	H	1.225646	-0.384184	0.826603
H146	H	1.725646	0.115816	1.326603
C147	C	0.422295	-0.365010	0.273026
C148	C	0.922295	0.134990	0.773026
N149	N	0.388319	-0.309271	0.231504
N150	N	0.888319	0.190729	0.731504
H151	H	1.225670	-0.384149	0.930732
H152	H	1.725670	0.115851	1.430732
C153	C	1.240043	-0.364886	1.091176
C154	C	1.740043	0.135114	1.591176
N155	N	1.281660	-0.309217	1.125153
N156	N	1.781660	0.190783	1.625153
H157	H	1.043464	-0.627849	1.079405
H158	H	1.543464	-0.127849	1.579405
H159	H	0.942875	-0.906205	0.569577
H160	H	1.442875	-0.406205	1.069577
H161	H	1.043424	-0.627891	0.930677
H162	H	1.543424	-0.127891	1.430677
H163	H	0.686866	-0.384171	0.287321
H164	H	1.186866	0.115829	0.787321
H165	H	0.942946	-1.105269	0.569595
H166	H	1.442946	-0.605269	1.069595
H167	H	0.686945	-0.628293	0.469178
H168	H	1.186945	-0.128293	0.969178
C169	C	0.847303	-0.364922	0.272980
C170	C	1.347303	0.135078	0.772980
N171	N	0.881246	-0.309179	0.231446
N172	N	1.381246	0.190821	0.731446
