data_functionalizedCrystal
_audit_creation_method	'MofGen! by Chris Wilmer'
_symmetry_space_group_name_H-M	'P1'
_symmetry_Int_Tables_number	1
_symmetry_cell_setting	triclinic
loop_
_symmetry_equiv_pos_as_xyz
  x,y,z
_cell_length_a	10.968094
_cell_length_b	10.967961
_cell_length_c	9.482900
_cell_angle_alpha	92.504213
_cell_angle_beta	87.451690
_cell_angle_gamma	87.247626
loop_
_atom_site_label
_atom_site_type_symbol
_atom_site_fract_x
_atom_site_fract_y
_atom_site_fract_z
O1	O	1.620151	0.212132	-0.231818
O2	O	1.271067	0.214775	-0.143707
O3	O	1.446954	0.038938	-0.231822
O4	O	1.444263	0.387969	-0.143703
O5	O	1.411235	0.074805	-0.455680
O6	O	1.235347	0.250642	-0.367566
O7	O	1.584431	0.247998	-0.455676
Cu8	Cu	1.406628	0.252595	-0.432061
Cu9	Cu	1.448870	0.210178	-0.167323
O10	O	1.408544	0.423836	-0.367562
C11	C	1.208384	0.229807	-0.245135
C12	C	1.074826	0.221149	-0.213846
C13	C	0.858732	0.226907	-0.283518
C14	C	0.996769	0.235866	-0.315868
C15	C	1.426200	0.012054	-0.354251
C16	C	1.417560	-0.121486	-0.385534
C17	C	1.423287	-0.337624	-0.315850
C18	C	1.432215	-0.199604	-0.283507
C19	C	1.647114	0.232965	-0.354246
C20	C	1.780674	0.241622	-0.385526
C21	C	1.429299	0.450719	-0.245130
C22	C	1.437940	0.584258	-0.213838
N23	N	1.376925	0.282428	-0.618266
C24	C	1.440101	0.218971	-0.722190
C25	C	1.415397	0.243803	-0.877198
N26	N	1.478582	0.180336	0.018878
H27	H	1.032127	0.255093	-0.427159
H28	H	0.816039	0.260847	-0.496809
H29	H	1.398396	-0.156778	-0.496820
H30	H	1.343012	0.316515	-0.902972
O31	O	1.032448	0.198268	-0.081138
C32	C	0.856239	0.168355	0.072070
C33	C	0.904064	0.194300	-0.078271
H34	H	0.752438	0.165113	0.074430
H35	H	0.883312	0.243861	0.149254
H36	H	0.897584	0.076788	0.103807
H37	H	0.862743	0.285830	-0.110141
H38	H	0.877006	0.118722	-0.155367
O39	O	1.400376	-0.379515	-0.448675
C40	C	1.362661	-0.327764	-0.687752
C41	C	1.388574	-0.280162	-0.537381
H42	H	1.353137	-0.247464	-0.759520
H43	H	1.274311	-0.378463	-0.684922
H44	H	1.441447	-0.392631	-0.730157
H45	H	1.309863	-0.215249	-0.494885
H46	H	1.476965	-0.229534	-0.540300
H47	H	1.451360	-0.164309	-0.172216
O48	O	1.460790	-0.373438	-0.081156
C49	C	1.490333	-0.197289	0.072107
C50	C	1.464507	-0.245033	-0.078235
H51	H	1.493321	-0.093467	0.074525
H52	H	1.581924	-0.238467	0.103954
H53	H	1.414779	-0.224593	0.149178
H54	H	1.539985	-0.217744	-0.155407
H55	H	1.372877	-0.203860	-0.109963
H56	H	1.550958	0.107615	-0.955347
H57	H	1.512472	0.146254	-0.696409
H58	H	1.304545	0.355136	-0.644049
H59	H	0.823368	0.207669	-0.172239
