data_functionalizedCrystal
_audit_creation_method	'MofGen! by Chris Wilmer'
_symmetry_space_group_name_H-M	'P1'
_symmetry_Int_Tables_number	1
_symmetry_cell_setting	triclinic
loop_
_symmetry_equiv_pos_as_xyz
  x,y,z
_cell_length_a	18.050591
_cell_length_b	21.295417
_cell_length_c	18.050582
_cell_angle_alpha	89.973245
_cell_angle_beta	89.979078
_cell_angle_gamma	90.026512
loop_
_atom_site_label
_atom_site_type_symbol
_atom_site_fract_x
_atom_site_fract_y
_atom_site_fract_z
Zn1	Zn	1.135281	-0.250716	-0.420010
Zn2	Zn	1.135186	-0.355977	-0.295811
Zn3	Zn	1.011100	-0.250719	-0.295821
Zn4	Zn	1.011043	-0.355944	-0.419946
O5	O	1.073153	-0.303339	-0.357897
O6	O	1.239193	-0.264692	-0.403557
O7	O	1.118710	-0.342030	-0.191887
O8	O	1.027636	-0.162629	-0.312326
O9	O	1.239124	-0.342027	-0.312308
O10	O	1.118871	-0.162627	-0.403567
O11	O	1.027545	-0.264697	-0.191895
O12	O	0.907168	-0.264664	-0.312264
O13	O	1.027539	-0.341971	-0.523879
O14	O	0.907126	-0.341973	-0.403458
O15	O	1.118816	-0.264660	-0.523926
O16	O	1.118655	-0.444062	-0.312247
O17	O	1.027448	-0.444038	-0.403449
C18	C	0.880200	-0.303316	-0.357856
C19	C	0.797655	-0.303321	-0.357856
C20	C	0.598205	-0.261232	-0.308379
C21	C	0.548783	-0.318646	-0.290098
C22	C	0.646524	-0.303340	-0.357889
C23	C	0.548865	-0.245945	-0.376169
C24	C	0.500539	-0.303353	-0.357920
C25	C	0.598189	-0.360785	-0.339573
C26	C	0.598276	-0.288045	-0.425676
C27	C	0.548875	-0.345499	-0.407420
C28	C	0.730623	-0.303331	-0.357870
C29	C	0.416443	-0.303368	-0.357940
C30	C	1.073055	-0.466891	-0.357856
C31	C	1.073081	-0.536859	-0.357863
C32	C	1.120615	-0.569717	-0.310423
C33	C	1.120650	-0.635460	-0.310440
C34	C	1.073138	-0.668341	-0.357889
C35	C	1.025600	-0.635475	-0.405338
C36	C	1.025572	-0.569734	-0.405325
N37	N	1.008171	-0.771604	-0.363536
N38	N	1.008200	-0.834055	-0.363544
C39	C	1.073221	-0.866416	-0.357931
N40	N	1.138214	-0.833966	-0.352296
N41	N	1.138184	-0.771509	-0.352284
C42	C	1.073163	-0.739627	-0.357908
C43	C	1.120797	-0.970560	-0.310507
C44	C	1.120833	-1.036304	-0.310529
C45	C	1.025776	-1.036318	-0.405423
C46	C	1.025747	-0.970575	-0.405405
C47	C	1.073256	-0.937700	-0.357943
C48	C	1.266858	-0.303363	-0.357939
C49	C	1.349404	-0.303373	-0.357956
C50	C	1.073182	-0.303311	-0.551603
C51	C	1.073194	-0.303299	-0.634148
C52	C	1.073270	-0.139149	-0.357954
C53	C	1.073321	-0.069181	-0.357979
C54	C	1.023596	-0.345283	-0.833574
C55	C	1.091350	-0.360675	-0.882971
C56	C	1.073231	-0.303251	-0.785279
C57	C	1.005513	-0.287842	-0.882964
C58	C	1.073260	-0.303206	-0.931264
C59	C	1.141021	-0.318673	-0.833589
C60	C	1.055138	-0.245814	-0.833577
C61	C	1.122940	-0.261183	-0.882952
C62	C	1.073213	-0.303279	-0.701181
C63	C	1.073286	-0.303178	-1.015361
C64	C	1.073166	-0.303322	-0.164945
C65	C	1.073298	-0.303156	-0.082399
H66	H	0.527159	-0.197408	-0.391591
H67	H	1.159545	-1.063056	-0.271899
O68	O	1.166848	-0.667290	-0.264281
C69	C	1.261145	-0.660344	-0.170178
C70	C	1.208854	-0.624220	-0.222402
H71	H	1.295132	-0.625537	-0.136316
H72	H	1.227115	-0.691148	-0.131272
H73	H	1.299937	-0.691096	-0.204327
H74	H	1.170052	-0.593434	-0.188312
H75	H	1.242930	-0.593456	-0.261310
H76	H	1.106671	-0.409229	-0.904667
O77	O	0.973475	-0.387700	-0.807791
C78	C	0.845574	-0.420064	-0.804677
C79	C	0.902255	-0.371992	-0.833942
H80	H	0.787979	-0.407374	-0.825795
H81	H	0.861091	-0.469005	-0.824993
H82	H	0.845690	-0.419379	-0.741526
H83	H	0.902169	-0.372621	-0.897091
H84	H	0.886719	-0.323073	-0.813569
O85	O	0.624015	-0.218865	-0.258278
C86	C	0.628035	-0.187132	-0.130221
C87	C	0.598772	-0.235161	-0.186879
H88	H	0.607625	-0.200282	-0.072484
H89	H	0.691189	-0.187202	-0.130984
H90	H	0.606914	-0.138323	-0.145264
H91	H	0.619838	-0.283993	-0.171875
H92	H	0.535619	-0.235036	-0.186105
H93	H	0.619765	-0.409343	-0.324062
H94	H	0.620032	-0.275080	-0.482970
H95	H	1.198317	-0.331742	-0.811991
H96	H	0.527352	-0.381156	-0.449303
H97	H	0.987037	-0.943820	-0.444032
O98	O	0.522689	-0.334066	-0.221778
C99	C	0.415119	-0.351764	-0.145467
C100	C	0.444585	-0.334343	-0.222881
H101	H	0.351969	-0.351980	-0.146329
H102	H	0.436161	-0.400364	-0.129400
H103	H	0.435422	-0.315795	-0.103342
H104	H	0.424294	-0.370269	-0.265057
H105	H	0.423549	-0.285727	-0.238885
H106	H	0.948233	-0.274828	-0.904653
O107	O	0.979701	-1.068221	-0.451623
C108	C	0.943548	-1.088259	-0.577916
C109	C	0.995784	-1.052098	-0.525675
H110	H	0.956522	-1.075227	-0.637797
H111	H	0.951735	-1.140899	-0.569845
H112	H	0.883673	-1.075390	-0.564772
H113	H	1.055679	-1.064914	-0.538786
H114	H	0.987532	-0.999467	-0.533756
O115	O	1.166911	-0.938689	-0.264306
C116	C	1.203003	-0.918587	-0.138010
C117	C	1.150746	-0.954730	-0.190248
H118	H	1.189941	-0.931533	-0.078123
H119	H	1.262897	-0.931471	-0.151054
H120	H	1.194824	-0.865959	-0.146185
H121	H	1.158859	-1.007366	-0.182102
H122	H	1.090871	-0.941794	-0.177191
O123	O	1.166664	-0.537758	-0.264245
C124	C	1.176697	-0.463555	-0.164001
C125	C	1.124461	-0.499722	-0.216238
H126	H	1.142598	-0.432785	-0.125184
H127	H	1.210664	-0.498311	-0.130044
H128	H	1.215512	-0.432761	-0.198145
H129	H	1.085602	-0.530517	-0.182151
H130	H	1.090547	-0.464932	-0.250197
H131	H	1.039798	-0.197273	-0.811864
O132	O	0.979549	-0.667482	-0.451466
C133	C	0.969527	-0.741633	-0.551764
C134	C	1.021761	-0.705436	-0.499555
H135	H	1.003635	-0.772317	-0.590668
H136	H	0.930741	-0.772498	-0.517675
H137	H	0.935530	-0.706840	-0.585636
H138	H	1.055807	-0.740183	-0.465671
H139	H	1.060499	-0.674562	-0.533687
H140	H	1.164975	-0.225619	-0.904496
O141	O	0.979323	-0.537909	-0.451432
C142	C	0.885080	-0.544860	-0.545590
C143	C	0.937408	-0.580981	-0.493400
H144	H	0.851190	-0.579668	-0.579546
H145	H	0.846206	-0.514147	-0.511483
H146	H	0.919151	-0.514018	-0.584416
H147	H	0.903398	-0.611858	-0.454564
H148	H	0.976284	-0.611655	-0.527554
