data_functionalizedCrystal
_audit_creation_method	'MofGen! by Chris Wilmer'
_symmetry_space_group_name_H-M	'P1'
_symmetry_Int_Tables_number	1
_symmetry_cell_setting	triclinic
loop_
_symmetry_equiv_pos_as_xyz
  x,y,z
_cell_length_a	21.295419
_cell_length_b	21.295417
_cell_length_c	21.295411
_cell_angle_alpha	89.979403
_cell_angle_beta	89.975461
_cell_angle_gamma	90.044503
loop_
_atom_site_label
_atom_site_type_symbol
_atom_site_fract_x
_atom_site_fract_y
_atom_site_fract_z
Zn1	Zn	0.962359	-0.250432	-0.355916
Zn2	Zn	1.462359	0.249568	0.144084
Zn3	Zn	0.962263	-0.355684	-0.250643
Zn4	Zn	1.462263	0.144316	0.249357
Zn5	Zn	0.857082	-0.250460	-0.250661
Zn6	Zn	1.357082	0.249540	0.249339
Zn7	Zn	0.857053	-0.355695	-0.355875
Zn8	Zn	1.357053	0.144305	0.144125
O9	O	0.909689	-0.303068	-0.303274
O10	O	1.409689	0.196932	0.196726
O11	O	1.050436	-0.264378	-0.341961
O12	O	1.550436	0.235622	0.158039
O13	O	0.948282	-0.341733	-0.162556
O14	O	1.448282	0.158267	0.337444
O15	O	0.871100	-0.162367	-0.264648
O16	O	1.371100	0.337633	0.235352
O17	O	1.050365	-0.341706	-0.264617
O18	O	1.550365	0.158294	0.235383
O19	O	0.948446	-0.162347	-0.341978
O20	O	1.448446	0.337653	0.158022
O21	O	0.871007	-0.264425	-0.162569
O22	O	1.371007	0.235575	0.337431
O23	O	0.768989	-0.264436	-0.264608
O24	O	1.268989	0.235564	0.235392
O25	O	0.871050	-0.341724	-0.443970
O26	O	1.371050	0.158276	0.056030
O27	O	0.768968	-0.341751	-0.341908
O28	O	1.268968	0.158249	0.158092
O29	O	0.948418	-0.264388	-0.444000
O30	O	1.448418	0.235612	0.056000
O31	O	0.948254	-0.443775	-0.264578
O32	O	1.448254	0.056225	0.235422
O33	O	0.870957	-0.443783	-0.341891
O34	O	1.370957	0.056217	0.158109
C35	C	0.746138	-0.303098	-0.303256
C36	C	1.246138	0.196902	0.196744
C37	C	0.676170	-0.303126	-0.303263
C38	C	1.176170	0.196874	0.196737
C39	C	0.643362	-0.262927	-0.343598
C40	C	1.143362	0.237073	0.156402
C41	C	0.577620	-0.262910	-0.343601
C42	C	1.077620	0.237090	0.156399
C43	C	0.544687	-0.303104	-0.303275
C44	C	1.044687	0.196896	0.196725
C45	C	0.577502	-0.343305	-0.262932
C46	C	1.077502	0.156695	0.237068
C47	C	0.643244	-0.343317	-0.262926
C48	C	1.143244	0.156683	0.237074
N49	N	0.441412	-0.358181	-0.298356
N50	N	0.941412	0.141819	0.201644
N51	N	0.378961	-0.358168	-0.298365
N52	N	0.878961	0.141832	0.201635
C53	C	0.346612	-0.303071	-0.303289
C54	C	0.846612	0.196929	0.196711
N55	N	0.379074	-0.247985	-0.308215
N56	N	0.879074	0.252015	0.191785
N57	N	0.441532	-0.247999	-0.308209
N58	N	0.941532	0.252001	0.191791
C59	C	0.473402	-0.303095	-0.303276
C60	C	0.973402	0.196905	0.196724
C61	C	0.242519	-0.262850	-0.343628
C62	C	0.742519	0.237150	0.156372
C63	C	0.176776	-0.262832	-0.343626
C64	C	0.676776	0.237168	0.156374
C65	C	0.176660	-0.343233	-0.262961
C66	C	0.676660	0.156767	0.237039
C67	C	0.242402	-0.343245	-0.262960
C68	C	0.742402	0.156755	0.237040
C69	C	0.275328	-0.303055	-0.303297
C70	C	0.775328	0.196945	0.196703
C71	C	0.909609	-0.466619	-0.303242
C72	C	1.409609	0.033381	0.196758
C73	C	0.909632	-0.536588	-0.303249
C74	C	1.409632	-0.036588	0.196751
C75	C	0.949884	-0.569386	-0.343544
C76	C	1.449884	-0.069386	0.156456
C77	C	0.949906	-0.635129	-0.343559
C78	C	1.449906	-0.135129	0.156441
C79	C	0.909683	-0.668070	-0.303269
C80	C	1.409683	-0.168070	0.196731
C81	C	0.869424	-0.635263	-0.262971
C82	C	1.369424	-0.135263	0.237029
C83	C	0.869399	-0.569522	-0.262962
C84	C	1.369399	-0.069522	0.237038
N85	N	0.904924	-0.771324	-0.248178
N86	N	1.404924	-0.271324	0.251822
N87	N	0.904952	-0.833775	-0.248189
N88	N	1.404952	-0.333775	0.251811
C89	C	0.909757	-0.866145	-0.303297
C90	C	1.409757	-0.366145	0.196703
N91	N	0.914545	-0.833704	-0.358395
N92	N	1.414545	-0.333704	0.141605
N93	N	0.914521	-0.771247	-0.358383
N94	N	1.414521	-0.271247	0.141617
C95	C	0.909706	-0.739355	-0.303276
C96	C	1.409706	-0.239355	0.196724
C97	C	0.950034	-0.970229	-0.343612
C98	C	1.450034	-0.470229	0.156388
C99	C	0.950052	-1.035973	-0.343629
C100	C	1.450052	-0.535973	0.156371
C101	C	0.869574	-1.036106	-0.263035
C102	C	1.369574	-0.536106	0.236965
C103	C	0.869553	-0.970363	-0.263024
C104	C	1.369553	-0.470363	0.236976
C105	C	0.909786	-0.937429	-0.303312
C106	C	1.409786	-0.437429	0.196688
C107	C	1.073880	-0.303038	-0.303292
C108	C	1.573880	0.196962	0.196708
C109	C	1.143848	-0.303025	-0.303299
C110	C	1.643848	0.196975	0.196701
C111	C	0.909742	-0.303055	-0.467464
C112	C	1.409742	0.196945	0.032536
C113	C	0.909764	-0.303049	-0.537432
C114	C	1.409764	0.196951	-0.037432
C115	C	0.909787	-0.138878	-0.303319
C116	C	1.409787	0.361122	0.196681
C117	C	0.909829	-0.068909	-0.303339
C118	C	1.409829	0.431091	0.196661
C119	C	0.950048	-0.262778	-0.570315
C120	C	1.450048	0.237222	-0.070315
C121	C	0.950047	-0.262751	-0.636058
C122	C	1.450047	0.237249	-0.136058
C123	C	0.909769	-0.303006	-0.668915
C124	C	1.409769	0.196994	-0.168915
C125	C	0.869477	-0.343279	-0.636023
C126	C	1.369477	0.156721	-0.136023
C127	C	0.869475	-0.343301	-0.570282
C128	C	1.369475	0.156699	-0.070282
N129	N	0.904913	-0.358075	-0.772131
N130	N	1.404913	0.141925	-0.272131
N131	N	0.904919	-0.358052	-0.834582
N132	N	1.404919	0.141948	-0.334582
C133	C	0.909773	-0.302942	-0.866989
C134	C	1.409773	0.197058	-0.366989
N135	N	0.914633	-0.247853	-0.834586
N136	N	1.414633	0.252147	-0.334586
N137	N	0.914630	-0.247876	-0.772128
N138	N	1.414630	0.252124	-0.272128
C139	C	0.909767	-0.302986	-0.740200
C140	C	1.409767	0.197014	-0.240200
C141	C	0.950058	-0.262638	-0.971158
C142	C	1.450058	0.237362	-0.471158
C143	C	0.950052	-0.262610	-1.036902
C144	C	1.450052	0.237390	-0.536902
C145	C	0.869486	-0.343143	-1.036866
C146	C	1.369486	0.156857	-0.536866
C147	C	0.869488	-0.343166	-0.971124
C148	C	1.369488	0.156834	-0.471124
C149	C	0.909777	-0.302914	-0.938274
C150	C	1.409777	0.197086	-0.438274
C151	C	0.909674	-0.303036	-0.139722
C152	C	1.409674	0.196964	0.360278
C153	C	0.909773	-0.302864	-0.069754
C154	C	1.409773	0.197136	0.430246
H155	H	0.550903	-0.230172	-0.376445
H156	H	1.050903	0.269828	0.123555
H157	H	0.550685	-0.376030	-0.230098
H158	H	1.050685	0.123970	0.269902
H159	H	0.982849	-0.229954	-0.662837
H160	H	1.482849	0.270046	-0.162837
H161	H	0.269329	-0.230121	-0.376469
H162	H	0.769329	0.269879	0.123531
N163	N	0.991036	-0.668642	-0.384709
N164	N	1.491036	-0.168642	0.115291
N165	N	1.031171	-0.705288	-0.362592
N166	N	1.531171	-0.205288	0.137408
H167	H	1.060220	-0.728956	-0.391652
H168	H	1.560220	-0.228956	0.108348
H169	H	0.269114	-0.375982	-0.230117
H170	H	0.769114	0.124018	0.269883
N171	N	0.828340	-0.384297	-0.937523
N172	N	1.328340	0.115703	-0.437523
N173	N	0.788240	-0.362165	-0.900825
N174	N	1.288240	0.137835	-0.400825
H175	H	0.759175	-0.391213	-0.877093
H176	H	1.259175	0.108787	-0.377093
N177	N	0.991202	-0.221509	-0.937607
N178	N	1.491202	0.278491	-0.437607
N179	N	0.987056	-0.163422	-0.944949
N180	N	1.487056	0.336578	-0.444949
H181	H	1.016113	-0.134373	-0.921255
H182	H	1.516113	0.365627	-0.421255
N183	N	0.990983	-0.535756	-0.384699
N184	N	1.490983	-0.035756	0.115301
N185	N	1.026919	-0.565054	-0.420675
N186	N	1.526919	-0.065054	0.079325
H187	H	1.055946	-0.541302	-0.449743
H188	H	1.555946	-0.041302	0.050257
N189	N	0.143274	-0.221763	-0.384836
N190	N	0.643274	0.278237	0.115164
N191	N	0.150642	-0.226026	-0.442913
N192	N	0.650642	0.273974	0.057087
H193	H	0.126983	-0.197019	-0.472019
H194	H	0.626983	0.302981	0.027981
N195	N	0.828442	-0.936847	-0.221866
N196	N	1.328442	-0.436847	0.278134
N197	N	0.828420	-0.878150	-0.221867
N198	N	1.328420	-0.378150	0.278133
H199	H	0.799380	-0.854477	-0.192801
H200	H	1.299380	-0.354477	0.307199
H201	H	0.149847	-0.375959	-0.230127
H202	H	0.649847	0.124041	0.269873
N203	N	0.677006	-0.221879	-0.384794
N204	N	1.177006	0.278121	0.115206
N205	N	0.713693	-0.244092	-0.424860
N206	N	1.213693	0.255908	0.075140
H207	H	0.737457	-0.215101	-0.453953
H208	H	1.237457	0.284899	0.046047
N209	N	0.828334	-0.384440	-0.536680
N210	N	1.328334	0.115560	-0.036680
N211	N	0.828340	-0.384456	-0.477983
N212	N	1.328340	0.115544	0.022017
H213	H	0.799284	-0.413511	-0.454248
H214	H	1.299284	0.086489	0.045752
H215	H	0.836674	-0.662088	-0.230168
H216	H	1.336674	-0.162088	0.269832
H217	H	0.836621	-0.542817	-0.230148
H218	H	1.336621	-0.042817	0.269852
H219	H	0.982855	-0.229813	-1.063675
H220	H	1.482855	0.270187	-0.563675
N221	N	0.676749	-0.384383	-0.221717
N222	N	1.176749	0.115617	0.278283
N223	N	0.647342	-0.420263	-0.185709
N224	N	1.147342	0.079737	0.314291
H225	H	0.671005	-0.449268	-0.156604
H226	H	1.171005	0.050732	0.343396
H227	H	0.982793	-0.943413	-0.376419
H228	H	1.482793	-0.443413	0.123581
H229	H	0.982829	-1.062677	-0.376445
H230	H	1.482829	-0.562677	0.123555
N231	N	0.828485	-1.069756	-0.221889
N232	N	1.328485	-0.569756	0.278111
N233	N	0.828510	-1.128453	-0.221905
N234	N	1.328510	-0.628453	0.278095
H235	H	0.799488	-1.152222	-0.192846
H236	H	1.299488	-0.652222	0.307154
H237	H	0.982853	-0.230001	-0.543573
H238	H	1.482853	0.269999	-0.043573
H239	H	0.836681	-0.376052	-0.662779
H240	H	1.336681	0.123948	-0.162779
N241	N	0.828340	-0.384253	-1.070430
N242	N	1.328340	0.115747	-0.570430
N243	N	0.828344	-0.384226	-1.129127
N244	N	1.328344	0.115774	-0.629127
H245	H	0.799282	-0.413259	-1.152835
H246	H	1.299282	0.086741	-0.652835
