data_functionalizedCrystal
_audit_creation_method	'MofGen! by Chris Wilmer'
_symmetry_space_group_name_H-M	'P1'
_symmetry_Int_Tables_number	1
_symmetry_cell_setting	triclinic
loop_
_symmetry_equiv_pos_as_xyz
  x,y,z
_cell_length_a	10.654556
_cell_length_b	10.654551
_cell_length_c	9.730223
_cell_angle_alpha	89.997362
_cell_angle_beta	89.998368
_cell_angle_gamma	84.486483
loop_
_atom_site_label
_atom_site_type_symbol
_atom_site_fract_x
_atom_site_fract_y
_atom_site_fract_z
O1	O	1.667835	0.176437	-0.114232
O2	O	1.302358	0.193234	-0.114246
O3	O	1.493499	0.002097	-0.114236
O4	O	1.476694	0.367574	-0.114242
O5	O	1.493486	0.002091	0.114344
O6	O	1.302345	0.193229	0.114334
O7	O	1.667823	0.176431	0.114348
Zn8	Zn	1.485082	0.184829	0.150633
Zn9	Zn	1.485098	0.184836	-0.150531
O10	O	1.476682	0.367569	0.114338
C11	C	1.255554	0.191997	0.000042
C12	C	1.116111	0.188302	0.000037
C13	C	0.919572	0.183102	-0.124551
C14	C	1.050595	0.186566	-0.124560
C15	C	1.050600	0.186560	0.124651
C16	C	0.919581	0.183087	0.124658
C17	C	1.492258	-0.044704	0.000052
C18	C	1.488566	-0.184147	0.000046
C19	C	1.486839	-0.249648	-0.124555
C20	C	1.483359	-0.380669	-0.124556
C21	C	1.483337	-0.380676	0.124654
C22	C	1.486808	-0.249657	0.124654
C23	C	1.714627	0.177669	0.000057
C24	C	1.854070	0.181364	0.000053
C25	C	1.477922	0.414370	0.000047
C26	C	1.481615	0.553813	0.000044
N27	N	1.485080	0.184824	0.356169
N28	N	1.485110	0.184832	-0.356067
C29	C	1.569746	0.100224	0.428100
C30	C	1.569759	0.100225	0.571983
C31	C	1.400435	0.269436	0.571992
C32	C	1.400417	0.269428	0.428112
H33	H	1.103954	0.187965	0.226100
H34	H	1.488267	-0.196314	-0.226019
H35	H	1.481951	-0.433994	-0.226018
C36	C	1.481409	-0.452750	0.261717
N37	N	1.479959	-0.507035	0.364955
H38	H	0.866247	0.181671	0.226132
H39	H	1.103921	0.187979	-0.226025
C40	C	1.488706	-0.177602	0.261731
N41	N	1.490132	-0.123329	0.364974
C42	C	1.307308	0.362493	0.651142
N43	N	1.237163	0.432585	0.710757
H44	H	1.638682	0.031332	0.369528
H45	H	1.638700	0.031334	0.630545
C46	C	1.307331	0.362557	0.348984
N47	N	1.237240	0.432718	0.289384
H48	H	0.866237	0.181698	-0.226013
