data_functionalizedCrystal
_audit_creation_method	'MofGen! by Chris Wilmer'
_symmetry_space_group_name_H-M	'P1'
_symmetry_Int_Tables_number	1
_symmetry_cell_setting	triclinic
loop_
_symmetry_equiv_pos_as_xyz
  x,y,z
_cell_length_a	9.130307
_cell_length_b	11.026607
_cell_length_c	11.026607
_cell_angle_alpha	108.586017
_cell_angle_beta	89.996706
_cell_angle_gamma	89.999977
loop_
_atom_site_label
_atom_site_type_symbol
_atom_site_fract_x
_atom_site_fract_y
_atom_site_fract_z
O1	O	0.121796	-1.726727	-0.533623
O2	O	0.621796	-1.226727	-0.033623
O3	O	0.121798	-1.360147	-0.472859
O4	O	0.621798	-0.860147	0.027141
O5	O	0.121792	-1.513055	-0.319951
O6	O	0.621792	-1.013055	0.180049
O7	O	0.121802	-1.573818	-0.686531
O8	O	0.621802	-1.073818	-0.186531
O9	O	-0.121807	-1.513050	-0.319943
O10	O	0.378193	-1.013050	0.180057
O11	O	-0.121801	-1.360142	-0.472851
O12	O	0.378199	-0.860142	0.027149
O13	O	-0.121803	-1.726722	-0.533615
O14	O	0.378197	-1.226722	-0.033615
Cu15	Cu	-0.144045	-1.543432	-0.503232
Cu16	Cu	0.355955	-1.043432	-0.003232
Cu17	Cu	0.144040	-1.543437	-0.503242
Cu18	Cu	0.644040	-1.043437	-0.003242
O19	O	-0.121797	-1.573814	-0.686523
O20	O	0.378203	-1.073814	-0.186523
C21	C	-0.000001	-1.312485	-0.461645
C22	C	0.499999	-0.812485	0.038355
C23	C	-0.000000	-1.170471	-0.428228
C24	C	0.500000	-0.670471	0.071772
N25	N	-0.346667	-1.543437	-0.503227
N26	N	0.153333	-1.043437	-0.003227
N27	N	0.346662	-1.543440	-0.503239
N28	N	0.846662	-1.043440	-0.003239
C29	C	0.346647	-1.679249	-0.368233
C30	C	0.846647	-1.179249	0.131767
C31	C	0.423306	-1.747148	-0.300720
C32	C	0.923306	-1.247148	0.199280
C33	C	0.576639	-1.747144	-0.300706
C34	C	1.076639	-1.247144	0.199294
C35	C	0.653317	-1.679238	-0.368215
C36	C	1.153317	-1.179238	0.131785
C37	C	0.576658	-1.611339	-0.435728
C38	C	1.076658	-1.111339	0.064272
C39	C	0.423321	-1.611347	-0.435732
C40	C	0.923321	-1.111347	0.064268
C41	C	0.576674	-1.475538	-0.570740
C42	C	1.076674	-0.975538	-0.070740
C43	C	0.423340	-1.475533	-0.570748
C44	C	0.923340	-0.975533	-0.070748
C45	C	0.653352	-1.407632	-0.638249
C46	C	1.153352	-0.907632	-0.138249
C47	C	0.576693	-1.339724	-0.705756
C48	C	1.076693	-0.839724	-0.205756
C49	C	0.423350	-1.339730	-0.705767
C50	C	0.923350	-0.839730	-0.205767
C51	C	0.346681	-1.407634	-0.638261
C52	C	0.846681	-0.907634	-0.138261
C53	C	-0.000006	-1.501843	-0.272287
C54	C	0.499994	-1.001843	0.227713
C55	C	-0.000000	-1.468426	-0.130273
C56	C	0.500000	-0.968426	0.369727
C57	C	-0.000001	-1.774384	-0.544828
C58	C	0.499999	-1.274384	-0.044828
C59	C	0.000008	-1.916398	-0.578245
C60	C	0.500008	-1.416398	-0.078245
C61	C	0.000003	-1.116821	-0.520498
C62	C	0.500003	-0.616821	-0.020498
C63	C	0.000004	-0.970043	-0.485962
C64	C	0.500004	-0.470043	0.014038
C65	C	0.000004	-1.585026	-0.734187
C66	C	0.500004	-1.085026	-0.234187
C67	C	0.000008	-1.618443	-0.876200
C68	C	0.500008	-1.118443	-0.376200
C69	C	0.000001	-1.560695	-0.076624
C70	C	0.500001	-1.060695	0.423376
C71	C	0.000007	-1.526160	0.070155
C72	C	0.500007	-1.026160	0.570155
H73	H	0.221795	-1.679246	-0.368225
H74	H	0.721795	-1.179246	0.131775
H75	H	-0.000002	-1.179555	-0.625061
H76	H	0.499998	-0.679555	-0.125061
H77	H	0.000010	-1.363863	-0.067540
H78	H	0.500010	-0.863863	0.432460
H79	H	0.778169	-1.679252	-0.368212
H80	H	1.278169	-1.179252	0.131788
F81	F	-0.000009	-0.888056	-0.349281
F82	F	0.499991	-0.388056	0.150719
F83	F	-0.000006	-0.998382	-0.714928
F84	F	0.499994	-0.498382	-0.214928
F85	F	0.000021	-1.389478	0.152141
F86	F	0.500021	-0.889478	0.652141
F87	F	-0.000014	-1.088480	-0.291554
F88	F	0.499986	-0.588480	0.208446
F89	F	0.816543	-1.407635	-0.638241
F90	F	1.316543	-0.907635	-0.138241
F91	F	0.183490	-1.407640	-0.638260
F92	F	0.683490	-0.907640	-0.138260
H93	H	0.639055	-1.802439	-0.245737
H94	H	1.139055	-1.302439	0.254263
F95	F	0.341693	-1.819421	-0.228880
F96	F	0.841693	-1.319421	0.271120
F97	F	0.000014	-1.755125	0.041816
F98	F	0.500014	-1.255125	0.541816
F99	F	0.658304	-1.267470	-0.777605
F100	F	1.158304	-0.767470	-0.277605
H101	H	-0.000009	-1.665258	-0.139357
H102	H	0.499991	-1.165258	0.360643
H103	H	0.360942	-1.284444	-0.760750
H104	H	0.860942	-0.784444	-0.260750
