data_functionalizedCrystal
_audit_creation_method	'MofGen! by Chris Wilmer'
_symmetry_space_group_name_H-M	'P1'
_symmetry_Int_Tables_number	1
_symmetry_cell_setting	triclinic
loop_
_symmetry_equiv_pos_as_xyz
  x,y,z
_cell_length_a	11.792241
_cell_length_b	11.792241
_cell_length_c	16.176319
_cell_angle_alpha	90.003580
_cell_angle_beta	90.001784
_cell_angle_gamma	84.193416
loop_
_atom_site_label
_atom_site_type_symbol
_atom_site_fract_x
_atom_site_fract_y
_atom_site_fract_z
O1	O	1.506911	0.155565	0.068667
O2	O	1.176570	0.171598	0.068686
O3	O	1.349757	-0.001589	0.068670
O4	O	1.333724	0.328752	0.068683
O5	O	1.349737	-0.001589	-0.068823
O6	O	1.176550	0.171598	-0.068807
O7	O	1.506891	0.155565	-0.068827
Cu8	Cu	1.341719	0.163581	-0.081371
Cu9	Cu	1.341743	0.163582	0.081230
O10	O	1.333704	0.328752	-0.068811
C11	C	1.134269	0.170591	-0.000058
C12	C	1.008255	0.167576	-0.000051
C13	C	0.777543	0.162034	-0.000075
C14	C	0.905928	0.165113	-0.000062
C15	C	1.348740	-0.043880	-0.000076
C16	C	1.345726	-0.169894	-0.000075
C17	C	1.340183	-0.400606	-0.000061
C18	C	1.343262	-0.272221	-0.000069
C19	C	1.549192	0.156572	-0.000081
C20	C	1.675206	0.159587	-0.000082
C21	C	1.334721	0.371043	-0.000063
C22	C	1.337736	0.497057	-0.000058
N23	N	1.341710	0.163580	-0.195736
C24	C	1.410966	0.232886	-0.238998
C25	C	1.410978	0.232882	-0.325546
C26	C	1.341727	0.163577	-0.368829
C27	C	1.272469	0.094263	-0.325561
C28	C	1.272463	0.094262	-0.239015
C29	C	1.272490	0.094264	-0.674589
C30	C	1.272498	0.094273	-0.761141
C31	C	1.411004	0.232884	-0.761119
C32	C	1.410999	0.232883	-0.674574
C33	C	1.341745	0.163565	-0.631313
C34	C	1.341734	0.163569	-0.537469
C35	C	1.341731	0.163578	-0.462672
N36	N	1.341760	0.163574	0.195596
H37	H	1.467375	0.289316	-0.360766
C38	C	1.135542	-0.042744	-0.247724
C39	C	1.196330	0.018084	-0.191458
H40	H	1.088538	-0.089771	-0.218363
H41	H	1.187492	-0.088899	-0.281478
H42	H	1.089357	0.009190	-0.281480
H43	H	1.242523	-0.033851	-0.157705
H44	H	1.144374	0.064242	-0.157690
H45	H	1.216103	0.037833	-0.796380
H46	H	1.467351	0.289329	-0.203763
H47	H	1.467397	0.289323	-0.796352
C48	C	1.210901	0.032777	-0.458235
C49	C	1.196342	0.018081	-0.373133
H50	H	1.163893	-0.014249	-0.487600
H51	H	1.288413	0.012244	-0.472443
H52	H	1.190249	0.110304	-0.472376
H53	H	1.217002	-0.059444	-0.358991
H54	H	1.118813	0.038608	-0.358919
H55	H	1.216100	0.037821	-0.639377
C56	C	1.547923	0.369889	-0.683248
C57	C	1.487125	0.309061	-0.626998
H58	H	1.594928	0.416910	-0.653875
H59	H	1.495980	0.416051	-0.717001
H60	H	1.594109	0.317956	-0.717007
H61	H	1.440932	0.360995	-0.593242
H62	H	1.539075	0.262896	-0.593231
