data_functionalizedCrystal
_audit_creation_method	'MofGen! by Chris Wilmer'
_symmetry_space_group_name_H-M	'P1'
_symmetry_Int_Tables_number	1
_symmetry_cell_setting	triclinic
loop_
_symmetry_equiv_pos_as_xyz
  x,y,z
_cell_length_a	8.497365
_cell_length_b	10.686285
_cell_length_c	10.686220
_cell_angle_alpha	89.654569
_cell_angle_beta	85.661520
_cell_angle_gamma	85.581624
loop_
_atom_site_label
_atom_site_type_symbol
_atom_site_fract_x
_atom_site_fract_y
_atom_site_fract_z
Zn1	Zn	-0.670953	-0.351837	-1.956275
Zn2	Zn	-0.337620	-0.018504	-1.622942
Zn3	Zn	-0.004287	0.314830	-1.289609
Zn4	Zn	-0.385539	-0.561733	-1.972227
Zn5	Zn	-0.052206	-0.228400	-1.638894
Zn6	Zn	0.281127	0.104933	-1.305560
Zn7	Zn	-0.425716	-0.368084	-1.746466
Zn8	Zn	-0.092383	-0.034751	-1.413133
Zn9	Zn	0.240950	0.298583	-1.079799
Zn10	Zn	-0.667821	-0.577660	-1.762600
Zn11	Zn	-0.334487	-0.244326	-1.429267
Zn12	Zn	-0.001154	0.089007	-1.095933
O13	O	-0.537507	-0.464829	-1.859392
O14	O	-0.204174	-0.131495	-1.526059
O15	O	0.129159	0.201838	-1.192725
O16	O	-0.617589	-0.366216	-2.133927
O17	O	-0.284256	-0.032882	-1.800593
O18	O	0.049077	0.300451	-1.467260
O19	O	-0.170101	-0.536179	-1.942203
O20	O	0.163233	-0.202846	-1.608870
O21	O	0.496566	0.130487	-1.275536
O22	O	-0.476373	-0.190379	-1.760870
O23	O	-0.143039	0.142955	-1.427536
O24	O	0.190294	0.476288	-1.094203
O25	O	-0.407897	-0.520425	-2.145646
O26	O	-0.074564	-0.187092	-1.812313
O27	O	0.258770	0.146241	-1.478980
O28	O	-0.656547	-0.178442	-1.915016
O29	O	-0.323214	0.154891	-1.581682
O30	O	0.010120	0.488225	-1.248349
O31	O	-0.199619	-0.393906	-1.776337
O32	O	0.133715	-0.060573	-1.443004
O33	O	0.467048	0.272760	-1.109671
O34	O	-0.473335	-0.409350	-1.573071
O35	O	-0.140002	-0.076016	-1.239738
O36	O	0.193332	0.257317	-0.906404
O37	O	-0.889004	-0.547570	-1.788368
O38	O	-0.555671	-0.214236	-1.455034
O39	O	-0.222338	0.119097	-1.121701
O40	O	-0.651208	-0.563324	-1.584924
O41	O	-0.317875	-0.229990	-1.251591
O42	O	0.015458	0.103343	-0.918258
O43	O	-0.891306	-0.381659	-1.930660
O44	O	-0.557973	-0.048325	-1.597327
O45	O	-0.224639	0.285008	-1.263993
O46	O	-0.404860	-0.739396	-1.957847
O47	O	-0.071526	-0.406063	-1.624514
O48	O	0.261807	-0.072730	-1.291181
O49	O	-0.612250	-0.751097	-1.803835
O50	O	-0.278917	-0.417764	-1.470502
O51	O	0.054416	-0.084431	-1.137169
C52	C	-0.503887	-0.790762	-1.884357
C53	C	-0.170553	-0.457429	-1.551024
C54	C	0.162780	-0.124096	-1.217691
C55	C	-0.489546	-0.930189	-1.895152
C56	C	-0.156213	-0.596856	-1.561819
C57	C	0.177120	-0.263523	-1.228486
C58	C	-0.566292	-0.489829	-1.533483
C59	C	-0.232959	-0.156496	-1.200150
C60	C	0.100374	0.176838	-0.866817
C61	C	-0.578641	-0.500554	-1.394060
C62	C	-0.245308	-0.167221	-1.060727
C63	C	0.088026	0.166112	-0.727394
C64	C	-0.127621	-0.464972	-1.859312
C65	C	0.205712	-0.131639	-1.525979
C66	C	0.539045	0.201694	-1.192645
C67	C	0.051011	-0.464701	-1.859471
C68	C	0.384345	-0.131368	-1.526138
C69	C	0.717678	0.201966	-1.192804
C70	C	-0.508611	-0.439732	-2.186573
C71	C	-0.175278	-0.106398	-1.853240
C72	C	0.158056	0.226935	-1.519907
C73	C	-0.496297	-0.429037	-2.325999
C74	C	-0.162964	-0.095703	-1.992665
C75	C	0.170370	0.237630	-1.659332
C76	C	-0.571291	-0.137619	-1.834364
C77	C	-0.237958	0.195714	-1.501030
C78	C	0.095376	0.529047	-1.167697
C79	C	-0.585687	0.001818	-1.823698
C80	C	-0.252354	0.335151	-1.490365
C81	C	0.080979	0.668484	-1.157031
H82	H	-0.678971	-0.949729	-1.754265
H83	H	-0.345638	-0.616396	-1.420932
H84	H	-0.012305	-0.283062	-1.087599
H85	H	-0.416350	-0.359603	-1.374391
H86	H	-0.083017	-0.026270	-1.041057
H87	H	0.250317	0.307064	-0.707724
O88	O	-0.684454	-0.592641	-1.330027
O89	O	-0.351121	-0.259307	-0.996694
O90	O	-0.017787	0.074026	-0.663361
H91	H	-0.808340	-0.569375	-1.353527
H92	H	-0.475006	-0.236042	-1.020194
H93	H	-0.141673	0.097292	-0.686861
H94	H	-0.396247	-0.978651	-1.964581
H95	H	-0.062914	-0.645317	-1.631247
H96	H	0.270420	-0.311984	-1.297914
