data_functionalizedCrystal
_audit_creation_method	'MofGen! by Chris Wilmer'
_symmetry_space_group_name_H-M	'P1'
_symmetry_Int_Tables_number	1
_symmetry_cell_setting	triclinic
loop_
_symmetry_equiv_pos_as_xyz
  x,y,z
_cell_length_a	12.594517
_cell_length_b	21.295417
_cell_length_c	12.594509
_cell_angle_alpha	89.963755
_cell_angle_beta	89.978673
_cell_angle_gamma	90.030306
loop_
_atom_site_label
_atom_site_type_symbol
_atom_site_fract_x
_atom_site_fract_y
_atom_site_fract_z
Zn1	Zn	1.627160	-0.250594	-0.601801
Zn2	Zn	2.127160	0.249406	-0.101801
Zn3	Zn	1.627006	-0.355872	-0.423797
Zn4	Zn	2.127006	0.144128	0.076203
Zn5	Zn	1.449164	-0.250621	-0.423830
Zn6	Zn	1.949164	0.249379	0.076170
Zn7	Zn	1.449101	-0.355829	-0.601727
Zn8	Zn	1.949101	0.144171	-0.101727
O9	O	1.538108	-0.303229	-0.512789
O10	O	2.038108	0.196771	-0.012789
O11	O	1.776085	-0.264566	-0.578205
O12	O	2.276085	0.235434	-0.078205
O13	O	1.603377	-0.341940	-0.274856
O14	O	2.103377	0.158060	0.225144
O15	O	1.472866	-0.162528	-0.447482
O16	O	1.972866	0.337472	0.052518
O17	O	1.775972	-0.341914	-0.447427
O18	O	2.275972	0.158086	0.052573
O19	O	1.603639	-0.162508	-0.578237
O20	O	2.103639	0.337492	-0.078237
O21	O	1.472717	-0.264612	-0.274879
O22	O	1.972717	0.235388	0.225121
O23	O	1.300210	-0.264570	-0.447411
O24	O	1.800210	0.235430	0.052589
O25	O	1.472759	-0.341839	-0.750683
O26	O	1.972759	0.158161	-0.250683
O27	O	1.300164	-0.341865	-0.578112
O28	O	1.800164	0.158135	-0.078112
O29	O	1.603578	-0.264524	-0.750737
O30	O	2.103578	0.235476	-0.250737
O31	O	1.603316	-0.443956	-0.447356
O32	O	2.103316	0.056044	0.052644
O33	O	1.472610	-0.443924	-0.578080
O34	O	1.972610	0.056076	-0.078080
C35	C	1.261567	-0.303216	-0.512757
C36	C	1.761567	0.196784	-0.012757
C37	C	1.143261	-0.303226	-0.512769
C38	C	1.643261	0.196774	-0.012769
C39	C	1.074002	-0.261127	-0.441817
C40	C	1.574002	0.238873	0.058183
C41	C	1.003167	-0.318547	-0.415623
C42	C	1.503167	0.181453	0.084377
C43	C	1.003298	-0.245834	-0.538981
C44	C	1.503298	0.254166	-0.038981
C45	C	1.073984	-0.360676	-0.486525
C46	C	1.573984	0.139324	0.013475
C47	C	1.074121	-0.287924	-0.609928
C48	C	1.574121	0.212076	-0.109928
C49	C	1.003318	-0.345384	-0.583771
C50	C	1.503318	0.154616	-0.083771
C51	C	1.537968	-0.466780	-0.512730
C52	C	2.037968	0.033220	-0.012730
C53	C	1.538006	-0.536748	-0.512740
C54	C	2.038006	-0.036748	-0.012740
C55	C	1.606125	-0.569611	-0.444742
C56	C	2.106125	-0.069611	0.055258
C57	C	1.606175	-0.635353	-0.444766
C58	C	2.106175	-0.135353	0.055234
C59	C	1.538087	-0.668231	-0.512777
C60	C	2.038087	-0.168231	-0.012777
C61	C	1.469963	-0.635361	-0.580789
C62	C	1.969963	-0.135361	-0.080789
C63	C	1.469923	-0.569619	-0.580770
C64	C	1.969923	-0.069619	-0.080770
N65	N	1.444976	-0.771496	-0.520881
N66	N	1.944976	-0.271496	-0.020881
N67	N	1.445018	-0.833948	-0.520892
N68	N	1.945018	-0.333948	-0.020892
C69	C	1.538206	-0.866306	-0.512838
C70	C	2.038206	-0.366306	-0.012838
N71	N	1.631353	-0.833853	-0.504752
N72	N	2.131353	-0.333853	-0.004752
N73	N	1.631311	-0.771396	-0.504735
N74	N	2.131311	-0.271396	-0.004735
C75	C	1.538123	-0.739516	-0.512805
C76	C	2.038123	-0.239516	-0.012805
C77	C	1.606385	-0.970454	-0.444862
C78	C	2.106385	-0.470454	0.055138
C79	C	1.606436	-1.036197	-0.444893
C80	C	2.106436	-0.536197	0.055107
C81	C	1.470215	-1.036203	-0.580910
C82	C	1.970215	-0.536203	-0.080910
C83	C	1.470173	-0.970461	-0.580885
C84	C	1.970173	-0.470461	-0.080885
C85	C	1.538256	-0.937590	-0.512855
C86	C	2.038256	-0.437590	-0.012855
C87	C	1.815729	-0.303242	-0.512821
C88	C	2.315729	0.196758	-0.012821
C89	C	1.934034	-0.303247	-0.512835
C90	C	2.434034	0.196753	-0.012835
C91	C	1.538179	-0.303174	-0.790410
C92	C	2.038179	0.196826	-0.290410
C93	C	1.538209	-0.303150	-0.908715
C94	C	2.038209	0.196850	-0.408715
C95	C	1.538277	-0.139038	-0.512871
C96	C	2.038277	0.360962	-0.012871
C97	C	1.538349	-0.069070	-0.512906
C98	C	2.038349	0.430930	-0.012906
C99	C	1.467079	-0.345178	-0.977939
C100	C	1.967079	0.154822	-0.477939
C101	C	1.564193	-0.360559	-1.048726
C102	C	2.064193	0.139441	-0.548726
C103	C	1.441171	-0.287731	-1.048728
C104	C	1.941171	0.212269	-0.548728
C105	C	1.635374	-0.318561	-0.977944
C106	C	2.135374	0.181439	-0.477944
C107	C	1.512287	-0.245707	-0.977939
C108	C	2.012287	0.254293	-0.477939
C109	C	1.609468	-0.261066	-1.048694
C110	C	2.109468	0.238934	-0.548694
C111	C	1.538098	-0.303238	-0.236248
C112	C	2.038098	0.196762	0.263752
C113	C	1.538274	-0.303084	-0.117943
C114	C	2.038274	0.196916	0.382057
H115	H	0.972003	-0.331503	-0.333486
H116	H	1.472003	0.168497	0.166514
H117	H	1.661649	-0.662115	-0.389393
H118	H	2.161649	-0.162115	0.110607
H119	H	1.414527	-0.662134	-0.636166
H120	H	1.914527	-0.162134	-0.136166
C121	C	1.330270	-0.270147	-1.090727
C122	C	1.830270	0.229853	-0.590727
N123	N	1.246736	-0.256907	-1.122356
N124	N	1.746736	0.243093	-0.622356
C125	C	1.746306	-0.336223	-0.936119
C126	C	2.246306	0.163777	-0.436119
N127	N	1.829857	-0.349528	-0.904614
N128	N	2.329857	0.150472	-0.404614
H129	H	1.661826	-0.943689	-0.389471
H130	H	2.161826	-0.443689	0.110529
C131	C	1.593859	-0.426147	-1.090738
C132	C	2.093859	0.073853	-0.590738
N133	N	1.616196	-0.475550	-1.122379
N134	N	2.116196	0.024450	-0.622379
H135	H	1.669717	-0.225496	-1.079565
H136	H	2.169717	0.274504	-0.579565
H137	H	0.972477	-0.381035	-0.643801
H138	H	1.472477	0.118965	-0.143801
C139	C	0.961354	-0.180252	-0.568900
C140	C	1.461354	0.319748	-0.068900
N141	N	0.929767	-0.130854	-0.591428
N142	N	1.429767	0.369146	-0.091428
C143	C	1.116269	-0.270394	-0.720855
C144	C	1.616269	0.229606	-0.220855
N145	N	1.148020	-0.257183	-0.804404
N146	N	1.648020	0.242817	-0.304404
H147	H	1.661565	-0.542849	-0.389350
H148	H	2.161565	-0.042849	0.110650
H149	H	1.104905	-0.409235	-0.464291
H150	H	1.604905	0.090765	0.035709
H151	H	1.661914	-1.062953	-0.389523
H152	H	2.161914	-0.562953	0.110477
C153	C	1.394996	-0.533469	-0.655591
C154	C	1.894996	-0.033469	-0.155591
N155	N	1.338565	-0.506240	-0.711951
N156	N	1.838565	-0.006240	-0.211951
H157	H	1.414781	-1.062971	-0.636291
H158	H	1.914781	-0.562971	-0.136291
H159	H	1.414699	-0.943702	-0.636251
H160	H	1.914699	-0.443702	-0.136251
H161	H	1.490297	-0.197170	-0.946822
H162	H	1.990297	0.302830	-0.446822
C163	C	1.115940	-0.213080	-0.360658
C164	C	1.615940	0.286920	0.139342
N165	N	1.147529	-0.176895	-0.299528
N166	N	1.647529	0.323105	0.200472
C167	C	1.385895	-0.393269	-0.935944
C168	C	1.885895	0.106731	-0.435944
N169	N	1.324757	-0.429493	-0.904304
N170	N	1.824757	0.070507	-0.404304
