data_functionalizedCrystal
_audit_creation_method	'MofGen! by Chris Wilmer'
_symmetry_space_group_name_H-M	'P1'
_symmetry_Int_Tables_number	1
_symmetry_cell_setting	triclinic
loop_
_symmetry_equiv_pos_as_xyz
  x,y,z
_cell_length_a	14.519709
_cell_length_b	9.065218
_cell_length_c	7.540329
_cell_angle_alpha	89.996962
_cell_angle_beta	89.997398
_cell_angle_gamma	95.651985
loop_
_atom_site_label
_atom_site_type_symbol
_atom_site_fract_x
_atom_site_fract_y
_atom_site_fract_z
O1	O	-0.135225	1.957864	-0.147459
O2	O	0.198108	2.291198	0.185874
O3	O	0.531441	2.624531	0.519208
O4	O	-0.146317	1.528372	-0.147459
O5	O	0.187016	1.861705	0.185874
O6	O	0.520350	2.195038	0.519207
O7	O	-0.006616	1.754505	-0.147475
O8	O	0.326717	2.087839	0.185858
O9	O	0.660051	2.421172	0.519191
O10	O	-0.274926	1.731731	-0.147443
O11	O	0.058407	2.065064	0.185890
O12	O	0.391740	2.398397	0.519224
O13	O	-0.006614	1.754492	0.147490
O14	O	0.326719	2.087825	0.480823
O15	O	0.660052	2.421158	0.814156
O16	O	-0.146315	1.528358	0.147506
O17	O	0.187018	1.861691	0.480839
O18	O	0.520351	2.195025	0.814172
O19	O	-0.135223	1.957851	0.147506
O20	O	0.198110	2.291184	0.480839
O21	O	0.531443	2.624517	0.814173
Cu22	Cu	-0.140769	1.743103	0.174438
Cu23	Cu	0.192564	2.076437	0.507772
Cu24	Cu	0.525897	2.409770	0.841105
Cu25	Cu	-0.140771	1.743119	-0.174392
Cu26	Cu	0.192562	2.076452	0.158941
Cu27	Cu	0.525895	2.409786	0.492275
O28	O	-0.274924	1.731717	0.147522
O29	O	0.058409	2.065050	0.480855
O30	O	0.391742	2.398384	0.814189
C31	C	-0.145250	1.473398	0.000023
C32	C	0.188083	1.806732	0.333356
C33	C	0.521416	2.140065	0.666689
C34	C	-0.142063	1.309615	0.000021
C35	C	0.191271	1.642948	0.333355
C36	C	0.524604	1.976282	0.666688
C37	C	-0.309293	1.732785	0.000043
C38	C	0.024040	2.066119	0.333377
C39	C	0.357374	2.399452	0.666710
C40	C	-0.411697	1.735966	0.000055
C41	C	-0.078364	2.069299	0.333389
C42	C	0.254969	2.402632	0.666722
C43	C	-0.786679	1.747675	-0.000015
C44	C	-0.453346	2.081008	0.333318
C45	C	-0.120012	2.414342	0.666652
C46	C	-0.682347	1.744423	0.000005
C47	C	-0.349014	2.077757	0.333339
C48	C	-0.015681	2.411090	0.666672
C49	C	-0.599192	1.741821	0.000022
C50	C	-0.265858	2.075154	0.333355
C51	C	0.067475	2.408487	0.666689
C52	C	-0.494853	1.738568	0.000039
C53	C	-0.161520	2.071902	0.333372
C54	C	0.171814	2.405235	0.666705
C55	C	0.027752	1.753437	-0.000001
C56	C	0.361086	2.086770	0.333333
C57	C	0.694419	2.420104	0.666666
C58	C	0.130157	1.750257	-0.000024
C59	C	0.463490	2.083590	0.333309
C60	C	0.796824	2.416923	0.666642
C61	C	-0.136290	2.012824	0.000020
C62	C	0.197043	2.346157	0.333353
C63	C	0.530376	2.679491	0.666687
C64	C	-0.139478	2.176607	0.000010
C65	C	0.193856	2.509941	0.333343
C66	C	0.527189	2.843274	0.666676
N67	N	-0.140767	1.743103	0.419787
N68	N	0.192566	2.076436	0.753120
N69	N	0.525899	2.409769	1.086454
N70	N	-0.140766	1.743131	-0.419740
N71	N	0.192567	2.076465	-0.086407
N72	N	0.525901	2.409798	0.246926
