data_functionalizedCrystal
_audit_creation_method	'MofGen! by Chris Wilmer'
_symmetry_space_group_name_H-M	'P1'
_symmetry_Int_Tables_number	1
_symmetry_cell_setting	triclinic
loop_
_symmetry_equiv_pos_as_xyz
  x,y,z
_cell_length_a	16.098538
_cell_length_b	16.109301
_cell_length_c	16.109301
_cell_angle_alpha	83.461481
_cell_angle_beta	92.731907
_cell_angle_gamma	87.262155
loop_
_atom_site_label
_atom_site_type_symbol
_atom_site_fract_x
_atom_site_fract_y
_atom_site_fract_z
O1	O	-0.069207	-1.099403	-0.110581
O2	O	0.430793	-0.599403	0.389419
O3	O	-0.069220	-0.857341	-0.123881
O4	O	0.430780	-0.357341	0.376119
O5	O	-0.069205	-0.985022	0.003801
O6	O	0.430795	-0.485022	0.503801
O7	O	-0.069223	-0.971722	-0.238262
O8	O	0.430777	-0.471722	0.261738
O9	O	0.069309	-0.992474	0.011237
O10	O	0.569309	-0.492474	0.511237
O11	O	0.069293	-0.864792	-0.116444
O12	O	0.569293	-0.364792	0.383556
O13	O	0.069307	-1.106855	-0.103144
O14	O	0.569307	-0.606855	0.396856
Zn15	Zn	0.091292	-0.987007	-0.108614
Zn16	Zn	0.591292	-0.487007	0.391386
Zn17	Zn	-0.091206	-0.977189	-0.118411
Zn18	Zn	0.408794	-0.477189	0.381589
O19	O	0.069291	-0.979173	-0.230826
O20	O	0.569291	-0.479173	0.269174
C21	C	0.000035	-0.830091	-0.119624
C22	C	0.500035	-0.330091	0.380376
C23	C	0.000030	-0.737796	-0.118009
C24	C	0.500030	-0.237796	0.381991
N25	N	-0.215756	-0.970489	-0.125092
N26	N	0.284244	-0.470489	0.374908
C27	C	0.000052	-0.988209	0.038494
C28	C	0.500052	-0.488209	0.538494
C29	C	0.000054	-0.986594	0.130789
C30	C	0.500054	-0.486594	0.630789
C31	C	-0.259334	-1.024786	-0.071002
C32	C	0.240666	-0.524786	0.428998
C33	C	-0.346524	-1.020098	-0.075674
C34	C	0.153476	-0.520098	0.424326
C35	C	-0.390133	-0.961107	-0.134432
C36	C	0.109867	-0.461107	0.365568
C37	C	-0.346549	-0.906808	-0.188527
C38	C	0.153451	-0.406808	0.311473
C39	C	-0.259361	-0.911501	-0.183859
C40	C	0.240639	-0.411501	0.316141
C41	C	-0.653385	-0.944107	-0.151353
C42	C	-0.153385	-0.444107	0.348647
C43	C	-0.740579	-0.939416	-0.156016
C44	C	-0.240579	-0.439416	0.343984
C45	C	-0.740548	-1.052707	-0.043163
C46	C	-0.240548	-0.552707	0.456837
C47	C	-0.653359	-1.057392	-0.038497
C48	C	-0.153359	-0.557392	0.461503
C49	C	-0.609782	-1.003095	-0.092595
C50	C	-0.109782	-0.503095	0.407405
C51	C	-0.479255	-0.956312	-0.139207
C52	C	0.020745	-0.456312	0.360793
C53	C	-0.520662	-1.007896	-0.087824
C54	C	-0.020662	-0.507896	0.412176
N55	N	0.215842	-0.993713	-0.101926
N56	N	0.715842	-0.493713	0.398074
C57	C	0.000050	-1.134104	-0.107401
C58	C	0.500050	-0.634104	0.392599
C59	C	0.000049	-1.226399	-0.109016
C60	C	0.500049	-0.726399	0.390984
C61	C	0.000034	-0.515524	-0.190016
C62	C	0.500034	-0.015524	0.309984
C63	C	0.000040	-0.428804	-0.188492
C64	C	0.500040	0.071196	0.311508
C65	C	0.000047	-0.448678	-0.037003
C66	C	0.500047	0.051322	0.462997
C67	C	0.000048	-0.535397	-0.038528
C68	C	0.500048	-0.035397	0.461472
C69	C	0.000037	-0.568817	-0.115037
C70	C	0.500037	-0.068817	0.384963
C71	C	0.000042	-0.395378	-0.111988
C72	C	0.500042	0.104622	0.388012
C73	C	0.000048	-0.301352	-0.110335
C74	C	0.500048	0.198648	0.389665
C75	C	0.000033	-0.662849	-0.116691
C76	C	0.500033	-0.162849	0.383309
C77	C	0.000032	-0.975986	-0.265519
C78	C	0.500032	-0.475986	0.234481
C79	C	0.000026	-0.977601	-0.357815
C80	C	0.500026	-0.477601	0.142185
C81	C	0.000044	-1.058601	0.353061
C82	C	0.500044	-0.558601	0.853061
C83	C	0.000038	-1.057077	0.439781
C84	C	0.500038	-0.557077	0.939781
C85	C	0.000032	-0.905588	0.419907
C86	C	0.500032	-0.405588	0.919907
C87	C	0.000033	-0.907113	0.333188
C88	C	0.500033	-0.407113	0.833188
C89	C	0.000044	-0.983622	0.299768
C90	C	0.500044	-0.483622	0.799768
C91	C	0.000036	-0.980573	0.473207
C92	C	0.500036	-0.480573	0.973207
C93	C	0.000028	-0.978919	0.567232
C94	C	0.500028	-0.478919	1.067232
C95	C	0.000050	-0.985276	0.205736
C96	C	0.500050	-0.485276	0.705736
H97	H	-0.223833	-1.072819	-0.023152
H98	H	0.276167	-0.572819	0.476848
H99	H	-0.776037	-1.096914	0.000880
H100	H	-0.276037	-0.596914	0.500880
H101	H	0.000051	-1.120900	0.325854
H102	H	0.500051	-0.620900	0.825854
Cl103	Cl	0.000020	-0.809410	0.461927
Cl104	Cl	0.500020	-0.309410	0.961927
Cl105	Cl	0.000037	-0.361809	-0.282756
Cl106	Cl	0.500037	0.138191	0.217244
H107	H	0.000036	-1.118132	0.483170
H108	H	0.500036	-0.618132	0.983170
H109	H	-0.514769	-0.908279	-0.187047
H110	H	-0.014769	-0.408279	0.312953
H111	H	0.000030	-0.846052	0.289794
H112	H	0.500030	-0.346052	0.789794
H113	H	-0.776082	-0.891375	-0.203866
H114	H	-0.276082	-0.391375	0.296134
H115	H	-0.382005	-1.064311	-0.031631
H116	H	0.117995	-0.564311	0.468369
H117	H	-0.223880	-0.867288	-0.227906
H118	H	0.276120	-0.367288	0.272094
H119	H	-0.617912	-0.899895	-0.195401
H120	H	-0.117912	-0.399895	0.304599
Cl121	Cl	-0.598535	-1.131551	0.035372
Cl122	Cl	-0.098535	-0.631551	0.535372
Cl123	Cl	0.000058	-0.602400	0.055740
Cl124	Cl	0.500058	-0.102400	0.555740
H125	H	-0.382061	-0.858779	-0.236373
H126	H	0.117939	-0.358779	0.263627
H127	H	-0.485152	-1.055929	-0.039986
H128	H	0.014848	-0.555929	0.460014
H129	H	0.000032	-0.542731	-0.252315
H130	H	0.500032	-0.042731	0.247685
H131	H	0.000061	-0.421457	0.025289
H132	H	0.500061	0.078543	0.525289
