data_functionalizedCrystal
_audit_creation_method	'MofGen! by Chris Wilmer'
_symmetry_space_group_name_H-M	'P1'
_symmetry_Int_Tables_number	1
_symmetry_cell_setting	triclinic
loop_
_symmetry_equiv_pos_as_xyz
  x,y,z
_cell_length_a	10.654550
_cell_length_b	10.540539
_cell_length_c	9.130313
_cell_angle_alpha	89.997616
_cell_angle_beta	89.999724
_cell_angle_gamma	84.505211
loop_
_atom_site_label
_atom_site_type_symbol
_atom_site_fract_x
_atom_site_fract_y
_atom_site_fract_z
O1	O	1.667902	0.178301	-0.121682
O2	O	1.302430	0.195288	-0.121709
O3	O	1.493504	0.002085	-0.121693
O4	O	1.476828	0.371504	-0.121698
O5	O	1.493491	0.002079	0.121906
O6	O	1.302416	0.195282	0.121890
O7	O	1.667889	0.178295	0.121916
Cu8	Cu	1.485152	0.186788	0.144146
Cu9	Cu	1.485167	0.186795	-0.143938
O10	O	1.476815	0.371498	0.121901
C11	C	1.255625	0.194038	0.000087
C12	C	1.116180	0.190306	0.000077
C13	C	1.036735	0.304061	0.000080
C14	C	0.905712	0.300547	0.000105
C15	C	0.933594	0.069513	0.000119
C16	C	1.064614	0.073029	0.000104
C17	C	1.492247	-0.045221	0.000104
C18	C	1.488505	-0.186167	0.000095
C19	C	1.345134	-0.369543	-0.000462
C20	C	1.348927	-0.222926	0.000087
C21	C	1.555669	-0.247852	0.139207
C22	C	1.550905	-0.394395	0.139324
C23	C	1.553759	-0.394908	-0.137693
C24	C	1.555045	-0.247926	-0.139532
C25	C	1.714694	0.179545	0.000117
C26	C	1.854139	0.183277	0.000118
C27	C	1.478072	0.418804	0.000101
C28	C	1.481813	0.559750	0.000099
N29	N	1.485150	0.186783	0.346768
N30	N	1.485179	0.186790	-0.346561
C31	C	1.569786	0.101269	0.423427
C32	C	1.569798	0.101269	0.576764
C33	C	1.400533	0.272308	0.576770
C34	C	1.400516	0.272301	0.423436
H35	H	1.078715	0.399556	0.000069
N36	N	1.145775	-0.043176	0.000131
N37	N	1.140487	-0.120908	0.102827
H38	H	1.197808	-0.202974	0.102855
H39	H	1.296078	-0.180301	-0.099634
N40	N	1.656207	0.013907	0.345090
N41	N	1.656181	0.013906	0.208186
H42	H	1.717214	-0.047798	0.152860
N43	N	1.656255	0.013903	0.655046
N44	N	1.731804	-0.062446	0.586569
H45	H	1.792867	-0.124155	0.641853
N46	N	1.275984	-0.405389	-0.125622
N47	N	1.326622	-0.483472	-0.215870
H48	H	1.277787	-0.508793	-0.304274
N49	N	1.276272	-0.407408	0.124003
N50	N	1.315538	-0.388334	0.250355
H51	H	1.266916	-0.415079	0.338267
N52	N	1.314074	0.359660	0.655068
N53	N	1.197978	0.356819	0.637960
H54	H	1.136913	0.418513	0.693256
N55	N	0.824543	0.416734	0.000101
N56	N	0.707564	0.413584	0.000126
H57	H	0.650236	0.495645	0.000129
H58	H	1.295697	-0.181153	0.099967
H59	H	1.501257	-0.422579	0.243306
N60	N	1.676835	-0.454606	0.147270
N61	N	1.767956	-0.388361	0.152721
H62	H	1.856894	-0.430878	0.158344
H63	H	0.891593	-0.025970	0.000150
N64	N	1.684257	-0.219856	0.145691
N65	N	1.727936	-0.153969	0.047624
H66	H	1.818752	-0.134195	0.052198
H67	H	1.331589	0.341937	0.361016
H68	H	1.508590	-0.426442	-0.243131
N69	N	1.497119	-0.194390	0.269059
N70	N	1.405941	-0.110876	0.259509
H71	H	1.364582	-0.073118	0.351214
H72	H	1.505902	-0.207048	-0.242443
N73	N	1.682706	-0.217579	-0.150037
N74	N	1.759327	-0.250089	-0.050126
H75	H	1.849491	-0.228652	-0.057532
H76	H	1.654576	-0.442170	-0.138622
