data_functionalizedCrystal
_audit_creation_method	'MofGen! by Chris Wilmer'
_symmetry_space_group_name_H-M	'P1'
_symmetry_Int_Tables_number	1
_symmetry_cell_setting	triclinic
loop_
_symmetry_equiv_pos_as_xyz
  x,y,z
_cell_length_a	12.837943
_cell_length_b	14.044220
_cell_length_c	11.295483
_cell_angle_alpha	94.468632
_cell_angle_beta	85.461227
_cell_angle_gamma	94.008909
loop_
_atom_site_label
_atom_site_type_symbol
_atom_site_fract_x
_atom_site_fract_y
_atom_site_fract_z
O1	O	1.404877	0.242691	-0.099010
O2	O	1.101936	0.230415	-0.099017
O3	O	1.248859	0.098158	-0.099002
O4	O	1.257954	0.374947	-0.099025
O5	O	1.235952	0.109755	0.099047
O6	O	1.089030	0.242012	0.099032
O7	O	1.391970	0.254287	0.099039
Cu8	Cu	1.239322	0.249208	0.117119
Cu9	Cu	1.254585	0.235494	-0.117097
O10	O	1.245048	0.386544	0.099024
C11	C	1.056479	0.232067	0.000007
C12	C	0.940259	0.219699	0.000005
C13	C	1.238424	0.068282	0.000023
C14	C	1.226550	-0.038016	0.000024
C15	C	0.713048	0.368378	0.000009
C16	C	0.603848	0.356763	0.000008
C17	C	0.612656	0.184853	0.000010
C18	C	0.721856	0.196469	0.000011
C19	C	0.772048	0.288234	0.000009
C20	C	0.881251	0.299849	0.000002
C21	C	0.890056	0.127940	0.000012
C22	C	0.780856	0.116324	0.000011
C23	C	1.204843	-0.232639	0.000007
C24	C	1.289060	-0.282665	0.000005
C25	C	1.276982	-0.390961	-0.000005
C26	C	1.216919	-0.124334	0.000016
C27	C	1.437428	0.252635	0.000012
C28	C	1.553649	0.265002	0.000007
C29	C	1.255482	0.416420	-0.000004
C30	C	1.267357	0.522717	-0.000013
N31	N	1.228594	0.258854	0.281854
N32	N	1.265320	0.225841	-0.281832
C33	C	1.342540	0.156351	0.531156
C34	C	1.334441	0.163648	0.655818
C35	C	1.204292	0.280740	0.655845
C36	C	1.212391	0.273443	0.531182
C37	C	1.281518	0.211247	0.468842
C38	C	1.289622	0.203956	0.344177
C39	C	1.159469	0.321042	0.344206
C40	C	1.151370	0.328339	0.468869
H41	H	0.753915	0.443098	0.000006
C42	C	1.034256	-0.252901	0.101819
C43	C	1.095265	-0.284604	0.000007
H44	H	0.966606	-0.284987	0.101815
H45	H	1.066661	-0.266329	0.170867
H46	H	1.028110	-0.185888	0.101811
H47	H	1.101418	-0.351617	0.000019
H48	H	1.062852	-0.271184	-0.069059
C49	C	1.417443	0.088940	0.356676
C50	C	1.365600	0.135588	0.275649
H51	H	1.464343	0.046726	0.314370
H52	H	1.455568	0.134986	0.405284
H53	H	1.367576	0.053458	0.405315
H54	H	1.415467	0.171076	0.227016
H55	H	1.327474	0.089535	0.227020
H56	H	0.555814	0.422025	0.000012
H57	H	1.398833	0.105716	0.480397
H58	H	1.148003	0.331371	0.706619
H59	H	0.571765	0.110147	0.000110
C60	C	1.044736	0.393990	-0.000013
C61	C	0.936427	0.400714	-0.000006
H62	H	1.078795	0.456262	-0.000024
H63	H	1.059939	0.364625	0.069047
H64	H	1.068930	0.356533	-0.069082
H65	H	0.912232	0.438165	0.069068
H66	H	0.921217	0.430093	-0.069073
C67	C	0.986181	0.358512	0.305857
C68	C	1.092390	0.381392	0.275707
H69	H	0.944777	0.395776	0.263571
H70	H	0.970262	0.292500	0.285423
H71	H	0.971474	0.371760	0.389026
H72	H	1.107099	0.368137	0.192539
H73	H	1.108316	0.447419	0.296133
C74	C	1.081169	0.391521	0.659981
C75	C	1.075393	0.396707	0.537400
H76	H	1.034269	0.433736	0.702285
H77	H	1.062581	0.327900	0.680410
H78	H	1.150575	0.409428	0.680382
H79	H	1.005989	0.378793	0.516998
H80	H	1.093974	0.460342	0.516963
C81	C	0.924554	-0.009064	0.101818
C82	C	0.954912	0.039837	0.000011
H83	H	0.964590	-0.063456	0.101808
H84	H	0.936150	0.032195	0.170869
H85	H	0.852333	-0.029108	0.101809
H86	H	1.027131	0.059887	0.000025
H87	H	0.943323	-0.001430	-0.069058
H88	H	1.384129	0.118944	0.706551
H89	H	1.370237	-0.244167	-0.000073
C90	C	0.617371	0.022185	0.000005
C91	C	0.725679	0.015459	0.000007
H92	H	0.583312	-0.040088	-0.000008
H93	H	0.593173	0.059628	0.069068
H94	H	0.602176	0.051563	-0.069061
H95	H	0.740876	-0.013913	0.069078
H96	H	0.749886	-0.021999	-0.069063
