data_functionalizedCrystal
_audit_creation_method	'MofGen! by Chris Wilmer'
_symmetry_space_group_name_H-M	'P1'
_symmetry_Int_Tables_number	1
_symmetry_cell_setting	triclinic
loop_
_symmetry_equiv_pos_as_xyz
  x,y,z
_cell_length_a	16.625547
_cell_length_b	25.639239
_cell_length_c	16.625539
_cell_angle_alpha	89.968745
_cell_angle_beta	89.975178
_cell_angle_gamma	90.038623
loop_
_atom_site_label
_atom_site_type_symbol
_atom_site_fract_x
_atom_site_fract_y
_atom_site_fract_z
Zn1	Zn	1.232590	-0.208151	-0.455984
Zn2	Zn	1.732590	0.291849	0.044016
Zn3	Zn	1.232455	-0.295589	-0.321145
Zn4	Zn	1.732455	0.204411	0.178855
Zn5	Zn	1.097751	-0.208169	-0.321155
Zn6	Zn	1.597751	0.291831	0.178845
Zn7	Zn	1.097684	-0.295557	-0.455924
Zn8	Zn	1.597684	0.204443	0.044076
O9	O	1.165120	-0.251866	-0.388552
O10	O	1.665120	0.248134	0.111448
O11	O	1.345404	-0.219755	-0.438118
O12	O	1.845404	0.280245	0.061882
O13	O	1.214558	-0.284013	-0.208313
O14	O	1.714558	0.215987	0.291687
O15	O	1.115723	-0.135001	-0.339070
O16	O	1.615723	0.364999	0.160930
O17	O	1.345305	-0.283995	-0.339052
O18	O	1.845305	0.216005	0.160948
O19	O	1.214788	-0.134988	-0.438128
O20	O	1.714788	0.365012	0.061872
O21	O	1.115592	-0.219786	-0.208321
O22	O	1.615592	0.280214	0.291679
O23	O	0.984910	-0.219755	-0.339012
O24	O	1.484910	0.280245	0.160988
O25	O	1.115607	-0.283941	-0.568765
O26	O	1.615607	0.216059	-0.068765
O27	O	0.984860	-0.283959	-0.438026
O28	O	1.484860	0.216041	0.061974
O29	O	1.214722	-0.219724	-0.568809
O30	O	1.714722	0.280276	-0.068809
O31	O	1.214492	-0.368750	-0.338994
O32	O	1.714492	0.131250	0.161006
O33	O	1.115477	-0.368726	-0.438016
O34	O	1.615477	0.131274	0.061984
C35	C	0.955629	-0.251856	-0.388514
C36	C	1.455629	0.248144	0.111486
C37	C	0.866008	-0.251864	-0.388517
C38	C	1.366008	0.248136	0.111483
C39	C	0.793225	-0.251865	-0.388527
C40	C	1.293225	0.248135	0.111473
C41	C	0.701917	-0.251868	-0.388547
C42	C	1.201917	0.248132	0.111453
C43	C	0.629141	-0.251873	-0.388567
C44	C	1.129141	0.248127	0.111433
C45	C	0.537826	-0.251877	-0.388587
C46	C	1.037826	0.248123	0.111413
C47	C	1.164984	-0.387709	-0.388515
C48	C	1.664984	0.112291	0.111485
C49	C	1.165000	-0.445823	-0.388526
C50	C	1.665000	0.054177	0.111474
C51	C	1.216812	-0.806185	-0.337079
C52	C	1.716812	-0.306185	0.162921
C53	C	1.216843	-0.860790	-0.337090
C54	C	1.716843	-0.360790	0.162910
O55	O	1.260755	-0.889026	-0.293307
O56	O	1.760755	-0.389026	0.206693
N57	N	1.165262	-0.888105	-0.388605
N58	N	1.665262	-0.388105	0.111395
C59	C	1.113651	-0.860814	-0.440119
C60	C	1.613651	-0.360814	0.059881
O61	O	1.069781	-0.889062	-0.483939
O62	O	1.569781	-0.389062	0.016061
C63	C	1.113625	-0.806210	-0.440112
C64	C	1.613625	-0.306210	0.059888
C65	C	1.165204	-0.778898	-0.388587
C66	C	1.665204	-0.278898	0.111413
C67	C	1.268387	-0.778873	-0.285559
C68	C	1.768387	-0.278873	0.214441
C69	C	1.268355	-0.724272	-0.285547
C70	C	1.768355	-0.224272	0.214453
C71	C	1.216747	-0.696984	-0.337056
C72	C	1.716747	-0.196984	0.162944
C73	C	1.165171	-0.724297	-0.388576
C74	C	1.665171	-0.224297	0.111424
C75	C	1.062019	-0.778920	-0.491630
C76	C	1.562019	-0.278920	0.008370
C77	C	1.061997	-0.724313	-0.491618
C78	C	1.561997	-0.224313	0.008382
C79	C	1.113576	-0.697000	-0.440093
C80	C	1.613576	-0.197000	0.059907
C81	C	1.113531	-0.642409	-0.440072
C82	C	1.613531	-0.142409	0.059928
N83	N	1.165112	-0.615093	-0.388557
N84	N	1.665112	-0.115093	0.111443
C85	C	1.216720	-0.642381	-0.337048
C86	C	1.716720	-0.142381	0.162952
C87	C	1.113712	-0.975484	-0.440132
C88	C	1.613712	-0.475484	0.059868
C89	C	1.113734	-1.030087	-0.440136
C90	C	1.613734	-0.530087	0.059864
C91	C	1.216927	-1.030059	-0.337107
C92	C	1.716927	-0.530059	0.162893
C93	C	1.216900	-0.975456	-0.337100
C94	C	1.716900	-0.475456	0.162900
C95	C	1.165293	-0.948169	-0.388616
C96	C	1.665293	-0.448169	0.111384
C97	C	1.216648	-0.527716	-0.337027
C98	C	1.716648	-0.027716	0.162973
C99	C	1.216608	-0.473111	-0.337018
C100	C	1.716608	0.026889	0.162982
C101	C	1.113418	-0.473143	-0.440049
C102	C	1.613418	0.026857	0.059951
C103	C	1.113454	-0.527744	-0.440056
C104	C	1.613454	-0.027744	0.059944
C105	C	1.165076	-0.555029	-0.388542
C106	C	1.665076	-0.055029	0.111458
O107	O	1.069644	-0.614138	-0.483835
O108	O	1.569644	-0.114138	0.016165
O109	O	1.260591	-0.614126	-0.293244
O110	O	1.760591	-0.114126	0.206756
C111	C	1.375429	-0.251877	-0.388591
C112	C	1.875429	0.248123	0.111409
C113	C	1.465050	-0.251881	-0.388607
C114	C	1.965050	0.248119	0.111393
C115	C	1.165172	-0.251827	-0.598861
C116	C	1.665172	0.248173	-0.098861
C117	C	1.165195	-0.251811	-0.688482
C118	C	1.665195	0.248189	-0.188482
C119	C	1.165278	-0.115493	-0.388607
C120	C	1.665278	0.384507	0.111393
C121	C	1.165345	-0.057379	-0.388630
C122	C	1.665345	0.442621	0.111370
C123	C	1.165232	-0.251752	-1.016658
C124	C	1.665232	0.248248	-0.516658
C125	C	1.165219	-0.251770	-0.925350
C126	C	1.665219	0.248230	-0.425350
C127	C	1.165214	-0.251782	-0.852573
C128	C	1.665214	0.248218	-0.352573
C129	C	1.165200	-0.251799	-0.761259
C130	C	1.665200	0.248201	-0.261259
C131	C	1.165114	-0.251867	-0.179061
C132	C	1.665114	0.248133	0.320939
C133	C	1.165248	-0.251737	-0.089441
C134	C	1.665248	0.248263	0.410559
H135	H	1.258610	-0.450874	-0.295057
H136	H	1.758610	0.049126	0.204943
C137	C	1.273425	-0.557725	-0.280358
C138	C	1.773425	-0.057725	0.219642
C139	C	1.266881	-0.550254	-0.188690
C140	C	1.766881	-0.050254	0.311310
C141	C	1.323653	-0.580263	-0.132016
C142	C	1.823653	-0.080263	0.367984
C143	C	1.386968	-0.617742	-0.167011
C144	C	1.886968	-0.117742	0.332989
C145	C	1.393514	-0.625214	-0.258683
C146	C	1.893514	-0.125214	0.241317
C147	C	1.336743	-0.595205	-0.315357
C148	C	1.836743	-0.095205	0.184643
H149	H	1.220009	-0.522509	-0.162781
H150	H	1.720009	-0.022509	0.337219
H151	H	1.318807	-0.574732	-0.064154
H152	H	1.818807	-0.074732	0.435846
H153	H	1.428994	-0.639956	-0.125057
H154	H	1.928994	-0.139956	0.374943
H155	H	1.440386	-0.652960	-0.284592
H156	H	1.940386	-0.152960	0.215408
H157	H	1.341589	-0.600737	-0.383219
H158	H	1.841589	-0.100737	0.116781
H159	H	1.071725	-1.052320	-0.482085
H160	H	1.571725	-0.552320	0.017915
H161	H	1.258901	-0.953221	-0.295144
H162	H	1.758901	-0.453221	0.204856
C163	C	1.056930	-0.945471	-0.496796
C164	C	1.556930	-0.445471	0.003204
C165	C	0.965277	-0.953048	-0.490118
C166	C	1.465277	-0.453048	0.009882
C167	C	0.908497	-0.923038	-0.546782
C168	C	1.408497	-0.423038	-0.046782
C169	C	0.943369	-0.885453	-0.610124
C170	C	1.443369	-0.385453	-0.110124
C171	C	1.035027	-0.877875	-0.616804
C172	C	1.535027	-0.377875	-0.116804
C173	C	1.091807	-0.907885	-0.560140
C174	C	1.591807	-0.407885	-0.060140
H175	H	0.939458	-0.980872	-0.443226
H176	H	1.439458	-0.480872	0.056774
H177	H	0.840646	-0.928648	-0.541837
H178	H	1.340646	-0.428648	-0.041837
H179	H	0.901337	-0.863239	-0.652070
H180	H	1.401337	-0.363239	-0.152070
H181	H	1.060846	-0.850051	-0.663696
H182	H	1.560846	-0.350051	-0.163696
H183	H	1.159658	-0.902275	-0.565086
H184	H	1.659658	-0.402275	-0.065086
H185	H	1.258952	-1.052287	-0.295169
H186	H	1.758952	-0.552287	0.204831
H187	H	1.310417	-0.801085	-0.243615
H188	H	1.810417	-0.301085	0.256385
C189	C	1.005224	-0.694297	-0.548285
C190	C	1.505224	-0.194297	-0.048285
C191	C	0.913570	-0.701872	-0.541616
C192	C	1.413570	-0.201872	-0.041616
C193	C	0.856796	-0.671858	-0.598280
C194	C	1.356796	-0.171858	-0.098280
C195	C	0.891675	-0.634269	-0.661613
C196	C	1.391675	-0.134269	-0.161613
C197	C	0.983334	-0.626692	-0.668284
C198	C	1.483334	-0.126692	-0.168284
C199	C	1.040108	-0.656707	-0.611621
C200	C	1.540108	-0.156707	-0.111621
H201	H	0.887746	-0.729700	-0.494731
H202	H	1.387746	-0.229700	0.005269
H203	H	0.788944	-0.677467	-0.593341
H204	H	1.288944	-0.177467	-0.093341
H205	H	0.849647	-0.612051	-0.703559
H206	H	1.349647	-0.112051	-0.203559
H207	H	1.009158	-0.598865	-0.715169
H208	H	1.509158	-0.098865	-0.215169
H209	H	1.107960	-0.651098	-0.616560
H210	H	1.607960	-0.151098	-0.116560
H211	H	1.020014	-0.801148	-0.533583
H212	H	1.520014	-0.301148	-0.033583
H213	H	1.071457	-0.549983	-0.482014
H214	H	1.571457	-0.049983	0.017986
C215	C	1.056655	-0.443118	-0.496708
C216	C	1.556655	0.056882	0.003292
C217	C	0.993357	-0.405632	-0.461701
C218	C	1.493357	0.094368	0.038299
C219	C	0.936598	-0.375605	-0.518364
C220	C	1.436598	0.124395	-0.018364
C221	C	0.943137	-0.383064	-0.610034
C222	C	1.443137	0.116936	-0.110034
C223	C	1.006438	-0.420552	-0.645046
C224	C	1.506438	0.079448	-0.145046
C225	C	1.063196	-0.450579	-0.588383
C226	C	1.563196	0.049421	-0.088383
H227	H	0.988514	-0.400109	-0.393836
H228	H	1.488514	0.099891	0.106164
H229	H	0.889739	-0.347854	-0.492445
H230	H	1.389739	0.152146	0.007555
H231	H	0.901121	-0.360836	-0.651980
H232	H	1.401121	0.139164	-0.151980
H233	H	1.011281	-0.426075	-0.712911
H234	H	1.511281	0.073925	-0.212911
H235	H	1.110056	-0.478330	-0.614302
H236	H	1.610056	0.021670	-0.114302
H237	H	1.310357	-0.702037	-0.243594
H238	H	1.810357	-0.202037	0.256406
