data_functionalizedCrystal
_audit_creation_method	'MofGen! by Chris Wilmer'
_symmetry_space_group_name_H-M	'P1'
_symmetry_Int_Tables_number	1
_symmetry_cell_setting	triclinic
loop_
_symmetry_equiv_pos_as_xyz
  x,y,z
_cell_length_a	16.120530
_cell_length_b	16.120484
_cell_length_c	12.759393
_cell_angle_alpha	92.862829
_cell_angle_beta	87.081041
_cell_angle_gamma	90.167327
loop_
_atom_site_label
_atom_site_type_symbol
_atom_site_fract_x
_atom_site_fract_y
_atom_site_fract_z
Zn1	Zn	1.254495	-0.395546	-0.699366
Zn2	Zn	1.587828	-0.062213	-0.366033
Zn3	Zn	1.921161	0.271120	-0.032699
Zn4	Zn	1.247333	-0.534621	-0.532098
Zn5	Zn	1.580666	-0.201287	-0.198765
Zn6	Zn	1.913999	0.132046	0.134569
Zn7	Zn	1.115429	-0.388530	-0.514372
Zn8	Zn	1.448762	-0.055196	-0.181039
Zn9	Zn	1.782095	0.278137	0.152295
Zn10	Zn	1.108347	-0.527500	-0.698405
Zn11	Zn	1.441680	-0.194166	-0.365071
Zn12	Zn	1.775013	0.139167	-0.031738
O13	O	1.181401	-0.461549	-0.611060
O14	O	1.514734	-0.128216	-0.277727
O15	O	1.848067	0.205118	0.055607
O16	O	1.369910	-0.419912	-0.684998
O17	O	1.703244	-0.086578	-0.351665
O18	O	2.036577	0.246755	-0.018332
O19	O	1.229802	-0.515285	-0.382726
O20	O	1.563135	-0.181952	-0.049393
O21	O	1.896469	0.151382	0.283940
O22	O	1.139837	-0.273098	-0.531896
O23	O	1.473170	0.060236	-0.198562
O24	O	1.806504	0.393569	0.134771
O25	O	1.364648	-0.522089	-0.562107
O26	O	1.697982	-0.188756	-0.228774
O27	O	2.031315	0.144578	0.104559
O28	O	1.242008	-0.278253	-0.667810
O29	O	1.575341	0.055080	-0.334477
O30	O	1.908675	0.388414	-0.001143
O31	O	1.132892	-0.407952	-0.369703
O32	O	1.466226	-0.074619	-0.036370
O33	O	1.799559	0.258714	0.296964
O34	O	0.998123	-0.401047	-0.530964
O35	O	1.331457	-0.067714	-0.197630
O36	O	1.664790	0.265619	0.135703
O37	O	1.127767	-0.509952	-0.845553
O38	O	1.461100	-0.176619	-0.512219
O39	O	1.794434	0.156714	-0.178886
O40	O	0.992920	-0.503148	-0.666172
O41	O	1.326254	-0.169815	-0.332838
O42	O	1.659587	0.163518	0.000495
O43	O	1.235141	-0.413007	-0.846259
O44	O	1.568474	-0.079673	-0.512926
O45	O	1.901808	0.253660	-0.179592
O46	O	1.222935	-0.650039	-0.561175
O47	O	1.556268	-0.316705	-0.227842
O48	O	1.889602	0.016628	0.105492
O49	O	1.120822	-0.644807	-0.683360
O50	O	1.454156	-0.311474	-0.350027
O51	O	1.787489	0.021860	-0.016693
C52	C	0.965350	-0.450564	-0.596540
C53	C	1.298683	-0.117231	-0.263207
C54	C	1.632016	0.216102	0.070126
C55	C	0.872921	-0.445885	-0.590355
C56	C	1.206254	-0.112552	-0.257022
C57	C	1.539588	0.220782	0.076312
C58	C	1.170356	-0.677595	-0.624111
C59	C	1.503689	-0.344262	-0.290778
C60	C	1.837022	-0.010929	0.042556
C61	C	1.165707	-0.770025	-0.629735
C62	C	1.499040	-0.436691	-0.296401
C63	C	1.832373	-0.103358	0.036932
C64	C	0.703693	-0.437322	-0.579070
C65	C	1.037027	-0.103989	-0.245736
C66	C	1.370360	0.229344	0.087597
C67	C	0.659945	-0.485837	-0.643131
C68	C	0.993279	-0.152504	-0.309798
C69	C	1.326612	0.180830	0.023536
C70	C	0.565781	-0.481073	-0.636852
C71	C	0.899115	-0.147740	-0.303519
C72	C	1.232448	0.185594	0.029815
C73	C	0.797866	-0.442086	-0.585347
C74	C	1.131199	-0.108752	-0.252014
C75	C	1.464533	0.224581	0.081319
C76	C	1.157224	-0.939255	-0.640024
C77	C	1.490557	-0.605921	-0.306690
C78	C	1.823890	-0.272588	0.026643
C79	C	1.205727	-0.983010	-0.582124
C80	C	1.539060	-0.649677	-0.248791
C81	C	1.872393	-0.316344	0.084543
C82	C	1.201007	-1.077176	-0.587849
C83	C	1.534340	-0.743842	-0.254515
C84	C	1.867673	-0.410509	0.078818
C85	C	1.161942	-0.845081	-0.634300
C86	C	1.495276	-0.511747	-0.300967
C87	C	1.828609	-0.178414	0.032367
C88	C	1.398295	-0.472577	-0.625637
C89	C	1.731629	-0.139244	-0.292304
C90	C	2.064962	0.194089	0.041029
C91	C	1.490723	-0.477277	-0.631849
C92	C	1.824056	-0.143944	-0.298516
C93	C	2.157390	0.189390	0.034817
C94	C	1.181463	-0.461468	-0.885092
C95	C	1.514796	-0.128135	-0.551759
C96	C	1.848130	0.205199	-0.218426
C97	C	1.181490	-0.461433	-1.001869
C98	C	1.514823	-0.128100	-0.668535
C99	C	1.848156	0.205233	-0.335202
C100	C	1.192511	-0.244660	-0.597983
C101	C	1.525845	0.088673	-0.264649
C102	C	1.859178	0.422006	0.068684
C103	C	1.197246	-0.152235	-0.592410
C104	C	1.530580	0.181098	-0.259077
C105	C	1.863913	0.514431	0.074257
C106	C	1.131048	-0.405537	-1.049950
C107	C	1.464382	-0.072203	-0.716616
C108	C	1.797715	0.261130	-0.383283
C109	C	1.131069	-0.405512	-1.159674
C110	C	1.464402	-0.072179	-0.826340
C111	C	1.797736	0.261155	-0.493007
C112	C	1.231979	-0.517284	-1.173226
C113	C	1.565312	-0.183950	-0.839893
C114	C	1.898646	0.149383	-0.506560
C115	C	1.231953	-0.517312	-1.063504
C116	C	1.565287	-0.183978	-0.730171
C117	C	1.898620	0.149355	-0.396838
C118	C	1.181389	-0.461572	-0.338094
C119	C	1.514723	-0.128239	-0.004760
C120	C	1.848056	0.205094	0.328573
C121	C	1.181536	-0.461381	-0.221315
C122	C	1.514869	-0.128048	0.112019
C123	C	1.848203	0.205286	0.445352
H124	H	0.693211	-0.530949	-0.702693
H125	H	1.026544	-0.197616	-0.369360
H126	H	1.359877	0.135718	-0.036026
F127	F	0.660216	-0.378361	-0.501224
F128	F	0.993549	-0.045027	-0.167891
F129	F	1.326882	0.288306	0.165443
F130	F	1.264635	-0.939539	-0.511710
F131	F	1.597968	-0.606206	-0.178377
F132	F	1.931301	-0.272873	0.154957
H133	H	1.112157	-0.972513	-0.693887
H134	H	1.445490	-0.639180	-0.360554
H135	H	1.778823	-0.305846	-0.027221
F136	F	1.077338	-0.346068	-0.984356
F137	F	1.410671	-0.012735	-0.651022
F138	F	1.744005	0.320598	-0.317689
H139	H	1.089994	-0.359996	-1.198815
H140	H	1.423327	-0.026663	-0.865482
H141	H	1.756661	0.306671	-0.532149
H142	H	1.273066	-0.562777	-1.223423
H143	H	1.606399	-0.229444	-0.890090
H144	H	1.939732	0.103890	-0.556757
F145	F	1.285640	-0.576811	-1.012330
F146	F	1.618973	-0.243477	-0.678997
F147	F	1.952306	0.089856	-0.345664
