data_functionalizedCrystal
_audit_creation_method	'MofGen! by Chris Wilmer'
_symmetry_space_group_name_H-M	'P1'
_symmetry_Int_Tables_number	1
_symmetry_cell_setting	triclinic
loop_
_symmetry_equiv_pos_as_xyz
  x,y,z
_cell_length_a	18.215405
_cell_length_b	18.215407
_cell_length_c	18.215399
_cell_angle_alpha	89.983176
_cell_angle_beta	89.968171
_cell_angle_gamma	90.024268
loop_
_atom_site_label
_atom_site_type_symbol
_atom_site_fract_x
_atom_site_fract_y
_atom_site_fract_z
Zn1	Zn	-0.292966	1.125056	-0.416108
Zn2	Zn	0.040368	1.458389	-0.082775
Zn3	Zn	0.373701	1.791722	0.250558
Zn4	Zn	-0.416042	1.124973	-0.293039
Zn5	Zn	-0.082709	1.458306	0.040294
Zn6	Zn	0.250625	1.791639	0.373628
Zn7	Zn	-0.292995	1.001995	-0.293056
Zn8	Zn	0.040339	1.335328	0.040278
Zn9	Zn	0.373672	1.668661	0.373611
Zn10	Zn	-0.415996	1.001956	-0.416064
Zn11	Zn	-0.082663	1.335290	-0.082730
Zn12	Zn	0.250671	1.668623	0.250603
O13	O	-0.354500	1.063495	-0.354567
O14	O	-0.021166	1.396828	-0.021233
O15	O	0.312167	1.730161	0.312100
O16	O	-0.309299	1.228029	-0.399795
O17	O	0.024034	1.561362	-0.066461
O18	O	0.357368	1.894695	0.266872
O19	O	-0.399751	1.108641	-0.190057
O20	O	-0.066418	1.441974	0.143277
O21	O	0.266916	1.775307	0.476610
O22	O	-0.190007	1.018370	-0.309405
O23	O	0.143327	1.351703	0.023929
O24	O	0.476660	1.685036	0.357262
O25	O	-0.399723	1.227968	-0.309376
O26	O	-0.066389	1.561301	0.023957
O27	O	0.266944	1.894635	0.357291
O28	O	-0.189985	1.108782	-0.399811
O29	O	0.143348	1.442115	-0.066477
O30	O	0.476682	1.775449	0.266856
O31	O	-0.309349	1.018289	-0.190069
O32	O	0.023985	1.351623	0.143264
O33	O	0.357318	1.684956	0.476597
O34	O	-0.309304	0.899005	-0.309361
O35	O	0.024029	1.232339	0.023972
O36	O	0.357363	1.565672	0.357305
O37	O	-0.399644	1.018304	-0.519054
O38	O	-0.066311	1.351638	-0.185721
O39	O	0.267023	1.684971	0.147613
O40	O	-0.399672	0.898977	-0.399735
O41	O	-0.066339	1.232310	-0.066402
O42	O	0.266994	1.565644	0.266932
O43	O	-0.309254	1.108745	-0.519087
O44	O	0.024079	1.442078	-0.185753
O45	O	0.357412	1.775411	0.147580
O46	O	-0.519020	1.108604	-0.309333
O47	O	-0.185687	1.441937	0.024001
O48	O	0.147647	1.775270	0.357334
O49	O	-0.518986	1.018224	-0.399719
O50	O	-0.185653	1.351557	-0.066385
O51	O	0.147680	1.684891	0.266948
C52	C	-0.354487	0.872289	-0.354546
C53	C	-0.021154	1.205622	-0.021212
C54	C	0.312180	1.538955	0.312121
C55	C	-0.354499	0.790490	-0.354554
C56	C	-0.021166	1.123823	-0.021221
C57	C	0.312167	1.457156	0.312113
C58	C	-0.401628	0.602300	-0.401552
C59	C	-0.068295	0.935634	-0.068219
C60	C	0.265039	1.268967	0.265114
C61	C	-0.401630	0.525442	-0.401562
C62	C	-0.068297	0.858775	-0.068228
C63	C	0.265036	1.192108	0.265105
C64	C	-0.307384	0.525441	-0.307597
C65	C	0.025949	0.858775	0.025736
C66	C	0.359282	1.192108	0.359070
C67	C	-0.307379	0.602299	-0.307592
C68	C	0.025954	0.935632	0.025741
C69	C	0.359288	1.268965	0.359075
C70	C	-0.354505	0.640726	-0.354569
C71	C	-0.021172	0.974059	-0.021235
C72	C	0.312162	1.307393	0.312098
C73	C	-0.354513	0.487010	-0.354583
C74	C	-0.021179	0.820343	-0.021249
C75	C	0.312154	1.153677	0.312084
C76	C	-0.354515	0.403676	-0.354592
C77	C	-0.021181	0.737010	-0.021259
C78	C	0.312152	1.070343	0.312074
C79	C	-0.354502	0.724065	-0.354560
C80	C	-0.021169	1.057398	-0.021227
C81	C	0.312165	1.390732	0.312106
C82	C	-0.545706	1.063421	-0.354535
C83	C	-0.212373	1.396754	-0.021202
C84	C	0.120961	1.730087	0.312132
C85	C	-0.627505	1.063456	-0.354546
C86	C	-0.294171	1.396790	-0.021213
C87	C	0.039162	1.730123	0.312121
C88	C	-0.892555	1.110655	-0.307582
C89	C	-0.559222	1.443988	0.025752
C90	C	-0.225889	1.777321	0.359085
C91	C	-0.815697	1.110624	-0.307565
C92	C	-0.482363	1.443958	0.025769
C93	C	-0.149030	1.777291	0.359102
C94	C	-0.815702	1.016426	-0.401602
C95	C	-0.482369	1.349759	-0.068268
C96	C	-0.149036	1.683093	0.265065
C97	C	-0.892560	1.016453	-0.401614
C98	C	-0.559226	1.349786	-0.068281
C99	C	-0.225893	1.683120	0.265052
C100	C	-0.930984	1.063572	-0.354605
C101	C	-0.597651	1.396905	-0.021272
C102	C	-0.264318	1.730238	0.312061
C103	C	-0.777268	1.063514	-0.354576
C104	C	-0.443935	1.396847	-0.021242
C105	C	-0.110601	1.730181	0.312091
C106	C	-0.693935	1.063481	-0.354558
C107	C	-0.360601	1.396814	-0.021225
C108	C	-0.027268	1.730148	0.312109
C109	C	-1.014323	1.063604	-0.354622
C110	C	-0.680990	1.396937	-0.021289
C111	C	-0.347656	1.730271	0.312045
C112	C	-0.162547	1.063589	-0.354615
C113	C	0.170787	1.396923	-0.021281
C114	C	0.504120	1.730256	0.312052
C115	C	-0.080748	1.063630	-0.354635
C116	C	0.252586	1.396963	-0.021302
C117	C	0.585919	1.730296	0.312032
C118	C	-0.354441	1.063530	-0.546520
C119	C	-0.021107	1.396863	-0.213186
C120	C	0.312226	1.730196	0.120147
C121	C	-0.354416	1.063544	-0.628319
C122	C	-0.021082	1.396878	-0.294985
C123	C	0.312251	1.730211	0.038348
C124	C	-0.354513	1.255448	-0.354588
C125	C	-0.021179	1.588781	-0.021255
C126	C	0.312154	1.922114	0.312078
C127	C	-0.354518	1.337247	-0.354598
C128	C	-0.021185	1.670580	-0.021264
C129	C	0.312148	2.003913	0.312069
C130	C	-0.307311	1.016538	-0.816520
C131	C	0.026022	1.349871	-0.483187
C132	C	0.359355	1.683205	-0.149853
C133	C	-0.307297	1.016551	-0.893379
C134	C	0.026037	1.349884	-0.560045
C135	C	0.359370	1.683218	-0.226712
C136	C	-0.401432	1.110639	-0.893355
C137	C	-0.068099	1.443972	-0.560022
C138	C	0.265235	1.777305	-0.226689
C139	C	-0.401450	1.110622	-0.816498
C140	C	-0.068117	1.443955	-0.483165
C141	C	0.265217	1.777288	-0.149831
C142	C	-0.354386	1.063572	-0.778082
C143	C	-0.021052	1.396906	-0.444749
C144	C	0.312281	1.730239	-0.111416
C145	C	-0.354353	1.063602	-0.931798
C146	C	-0.021019	1.396936	-0.598465
C147	C	0.312314	1.730269	-0.265132
C148	C	-0.354337	1.063616	-1.015132
C149	C	-0.021004	1.396950	-0.681799
C150	C	0.312330	1.730283	-0.348465
C151	C	-0.354402	1.063557	-0.694743
C152	C	-0.021069	1.396890	-0.361410
C153	C	0.312265	1.730224	-0.028077
C154	C	-0.354505	1.063503	-0.163360
C155	C	-0.021172	1.396836	0.169973
C156	C	0.312162	1.730169	0.503306
C157	C	-0.354323	1.063630	-0.081562
C158	C	-0.020989	1.396964	0.251771
C159	C	0.312344	1.730297	0.585105
H160	H	-0.439999	0.633586	-0.439806
H161	H	-0.106666	0.966919	-0.106472
H162	H	0.226667	1.300252	0.226861
Br163	Br	-0.465302	1.174488	-0.945495
Br164	Br	-0.131968	1.507822	-0.612162
Br165	Br	0.201365	1.841155	-0.278829
Br166	Br	-0.243414	0.654453	-0.243831
Br167	Br	0.089919	0.987786	0.089502
Br168	Br	0.423253	1.321120	0.422836
Br169	Br	-0.944701	1.174599	-0.243783
Br170	Br	-0.611368	1.507932	0.089551
Br171	Br	-0.278034	1.841266	0.422884
Br172	Br	-0.465583	0.473295	-0.465332
Br173	Br	-0.132249	0.806628	-0.131998
Br174	Br	0.201084	1.139961	0.201335
H175	H	-0.268989	0.978228	-0.785244
H176	H	0.064345	1.311561	-0.451911
H177	H	0.397678	1.644894	-0.118578
H178	H	-0.784410	1.148963	-0.269273
H179	H	-0.451077	1.482296	0.064060
H180	H	-0.117743	1.815629	0.397394
H181	H	-0.923849	0.978109	-0.439908
H182	H	-0.590516	1.311442	-0.106575
H183	H	-0.257183	1.644776	0.226759
Br184	Br	-0.243431	0.473285	-0.243846
Br185	Br	0.089902	0.806618	0.089487
Br186	Br	0.423236	1.139952	0.422821
Br187	Br	-0.763550	0.952488	-0.465402
Br188	Br	-0.430217	1.285821	-0.132069
Br189	Br	-0.096884	1.619155	0.201265
Br190	Br	-0.243420	0.952703	-0.945542
Br191	Br	0.089913	1.286036	-0.612209
Br192	Br	0.423247	1.619370	-0.278875
Br193	Br	-0.465347	1.174453	-0.764327
Br194	Br	-0.132013	1.507787	-0.430994
Br195	Br	0.201320	1.841120	-0.097661
