data_functionalizedCrystal
_audit_creation_method	'MofGen! by Chris Wilmer'
_symmetry_space_group_name_H-M	'P1'
_symmetry_Int_Tables_number	1
_symmetry_cell_setting	triclinic
loop_
_symmetry_equiv_pos_as_xyz
  x,y,z
_cell_length_a	25.639242
_cell_length_b	25.639240
_cell_length_c	25.639214
_cell_angle_alpha	89.871932
_cell_angle_beta	89.924765
_cell_angle_gamma	90.025061
loop_
_atom_site_label
_atom_site_type_symbol
_atom_site_fract_x
_atom_site_fract_y
_atom_site_fract_z
Zn1	Zn	0.799561	-0.207795	-0.295608
Zn2	Zn	1.299561	0.292205	0.204392
Zn3	Zn	0.799400	-0.295369	-0.208161
Zn4	Zn	1.299400	0.204631	0.291839
Zn5	Zn	0.712044	-0.207938	-0.208184
Zn6	Zn	1.212044	0.292062	0.291816
Zn7	Zn	0.712091	-0.295189	-0.295563
Zn8	Zn	1.212091	0.204811	0.204437
O9	O	0.755774	-0.251573	-0.251879
O10	O	1.255774	0.248427	0.248121
O11	O	0.872705	-0.219427	-0.284017
O12	O	1.372705	0.280573	0.215983
O13	O	0.787726	-0.283907	-0.134999
O14	O	1.287726	0.216093	0.365001
O15	O	0.723701	-0.134754	-0.219809
O16	O	1.223701	0.365246	0.280191
O17	O	0.872587	-0.283768	-0.219771
O18	O	1.372587	0.216232	0.280229
O19	O	0.787999	-0.134648	-0.284039
O20	O	1.287999	0.365352	0.215961
O21	O	0.723545	-0.219671	-0.135015
O22	O	1.223545	0.280329	0.364985
O23	O	0.638885	-0.219497	-0.219766
O24	O	1.138885	0.280503	0.280234
O25	O	0.723781	-0.283461	-0.368735
O26	O	1.223781	0.216539	0.131265
O27	O	0.638920	-0.283600	-0.283963
O28	O	1.138920	0.216400	0.216037
O29	O	0.788045	-0.219252	-0.368768
O30	O	1.288045	0.280748	0.131232
O31	O	0.787771	-0.368511	-0.219727
O32	O	1.287771	0.131489	0.280273
O33	O	0.723626	-0.368378	-0.283941
O34	O	1.223626	0.131622	0.216059
C35	C	0.619932	-0.251545	-0.251862
C36	C	1.119932	0.248455	0.248138
C37	C	0.561818	-0.251545	-0.251867
C38	C	1.061818	0.248455	0.248133
C39	C	0.310694	-0.218130	-0.285394
C40	C	0.810694	0.281870	0.214606
C41	C	0.365298	-0.218125	-0.285391
C42	C	0.865298	0.281875	0.214609
O43	O	0.393594	-0.189691	-0.313892
O44	O	0.893594	0.310309	0.186108
N45	N	0.392544	-0.251567	-0.251885
N46	N	0.892544	0.248433	0.248115
C47	C	0.365182	-0.285020	-0.218384
C48	C	0.865182	0.214980	0.281616
O49	O	0.393371	-0.313465	-0.189885
O50	O	0.893371	0.186535	0.310115
C51	C	0.310579	-0.285027	-0.218390
C52	C	0.810579	0.214973	0.281610
C53	C	0.283336	-0.251579	-0.251894
C54	C	0.783336	0.248421	0.248106
C55	C	0.283451	-0.184685	-0.318895
C56	C	0.783451	0.315315	0.181105
C57	C	0.228850	-0.184690	-0.318897
C58	C	0.728850	0.315310	0.181103
C59	C	0.201493	-0.218139	-0.285398
C60	C	0.701493	0.281861	0.214602
C61	C	0.228736	-0.251584	-0.251896
C62	C	0.728736	0.248416	0.248104
C63	C	0.283219	-0.318483	-0.184892
C64	C	0.783219	0.181517	0.315108
C65	C	0.228612	-0.318487	-0.184902
C66	C	0.728612	0.181513	0.315098
C67	C	0.201369	-0.285039	-0.218406
C68	C	0.701369	0.214961	0.281594
C69	C	0.146777	-0.285038	-0.218399
C70	C	0.646777	0.214962	0.281601
N71	N	0.119532	-0.251596	-0.251905
N72	N	0.619532	0.248404	0.248095
C73	C	0.146889	-0.218146	-0.285404
C74	C	0.646889	0.281854	0.214596
C75	C	0.479853	-0.285002	-0.218375
C76	C	0.979853	0.214998	0.281625
C77	C	0.534455	-0.284993	-0.218366
C78	C	1.034455	0.215007	0.281634
C79	C	0.534567	-0.218098	-0.285373
C80	C	1.034567	0.281902	0.214627
C81	C	0.479964	-0.218106	-0.285379
C82	C	0.979964	0.281894	0.214621
C83	C	0.452607	-0.251560	-0.251880
C84	C	0.952607	0.248440	0.248120
C85	C	0.032224	-0.218158	-0.285406
C86	C	0.532224	0.281842	0.214594
C87	C	-0.022381	-0.218164	-0.285403
C88	C	0.477619	0.281836	0.214597
C89	C	-0.022488	-0.285061	-0.218398
C90	C	0.477512	0.214939	0.281602
C91	C	0.032112	-0.285053	-0.218398
C92	C	0.532112	0.214947	0.281602
C93	C	0.059467	-0.251600	-0.251906
C94	C	0.559467	0.248400	0.248094
O95	O	0.118447	-0.313459	-0.189914
O96	O	0.618447	0.186541	0.310086
O97	O	0.118694	-0.189711	-0.313903
O98	O	0.618694	0.310289	0.186097
C99	C	0.755700	-0.387415	-0.251838
C100	C	1.255700	0.112585	0.248162
C101	C	0.755717	-0.445530	-0.251838
C102	C	1.255717	0.054470	0.248162
C103	C	0.789271	-0.805799	-0.285384
C104	C	1.289271	-0.305799	0.214616
C105	C	0.789286	-0.860403	-0.285395
C106	C	1.289286	-0.360403	0.214605
O107	O	0.817728	-0.888561	-0.313875
O108	O	1.317728	-0.388561	0.186125
N109	N	0.755847	-0.887812	-0.251930
N110	N	1.255847	-0.387812	0.248070
C111	C	0.722386	-0.860613	-0.218456
C112	C	1.222386	-0.360613	0.281544
O113	O	0.693944	-0.888940	-0.189992
O114	O	1.193944	-0.388940	0.310008
C115	C	0.722368	-0.806010	-0.218448
C116	C	1.222368	-0.306010	0.281552
C117	C	0.755814	-0.778604	-0.251912
C118	C	1.255814	-0.278604	0.248088
C119	C	0.822713	-0.778393	-0.318846
C120	C	1.322713	-0.278393	0.181154
C121	C	0.822698	-0.723793	-0.318834
C122	C	1.322698	-0.223793	0.181166
C123	C	0.789241	-0.696598	-0.285361
C124	C	1.289241	-0.196598	0.214639
C125	C	0.755799	-0.724004	-0.251900
C126	C	1.255799	-0.224004	0.248100
C127	C	0.688905	-0.778812	-0.184977
C128	C	1.188905	-0.278812	0.315023
C129	C	0.688890	-0.724205	-0.184972
C130	C	1.188890	-0.224205	0.315028
C131	C	0.722336	-0.696799	-0.218436
C132	C	1.222336	-0.196799	0.281564
C133	C	0.722327	-0.642208	-0.218416
C134	C	1.222327	-0.142208	0.281584
N135	N	0.755766	-0.614800	-0.251881
N136	N	1.255766	-0.114800	0.248119
C137	C	0.789223	-0.641995	-0.285354
C138	C	1.289223	-0.141995	0.214646
C139	C	0.722425	-0.975284	-0.218475
C140	C	1.222425	-0.475284	0.281525
C141	C	0.722445	-1.029886	-0.218479
C142	C	1.222445	-0.529886	0.281521
C143	C	0.789345	-1.029672	-0.285419
C144	C	1.289345	-0.529672	0.214581
C145	C	0.789327	-0.975069	-0.285412
C146	C	1.289327	-0.475069	0.214588
C147	C	0.755864	-0.947875	-0.251940
C148	C	1.255864	-0.447875	0.248060
C149	C	0.789190	-0.527330	-0.285327
C150	C	1.289190	-0.027330	0.214673
C151	C	0.789174	-0.472724	-0.285311
C152	C	1.289174	0.027276	0.214689
C153	C	0.722272	-0.472943	-0.218373
C154	C	1.222272	0.027057	0.281627
C155	C	0.722290	-0.527543	-0.218387
C156	C	1.222290	-0.027543	0.281613
C157	C	0.755751	-0.554735	-0.251868
C158	C	1.255751	-0.054735	0.248132
O159	O	0.693899	-0.614016	-0.189952
O160	O	1.193899	-0.114016	0.310048
O161	O	0.817656	-0.613661	-0.313817
O162	O	1.317656	-0.113661	0.186183
C163	C	0.892147	-0.251602	-0.251896
C164	C	1.392147	0.248398	0.248104
C165	C	0.950261	-0.251614	-0.251904
C166	C	1.450261	0.248386	0.248096
C167	C	0.755936	-0.251320	-0.388253
C168	C	1.255936	0.248680	0.111747
C169	C	0.756005	-0.251213	-0.446367
C170	C	1.256005	0.248787	0.053633
C171	C	0.755863	-0.115200	-0.251932
C172	C	1.255863	0.384800	0.248068
C173	C	0.755900	-0.057086	-0.251954
C174	C	1.255900	0.442914	0.248046
C175	C	0.755643	-0.251786	-0.116036
C176	C	1.255643	0.248214	0.383964
C177	C	0.755675	-0.251747	-0.057922
C178	C	1.255675	0.248253	0.442078
C179	C	0.722216	-0.218223	0.302412
C180	C	1.222216	0.281777	0.802412
C181	C	0.722246	-0.218175	0.357016
C182	C	1.222246	0.281825	0.857016
O183	O	0.693652	-0.189903	0.385228
O184	O	1.193652	0.310097	0.885228
N185	N	0.755916	-0.251353	0.384359
N186	N	1.255916	0.248647	0.884359
C187	C	0.789562	-0.284578	0.357096
C188	C	1.289562	0.215422	0.857096
O189	O	0.818205	-0.312794	0.385367
O190	O	1.318205	0.187206	0.885367
C191	C	0.789534	-0.284623	0.302492
C192	C	1.289534	0.215377	0.802492
C193	C	0.755858	-0.251446	0.275152
C194	C	1.255858	0.248554	0.775152
C195	C	0.688543	-0.185048	0.275071
C196	C	1.188543	0.314952	0.775071
C197	C	0.688512	-0.185097	0.220471
C198	C	1.188512	0.314903	0.720471
C199	C	0.722154	-0.218320	0.193211
C200	C	1.222154	0.281680	0.693211
C201	C	0.755827	-0.251495	0.220551
C202	C	1.255827	0.248505	0.720551
C203	C	0.823182	-0.317844	0.275230
C204	C	1.323182	0.182156	0.775230
C205	C	0.823151	-0.317886	0.220623
C206	C	1.323151	0.182114	0.720623
C207	C	0.789475	-0.284709	0.193282
C208	C	1.289475	0.215291	0.693282
C209	C	0.789438	-0.284767	0.138691
C210	C	1.289438	0.215233	0.638691
N211	N	0.755768	-0.251588	0.111348
N212	N	1.255768	0.248412	0.611348
C213	C	0.722126	-0.218365	0.138608
C214	C	1.222126	0.281635	0.638608
C215	C	0.789620	-0.284480	0.471766
C216	C	1.289620	0.215520	0.971766
C217	C	0.789646	-0.284438	0.526368
C218	C	1.289646	0.215562	1.026368
C219	C	0.722330	-0.218035	0.526285
C220	C	1.222330	0.281965	1.026285
C221	C	0.722302	-0.218079	0.471682
C222	C	1.222302	0.281921	0.971682
C223	C	0.755949	-0.251302	0.444423
C224	C	1.255949	0.248698	0.944423
C225	C	0.722063	-0.218470	0.023943
C226	C	1.222063	0.281530	0.523943
C227	C	0.722033	-0.218524	-0.030662
C228	C	1.222033	0.281476	0.469338
C229	C	0.789351	-0.284925	-0.030574
C230	C	1.289351	0.215075	0.469426
C231	C	0.789378	-0.284874	0.024026
C232	C	1.289378	0.215126	0.524026
C233	C	0.755733	-0.251642	0.051283
C234	C	1.255733	0.248358	0.551283
O235	O	0.818019	-0.313022	0.110444
O236	O	1.318019	0.186978	0.610444
O237	O	0.693493	-0.190149	0.110329
O238	O	1.193493	0.309851	0.610329
H239	H	-0.044773	-0.312292	-0.191122
H240	H	0.455227	0.187708	0.308878
C241	C	0.485572	-0.151986	-0.351612
C242	C	0.985572	0.348014	0.148388
C243	C	0.450021	-0.181344	-0.322212
C244	C	0.950021	0.318656	0.177788
H245	H	0.467087	-0.129294	-0.374355
H246	H	0.967087	0.370706	0.125645
H247	H	0.506839	-0.131991	-0.328867
H248	H	1.006839	0.368009	0.171133
H249	H	0.506894	-0.174765	-0.371560
H250	H	1.006894	0.325235	0.128440
H251	H	0.428702	-0.158566	-0.302262
H252	H	0.928702	0.341434	0.197738
H253	H	0.428745	-0.201341	-0.344961
H254	H	0.928745	0.298659	0.155039
H255	H	0.054295	-0.312284	-0.191112
H256	H	0.554295	0.187716	0.308888
C257	C	0.797140	-0.355097	0.085643
C258	C	1.297140	0.144903	0.585643
C259	C	0.826390	-0.321346	0.054085
C260	C	1.326390	0.178654	0.554085
H261	H	0.819992	-0.377613	0.104195
H262	H	1.319992	0.122387	0.604195
H263	H	0.777115	-0.335301	0.109690
H264	H	1.277115	0.164699	0.609690
H265	H	0.774482	-0.375275	0.064443
H266	H	1.274482	0.124725	0.564443
H267	H	0.849045	-0.301165	0.075285
H268	H	1.349045	0.198835	0.575285
H269	H	0.846423	-0.341144	0.030035
H270	H	1.346423	0.158856	0.530035
C271	C	0.796644	-1.090905	-0.355768
C272	C	1.296644	-0.590905	0.144232
C273	C	0.826119	-1.059571	-0.322219
C274	C	1.326119	-0.559571	0.177781
H275	H	0.819347	-1.109360	-0.378487
H276	H	1.319347	-0.609360	0.121513
H277	H	0.776735	-1.115036	-0.335837
H278	H	1.276735	-0.615036	0.164163
H279	H	0.773868	-1.069565	-0.375740
H280	H	1.273868	-0.569565	0.124260
H281	H	0.848893	-1.080911	-0.302245
H282	H	1.348893	-0.580911	0.197755
H283	H	0.846037	-1.035436	-0.342153
H284	H	1.346037	-0.535436	0.157847
H285	H	0.661639	-0.702066	-0.157716
H286	H	1.161639	-0.202066	0.342284
H287	H	0.849931	-0.701482	-0.346084
H288	H	1.349931	-0.201482	0.153916
C289	C	0.233990	-0.384614	-0.118670
C290	C	0.733990	0.115386	0.381330
C291	C	0.198542	-0.355261	-0.148076
C292	C	0.698542	0.144739	0.351924
H293	H	0.215426	-0.407313	-0.095934
H294	H	0.715426	0.092687	0.404066
H295	H	0.255310	-0.404601	-0.141412
H296	H	0.755310	0.095399	0.358588
H297	H	0.255269	-0.361832	-0.098715
H298	H	0.755269	0.138168	0.401285
H299	H	0.177266	-0.378043	-0.168034
H300	H	0.677266	0.121957	0.331966
H301	H	0.177214	-0.335272	-0.125331
H302	H	0.677214	0.164728	0.374669
H303	H	0.816411	-0.450412	-0.312561
H304	H	1.316411	0.049588	0.187439
C305	C	0.855316	-0.521619	-0.351494
C306	C	1.355316	-0.021619	0.148506
C307	C	0.825969	-0.557214	-0.322131
C308	C	1.325969	-0.057214	0.177869
H309	H	0.878024	-0.540069	-0.374212
H310	H	1.378024	-0.040069	0.125788
H311	H	0.832534	-0.500290	-0.371463
H312	H	1.332534	-0.000290	0.128537
H313	H	0.875298	-0.500363	-0.328721
H314	H	1.375298	-0.000363	0.171279
H315	H	0.805984	-0.578467	-0.344904
H316	H	1.305984	-0.078467	0.155096
H317	H	0.848753	-0.578552	-0.302160
H318	H	1.348753	-0.078552	0.197840
H319	H	0.695216	-1.052195	-0.191224
H320	H	1.195216	-0.552195	0.308776
H321	H	0.849958	-0.800530	-0.346106
H322	H	1.349958	-0.300530	0.153894
C323	C	0.656304	-0.980988	-0.152302
C324	C	1.156304	-0.480988	0.347698
C325	C	0.685646	-0.945395	-0.181672
C326	C	1.185646	-0.445395	0.318328
H327	H	0.633601	-0.962537	-0.129581
H328	H	1.133601	-0.462537	0.370419
H329	H	0.636321	-1.002244	-0.175068
H330	H	1.136321	-0.502244	0.324932
H331	H	0.679092	-1.002317	-0.132333
H332	H	1.179092	-0.502317	0.367667
H333	H	0.662858	-0.924068	-0.201645
H334	H	1.162858	-0.424068	0.298355
H335	H	0.705630	-0.924130	-0.158903
H336	H	1.205630	-0.424130	0.341097
H337	H	0.816561	-0.952759	-0.312661
H338	H	1.316561	-0.452759	0.187339
C339	C	0.651716	-0.211645	0.085451
C340	C	1.151716	0.288355	0.585451
C341	C	0.685077	-0.181946	0.053901
C342	C	1.185077	0.318054	0.553901
H343	H	0.628884	-0.189098	0.103947
H344	H	1.128884	0.310902	0.603947
H345	H	0.631862	-0.234583	0.064257
H346	H	1.131862	0.265417	0.564257
H347	H	0.671779	-0.231391	0.109551
H348	H	1.171779	0.268609	0.609551
H349	H	0.665014	-0.162203	0.029797
H350	H	1.165014	0.337797	0.529797
H351	H	0.704933	-0.158999	0.075096
H352	H	1.204933	0.341001	0.575096
H353	H	0.816739	-0.311977	-0.052779
H354	H	1.316739	0.188023	0.447221
C355	C	0.622766	-0.773515	-0.118823
C356	C	1.122766	-0.273515	0.381177
C357	C	0.652136	-0.808927	-0.148196
C358	C	1.152136	-0.308927	0.351804
H359	H	0.600063	-0.792107	-0.096118
H360	H	1.100063	-0.292107	0.403882
H361	H	0.645533	-0.752253	-0.098841
H362	H	1.145533	-0.252253	0.401159
H363	H	0.602778	-0.752175	-0.141593
H364	H	1.102778	-0.252175	0.358407
H365	H	0.672127	-0.830264	-0.125427
H366	H	1.172127	-0.330264	0.374573
H367	H	0.629366	-0.830198	-0.168180
H368	H	1.129366	-0.330198	0.331820
H369	H	0.694608	-0.191506	-0.052921
H370	H	1.194608	0.308494	0.447079
C371	C	0.656160	-0.522267	-0.152220
C372	C	1.156160	-0.022267	0.347780
C373	C	0.685528	-0.557671	-0.181603
C374	C	1.185528	-0.057671	0.318397
H375	H	0.633459	-0.540865	-0.129516
H376	H	1.133459	-0.040865	0.370484
H377	H	0.678927	-0.501007	-0.132236
H378	H	1.178927	-0.001007	0.367764
H379	H	0.636168	-0.500923	-0.174982
H380	H	1.136168	-0.000923	0.325018
H381	H	0.705523	-0.579012	-0.158840
H382	H	1.205523	-0.079012	0.341160
H383	H	0.662758	-0.578939	-0.201588
H384	H	1.162758	-0.078939	0.298412
C385	C	0.344949	-0.177379	-0.389243
C386	C	0.844949	0.322621	0.110757
C387	C	0.313515	-0.147912	-0.355722
C388	C	0.813515	0.352088	0.144278
H389	H	0.363504	-0.154672	-0.411980
H390	H	0.863504	0.345328	0.088020
H391	H	0.368994	-0.197286	-0.369293
H392	H	0.868994	0.302714	0.130707
H393	H	0.323665	-0.200157	-0.409198
H394	H	0.823665	0.299843	0.090802
H395	H	0.334800	-0.125136	-0.335764
H396	H	0.834800	0.374864	0.164236
H397	H	0.289467	-0.127995	-0.375674
H398	H	0.789467	0.372005	0.124326
H399	H	0.695033	-0.450792	-0.191118
H400	H	1.195033	0.049208	0.308882
H401	H	0.661089	-0.158080	0.198215
H402	H	1.161089	0.341920	0.698215
H403	H	0.661147	-0.157991	0.297260
H404	H	1.161147	0.342009	0.797260
C405	C	0.655768	-0.152439	0.477096
C406	C	1.155768	0.347561	0.977096
C407	C	0.685288	-0.181607	0.441631
C408	C	1.185288	0.318393	0.941631
H409	H	0.632920	-0.129919	0.458545
H410	H	1.132920	0.370081	0.958545
H411	H	0.635932	-0.175344	0.498497
H412	H	1.135932	0.324656	0.998497
H413	H	0.678433	-0.132266	0.498293
H414	H	1.178433	0.367734	0.998293
H415	H	0.662623	-0.201783	0.420437
H416	H	1.162623	0.298217	0.920437
H417	H	0.705125	-0.158699	0.420222
H418	H	1.205125	0.341301	0.920222
H419	H	0.556632	-0.312224	-0.191078
H420	H	1.056632	0.187776	0.308922
C421	C	0.692495	-0.188478	0.609956
C422	C	1.192495	0.311522	1.109956
C423	C	0.685352	-0.181510	0.556256
C424	C	1.185352	0.318490	1.056256
H425	H	0.669670	-0.165928	0.628458
H426	H	1.169670	0.334072	1.128458
H427	H	0.685078	-0.223649	0.619022
H428	H	1.185078	0.276351	1.119022
H429	H	0.727582	-0.180573	0.618806
H430	H	1.227582	0.319427	1.118806
H431	H	0.650267	-0.189419	0.547405
H432	H	1.150267	0.310581	1.047405
H433	H	0.692766	-0.146331	0.547186
H434	H	1.192766	0.353669	1.047186
C435	C	0.815708	-0.372779	0.543395
C436	C	1.315708	0.127221	1.043395
C437	C	0.826660	-0.320912	0.556417
C438	C	1.326660	0.179088	1.056417
H439	H	0.838564	-0.395295	0.561942
H440	H	1.338564	0.104705	1.061942
H441	H	0.780641	-0.380667	0.552440
H442	H	1.280641	0.119333	1.052440
H443	H	0.820502	-0.377552	0.506972
H444	H	1.320502	0.122448	1.006972
H445	H	0.821862	-0.316138	0.592839
H446	H	1.321862	0.183862	1.092839
H447	H	0.861736	-0.313021	0.547375
H448	H	1.361736	0.186979	1.047375
C449	C	-0.016778	-0.152042	-0.351641
C450	C	0.483222	0.347958	0.148359
C451	C	-0.052326	-0.181399	-0.322236
C452	C	0.447674	0.318601	0.177764
H453	H	-0.035264	-0.129349	-0.374382
H454	H	0.464736	0.370651	0.125618
H455	H	0.004494	-0.132048	-0.328899
H456	H	0.504494	0.367952	0.171101
H457	H	0.004540	-0.174822	-0.371591
H458	H	0.504540	0.325178	0.128409
H459	H	-0.073641	-0.158619	-0.302283
H460	H	0.426359	0.341381	0.197717
H461	H	-0.073606	-0.201394	-0.344982
H462	H	0.426394	0.298606	0.155018
C463	C	0.859975	-0.291309	0.410263
C464	C	1.359975	0.208691	0.910263
C465	C	0.826607	-0.321006	0.441808
C466	C	1.326607	0.178994	0.941808
H467	H	0.882812	-0.313858	0.391774
H468	H	1.382812	0.186142	0.891774
H469	H	0.839921	-0.271566	0.386161
H470	H	1.339921	0.228434	0.886161
H471	H	0.879828	-0.268370	0.431464
H472	H	1.379828	0.231630	0.931464
H473	H	0.806750	-0.343943	0.420607
H474	H	1.306750	0.156057	0.920607
H475	H	0.846663	-0.340758	0.465913
H476	H	1.346663	0.159242	0.965913
H477	H	0.850602	-0.344864	0.297481
H478	H	1.350602	0.155136	0.797481
C479	C	0.889697	-0.383516	0.226194
C480	C	1.389697	0.116484	0.726194
C481	C	0.860137	-0.354408	0.190661
C482	C	1.360137	0.145592	0.690661
H483	H	0.912526	-0.406066	0.207697
H484	H	1.412526	0.093934	0.707697
H485	H	0.909554	-0.360575	0.247381
H486	H	1.409554	0.139425	0.747381
H487	H	0.867055	-0.403656	0.247598
H488	H	1.367055	0.096344	0.747598
H489	H	0.882778	-0.334266	0.169260
H490	H	1.382778	0.165734	0.669260
H491	H	0.840278	-0.377352	0.169465
H492	H	1.340278	0.122648	0.669465
H493	H	0.054490	-0.190918	-0.312691
H494	H	0.554490	0.309082	0.187309
H495	H	0.556852	-0.190862	-0.312650
H496	H	1.056852	0.309138	0.187350
C497	C	0.234462	-0.118574	-0.385133
C498	C	0.734462	0.381426	0.114867
C499	C	0.198909	-0.147928	-0.355732
C500	C	0.698909	0.352072	0.144268
H501	H	0.215980	-0.095881	-0.407877
H502	H	0.715980	0.404119	0.092123
H503	H	0.255731	-0.098579	-0.362389
H504	H	0.755731	0.401421	0.137611
H505	H	0.255782	-0.141355	-0.405080
H506	H	0.755782	0.358645	0.094920
H507	H	0.177592	-0.125146	-0.335782
H508	H	0.677592	0.374854	0.164218
H509	H	0.177632	-0.167924	-0.378479
H510	H	0.677632	0.332076	0.121521
H511	H	0.305391	-0.345720	-0.157610
H512	H	0.805391	0.154280	0.342390
C513	C	0.485236	-0.351118	-0.152134
C514	C	0.985236	0.148882	0.347866
C515	C	0.449785	-0.321772	-0.181542
C516	C	0.949785	0.178228	0.318458
H517	H	0.466674	-0.373816	-0.129394
H518	H	0.966674	0.126184	0.370606
H519	H	0.506556	-0.371108	-0.174874
H520	H	1.006556	0.128892	0.325126
H521	H	0.506514	-0.328332	-0.132183
H522	H	1.006514	0.171668	0.367817
H523	H	0.428510	-0.344558	-0.201497
H524	H	0.928510	0.155442	0.298503
H525	H	0.428456	-0.301782	-0.158799
H526	H	0.928456	0.198218	0.341201
