data_functionalizedCrystal
_audit_creation_method	'MofGen! by Chris Wilmer'
_symmetry_space_group_name_H-M	'P1'
_symmetry_Int_Tables_number	1
_symmetry_cell_setting	triclinic
loop_
_symmetry_equiv_pos_as_xyz
  x,y,z
_cell_length_a	17.638891
_cell_length_b	12.827893
_cell_length_c	12.827885
_cell_angle_alpha	89.980728
_cell_angle_beta	78.821672
_cell_angle_gamma	101.211425
loop_
_atom_site_label
_atom_site_type_symbol
_atom_site_fract_x
_atom_site_fract_y
_atom_site_fract_z
Zn1	Zn	0.314619	1.681923	-0.674961
Zn2	Zn	0.446808	1.717216	-0.535562
Zn3	Zn	0.314658	1.507174	-0.500245
Zn4	Zn	0.446749	1.542533	-0.710246
O5	O	0.380709	1.612212	-0.605254
O6	O	0.332163	1.832843	-0.656483
O7	O	0.429319	1.689326	-0.384652
O8	O	0.204050	1.500787	-0.493875
O9	O	0.429282	1.858773	-0.554067
O10	O	0.204022	1.629174	-0.622238
O11	O	0.332229	1.535010	-0.358705
O12	O	0.332172	1.365627	-0.528089
O13	O	0.429181	1.561051	-0.851791
O14	O	0.429219	1.391604	-0.682376
O15	O	0.332106	1.663460	-0.825867
O16	O	0.557403	1.723612	-0.588281
O17	O	0.557360	1.595273	-0.716621
C18	C	0.380694	1.340698	-0.605230
C19	C	0.380706	1.224548	-0.605249
C20	C	0.174557	1.557099	-0.550181
C21	C	0.086707	1.533614	-0.526712
C22	C	0.428803	1.185665	-0.681518
C23	C	0.428817	1.065619	-0.681540
C24	C	-0.202294	1.790653	-0.783595
C25	C	-0.284842	1.768586	-0.761506
C26	C	-0.284802	1.634908	-0.627853
C27	C	-0.202252	1.656960	-0.649934
C28	C	-0.161004	1.734835	-0.727806
C29	C	-0.160963	1.601142	-0.594145
C30	C	-0.078420	1.623197	-0.616221
C31	C	-0.037167	1.701070	-0.694086
C32	C	-0.078462	1.756890	-0.749882
C33	C	-0.202212	1.523273	-0.516269
C34	C	-0.160923	1.467455	-0.460479
C35	C	-0.078379	1.489504	-0.482560
C36	C	-0.037125	1.567377	-0.560426
C37	C	-0.037084	1.433685	-0.426765
C38	C	0.045459	1.455739	-0.448841
C39	C	0.045418	1.589432	-0.582502
C40	C	0.586059	1.667138	-0.660135
C41	C	0.673909	1.690731	-0.683649
C42	C	0.380633	1.612262	-0.877804
C43	C	0.380601	1.612284	-0.993948
C44	C	0.380725	1.884786	-0.605279
C45	C	0.380731	2.000941	-0.605289
C46	C	0.332555	1.662964	-1.032903
C47	C	0.332521	1.662987	-1.152944
C48	C	0.380727	1.612206	-0.333749
C49	C	0.380537	1.612327	-0.217545
H50	H	0.469967	1.241250	-0.746800
H51	H	0.291445	1.706330	-0.977382
O52	O	0.283469	1.714658	-1.193126
C53	C	0.294363	1.703191	-1.304037
H54	H	0.320253	1.629459	-1.325750
H55	H	0.336465	1.776416	-1.346266
C56	C	0.182616	1.781912	-1.312145
C57	C	0.214409	1.691347	-1.338813
H58	H	0.133298	1.774611	-1.333599
H59	H	0.175278	1.789642	-1.237423
H60	H	0.217709	1.842924	-1.347338
H61	H	0.179321	1.630340	-1.303610
H62	H	0.221739	1.683608	-1.413530
O63	O	0.429653	1.560718	-1.177431
C64	C	0.480692	1.633905	-1.127957
H65	H	0.452813	1.705657	-1.104275
H66	H	0.539281	1.661021	-1.185611
C67	C	0.529198	1.492167	-1.057110
C68	C	0.494954	1.580290	-1.028015
H69	H	0.538000	1.459095	-0.995464
H70	H	0.494815	1.442859	-1.090444
H71	H	0.578019	1.514777	-1.105156
H72	H	0.446130	1.557678	-0.979980
H73	H	0.529330	1.629593	-0.994670
H74	H	0.421703	1.568905	-1.049467
O75	O	-0.077194	1.357924	-0.351262
C76	C	-0.124997	1.277697	-0.397966
H77	H	-0.100162	1.277896	-0.486914
H78	H	-0.187549	1.293305	-0.384838
C79	C	-0.156770	1.168464	-0.237319
C80	C	-0.126263	1.168703	-0.346564
H81	H	-0.157555	1.101231	-0.205610
H82	H	-0.124567	1.222516	-0.205851
H83	H	-0.208894	1.181475	-0.226393
H84	H	-0.074137	1.155705	-0.357488
H85	H	-0.158458	1.114646	-0.378033
H86	H	0.469997	1.032132	-0.746833
H87	H	0.339554	1.034422	-0.539987
H88	H	0.339536	1.168962	-0.539973
O89	O	-0.282394	1.501942	-0.494654
C90	C	-0.309922	1.521378	-0.387134
H91	H	-0.262328	1.579644	-0.356668
H92	H	-0.324559	1.443475	-0.337937
C93	C	-0.442968	1.497573	-0.414717
C94	C	-0.384515	1.569144	-0.377301
H95	H	-0.488982	1.527033	-0.408649
H96	H	-0.424423	1.484474	-0.487155
H97	H	-0.455155	1.432659	-0.373714
H98	H	-0.372321	1.634051	-0.418312
H99	H	-0.403059	1.582255	-0.304870
O100	O	0.085413	1.664986	-0.658284
C101	C	0.065210	1.636735	-0.757029
H102	H	0.005264	1.580568	-0.743155
H103	H	0.111634	1.595395	-0.804617
C104	C	0.135034	1.806580	-0.836392
C105	C	0.061404	1.737601	-0.819351
H106	H	0.132690	1.868798	-0.874838
H107	H	0.148648	1.825612	-0.769867
H108	H	0.173713	1.772117	-0.876045
H109	H	0.022729	1.772060	-0.779688
H110	H	0.047783	1.718577	-0.885871
O111	O	0.043016	1.722665	-0.715444
C112	C	0.070619	1.830196	-0.696024
H113	H	0.023079	1.860681	-0.637750
H114	H	0.085233	1.879394	-0.773921
C115	C	0.203635	1.802574	-0.719876
C116	C	0.145249	1.840014	-0.648295
H117	H	0.249673	1.808632	-0.690439
H118	H	0.185040	1.730129	-0.732963
H119	H	0.215805	1.843577	-0.784785
H120	H	0.133074	1.799003	-0.583394
H121	H	0.163844	1.912452	-0.635196
H122	H	-0.318395	1.571505	-0.564447
H123	H	-0.044875	1.820282	-0.813313
H124	H	-0.318455	1.814048	-0.806942
O125	O	-0.162341	1.866344	-0.859264
C126	C	-0.216481	1.910852	-0.903812
H127	H	-0.275298	1.898776	-0.845275
H128	H	-0.225311	1.870216	-0.980798
C129	C	-0.112003	2.045509	-0.999448
C130	C	-0.184241	2.030684	-0.927548
H131	H	-0.092115	2.119426	-1.014094
H132	H	-0.075526	2.015521	-0.969439
H133	H	-0.119370	2.011638	-1.063595
H134	H	-0.176871	2.064543	-0.863398
H135	H	-0.220715	2.060681	-0.957547
O136	O	-0.200956	1.391926	-0.384704
C137	C	-0.180720	1.420110	-0.285963
H138	H	-0.158019	1.509659	-0.286750
H139	H	-0.132801	1.376879	-0.271469
C140	C	-0.281897	1.278345	-0.195649
C141	C	-0.254020	1.388332	-0.196613
H142	H	-0.327110	1.258739	-0.140532
H143	H	-0.295529	1.259353	-0.262172
H144	H	-0.241957	1.242332	-0.183575
H145	H	-0.293956	1.424342	-0.208700
H146	H	-0.240397	1.407329	-0.130089
O147	O	0.085450	1.401385	-0.394587
C148	C	0.031345	1.327939	-0.321107
H149	H	-0.027516	1.308603	-0.348165
H150	H	0.022609	1.363848	-0.239405
C151	C	0.135849	1.249071	-0.281426
C152	C	0.063557	1.225315	-0.314664
H153	H	0.155719	1.185769	-0.277447
H154	H	0.172301	1.298555	-0.330928
H155	H	0.128559	1.278997	-0.213344
H156	H	0.070850	1.195402	-0.382750
H157	H	0.027106	1.175823	-0.265173
