data_functionalizedCrystal
_audit_creation_method	'MofGen! by Chris Wilmer'
_symmetry_space_group_name_H-M	'P1'
_symmetry_Int_Tables_number	1
_symmetry_cell_setting	triclinic
loop_
_symmetry_equiv_pos_as_xyz
  x,y,z
_cell_length_a	6.394989
_cell_length_b	19.288864
_cell_length_c	17.766277
_cell_angle_alpha	89.976791
_cell_angle_beta	89.996862
_cell_angle_gamma	84.816979
loop_
_atom_site_label
_atom_site_type_symbol
_atom_site_fract_x
_atom_site_fract_y
_atom_site_fract_z
O1	O	0.260546	0.923905	-0.062831
O2	O	0.295693	0.721989	-0.062779
O3	O	-0.025971	0.825813	-0.062807
O4	O	0.582211	0.820081	-0.062804
O5	O	-0.025988	0.825794	0.062382
O6	O	0.295677	0.721970	0.062409
O7	O	0.260530	0.923886	0.062357
Cu8	Cu	0.278102	0.822926	0.073814
Cu9	Cu	0.278121	0.822948	-0.074236
O10	O	0.582195	0.820062	0.062385
C11	C	0.294554	0.696092	-0.000178
C12	C	0.291159	0.618955	-0.000159
C13	C	0.479898	0.576107	-0.000170
C14	C	0.476708	0.503629	-0.000178
C15	C	0.284770	0.474001	-0.000191
C16	C	0.096007	0.516859	-0.000175
C17	C	0.099202	0.589335	-0.000159
C18	C	0.133891	0.364268	-0.044076
C19	C	0.130704	0.291792	-0.044096
C20	C	0.274908	0.250459	-0.000236
C21	C	0.422335	0.281609	0.043635
C22	C	0.425530	0.354086	0.043651
C23	C	0.281284	0.395413	-0.000207
C24	C	0.460201	0.129022	-0.000255
C25	C	0.457004	0.056542	-0.000259
C26	C	0.076297	0.069774	-0.000264
C27	C	0.079500	0.142252	-0.000252
C28	C	0.271458	0.171871	-0.000252
C29	C	0.660014	0.821205	-0.000213
C30	C	0.896216	0.824668	-0.000216
C31	C	0.261669	0.949783	-0.000245
C32	C	0.265064	1.026920	-0.000270
N33	N	0.278087	0.822915	0.177944
N34	N	0.278120	0.822964	-0.178366
C35	C	0.135724	0.868905	0.217319
C36	C	0.135714	0.868909	0.296121
C37	C	0.278104	0.822930	0.335545
C38	C	0.420478	0.776932	0.296161
C39	C	0.420470	0.776925	0.217360
C40	C	0.468405	0.815495	0.460385
C41	C	0.468416	0.815508	0.539184
C42	C	0.278129	0.822949	0.578591
C43	C	0.087822	0.830393	0.539190
C44	C	0.087814	0.830386	0.460389
C45	C	0.278128	0.822933	0.420990
C46	C	0.135743	0.868945	0.703412
C47	C	0.135731	0.868944	0.782215
C48	C	0.420513	0.776971	0.782253
C49	C	0.420507	0.776969	0.703452
C50	C	0.278125	0.822959	0.664036
H51	H	0.636205	0.600218	-0.000171
Br52	Br	-0.170444	0.840481	0.406918
Br53	Br	-0.164484	0.476652	-0.000185
Br54	Br	-0.170444	0.840501	0.592660
Br55	Br	-0.057495	0.931358	0.649917
H56	H	0.610704	0.021656	-0.000263
H57	H	-0.079983	0.045652	-0.000321
H58	H	0.536411	0.739495	0.328264
Br59	Br	-0.156964	0.647490	-0.000143
Br60	Br	0.720708	0.169224	-0.000249
Br61	Br	0.613690	0.714505	0.163918
H62	H	0.010669	0.266436	-0.079821
H63	H	0.630407	0.468735	-0.000185
Br64	Br	-0.061839	0.420357	-0.103603
Br65	Br	0.613730	0.714554	0.650008
Br66	Br	-0.057511	0.931316	0.163825
Br67	Br	-0.057510	0.931357	0.835657
Br68	Br	0.625592	0.396360	0.103188
Br69	Br	0.618063	0.225523	0.103161
H70	H	-0.074192	0.177139	-0.000248
Br71	Br	-0.057513	0.931327	0.349568
H72	H	0.536441	0.739532	0.814352
H73	H	0.623374	0.809451	0.571258
H74	H	0.623370	0.809424	0.428306
