data_functionalizedCrystal
_audit_creation_method	'MofGen! by Chris Wilmer'
_symmetry_space_group_name_H-M	'P1'
_symmetry_Int_Tables_number	1
_symmetry_cell_setting	triclinic
loop_
_symmetry_equiv_pos_as_xyz
  x,y,z
_cell_length_a	19.288859
_cell_length_b	16.109304
_cell_length_c	17.766277
_cell_angle_alpha	89.996447
_cell_angle_beta	89.989768
_cell_angle_gamma	83.298182
loop_
_atom_site_label
_atom_site_type_symbol
_atom_site_fract_x
_atom_site_fract_y
_atom_site_fract_z
O1	O	0.921604	0.103691	-0.062604
O2	O	1.421604	0.603691	0.437396
O3	O	0.719376	0.117688	-0.062602
O4	O	1.219376	0.617688	0.437398
O5	O	0.826045	-0.010360	-0.062604
O6	O	1.326045	0.489640	0.437396
O7	O	0.814936	0.231740	-0.062603
O8	O	1.314936	0.731740	0.437397
O9	O	0.826026	-0.010367	0.062585
O10	O	1.326026	0.489633	0.562585
O11	O	0.719358	0.117681	0.062586
O12	O	1.219358	0.617681	0.562586
O13	O	0.921585	0.103685	0.062584
O14	O	1.421585	0.603685	0.562584
Cu15	Cu	0.820470	0.110683	0.074016
Cu16	Cu	1.320470	0.610683	0.574016
Cu17	Cu	0.820492	0.110690	-0.074034
Cu18	Cu	1.320492	0.610690	0.425966
O19	O	0.814917	0.231733	0.062586
O20	O	1.314917	0.731733	0.562586
C21	C	0.693489	0.117235	-0.000008
C22	C	1.193489	0.617235	0.499992
C23	C	0.616382	0.115886	-0.000007
C24	C	1.116382	0.615886	0.499993
C25	C	0.052500	0.181891	-0.000008
C26	C	0.552500	0.681891	0.499992
C27	C	0.124949	0.183166	-0.000012
C28	C	0.624949	0.683166	0.499988
C29	C	0.169476	0.108033	-0.000011
C30	C	0.669476	0.608033	0.499989
C31	C	0.141548	0.031619	-0.000025
C32	C	0.641548	0.531619	0.499975
C33	C	0.069100	0.030346	-0.000028
C34	C	0.569100	0.530346	0.499972
C35	C	0.290606	0.051997	0.043851
C36	C	0.790606	0.551997	0.543851
C37	C	0.363052	0.053273	0.043859
C38	C	0.863052	0.553273	0.543859
C39	C	0.392931	0.111956	-0.000003
C40	C	0.892931	0.611956	0.499997
C41	C	0.350353	0.169377	-0.043864
C42	C	0.850353	0.669377	0.456136
C43	C	0.277905	0.168104	-0.043867
C44	C	0.777905	0.668104	0.456133
C45	C	0.248035	0.109405	-0.000007
C46	C	0.748035	0.609405	0.499993
C47	C	0.499409	0.189747	0.000002
C48	C	0.999409	0.689747	0.500002
C49	C	0.571861	0.191019	-0.000007
C50	C	1.071861	0.691019	0.499993
C51	C	0.588458	0.039471	-0.000012
C52	C	1.088458	0.539471	0.499988
C53	C	0.516008	0.038201	-0.000011
C54	C	1.016008	0.538201	0.499989
C55	C	0.471488	0.113342	-0.000001
C56	C	0.971488	0.613342	0.499999
C57	C	0.825585	-0.041337	-0.000011
C58	C	1.325585	0.458663	0.499989
C59	C	0.824235	-0.133627	-0.000016
C60	C	1.324235	0.366373	0.499984
C61	C	0.821126	-0.345951	-0.068254
C62	C	1.321126	0.154049	0.431746
C63	C	0.819851	-0.432666	-0.068253
C64	C	1.319851	0.067334	0.431747
C65	C	0.819834	-0.432670	0.068234
C66	C	1.319834	0.067330	0.568234
C67	C	0.821104	-0.345955	0.068233
C68	C	1.321104	0.154045	0.568233
C69	C	0.821753	-0.302598	-0.000013
C70	C	1.321753	0.197402	0.499987
C71	C	0.819208	-0.476029	-0.000011
C72	C	1.319208	0.023971	0.499989
C73	C	0.817826	-0.570050	-0.000010
C74	C	1.317826	-0.070050	0.499990
C75	C	0.823135	-0.208571	-0.000015
C76	C	1.323135	0.291429	0.499985
C77	C	0.947472	0.104138	-0.000012
C78	C	1.447472	0.604138	0.499988
C79	C	1.024579	0.105487	-0.000018
C80	C	1.524579	0.605487	0.499982
C81	C	0.815377	0.262710	-0.000008
C82	C	1.315377	0.762710	0.499992
C83	C	0.816727	0.355000	-0.000008
C84	C	1.316727	0.855000	0.499992
N85	N	0.820459	0.110677	0.178146
N86	N	1.320459	0.610677	0.678146
N87	N	0.820508	0.110689	-0.178164
N88	N	1.320508	0.610689	0.321836
C89	C	0.867707	0.054005	0.217532
C90	C	1.367707	0.554005	0.717532
C91	C	0.867711	0.054001	0.296334
C92	C	1.367711	0.554001	0.796334
C93	C	0.820474	0.110683	0.335747
C94	C	1.320474	0.610683	0.835747
C95	C	0.773217	0.167360	0.296351
C96	C	1.273217	0.667360	0.796351
C97	C	0.773210	0.167356	0.217551
C98	C	1.273210	0.667356	0.717551
C99	C	0.811357	0.186437	0.460585
C100	C	1.311357	0.686437	0.960585
C101	C	0.811369	0.186441	0.539384
C102	C	1.311369	0.686441	1.039384
C103	C	0.820493	0.110693	0.578793
C104	C	1.320493	0.610693	1.078793
C105	C	0.829619	0.034938	0.539394
C106	C	1.329619	0.534938	1.039394
C107	C	0.829612	0.034934	0.460594
C108	C	1.329612	0.534934	0.960594
C109	C	0.820476	0.110693	0.421193
C110	C	1.320476	0.610693	0.921193
C111	C	0.867747	0.054012	0.703625
C112	C	1.367747	0.554012	1.203625
C113	C	0.867747	0.054007	0.782429
C114	C	1.367747	0.554007	1.282429
C115	C	0.773256	0.167373	0.782444
C116	C	1.273256	0.667373	1.282444
C117	C	0.773253	0.167371	0.703642
C118	C	1.273253	0.667371	1.203642
C119	C	0.820503	0.110691	0.664238
C120	C	1.320503	0.610691	1.164238
H121	H	0.243241	0.214856	-0.079581
H122	H	0.743241	0.714856	0.420419
H123	H	0.819307	-0.467983	0.123798
H124	H	1.319307	0.032017	0.623798
C125	C	0.821796	-0.298265	0.143301
C126	C	1.321796	0.201735	0.643301
H127	H	0.821238	-0.336507	0.183946
H128	H	1.321238	0.163493	0.683946
H129	H	0.781811	-0.257944	0.146138
H130	H	1.281811	0.242056	0.646138
H131	H	0.862777	-0.270933	0.146132
H132	H	1.362777	0.229067	0.646132
H133	H	0.046368	-0.031873	-0.000037
H134	H	0.546368	0.468127	0.499963
H135	H	0.463159	0.250931	0.000009
H136	H	0.963159	0.750931	0.500009
H137	H	0.819338	-0.467960	-0.123821
H138	H	1.319338	0.032040	0.376179
H139	H	0.016255	0.243076	-0.000003
H140	H	0.516255	0.743076	0.499997
C141	C	0.721260	0.229711	0.339702
C142	C	1.221260	0.729711	0.839702
H143	H	0.728035	0.221603	0.392274
H144	H	1.228035	0.721603	0.892274
H145	H	0.674906	0.220825	0.326805
H146	H	1.174906	0.720825	0.826805
H147	H	0.728791	0.285178	0.326777
H148	H	1.228791	0.785178	0.826777
H149	H	0.734782	0.213522	0.671572
H150	H	1.234782	0.713522	1.171572
C151	C	0.919711	-0.008340	0.660277
C152	C	1.419711	0.491660	1.160277
H153	H	0.947845	-0.042102	0.695024
H154	H	1.447845	0.457898	1.195024
H155	H	0.948615	0.021477	0.629526
H156	H	1.448615	0.521477	1.129526
H157	H	0.894727	-0.042874	0.629548
H158	H	1.394727	0.457126	1.129548
C159	C	0.821835	-0.298256	-0.143319
C160	C	1.321835	0.201744	0.356681
H161	H	0.822688	-0.240403	-0.133549
H162	H	1.322688	0.259597	0.366451
H163	H	0.781150	-0.305972	-0.171357
H164	H	1.281150	0.194028	0.328643
H165	H	0.862116	-0.318962	-0.171358
H166	H	1.362116	0.181038	0.328642
C167	C	0.919672	-0.008349	0.174192
C168	C	1.419672	0.491651	0.674192
H169	H	0.947808	-0.042107	0.208939
H170	H	1.447808	0.457893	0.708939
H171	H	0.948574	0.021465	0.143436
H172	H	1.448574	0.521465	0.643436
H173	H	0.894688	-0.042888	0.143467
H174	H	1.394688	0.457112	0.643467
H175	H	0.594591	0.253239	-0.000005
H176	H	1.094591	0.753239	0.499995
H177	H	0.906188	0.007850	0.328408
H178	H	1.406188	0.507850	0.828408
C179	C	0.839639	-0.048388	0.417255
C180	C	1.339639	0.451612	0.917255
H181	H	0.845169	-0.093502	0.452004
H182	H	1.345169	0.406498	0.952004
H183	H	0.880020	-0.050146	0.386417
H184	H	1.380020	0.449854	0.886417
H185	H	0.799900	-0.052925	0.386613
H186	H	1.299900	0.447075	0.886613
H187	H	0.837048	-0.026744	0.571479
H188	H	1.337048	0.473256	1.071479
C189	C	0.801331	0.269765	0.582720
C190	C	1.301331	0.769765	1.082720
H191	H	0.802651	0.258920	0.635294
H192	H	1.302651	0.758920	1.135294
H193	H	0.757516	0.299542	0.569818
H194	H	1.257516	0.799542	1.069818
H195	H	0.837647	0.302235	0.569789
H196	H	1.337647	0.802235	1.069789
H197	H	0.906220	0.007854	0.814497
H198	H	1.406220	0.507854	1.314497
H199	H	0.734792	0.213522	0.814533
H200	H	1.234792	0.713522	1.314533
C201	C	0.637426	-0.043177	-0.000014
C202	C	1.137426	0.456823	0.499986
H203	H	0.610418	-0.088864	-0.000023
H204	H	1.110418	0.411136	0.499977
H205	H	0.666027	-0.045837	0.043641
H206	H	1.166027	0.454163	0.543641
H207	H	0.666038	-0.045824	-0.043676
H208	H	1.166038	0.454176	0.456324
C209	C	0.801325	0.269765	0.417243
C210	C	1.301325	0.769765	0.917243
H211	H	0.795903	0.314881	0.451991
H212	H	1.295903	0.814881	0.951991
H213	H	0.760881	0.271577	0.386512
H214	H	1.260881	0.771577	0.886512
H215	H	0.841015	0.274249	0.386494
H216	H	1.341015	0.774249	0.886494
H217	H	0.734734	0.213506	0.185482
H218	H	1.234734	0.713506	0.685482
H219	H	0.374679	0.217164	-0.079578
H220	H	0.874679	0.717164	0.420422
C221	C	0.155670	0.267213	0.000003
C222	C	0.655670	0.767213	0.500003
H223	H	0.118779	0.311780	0.000012
H224	H	0.618779	0.811780	0.500012
H225	H	0.183598	0.270867	-0.043650
H226	H	0.683598	0.770867	0.456350
H227	H	0.183577	0.270846	0.043668
H228	H	0.683577	0.770846	0.543668
H229	H	0.397714	0.006522	0.079577
H230	H	0.897714	0.506522	0.579577
C231	C	0.485290	-0.045842	-0.000018
C232	C	0.985290	0.454158	0.499982
H233	H	0.435766	-0.035840	-0.000027
H234	H	0.935766	0.464160	0.499973
H235	H	0.500564	-0.076776	0.043635
H236	H	1.000564	0.423224	0.543635
H237	H	0.500583	-0.076757	-0.043682
H238	H	1.000583	0.423243	0.456318
C239	C	0.257746	-0.012557	0.092104
C240	C	0.757746	0.487443	0.592104
H241	H	0.293477	-0.046563	0.118234
H242	H	0.793477	0.453437	0.618234
H243	H	0.233166	-0.046622	0.060484
H244	H	0.733166	0.453378	0.560484
H245	H	0.226330	0.015694	0.127373
H246	H	0.726330	0.515694	0.627373
C247	C	0.190524	-0.051025	-0.000021
C248	C	0.690524	0.448975	0.499979
H249	H	0.237671	-0.039324	-0.000009
H250	H	0.737671	0.460676	0.499991
H251	H	0.182072	-0.082363	-0.043679
H252	H	0.682072	0.417637	0.456321
H253	H	0.182050	-0.082369	0.043639
H254	H	0.682050	0.417631	0.543639
