data_functionalizedCrystal
_audit_creation_method	'MofGen! by Chris Wilmer'
_symmetry_space_group_name_H-M	'P1'
_symmetry_Int_Tables_number	1
_symmetry_cell_setting	triclinic
loop_
_symmetry_equiv_pos_as_xyz
  x,y,z
_cell_length_a	17.639929
_cell_length_b	17.077404
_cell_length_c	17.077396
_cell_angle_alpha	90.019200
_cell_angle_beta	78.767106
_cell_angle_gamma	101.198683
loop_
_atom_site_label
_atom_site_type_symbol
_atom_site_fract_x
_atom_site_fract_y
_atom_site_fract_z
Zn1	Zn	-0.314690	-1.263266	-0.380745
Zn2	Zn	-0.446878	-1.289737	-0.222957
Zn3	Zn	-0.314717	-1.132008	-0.249483
Zn4	Zn	-0.446826	-1.158515	-0.354186
O5	O	-0.380778	-1.210881	-0.301843
O6	O	-0.332235	-1.376626	-0.359827
O7	O	-0.429379	-1.268800	-0.116622
O8	O	-0.204104	-1.127248	-0.289111
O9	O	-0.429353	-1.396075	-0.243901
O10	O	-0.204084	-1.223682	-0.385549
O11	O	-0.332281	-1.152917	-0.136110
O12	O	-0.332231	-1.025675	-0.263358
O13	O	-0.429265	-1.172425	-0.467563
O14	O	-0.429291	-1.045149	-0.340283
O15	O	-0.332185	-1.249385	-0.487075
O16	O	-0.557480	-1.294502	-0.218148
O17	O	-0.557442	-1.198093	-0.314562
C18	C	-0.380759	-1.006930	-0.301818
C19	C	-0.380770	-0.919682	-0.301822
C20	C	-0.586141	-1.252068	-0.260612
C21	C	-0.673996	-1.269759	-0.243000
C22	C	-0.431385	-0.888868	-0.341780
C23	C	-0.431385	-0.806888	-0.341789
C24	C	-0.380774	-0.755724	-0.301836
C25	C	-0.330154	-0.786542	-0.261877
C26	C	-0.330150	-0.868521	-0.261873
C27	C	-0.330166	-0.615675	-0.261888
C28	C	-0.330170	-0.533691	-0.261891
C29	C	-0.431401	-0.554042	-0.341804
C30	C	-0.431397	-0.636020	-0.341800
C31	C	-0.380778	-0.666833	-0.301840
C32	C	-0.797818	-1.344921	-0.168030
C33	C	-0.715265	-1.328291	-0.184585
C34	C	-0.715272	-1.227837	-0.284885
C35	C	-0.797828	-1.244461	-0.268341
C36	C	-0.839094	-1.303004	-0.209912
C37	C	-0.839103	-1.202544	-0.310223
C38	C	-0.921651	-1.219164	-0.293678
C39	C	-0.962923	-1.277702	-0.235250
C40	C	-0.921642	-1.319624	-0.193367
C41	C	-0.797835	-1.143998	-0.368648
C42	C	-0.839111	-1.102080	-0.410530
C43	C	-0.921661	-1.118704	-0.393989
C44	C	-0.962933	-1.177242	-0.335561
C45	C	-0.962942	-1.076782	-0.435872
C46	C	-1.045490	-1.093403	-0.419326
C47	C	-1.045481	-1.193862	-0.319015
C48	C	-0.174612	-1.169555	-0.343251
C49	C	-0.086757	-1.151945	-0.360897
C50	C	-0.380716	-1.210909	-0.506599
C51	C	-0.380690	-1.210920	-0.593854
C52	C	-0.380792	-0.415628	-0.301860
C53	C	-0.380785	-0.502877	-0.301849
C54	C	-0.330125	-1.150594	-0.644993
C55	C	-0.330107	-1.150603	-0.726977
C56	C	-0.380651	-1.210942	-0.757822
C57	C	-0.431222	-1.271272	-0.706676
C58	C	-0.431243	-1.271259	-0.624693
C59	C	-0.431172	-1.271296	-0.877556
C60	C	-0.431150	-1.271310	-0.959546
C61	C	-0.330037	-1.150640	-0.979840
C62	C	-0.330058	-1.150627	-0.897857
C63	C	-0.380628	-1.210958	-0.846717
C64	C	-0.380782	-1.210888	-0.097894
C65	C	-0.380585	-1.210984	-0.010684
H66	H	-0.472601	-0.930522	-0.374311
H67	H	-0.929333	-1.029112	-0.483440
C68	C	-0.486770	-1.337650	-0.993490
C69	C	-0.576626	-1.349202	-0.964175
C70	C	-0.632256	-1.415529	-0.998126
C71	C	-0.598029	-1.470304	-1.061393
C72	C	-0.508169	-1.458754	-1.090711
C73	C	-0.452539	-1.392427	-1.056760
H74	H	-0.601967	-1.308653	-0.917338
H75	H	-0.698776	-1.424079	-0.976422
H76	H	-0.639210	-1.519403	-1.086526
H77	H	-0.482828	-1.499303	-1.137548
H78	H	-0.386018	-1.383877	-1.078464
C79	C	-0.274459	-1.084254	-0.863928
C80	C	-0.184600	-1.072648	-0.893250
C81	C	-0.129002	-1.006273	-0.859321
C82	C	-0.163263	-0.951503	-0.796070
C83	C	-0.253127	-0.963107	-0.766744
C84	C	-0.308725	-1.029482	-0.800673
H85	H	-0.159234	-1.113193	-0.940075
H86	H	-0.062479	-0.997683	-0.881030
H87	H	-0.122106	-0.902368	-0.770954
H88	H	-0.278493	-0.922562	-0.719919
H89	H	-0.375248	-1.038072	-0.778964
H90	H	-0.472602	-0.781804	-0.374326
C91	C	-0.486870	-1.337615	-0.568436
C92	C	-0.486903	-1.337598	-0.478256
C93	C	-0.542537	-1.403952	-0.421999
C94	C	-0.598138	-1.470323	-0.455922
C95	C	-0.598107	-1.470343	-0.546107
C96	C	-0.542472	-1.403989	-0.602364
H97	H	-0.445742	-1.288464	-0.453140
H98	H	-0.542560	-1.403937	-0.355238
H99	H	-0.639322	-1.519442	-0.414277
H100	H	-0.639268	-1.519477	-0.571223
H101	H	-0.542450	-1.404004	-0.669125
C102	C	-0.487070	-0.692301	-0.385749
C103	C	-0.576919	-0.699052	-0.361161
C104	C	-0.632591	-0.755332	-0.405113
C105	C	-0.598414	-0.804861	-0.473652
C106	C	-0.508560	-0.798112	-0.498243
C107	C	-0.452888	-0.741832	-0.454291
H108	H	-0.602223	-0.662386	-0.310421
H109	H	-0.699107	-0.760328	-0.386908
H110	H	-0.639626	-0.846523	-0.506187
H111	H	-0.483256	-0.834778	-0.548982
H112	H	-0.386373	-0.736836	-0.472495
C113	C	-0.274476	-0.477404	-0.217969
C114	C	-0.218776	-0.511289	-0.174039
C115	C	-0.163072	-0.455000	-0.130128
C116	C	-0.163069	-0.364825	-0.130147
C117	C	-0.218771	-0.330936	-0.174079
C118	C	-0.274475	-0.387225	-0.217990
H119	H	-0.218777	-0.578046	-0.174024
H120	H	-0.121838	-0.480088	-0.097607
H121	H	-0.121834	-0.323157	-0.097641
H122	H	-0.218770	-0.264179	-0.174094
H123	H	-0.315709	-0.362137	-0.250511
C124	C	-0.274410	-1.084275	-1.036092
C125	C	-0.184558	-1.072678	-1.042876
C126	C	-0.128930	-1.006320	-1.099133
C127	C	-0.163155	-0.951559	-1.148606
C128	C	-0.253012	-0.963154	-1.141824
C129	C	-0.308640	-1.029513	-1.085567
H130	H	-0.159219	-1.113217	-1.006252
H131	H	-0.062412	-0.997736	-1.104153
H132	H	-0.121976	-0.902436	-1.190251
H133	H	-0.278351	-0.922616	-1.178448
H134	H	-0.375158	-1.038096	-1.080546
H135	H	-0.288942	-0.744877	-0.229350
C136	C	-0.967040	-1.384025	-0.129096
C137	C	-1.023716	-1.457042	-0.151811
C138	C	-1.069113	-1.521440	-0.087543
C139	C	-1.057834	-1.512820	-0.000560
C140	C	-1.001156	-1.439800	0.022159
C141	C	-0.955759	-1.375403	-0.042109
H142	H	-1.032067	-1.463426	-0.216204
H143	H	-1.111070	-1.575494	-0.104361
H144	H	-1.091440	-1.560491	0.047015
H145	H	-0.992804	-1.433417	0.086552
H146	H	-0.913802	-1.321349	-0.025291
C147	C	-0.274483	-0.649574	-0.217936
C148	C	-0.184635	-0.620284	-0.242528
C149	C	-0.128956	-0.654186	-0.198577
C150	C	-0.163125	-0.717379	-0.130034
C151	C	-0.252977	-0.746673	-0.105438
C152	C	-0.308656	-0.712771	-0.149389
H153	H	-0.159338	-0.573502	-0.293271
H154	H	-0.062442	-0.632501	-0.216785
H155	H	-0.121908	-0.742476	-0.097498
H156	H	-0.278275	-0.793455	-0.054695
H157	H	-0.375171	-0.734456	-0.131181
C158	C	-0.669878	-1.163442	-0.349155
C159	C	-0.681159	-1.172069	-0.436137
C160	C	-0.635767	-1.107674	-0.500409
C161	C	-0.579094	-1.034651	-0.477700
C162	C	-0.567811	-1.026021	-0.390714
C163	C	-0.613202	-1.090416	-0.326442
H164	H	-0.723114	-1.226127	-0.452951
H165	H	-0.644121	-1.114063	-0.564801
H166	H	-0.545493	-0.986982	-0.525278
H167	H	-0.525856	-0.971963	-0.373900
H168	H	-0.604849	-1.084027	-0.262050
H169	H	-0.831420	-1.392600	-0.120459
C170	C	-0.486797	-1.337656	-0.821295
C171	C	-0.480354	-1.425604	-0.833862
C172	C	-0.535974	-1.491962	-0.777599
C173	C	-0.598038	-1.470370	-0.708768
C174	C	-0.604484	-1.382418	-0.696197
C175	C	-0.548864	-1.316060	-0.752461
H176	H	-0.434408	-1.441591	-0.884818
H177	H	-0.531201	-1.557070	-0.786904
H178	H	-0.639211	-1.519492	-0.667118
H179	H	-0.650430	-1.366431	-0.645242
H180	H	-0.553636	-1.250951	-0.743155
C181	C	-0.793713	-1.037686	-0.474800
C182	C	-0.805139	-0.950753	-0.466024
C183	C	-0.759741	-0.886359	-0.530295
C184	C	-0.702918	-0.908898	-0.603342
C185	C	-0.691489	-0.995834	-0.612120
C186	C	-0.736886	-1.060229	-0.547849
H187	H	-0.847206	-0.934065	-0.411948
H188	H	-0.768202	-0.822003	-0.523797
H189	H	-0.669312	-0.861229	-0.650919
H190	H	-0.649422	-1.012522	-0.666196
H191	H	-0.728425	-1.124585	-0.554348
H192	H	-0.730620	-1.130460	-0.382110
C193	C	-1.090900	-1.047296	-0.465396
C194	C	-1.045511	-0.982905	-0.529668
C195	C	-1.090921	-0.936795	-0.575736
C196	C	-1.181721	-0.955075	-0.557532
C197	C	-1.227115	-1.019469	-0.493258
C198	C	-1.181705	-1.065579	-0.447190
H199	H	-0.978291	-0.969371	-0.543146
H200	H	-1.057317	-0.889126	-0.623316
H201	H	-1.215336	-0.920941	-0.591634
H202	H	-1.294335	-1.033003	-0.479779
H203	H	-1.215309	-1.113248	-0.399610
H204	H	-0.472615	-0.528950	-0.374344
H205	H	-0.288930	-0.893607	-0.229340
H206	H	-0.288962	-1.101462	-0.619887
H207	H	-1.079082	-1.241541	-0.271444
H208	H	-1.030139	-1.291233	-0.221780
H209	H	-0.681662	-1.362430	-0.150474
H210	H	-0.288935	-1.101477	-0.768611
H211	H	-0.472379	-1.320398	-0.731796
