data_functionalizedCrystal
_audit_creation_method	'MofGen! by Chris Wilmer'
_symmetry_space_group_name_H-M	'P1'
_symmetry_Int_Tables_number	1
_symmetry_cell_setting	triclinic
loop_
_symmetry_equiv_pos_as_xyz
  x,y,z
_cell_length_a	10.654558
_cell_length_b	11.792254
_cell_length_c	9.130313
_cell_angle_alpha	89.998555
_cell_angle_beta	90.000369
_cell_angle_gamma	84.343457
loop_
_atom_site_label
_atom_site_type_symbol
_atom_site_fract_x
_atom_site_fract_y
_atom_site_fract_z
O1	O	1.667385	0.159459	-0.121780
O2	O	1.301866	0.174637	-0.121787
O3	O	1.493487	0.001899	-0.121773
O4	O	1.475763	0.332197	-0.121794
O5	O	1.493485	0.001904	0.121826
O6	O	1.301863	0.174642	0.121812
O7	O	1.667383	0.159464	0.121819
Cu8	Cu	1.484623	0.167053	0.144058
Cu9	Cu	1.484625	0.167048	-0.144026
O10	O	1.475761	0.332202	0.121805
C11	C	1.255070	0.173523	0.000011
C12	C	1.115636	0.170183	0.000009
C13	C	1.492369	-0.040392	0.000026
C14	C	1.489028	-0.166413	0.000025
C15	C	0.919112	0.165485	-0.132777
C16	C	1.050126	0.168613	-0.132779
C17	C	1.050127	0.168612	0.132806
C18	C	0.919117	0.165476	0.132806
C19	C	0.853607	0.163927	-0.265573
C20	C	0.919107	0.165495	-0.398371
C21	C	1.050121	0.168624	-0.398373
C22	C	1.115635	0.170184	-0.265576
C23	C	1.486313	-0.268755	0.000019
C24	C	1.482917	-0.397150	0.000006
C25	C	1.714178	0.160578	0.000017
C26	C	1.853612	0.163918	0.000010
C27	C	1.476879	0.374493	0.000003
C28	C	1.480220	0.500513	-0.000006
N29	N	1.484630	0.167056	0.346681
N30	N	1.484628	0.167036	-0.346649
C31	C	1.569502	0.090594	0.423339
C32	C	1.569498	0.090581	0.576676
C33	C	1.399747	0.243501	0.576682
C34	C	1.399746	0.243509	0.423348
C35	C	1.654386	0.014142	0.346671
C36	C	1.739266	-0.062326	0.423329
C37	C	1.739262	-0.062339	0.576666
C38	C	1.654379	0.014115	0.653345
H39	H	0.746929	0.161383	-0.265587
H40	H	1.330640	0.305748	0.639124
H41	H	1.222316	0.172725	-0.265588
C42	C	1.307550	0.326655	0.340372
C43	C	1.233243	0.393635	0.440330
C44	C	1.148305	0.470251	0.363946
H45	H	1.254879	0.285516	0.280549
H46	H	1.353017	0.374349	0.280591
H47	H	1.187779	0.345948	0.500086
H48	H	1.285879	0.434799	0.500157
H49	H	1.193773	0.517945	0.304164
H50	H	1.095644	0.429102	0.304125
H51	H	1.097886	0.515713	0.431755
C52	C	1.831310	-0.145253	0.339822
C53	C	1.813150	-0.128879	0.189129
C54	C	1.897907	-0.205264	0.112161
H55	H	1.817188	-0.221154	0.364799
H56	H	1.915254	-0.132257	0.364839
H57	H	1.729226	-0.141884	0.164123
H58	H	1.827282	-0.052993	0.164109
H59	H	1.981851	-0.192268	0.137178
H60	H	1.883778	-0.281160	0.137150
H61	H	1.885605	-0.194158	0.009909
C62	C	0.847809	0.163955	0.276868
C63	C	0.759117	0.259615	0.284601
C64	C	0.693395	0.258240	0.417282
H65	H	0.905432	0.165396	0.356077
H66	H	0.805747	0.096692	0.282403
H67	H	0.801177	0.326861	0.279079
H68	H	0.701468	0.258194	0.205422
H69	H	0.651332	0.190978	0.422818
H70	H	0.751027	0.259679	0.496481
H71	H	0.633202	0.323138	0.422541
C72	C	1.831549	-0.145410	0.659633
C73	C	1.905901	-0.212338	0.559665
C74	C	1.990946	-0.288864	0.636037
H75	H	1.786203	-0.193155	0.719449
H76	H	1.884168	-0.104167	0.719423
H77	H	1.853288	-0.253578	0.499901
H78	H	1.951274	-0.164624	0.499847
H79	H	2.043566	-0.247621	0.695827
H80	H	1.945591	-0.336601	0.695850
H81	H	2.041412	-0.334276	0.568221
H82	H	1.654375	0.014089	0.778202
H83	H	0.865758	0.164217	-0.506489
H84	H	1.103449	0.169890	-0.506503
C85	C	1.121437	0.170143	0.276868
C86	C	1.210132	0.074485	0.284616
C87	C	1.275855	0.075869	0.417297
H88	H	1.063816	0.168706	0.356078
H89	H	1.163498	0.237408	0.282392
H90	H	1.168074	0.007238	0.279106
H91	H	1.267780	0.075903	0.205437
H92	H	1.317916	0.143133	0.422821
H93	H	1.218224	0.074434	0.496496
H94	H	1.336050	0.010973	0.422565
H95	H	1.654399	0.014148	0.221817
