data_functionalizedCrystal
_audit_creation_method	'MofGen! by Chris Wilmer'
_symmetry_space_group_name_H-M	'P1'
_symmetry_Int_Tables_number	1
_symmetry_cell_setting	triclinic
loop_
_symmetry_equiv_pos_as_xyz
  x,y,z
_cell_length_a	12.759401
_cell_length_b	21.295417
_cell_length_c	12.759393
_cell_angle_alpha	90.039170
_cell_angle_beta	90.018496
_cell_angle_gamma	90.030668
loop_
_atom_site_label
_atom_site_type_symbol
_atom_site_fract_x
_atom_site_fract_y
_atom_site_fract_z
Zn1	Zn	1.606140	-0.250569	0.593926
Zn2	Zn	1.605986	-0.355853	0.418223
Zn3	Zn	1.430442	-0.250602	0.418265
Zn4	Zn	1.430382	-0.355805	0.593864
O5	O	1.518237	-0.303208	0.506069
O6	O	1.753141	-0.264542	0.570626
O7	O	1.582660	-0.341926	0.271207
O8	O	1.453838	-0.162509	0.441611
O9	O	1.753027	-0.341894	0.441538
O10	O	1.582923	-0.162484	0.570668
O11	O	1.453689	-0.264598	0.271238
O12	O	1.283413	-0.264551	0.441551
O13	O	1.453736	-0.341811	0.740893
O14	O	1.283369	-0.341843	0.570562
O15	O	1.582865	-0.264495	0.740939
O16	O	1.582602	-0.443936	0.441478
O17	O	1.453587	-0.443901	0.570521
C18	C	1.245270	-0.303196	0.506055
C19	C	1.128493	-0.303206	0.506074
C20	C	1.518100	-0.466759	0.506011
C21	C	1.518137	-0.536727	0.506021
C22	C	1.073636	-0.343516	0.573139
C23	C	0.963912	-0.343524	0.573151
C24	C	0.963912	-0.262910	0.439022
C25	C	1.073635	-0.262899	0.439017
C26	C	1.073635	-0.390061	0.650574
C27	C	0.963911	-0.390069	0.650585
C28	C	1.585375	-0.569592	0.438898
C29	C	1.585424	-0.635334	0.438921
C30	C	1.518217	-0.668210	0.506058
C31	C	1.450974	-0.635338	0.573195
C32	C	1.450934	-0.569596	0.573177
N33	N	1.426309	-0.771475	0.514062
N34	N	1.426350	-0.833927	0.514073
C35	C	1.518334	-0.866284	0.506118
N36	N	1.610278	-0.833832	0.498130
N37	N	1.610236	-0.771375	0.498114
C38	C	1.518253	-0.739495	0.506085
C39	C	1.585631	-0.970434	0.439016
C40	C	1.585682	-1.036178	0.439047
C41	C	1.451223	-1.036180	0.573315
C42	C	1.451181	-0.970438	0.573289
C43	C	1.518384	-0.937569	0.506134
C44	C	1.792271	-0.303220	0.506084
C45	C	1.909047	-0.303225	0.506091
C46	C	1.518311	-0.303144	0.780103
C47	C	1.518342	-0.303117	0.896880
C48	C	1.518404	-0.139017	0.506151
C49	C	1.518475	-0.069049	0.506185
C50	C	1.518225	-0.303225	0.233102
C51	C	1.518397	-0.303075	0.116326
C52	C	1.585589	-0.262855	0.951767
C53	C	1.585614	-0.262832	1.061491
C54	C	1.451143	-0.343339	1.061431
C55	C	1.451113	-0.343358	0.951709
C56	C	1.663228	-0.216376	0.951803
C57	C	1.663253	-0.216353	1.061527
H58	H	1.118295	-0.230071	0.384413
Cl59	Cl	1.618187	-0.144875	1.114119
H60	H	1.396425	-0.943678	0.627944
H61	H	1.396506	-1.062947	0.627983
H62	H	0.934093	-0.438810	0.628642
Cl63	Cl	1.126126	-0.461544	0.605446
H64	H	0.919233	-0.230093	0.384428
Cl65	Cl	1.669874	-0.528274	0.354490
Cl66	Cl	1.782516	-0.243355	0.899239
Cl67	Cl	1.119674	-0.369989	0.776260
H68	H	1.640181	-0.662097	0.384261
H69	H	0.929921	-0.372666	0.727941
Cl70	Cl	1.788872	-0.236504	1.107506
Cl71	Cl	1.366489	-0.676666	0.657600
H72	H	1.396180	-0.542838	0.627838
H73	H	1.640355	-0.943671	0.384338
H74	H	1.640442	-1.062935	0.384389
H75	H	1.396351	-0.376142	0.907024
Cl76	Cl	1.366632	-0.393926	1.130366
H77	H	1.641482	-0.167626	0.922058
