data_functionalizedCrystal
_audit_creation_method	'MofGen! by Chris Wilmer'
_symmetry_space_group_name_H-M	'P1'
_symmetry_Int_Tables_number	1
_symmetry_cell_setting	triclinic
loop_
_symmetry_equiv_pos_as_xyz
  x,y,z
_cell_length_a	12.759401
_cell_length_b	29.839131
_cell_length_c	12.759401
_cell_angle_alpha	90.012951
_cell_angle_beta	90.006276
_cell_angle_gamma	90.042945
loop_
_atom_site_label
_atom_site_type_symbol
_atom_site_fract_x
_atom_site_fract_y
_atom_site_fract_z
Zn1	Zn	1.605919	-0.178919	0.593973
Zn2	Zn	1.605773	-0.254025	0.418274
Zn3	Zn	1.430263	-0.178912	0.418309
Zn4	Zn	1.430128	-0.254025	0.593911
O5	O	1.518021	-0.216470	0.506117
O6	O	1.752921	-0.188885	0.570678
O7	O	1.582487	-0.244058	0.271258
O8	O	1.453682	-0.116046	0.441651
O9	O	1.752814	-0.244065	0.441593
O10	O	1.582735	-0.116051	0.570712
O11	O	1.453540	-0.188873	0.271283
O12	O	1.283224	-0.188873	0.441591
O13	O	1.453451	-0.244065	0.740941
O14	O	1.283125	-0.244058	0.570606
O15	O	1.582605	-0.188885	0.740986
O16	O	1.582356	-0.316892	0.441533
O17	O	1.453310	-0.316892	0.570572
C18	C	1.245053	-0.216465	0.506096
C19	C	1.128277	-0.216473	0.506112
C20	C	1.073391	-0.245252	0.573184
C21	C	0.963667	-0.245254	0.573205
C22	C	0.963724	-0.187697	0.439073
C23	C	1.073447	-0.187693	0.439058
C24	C	1.517831	-0.333193	0.506065
C25	C	1.517846	-0.383127	0.506078
C26	C	1.585337	-0.692758	0.439024
C27	C	1.585467	-0.880431	0.439065
O28	O	1.642700	-0.904685	0.382013
N29	N	1.518239	-0.903912	0.506196
C30	C	1.450978	-0.880472	0.573327
O31	O	1.393807	-0.904751	0.630435
C32	C	1.450854	-0.692800	0.573291
C33	C	1.518080	-0.669321	0.506147
C34	C	1.652558	-0.669279	0.371887
C35	C	1.652520	-0.622364	0.371874
C36	C	1.585263	-0.598927	0.438997
C37	C	1.518042	-0.622406	0.506134
C38	C	1.383600	-0.669361	0.640426
C39	C	1.383577	-0.622440	0.640413
C40	C	1.450802	-0.598961	0.573270
C41	C	1.450748	-0.552054	0.573244
N42	N	1.517976	-0.528573	0.506112
C43	C	1.585234	-0.552009	0.438989
C44	C	1.451046	-0.979003	0.573340
C45	C	1.451076	-1.025921	0.573348
C46	C	1.585566	-1.025876	0.439087
C47	C	1.585531	-0.978958	0.439074
C48	C	1.518274	-0.955522	0.506208
C49	C	1.585150	-0.453483	0.438965
C50	C	1.585104	-0.406564	0.438954
C51	C	1.450618	-0.406612	0.573219
C52	C	1.450659	-0.453528	0.573226
C53	C	1.517934	-0.476962	0.506096
O54	O	1.393553	-0.527771	0.630274
O55	O	1.642412	-0.527723	0.381906
C56	C	1.585374	-0.739673	0.439038
C57	C	1.518154	-0.763152	0.506175
C58	C	1.450896	-0.739716	0.573298
C59	C	1.518183	-0.810070	0.506183
C60	C	1.585441	-0.833507	0.439059
C61	C	1.652669	-0.810025	0.371928
C62	C	1.652632	-0.763110	0.371914
C63	C	1.383668	-0.763197	0.640429
C64	C	1.383710	-0.810112	0.640436
C65	C	1.450967	-0.833549	0.573313
C66	C	1.792054	-0.216476	0.506138
C67	C	1.908831	-0.216479	0.506148
C68	C	1.518029	-0.216476	0.780150
C69	C	1.518033	-0.216478	0.896927
C70	C	1.518240	-0.099292	0.506192
C71	C	1.518333	-0.049357	0.506224
C72	C	1.585162	-0.245209	1.061511
C73	C	1.585164	-0.245211	0.951787
C74	C	1.450888	-0.187745	0.951796
C75	C	1.450882	-0.187746	1.061518
C76	C	1.518011	-0.216476	1.233150
C77	C	1.518025	-0.216477	1.116373
H78	H	0.918983	-0.268687	0.627823
H79	H	1.707373	-0.743997	0.317240
H80	H	1.328958	-0.829225	0.695112
H81	H	1.639933	-0.472558	0.384303
H82	H	0.919068	-0.164266	0.384478
H83	H	1.118030	-0.268685	0.627787
H84	H	1.639834	-0.268607	0.907123
H85	H	1.118136	-0.164255	0.384440
H86	H	1.639846	-0.387449	0.384275
H87	H	1.707264	-0.603250	0.317203
H88	H	1.707333	-0.688356	0.317227
H89	H	1.396224	-0.164353	0.907121
H90	H	1.640272	-0.959844	0.384401
H91	H	1.396205	-0.164348	1.106188
H92	H	1.396324	-1.045033	0.628013
H93	H	1.640330	-1.044966	0.384432
H94	H	1.396276	-0.959925	0.628010
H95	H	1.707430	-0.829116	0.317271
H96	H	1.328853	-0.688470	0.695096
H97	H	1.328810	-0.603361	0.695085
H98	H	1.395923	-0.472645	0.627903
H99	H	1.328900	-0.744118	0.695091
H100	H	1.395854	-0.387523	0.627867
H101	H	1.639833	-0.268604	1.106170
