data_functionalizedCrystal
_audit_creation_method	'MofGen! by Chris Wilmer'
_symmetry_space_group_name_H-M	'P1'
_symmetry_Int_Tables_number	1
_symmetry_cell_setting	triclinic
loop_
_symmetry_equiv_pos_as_xyz
  x,y,z
_cell_length_a	7.681481
_cell_length_b	17.699083
_cell_length_c	17.699092
_cell_angle_alpha	96.715309
_cell_angle_beta	84.271060
_cell_angle_gamma	84.282230
loop_
_atom_site_label
_atom_site_type_symbol
_atom_site_fract_x
_atom_site_fract_y
_atom_site_fract_z
O1	O	-0.146177	-0.996922	0.102877
O2	O	-0.146234	-0.776541	0.115332
O3	O	-0.146200	-0.892955	-0.001084
O4	O	-0.146212	-0.880508	0.219294
O5	O	0.146662	-0.907283	-0.015445
O6	O	0.146628	-0.790870	0.100971
O7	O	0.146684	-1.011250	0.088516
Zn8	Zn	0.193154	-0.903335	0.092463
Zn9	Zn	-0.192704	-0.884456	0.111385
O10	O	0.146650	-0.894837	0.204933
C11	C	0.000189	-0.755508	0.107706
C12	C	0.000167	-0.671489	0.106368
N13	N	0.456492	-0.916225	0.079549
N14	N	-0.456042	-0.871573	0.124293
C15	C	0.000228	-0.899672	-0.036462
C16	C	0.000219	-0.898330	-0.120479
C17	C	0.000257	-1.032283	0.096143
C18	C	0.000267	-1.116302	0.097481
C19	C	0.000165	-0.622870	0.174702
C20	C	0.000187	-0.543927	0.173438
C21	C	0.000201	-0.513605	0.103842
C22	C	0.000209	-0.562231	0.035503
C23	C	0.000199	-0.641172	0.036766
C24	C	0.000253	-0.243870	0.030405
C25	C	0.000258	-0.164922	0.029147
C26	C	0.000241	-0.146625	0.167077
C27	C	0.000231	-0.225566	0.168341
C28	C	0.000249	-0.274185	0.100002
C29	C	0.000227	-0.359784	0.101373
C30	C	0.000209	-0.428008	0.102471
C31	C	-0.159422	-0.889891	-0.152118
C32	C	-0.159424	-0.888626	-0.231061
C33	C	0.000216	-0.895806	-0.278364
C34	C	0.159870	-0.904243	-0.246720
C35	C	0.159871	-0.905503	-0.167778
C36	C	0.159871	-0.899163	-0.565085
C37	C	0.159858	-0.897905	-0.644032
C38	C	-0.159424	-0.882286	-0.628368
C39	C	-0.159423	-0.883546	-0.549426
C40	C	0.000229	-0.891979	-0.517788
C41	C	0.000230	-0.893349	-0.432189
C42	C	0.000218	-0.894441	-0.363962
C43	C	0.000218	-0.888119	0.240310
C44	C	0.000215	-0.889460	0.324328
H45	H	0.468748	-0.825992	0.169963
C46	C	0.000196	-0.694655	-0.038402
C47	C	-0.151879	-0.743995	-0.049045
C48	C	-0.151873	-0.797478	-0.124216
C49	C	0.000208	-0.801621	-0.188743
C50	C	0.152294	-0.752281	-0.178102
C51	C	0.152288	-0.698798	-0.102931
H52	H	-0.264469	-0.740929	-0.001277
H53	H	-0.264458	-0.834003	-0.132094
H54	H	0.000213	-0.841213	-0.244389
H55	H	0.264884	-0.755347	-0.225870
H56	H	0.264873	-0.662272	-0.095053
C57	C	0.558093	-0.977810	0.017850
C58	C	0.760863	-0.987669	0.007987
C59	C	0.862463	-1.049254	-0.053711
C60	C	0.761294	-1.100980	-0.105545
C61	C	0.558512	-1.091122	-0.095683
C62	C	0.456912	-1.029538	-0.033985
H63	H	0.835764	-0.949377	0.046358
H64	H	1.012575	-1.056550	-0.061012
H65	H	0.836504	-1.146568	-0.151217
H66	H	0.483611	-1.129414	-0.134055
H67	H	0.306800	-1.022241	-0.026685
H68	H	0.000152	-0.647551	0.231376
H69	H	-0.289419	-0.877703	-0.510915
H70	H	-0.289420	-0.884049	-0.113609
H71	H	0.000268	-0.283446	-0.025241
H72	H	0.000183	-0.504344	0.229082
C73	C	0.335479	-0.912122	-0.298749
C74	C	0.511084	-0.921389	-0.263942
C75	C	0.686697	-0.929263	-0.315968
C76	C	0.686707	-0.927869	-0.402801
C77	C	0.511096	-0.918601	-0.437612
C78	C	0.335482	-0.910728	-0.385586
H79	H	0.511082	-0.922421	-0.199659
H80	H	0.816696	-0.936123	-0.290199
H81	H	0.816707	-0.933697	-0.441314
H82	H	0.511098	-0.917569	-0.501895
H83	H	0.205484	-0.903868	-0.411356
H84	H	-0.289420	-0.875416	-0.654136
C85	C	0.000220	-0.258920	0.244898
C86	C	0.000228	-0.205441	0.320065
C87	C	0.000225	-0.238793	0.396624
C88	C	0.000213	-0.325626	0.398015
C89	C	0.000205	-0.379110	0.322845
C90	C	0.000208	-0.345757	0.246287
H91	H	0.000237	-0.141158	0.319038
H92	H	0.000232	-0.199200	0.452269
H93	H	0.000211	-0.350315	0.454688
H94	H	0.000196	-0.443393	0.323873
H95	H	0.000202	-0.385351	0.190641
H96	H	0.000245	-0.537537	-0.021166
C97	C	0.000244	-0.093143	0.242252
C98	C	-0.151821	-0.028902	0.267808
C99	C	-0.151826	0.024578	0.342980
C100	C	0.000235	0.013818	0.392597
C101	C	0.152311	-0.050426	0.367043
C102	C	0.152315	-0.103906	0.291870
H103	H	-0.264396	-0.020933	0.231077
H104	H	-0.264403	0.072136	0.361897
H105	H	0.000232	0.053407	0.448245
H106	H	0.264885	-0.058394	0.403773
H107	H	0.264893	-0.151464	0.272954
H108	H	-0.289420	-0.881758	-0.256817
H109	H	0.289867	-0.912364	-0.142018
H110	H	0.289865	-0.903750	-0.682545
H111	H	0.289870	-0.906045	-0.539337
H112	H	0.000271	-0.140237	-0.027530
