data_functionalizedCrystal
_audit_creation_method	'MofGen! by Chris Wilmer'
_symmetry_space_group_name_H-M	'P1'
_symmetry_Int_Tables_number	1
_symmetry_cell_setting	triclinic
loop_
_symmetry_equiv_pos_as_xyz
  x,y,z
_cell_length_a	12.759401
_cell_length_b	12.645323
_cell_length_c	12.759400
_cell_angle_alpha	89.973613
_cell_angle_beta	90.014845
_cell_angle_gamma	89.980706
loop_
_atom_site_label
_atom_site_type_symbol
_atom_site_fract_x
_atom_site_fract_y
_atom_site_fract_z
Zn1	Zn	1.606264	-0.599339	-0.418254
Zn2	Zn	2.106264	-0.099339	0.081746
Zn3	Zn	1.606156	-0.422075	-0.593956
Zn4	Zn	2.106156	0.077925	-0.093956
Zn5	Zn	1.430563	-0.422094	-0.418293
Zn6	Zn	1.930563	0.077906	0.081707
Zn7	Zn	1.430554	-0.599301	-0.593891
Zn8	Zn	1.930554	-0.099301	-0.093891
O9	O	1.518384	-0.510702	-0.506099
O10	O	2.018384	-0.010702	-0.006099
O11	O	1.753270	-0.575833	-0.441572
O12	O	2.253270	-0.075833	0.058428
O13	O	1.582821	-0.273730	-0.570698
O14	O	2.082821	0.226270	-0.070698
O15	O	1.453919	-0.445631	-0.271266
O16	O	1.953919	0.054369	0.228734
O17	O	1.753191	-0.445597	-0.570660
O18	O	2.253191	0.054403	-0.070660
O19	O	1.583006	-0.575852	-0.271238
O20	O	2.083006	-0.075852	0.228762
O21	O	1.453814	-0.273744	-0.441638
O22	O	1.953814	0.226256	0.058362
O23	O	1.283541	-0.445593	-0.441575
O24	O	1.783541	0.054407	0.058425
O25	O	1.453904	-0.747653	-0.570549
O26	O	1.953904	-0.247653	-0.070549
O27	O	1.283535	-0.575786	-0.570587
O28	O	1.783535	-0.075786	-0.070587
O29	O	1.582997	-0.747682	-0.441509
O30	O	2.082997	-0.247682	0.058491
O31	O	1.582813	-0.445560	-0.740969
O32	O	2.082813	0.054440	-0.240969
O33	O	1.453799	-0.575767	-0.740921
O34	O	1.953799	-0.075767	-0.240921
C35	C	1.245417	-0.510688	-0.506079
C36	C	1.745417	-0.010688	-0.006079
C37	C	1.128640	-0.510707	-0.506096
C38	C	1.628640	-0.010707	-0.006096
C39	C	1.518462	-0.787208	-0.506017
C40	C	2.018462	-0.287208	-0.006017
C41	C	1.518495	-0.905038	-0.505983
C42	C	2.018495	-0.405038	-0.005983
C43	C	1.073802	-0.578386	-0.573380
C44	C	1.573802	-0.078386	-0.073380
C45	C	0.964078	-0.578398	-0.573393
C46	C	1.464078	-0.078398	-0.073393
C47	C	0.964040	-0.443042	-0.438836
C48	C	1.464040	0.056958	0.061164
C49	C	1.073762	-0.443036	-0.438818
C50	C	1.573762	0.056964	0.061182
C51	C	1.128681	-0.646057	-0.640658
C52	C	1.628681	-0.146057	-0.140658
C53	C	1.073843	-0.713741	-0.707948
C54	C	1.573843	-0.213741	-0.207948
C55	C	0.964119	-0.713752	-0.707962
C56	C	1.464119	-0.213752	-0.207962
C57	C	0.909233	-0.646080	-0.640685
C58	C	1.409233	-0.146080	-0.140685
C59	C	1.437032	-1.072584	-0.586779
C60	C	1.937032	-0.572584	-0.086779
C61	C	1.437245	-0.950024	-0.587180
C62	C	1.937245	-0.450024	-0.087180
C63	C	1.629197	-0.949550	-0.536030
C64	C	2.129197	-0.449550	-0.036030
C65	C	1.628750	-1.072149	-0.536537
C66	C	2.128750	-0.572149	-0.036537
C67	C	1.490302	-1.072240	-0.394687
C68	C	1.990302	-0.572240	0.105313
C69	C	1.487832	-0.949634	-0.395354
C70	C	1.987832	-0.449634	0.104646
C71	C	1.792418	-0.510717	-0.506119
C72	C	2.292418	-0.010717	-0.006119
C73	C	1.909194	-0.510724	-0.506127
C74	C	2.409194	-0.010724	-0.006127
C75	C	1.518322	-0.510680	-0.779066
C76	C	2.018322	-0.010680	-0.279066
C77	C	1.518391	-0.510706	-0.895843
C78	C	2.018391	-0.010706	-0.395843
C79	C	1.518368	-0.235273	-0.506104
C80	C	2.018368	0.264727	-0.006104
C81	C	1.518538	-0.117443	-0.505842
C82	C	2.018538	0.382557	-0.005842
C83	C	1.585643	-0.442982	-0.950695
C84	C	2.085643	0.057018	-0.450695
C85	C	1.585708	-0.443015	-1.060419
C86	C	2.085708	0.056985	-0.560419
C87	C	1.451260	-0.578498	-1.060429
C88	C	1.951260	-0.078498	-0.560429
C89	C	1.451201	-0.578470	-0.950707
C90	C	1.951201	-0.078470	-0.450707
C91	C	1.652834	-0.375218	-0.895830
C92	C	2.152834	0.124782	-0.395830
C93	C	1.720090	-0.307488	-0.950682
C94	C	2.220090	0.192512	-0.450682
C95	C	1.720155	-0.307521	-1.060406
C96	C	2.220155	0.192479	-0.560406
C97	C	1.652963	-0.375284	-1.115278
C98	C	2.152963	0.124716	-0.615278
C99	C	1.518475	-0.510748	-0.232065
C100	C	2.018475	-0.010748	0.267935
C101	C	1.518514	-0.510767	-0.115289
C102	C	2.018514	-0.010767	0.384711
H103	H	1.218024	-0.646053	-0.640657
H104	H	1.718024	-0.146053	-0.140657
Cl105	Cl	1.310506	-0.903552	-0.558146
Cl106	Cl	1.810506	-0.403552	-0.058146
H107	H	1.652786	-0.375181	-0.806487
H108	H	2.152786	0.124819	-0.306487
Cl109	Cl	1.804565	-0.222316	-0.881703
Cl110	Cl	2.304565	0.277684	-0.381703
H111	H	1.774925	-0.252379	-1.105064
H112	H	2.274925	0.247621	-0.605064
Cl113	Cl	1.652612	-0.374884	-1.253217
Cl114	Cl	2.152612	0.125116	-0.753217
H115	H	0.919473	-0.768871	-0.762745
H116	H	1.419473	-0.268871	-0.262745
H117	H	1.396554	-0.633667	-1.105114
H118	H	1.896554	-0.133667	-0.605114
H119	H	1.118412	-0.387934	-0.384022
H120	H	1.618412	0.112066	0.115978
Cl121	Cl	1.572802	-0.902373	-0.297327
Cl122	Cl	2.072802	-0.402373	0.202673
Cl123	Cl	1.581955	-1.117031	-0.301586
Cl124	Cl	2.081955	-0.617031	0.198414
H125	H	1.118538	-0.768844	-0.762716
H126	H	1.618538	-0.268844	-0.262716
Cl127	Cl	1.366656	-0.663613	-0.881745
Cl128	Cl	1.866656	-0.163613	-0.381745
Cl129	Cl	1.309909	-1.118086	-0.558026
Cl130	Cl	1.809909	-0.618086	-0.058026
Cl131	Cl	0.771292	-0.646105	-0.640696
Cl132	Cl	1.271292	-0.146105	-0.140696
H133	H	0.919343	-0.387945	-0.384063
H134	H	1.419343	0.112055	0.115937
Cl135	Cl	1.465467	-1.120237	-0.713197
Cl136	Cl	1.965467	-0.620237	-0.213197
H137	H	1.455886	-0.920707	-0.669584
H138	H	1.955886	-0.420707	-0.169584
H139	H	1.652684	-1.100756	-0.617793
H140	H	2.152684	-0.600756	-0.117793
H141	H	1.691554	-0.920413	-0.478943
H142	H	2.191554	-0.420413	0.021057
Cl143	Cl	1.725634	-1.117972	-0.449415
Cl144	Cl	2.225634	-0.617972	0.050585
H145	H	1.653540	-0.918858	-0.616435
H146	H	2.153540	-0.418858	-0.116435
Cl147	Cl	1.367836	-1.119956	-0.352402
Cl148	Cl	1.867836	-0.619956	0.147598
H149	H	1.406365	-0.920540	-0.372694
H150	H	1.906365	-0.420540	0.127306
