data_functionalizedCrystal
_audit_creation_method	'MofGen! by Chris Wilmer'
_symmetry_space_group_name_H-M	'P1'
_symmetry_Int_Tables_number	1
_symmetry_cell_setting	triclinic
loop_
_symmetry_equiv_pos_as_xyz
  x,y,z
_cell_length_a	10.685980
_cell_length_b	25.639239
_cell_length_c	10.686551
_cell_angle_alpha	85.590528
_cell_angle_beta	81.591741
_cell_angle_gamma	94.404956
loop_
_atom_site_label
_atom_site_type_symbol
_atom_site_fract_x
_atom_site_fract_y
_atom_site_fract_z
Zn1	Zn	1.995668	-0.117194	-0.866668
Zn2	Zn	1.979148	-0.211916	-0.654375
Zn3	Zn	1.767080	-0.131747	-0.638128
Zn4	Zn	1.783272	-0.211866	-0.850285
O5	O	1.881292	-0.168181	-0.752364
O6	O	2.171116	-0.123690	-0.852162
O7	O	1.937327	-0.207393	-0.474586
O8	O	1.797540	-0.056645	-0.668501
O9	O	2.158980	-0.193282	-0.696192
O10	O	1.965483	-0.045954	-0.836408
O11	O	1.781522	-0.148493	-0.462649
O12	O	1.591588	-0.148444	-0.652615
O13	O	1.825137	-0.193196	-1.030093
O14	O	1.603485	-0.207307	-0.808487
O15	O	1.981183	-0.123641	-1.042129
O16	O	1.953028	-0.285081	-0.680307
O17	O	1.809119	-0.285044	-0.824241
C18	C	1.551477	-0.179449	-0.727011
C19	C	1.410382	-0.184282	-0.716195
C20	C	1.881074	-0.304033	-0.752290
C21	C	1.881100	-0.362145	-0.752309
C22	C	1.956448	-0.722495	-0.677572
C23	C	1.956499	-0.777097	-0.677593
O24	O	2.020336	-0.805333	-0.613968
N25	N	1.881522	-0.804409	-0.752465
C26	C	1.806499	-0.777116	-0.827332
O27	O	1.742731	-0.805361	-0.891020
C28	C	1.806456	-0.722514	-0.827317
C29	C	1.881429	-0.695206	-0.752430
C30	C	2.031415	-0.695187	-0.602692
C31	C	2.031363	-0.640589	-0.602670
C32	C	1.956343	-0.613299	-0.677527
C33	C	1.881376	-0.640608	-0.752408
C34	C	1.731442	-0.695221	-0.902190
C35	C	1.731406	-0.640616	-0.902169
C36	C	1.806378	-0.613308	-0.827282
C37	C	1.806304	-0.558720	-0.827243
N38	N	1.881281	-0.531408	-0.752371
C39	C	1.956300	-0.558698	-0.677513
C40	C	1.806596	-0.891783	-0.827359
C41	C	1.806631	-0.946383	-0.827367
C42	C	1.956633	-0.946361	-0.677630
C43	C	1.956590	-0.891760	-0.677615
C44	C	1.881573	-0.864471	-0.752486
C45	C	1.956183	-0.444038	-0.677471
C46	C	1.956120	-0.389435	-0.677451
C47	C	1.806124	-0.389462	-0.827193
C48	C	1.806182	-0.444060	-0.827208
C49	C	1.881221	-0.471346	-0.752344
O50	O	1.742503	-0.530450	-0.890839
O51	O	2.020071	-0.530445	-0.613848
C52	C	2.212396	-0.156869	-0.777817
C53	C	2.353493	-0.152048	-0.788663
C54	C	1.906809	-0.156789	-1.083457
C55	C	1.917683	-0.151935	-1.224549
C56	C	1.881548	-0.031796	-0.752469
C57	C	1.881657	0.026323	-0.752514
C58	C	1.855948	-0.179488	-0.422565
C59	C	1.845320	-0.184186	-0.281492
H60	H	1.351139	-0.215577	-0.645866
O61	O	1.423958	-0.114670	-0.872588
C62	C	1.422806	-0.043374	-1.032954
C63	C	1.342840	-0.085673	-0.937939
H64	H	1.357256	-0.019926	-1.085835
H65	H	1.480387	-0.015859	-0.979564
H66	H	1.489995	-0.063050	-1.103871
H67	H	1.275580	-0.066042	-0.866999
H68	H	1.285345	-0.113184	-0.991415
H69	H	2.017171	-0.367202	-0.616465
O70	O	1.761651	-0.221583	-1.210761
C71	C	1.733047	-0.297875	-1.059617
C72	C	1.827935	-0.255547	-1.139641
H73	H	1.786603	-0.325353	-1.002116
H74	H	1.662004	-0.278278	-0.992378
H75	H	1.680285	-0.321354	-1.125194
H76	H	1.880786	-0.232054	-1.074162
H77	H	1.898896	-0.275176	-1.206892
H78	H	2.017291	-0.466248	-0.616512
O79	O	2.104322	-0.614142	-0.529907
C80	C	2.253069	-0.619906	-0.381354
C81	C	2.170512	-0.649915	-0.463717
H82	H	2.306584	-0.648816	-0.327797
H83	H	2.323955	-0.590047	-0.444727
H84	H	2.189703	-0.598636	-0.310490
H85	H	2.233777	-0.671216	-0.534591
H86	H	2.099616	-0.679744	-0.400264
H87	H	1.987964	-0.120610	-1.283744
H88	H	2.092512	-0.717400	-0.541734
O89	O	2.029347	-0.865299	-0.604695
C90	C	2.074441	-0.853897	-0.393556
C91	C	1.991969	-0.883909	-0.475992
H92	H	2.044234	-0.868924	-0.289481
H93	H	2.178526	-0.860335	-0.423697
H94	H	2.061561	-0.810183	-0.406465
H95	H	2.004740	-0.927632	-0.463124
H96	H	1.887916	-0.877427	-0.445832
O97	O	2.029577	-0.972947	-0.605126
C98	C	2.096274	-1.057050	-0.538973
C99	C	2.013576	-1.027008	-0.621099
H100	H	2.083345	-1.100764	-0.551838
H101	H	2.200326	-1.042009	-0.569332
H102	H	2.066303	-1.050617	-0.434866
H103	H	2.043434	-1.033427	-0.725226
H104	H	1.909542	-1.042054	-0.590632
H105	H	1.745498	-0.869567	-0.888323
O106	O	1.733942	-0.972874	-0.900295
C107	C	1.688744	-0.984224	-1.111422
C108	C	1.771169	-0.954196	-1.028974
H109	H	1.718793	-0.969126	-1.215472
H110	H	1.701669	-1.027940	-1.098701
H111	H	1.584674	-0.977811	-1.081108
H112	H	1.875269	-0.960566	-1.059235
H113	H	1.758135	-0.910490	-1.041703
H114	H	1.670385	-0.717447	-0.963164
O115	O	1.658419	-0.614192	-0.974936
C116	C	1.509728	-0.619976	-1.123541
C117	C	1.592300	-0.649966	-1.041170
H118	H	1.456270	-0.648885	-1.177133
H119	H	1.438791	-0.598740	-1.060167
H120	H	1.573074	-0.590090	-1.194373
H121	H	1.529055	-0.679878	-0.970328
H122	H	1.663247	-0.671167	-1.104623
H123	H	1.745138	-0.466295	-0.888192
H124	H	1.745040	-0.367234	-0.888138
