data_functionalizedCrystal
_audit_creation_method	'MofGen! by Chris Wilmer'
_symmetry_space_group_name_H-M	'P1'
_symmetry_Int_Tables_number	1
_symmetry_cell_setting	triclinic
loop_
_symmetry_equiv_pos_as_xyz
  x,y,z
_cell_length_a	21.295418
_cell_length_b	21.295417
_cell_length_c	21.295411
_cell_angle_alpha	90.020597
_cell_angle_beta	90.043738
_cell_angle_gamma	90.045515
loop_
_atom_site_label
_atom_site_type_symbol
_atom_site_fract_x
_atom_site_fract_y
_atom_site_fract_z
Zn1	Zn	0.962359	-0.250415	0.356238
Zn2	Zn	0.962263	-0.355667	0.250965
Zn3	Zn	0.857082	-0.250445	0.250948
Zn4	Zn	0.857053	-0.355680	0.356162
O5	O	0.909690	-0.303052	0.303578
O6	O	1.050436	-0.264360	0.342313
O7	O	0.948283	-0.341716	0.162874
O8	O	0.871100	-0.162351	0.264940
O9	O	1.050365	-0.341688	0.264969
O10	O	0.948447	-0.162330	0.342296
O11	O	0.871007	-0.264410	0.162861
O12	O	0.768989	-0.264422	0.264866
O13	O	0.871050	-0.341709	0.444262
O14	O	0.768968	-0.341738	0.342166
O15	O	0.948418	-0.264372	0.444318
O16	O	0.948254	-0.443758	0.264895
O17	O	0.870957	-0.443767	0.342183
C18	C	0.746138	-0.303085	0.303506
C19	C	0.676170	-0.303114	0.303490
C20	C	0.643308	-0.343426	0.343680
C21	C	0.577566	-0.343410	0.343708
C22	C	0.544687	-0.303090	0.303535
C23	C	0.577557	-0.262770	0.263342
C24	C	0.643298	-0.262783	0.263320
N25	N	0.441411	-0.298163	0.248477
N26	N	0.378960	-0.298155	0.248501
C27	C	0.346613	-0.303050	0.303602
N28	N	0.379076	-0.307965	0.358680
N29	N	0.441533	-0.307976	0.358656
C30	C	0.473402	-0.303072	0.303556
C31	C	0.242466	-0.343346	0.343826
C32	C	0.176722	-0.343326	0.343855
C33	C	0.176714	-0.262690	0.263484
C34	C	0.242456	-0.262707	0.263460
C35	C	0.275328	-0.303038	0.303630
C36	C	0.909609	-0.466603	0.303547
C37	C	0.909633	-0.536571	0.303554
C38	C	0.949884	-0.569370	0.343862
C39	C	0.949906	-0.635112	0.343878
C40	C	0.909684	-0.668054	0.303574
C41	C	0.869425	-0.635248	0.263263
C42	C	0.869399	-0.569507	0.263253
N43	N	0.904924	-0.771307	0.248481
N44	N	0.904952	-0.833759	0.248492
C45	C	0.909757	-0.866129	0.303602
N46	N	0.914546	-0.833687	0.358702
N47	N	0.914521	-0.771230	0.358690
C48	C	0.909707	-0.739339	0.303580
C49	C	0.950035	-0.970212	0.343931
C50	C	0.950052	-1.035956	0.343947
C51	C	0.869574	-1.036090	0.263327
C52	C	0.869553	-0.970348	0.263316
C53	C	0.909787	-0.937413	0.303617
C54	C	1.073880	-0.303019	0.303652
C55	C	1.143848	-0.303005	0.303683
C56	C	0.909742	-0.303038	0.467769
C57	C	0.909764	-0.303033	0.537737
C58	C	0.909787	-0.138861	0.303624
C59	C	0.909829	-0.068893	0.303644
C60	C	0.909674	-0.303019	0.140027
C61	C	0.909774	-0.302848	0.070059
C62	C	0.950048	-0.262761	0.570634
C63	C	0.950047	-0.262734	0.636376
C64	C	0.909769	-0.302989	0.669219
C65	C	0.869477	-0.343263	0.636315
C66	C	0.869475	-0.343285	0.570573
N67	N	0.904913	-0.358058	0.772434
N68	N	0.904919	-0.358036	0.834886
C69	C	0.909773	-0.302926	0.867294
N70	N	0.914633	-0.247837	0.834892
N71	N	0.914630	-0.247860	0.772435
C72	C	0.909767	-0.302970	0.740505
C73	C	0.950058	-0.262621	0.971477
C74	C	0.950053	-0.262593	1.037220
C75	C	0.869486	-0.343128	1.037158
C76	C	0.869488	-0.343151	0.971415
C77	C	0.909777	-0.302898	0.938579
H78	H	0.670053	-0.229954	0.230592
N79	N	0.826040	-0.386541	1.072576
H80	H	0.851604	-0.415699	1.099872
H81	H	0.800528	-0.412017	1.041720
H82	H	0.550783	-0.229940	0.230634
N83	N	0.826148	-0.934970	0.219829
H84	H	0.832236	-0.888325	0.225938
H85	H	0.781189	-0.946508	0.229570
H86	H	0.670069	-0.376266	0.376391
N87	N	0.277927	-0.386842	0.387151
H88	H	0.247130	-0.412374	0.412621
H89	H	0.305263	-0.361267	0.416318
H90	H	0.982830	-1.062659	0.376774
H91	H	0.550805	-0.376236	0.376438
H92	H	0.149945	-0.229857	0.230777
H93	H	0.836820	-1.062911	0.230515
H94	H	0.149968	-0.376152	0.376587
N95	N	0.826029	-0.386576	0.935928
H96	H	0.800508	-0.412071	0.966708
H97	H	0.851622	-0.415716	0.908663
N98	N	0.993508	-0.219158	1.072703
H99	H	0.987396	-0.225249	1.119333
H100	H	0.983743	-0.174205	1.061205
H101	H	0.982678	-0.661822	0.376709
N102	N	0.277902	-0.219237	0.220101
H103	H	0.324538	-0.225363	0.226181
H104	H	0.266468	-0.174291	0.229982
H105	H	0.836621	-0.542802	0.230429
N106	N	0.826042	-0.670773	0.219791
H107	H	0.832168	-0.717397	0.225911
H108	H	0.835859	-0.659290	0.174845
H109	H	0.982849	-0.229937	0.663166
N110	N	0.993272	-0.533847	0.387332
H111	H	1.018773	-0.564604	0.412871
H112	H	0.967621	-0.506588	0.416428
N113	N	0.993425	-0.934683	0.387397
H114	H	1.018925	-0.965440	0.412939
H115	H	0.967777	-0.907419	0.416490
N116	N	0.826031	-0.386731	0.535089
H117	H	0.832144	-0.380638	0.488460
H118	H	0.781078	-0.376939	0.546545
N119	N	0.826024	-0.386672	0.671734
H120	H	0.832137	-0.380547	0.718373
H121	H	0.835785	-0.431635	0.660251
H122	H	0.982854	-0.229984	0.543902
H123	H	0.982860	-0.229842	0.944740
