data_functionalizedCrystal
_audit_creation_method	'MofGen! by Chris Wilmer'
_symmetry_space_group_name_H-M	'P1'
_symmetry_Int_Tables_number	1
_symmetry_cell_setting	triclinic
loop_
_symmetry_equiv_pos_as_xyz
  x,y,z
_cell_length_a	20.299480
_cell_length_b	20.298645
_cell_length_c	20.294903
_cell_angle_alpha	60.007695
_cell_angle_beta	60.015306
_cell_angle_gamma	59.991039
loop_
_atom_site_label
_atom_site_type_symbol
_atom_site_fract_x
_atom_site_fract_y
_atom_site_fract_z
O1	O	0.091305	-0.962534	0.804873
O2	O	0.034397	-0.749399	0.648508
O3	O	0.169355	-0.884263	0.648401
O4	O	-0.043654	-0.827670	0.804979
O5	O	0.214132	-0.839502	0.693072
O6	O	0.079173	-0.704639	0.693178
O7	O	0.136081	-0.917774	0.849544
Zn8	Zn	0.114736	-0.804099	0.778453
Zn9	Zn	0.055742	-0.863073	0.719598
O10	O	0.001122	-0.782910	0.849650
N11	N	0.155000	-0.763857	0.818624
N12	N	0.015485	-0.903322	0.679427
C13	C	0.179343	-0.615641	0.842971
C14	C	0.179443	-0.739552	0.966834
C15	C	0.303264	-0.739536	0.842917
C16	C	0.179356	-0.739528	0.842952
C17	C	0.210353	-0.708565	0.873918
C18	C	-0.132622	-0.927446	0.654695
C19	C	-0.008595	-0.927622	0.530981
C20	C	-0.008820	-1.051459	0.654914
C21	C	-0.008800	-0.927618	0.654995
C22	C	-0.039709	-0.958538	0.623897
N23	N	0.376268	-0.763873	0.818558
O24	O	0.652281	-0.777347	0.619856
O25	O	0.652556	-0.934198	0.832777
O26	O	0.652445	-0.933836	0.697731
O27	O	0.652392	-0.777709	0.754902
O28	O	0.518259	-0.889182	0.742556
O29	O	0.518369	-0.889544	0.877602
O30	O	0.518095	-0.732693	0.664680
Zn31	Zn	0.496927	-0.804029	0.778258
Zn32	Zn	0.673724	-0.862862	0.719200
O33	O	0.518205	-0.733055	0.799726
N34	N	0.794383	-0.903019	0.678891
N35	N	0.154981	-0.542636	0.818657
O36	O	-0.043628	-0.266455	0.805024
O37	O	0.169291	-0.266451	0.648191
O38	O	0.034217	-0.266468	0.648577
O39	O	0.091446	-0.266438	0.804638
O40	O	0.078998	-0.400670	0.693303
O41	O	0.214071	-0.400653	0.692918
O42	O	0.001152	-0.400657	0.849750
Zn43	Zn	0.114722	-0.421963	0.778435
Zn44	Zn	0.055722	-0.245145	0.719506
O45	O	0.136226	-0.400640	0.849364
N46	N	0.015453	-0.124472	0.679286
N47	N	0.155155	-0.763898	1.039838
O48	O	0.141555	-0.962488	1.315987
O49	O	-0.015254	-0.749480	1.316022
O50	O	-0.014890	-0.884527	1.315962
O51	O	0.141192	-0.827441	1.316047
O52	O	0.029815	-0.839777	1.181768
O53	O	0.029452	-0.704730	1.181828
O54	O	0.186261	-0.917739	1.181793
Zn55	Zn	0.114954	-0.804130	1.160504
Zn56	Zn	0.056053	-0.863089	1.337311
O57	O	0.185897	-0.782692	1.181853
N58	N	0.015850	-0.903330	1.457977
C59	C	0.051451	-0.700162	0.649301
C60	C	0.218580	-0.867175	0.649169
C61	C	0.119026	-0.967011	0.848750
C62	C	-0.048103	-0.799998	0.848882
C63	C	0.585495	-0.933471	0.882014
C64	C	0.585361	-0.933023	0.714775
C65	C	0.585151	-0.733419	0.615444
C66	C	0.585291	-0.733869	0.782682
C67	C	0.218449	-0.333386	0.648902
C68	C	0.051232	-0.333573	0.649435
C69	C	-0.048061	-0.333556	0.848984
C70	C	0.119212	-0.333537	0.848507
C71	C	-0.014496	-0.700269	1.248929
C72	C	-0.014037	-0.867500	1.248828
C73	C	0.185503	-0.966949	1.248886
C74	C	0.185054	-0.799709	1.248957
H75	H	0.279759	-0.879241	0.599998
O76	O	0.244139	-1.039985	1.248907
C77	C	0.215106	-1.090179	1.248849
H78	H	0.146380	-1.068315	1.274249
H79	H	0.235605	-1.087985	1.184458
C80	C	0.332948	-1.204358	1.270260
C81	C	0.248538	-1.177508	1.301463
H82	H	0.353572	-1.258228	1.302712
H83	H	0.352510	-1.170542	1.270296
H84	H	0.350019	-1.202524	1.216602
H85	H	0.231467	-1.179334	1.355116
H86	H	0.228973	-1.211327	1.301437
O87	O	0.036742	-0.333546	0.590841
C88	C	0.106008	-0.333570	0.521211
H89	H	0.144544	-0.308156	0.521884
H90	H	0.142433	-0.397955	0.520246
C91	C	0.033083	-0.312163	0.444721
C92	C	0.080410	-0.280943	0.445544
H93	H	0.017294	-0.279703	0.398046
H94	H	-0.013582	-0.312150	0.491632
H95	H	0.063444	-0.365817	0.443920
H96	H	0.050046	-0.227294	0.446356
H97	H	0.127070	-0.280945	0.398632
O98	O	-0.121124	-0.785698	0.907521
C99	C	-0.156890	-0.841116	0.929252
H100	H	-0.130203	-0.864660	0.877490
H101	H	-0.144615	-0.893707	0.985330
C102	C	-0.281365	-0.769889	1.010733
C103	C	-0.248593	-0.798801	0.947155
H104	H	-0.337933	-0.743789	1.021780
H105	H	-0.257269	-0.732554	0.996095
H106	H	-0.271128	-0.813720	1.057458
H107	H	-0.258821	-0.754968	0.900429
H108	H	-0.272694	-0.836127	0.961785
H109	H	-0.109209	-0.333558	0.898221
O110	O	0.585620	-0.992143	0.954999
C111	C	0.585618	-0.963085	1.005224
H112	H	0.610962	-0.911262	0.966433
H113	H	0.521255	-0.940711	1.046005
C114	C	0.607194	-1.095218	1.105044
C115	C	0.638329	-1.031573	1.057399
H116	H	0.639705	-1.137465	1.137231
H117	H	0.607192	-1.114795	1.071208
H118	H	0.553558	-1.076563	1.139020
H119	H	0.691959	-1.050226	1.023416
H120	H	0.638340	-1.012001	1.091231
O121	O	0.133399	-1.039994	0.907442
C122	C	0.064070	-1.040187	0.977009
H123	H	0.025592	-0.975513	0.976220
H124	H	0.027621	-1.069087	0.977993
C125	C	0.136814	-1.168155	1.053707
C126	C	0.089558	-1.088722	1.052741
H127	H	0.152535	-1.198097	1.100422
H128	H	0.183522	-1.168027	1.006837
H129	H	0.106432	-1.192228	1.054523
H130	H	0.119943	-1.064648	1.051914
H131	H	0.042855	-1.088848	1.099612
O132	O	-0.073154	-0.627255	1.248975
C133	C	-0.044106	-0.577047	1.248986
H134	H	0.007694	-0.615858	1.274401
H135	H	-0.021713	-0.536297	1.184615
C136	C	-0.176216	-0.477153	1.270409
C137	C	-0.112599	-0.524821	1.301630
H138	H	-0.218466	-0.444934	1.302879
H139	H	-0.195786	-0.510977	1.270398
H140	H	-0.157545	-0.443202	1.216767
H141	H	-0.131268	-0.558777	1.355267
H142	H	-0.093033	-0.491001	1.301651
H143	H	0.585383	-0.982069	0.702538
O144	O	0.291177	-0.332841	0.589911
C145	C	0.280123	-0.263183	0.522148
H146	H	0.215706	-0.240271	0.523249
H147	H	0.291450	-0.214430	0.523720
C148	C	0.418883	-0.312041	0.443166
C149	C	0.339767	-0.283904	0.444514
H150	H	0.455676	-0.324821	0.395277
H151	H	0.426332	-0.358970	0.488819
H152	H	0.428310	-0.271409	0.444479
H153	H	0.330338	-0.324540	0.443211
H154	H	0.332318	-0.236983	0.398858
H155	H	0.234089	-0.787495	1.248972
O156	O	0.585082	-0.674765	0.542442
C157	C	0.585034	-0.703807	0.492233
H158	H	0.610507	-0.772539	0.514049
H159	H	0.520640	-0.683334	0.494464
C160	C	0.606272	-0.585921	0.378111
C161	C	0.637564	-0.670339	0.404901
H162	H	0.638672	-0.565274	0.324240
H163	H	0.606301	-0.566353	0.411938
H164	H	0.552611	-0.568871	0.379977
H165	H	0.691220	-0.687387	0.403045
H166	H	0.637545	-0.689909	0.371072
H167	H	0.585279	-0.684826	0.794916
O168	O	0.133974	-0.333578	0.906928
C169	C	0.213280	-0.333557	0.877523
H170	H	0.251428	-0.358956	0.825720
H171	H	0.212079	-0.269175	0.855024
C172	C	0.203144	-0.355003	1.009397
C173	C	0.250000	-0.386204	0.945775
H174	H	0.225794	-0.387474	1.051498
H175	H	0.149713	-0.355013	1.029208
H176	H	0.202147	-0.301351	0.990638
H177	H	0.250988	-0.439850	0.964533
H178	H	0.303432	-0.386203	0.925969
O179	O	0.036808	-0.627092	0.590785
C180	C	-0.042478	-0.577029	0.620063
H181	H	-0.080710	-0.615961	0.671878
H182	H	-0.041260	-0.536302	0.642507
C183	C	-0.032129	-0.476952	0.488093
C184	C	-0.079088	-0.524769	0.551729
H185	H	-0.054712	-0.444712	0.445941
H186	H	0.021289	-0.510678	0.468368
H187	H	-0.031118	-0.443020	0.506807
H188	H	-0.080090	-0.558707	0.533018
H189	H	-0.132507	-0.491047	0.571450
O190	O	-0.072413	-0.882158	1.248694
C191	C	-0.043023	-0.961476	1.248668
H192	H	0.025703	-0.982735	1.223314
H193	H	-0.063454	-1.003226	1.313027
C194	C	-0.160567	-0.936893	1.227090
C195	C	-0.076157	-0.963002	1.195943
H196	H	-0.181007	-0.937836	1.194570
H197	H	-0.180369	-0.883456	1.227110
H198	H	-0.177582	-0.971688	1.280722
H199	H	-0.059143	-0.928201	1.142316
H200	H	-0.056352	-1.016433	1.195912
