data_functionalizedCrystal
_audit_creation_method	'MofGen! by Chris Wilmer'
_symmetry_space_group_name_H-M	'P1'
_symmetry_Int_Tables_number	1
_symmetry_cell_setting	triclinic
loop_
_symmetry_equiv_pos_as_xyz
  x,y,z
_cell_length_a	15.944551
_cell_length_b	23.532407
_cell_length_c	14.421503
_cell_angle_alpha	89.999621
_cell_angle_beta	89.996859
_cell_angle_gamma	83.173708
loop_
_atom_site_label
_atom_site_type_symbol
_atom_site_fract_x
_atom_site_fract_y
_atom_site_fract_z
O1	O	1.113910	0.073442	-0.077025
O2	O	0.869284	0.082498	-0.077049
O3	O	0.998974	-0.004933	-0.077019
O4	O	0.984221	0.160873	-0.077055
O5	O	0.998953	-0.004920	0.077204
O6	O	0.869263	0.082511	0.077174
O7	O	1.113889	0.073455	0.077199
Cu8	Cu	0.991574	0.077984	0.091268
Cu9	Cu	0.991599	0.077969	-0.091119
O10	O	0.984199	0.160886	0.077169
C11	C	0.837983	0.082128	0.000060
C12	C	0.744746	0.081001	0.000051
C13	C	0.530369	0.024113	0.000081
C14	C	0.469137	0.050524	-0.075964
C15	C	0.574038	0.078962	0.000063
C16	C	0.469138	0.050550	0.076088
C17	C	0.409142	0.076989	0.000078
C18	C	0.514034	0.105388	-0.076046
C19	C	0.514041	0.105406	0.076075
C20	C	0.452826	0.131856	0.000010
C21	C	0.669030	0.080097	0.000053
C22	C	0.314150	0.075858	0.000081
C23	C	0.998588	-0.026144	0.000095
C24	C	0.997458	-0.089366	0.000102
C25	C	1.067121	-0.488199	0.000058
C26	C	1.066072	-0.547603	0.000051
O27	O	1.130650	-0.584098	0.000023
N28	N	0.988971	-0.570528	0.000044
C29	C	0.912915	-0.534045	0.000035
O30	O	0.847239	-0.558999	0.000027
C31	C	0.913965	-0.474642	0.000035
C32	C	0.991071	-0.451721	0.000052
C33	C	1.144220	-0.465277	0.000073
C34	C	1.145269	-0.405877	0.000082
C35	C	1.069219	-0.369399	0.000076
C36	C	0.992120	-0.392320	0.000060
C37	C	0.837910	-0.438160	0.000019
C38	C	0.838967	-0.378754	0.000019
C39	C	0.916072	-0.355832	0.000035
C40	C	0.917118	-0.296442	0.000063
N41	N	0.994219	-0.273517	0.000070
C42	C	1.070269	-0.309995	0.000076
C43	C	0.910716	-0.658796	0.000032
C44	C	0.909664	-0.718198	0.000038
C45	C	1.062821	-0.731752	0.000053
C46	C	1.063872	-0.672349	0.000053
C47	C	0.987816	-0.635871	0.000039
C48	C	1.072466	-0.185250	0.000096
C49	C	1.073508	-0.125844	0.000108
C50	C	0.920352	-0.112295	0.000089
C51	C	0.919309	-0.171696	0.000081
C52	C	0.995373	-0.208173	0.000081
O53	O	0.852574	-0.259913	0.000087
O54	O	1.135935	-0.285033	0.000072
C55	C	1.145190	0.073824	0.000088
C56	C	1.238427	0.074951	0.000090
C57	C	0.984586	0.182097	0.000053
C58	C	0.985715	0.245318	0.000040
N59	N	0.991562	0.077994	0.219550
N60	N	0.991618	0.077954	-0.219400
C61	C	0.931583	0.118404	0.469190
C62	C	1.007390	0.129461	0.530997
C63	C	0.991583	0.077981	0.408711
C64	C	0.915795	0.066938	0.530998
C65	C	0.991596	0.077969	0.591433
C66	C	1.067428	0.089063	0.469158
C67	C	0.975783	0.026517	0.469153
C68	C	1.051645	0.037552	0.530932
C69	C	0.991574	0.077989	0.303450
C70	C	0.991613	0.077960	0.696691
H71	H	0.533968	0.128591	0.140359
C72	C	0.442256	0.019208	0.162943
C73	C	0.476998	-0.043849	0.179638
C74	C	0.450120	-0.075195	0.266488
C75	C	0.388500	-0.043483	0.336641
C76	C	0.353755	0.019578	0.319947
C77	C	0.380632	0.050924	0.233098
H78	H	0.522615	-0.067328	0.127705
H79	H	0.475841	-0.121877	0.278845
H80	H	0.368603	-0.066687	0.400932
H81	H	0.308137	0.043057	0.371881
H82	H	0.354911	0.097606	0.220741
H83	H	0.880895	0.152617	0.442080
C84	C	1.025462	0.188245	0.567704
C85	C	0.965417	0.242351	0.543347
C86	C	0.983482	0.301137	0.580050
C87	C	1.061593	0.305817	0.641111
C88	C	1.121643	0.251709	0.665471
C89	C	1.103577	0.192923	0.628768
H90	H	0.907591	0.238889	0.498143
H91	H	0.939029	0.341191	0.562016
H92	H	1.074966	0.349333	0.668280
H93	H	1.179469	0.255171	0.710675
H94	H	1.148031	0.152869	0.646802
H95	H	0.419284	0.177423	-0.000042
C96	C	0.957684	-0.032251	0.432417
C97	C	1.023338	-0.068032	0.371326
C98	C	1.005228	-0.126800	0.334588
C99	C	0.921464	-0.149787	0.358941
C100	C	0.855805	-0.114005	0.420035
C101	C	0.873915	-0.055237	0.456773
H102	H	1.085349	-0.051016	0.353295
H103	H	1.053833	-0.153288	0.289361
H104	H	0.908058	-0.193290	0.331745
H105	H	0.793794	-0.131021	0.438066
H106	H	0.825310	-0.028749	0.501999
H107	H	0.449231	0.027320	-0.140246
C108	C	1.158330	-0.100632	0.000121
C109	C	1.221352	-0.114400	0.080208
C110	C	1.306170	-0.089191	0.080218
C111	C	1.327966	-0.050214	0.000142
C112	C	1.264942	-0.036444	-0.079951
C113	C	1.180124	-0.061654	-0.079961
H114	H	1.205218	-0.143255	0.139490
H115	H	1.352824	-0.099384	0.139508
H116	H	1.390754	-0.031552	0.000149
H117	H	1.281076	-0.007590	-0.139233
H118	H	1.133470	-0.051460	-0.139251
C119	C	1.120267	-0.008639	0.567336
C120	C	1.213646	-0.005782	0.542689
C121	C	1.282269	-0.051970	0.579094
C122	C	1.257514	-0.101016	0.640147
C123	C	1.164131	-0.103875	0.664798
C124	C	1.095507	-0.057687	0.628392
H125	H	1.231975	0.030527	0.497491
H126	H	1.351398	-0.049853	0.560846
H127	H	1.308313	-0.135207	0.667097
H128	H	1.145801	-0.140184	0.709996
H129	H	1.026379	-0.059804	0.646641
C130	C	1.154039	0.101747	0.432625
C131	C	1.170025	0.104122	0.327465
C132	C	1.256632	0.116808	0.290931
C133	C	1.327255	0.127119	0.359556
C134	C	1.311271	0.124745	0.464722
C135	C	1.224663	0.112059	0.501257
H136	H	1.117744	0.096489	0.276659
H137	H	1.268464	0.118566	0.213079
H138	H	1.391367	0.136510	0.332511
H139	H	1.363552	0.132378	0.515528
H140	H	1.212832	0.110301	0.579108
H141	H	1.126658	-0.653691	0.000066
C142	C	1.156136	-0.225369	0.000103
C143	C	1.219435	-0.222788	0.080202
C144	C	1.303103	-0.262906	0.080218
C145	C	1.323473	-0.305606	0.000134
C146	C	1.260172	-0.308188	-0.079971
C147	C	1.176504	-0.268070	-0.079986
H148	H	1.204358	-0.191178	0.139490
H149	H	1.349962	-0.260994	0.139517
H150	H	1.385409	-0.335304	0.000146
H151	H	1.275249	-0.339798	-0.139259
H152	H	1.129644	-0.269982	-0.139286
C153	C	0.829207	0.054316	0.567689
C154	C	0.813589	0.051480	0.672873
C155	C	0.726999	0.038861	0.709559
C156	C	0.656029	0.029078	0.641061
C157	C	0.671645	0.031914	0.535871
C158	C	0.758235	0.044532	0.499185
H159	H	0.866127	0.058722	0.723585
H160	H	0.715439	0.036762	0.787428
H161	H	0.591930	0.019737	0.668218
H162	H	0.619107	0.024671	0.485159
H163	H	0.769795	0.046631	0.421316
C164	C	0.575891	-0.037388	-0.000003
C165	C	0.562000	-0.078198	-0.080552
C166	C	0.607523	-0.139697	-0.080641
C167	C	0.666938	-0.160386	-0.000181
C168	C	0.680832	-0.119575	0.080374
C169	C	0.635308	-0.058076	0.080464
H170	H	0.518015	-0.062884	-0.140119
H171	H	0.597237	-0.169908	-0.140274
H172	H	0.700637	-0.205912	-0.000247
H173	H	0.724816	-0.134890	0.139941
H174	H	0.645594	-0.027865	0.140097
H175	H	0.533835	0.128563	-0.140407
H176	H	1.208056	-0.387220	0.000092
C177	C	1.146479	-0.771887	0.000050
C178	C	1.209807	-0.769314	-0.080031
C179	C	1.293459	-0.809450	-0.080033
C180	C	1.313783	-0.852159	0.000045
C181	C	1.250453	-0.854733	0.080131
C182	C	1.166802	-0.814597	0.080134
H183	H	1.194764	-0.737697	-0.139314
H184	H	1.340340	-0.807544	-0.139319
H185	H	1.375707	-0.881870	0.000043
H186	H	1.265497	-0.886351	0.139415
H187	H	1.119921	-0.816504	0.139420
H188	H	1.206153	-0.494973	0.000075
H189	H	0.846878	-0.736855	0.000041
C190	C	0.827047	-0.618673	0.000033
C191	C	0.763734	-0.621254	-0.080052
C192	C	0.680066	-0.581134	-0.080051
C193	C	0.659712	-0.538434	0.000035
C194	C	0.723027	-0.535852	0.080126
C195	C	0.806694	-0.575971	0.080125
H196	H	0.778800	-0.652864	-0.139341
H197	H	0.633196	-0.583046	-0.139340
H198	H	0.597776	-0.508736	0.000035
H199	H	0.707961	-0.504241	0.139415
H200	H	0.853564	-0.574059	0.139414
H201	H	0.775123	-0.456812	0.000000
H202	H	0.777032	-0.349056	0.000006
C203	C	0.834498	-0.196917	0.000068
C204	C	0.771449	-0.183168	0.080143
C205	C	0.686638	-0.208387	0.080118
C206	C	0.664876	-0.247354	0.000018
C207	C	0.727926	-0.261105	-0.080063
C208	C	0.812737	-0.235887	-0.080038
H209	H	0.787558	-0.154321	0.139443
H210	H	0.639965	-0.198207	0.139399
H211	H	0.602093	-0.266022	-0.000001
H212	H	0.711817	-0.289953	-0.139363
H213	H	0.859410	-0.246067	-0.139320
H214	H	0.858434	-0.082584	0.000087
