data_functionalizedCrystal
_audit_creation_method	'MofGen! by Chris Wilmer'
_symmetry_space_group_name_H-M	'P1'
_symmetry_Int_Tables_number	1
_symmetry_cell_setting	triclinic
loop_
_symmetry_equiv_pos_as_xyz
  x,y,z
_cell_length_a	34.490303
_cell_length_b	34.489386
_cell_length_c	34.485816
_cell_angle_alpha	60.004462
_cell_angle_beta	60.008900
_cell_angle_gamma	59.994399
loop_
_atom_site_label
_atom_site_type_symbol
_atom_site_fract_x
_atom_site_fract_y
_atom_site_fract_z
O1	O	0.053846	-0.566517	0.473678
O2	O	0.553846	-0.066517	0.973678
O3	O	0.020329	-0.441078	0.381663
O4	O	0.520329	0.058922	0.881663
O5	O	0.099768	-0.520436	0.381578
O6	O	0.599768	-0.020436	0.881578
O7	O	-0.025592	-0.487159	0.473762
O8	O	0.474408	0.012841	0.973762
O9	O	0.126127	-0.494082	0.407849
O10	O	0.626127	0.005918	0.907849
O11	O	0.046689	-0.414724	0.407933
O12	O	0.546689	0.085276	0.907933
O13	O	0.080206	-0.540163	0.499949
O14	O	0.580206	-0.040163	0.999949
Zn15	Zn	0.067632	-0.473259	0.458112
Zn16	Zn	0.567632	0.026741	0.958112
Zn17	Zn	0.032903	-0.507982	0.423499
Zn18	Zn	0.532903	-0.007982	0.923499
O19	O	0.000767	-0.460805	0.500033
O20	O	0.500767	0.039195	1.000033
N21	N	0.091336	-0.449565	0.481736
N22	N	0.591336	0.050435	0.981736
N23	N	0.009203	-0.531680	0.399875
N24	N	0.509203	-0.031680	0.899875
C25	C	0.142510	-0.268211	0.532817
C26	C	0.642510	0.231789	1.032817
C27	C	0.142641	-0.398441	0.662987
C28	C	0.642641	0.101559	1.162987
C29	C	0.142524	-0.398421	0.532817
C30	C	0.642524	0.101579	1.032817
C31	C	0.272762	-0.398394	0.532723
C32	C	0.772762	0.101606	1.032723
C33	C	0.156853	-0.311177	0.547124
C34	C	0.656853	0.188823	1.047124
C35	C	0.156928	-0.384109	0.620020
C36	C	0.656928	0.115891	1.120020
C37	C	0.229794	-0.384081	0.547073
C38	C	0.729794	0.115919	1.047073
C39	C	0.156863	-0.384097	0.547124
C40	C	0.656863	0.115903	1.047124
C41	C	0.124253	-0.213522	0.514606
C42	C	0.624253	0.286478	1.014606
C43	C	0.124277	-0.416652	0.514606
C44	C	0.624277	0.083348	1.014606
C45	C	0.175110	-0.365866	0.565335
C46	C	0.675110	0.134134	1.065335
C47	C	0.352285	-0.384669	0.490824
C48	C	0.852285	0.115331	0.990824
C49	C	0.401998	-0.401229	0.474223
C50	C	0.901998	0.098771	0.974223
C51	C	0.402027	-0.481671	0.504898
C52	C	0.902027	0.018329	1.004898
C53	C	0.352316	-0.465109	0.521500
C54	C	0.852316	0.034891	1.021500
C55	C	0.136220	-0.188652	0.465734
C56	C	0.636220	0.311348	0.965734
C57	C	0.119621	-0.138936	0.449181
C58	C	0.619621	0.361064	0.949181
C59	C	0.079092	-0.138961	0.530374
C60	C	0.579092	0.361039	1.030374
C61	C	0.095691	-0.188678	0.546927
C62	C	0.595691	0.311322	1.046927
C63	C	0.075398	-0.404656	0.526651
C64	C	0.575398	0.095344	1.026651
C65	C	0.058814	-0.421229	0.510091
C66	C	0.558814	0.078771	1.010091
C67	C	0.139984	-0.461794	0.469452
C68	C	0.639984	0.038206	0.969452
C69	C	0.156570	-0.445221	0.486007
C70	C	0.656570	0.054779	0.986007
C71	C	0.075593	-0.404694	0.742565
C72	C	0.575593	0.095306	1.242565
C73	C	0.059066	-0.421281	0.792280
C74	C	0.559066	0.078719	1.292280
C75	C	0.140274	-0.461856	0.792215
C76	C	0.640274	0.038144	1.292215
C77	C	0.156800	-0.445269	0.742499
C78	C	0.656800	0.054731	1.242499
C79	C	0.124458	-0.416687	0.717675
C80	C	0.624458	0.083313	1.217675
C81	C	0.327446	-0.416608	0.514460
C82	C	0.827446	0.083392	1.014460
C83	C	-0.023585	-0.564792	0.161919
C84	C	0.476415	-0.064792	0.661919
C85	C	-0.023910	-0.769260	0.366530
C86	C	0.476090	-0.269260	0.866530
C87	C	-0.023880	-0.564780	0.366623
C88	C	0.476120	-0.064780	0.866623
C89	C	-0.228325	-0.564561	0.366222
C90	C	0.271675	-0.064561	0.866222
C91	C	-0.129610	-0.597564	0.333467
C92	C	0.370390	-0.097564	0.833467
C93	C	-0.056729	-0.597644	0.333613
C94	C	0.443271	-0.097644	0.833613
C95	C	-0.074925	-0.615849	0.315324
C96	C	0.425075	-0.115849	0.815324
C97	C	-0.088689	-0.695351	0.357144
C98	C	0.411311	-0.195351	0.857144
C99	C	-0.072155	-0.745068	0.373736
C100	C	0.427845	-0.245068	0.873736
C101	C	0.008283	-0.745150	0.343188
C102	C	0.508283	-0.245150	0.843188
C103	C	-0.008252	-0.695435	0.326596
C104	C	0.491748	-0.195435	0.826596
C105	C	-0.154529	-0.609541	0.382326
C106	C	0.345471	-0.109541	0.882326
C107	C	-0.204241	-0.592916	0.398818
C108	C	0.295759	-0.092916	0.898818
C109	C	-0.204114	-0.552341	0.317588
C110	C	0.295886	-0.052341	0.817588
C111	C	-0.154401	-0.568966	0.301096
C112	C	0.345599	-0.068966	0.801096
C113	C	-0.068707	-0.548770	0.321590
C114	C	0.431293	-0.048770	0.821590
C115	C	-0.052166	-0.532225	0.338221
C116	C	0.447834	-0.032225	0.838221
C117	C	-0.011669	-0.613425	0.378886
C118	C	0.488331	-0.113425	0.878886
C119	C	-0.028210	-0.629972	0.362261
C120	C	0.471790	-0.129972	0.862261
C121	C	-0.068581	-0.548777	0.235758
C122	C	0.431419	-0.048777	0.735758
C123	C	-0.051939	-0.532234	0.186043
C124	C	0.448061	-0.032234	0.686043
C125	C	-0.011379	-0.613438	0.186090
C126	C	0.488621	-0.113438	0.686090
C127	C	-0.028020	-0.629981	0.235806
C128	C	0.471980	-0.129981	0.735806
C129	C	-0.056622	-0.597649	0.260639
C130	C	0.443378	-0.097649	0.760639
C131	C	-0.056739	-0.670537	0.333576
C132	C	0.443261	-0.170537	0.833576
C133	C	-0.005614	-0.545951	0.107238
C134	C	0.494386	-0.045951	0.607238
C135	C	-0.006360	-0.823943	0.385033
C136	C	0.493640	-0.323943	0.885033
C137	C	-0.005995	-0.545937	0.384582
C138	C	0.494005	-0.045937	0.884582
C139	C	-0.283006	-0.545971	0.383725
C140	C	0.216994	-0.045971	0.883725
N141	N	0.426163	-0.449489	0.481488
N142	N	0.926163	0.050511	0.981488
O143	O	0.588601	-0.457377	0.364497
O144	O	1.088601	0.042623	0.864497
O145	O	0.588789	-0.549696	0.489801
O146	O	1.088789	-0.049696	0.989801
O147	O	0.588709	-0.549485	0.410335
O148	O	1.088709	-0.049485	0.910335
O149	O	0.588681	-0.457588	0.443963
O150	O	1.088681	0.042412	0.943963
O151	O	0.509731	-0.523223	0.436741
O152	O	1.009731	-0.023223	0.936741
O153	O	0.509811	-0.523434	0.516207
O154	O	1.009811	-0.023434	1.016207
O155	O	0.509624	-0.431115	0.390903
O156	O	1.009624	0.068885	0.890903
Zn157	Zn	0.497178	-0.473105	0.457747
Zn158	Zn	0.997178	0.026895	0.957747
Zn159	Zn	0.601234	-0.507706	0.422956
Zn160	Zn	1.101234	-0.007706	0.922956
O161	O	0.509704	-0.431326	0.470368
O162	O	1.009704	0.068674	0.970368
N163	N	0.672250	-0.531322	0.399211
N164	N	1.172250	-0.031322	0.899211
N165	N	0.091303	-0.114798	0.481730
N166	N	0.591303	0.385202	0.981730
O167	O	-0.025603	0.047729	0.473733
O168	O	0.474397	0.547729	0.973733
O169	O	0.099703	0.047764	0.381394
O170	O	0.599703	0.547764	0.881394
O171	O	0.020199	0.047731	0.381655
O172	O	0.520199	0.547731	0.881655
O173	O	0.053901	0.047761	0.473472
O174	O	0.553901	0.547761	0.973472
O175	O	0.046564	-0.031252	0.407974
O176	O	0.546564	0.468748	0.907974
O177	O	0.126068	-0.031219	0.407713
O178	O	0.626068	0.468781	0.907713
O179	O	0.000762	-0.031254	0.500052
O180	O	0.500762	0.468746	1.000052
Zn181	Zn	0.067601	-0.043777	0.458061
Zn182	Zn	0.567601	0.456223	0.958061
Zn183	Zn	0.032864	0.060287	0.423385
Zn184	Zn	0.532864	0.560287	0.923385
O185	O	0.080266	-0.031222	0.499791
O186	O	0.580266	0.468778	0.999791
N187	N	0.009156	0.131307	0.399717
N188	N	0.509156	0.631307	0.899717
N189	N	0.091635	-0.449614	0.816396
N190	N	0.591635	0.050386	1.316396
O191	O	0.083664	-0.566502	0.978913
O192	O	0.583664	-0.066502	1.478913
O193	O	-0.008637	-0.441152	0.978954
O194	O	0.491363	0.058848	1.478954
O195	O	-0.008421	-0.520640	0.978930
O196	O	0.491579	-0.020640	1.478930
O197	O	0.083448	-0.487013	0.978936
O198	O	0.583448	0.012987	1.478936
O199	O	0.017877	-0.494296	0.899950
O200	O	0.517877	0.005704	1.399950
O201	O	0.017661	-0.414807	0.899974
O202	O	0.517661	0.085193	1.399974
O203	O	0.109961	-0.540157	0.899933
O204	O	0.609961	-0.040157	1.399933
Zn205	Zn	0.067986	-0.473299	0.887414
Zn206	Zn	0.567986	0.026701	1.387414
Zn207	Zn	0.033338	-0.508010	0.991473
Zn208	Zn	0.533338	-0.008010	1.491473
O209	O	0.109746	-0.460669	0.899956
O210	O	0.609746	0.039331	1.399956
N211	N	0.009689	-0.531700	1.062491
N212	N	0.509689	-0.031700	1.562491
C213	C	0.030367	-0.412095	0.382120
C214	C	0.530367	0.087905	0.882120
C215	C	0.128741	-0.510370	0.382016
C216	C	0.628741	-0.010370	0.882016
C217	C	0.070168	-0.569147	0.499490
C218	C	0.570168	-0.069147	0.999490
C219	C	-0.028207	-0.470871	0.499595
C220	C	0.471793	0.029129	0.999595
C221	C	0.549323	-0.549278	0.518791
C222	C	1.049323	-0.049278	1.018791
C223	C	0.549225	-0.549017	0.420381
C224	C	1.049225	-0.049017	0.920381
C225	C	0.549087	-0.431532	0.361914
C226	C	1.049087	0.068468	0.861914
C227	C	0.549188	-0.431794	0.460322
C228	C	1.049188	0.068206	0.960322
C229	C	0.128638	0.008374	0.381806
C230	C	0.628638	0.508374	0.881806
C231	C	0.030215	0.008236	0.382161
C232	C	0.530215	0.508236	0.882161
C233	C	-0.028206	0.008233	0.499608
C234	C	0.471794	0.508233	0.999608
C235	C	0.070250	0.008272	0.499285
C236	C	0.570250	0.508272	0.999285
C237	C	-0.008199	-0.412187	0.939469
C238	C	0.491801	0.087813	1.439469
C239	C	-0.007927	-0.510619	0.939425
C240	C	0.492073	-0.010619	1.439425
C241	C	0.109523	-0.569121	0.939417
C242	C	0.609523	-0.069121	1.439417
C243	C	0.109257	-0.470684	0.939444
C244	C	0.609257	0.029316	1.439444
H245	H	0.019274	-0.411508	0.812539
H246	H	0.519274	0.088492	1.312539
O247	O	-0.042362	-0.519107	0.939320
O248	O	0.457638	-0.019107	1.439320
C249	C	-0.055118	-0.486546	0.898402
C250	C	0.444882	0.013454	1.398402
H251	H	-0.045661	-0.453637	0.884796
H252	H	0.454339	0.046363	1.384796
H253	H	-0.035059	-0.503751	0.869744
H254	H	0.464941	-0.003751	1.369744
C255	C	-0.120541	-0.512608	0.927508
C256	C	0.379459	-0.012608	1.427508
C257	C	-0.108929	-0.472187	0.910799
C258	C	0.391071	0.027813	1.410799
H259	H	-0.153733	-0.503752	0.935155
H260	H	0.346267	-0.003752	1.435155
H261	H	-0.111946	-0.534547	0.955075
H262	H	0.388054	-0.034547	1.455075
H263	H	-0.103821	-0.526942	0.903624
H264	H	0.396179	-0.026942	1.403624
H265	H	-0.125644	-0.457858	0.934686
H266	H	0.374356	0.042142	1.434686
H267	H	-0.117528	-0.450246	0.883237
H268	H	0.382472	0.049754	1.383237
H269	H	0.023205	-0.376060	0.353221
H270	H	0.523205	0.123940	0.853221
H271	H	0.422223	-0.375220	0.454977
H272	H	0.922223	0.124780	0.954977
H273	H	0.022995	0.008233	0.353314
H274	H	0.522995	0.508233	0.853314
O275	O	-0.071102	0.008141	0.534232
O276	O	0.428898	0.508141	1.034232
C277	C	-0.064814	-0.032755	0.574248
C278	C	0.435186	0.467245	1.074248
H279	H	-0.030041	-0.061343	0.562798
H280	H	0.469959	0.438657	1.062798
H281	H	-0.063704	-0.023498	0.601041
H282	H	0.436296	0.476502	1.101041
C283	C	-0.149127	-0.016205	0.611298
C284	C	0.350873	0.483795	1.111298
C285	C	-0.106420	-0.051318	0.597233
C286	C	0.393580	0.448682	1.097233
H287	H	-0.174792	-0.027655	0.625478
H288	H	0.325208	0.472345	1.125478
H289	H	-0.153364	0.011349	0.584339
H290	H	0.346636	0.511349	1.084339
H291	H	-0.148195	-0.008494	0.633623
H292	H	0.351805	0.491506	1.133623
H293	H	-0.107350	-0.059024	0.574904
H294	H	0.392650	0.440976	1.074904
H295	H	-0.102185	-0.078873	0.624189
H296	H	0.397815	0.421127	1.124189
H297	H	0.077468	0.008281	0.528131
H298	H	0.577468	0.508281	1.028131
O299	O	0.204266	-0.456976	0.718302
O300	O	0.704266	0.043024	1.218302
C301	C	0.216260	-0.481987	0.689534
C302	C	0.716260	0.018013	1.189534
H303	H	0.188242	-0.498819	0.704533
H304	H	0.688242	0.001181	1.204533
H305	H	0.217878	-0.456416	0.651865
H306	H	0.717878	0.043584	1.151865
C307	C	0.299438	-0.500440	0.670313
C308	C	0.799438	-0.000440	1.170313
C309	C	0.265027	-0.521117	0.688737
C310	C	0.765027	-0.021117	1.188737
H311	H	0.329521	-0.524576	0.669819
H312	H	0.829521	-0.024576	1.169819
H313	H	0.291358	-0.483588	0.689693
H314	H	0.791358	0.016412	1.189693
H315	H	0.300780	-0.479132	0.638924
H316	H	0.800780	0.020868	1.138924
H317	H	0.263681	-0.542421	0.720128
H318	H	0.763681	-0.042421	1.220128
H319	H	0.273108	-0.537973	0.669363
H320	H	0.773108	-0.037973	1.169363
O321	O	-0.071138	-0.462366	0.534145
O322	O	0.428862	0.037634	1.034145
C323	C	-0.079635	-0.423925	0.545100
C324	C	0.420365	0.076075	1.045100
H325	H	-0.044374	-0.420104	0.534586
H326	H	0.455626	0.079896	1.034586
H327	H	-0.102561	-0.389883	0.524719
H328	H	0.397439	0.110117	1.024719
C329	C	-0.148888	-0.437774	0.611717
C330	C	0.351112	0.062226	1.111717
C331	C	-0.105579	-0.433083	0.598807
C332	C	0.394421	0.066917	1.098807
H333	H	-0.164893	-0.443421	0.644846
H334	H	0.335107	0.056579	1.144846
H335	H	-0.143165	-0.463671	0.604336
H336	H	0.356835	0.036329	1.104336
H337	H	-0.167987	-0.409404	0.594729
H338	H	0.332013	0.090596	1.094729
H339	H	-0.086479	-0.461454	0.615791
H340	H	0.413521	0.038546	1.115791
H341	H	-0.111300	-0.407190	0.606193
H342	H	0.388700	0.092810	1.106193
O343	O	0.078779	-0.612168	0.533911
O344	O	0.578779	-0.112168	1.033911
C345	C	0.125452	-0.641614	0.516675
C346	C	0.625452	-0.141614	1.016675
H347	H	0.137969	-0.628670	0.476225
H348	H	0.637969	-0.128670	0.976225
H349	H	0.150025	-0.640302	0.528680
H350	H	0.650025	-0.140302	1.028680
C351	C	0.110958	-0.708935	0.585951
C352	C	0.610958	-0.208935	1.085951
C353	C	0.126330	-0.693039	0.536270
C354	C	0.626330	-0.193039	1.036270
H355	H	0.111501	-0.740657	0.598040
H356	H	0.611501	-0.240657	1.098040
H357	H	0.079514	-0.689097	0.597564
H358	H	0.579514	-0.189097	1.097564
H359	H	0.131438	-0.707838	0.595949
H360	H	0.631438	-0.207838	1.095949
H361	H	0.105847	-0.694131	0.526273
H362	H	0.605847	-0.194131	1.026273
H363	H	0.157771	-0.712879	0.524656
H364	H	0.657771	-0.212879	1.024656
H365	H	0.549371	-0.578259	0.554780
H366	H	1.049371	-0.078259	1.054780
H367	H	0.549237	-0.577886	0.413185
H368	H	1.049237	-0.077886	0.913185
O369	O	0.549262	-0.397366	0.468852
O370	O	1.049262	0.102634	0.968852
C371	C	0.590124	-0.384542	0.436260
C372	C	1.090124	0.115458	0.936260
H373	H	0.618720	-0.414950	0.422313
H374	H	1.118720	0.085050	0.922313
H375	H	0.580822	-0.351468	0.405367
H376	H	1.080822	0.148532	0.905367
C377	C	0.573575	-0.336785	0.478362
C378	C	1.073575	0.163215	0.978362
C379	C	0.608698	-0.374134	0.461234
C380	C	1.108698	0.125866	0.961234
H381	H	0.585032	-0.330363	0.493766
H382	H	1.085032	0.169637	0.993766
H383	H	0.546045	-0.345423	0.500319
H384	H	1.046045	0.154577	1.000319
H385	H	0.565827	-0.309228	0.452614
H386	H	1.065827	0.190772	0.952614
H387	H	0.616442	-0.401692	0.486983
H388	H	1.116442	0.098308	0.986983
H389	H	0.636231	-0.365500	0.439283
H390	H	1.136231	0.134500	0.939283
H391	H	0.138503	-0.605120	0.939399
H392	H	0.638503	-0.105120	1.439399
H393	H	0.549027	-0.402547	0.325928
H394	H	1.049027	0.097453	0.825928
O395	O	0.143705	-0.462052	0.939355
O396	O	0.643705	0.037948	1.439355
C397	C	0.154583	-0.423583	0.898462
C398	C	0.654583	0.076417	1.398462
H399	H	0.144140	-0.419841	0.869875
H400	H	0.644140	0.080159	1.369875
H401	H	0.134093	-0.389534	0.907722
H402	H	0.634093	0.110466	1.407722
C403	C	0.221079	-0.437207	0.915013
C404	C	0.721079	0.062793	1.415013
C405	C	0.208256	-0.432613	0.879900
C406	C	0.708256	0.067387	1.379900
H407	H	0.254187	-0.442776	0.903563
H408	H	0.754187	0.057224	1.403563
H409	H	0.213749	-0.463123	0.942564
H410	H	0.713749	0.036877	1.442564
H411	H	0.204000	-0.408832	0.922725
H412	H	0.704000	0.091168	1.422725
H413	H	0.225331	-0.460990	0.872192
H414	H	0.725331	0.039010	1.372192
H415	H	0.215590	-0.406702	0.852347
H416	H	0.715590	0.093298	1.352347
O417	O	-0.042726	-0.369221	0.939504
O418	O	0.457274	0.130779	1.439504
C419	C	-0.025629	-0.339664	0.939499
C420	C	0.474371	0.160336	1.439499
H421	H	0.004863	-0.362499	0.954444
H422	H	0.504863	0.137501	1.454444
H423	H	-0.012457	-0.315676	0.901611
H424	H	0.487543	0.184324	1.401611
C425	C	-0.103388	-0.280888	0.952129
C426	C	0.396612	0.219112	1.452129
C427	C	-0.065939	-0.308934	0.970489
C428	C	0.434061	0.191066	1.470489
H429	H	-0.128253	-0.261930	0.971243
H430	H	0.371747	0.238070	1.471243
H431	H	-0.114906	-0.300800	0.952131
H432	H	0.385094	0.199200	1.452131
H433	H	-0.092404	-0.260902	0.920556
H434	H	0.407596	0.239098	1.420556
H435	H	-0.076921	-0.328923	1.002059
H436	H	0.423079	0.171077	1.502059
H437	H	-0.054423	-0.289024	0.970493
H438	H	0.445577	0.210976	1.470493
H439	H	0.049253	-0.381417	0.722357
H440	H	0.549253	0.118583	1.222357
H441	H	0.164551	0.008603	0.352745
H442	H	0.664551	0.508603	0.852745
H443	H	0.166612	-0.485121	0.812425
H444	H	0.666612	0.014879	1.312425
H445	H	0.049100	-0.381393	0.549936
H446	H	0.549100	0.118607	1.049936
H447	H	0.019013	-0.411451	0.519888
H448	H	0.519013	0.088549	1.019888
H449	H	0.196371	-0.454985	0.476195
H450	H	0.696371	0.045015	0.976195
O451	O	0.171420	-0.489528	0.441661
O452	O	0.671420	0.010472	0.941661
C453	C	0.218118	-0.496573	0.434595
C454	C	0.718118	0.003427	0.934595
H455	H	0.218032	-0.466601	0.440148
H456	H	0.718032	0.033399	0.940148
H457	H	0.232390	-0.531992	0.461039
H458	H	0.732390	-0.031992	0.961039
C459	C	0.250072	-0.533723	0.376832
C460	C	0.750072	-0.033723	0.876832
C461	C	0.249966	-0.496908	0.383649
C462	C	0.749966	0.003092	0.883649
H463	H	0.269718	-0.533932	0.345407
H464	H	0.769718	-0.033932	0.845407
H465	H	0.218611	-0.528978	0.381593
H466	H	0.718611	-0.028978	0.881593
H467	H	0.261964	-0.563235	0.398872
H468	H	0.761964	-0.063235	0.898872
H469	H	0.238068	-0.467397	0.361614
H470	H	0.738068	0.032603	0.861614
H471	H	0.281426	-0.501648	0.378883
H472	H	0.781426	-0.001648	0.878883
H473	H	0.422274	-0.521162	0.510626
H474	H	0.922274	-0.021162	1.010626
O475	O	0.328262	-0.496198	0.544433
O476	O	0.828262	0.003802	1.044433
C477	C	0.360877	-0.542558	0.547092
C478	C	0.860877	-0.042558	1.047092
H479	H	0.396297	-0.540655	0.517712
H480	H	0.896297	-0.040655	1.017712
H481	H	0.366199	-0.561537	0.583109
H482	H	0.866199	-0.061537	1.083109
C483	C	0.297965	-0.572467	0.577116
C484	C	0.797965	-0.072467	1.077116
C485	C	0.341468	-0.570130	0.541029
C486	C	0.841468	-0.070130	1.041029
H487	H	0.285992	-0.589476	0.573378
H488	H	0.785992	-0.089476	1.073378
H489	H	0.275991	-0.541234	0.575327
H490	H	0.775991	-0.041234	1.075327
H491	H	0.302405	-0.588282	0.607126
H492	H	0.802405	-0.088282	1.107126
H493	H	0.337025	-0.554310	0.511020
H494	H	0.837025	-0.054310	1.011020
H495	H	0.363440	-0.601361	0.542813
H496	H	0.863440	-0.101361	1.042813
H497	H	0.332037	-0.345175	0.485091
H498	H	0.832037	0.154825	0.985091
H499	H	0.085944	-0.208923	0.586721
H500	H	0.585944	0.291077	1.086721
H501	H	0.129365	-0.118686	0.409385
H502	H	0.629365	0.381314	0.909385
O503	O	0.163942	-0.212710	0.434273
O504	O	0.663942	0.287290	0.934273
C505	C	0.170950	-0.180098	0.387586
C506	C	0.670950	0.319902	0.887586
H507	H	0.140967	-0.144666	0.387697
H508	H	0.640967	0.355334	0.887697
H509	H	0.206360	-0.174796	0.373318
H510	H	0.706360	0.325204	0.873318
C511	C	0.208102	-0.243015	0.355577
C512	C	0.708102	0.256985	0.855577
C513	C	0.171273	-0.199498	0.355713
C514	C	0.671273	0.300502	0.855713
H515	H	0.208303	-0.254982	0.335915
H516	H	0.708303	0.245018	0.835915
H517	H	0.203382	-0.264987	0.387031
H518	H	0.703382	0.235013	0.887031
H519	H	0.237606	-0.238591	0.343688
H520	H	0.737606	0.261409	0.843688
H521	H	0.141770	-0.203923	0.367608
H522	H	0.641770	0.296077	0.867608
H523	H	0.175988	-0.177527	0.324261
H524	H	0.675988	0.322473	0.824261
O525	O	0.051338	-0.114900	0.561834
O526	O	0.551338	0.385100	1.061834
C527	C	0.044352	-0.147513	0.608520
C528	C	0.544352	0.352487	1.108520
H529	H	0.049912	-0.182952	0.608430
H530	H	0.549912	0.317048	1.108430
H531	H	0.070834	-0.152793	0.622734
H532	H	0.570834	0.347207	1.122734
C533	C	-0.013391	-0.084602	0.640548
C534	C	0.486609	0.415398	1.140548
C535	C	-0.006567	-0.128129	0.640438
C536	C	0.493433	0.371871	1.140438
H537	H	-0.044799	-0.072645	0.660237
H538	H	0.455201	0.427355	1.160237
H539	H	-0.008683	-0.062630	0.609094
H540	H	0.491317	0.437370	1.109094
H541	H	0.008681	-0.089009	0.652392
H542	H	0.508681	0.410991	1.152392
H543	H	-0.028634	-0.123721	0.628588
H544	H	0.471366	0.376279	1.128588
H545	H	-0.011280	-0.150100	0.671890
H546	H	0.488720	0.349900	1.171890
H547	H	-0.061683	-0.492436	0.165791
H548	H	0.438317	0.007564	0.665791
H549	H	-0.091873	-0.522445	0.255974
H550	H	0.408127	-0.022445	0.755974
H551	H	0.011902	-0.639768	0.165877
H552	H	0.511902	-0.139768	0.665877
H553	H	-0.091926	-0.522444	0.298262
H554	H	0.408074	-0.022444	0.798262
O555	O	-0.016376	-0.677473	0.259901
O556	O	0.483624	-0.177473	0.759901
C557	C	0.012443	-0.702460	0.227321
C558	C	0.512443	-0.202460	0.727321
H559	H	0.006158	-0.678750	0.191851
H560	H	0.506158	-0.178750	0.691851
H561	H	0.051372	-0.713220	0.222103
H562	H	0.551372	-0.213220	0.722103
C563	C	0.007548	-0.776368	0.290257
C564	C	0.507548	-0.276368	0.790257
C565	C	-0.000175	-0.747248	0.246694
C566	C	0.499825	-0.247248	0.746694
H567	H	-0.000233	-0.803996	0.302208
H568	H	0.499767	-0.303996	0.802208
H569	H	-0.011866	-0.759534	0.312208
H570	H	0.488134	-0.259534	0.812208
H571	H	0.039989	-0.785330	0.285903
H572	H	0.539989	-0.285330	0.785903
H573	H	-0.032616	-0.738282	0.251050
H574	H	0.467384	-0.238282	0.751050
H575	H	0.019234	-0.764081	0.224745
H576	H	0.519234	-0.264081	0.724745
H577	H	0.011557	-0.639751	0.402207
H578	H	0.511557	-0.139751	0.902207
O579	O	-0.063815	-0.484732	0.326472
O580	O	0.436185	0.015268	0.826472
C581	C	-0.092536	-0.459746	0.297623
C582	C	0.407464	0.040254	0.797623
H583	H	-0.086180	-0.483463	0.279548
H584	H	0.413820	0.016537	0.779548
H585	H	-0.131492	-0.448967	0.320494
H586	H	0.368508	0.051033	0.820494
C587	C	-0.087678	-0.385844	0.281831
C588	C	0.412322	0.114156	0.781831
C589	C	-0.079869	-0.414972	0.259627
C590	C	0.420131	0.085028	0.759627
H591	H	-0.079867	-0.358224	0.258395
H592	H	0.420133	0.141776	0.758395
H593	H	-0.068330	-0.402677	0.301268
H594	H	0.431670	0.097323	0.801268
H595	H	-0.120141	-0.376867	0.300889
H596	H	0.379859	0.123133	0.800889
H597	H	-0.047405	-0.423954	0.240574
H598	H	0.452595	0.076046	0.740574
H599	H	-0.099212	-0.398139	0.240186
H600	H	0.400788	0.101861	0.740186
O601	O	0.171691	-0.518904	0.347495
O602	O	0.671691	-0.018904	0.847495
C603	C	0.180175	-0.557329	0.336523
C604	C	0.680175	-0.057329	0.836523
H605	H	0.157990	-0.580150	0.367931
H606	H	0.657990	-0.080150	0.867931
H607	H	0.169963	-0.543219	0.303957
H608	H	0.669963	-0.043219	0.803957
C609	C	0.260456	-0.559505	0.287525
C610	C	0.760456	-0.059505	0.787525
C611	C	0.233211	-0.587537	0.326103
C612	C	0.733211	-0.087537	0.826103
H613	H	0.293171	-0.578138	0.281095
H614	H	0.793171	-0.078138	0.781095
H615	H	0.254740	-0.533617	0.294916
H616	H	0.754740	-0.033617	0.794916
H617	H	0.251941	-0.547749	0.260392
H618	H	0.751941	-0.047749	0.760392
H619	H	0.241722	-0.599288	0.353236
H620	H	0.741722	-0.099288	0.853236
H621	H	0.238930	-0.613428	0.318716
H622	H	0.738930	-0.113428	0.818716
H623	H	0.017768	-0.675232	0.307405
H624	H	0.517768	-0.175232	0.807405
O625	O	-0.016595	-0.677457	0.374003
O626	O	0.483405	-0.177457	0.874003
C627	C	-0.033672	-0.698098	0.423791
C628	C	0.466328	-0.198098	0.923791
H629	H	-0.038561	-0.674548	0.441225
H630	H	0.461439	-0.174548	0.941225
H631	H	-0.069200	-0.701750	0.434965
H632	H	0.430800	-0.201750	0.934965
C633	C	0.008279	-0.776449	0.418117
C634	C	0.508279	-0.276449	0.918117
C635	C	0.002277	-0.747526	0.439530
C636	C	0.502277	-0.247526	0.939530
H637	H	0.030452	-0.806940	0.427826
H638	H	0.530452	-0.306940	0.927826
H639	H	0.019782	-0.762543	0.384574
H640	H	0.519782	-0.262543	0.884574
H641	H	-0.021331	-0.779487	0.427431
H642	H	0.478669	-0.279487	0.927431
H643	H	0.031885	-0.744484	0.430211
H644	H	0.531885	-0.244484	0.930211
H645	H	-0.009220	-0.761433	0.473072
H646	H	0.490780	-0.261433	0.973072
O647	O	0.055399	-0.769319	0.336327
O648	O	0.555399	-0.269319	0.836327
C649	C	0.081107	-0.757195	0.287257
C650	C	0.581107	-0.257195	0.787257
H651	H	0.056720	-0.743505	0.266663
H652	H	0.556720	-0.243505	0.766663
H653	H	0.095396	-0.728363	0.276179
H654	H	0.595396	-0.228363	0.776179
C655	C	0.152785	-0.818203	0.301733
C656	C	0.652785	-0.318203	0.801733
C657	C	0.122833	-0.801393	0.276439
C658	C	0.622833	-0.301393	0.776439
H659	H	0.178525	-0.845465	0.295060
H660	H	0.678525	-0.345465	0.795060
H661	H	0.135465	-0.826370	0.334793
H662	H	0.635465	-0.326370	0.834793
H663	H	0.164687	-0.794172	0.292499
H664	H	0.664687	-0.294172	0.792499
H665	H	0.110926	-0.825421	0.285678
H666	H	0.610926	-0.325421	0.785678
H667	H	0.140151	-0.793230	0.243381
H668	H	0.640151	-0.293230	0.743381
O669	O	-0.103266	-0.769100	0.396695
O670	O	0.396734	-0.269100	0.896695
C671	C	-0.149611	-0.736464	0.399317
C672	C	0.350389	-0.236464	0.899317
H673	H	-0.151511	-0.701019	0.396006
H674	H	0.348489	-0.201019	0.896006
H675	H	-0.158898	-0.731208	0.369210
H676	H	0.341102	-0.231208	0.869210
C677	C	-0.182788	-0.799328	0.451392
C678	C	0.317212	-0.299328	0.951392
C679	C	-0.185123	-0.755794	0.447329
C680	C	0.314877	-0.255794	0.947329
H681	H	-0.204695	-0.811252	0.481006
H682	H	0.295305	-0.311252	0.981006
H683	H	-0.151565	-0.821316	0.449623
H684	H	0.348435	-0.321316	0.949623
H685	H	-0.190527	-0.794942	0.426300
H686	H	0.309473	-0.294942	0.926300
H687	H	-0.177379	-0.760182	0.472417
H688	H	0.322621	-0.260182	0.972417
H689	H	-0.216346	-0.733807	0.449102
H690	H	0.283654	-0.233807	0.949102
H691	H	-0.134345	-0.632833	0.408685
H692	H	0.365655	-0.132833	0.908685
O693	O	-0.228431	-0.604633	0.446287
O694	O	0.271569	-0.104633	0.946287
C695	C	-0.216319	-0.654425	0.466947
C696	C	0.283681	-0.154425	0.966947
H697	H	-0.202614	-0.670457	0.438634
H698	H	0.297386	-0.170457	0.938634
H699	H	-0.187505	-0.669176	0.482708
H700	H	0.312495	-0.169176	0.982708
C701	C	-0.277355	-0.647539	0.541246
C702	C	0.222645	-0.147539	1.041246
C703	C	-0.260527	-0.667230	0.506472
C704	C	0.239473	-0.167230	1.006472
H705	H	-0.304624	-0.655438	0.565629
H706	H	0.195376	-0.155438	1.065629
H707	H	-0.285515	-0.613993	0.527328
H708	H	0.214485	-0.113993	1.027328
H709	H	-0.253340	-0.659833	0.554375
H710	H	0.246660	-0.159833	1.054375
H711	H	-0.284540	-0.654931	0.493341
H712	H	0.215460	-0.154931	0.993341
H713	H	-0.252373	-0.700774	0.520390
H714	H	0.247627	-0.200774	1.020390
O715	O	-0.228149	-0.524619	0.286101
O716	O	0.271851	-0.024619	0.786101
C717	C	-0.215985	-0.549735	0.257362
C718	C	0.284015	-0.049735	0.757362
H719	H	-0.179910	-0.578705	0.256928
H720	H	0.320090	-0.078705	0.756928
H721	H	-0.243979	-0.566571	0.272271
H722	H	0.256021	-0.066571	0.772271
C723	C	-0.257919	-0.479714	0.206946
C724	C	0.242081	0.020286	0.706946
C725	C	-0.213610	-0.515293	0.206410
C726	C	0.286390	-0.015293	0.706410
H727	H	-0.256457	-0.458469	0.175517
H728	H	0.243543	0.041531	0.675517
H729	H	-0.266116	-0.462793	0.226309
H730	H	0.233884	0.037207	0.726309
H731	H	-0.281243	-0.493750	0.219373
H732	H	0.218757	0.006250	0.719373
H733	H	-0.190288	-0.501258	0.193989
H734	H	0.309712	-0.001258	0.693989
H735	H	-0.205410	-0.532211	0.187044
H736	H	0.294590	-0.032211	0.687044
H737	H	-0.128170	-0.675084	0.362831
H738	H	0.371830	-0.175084	0.862831
H739	H	-0.134111	-0.559208	0.261309
H740	H	0.365889	-0.059208	0.761309
