data_functionalizedCrystal
_audit_creation_method	'MofGen! by Chris Wilmer'
_symmetry_space_group_name_H-M	'P1'
_symmetry_Int_Tables_number	1
_symmetry_cell_setting	triclinic
loop_
_symmetry_equiv_pos_as_xyz
  x,y,z
_cell_length_a	16.992694
_cell_length_b	11.792241
_cell_length_c	15.455313
_cell_angle_alpha	92.683265
_cell_angle_beta	87.142206
_cell_angle_gamma	87.430819
loop_
_atom_site_label
_atom_site_type_symbol
_atom_site_fract_x
_atom_site_fract_y
_atom_site_fract_z
O1	O	1.044827	0.236106	-0.072022
O2	O	0.816531	0.233463	-0.072048
O3	O	0.936219	0.070068	-0.072029
O4	O	0.925139	0.399501	-0.072042
O5	O	0.929374	0.079370	0.072232
O6	O	0.809687	0.242766	0.072213
O7	O	1.037982	0.245409	0.072239
Cu8	Cu	0.923210	0.244937	0.085398
Cu9	Cu	0.931304	0.233935	-0.085207
O10	O	0.918295	0.408804	0.072219
C11	C	0.783882	0.234716	0.000079
C12	C	0.696795	0.224578	0.000070
C13	C	0.646971	0.322395	0.000066
C14	C	0.565143	0.312864	0.000079
C15	C	0.533142	0.205513	0.000088
C16	C	0.582973	0.107688	0.000094
C17	C	0.664799	0.117221	0.000088
C18	C	0.289375	0.166002	0.000113
C19	C	0.207543	0.156476	0.000117
C20	C	0.189719	0.361652	0.000103
C21	C	0.271548	0.371176	0.000091
C22	C	0.321371	0.273351	0.000102
N23	N	0.449501	0.195767	0.000098
N24	N	0.405010	0.283098	0.000098
C25	C	0.932101	0.032371	0.000102
C26	C	0.930017	-0.093813	0.000101
C27	C	0.926187	-0.324840	0.000086
C28	C	0.928315	-0.196280	0.000094
C29	C	1.070631	0.244155	0.000109
C30	C	1.157718	0.254293	0.000113
C31	C	0.922413	0.446501	0.000087
C32	C	0.924497	0.572684	0.000082
N33	N	0.917522	0.252674	0.205393
N34	N	0.936998	0.226189	-0.205202
C35	C	0.968388	0.183287	0.250795
C36	C	0.964094	0.189150	0.341602
C37	C	0.908938	0.264406	0.387005
C38	C	0.858067	0.333796	0.341597
C39	C	0.862358	0.327927	0.250791
C40	C	0.890417	0.289710	0.658584
C41	C	0.886132	0.295576	0.749396
C42	C	0.992158	0.150928	0.749395
C43	C	0.996447	0.145070	0.658588
C44	C	0.945574	0.214455	0.613187
N45	N	0.904549	0.270403	0.479825
N46	N	0.949959	0.208452	0.520369
H47	H	0.705366	0.037568	0.000090
H48	H	0.820937	0.384428	0.213825
H49	H	0.813154	0.395068	0.378569
O50	O	0.840970	0.357230	0.614623
C51	C	0.791359	0.424892	0.674173
H52	H	0.820469	0.433300	0.738895
H53	H	0.732480	0.383315	0.683848
C54	C	0.741627	0.533283	0.559231
C55	C	0.777384	0.543617	0.638721
H56	H	0.733003	0.606517	0.537362
H57	H	0.775048	0.487696	0.519110
H58	H	0.692565	0.498631	0.567304
H59	H	0.826449	0.578255	0.630645
H60	H	0.743971	0.589214	0.678840
H61	H	0.673020	0.409812	0.000058
H62	H	1.005512	0.132648	0.378568
H63	H	1.041360	0.083790	0.621622
H64	H	0.524579	0.392517	0.000075
O65	O	1.041646	0.083472	0.793363
C66	C	1.091229	0.015764	0.733817
H67	H	1.095377	0.058219	0.669084
H68	H	1.065852	-0.071531	0.724168
C69	C	1.168976	-0.049769	0.848755
C70	C	1.174075	0.002380	0.769251
H71	H	1.220078	-0.058030	0.870613
H72	H	1.135569	-0.004157	0.888873
H73	H	1.147825	-0.122509	0.840703
H74	H	1.195216	0.075124	0.777306
H75	H	1.207487	-0.043220	0.729135
H76	H	0.297597	0.458591	0.000074
O77	O	0.141360	0.456696	-0.000054
C78	C	0.159479	0.516632	-0.074761
H79	H	0.189657	0.455860	-0.126982
H80	H	0.200619	0.587218	-0.057874
C81	C	0.045865	0.643484	-0.044496
C82	C	0.082925	0.568841	-0.108637
H83	H	-0.001355	0.675694	-0.065391
H84	H	0.033659	0.603107	0.005838
H85	H	0.080157	0.702296	-0.030429
H86	H	0.048637	0.510023	-0.122694
H87	H	0.095124	0.609209	-0.158974
O88	O	0.176361	0.052257	0.000247
C89	C	0.126040	0.045423	0.074973
H90	H	0.104864	0.134674	0.099872
H91	H	0.159496	0.001852	0.127296
C92	C	0.080492	-0.133366	0.021705
C93	C	0.054478	-0.023747	0.052282
H94	H	0.036351	-0.176037	0.007711
H95	H	0.114396	-0.128765	-0.028638
H96	H	0.108373	-0.169660	0.065313
H97	H	0.026607	0.012550	0.008671
H98	H	0.020568	-0.028344	0.102618
O99	O	0.337656	0.070861	0.000081
C100	C	0.291860	-0.025928	0.000110
H101	H	0.232213	-0.004405	-0.027204
H102	H	0.282619	-0.054016	0.069322
C103	C	0.408150	-0.149219	-0.022910
C104	C	0.334893	-0.122787	-0.056464
H105	H	0.434696	-0.208969	-0.057803
H106	H	0.439005	-0.084011	-0.022926
H107	H	0.400439	-0.172619	0.034766
H108	H	0.342605	-0.099374	-0.114134
H109	H	0.304041	-0.187993	-0.056458
H110	H	0.556910	0.020282	0.000114
H111	H	1.013305	0.122010	0.213834
H112	H	0.841215	0.356864	0.786359
