data_functionalizedCrystal
_audit_creation_method	'MofGen! by Chris Wilmer'
_symmetry_space_group_name_H-M	'P1'
_symmetry_Int_Tables_number	1
_symmetry_cell_setting	triclinic
loop_
_symmetry_equiv_pos_as_xyz
  x,y,z
_cell_length_a	31.640172
_cell_length_b	23.096457
_cell_length_c	23.096457
_cell_angle_alpha	90.003586
_cell_angle_beta	60.006251
_cell_angle_gamma	60.001847
loop_
_atom_site_label
_atom_site_type_symbol
_atom_site_fract_x
_atom_site_fract_y
_atom_site_fract_z
Zr1	Zr	0.462592	-0.075994	0.557845
O2	O	0.550757	-0.168438	0.465406
O3	O	0.374426	-0.047656	0.586172
O4	O	0.462591	-0.168443	0.586178
O5	O	0.462592	0.047630	0.465407
O6	O	0.462592	-0.168447	0.681459
O7	O	0.462591	-0.047650	0.465399
O8	O	0.304881	0.047620	0.681447
O9	O	0.620304	-0.168437	0.465419
O10	O	0.410691	-0.035572	0.669373
O11	O	0.410691	0.035538	0.598272
O12	O	0.514495	-0.106674	0.598280
O13	O	0.514495	-0.035565	0.527179
Zr14	Zr	0.462596	0.075962	0.709819
Zr15	Zr	0.462594	-0.075999	0.709807
Zr16	Zr	0.462594	0.075967	0.557858
Zr17	Zr	0.573512	-0.075992	0.557866
Zr18	Zr	0.351676	0.075960	0.709798
O19	O	0.550762	0.047624	0.681493
O20	O	0.550759	-0.168446	0.681475
O21	O	0.550759	0.047632	0.465424
O22	O	0.374431	0.168405	0.802259
O23	O	0.374429	-0.047664	0.802241
O24	O	0.374429	0.168413	0.586189
O25	O	0.462595	-0.047662	0.802257
O26	O	0.462597	0.168411	0.681486
O27	O	0.462595	0.168415	0.586206
O28	O	0.462597	0.047618	0.802265
O29	O	0.620306	-0.168441	0.586208
O30	O	0.304882	0.168409	0.681457
O31	O	0.304884	0.168404	0.802246
O32	O	0.304882	0.047616	0.802236
O33	O	0.620306	-0.047648	0.465429
O34	O	0.620307	-0.047652	0.586218
O35	O	0.410693	0.106642	0.669385
O36	O	0.410693	0.035533	0.740485
O37	O	0.514496	-0.035570	0.669392
O38	O	0.514496	0.035539	0.598292
C39	C	0.323850	-0.000018	0.633806
C40	C	0.276761	-0.000019	0.633797
C41	C	0.462592	-0.000009	0.443752
C42	C	0.462591	-0.000007	0.379240
C43	C	0.462596	0.190064	0.633848
C44	C	0.462597	0.254576	0.633853
C45	C	-0.015281	-0.037128	0.670960
C46	C	-0.192277	-0.037127	0.670975
O47	O	-0.215181	-0.068670	0.702565
N48	N	-0.214406	-0.000011	0.633860
C49	C	-0.192286	0.037113	0.596743
O50	O	-0.215174	0.068689	0.565181
C51	C	-0.015294	0.037116	0.596733
C52	C	0.006837	-0.000009	0.633844
C53	C	0.006850	-0.074249	0.708069
C54	C	0.051098	-0.074252	0.708062
C55	C	0.073216	-0.037134	0.670946
C56	C	0.051086	-0.000012	0.633837
C57	C	0.006822	0.074243	0.559620
C58	C	0.051072	0.074242	0.559623
C59	C	0.073203	0.037117	0.596734
C60	C	0.117452	0.037104	0.596714
N61	N	0.139581	-0.000013	0.633829
C62	C	0.117463	-0.037132	0.670945
C63	C	-0.285208	0.037107	0.596750
C64	C	-0.329455	0.037105	0.596751
C65	C	-0.329444	-0.037134	0.670984
C66	C	-0.285193	-0.037136	0.670978
C67	C	-0.263079	-0.000010	0.633864
C68	C	0.210389	-0.037136	0.670926
C69	C	0.254643	-0.037138	0.670913
C70	C	0.254626	0.037104	0.596683
C71	C	0.210377	0.037104	0.596693
C72	C	0.188259	-0.000018	0.633820
O73	O	0.140380	0.068636	0.565147
O74	O	0.140349	-0.068690	0.702515
C75	C	-0.059529	-0.037125	0.670968
C76	C	-0.081660	-0.000003	0.633859
C77	C	-0.059542	0.037115	0.596743
C78	C	-0.125907	-0.000005	0.633860
C79	C	-0.148025	-0.037124	0.670976
C80	C	-0.125896	-0.074241	0.708091
C81	C	-0.081647	-0.074244	0.708084
C82	C	-0.081671	0.074232	0.559628
C83	C	-0.125919	0.074231	0.559637
C84	C	-0.148037	0.037113	0.596753
C85	C	0.601338	-0.000014	0.633858
C86	C	0.648427	-0.000013	0.633867
C87	C	0.462592	-0.190096	0.633817
C88	C	0.462591	-0.254608	0.633811
C89	C	0.516780	0.247767	0.596746
C90	C	0.516781	0.308382	0.596736
C91	C	0.462596	0.375806	0.633846
C92	C	0.408406	0.382613	0.670954
C93	C	0.408407	0.321998	0.670958
N94	N	0.422263	0.498607	0.694240
N95	N	0.422266	0.556187	0.694235
C96	C	0.462590	0.558439	0.633836
N97	N	0.502920	0.500931	0.573442
N98	N	0.502919	0.443345	0.573449
C99	C	0.462589	0.441538	0.633846
C100	C	0.516778	0.617354	0.596714
C101	C	0.516776	0.677972	0.596702
C102	C	0.408400	0.752202	0.670927
C103	C	0.408403	0.691584	0.670933
C104	C	0.462593	0.624163	0.633828
C105	C	0.408408	0.037101	0.386044
C106	C	0.408407	0.037104	0.325429
C107	C	0.462592	-0.000014	0.258010
C108	C	0.516782	-0.037124	0.251208
C109	C	0.516781	-0.037120	0.311823
N110	N	0.502925	-0.060424	0.135217
N111	N	0.502922	-0.060426	0.077637
C112	C	0.462598	-0.000027	0.075377
N113	N	0.422268	0.060374	0.132878
N114	N	0.422269	0.060375	0.190464
C115	C	0.462599	-0.000022	0.192279
C116	C	0.408410	0.037088	0.016458
C117	C	0.408412	0.037093	-0.044161
C118	C	0.516788	-0.037143	-0.118381
C119	C	0.516785	-0.037141	-0.057763
C120	C	0.462594	-0.000027	0.009654
C121	C	0.462596	-0.000023	0.823913
C122	C	0.462597	-0.000025	0.888424
C123	C	0.323852	-0.000025	0.823886
C124	C	0.276764	-0.000028	0.888389
C125	C	0.323852	0.190062	0.633822
C126	C	0.276764	0.254573	0.633818
C127	C	0.323854	0.190055	0.823902
C128	C	0.276767	0.254564	0.888410
C129	C	0.601334	-0.190087	0.443762
C130	C	0.648421	-0.254596	0.379254
C131	C	0.601336	-0.000007	0.443778
C132	C	0.648424	-0.000004	0.379275
C133	C	0.601336	-0.190094	0.633843
C134	C	0.648424	-0.254605	0.633846
C135	C	0.254650	-0.037152	0.881560
C136	C	0.210413	-0.037169	0.942162
C137	C	0.188286	-0.000058	1.009591
C138	C	0.210405	0.037067	1.016419
C139	C	0.254645	0.037079	0.955818
C140	C	0.254652	0.321990	0.670937
C141	C	0.210415	0.382610	0.670931
C142	C	0.188287	0.375812	0.633810
C143	C	0.210403	0.308388	0.596687
C144	C	0.254643	0.247769	0.596689
C145	C	0.254655	0.247739	0.955824
C146	C	0.210418	0.308346	1.016442
C147	C	0.188291	0.375776	1.009644
C148	C	0.210408	0.382599	0.942223
C149	C	0.254647	0.321993	0.881607
C150	C	0.670538	-0.247771	0.311841
C151	C	0.714789	-0.308378	0.251223
C152	C	0.736918	-0.375808	0.258020
C153	C	0.714799	-0.382632	0.325441
C154	C	0.670552	-0.322026	0.386058
C155	C	0.670542	0.037113	0.386104
C156	C	0.714792	0.037114	0.325503
C157	C	0.736920	0.000001	0.258073
C158	C	0.714800	-0.037121	0.251246
C159	C	0.670553	-0.037125	0.311847
C160	C	0.670538	-0.247784	0.670974
C161	C	0.714776	-0.308393	0.670991
C162	C	0.736902	-0.375822	0.633876
C163	C	0.714784	-0.382641	0.596747
C164	C	0.670543	-0.322033	0.596734
H165	H	0.272662	-0.067372	0.701133
O166	O	0.278488	0.329364	0.808899
H167	H	0.312971	0.275897	0.767883
H168	H	0.152264	0.425178	0.633814
H169	H	0.652543	-0.327597	0.566497
O170	O	0.575225	0.301042	0.556709
H171	H	0.566119	0.354520	0.562937
H172	H	0.652544	-0.327591	0.440947
H173	H	0.272664	0.327538	0.701165
O174	O	0.575221	0.544630	0.556699
H175	H	0.577812	0.515225	0.515683
H176	H	0.192384	-0.067362	0.701159
O177	O	0.278489	0.077137	0.556653
H178	H	0.255672	0.102949	0.530842
H179	H	0.364288	0.437514	0.701168
O180	O	-0.057782	-0.114282	0.748114
H181	H	-0.080605	-0.140084	0.773926
O182	O	0.738629	-0.301026	0.711035
H183	H	0.730127	-0.326850	0.752071
O184	O	0.349960	0.824921	0.710964
H185	H	0.347364	0.854317	0.673496
H186	H	0.069113	-0.104480	0.738284
O187	O	0.784622	-0.441187	0.633891
H188	H	0.796295	-0.489225	0.601848
H189	H	0.772948	0.000010	0.208734
H190	H	-0.143909	-0.104467	0.738310
H191	H	0.192413	0.437504	0.701163
H192	H	0.652529	-0.192886	0.701198
O193	O	0.646697	-0.077156	0.304471
H194	H	0.655187	-0.118190	0.330299
H195	H	0.192386	0.437509	0.936699
O196	O	0.278483	0.077136	0.963189
H197	H	0.298634	0.055695	0.992632
H198	H	0.192409	-0.067400	0.936589
O199	O	0.278517	0.175015	0.963166
H200	H	0.327323	0.145626	0.937323
O201	O	0.575222	-0.077180	-0.065088
H202	H	0.601217	-0.055743	-0.094519
O203	O	0.349962	0.077131	0.458757
H204	H	0.323979	0.134178	0.464921
H205	H	0.772947	-0.425152	0.208657
O206	O	0.738639	-0.301012	0.178509
H207	H	0.730156	-0.326861	0.149109
H208	H	0.192383	0.067281	1.071328
O209	O	0.186533	0.301054	0.556655
H210	H	0.166376	0.271621	0.578104
O211	O	0.349963	0.077125	0.332764
H212	H	0.359069	0.070887	0.279287
O213	O	0.738656	-0.455370	0.556708
H214	H	0.773140	-0.496362	0.562951
O215	O	0.575215	-0.077159	0.304508
H216	H	0.601216	-0.055727	0.275082
H217	H	0.272641	0.192878	0.566465
O218	O	0.186561	0.300979	1.089155
H219	H	0.209373	0.243908	1.083692
H220	H	0.732822	-0.437541	0.330967
O221	O	0.738670	-0.077145	0.178514
H222	H	0.715862	-0.102964	0.183937
O223	O	0.646689	0.077133	0.458828
H224	H	0.669517	0.102929	0.453384
O225	O	0.575226	-0.077168	0.178496
H226	H	0.566125	-0.070946	0.137488
H227	H	0.652523	-0.192871	0.306292
H228	H	0.152269	0.425120	1.059008
O229	O	0.738638	0.077163	0.332874
H230	H	0.715806	0.102980	0.389944
H231	H	0.272665	-0.067380	0.826661
H232	H	-0.267177	-0.067366	0.701198
O233	O	-0.016997	-0.114295	0.748097
H234	H	0.005836	-0.140109	0.773891
O235	O	0.074928	0.114281	0.519587
H236	H	0.052105	0.140088	0.493779
O237	O	-0.353305	-0.077168	0.711021
H238	H	-0.387793	-0.070924	0.704788
O239	O	0.140566	-0.000067	1.074952
H240	H	0.128904	-0.032112	1.058868
H241	H	-0.267208	0.067342	0.566526
O242	O	-0.353297	0.077123	0.556693
H243	H	-0.373452	0.134171	0.578132
O244	O	-0.017016	0.114250	0.519557
H245	H	0.005809	0.140050	0.493746
H246	H	-0.143931	0.104461	0.529410
O247	O	0.186506	0.077138	0.556662
H248	H	0.166352	0.134184	0.578115
O249	O	-0.057814	0.114267	0.519594
H250	H	-0.037662	0.092812	0.462551
O251	O	0.575225	0.175048	0.556721
H252	H	0.612902	0.180501	0.530911
H253	H	0.560900	0.672421	0.566481
O254	O	0.349965	0.329337	0.711007
H255	H	0.312285	0.386403	0.736821
H256	H	0.364282	0.697132	0.701153
H257	H	0.364288	0.067316	-0.038614
O258	O	0.349966	0.077124	0.089176
H259	H	0.312288	0.102939	0.083722
H260	H	0.560906	-0.067366	-0.173274
