data_functionalizedCrystal
_audit_creation_method	'MofGen! by Chris Wilmer'
_symmetry_space_group_name_H-M	'P1'
_symmetry_Int_Tables_number	1
_symmetry_cell_setting	triclinic
loop_
_symmetry_equiv_pos_as_xyz
  x,y,z
_cell_length_a	29.839134
_cell_length_b	29.839131
_cell_length_c	19.076919
_cell_angle_alpha	87.739939
_cell_angle_beta	87.718196
_cell_angle_gamma	90.015800
loop_
_atom_site_label
_atom_site_type_symbol
_atom_site_fract_x
_atom_site_fract_y
_atom_site_fract_z
Zn1	Zn	0.676554	-0.189296	0.397894
Zn2	Zn	1.176554	0.310704	0.897894
Zn3	Zn	0.679507	-0.261406	0.280178
Zn4	Zn	1.179507	0.238594	0.780178
Zn5	Zn	0.604449	-0.186266	0.280213
Zn6	Zn	1.104449	0.313734	0.780213
Zn7	Zn	0.601394	-0.264373	0.397833
Zn8	Zn	1.101394	0.235627	0.897833
O9	O	0.640476	-0.225335	0.339029
O10	O	1.140476	0.274665	0.839029
O11	O	0.739812	-0.198888	0.382289
O12	O	1.239812	0.301112	0.882289
O13	O	0.672065	-0.248929	0.181695
O14	O	1.172065	0.251071	0.681695
O15	O	0.614056	-0.123802	0.295864
O16	O	1.114056	0.376198	0.795864
O17	O	0.741982	-0.251867	0.295804
O18	O	1.241982	0.248133	0.795804
O19	O	0.667031	-0.126028	0.382323
O20	O	1.167031	0.373972	0.882323
O21	O	0.616920	-0.193724	0.181721
O22	O	1.116920	0.306276	0.681721
O23	O	0.541177	-0.196601	0.295805
O24	O	1.041177	0.303399	0.795805
O25	O	0.608850	-0.256923	0.496329
O26	O	1.108850	0.243077	0.996329
O27	O	0.538932	-0.253985	0.382219
O28	O	1.038932	0.246015	0.882219
O29	O	0.664069	-0.201765	0.496374
O30	O	1.164069	0.298235	0.996374
O31	O	0.669103	-0.324666	0.295745
O32	O	1.169103	0.175334	0.795745
O33	O	0.611714	-0.326845	0.382185
O34	O	1.111714	0.173155	0.882185
C35	C	0.523754	-0.225287	0.339010
C36	C	1.023754	0.274713	0.839010
C37	C	0.473819	-0.225277	0.339018
C38	C	0.973819	0.274723	0.839018
C39	C	0.640409	-0.342056	0.338970
C40	C	1.140409	0.157944	0.838970
C41	C	0.640421	-0.391991	0.338968
C42	C	1.140421	0.108009	0.838968
C43	C	0.116096	-0.197811	0.384151
C44	C	0.616096	0.302189	0.884151
C45	C	0.303769	-0.197775	0.384134
C46	C	0.803769	0.302225	0.884134
O47	O	0.327067	-0.174365	0.422504
O48	O	0.827067	0.325635	0.922504
N49	N	0.328374	-0.225307	0.339035
N50	N	0.828374	0.274693	0.839035
C51	C	0.306057	-0.252852	0.293939
C52	C	0.806057	0.247148	0.793939
O53	O	0.331291	-0.276273	0.255584
O54	O	0.831291	0.223727	0.755584
C55	C	0.118384	-0.252891	0.293960
C56	C	0.618384	0.247109	0.793960
C57	C	0.093782	-0.225354	0.339057
C58	C	0.593782	0.274646	0.839057
C59	C	0.091493	-0.170277	0.429245
C60	C	0.591493	0.329723	0.929245
C61	C	0.044578	-0.170284	0.429246
C62	C	0.544578	0.329716	0.929246
C63	C	0.022265	-0.197827	0.384153
C64	C	0.522265	0.302173	0.884153
C65	C	0.046867	-0.225361	0.339058
C66	C	0.546867	0.274639	0.839058
C67	C	0.096069	-0.280438	0.248868
C68	C	0.596069	0.219562	0.748868
C69	C	0.049147	-0.280447	0.248878
C70	C	0.549147	0.219553	0.748878
C71	C	0.024545	-0.252909	0.293976
C72	C	0.524545	0.247091	0.793976
C73	C	-0.022362	-0.252911	0.293965
C74	C	0.477638	0.247089	0.793965
N75	N	-0.046967	-0.225379	0.339065
N76	N	0.453033	0.274621	0.839065
C77	C	-0.024653	-0.197837	0.384159
C78	C	0.475347	0.302163	0.884159
C79	C	0.404588	-0.252830	0.293931
C80	C	0.904588	0.247170	0.793931
C81	C	0.451506	-0.252819	0.293925
C82	C	0.951506	0.247181	0.793925
C83	C	0.449215	-0.197742	0.384121
C84	C	0.949215	0.302258	0.884121
C85	C	0.402296	-0.197750	0.384123
C86	C	0.902296	0.302250	0.884123
C87	C	0.379983	-0.225297	0.339030
C88	C	0.879983	0.274703	0.839030
C89	C	-0.123179	-0.197855	0.384157
C90	C	0.376821	0.302145	0.884157
C91	C	-0.170099	-0.197863	0.384152
C92	C	0.329901	0.302137	0.884152
C93	C	-0.167803	-0.252942	0.293958
C94	C	0.332197	0.247058	0.793958
C95	C	-0.120888	-0.252932	0.293960
C96	C	0.379112	0.247068	0.793960
C97	C	-0.098577	-0.225387	0.339065
C98	C	0.401423	0.274613	0.839065
O99	O	-0.045690	-0.276312	0.255621
O100	O	0.454310	0.223688	0.755621
O101	O	-0.049895	-0.174427	0.422519
O102	O	0.450105	0.325573	0.922519
C103	C	0.163011	-0.197804	0.384150
C104	C	0.663011	0.302196	0.884150
C105	C	0.187613	-0.225338	0.339055
C106	C	0.687613	0.274662	0.839055
C107	C	0.165300	-0.252881	0.293962
C108	C	0.665300	0.247119	0.793962
C109	C	0.234531	-0.225328	0.339049
C110	C	0.734531	0.274672	0.839049
C111	C	0.256845	-0.197786	0.384143
C112	C	0.756845	0.302214	0.884143
C113	C	0.232240	-0.170254	0.429242
C114	C	0.732240	0.329746	0.929242
C115	C	0.185324	-0.170261	0.429243
C116	C	0.685324	0.329739	0.929243
C117	C	0.189905	-0.280413	0.248862
C118	C	0.689905	0.219587	0.748862
C119	C	0.236820	-0.280403	0.248864
C120	C	0.736820	0.219597	0.748864
C121	C	0.259133	-0.252860	0.293958
C122	C	0.759133	0.247140	0.793958
C123	C	0.668052	-0.702762	0.384113
C124	C	1.168052	-0.202762	0.884113
C125	C	0.668100	-0.890436	0.384155
C126	C	1.168100	-0.390436	0.884155
O127	O	0.691527	-0.915658	0.422495
O128	O	1.191527	-0.415658	0.922495
N129	N	0.640550	-0.912779	0.339108
N130	N	1.140550	-0.412779	0.839108
C131	C	0.612985	-0.888202	0.294049
C132	C	1.112985	-0.388202	0.794049
O133	O	0.589550	-0.911513	0.255740
O134	O	1.089550	-0.411513	0.755740
C135	C	0.612935	-0.700529	0.294011
C136	C	1.112935	-0.200529	0.794011
C137	C	0.640490	-0.678187	0.339057
C138	C	1.140490	-0.178187	0.839057
C139	C	0.695604	-0.680420	0.429155
C140	C	1.195604	-0.180420	0.929155
C141	C	0.695594	-0.633504	0.429141
C142	C	1.195594	-0.133504	0.929141
C143	C	0.668032	-0.608930	0.384085
C144	C	1.168032	-0.108930	0.884085
C145	C	0.640479	-0.631271	0.339043
C146	C	1.140479	-0.131271	0.839043
C147	C	0.585367	-0.675952	0.248957
C148	C	1.085367	-0.175952	0.748957
C149	C	0.585356	-0.629031	0.248953
C150	C	1.085356	-0.129031	0.748953
C151	C	0.612911	-0.606689	0.293998
C152	C	1.112911	-0.106689	0.793998
C153	C	0.612906	-0.559781	0.293973
C154	C	1.112906	-0.059781	0.793973
N155	N	0.640456	-0.537438	0.339021
N156	N	1.140456	-0.037438	0.839021
C157	C	0.668019	-0.562012	0.384077
C158	C	1.168019	-0.062012	0.884077
C159	C	0.613013	-0.986733	0.294072
C160	C	1.113013	-0.486733	0.794072
C161	C	0.613026	-1.033651	0.294080
C162	C	1.113026	-0.533651	0.794080
C163	C	0.668141	-1.035882	0.384187
C164	C	1.168141	-0.535882	0.884187
C165	C	0.668130	-0.988963	0.384174
C166	C	1.168130	-0.488963	0.884174
C167	C	0.640563	-0.964389	0.339119
C168	C	1.140563	-0.464389	0.839119
C169	C	0.667995	-0.463485	0.384044
C170	C	1.167995	0.036515	0.884044
C171	C	0.667983	-0.416565	0.384024
C172	C	1.167983	0.083435	0.884024
C173	C	0.612867	-0.414339	0.293921
C174	C	1.112867	0.085661	0.793921
C175	C	0.612880	-0.461255	0.293937
C176	C	1.112880	0.038745	0.793937
C177	C	0.640445	-0.485827	0.339005
C178	C	1.140445	0.014173	0.839005
O179	O	0.589488	-0.534531	0.255659
O180	O	1.089488	-0.034531	0.755659
O181	O	0.691443	-0.538693	0.422392
O182	O	1.191443	-0.038693	0.922392
C183	C	0.668063	-0.749677	0.384127
C184	C	1.168063	-0.249677	0.884127
C185	C	0.640511	-0.772019	0.339084
C186	C	1.140511	-0.272019	0.839084
C187	C	0.612948	-0.747445	0.294028
C188	C	1.112948	-0.247445	0.794028
C189	C	0.640523	-0.818937	0.339093
C190	C	1.140523	-0.318937	0.839093
C191	C	0.668086	-0.843511	0.384149
C192	C	1.168086	-0.343511	0.884149
C193	C	0.695636	-0.821167	0.429196
C194	C	1.195636	-0.321167	0.929196
C195	C	0.695625	-0.774252	0.429183
C196	C	1.195625	-0.274252	0.929183
C197	C	0.585398	-0.769788	0.248981
C198	C	1.085398	-0.269788	0.748981
C199	C	0.585411	-0.816704	0.248997
C200	C	1.085411	-0.316704	0.748997
C201	C	0.612974	-0.841279	0.294054
C202	C	1.112974	-0.341279	0.794054
C203	C	0.757654	-0.225385	0.339049
C204	C	1.257654	0.274615	0.839049
C205	C	0.807588	-0.225406	0.339058
C206	C	1.307588	0.274594	0.839058
C207	C	0.635789	-0.230013	0.522602
C208	C	1.135789	0.269987	1.022602
C209	C	0.633792	-0.232006	0.600830
C210	C	1.133792	0.267994	1.100830
C211	C	0.640555	-0.108159	0.339104
C212	C	1.140555	0.391841	0.839104
C213	C	0.640589	-0.058225	0.339136
C214	C	1.140589	0.441775	0.839136
C215	C	0.645170	-0.220644	0.156171
C216	C	1.145170	0.279356	0.656171
C217	C	0.647255	-0.218524	0.077943
C218	C	1.147255	0.281476	0.577943
C219	C	0.661602	-0.204226	0.637606
C220	C	1.161602	0.295774	1.137606
C221	C	0.659720	-0.206097	0.711109
C222	C	1.159720	0.293903	1.211109
C223	C	0.630030	-0.235751	0.747835
C224	C	1.130030	0.264249	1.247835
C225	C	0.602217	-0.263532	0.711054
C226	C	1.102217	0.236468	1.211054
C227	C	0.604097	-0.261659	0.637552
C228	C	1.104097	0.238341	1.137552
C229	C	0.621322	-0.244432	0.967660
C230	C	1.121322	0.255568	1.467660
C231	C	0.619445	-0.246304	1.041167
C232	C	1.119445	0.253696	1.541167
C233	C	0.676948	-0.188868	1.041218
C234	C	1.176948	0.311132	1.541218
C235	C	0.678827	-0.186999	0.967714
C236	C	1.178827	0.313001	1.467714
C237	C	0.651012	-0.214779	0.930939
C238	C	1.151012	0.285221	1.430939
N239	N	0.628106	-0.237665	0.822968
N240	N	1.128106	0.262335	1.322968
N241	N	0.652934	-0.212862	0.855809
N242	N	1.152934	0.287138	1.355809
H243	H	-0.105019	-0.175425	0.420885
H244	H	0.394981	0.324575	0.920885
O245	O	0.113182	-0.143585	0.473126
O246	O	0.613182	0.356415	0.973126
C247	C	0.139177	-0.170348	0.518501
C248	C	0.639177	0.329652	1.018501
H249	H	0.124934	-0.205849	0.522746
H250	H	0.624934	0.294151	1.022746
H251	H	0.138325	-0.155529	0.572711
H252	H	0.638325	0.344471	1.072711
H253	H	0.175290	-0.171306	0.496739
H254	H	0.675290	0.328694	0.996739
H255	H	0.562929	-0.694134	0.212276
H256	H	1.062929	-0.194134	0.712276
H257	H	0.718049	-0.700424	0.465849
H258	H	1.218049	-0.200424	0.965849
H259	H	0.595266	-0.270453	1.071068
H260	H	1.095266	0.229547	1.571068
O261	O	0.707699	-0.158245	0.931995
O262	O	1.207699	0.341755	1.431995
C263	C	0.737779	-0.182735	0.889436
C264	C	1.237779	0.317265	1.389436
H265	H	0.739990	-0.218681	0.911565
H266	H	1.239990	0.281319	1.411565
H267	H	0.772377	-0.166461	0.888595
H268	H	1.272377	0.333539	1.388595
H269	H	0.725296	-0.182866	0.833737
H270	H	1.225296	0.317134	1.333737
O271	O	0.594346	-0.271480	0.931982
O272	O	1.094346	0.228520	1.431982
C273	C	0.603659	-0.316718	0.949929
C274	C	1.103659	0.183282	1.449929
H275	H	0.639035	-0.319524	0.970126
H276	H	1.139035	0.180476	1.470126
H277	H	0.600996	-0.337680	0.901579
H278	H	1.100996	0.162320	1.401579
H279	H	0.578480	-0.329532	0.992592
H280	H	1.078480	0.170468	1.492592
H281	H	0.578041	-0.287676	0.740962
H282	H	1.078041	0.212324	1.240962
O283	O	0.722342	-0.845067	0.473040
O284	O	1.222342	-0.345067	0.973040
C285	C	0.695581	-0.873367	0.518446
C286	C	1.195581	-0.373367	1.018446
H287	H	0.660086	-0.859348	0.522737
H288	H	1.160086	-0.359348	1.022737
H289	H	0.710415	-0.875260	0.572636
H290	H	1.210415	-0.375260	1.072636
H291	H	0.694604	-0.908377	0.496685
H292	H	1.194604	-0.408377	0.996685
O293	O	0.694889	-1.059711	0.428056
O294	O	1.194889	-0.559711	0.928056
C295	C	0.683228	-1.050025	0.498185
C296	C	1.183228	-0.550025	0.998185
H297	H	0.665916	-1.016003	0.499612
H298	H	1.165916	-0.516003	0.999612
H299	H	0.714823	-1.049203	0.529799
H300	H	1.214823	-0.549203	1.029799
H301	H	0.659515	-1.077037	0.521853
H302	H	1.159515	-0.577037	1.021853
O303	O	0.558601	-0.838334	0.205213
O304	O	1.058601	-0.338334	0.705213
C305	C	0.534281	-0.806577	0.165435
C306	C	1.034281	-0.306577	0.665435
H307	H	0.531974	-0.773857	0.194253
H308	H	1.031974	-0.273857	0.694253
H309	H	0.499082	-0.819956	0.157885
H310	H	0.999082	-0.319956	0.657885
H311	H	0.552121	-0.800238	0.112003
H312	H	1.052121	-0.300238	0.612003
H313	H	0.562906	-0.609025	0.212264
H314	H	1.062906	-0.109025	0.712264
O315	O	0.577071	-0.288695	0.601935
O316	O	1.077071	0.211305	1.101935
C317	C	0.550457	-0.315266	0.650109
C318	C	1.050457	0.184734	1.150109
H319	H	0.567515	-0.318160	0.702510
H320	H	1.067515	0.181840	1.202510
H321	H	0.546191	-0.350120	0.628850
H322	H	1.046191	0.149880	1.128850
H323	H	0.516145	-0.299005	0.657922
H324	H	1.016145	0.200995	1.157922
O325	O	0.586075	-0.482890	0.250155
O326	O	1.086075	0.017110	0.750155
C327	C	0.561756	-0.451136	0.210370
C328	C	1.061756	0.048864	0.710370
H329	H	0.559446	-0.418414	0.239183
H330	H	1.059446	0.081586	0.739183
H331	H	0.526558	-0.464517	0.202818
H332	H	1.026558	0.035483	0.702818
H333	H	0.579597	-0.444800	0.156939
H334	H	1.079597	0.055200	0.656939
H335	H	0.024551	-0.147863	0.465972
H336	H	0.524551	0.352137	0.965972
H337	H	0.562953	-0.749784	0.212291
H338	H	1.062953	-0.249784	0.712291
O339	O	0.586222	-1.055281	0.250295
O340	O	1.086222	-0.555281	0.750295
C341	C	0.561901	-1.023524	0.210518
C342	C	1.061901	-0.523524	0.710518
H343	H	0.559589	-0.990806	0.239340
H344	H	1.059589	-0.490806	0.739340
H345	H	0.526704	-1.036906	0.202961
H346	H	1.026704	-0.536906	0.702961
H347	H	0.579743	-1.017181	0.157088
H348	H	1.079743	-0.517181	0.657088
H349	H	0.382268	-0.175327	0.420845
H350	H	0.882268	0.324673	0.920845
O351	O	-0.193929	-0.171101	0.428030
O352	O	0.306071	0.328899	0.928030
C353	C	-0.164169	-0.146784	0.467818
C354	C	0.335831	0.353216	0.967818
H355	H	-0.130788	-0.165244	0.470195
H356	H	0.369212	0.334756	0.970195
H357	H	-0.179135	-0.143461	0.523286
H358	H	0.320865	0.356539	1.023286
H359	H	-0.158522	-0.111984	0.442148
H360	H	0.341478	0.388016	0.942148
O361	O	0.470964	-0.171031	0.427907
O362	O	0.970964	0.328969	0.927907
C363	C	0.517650	-0.176923	0.418213
C364	C	1.017650	0.323077	0.918213
H365	H	0.524638	-0.210977	0.395047
H366	H	1.024638	0.289023	0.895047
H367	H	0.534144	-0.175275	0.470936
H368	H	1.034144	0.324725	0.970936
H369	H	0.531918	-0.149281	0.380818
H370	H	1.031918	0.350719	0.880818
O371	O	0.703917	-0.161899	1.077050
O372	O	1.203917	0.338101	1.577050
C373	C	0.695901	-0.169917	1.149800
C374	C	1.195901	0.330083	1.649800
H375	H	0.660965	-0.184873	1.159821
H376	H	1.160965	0.315127	1.659821
H377	H	0.698255	-0.136979	1.177756
H378	H	1.198255	0.363021	1.677756
H379	H	0.722000	-0.194382	1.170651
H380	H	1.222000	0.305618	1.670651
O381	O	0.475333	-0.279607	0.250089
O382	O	0.975333	0.220393	0.750089
C383	C	0.445572	-0.303909	0.210282
C384	C	0.945572	0.196091	0.710282
H385	H	0.411396	-0.306230	0.239112
H386	H	0.911396	0.193770	0.739112
H387	H	0.459315	-0.339103	0.202666
H388	H	0.959315	0.160897	0.702666
H389	H	0.441940	-0.286047	0.156879
H390	H	0.941940	0.213953	0.656879
H391	H	0.256847	-0.302826	0.212134
H392	H	0.756847	0.197174	0.712134
O393	O	0.168304	-0.307180	0.204987
O394	O	0.668304	0.192820	0.704987
C395	C	0.200087	-0.331484	0.165198
C396	C	0.700087	0.168516	0.665198
H397	H	0.233593	-0.313012	0.162826
H398	H	0.733593	0.186988	0.662826
H399	H	0.187947	-0.334809	0.109728
H400	H	0.687947	0.165191	0.609728
H401	H	0.204420	-0.366283	0.190865
H402	H	0.704420	0.133717	0.690865
O403	O	0.690455	-0.175380	0.602042
O404	O	1.190455	0.324620	1.102042
C405	C	0.714605	-0.151269	0.650267
C406	C	1.214605	0.348731	1.150267
H407	H	0.694864	-0.151042	0.702658
H408	H	1.194864	0.348958	1.202658
H409	H	0.719964	-0.115334	0.629057
H410	H	1.219964	0.384666	1.129057
H411	H	0.748513	-0.167934	0.658084
H412	H	1.248513	0.332066	1.158084
H413	H	0.116092	-0.302862	0.212145
H414	H	0.616092	0.197138	0.712145
H415	H	0.386426	-0.275263	0.257208
H416	H	0.886426	0.224737	0.757208
H417	H	0.030983	-0.302880	0.212160
H418	H	0.530983	0.197120	0.712160
H419	H	-0.100855	-0.275351	0.257232
H420	H	0.399145	0.224649	0.757232
O421	O	0.686669	-0.179060	0.746860
O422	O	1.186669	0.320940	1.246860
C423	C	0.660022	-0.151121	0.789393
C424	C	1.160022	0.348879	1.289393
H425	H	0.625207	-0.147773	0.767234
H426	H	1.125207	0.352227	1.267234
H427	H	0.676269	-0.116575	0.790243
H428	H	1.176269	0.383425	1.290243
H429	H	0.657042	-0.166424	0.845093
H430	H	1.157042	0.333576	1.345093
O431	O	-0.189507	-0.279746	0.250259
O432	O	0.310493	0.220254	0.750259
C433	C	-0.217673	-0.309812	0.290253
C434	C	0.282327	0.190188	0.790253
H435	H	-0.204939	-0.314048	0.345673
H436	H	0.295061	0.185952	0.845673
H437	H	-0.217565	-0.343712	0.264701
H438	H	0.282435	0.156288	0.764701
H439	H	-0.253291	-0.295990	0.292727
H440	H	0.246709	0.204010	0.792727
O441	O	0.161497	-0.143501	0.473121
O442	O	0.661497	0.356499	0.973121
C443	C	0.191261	-0.119185	0.512904
C444	C	0.691261	0.380815	1.012904
H445	H	0.224641	-0.137647	0.515275
H446	H	0.724641	0.362353	1.015275
H447	H	0.176300	-0.115862	0.568375
H448	H	0.676300	0.384138	1.068375
H449	H	0.196908	-0.084386	0.487233
H450	H	0.696908	0.415614	0.987233
H451	H	0.690423	-0.398376	0.420706
H452	H	1.190423	0.101624	0.920706
O453	O	0.253938	-0.143566	0.473123
O454	O	0.753938	0.356434	0.973123
C455	C	0.279929	-0.170344	0.518482
C456	C	0.779929	0.329656	1.018482
H457	H	0.265673	-0.205840	0.522722
H458	H	0.765673	0.294160	1.022722
H459	H	0.279090	-0.155532	0.572696
H460	H	0.779090	0.344468	1.072696
H461	H	0.316039	-0.171314	0.496709
H462	H	0.816039	0.328686	0.996709
O463	O	0.694811	-0.487281	0.427847
O464	O	1.194811	0.012719	0.927847
C465	C	0.719114	-0.457494	0.467609
C466	C	1.219114	0.042506	0.967609
H467	H	0.721412	-0.423327	0.438766
H468	H	1.221412	0.076673	0.938766
H469	H	0.754318	-0.471218	0.475179
H470	H	1.254318	0.028782	0.975179
H471	H	0.701267	-0.453850	0.521033
H472	H	1.201267	0.046150	1.021033
O473	O	0.586043	-0.390444	0.250259
O474	O	1.086043	0.109556	0.750259
C475	C	0.555991	-0.364318	0.290293
C476	C	1.055991	0.135682	0.790293
H477	H	0.551778	-0.379857	0.345721
H478	H	1.051778	0.120143	0.845721
H479	H	0.522079	-0.363157	0.264796
H480	H	1.022079	0.136843	0.764796
H481	H	0.569812	-0.328816	0.292735
H482	H	1.069812	0.171184	0.792735
O483	O	0.722371	-0.611876	0.472969
O484	O	1.222371	-0.111876	0.972969
C485	C	0.746705	-0.643635	0.512722
C486	C	1.246705	-0.143635	1.012722
H487	H	0.728246	-0.677148	0.515132
H488	H	1.228246	-0.177148	1.015132
H489	H	0.750050	-0.631475	0.568181
H490	H	1.250050	-0.131475	1.068181
H491	H	0.781497	-0.647962	0.487000
H492	H	1.281497	-0.147962	0.987000
H493	H	0.690567	-0.970775	0.420855
H494	H	1.190567	-0.470775	0.920855
H495	H	0.718063	-0.756065	0.465863
H496	H	1.218063	-0.256065	0.965863
O497	O	0.586299	-0.962814	0.250264
O498	O	1.086299	-0.462814	0.750264
C499	C	0.613052	-0.934528	0.204825
C500	C	1.113052	-0.434528	0.704825
H501	H	0.646446	-0.928100	0.229697
H502	H	1.146446	-0.428100	0.729697
H503	H	0.594987	-0.901310	0.195352
H504	H	1.094987	-0.401310	0.695352
H505	H	0.619355	-0.951300	0.152683
H506	H	1.119355	-0.451300	0.652683
