data_functionalizedCrystal
_audit_creation_method	'MofGen! by Chris Wilmer'
_symmetry_space_group_name_H-M	'P1'
_symmetry_Int_Tables_number	1
_symmetry_cell_setting	triclinic
loop_
_symmetry_equiv_pos_as_xyz
  x,y,z
_cell_length_a	19.121102
_cell_length_b	21.295417
_cell_length_c	19.120904
_cell_angle_alpha	92.408338
_cell_angle_beta	90.088173
_cell_angle_gamma	87.584620
loop_
_atom_site_label
_atom_site_type_symbol
_atom_site_fract_x
_atom_site_fract_y
_atom_site_fract_z
Zn1	Zn	1.054814	-0.307921	-0.442032
Zn2	Zn	1.388148	0.025413	-0.108698
Zn3	Zn	1.721481	0.358746	0.224635
Zn4	Zn	1.059724	-0.408895	-0.324785
Zn5	Zn	1.393057	-0.075562	0.008548
Zn6	Zn	1.726390	0.257772	0.341882
Zn7	Zn	0.942584	-0.298967	-0.319816
Zn8	Zn	1.275917	0.034366	0.013517
Zn9	Zn	1.609251	0.367699	0.346850
Zn10	Zn	0.937535	-0.408472	-0.436987
Zn11	Zn	1.270868	-0.075138	-0.103654
Zn12	Zn	1.604202	0.258195	0.229679
O13	O	0.998664	-0.356064	-0.380905
O14	O	1.331998	-0.022730	-0.047572
O15	O	1.665331	0.310603	0.285762
O16	O	1.153571	-0.325239	-0.430669
O17	O	1.486904	0.008094	-0.097336
O18	O	1.820237	0.341427	0.235998
O19	O	1.048352	-0.390743	-0.226021
O20	O	1.381686	-0.057409	0.107312
O21	O	1.715019	0.275924	0.440645
O22	O	0.957530	-0.212069	-0.336060
O23	O	1.290864	0.121264	-0.002727
O24	O	1.624197	0.454598	0.330607
O25	O	1.157177	-0.399425	-0.344528
O26	O	1.490511	-0.066091	-0.011195
O27	O	1.823844	0.267242	0.322138
O28	O	1.039985	-0.218647	-0.425851
O29	O	1.373319	0.114686	-0.092518
O30	O	1.706652	0.448020	0.240816
O31	O	0.962291	-0.309980	-0.222371
O32	O	1.295624	0.023354	0.110962
O33	O	1.628957	0.356687	0.444296
O34	O	0.843809	-0.309569	-0.331169
O35	O	1.177143	0.023764	0.002164
O36	O	1.510476	0.357097	0.335498
O37	O	0.948925	-0.398703	-0.535761
O38	O	1.282258	-0.065370	-0.202428
O39	O	1.615591	0.267963	0.130906
O40	O	0.840100	-0.390022	-0.417254
O41	O	1.173433	-0.056688	-0.083921
O42	O	1.506766	0.276645	0.249413
O43	O	1.035089	-0.324829	-0.539467
O44	O	1.368423	0.008504	-0.206134
O45	O	1.701756	0.341838	0.127200
O46	O	1.043456	-0.496925	-0.339637
O47	O	1.376790	-0.163591	-0.006304
O48	O	1.710123	0.169742	0.327030
O49	O	0.953685	-0.496614	-0.422072
O50	O	1.287018	-0.163280	-0.088738
O51	O	1.620352	0.170053	0.244595
C52	C	0.816517	-0.348778	-0.373125
C53	C	1.149850	-0.015445	-0.039792
C54	C	1.483184	0.317888	0.293541
C55	C	0.738593	-0.345677	-0.369814
C56	C	1.071926	-0.012344	-0.036480
C57	C	1.405260	0.320989	0.296853
C58	C	0.700074	-0.386166	-0.413007
C59	C	1.033407	-0.052833	-0.079674
C60	C	1.366741	0.280501	0.253659
C61	C	0.626856	-0.383244	-0.409899
C62	C	0.960189	-0.049911	-0.076566
C63	C	1.293523	0.283422	0.256768
C64	C	0.592158	-0.339836	-0.363593
C65	C	0.925492	-0.006503	-0.030260
C66	C	1.258825	0.326830	0.303073
C67	C	0.630682	-0.299344	-0.320398
C68	C	0.964016	0.033990	0.012935
C69	C	1.297349	0.367323	0.346269
C70	C	0.703899	-0.302263	-0.323510
C71	C	1.037232	0.031071	0.009823
C72	C	1.370566	0.364404	0.343157
C73	C	0.371187	-0.328921	-0.351961
C74	C	0.704520	0.004412	-0.018627
C75	C	1.037853	0.337746	0.314706
C76	C	0.297965	-0.326006	-0.348850
C77	C	0.631298	0.007327	-0.015517
C78	C	0.964632	0.340661	0.317816
C79	C	0.294144	-0.409906	-0.438353
C80	C	0.627477	-0.076573	-0.105020
C81	C	0.960810	0.256760	0.228314
C82	C	0.367362	-0.412824	-0.441458
C83	C	0.700695	-0.079491	-0.108125
C84	C	1.034029	0.253842	0.225209
C85	C	0.405880	-0.372329	-0.398265
C86	C	0.739213	-0.038996	-0.064932
C87	C	1.072546	0.294337	0.268401
C88	C	0.517318	-0.336850	-0.360413
C89	C	0.850651	-0.003517	-0.027080
C90	C	1.183984	0.329816	0.306253
C91	C	0.480719	-0.375313	-0.401449
C92	C	0.814052	-0.041980	-0.068116
C93	C	1.147385	0.291354	0.265218
C94	C	0.998574	-0.519610	-0.380862
C95	C	1.331907	-0.186277	-0.047529
C96	C	1.665241	0.147056	0.285804
C97	C	0.998599	-0.589580	-0.380870
C98	C	1.331932	-0.256246	-0.047537
C99	C	1.665265	0.077087	0.285797
C100	C	1.045380	-0.622590	-0.337994
C101	C	1.378714	-0.289257	-0.004661
C102	C	1.712047	0.044076	0.328673
C103	C	1.045413	-0.688335	-0.338011
C104	C	1.378746	-0.355001	-0.004678
C105	C	1.712079	-0.021668	0.328655
C106	C	0.998651	-0.721065	-0.380897
C107	C	1.331984	-0.387732	-0.047563
C108	C	1.665317	-0.054398	0.285770
C109	C	0.951865	-0.688046	-0.423781
C110	C	1.285199	-0.354713	-0.090448
C111	C	1.618532	-0.021380	0.242885
C112	C	0.951839	-0.622304	-0.423768
C113	C	1.285173	-0.288970	-0.090435
C114	C	1.618506	0.044363	0.242899
N115	N	0.937094	-0.822078	-0.383622
N116	N	1.270427	-0.488744	-0.050288
N117	N	1.603761	-0.155411	0.283045
N118	N	0.937121	-0.884530	-0.383630
N119	N	1.270454	-0.551197	-0.050297
N120	N	1.603788	-0.217864	0.283036
C121	C	0.998728	-0.919144	-0.380940
C122	C	1.332061	-0.585811	-0.047607
C123	C	1.665394	-0.252478	0.285727
N124	N	1.060308	-0.888946	-0.378228
N125	N	1.393642	-0.555612	-0.044894
N126	N	1.726975	-0.222279	0.288439
N127	N	1.060281	-0.826487	-0.378215
N128	N	1.393614	-0.493154	-0.044882
N129	N	1.726947	-0.159820	0.288451
C130	C	0.998674	-0.792352	-0.380916
C131	C	1.332007	-0.459019	-0.047583
C132	C	1.665341	-0.125685	0.285751
C133	C	1.045548	-1.023443	-0.338080
C134	C	1.378881	-0.690110	-0.004747
C135	C	1.712215	-0.356776	0.328586
C136	C	1.045581	-1.089189	-0.338103
C137	C	1.378915	-0.755855	-0.004769
C138	C	1.712248	-0.422522	0.328564
C139	C	0.952028	-1.088899	-0.423869
C140	C	1.285361	-0.755565	-0.090535
C141	C	1.618695	-0.422232	0.242798
C142	C	0.952001	-1.023154	-0.423850
C143	C	1.285334	-0.689821	-0.090517
C144	C	1.618668	-0.356488	0.242816
C145	C	0.998760	-0.990430	-0.380953
C146	C	1.332094	-0.657097	-0.047619
C147	C	1.665427	-0.323764	0.285714
C148	C	1.181523	-0.363378	-0.388716
C149	C	1.514856	-0.030045	-0.055382
C150	C	1.848189	0.303289	0.277951
C151	C	1.259446	-0.366495	-0.392044
C152	C	1.592779	-0.033161	-0.058711
C153	C	1.926113	0.300172	0.274623
C154	C	0.990896	-0.362718	-0.563763
C155	C	1.324230	-0.029384	-0.230429
C156	C	1.657563	0.303949	0.102904
C157	C	0.987586	-0.365553	-0.641686
C158	C	1.320919	-0.032220	-0.308352
C159	C	1.654253	0.301113	0.024981
C160	C	0.998773	-0.191880	-0.380964
C161	C	1.332107	0.141454	-0.047631
C162	C	1.665440	0.474787	0.285703
C163	C	0.998820	-0.121914	-0.380989
C164	C	1.332153	0.211419	-0.047656
C165	C	1.665486	0.544752	0.285677
C166	C	1.030890	-0.328425	-0.680225
C167	C	1.364223	0.004909	-0.346891
C168	C	1.697556	0.338242	-0.013558
C169	C	1.027771	-0.331086	-0.753441
C170	C	1.361104	0.002247	-0.420108
C171	C	1.694438	0.335580	-0.086775
C172	C	0.981351	-0.370880	-0.788118
C173	C	1.314685	-0.037547	-0.454784
C174	C	1.648018	0.295786	-0.121451
C175	C	0.938043	-0.408010	-0.749573
C176	C	1.271376	-0.074677	-0.416240
C177	C	1.604709	0.258657	-0.082907
C178	C	0.941159	-0.405345	-0.676358
C179	C	1.274492	-0.072011	-0.343025
C180	C	1.607825	0.261322	-0.009691
C181	C	0.969696	-0.380849	-1.009084
C182	C	1.303029	-0.047515	-0.675751
C183	C	1.636363	0.285818	-0.342417
C184	C	0.966585	-0.383513	-1.082305
C185	C	1.299918	-0.050179	-0.748971
C186	C	1.633251	0.283154	-0.415638
C187	C	1.056312	-0.306588	-1.086168
C188	C	1.389646	0.026746	-0.752834
C189	C	1.722979	0.360079	-0.419501
C190	C	1.059427	-0.303929	-1.012951
C191	C	1.392760	0.029405	-0.679617
C192	C	1.726094	0.362738	-0.346284
C193	C	1.016116	-0.341056	-0.974413
C194	C	1.349449	-0.007723	-0.641079
C195	C	1.682783	0.325610	-0.307746
C196	C	0.978164	-0.373603	-0.862957
C197	C	1.311497	-0.040270	-0.529623
C198	C	1.644830	0.293063	-0.196290
C199	C	1.019300	-0.338330	-0.899575
C200	C	1.352634	-0.004996	-0.566241
C201	C	1.685967	0.328337	-0.232908
C202	C	1.006442	-0.349392	-0.198761
C203	C	1.339776	-0.016058	0.134573
C204	C	1.673109	0.317275	0.467906
C205	C	1.009889	-0.346384	-0.120844
C206	C	1.343222	-0.013051	0.212490
C207	C	1.676555	0.320282	0.545823
H208	H	0.395608	-0.448173	-0.479164
H209	H	0.728941	-0.114840	-0.145830
H210	H	1.062274	0.218494	0.187503
H211	H	0.940372	-0.406006	-0.891199
H212	H	1.273705	-0.072673	-0.557865
H213	H	1.607039	0.260660	-0.224532
H214	H	1.083456	-0.595949	-0.303066
H215	H	1.416789	-0.262615	0.030267
H216	H	1.750123	0.070718	0.363601
H217	H	0.934439	-0.411090	-0.977716
H218	H	1.267772	-0.077757	-0.644382
H219	H	1.601106	0.255576	-0.311049
C220	C	0.584490	-0.427819	-0.457369
C221	C	0.917823	-0.094485	-0.124036
C222	C	1.251156	0.238848	0.209298
H223	H	0.615642	-0.454105	-0.485374
H224	H	0.948975	-0.120771	-0.152040
H225	H	1.282308	0.212562	0.181293
H226	H	0.554626	-0.403794	-0.486767
H227	H	0.887959	-0.070460	-0.153434
H228	H	1.221293	0.262873	0.179899
H229	H	0.557073	-0.453079	-0.429237
H230	H	0.890406	-0.119746	-0.095903
H231	H	1.223740	0.213588	0.237430
H232	H	0.402539	-0.295952	-0.316785
H233	H	0.735873	0.037382	0.016548
H234	H	1.069206	0.370715	0.349882
H235	H	0.913743	-0.595426	-0.458684
H236	H	1.247077	-0.262092	-0.125350
H237	H	1.580410	0.071241	0.207983
C238	C	1.081949	-0.284648	-0.642087
C239	C	1.415282	0.048685	-0.308753
C240	C	1.748615	0.382019	0.024580
H241	H	1.107286	-0.262912	-0.675528
H242	H	1.440619	0.070421	-0.342195
H243	H	1.773952	0.403755	-0.008861
H244	H	1.113696	-0.308905	-0.614821
H245	H	1.447029	0.024429	-0.281488
H246	H	1.780363	0.357762	0.051846
H247	H	1.056356	-0.255107	-0.612391
H248	H	1.389690	0.078226	-0.279058
H249	H	1.723023	0.411560	0.054275
C250	C	0.900591	-1.124891	-0.471045
C251	C	1.233925	-0.791558	-0.137712
C252	C	1.567258	-0.458224	0.195621
H253	H	0.872727	-1.095812	-0.496582
H254	H	1.206060	-0.762479	-0.163248
H255	H	1.539393	-0.429145	0.170085
H256	H	0.871218	-1.148380	-0.442907
H257	H	1.204551	-0.815047	-0.109574
H258	H	1.537884	-0.481714	0.223759
H259	H	0.926103	-1.152682	-0.502766
H260	H	1.259436	-0.819349	-0.169433
H261	H	1.592769	-0.486016	0.163900
H262	H	1.057092	-0.305927	-0.871338
H263	H	1.390425	0.027406	-0.538005
H264	H	1.723759	0.360740	-0.204671
H265	H	1.091573	-0.276360	-1.117553
H266	H	1.424906	0.056973	-0.784220
H267	H	1.758240	0.390307	-0.450886
C268	C	1.096987	-0.987444	-0.290904
C269	C	1.430320	-0.654111	0.042430
C270	C	1.763654	-0.320778	0.375763
H271	H	1.124862	-1.016524	-0.265378
H272	H	1.458195	-0.683190	0.067955
H273	H	1.791529	-0.349857	0.401289
H274	H	1.071484	-0.959651	-0.259184
H275	H	1.404818	-0.626318	0.074149
H276	H	1.738151	-0.292984	0.407482
H277	H	1.126361	-0.963958	-0.319051
H278	H	1.459694	-0.630624	0.014283
H279	H	1.793028	-0.297291	0.347616
H280	H	0.602426	-0.263997	-0.282698
H281	H	0.935759	0.069336	0.050636
H282	H	1.269092	0.402669	0.383969
C283	C	1.096869	-0.724654	-0.290840
C284	C	1.430203	-0.391321	0.042493
C285	C	1.763536	-0.057987	0.375826
H286	H	1.124709	-0.695748	-0.265287
H287	H	1.458043	-0.362415	0.068046
H288	H	1.791376	-0.029082	0.401380
H289	H	1.126265	-0.752464	-0.318985
H290	H	1.459599	-0.419130	0.014348
H291	H	1.792932	-0.085797	0.347681
H292	H	1.071372	-0.748148	-0.259134
H293	H	1.404705	-0.414815	0.074199
H294	H	1.738038	-0.081481	0.407532
H295	H	1.063035	-0.300854	-0.784817
H296	H	1.396368	0.032479	-0.451483
H297	H	1.729702	0.365813	-0.118150
C298	C	0.900428	-0.724047	-0.470952
C299	C	1.233761	-0.390713	-0.137619
C300	C	1.567094	-0.057380	0.195714
H301	H	0.907138	-0.767929	-0.464814
H302	H	1.240471	-0.434595	-0.131481
H303	H	1.573805	-0.101262	0.201852
H304	H	0.908643	-0.715369	-0.518499
H305	H	1.241976	-0.382036	-0.185166
H306	H	1.575310	-0.048702	0.148167
H307	H	0.853763	-0.711057	-0.458636
H308	H	1.187096	-0.377724	-0.125302
H309	H	1.520430	-0.044391	0.208031
C310	C	1.097044	-1.125501	-0.290936
C311	C	1.430377	-0.792168	0.042397
C312	C	1.763710	-0.458834	0.375731
H313	H	1.124881	-1.096593	-0.265383
H314	H	1.458214	-0.763260	0.067950
H315	H	1.791548	-0.429926	0.401284
H316	H	1.126442	-1.153306	-0.319084
H317	H	1.459775	-0.819973	0.014250
H318	H	1.793108	-0.486640	0.347583
H319	H	1.071552	-1.148999	-0.259230
H320	H	1.404885	-0.815666	0.074104
H321	H	1.738218	-0.482333	0.407437
C322	C	0.886983	-0.451783	-0.787715
C323	C	1.220316	-0.118450	-0.454382
C324	C	1.553650	0.214884	-0.121049
H325	H	0.891334	-0.448058	-0.836840
H326	H	1.224667	-0.114725	-0.503507
H327	H	1.558000	0.218608	-0.170173
H328	H	0.840395	-0.440251	-0.773706
H329	H	1.173729	-0.106918	-0.440373
H330	H	1.507062	0.226415	-0.107040
H331	H	0.897731	-0.494052	-0.776138
H332	H	1.231064	-0.160719	-0.442804
H333	H	1.564398	0.172615	-0.109471
C334	C	0.900537	-0.986837	-0.471008
C335	C	1.233870	-0.653504	-0.137675
C336	C	1.567204	-0.320171	0.195658
H337	H	0.907222	-0.942997	-0.464863
H338	H	1.240555	-0.609663	-0.131529
H339	H	1.573889	-0.276330	0.201804
H340	H	0.853883	-0.995398	-0.458703
H341	H	1.187216	-0.662065	-0.125369
H342	H	1.520549	-0.328731	0.207964
H343	H	0.908767	-0.999707	-0.518562
H344	H	1.242101	-0.666373	-0.185228
H345	H	1.575434	-0.333040	0.148105
H346	H	1.097229	-0.271526	-0.984722
H347	H	1.430562	0.061807	-0.651389
H348	H	1.763895	0.395140	-0.318056
H349	H	0.728320	-0.421515	-0.450712
H350	H	1.061653	-0.088182	-0.117379
H351	H	1.394986	0.245151	0.215954
C352	C	0.915519	-0.427286	-1.120448
C353	C	1.248852	-0.093953	-0.787114
C354	C	1.582186	0.239381	-0.453781
H355	H	0.890166	-0.449012	-1.087010
H356	H	1.223500	-0.115679	-0.753677
H357	H	1.556833	0.217654	-0.420343
H358	H	0.941103	-0.456826	-1.150144
H359	H	1.274437	-0.123492	-0.816811
H360	H	1.607770	0.209841	-0.483478
H361	H	0.883775	-0.403018	-1.147713
H362	H	1.217109	-0.069685	-0.814379
H363	H	1.550442	0.263648	-0.481046
H364	H	0.905889	-0.435572	-0.644980
H365	H	1.239222	-0.102239	-0.311647
H366	H	1.572556	0.231094	0.021687
H367	H	0.489059	-0.301509	-0.322710
H368	H	0.822392	0.031825	0.010624
H369	H	1.155725	0.365158	0.343957
C370	C	0.251775	-0.454417	-0.485898
C371	C	0.585108	-0.121084	-0.152564
C372	C	0.918442	0.212249	0.180769
H373	H	0.282926	-0.480681	-0.513927
H374	H	0.616259	-0.147348	-0.180594
H375	H	0.949593	0.185985	0.152739
H376	H	0.221949	-0.430330	-0.515270
H377	H	0.555282	-0.096996	-0.181936
H378	H	0.888615	0.236337	0.151397
H379	H	0.224319	-0.479704	-0.457834
H380	H	0.557652	-0.146371	-0.124501
H381	H	0.890985	0.186963	0.208832
C382	C	0.259796	-0.278262	-0.297907
C383	C	0.593129	0.055072	0.035426
C384	C	0.926462	0.388405	0.368760
H385	H	0.210674	-0.282332	-0.302233
H386	H	0.544008	0.051002	0.031100
H387	H	0.877341	0.384335	0.364433
H388	H	0.271371	-0.236833	-0.308759
H389	H	0.604704	0.096500	0.024574
H390	H	0.938037	0.429834	0.357908
H391	H	0.273787	-0.286179	-0.251293
H392	H	0.607120	0.047154	0.082040
H393	H	0.940453	0.380487	0.415373
C394	C	0.746273	-0.257727	-0.275999
C395	C	1.079606	0.075606	0.057335
C396	C	1.412940	0.408940	0.390668
H397	H	0.794847	-0.265677	-0.284489
H398	H	1.128180	0.067656	0.048844
H399	H	1.461514	0.400989	0.382178
H400	H	0.736263	-0.264677	-0.228364
H401	H	1.069597	0.068657	0.104969
H402	H	1.402930	0.401990	0.438302
H403	H	0.733857	-0.215344	-0.285844
H404	H	1.067190	0.117989	0.047489
H405	H	1.400523	0.451323	0.380823
H406	H	0.508972	-0.410653	-0.439154
H407	H	0.842306	-0.077319	-0.105821
H408	H	1.175639	0.256014	0.227513
