data_functionalizedCrystal
_audit_creation_method	'MofGen! by Chris Wilmer'
_symmetry_space_group_name_H-M	'P1'
_symmetry_Int_Tables_number	1
_symmetry_cell_setting	triclinic
loop_
_symmetry_equiv_pos_as_xyz
  x,y,z
_cell_length_a	10.967926
_cell_length_b	10.967829
_cell_length_c	9.482900
_cell_angle_alpha	87.494390
_cell_angle_beta	92.549900
_cell_angle_gamma	87.248880
loop_
_atom_site_label
_atom_site_type_symbol
_atom_site_fract_x
_atom_site_fract_y
_atom_site_fract_z
O1	O	1.620175	0.212170	0.231862
O2	O	2.120175	0.712170	0.731862
O3	O	1.271086	0.214806	0.143741
O4	O	1.771086	0.714806	0.643741
O5	O	1.446976	0.038970	0.231865
O6	O	1.946976	0.538970	0.731865
O7	O	1.444285	0.388006	0.143737
O8	O	1.944285	0.888006	0.643737
O9	O	1.411256	0.074837	0.455722
O10	O	1.911256	0.574837	0.955722
O11	O	1.235365	0.250672	0.367597
O12	O	1.735365	0.750672	0.867597
O13	O	1.584455	0.248037	0.455718
O14	O	2.084455	0.748037	0.955718
Cu15	Cu	1.406649	0.252629	0.432098
Cu16	Cu	1.906649	0.752629	0.932098
Cu17	Cu	1.448892	0.210213	0.167361
Cu18	Cu	1.948892	0.710213	0.667361
O19	O	1.408564	0.423872	0.367594
O20	O	1.908564	0.923872	0.867594
C21	C	1.208402	0.229837	0.245166
C22	C	1.708402	0.729837	0.745166
C23	C	1.074842	0.221176	0.213873
C24	C	1.574842	0.721176	0.713873
C25	C	0.996792	0.235895	0.315886
C26	C	1.496792	0.735895	0.815886
C27	C	0.858750	0.226943	0.283546
C28	C	1.358750	0.726943	0.783546
C29	C	1.426222	0.012086	0.354295
C30	C	1.926222	0.512086	0.854295
C31	C	1.417582	-0.121457	0.385581
C32	C	1.917582	0.378543	0.885581
C33	C	1.432235	-0.199568	0.283564
C34	C	1.932235	0.300432	0.783564
C35	C	1.423306	-0.337592	0.315898
C36	C	1.923306	0.162408	0.815898
C37	C	1.647139	0.233005	0.354290
C38	C	2.147139	0.733005	0.854290
C39	C	1.780701	0.241664	0.385574
C40	C	2.280701	0.741664	0.885574
C41	C	1.429320	0.450756	0.245161
C42	C	1.929320	0.950756	0.745161
C43	C	1.437961	0.584297	0.213866
C44	C	1.937961	1.084297	0.713866
N45	N	1.376946	0.282463	0.618301
N46	N	1.876946	0.782463	1.118301
N47	N	1.478604	0.180371	-0.018837
N48	N	1.978604	0.680371	0.481163
C49	C	1.440122	0.219006	0.722228
C50	C	1.940122	0.719006	1.222228
C51	C	1.415418	0.243837	0.877234
C52	C	1.915418	0.743837	1.377234
H53	H	0.816069	0.260890	0.496862
H54	H	1.316069	0.760890	0.996862
H55	H	0.823381	0.207711	0.172261
H56	H	1.323381	0.707711	0.672261
H57	H	1.404142	-0.372894	0.427181
H58	H	1.904142	0.127106	0.927181
Cl59	Cl	1.387998	-0.175958	0.557389
Cl60	Cl	1.887998	0.324042	1.057389
H61	H	1.550982	0.107650	0.955392
H62	H	2.050982	0.607650	1.455392
Cl63	Cl	1.020237	0.191480	0.042063
Cl64	Cl	1.520237	0.691480	0.542063
H65	H	1.304564	0.355169	0.644079
H66	H	1.804564	0.855169	1.144079
Cl67	Cl	1.461837	-0.145068	0.111761
Cl68	Cl	1.961837	0.354932	0.611761
Cl69	Cl	1.467490	-0.361206	0.042034
Cl70	Cl	1.967490	0.138794	0.542034
Cl71	Cl	1.551586	0.106460	0.682440
Cl72	Cl	2.051586	0.606460	1.182440
H73	H	1.032168	0.255116	0.427167
H74	H	1.532168	0.755116	0.927167
Cl75	Cl	1.303659	0.356099	0.917014
Cl76	Cl	1.803659	0.856099	1.417014
