data_functionalizedCrystal
_audit_creation_method	'MofGen! by Chris Wilmer'
_symmetry_space_group_name_H-M	'P1'
_symmetry_Int_Tables_number	1
_symmetry_cell_setting	triclinic
loop_
_symmetry_equiv_pos_as_xyz
  x,y,z
_cell_length_a	15.944493
_cell_length_b	15.944551
_cell_length_c	9.565339
_cell_angle_alpha	89.999279
_cell_angle_beta	89.997013
_cell_angle_gamma	83.486891
loop_
_atom_site_label
_atom_site_type_symbol
_atom_site_fract_x
_atom_site_fract_y
_atom_site_fract_z
O1	O	1.114554	0.108094	-0.116244
O2	O	0.869998	0.121501	-0.116252
O3	O	0.998954	-0.007479	-0.116235
O4	O	0.985598	0.237074	-0.116261
O5	O	0.998944	-0.007471	0.116285
O6	O	0.869988	0.121509	0.116268
O7	O	1.114544	0.108102	0.116276
Zn8	Zn	0.992264	0.114807	0.153190
Zn9	Zn	0.992277	0.114796	-0.153166
O10	O	0.985587	0.237082	0.116259
C11	C	0.838698	0.120957	0.000008
C12	C	0.745449	0.119314	0.000005
C13	C	0.998395	-0.038768	0.000025
C14	C	0.996732	-0.132014	0.000026
C15	C	0.509689	0.195235	-0.000004
C16	C	0.459126	0.154298	0.114651
C17	C	0.574728	0.116270	0.000008
C18	C	0.459141	0.154271	-0.114595
C19	C	0.409819	0.113336	0.000005
C20	C	0.525393	0.075355	0.114758
C21	C	0.525411	0.075340	-0.114592
C22	C	0.474880	0.034345	0.000091
C23	C	0.669728	0.117963	0.000011
C24	C	0.314821	0.111637	0.000012
C25	C	0.912826	-0.346853	0.000004
C26	C	0.951784	-0.407875	0.114652
C27	C	0.993725	-0.302739	0.000015
C28	C	0.951813	-0.407866	-0.114595
C29	C	0.990814	-0.467651	-0.000002
C30	C	1.032706	-0.362533	0.114757
C31	C	1.032723	-0.362518	-0.114592
C32	C	1.071741	-0.423521	0.000083
C33	C	0.995399	-0.207737	0.000026
C34	C	0.989146	-0.562652	-0.000002
C35	C	1.145844	0.108646	0.000013
C36	C	1.239092	0.110289	0.000007
C37	C	0.986147	0.268372	-0.000004
C38	C	0.987809	0.361617	-0.000014
N39	N	0.992261	0.114814	0.362269
N40	N	0.992287	0.114783	-0.362245
C41	C	0.932605	0.174443	0.453465
C42	C	1.008512	0.190730	0.546644
C43	C	0.916387	0.098533	0.546645
C44	C	1.068206	0.131139	0.453396
C45	C	0.976032	0.038909	0.453390
C46	C	1.051993	0.055164	0.546527
H47	H	0.430184	0.187649	0.211574
H48	H	0.430206	0.187632	-0.211513
H49	H	0.554361	0.042014	-0.211520
H50	H	1.066890	-0.342546	0.211789
O51	O	0.872374	0.234604	0.404868
C52	C	0.724422	0.286311	0.399091
C53	C	0.792543	0.218136	0.454253
H54	H	0.659861	0.273010	0.438972
H55	H	0.738361	0.350994	0.437447
H56	H	0.724612	0.285368	0.279919
H57	H	0.792390	0.219001	0.573421
H58	H	0.778579	0.153484	0.415790
O59	O	0.559661	0.035683	0.230666
C60	C	0.564025	0.032126	0.482428
C61	C	0.525134	0.077117	0.351282
H62	H	0.536140	0.065618	0.579978
H63	H	0.549461	-0.036242	0.482948
H64	H	0.635323	0.033726	0.481437
H65	H	0.453831	0.075581	0.352186
H66	H	0.539766	0.145463	0.350811
H67	H	1.022256	0.254908	0.587605
O68	O	1.144707	0.147727	0.404515
C69	C	1.230513	0.166366	0.201946
C70	C	1.143847	0.147552	0.257117
H71	H	1.229852	0.166214	0.082770
H72	H	1.244437	0.230881	0.241122
H73	H	1.281435	0.115868	0.241119
H74	H	1.092869	0.197997	0.217967
H75	H	1.129995	0.083012	0.217953
O76	O	1.073629	-0.338621	-0.230182
C77	C	1.203182	-0.351981	-0.362184
C78	C	1.156961	-0.379133	-0.231227
H79	H	1.270570	-0.384708	-0.363058
H80	H	1.168669	-0.370420	-0.459902
H81	H	1.204537	-0.280655	-0.360492
H82	H	1.155594	-0.450455	-0.232784
H83	H	1.191489	-0.360631	-0.133567
O84	O	0.910873	-0.431711	-0.230186
C85	C	0.780811	-0.419457	-0.360738
C86	C	0.827086	-0.392374	-0.229800
H87	H	0.713056	-0.387679	-0.360455
H88	H	0.814582	-0.399877	-0.458486
H89	H	0.780525	-0.490922	-0.360161
H90	H	0.827385	-0.320913	-0.230241
H91	H	0.793300	-0.412016	-0.132111
H92	H	0.962263	-0.025249	0.412396
H93	H	0.852211	0.084776	0.587609
H94	H	0.525313	0.263254	0.000096
H95	H	1.102509	0.004721	0.587132
O96	O	1.151931	-0.463067	0.000404
C97	C	1.285139	-0.484769	0.121524
C98	C	1.194341	-0.439945	0.121343
H99	H	1.319459	-0.466079	0.219278
H100	H	1.283342	-0.556042	0.120687
H101	H	1.319853	-0.465325	0.024669
H102	H	1.159575	-0.459320	0.218181
H103	H	1.196199	-0.368682	0.122107
O104	O	0.832704	-0.307132	0.000377
C105	C	0.699551	-0.285090	0.121627
C106	C	0.790268	-0.330112	0.121388
H107	H	0.665209	-0.303667	0.219439
H108	H	0.701512	-0.213841	0.120718
H109	H	0.664753	-0.304479	0.024832
H110	H	0.825119	-0.310793	0.218167
H111	H	0.788246	-0.401353	0.122225
H112	H	0.459415	-0.033726	0.000164
O113	O	0.911018	-0.432007	0.230234
C114	C	0.864379	-0.547593	0.360233
C115	C	0.910590	-0.520386	0.229304
H116	H	0.864003	-0.619047	0.359510
H117	H	0.898209	-0.528123	0.457986
H118	H	0.796654	-0.515735	0.360083
H119	H	0.978317	-0.552232	0.229318
H120	H	0.876695	-0.539842	0.131610
