data_functionalizedCrystal
_audit_creation_method	'MofGen! by Chris Wilmer'
_symmetry_space_group_name_H-M	'P1'
_symmetry_Int_Tables_number	1
_symmetry_cell_setting	triclinic
loop_
_symmetry_equiv_pos_as_xyz
  x,y,z
_cell_length_a	21.295411
_cell_length_b	17.077404
_cell_length_c	17.077402
_cell_angle_alpha	90.023108
_cell_angle_beta	90.018237
_cell_angle_gamma	90.024445
loop_
_atom_site_label
_atom_site_type_symbol
_atom_site_fract_x
_atom_site_fract_y
_atom_site_fract_z
Zn1	Zn	-0.355924	-1.200093	0.312593
Zn2	Zn	0.144076	-0.700093	0.812593
Zn3	Zn	-0.250656	-1.199989	0.443841
Zn4	Zn	0.249344	-0.699989	0.943841
Zn5	Zn	-0.250670	-1.068813	0.312594
Zn6	Zn	0.249330	-0.568813	0.812594
Zn7	Zn	-0.355888	-1.068793	0.443821
Zn8	Zn	0.144112	-0.568793	0.943821
O9	O	-0.303285	-1.134422	0.378212
O10	O	0.196715	-0.634422	0.878212
O11	O	-0.341970	-1.309926	0.330011
O12	O	0.158030	-0.809926	0.830011
O13	O	-0.162568	-1.182553	0.426440
O14	O	0.337432	-0.682553	0.926440
O15	O	-0.264653	-1.086280	0.202747
O16	O	0.235347	-0.586280	0.702747
O17	O	-0.264630	-1.309849	0.426439
O18	O	0.235370	-0.809849	0.926439
O19	O	-0.341983	-1.182731	0.202746
O20	O	0.158017	-0.682731	0.702746
O21	O	-0.162578	-1.086179	0.330013
O22	O	0.337422	-0.586179	0.830013
O23	O	-0.264618	-0.958964	0.329994
O24	O	0.235382	-0.458964	0.829994
O25	O	-0.443982	-1.086245	0.426405
O26	O	0.056018	-0.586245	0.926405
O27	O	-0.341921	-0.958949	0.426406
O28	O	0.158079	-0.458949	0.926406
O29	O	-0.444009	-1.182711	0.329992
O30	O	0.055991	-0.682711	0.829992
O31	O	-0.264594	-1.182533	0.553686
O32	O	0.235406	-0.682533	1.053686
O33	O	-0.341908	-1.086144	0.553671
O34	O	0.158092	-0.586144	1.053671
C35	C	-0.303267	-0.930474	0.378198
C36	C	0.196733	-0.430474	0.878198
C37	C	-0.303275	-0.843224	0.378211
C38	C	0.196725	-0.343224	0.878211
C39	C	-0.303259	-1.134346	0.582160
C40	C	0.196741	-0.634346	1.082160
C41	C	-0.303270	-1.134386	0.669410
C42	C	0.196730	-0.634386	1.169410
C43	C	-0.467475	-1.134487	0.378196
C44	C	0.032525	-0.634487	0.878196
C45	C	-0.537443	-1.134515	0.378189
C46	C	-0.037443	-0.634515	0.878189
C47	C	-0.570325	-1.184742	0.327984
C48	C	-0.070325	-0.684742	0.827984
C49	C	-0.636067	-1.184741	0.327950
C50	C	-0.136067	-0.684741	0.827950
C51	C	-0.668926	-1.134521	0.378135
C52	C	-0.168926	-0.634521	0.878135
C53	C	-0.636036	-1.084284	0.428343
C54	C	-0.136036	-0.584284	0.928343
C55	C	-0.570295	-1.084281	0.428370
C56	C	-0.070295	-0.584281	0.928370
N57	N	-0.772144	-1.128474	0.446804
N58	N	-0.272144	-0.628474	0.946804
N59	N	-0.834596	-1.128481	0.446776
N60	N	-0.334596	-0.628481	0.946776
C61	C	-0.867000	-1.134526	0.378055
C62	C	-0.367000	-0.634526	0.878055
N63	N	-0.834594	-1.140578	0.309362
N64	N	-0.334594	-0.640578	0.809362
N65	N	-0.772137	-1.140575	0.309390
N66	N	-0.272137	-0.640575	0.809390
C67	C	-0.740211	-1.134518	0.378111
C68	C	-0.240211	-0.634518	0.878111
C69	C	-0.971168	-1.184755	0.327809
C70	C	-0.471168	-0.684755	0.827809
C71	C	-1.036911	-1.184748	0.327774
C72	C	-0.536911	-0.684748	0.827774
C73	C	-1.036879	-1.084295	0.428173
C74	C	-0.536879	-0.584295	0.928173
C75	C	-0.971136	-1.084297	0.428202
C76	C	-0.471136	-0.584297	0.928202
C77	C	-0.938285	-1.134532	0.378021
C78	C	-0.438285	-0.634532	0.878021
C79	C	-0.139733	-1.134402	0.378172
C80	C	0.360267	-0.634402	0.878172
C81	C	-0.069765	-1.134527	0.377958
C82	C	0.430235	-0.634527	0.877958
C83	C	-0.303302	-1.339166	0.378227
C84	C	0.196698	-0.839166	0.878227
C85	C	-0.303310	-1.426416	0.378233
C86	C	0.196690	-0.926416	0.878233
C87	C	-0.343462	-0.802247	0.428488
C88	C	0.156538	-0.302247	0.928488
C89	C	-0.343472	-0.720266	0.428490
C90	C	0.156528	-0.220266	0.928490
C91	C	-0.303291	-0.679265	0.378218
C92	C	0.196709	-0.179265	0.878218
C93	C	-0.263102	-0.720248	0.327935
C94	C	0.236898	-0.220248	0.827935
C95	C	-0.263096	-0.802227	0.327930
C96	C	0.236904	-0.302227	0.827930
C97	C	-0.263117	-0.549378	0.327950
C98	C	0.236883	-0.049378	0.827950
C99	C	-0.263123	-0.467393	0.327956
C100	C	0.236877	0.032607	0.827956
C101	C	-0.343494	-0.467417	0.428511
C102	C	0.156506	0.032583	0.928511
C103	C	-0.343487	-0.549396	0.428506
C104	C	0.156513	-0.049396	0.928506
C105	C	-0.303297	-0.590374	0.378223
C106	C	0.196703	-0.090374	0.878223
C107	C	-0.303324	-1.134519	0.173468
C108	C	0.196676	-0.634519	0.673468
C109	C	-0.303340	-1.134561	0.086218
C110	C	0.196660	-0.634561	0.586218
C111	C	-0.263056	-1.184627	0.710382
C112	C	0.236944	-0.684627	1.210382
C113	C	-0.263072	-1.184665	0.792362
C114	C	0.236928	-0.684665	1.292362
C115	C	-0.303299	-1.134458	0.833369
C116	C	0.196701	-0.634458	1.333369
C117	C	-0.343517	-1.084214	0.792392
C118	C	0.156483	-0.584214	1.292392
C119	C	-0.343504	-1.084181	0.710413
C120	C	0.156496	-0.584181	1.210413
C121	C	-0.343541	-1.084287	0.963262
C122	C	0.156459	-0.584287	1.463262
C123	C	-0.343554	-1.084320	1.045246
C124	C	0.156446	-0.584320	1.545246
C125	C	-0.263109	-1.184772	1.045211
C126	C	0.236891	-0.684772	1.545211
C127	C	-0.263096	-1.184738	0.963232
C128	C	0.236904	-0.684738	1.463232
C129	C	-0.303313	-1.134493	0.922260
C130	C	0.196687	-0.634493	1.422260
H131	H	-0.543581	-1.225646	0.287122
H132	H	-0.043581	-0.725646	0.787122
H133	H	-0.230389	-0.686858	0.286999
H134	H	0.269611	-0.186858	0.786999
H135	H	-0.230396	-0.582740	0.286998
H136	H	0.269604	-0.082740	0.786998
Br137	Br	-0.680628	-1.016121	0.496445
Br138	Br	-0.180628	-0.516121	0.996445
H139	H	-0.543523	-1.043376	0.469251
H140	H	-0.043523	-0.543376	0.969251
H141	H	-0.944418	-1.225654	0.286945
H142	H	-0.444418	-0.725654	0.786945
Br143	Br	-0.208557	-0.857841	0.259689
Br144	Br	0.291443	-0.357841	0.759689
Br145	Br	-0.398139	-1.016169	1.100899
Br146	Br	0.101861	-0.516169	1.600899
H147	H	-0.376274	-1.043338	0.825786
H148	H	0.123726	-0.543338	1.325786
Br149	Br	-1.081538	-1.252932	0.259645
Br150	Br	-0.581538	-0.752932	0.759645
H151	H	-1.063632	-1.043396	0.469027
H152	H	-0.563632	-0.543396	0.969027
H153	H	-0.230295	-1.225508	0.676999
H154	H	0.269705	-0.725508	1.176999
H155	H	-0.230364	-1.225685	1.078574
H156	H	0.269636	-0.725685	1.578574
H157	H	-0.376293	-1.043375	0.929905
H158	H	0.123707	-0.543375	1.429905
H159	H	-0.230325	-1.225576	0.825718
H160	H	0.269675	-0.725576	1.325718
H161	H	-0.230337	-1.225616	0.929844
H162	H	0.269663	-0.725616	1.429844
H163	H	-0.376251	-1.043270	0.677054
H164	H	0.123749	-0.543270	1.177054
H165	H	-0.944364	-1.043401	0.469088
H166	H	-0.444364	-0.543401	0.969088
Br167	Br	-0.397992	-0.857884	0.496725
Br168	Br	0.102008	-0.357884	0.996725
H169	H	-0.662845	-1.225641	0.287063
H170	H	-0.162845	-0.725641	0.787063
Br171	Br	-0.398013	-0.605041	0.496741
Br172	Br	0.101987	-0.105041	0.996741
Br173	Br	-0.398016	-0.664657	0.496725
Br174	Br	0.101984	-0.164657	0.996725
H175	H	-0.230411	-0.434012	0.287010
H176	H	0.269589	0.065988	0.787010
Br177	Br	-0.398046	-0.411806	0.496741
Br178	Br	0.101954	0.088194	0.996741
