data_functionalizedCrystal
_audit_creation_method	'MofGen! by Chris Wilmer'
_symmetry_space_group_name_H-M	'P1'
_symmetry_Int_Tables_number	1
_symmetry_cell_setting	triclinic
loop_
_symmetry_equiv_pos_as_xyz
  x,y,z
_cell_length_a	16.974800
_cell_length_b	19.288865
_cell_length_c	17.766276
_cell_angle_alpha	90.013634
_cell_angle_beta	93.665488
_cell_angle_gamma	96.736285
loop_
_atom_site_label
_atom_site_type_symbol
_atom_site_fract_x
_atom_site_fract_y
_atom_site_fract_z
O1	O	1.048834	-0.088478	0.001312
O2	O	1.382167	0.244855	0.334645
O3	O	1.715500	0.578188	0.667979
O4	O	0.818583	-0.099766	-0.012722
O5	O	1.151916	0.233567	0.320611
O6	O	1.485250	0.566900	0.653945
O7	O	0.940361	0.006997	-0.005285
O8	O	1.273695	0.340330	0.328049
O9	O	1.607028	0.673663	0.661382
O10	O	0.927055	-0.195241	-0.006125
O11	O	1.260389	0.138092	0.327208
O12	O	1.593722	0.471426	0.660541
O13	O	0.940383	0.007010	0.119905
O14	O	1.273716	0.340344	0.453238
O15	O	1.607049	0.673677	0.786572
O16	O	0.818604	-0.099752	0.112468
O17	O	1.151938	0.233581	0.445801
O18	O	1.485271	0.566914	0.779134
O19	O	1.048855	-0.088464	0.126502
O20	O	1.382188	0.244869	0.459835
O21	O	1.715521	0.578202	0.793168
Cu22	Cu	0.933731	-0.094107	0.130916
Cu23	Cu	1.267065	0.239226	0.464249
Cu24	Cu	1.600398	0.572560	0.797582
Cu25	Cu	0.933706	-0.094123	-0.017136
Cu26	Cu	1.267040	0.239210	0.316197
Cu27	Cu	1.600373	0.572543	0.649531
O28	O	0.927076	-0.195227	0.119064
O29	O	1.260410	0.138106	0.452398
O30	O	1.593743	0.471440	0.785731
C31	C	0.789136	-0.099332	0.048078
C32	C	1.122470	0.234001	0.381411
C33	C	1.455803	0.567335	0.714744
C34	C	0.701363	-0.098050	0.042729
C35	C	1.034696	0.235283	0.376062
C36	C	1.368029	0.568616	0.709395
C37	C	0.660143	-0.097439	0.108458
C38	C	0.993476	0.235895	0.441791
C39	C	1.326809	0.569228	0.775125
C40	C	0.577672	-0.096223	0.103434
C41	C	0.911005	0.237110	0.436768
C42	C	1.244339	0.570443	0.770101
C43	C	0.536422	-0.095624	0.032680
C44	C	0.869755	0.237709	0.366013
C45	C	1.203088	0.571042	0.699347
C46	C	0.577648	-0.096234	-0.033055
C47	C	0.910981	0.237100	0.300279
C48	C	1.244314	0.570433	0.633612
C49	C	0.660118	-0.097444	-0.028030
C50	C	0.993451	0.235889	0.305303
C51	C	1.326784	0.569222	0.638637
C52	C	0.289771	-0.092000	0.010335
C53	C	0.623105	0.241333	0.343668
C54	C	0.956438	0.574666	0.677001
C55	C	0.207295	-0.090792	0.005315
C56	C	0.540628	0.242542	0.338648
C57	C	0.873962	0.575875	0.671982
C58	C	0.207325	-0.090780	0.141804
C59	C	0.540659	0.242553	0.475138
C60	C	0.873992	0.575887	0.808471
C61	C	0.289796	-0.091995	0.146823
C62	C	0.623130	0.241339	0.480156
C63	C	0.956463	0.574672	0.813489
C64	C	0.331016	-0.092600	0.081088
C65	C	0.664349	0.240733	0.414422
C66	C	0.997682	0.574066	0.747755
N67	N	0.452123	-0.094384	0.027543
N68	N	0.785456	0.238949	0.360876
N69	N	1.118789	0.572283	0.694210
N70	N	0.415314	-0.093836	0.086226
N71	N	0.748647	0.239498	0.419559
N72	N	1.081981	0.572831	0.752893
C73	C	0.939944	0.032881	0.057286
C74	C	1.273277	0.366214	0.390620
C75	C	1.606611	0.699547	0.723953
C76	C	0.938659	0.109986	0.057215
C77	C	1.271992	0.443320	0.390548
C78	C	1.605325	0.776653	0.723881
C79	C	1.078302	-0.088899	0.065700
C80	C	1.411635	0.244435	0.399034
C81	C	1.744968	0.577768	0.732367
C82	C	1.166075	-0.090180	0.071045
C83	C	1.499408	0.243153	0.404378
C84	C	1.832742	0.576486	0.737711
C85	C	0.927494	-0.221111	0.056492
C86	C	1.260827	0.112222	0.389825
C87	C	1.594161	0.445555	0.723158
C88	C	0.928779	-0.298217	0.056558
C89	C	1.262112	0.035116	0.389892
C90	C	1.595446	0.368450	0.723225
C91	C	1.010113	0.154558	0.061574
C92	C	1.343446	0.487892	0.394907
C93	C	1.676779	0.821225	0.728240
C94	C	1.008905	0.227008	0.061488
C95	C	1.342239	0.560341	0.394821
C96	C	1.675572	0.893674	0.728155
C97	C	0.936240	0.254882	0.057059
C98	C	1.269573	0.588215	0.390392
C99	C	1.602906	0.921548	0.723725
C100	C	0.864776	0.210300	0.052695
C101	C	1.198110	0.543633	0.386028
C102	C	1.531443	0.876966	0.719362
C103	C	0.865986	0.137852	0.052773
C104	C	1.199319	0.471186	0.386106
C105	C	1.532652	0.804519	0.719440
C106	C	0.879123	0.363273	0.097428
C107	C	1.212457	0.696607	0.430761
C108	C	1.545790	1.029940	0.764095
C109	C	0.877917	0.435720	0.097355
C110	C	1.211250	0.769053	0.430688
C111	C	1.544584	1.102387	0.764022
C112	C	0.932506	0.478334	0.056814
C113	C	1.265839	0.811667	0.390147
C114	C	1.599173	1.145000	0.723481
C115	C	0.988315	0.448494	0.016357
C116	C	1.321649	0.781827	0.349691
C117	C	1.654982	1.115160	0.683024
C118	C	0.989525	0.376046	0.016435
C119	C	1.322858	0.709379	0.349769
C120	C	1.656192	1.042713	0.683102
C121	C	0.934920	0.333438	0.056973
C122	C	1.268253	0.666771	0.390306
C123	C	1.601587	1.000105	0.723640
C124	C	1.002656	0.601464	0.061079
C125	C	1.335989	0.934797	0.394413
C126	C	1.669323	1.268131	0.727746
C127	C	1.001445	0.673914	0.060989
C128	C	1.334779	1.007247	0.394322
C129	C	1.668112	1.340581	0.727656
C130	C	0.857314	0.657205	0.052203
C131	C	1.190648	0.990538	0.385537
C132	C	1.523981	1.323871	0.718870
C133	C	0.858527	0.584756	0.052286
C134	C	1.191860	0.918089	0.385620
C135	C	1.525194	1.251423	0.718953
C136	C	0.931200	0.556890	0.056728
C137	C	1.264533	0.890224	0.390061
C138	C	1.597866	1.223557	0.723395
N139	N	0.933689	-0.094130	-0.121267
N140	N	1.267023	0.239203	0.212066
N141	N	1.600356	0.572537	0.545399
C142	C	0.981396	-0.136315	-0.157757
C143	C	1.314730	0.197019	0.175576
C144	C	1.648063	0.530352	0.508909
C145	C	0.981401	-0.136315	-0.236559
C146	C	1.314735	0.197018	0.096775
C147	C	1.648068	0.530351	0.430108
C148	C	0.933709	-0.094118	-0.278867
C149	C	1.267042	0.239215	0.054467
C150	C	1.600376	0.572548	0.387800
C151	C	0.885992	-0.051931	-0.242368
C152	C	1.219326	0.281402	0.090966
C153	C	1.552659	0.614736	0.424299
C154	C	0.885983	-0.051937	-0.163568
C155	C	1.219316	0.281397	0.169765
C156	C	1.552649	0.614730	0.503099
C157	C	0.931902	-0.031463	-0.403800
C158	C	1.265236	0.301870	-0.070466
C159	C	1.598569	0.635204	0.262867
C160	C	0.931918	-0.031456	-0.482598
C161	C	1.265251	0.301878	-0.149264
C162	C	1.598585	0.635211	0.184069
C163	C	0.933734	-0.094101	-0.521911
C164	C	1.267068	0.239233	-0.188578
C165	C	1.600401	0.572566	0.144755
C166	C	0.935552	-0.156754	-0.482417
C167	C	1.268885	0.176579	-0.149083
C168	C	1.602219	0.509913	0.184250
C169	C	0.935542	-0.156760	-0.403617
C170	C	1.268876	0.176573	-0.070284
C171	C	1.602209	0.509907	0.263050
C172	C	0.933714	-0.094107	-0.364312
C173	C	1.267047	0.239226	-0.030979
C174	C	1.600380	0.572559	0.302355
C175	C	0.981449	-0.136290	-0.643847
C176	C	1.314783	0.197044	-0.310513
C177	C	1.648116	0.530377	0.022820
C178	C	0.981449	-0.136292	-0.722650
C179	C	1.314782	0.197042	-0.389317
C180	C	1.648115	0.530375	-0.055983
C181	C	0.886044	-0.051901	-0.728457
C182	C	1.219378	0.281432	-0.395124
C183	C	1.552711	0.614766	-0.061791
C184	C	0.886040	-0.051905	-0.649656
C185	C	1.219373	0.281428	-0.316323
C186	C	1.552707	0.614761	0.017011
C187	C	0.933747	-0.094098	-0.607355
C188	C	1.267080	0.239235	-0.274022
C189	C	1.600414	0.572568	0.059312
N190	N	0.933755	-0.094095	0.235047
N191	N	1.267088	0.239238	0.568381
N192	N	1.600421	0.572572	0.901714
H193	H	0.173711	-0.090306	-0.052305
H194	H	0.507044	0.243027	0.281029
H195	H	0.840378	0.576361	0.614362
F196	F	0.703987	-0.098092	-0.097989
F197	F	1.037320	0.235241	0.235345
F198	F	1.370654	0.568574	0.568678
F199	F	1.048916	0.344290	-0.026624
F200	F	1.382249	0.677623	0.306709
F201	F	1.715583	1.010957	0.640042
H202	H	1.032767	0.483189	-0.016655
H203	H	1.366100	0.816522	0.316678
H204	H	1.699434	1.149855	0.650011
F205	F	1.080000	0.571805	0.065810
F206	F	1.413333	0.905138	0.399144
F207	F	1.746666	1.238471	0.732477
H208	H	0.323323	-0.092491	-0.043191
H209	H	0.656656	0.240842	0.290142
H210	H	0.989989	0.574175	0.623476
H211	H	1.020249	-0.170670	-0.266275
H212	H	1.353583	0.162663	0.067059
H213	H	1.686916	0.495997	0.400392
H214	H	1.059634	0.710205	0.064535
H215	H	1.392968	1.043538	0.397868
H216	H	1.726301	1.376871	0.731201
H217	H	0.847196	-0.017551	-0.619945
H218	H	1.180529	0.315783	-0.286612
H219	H	1.513862	0.649116	0.046721
H220	H	1.067094	0.263305	0.065035
H221	H	1.400427	0.596638	0.398368
H222	H	1.733760	0.929972	0.731701
H223	H	0.930416	0.019553	-0.371797
H224	H	1.263749	0.352886	-0.038464
H225	H	1.597083	0.686220	0.294869
H226	H	0.937020	-0.207775	-0.371464
H227	H	1.270353	0.125559	-0.038131
H228	H	1.603687	0.458892	0.295203
H229	H	0.173756	-0.090286	0.195322
H230	H	0.507089	0.243048	0.528655
H231	H	0.840422	0.576381	0.861988
F232	F	0.779977	0.686865	0.047485
F233	F	1.113311	1.020199	0.380819
F234	F	1.446644	1.353532	0.714152
H235	H	0.800341	0.548464	0.048741
H236	H	1.133674	0.881798	0.382075
H237	H	1.467008	1.215131	0.715408
F238	F	1.032166	-0.181225	-0.112742
F239	F	1.365499	0.152109	0.220591
F240	F	1.698832	0.485442	0.553924
H241	H	0.937031	-0.207766	-0.514424
H242	H	1.270365	0.125568	-0.181091
H243	H	1.603698	0.458901	0.152242
F244	F	0.533747	-0.095575	-0.108357
F245	F	0.867080	0.237758	0.224976
F246	F	1.200414	0.571092	0.558310
H247	H	0.847159	-0.017575	-0.276820
H248	H	1.180492	0.315758	0.056513
H249	H	1.513826	0.649091	0.389847
F250	F	0.821019	0.317927	0.140581
F251	F	1.154352	0.651260	0.473915
F252	F	1.487686	0.984593	0.807248
H253	H	1.069289	0.131875	0.065188
H254	H	1.402622	0.465209	0.398521
H255	H	1.735955	0.798542	0.731854
F256	F	0.818523	0.467472	0.140415
F257	F	1.151857	0.800805	0.473749
F258	F	1.485190	1.134138	0.807082
H259	H	0.847132	-0.017584	-0.133859
H260	H	1.180466	0.315749	0.199475
H261	H	1.513799	0.649082	0.532808
H262	H	1.020291	-0.170649	-0.609404
H263	H	1.353625	0.162684	-0.276070
H264	H	1.686958	0.496018	0.057263
F265	F	0.835281	-0.006996	-0.773480
F266	F	1.168614	0.326337	-0.440146
F267	F	1.501947	0.659671	-0.106813
H268	H	0.693722	-0.097932	0.166074
H269	H	1.027055	0.235401	0.499407
H270	H	1.360389	0.568735	0.832741
F271	F	0.787440	0.239966	0.047976
F272	F	1.120774	0.573300	0.381309
F273	F	1.454107	0.906633	0.714643
F274	F	0.533805	-0.095582	0.173393
F275	F	0.867138	0.237751	0.506726
F276	F	1.200471	0.571085	0.840060
H277	H	0.807797	0.101561	0.049224
H278	H	1.141131	0.434894	0.382557
H279	H	1.474464	0.768228	0.715890
H280	H	1.020296	-0.170648	-0.752359
H281	H	1.353629	0.162686	-0.419025
H282	H	1.686962	0.496019	-0.085692
H283	H	0.323377	-0.092479	0.204439
H284	H	0.656711	0.240854	0.537772
H285	H	0.990044	0.574187	0.871105
F286	F	0.929979	0.035224	-0.524624
F287	F	1.263313	0.368558	-0.191290
F288	F	1.596646	0.701891	0.142043
