data_functionalizedCrystal
_audit_creation_method	'MofGen! by Chris Wilmer'
_symmetry_space_group_name_H-M	'P1'
_symmetry_Int_Tables_number	1
_symmetry_cell_setting	triclinic
loop_
_symmetry_equiv_pos_as_xyz
  x,y,z
_cell_length_a	8.559649
_cell_length_b	13.596369
_cell_length_c	14.519731
_cell_angle_alpha	89.993029
_cell_angle_beta	103.266241
_cell_angle_gamma	90.005227
loop_
_atom_site_label
_atom_site_type_symbol
_atom_site_fract_x
_atom_site_fract_y
_atom_site_fract_z
O1	O	2.120036	0.081774	0.031278
O2	O	2.620036	0.581774	0.531278
O3	O	1.654975	0.081781	-0.016339
O4	O	2.154975	0.581781	0.483661
O5	O	1.899818	0.081768	0.142590
O6	O	2.399818	0.581768	0.642590
O7	O	1.875193	0.081787	-0.127652
O8	O	2.375193	0.581787	0.372348
O9	O	1.899794	-0.081815	0.142596
O10	O	2.399794	0.418185	0.642596
O11	O	1.654950	-0.081802	-0.016334
O12	O	2.154950	0.418198	0.483666
O13	O	2.120012	-0.081809	0.031283
O14	O	2.620012	0.418191	0.531283
Zn15	Zn	1.887477	-0.107778	0.007476
Zn16	Zn	2.387477	0.392222	0.507476
Zn17	Zn	1.887509	0.107750	0.007468
Zn18	Zn	2.387509	0.607750	0.507468
O19	O	1.875168	-0.081796	-0.127646
O20	O	2.375168	0.418204	0.372354
C21	C	1.595443	-0.000010	-0.019945
C22	C	2.095443	0.499990	0.480055
C23	C	1.418095	-0.000008	-0.030686
C24	C	1.918095	0.499992	0.469314
N25	N	1.887467	-0.254870	0.007482
N26	N	2.387467	0.245130	0.507482
C27	C	1.887507	-0.656161	0.007467
C28	C	2.387507	-0.156161	0.507467
C29	C	1.887491	-0.544509	0.007468
C30	C	2.387491	-0.044509	0.507468
C31	C	1.887488	-0.455519	0.007474
C32	C	2.387488	0.044481	0.507474
C33	C	1.887470	-0.343860	0.007476
C34	C	2.387470	0.156140	0.507476
C35	C	2.179543	-0.000016	0.034889
C36	C	2.679543	0.499984	0.534889
C37	C	2.356891	-0.000012	0.045630
C38	C	2.856891	0.499988	0.545630
C39	C	1.898652	-0.000023	0.176870
C40	C	2.398652	0.499977	0.676870
C41	C	1.895194	-0.000024	0.279002
C42	C	2.395194	0.499976	0.779002
N43	N	1.887532	0.254842	0.007470
N44	N	2.387532	0.754842	0.507470
C45	C	1.876334	-0.000003	-0.161925
C46	C	2.376334	0.499997	0.338075
C47	C	1.879792	0.000004	-0.264057
C48	C	2.379792	0.500004	0.235943
C49	C	1.892385	-0.000022	0.361944
C50	C	2.392385	0.499978	0.861944
C51	C	1.888874	-0.000014	0.466001
C52	C	2.388874	0.499986	0.966001
C53	C	1.886088	-0.000008	0.548940
C54	C	2.386088	0.499992	1.048940
C55	C	1.882578	-0.000002	0.653003
C56	C	2.382578	0.499998	1.153003
H57	H	1.334809	0.000002	-0.104247
H58	H	1.834809	0.500002	0.395753
H59	H	1.440168	-0.000012	0.119186
H60	H	1.940168	0.499988	0.619186
