data_functionalizedCrystal
_audit_creation_method	'MofGen! by Chris Wilmer'
_symmetry_space_group_name_H-M	'P1'
_symmetry_Int_Tables_number	1
_symmetry_cell_setting	triclinic
loop_
_symmetry_equiv_pos_as_xyz
  x,y,z
_cell_length_a	10.654562
_cell_length_b	19.188930
_cell_length_c	9.130313
_cell_angle_alpha	89.993647
_cell_angle_beta	89.996930
_cell_angle_gamma	83.817442
loop_
_atom_site_label
_atom_site_type_symbol
_atom_site_fract_x
_atom_site_fract_y
_atom_site_fract_z
O1	O	1.665749	0.098101	-0.121914
O2	O	1.300075	0.107434	-0.121898
O3	O	1.493465	0.001181	-0.121878
O4	O	1.472359	0.204354	-0.121934
O5	O	1.493462	0.001184	0.121721
O6	O	1.300073	0.107437	0.121701
O7	O	1.665747	0.098104	0.121685
Cu8	Cu	1.482909	0.102771	0.143936
Cu9	Cu	1.482912	0.102767	-0.144148
O10	O	1.472357	0.204357	0.121665
C11	C	1.253291	0.106749	-0.000096
C12	C	1.113892	0.104693	-0.000088
C13	C	1.048380	0.103735	0.132686
C14	C	0.917398	0.101809	0.132662
C15	C	0.917451	0.101801	-0.132922
C16	C	1.048432	0.103722	-0.132897
C17	C	1.048348	0.103743	0.286020
C18	C	0.917366	0.101817	0.285996
C19	C	1.492780	-0.024833	-0.000074
C20	C	1.490728	-0.102351	-0.000061
C21	C	1.604203	-0.146530	-0.000059
C22	C	1.602275	-0.219366	-0.000083
C23	C	1.486867	-0.248020	-0.000079
C24	C	1.373377	-0.203832	-0.000089
C25	C	1.375308	-0.130997	-0.000080
N26	N	1.398650	-0.356604	0.082827
N27	N	1.396824	-0.425794	0.082821
C28	C	1.481043	-0.467467	-0.000108
N29	N	1.567176	-0.437337	-0.083014
N30	N	1.569007	-0.368141	-0.083002
C31	C	1.484760	-0.326997	-0.000089
C32	C	1.592435	-0.590624	-0.000134
C33	C	1.590503	-0.663462	-0.000166
C34	C	1.361602	-0.647926	-0.000157
C35	C	1.363537	-0.575090	-0.000140
C36	C	1.478957	-0.546444	-0.000121
C37	C	1.712531	0.098790	-0.000120
C38	C	1.851930	0.100845	-0.000138
C39	C	1.473042	0.230371	-0.000142
C40	C	1.475093	0.307889	-0.000164
N41	N	1.482917	0.102773	0.346558
N42	N	1.482915	0.102760	-0.346771
C43	C	1.568571	0.055740	0.423219
C44	C	1.568568	0.055732	0.576556
C45	C	1.397251	0.149795	0.576558
C46	C	1.397250	0.149799	0.423223
C47	C	1.667483	0.001435	0.423219
C48	C	1.667480	0.001427	0.576556
H49	H	1.095628	0.055494	0.344916
Br50	Br	1.095857	0.188611	0.365289
H51	H	1.758306	0.018442	0.375651
H52	H	1.638040	-0.049285	0.624119
H53	H	1.101769	0.104491	-0.241015
H54	H	1.763737	0.013392	0.618164
Br55	Br	1.216750	-0.242717	-0.000102
H56	H	1.686417	-0.567300	-0.000125
Br57	Br	0.828608	0.100472	-0.313154
H58	H	0.888855	0.050899	0.333589
Br59	Br	1.221294	-0.071035	-0.000087
Br60	Br	1.280991	0.213612	0.680611
H61	H	1.682912	-0.699432	-0.000173
H62	H	1.271133	-0.539118	-0.000133
Br63	Br	1.204972	-0.686806	-0.000166
H64	H	0.870059	0.150069	0.344848
H65	H	1.698187	-0.123211	-0.000049
Br66	Br	1.633640	-0.088005	0.353862
Br67	Br	1.756287	-0.279335	-0.000087
Br68	Br	1.280981	0.213619	0.319180
