data_functionalizedCrystal
_audit_creation_method	'MofGen! by Chris Wilmer'
_symmetry_space_group_name_H-M	'P1'
_symmetry_Int_Tables_number	1
_symmetry_cell_setting	triclinic
loop_
_symmetry_equiv_pos_as_xyz
  x,y,z
_cell_length_a	15.995350
_cell_length_b	15.995350
_cell_length_c	15.072220
_cell_angle_alpha	89.998899
_cell_angle_beta	89.991149
_cell_angle_gamma	96.507625
loop_
_atom_site_label
_atom_site_type_symbol
_atom_site_fract_x
_atom_site_fract_y
_atom_site_fract_z
O1	O	1.110996	-0.107921	-0.073703
O2	O	1.610996	0.392079	0.426297
O3	O	0.867221	-0.121249	-0.073721
O4	O	1.367221	0.378751	0.426279
O5	O	0.995772	0.007303	-0.073710
O6	O	1.495772	0.507303	0.426290
O7	O	0.982444	-0.236472	-0.073713
O8	O	1.482444	0.263528	0.426287
O9	O	0.995740	0.007296	0.073855
O10	O	1.495740	0.507296	0.573855
O11	O	0.867189	-0.121256	0.073844
O12	O	1.367189	0.378744	0.573844
O13	O	1.110964	-0.107928	0.073862
O14	O	1.610964	0.392072	0.573862
Zn15	Zn	0.989071	-0.114593	0.097283
Zn16	Zn	1.489071	0.385407	0.597283
Zn17	Zn	0.989113	-0.114584	-0.097141
Zn18	Zn	1.489113	0.385416	0.402859
O19	O	0.982413	-0.236480	0.073852
O20	O	1.482413	0.263520	0.573852
C21	C	0.836010	-0.120701	0.000060
C22	C	1.336010	0.379299	0.500060
C23	C	0.743060	-0.119049	0.000053
C24	C	1.243060	0.380951	0.500053
C25	C	0.995205	0.038494	0.000070
C26	C	1.495205	0.538494	0.500070
C27	C	0.993553	0.131444	0.000065
C28	C	1.493553	0.631444	0.500065
C29	C	0.405312	-0.113117	0.000071
C30	C	0.905312	0.386883	0.500071
C31	C	0.452746	-0.021565	0.000401
C32	C	0.952746	0.478435	0.500401
C33	C	0.549436	-0.023217	0.000063
C34	C	1.049436	0.476783	0.500063
C35	C	0.572873	-0.116060	0.000063
C36	C	1.072873	0.383940	0.500063
C37	C	0.531804	-0.161212	-0.084201
C38	C	1.031804	0.338788	0.415799
C39	C	0.435168	-0.158912	-0.084266
C40	C	0.935168	0.341088	0.415734
C41	C	0.434793	-0.160812	0.083543
C42	C	0.934793	0.339188	0.583543
C43	C	0.531738	-0.160790	0.084651
C44	C	1.031738	0.339210	0.584651
C45	C	0.667570	-0.117727	0.000055
C46	C	1.167570	0.382273	0.500055
C47	C	0.310614	-0.111452	0.000073
C48	C	0.810614	0.388548	0.500073
C49	C	1.142175	-0.108476	0.000080
C50	C	1.642175	0.391524	0.500080
C51	C	1.235125	-0.110127	0.000081
C52	C	1.735125	0.389873	0.500081
C53	C	0.982980	-0.267671	0.000069
C54	C	1.482980	0.232329	0.500069
C55	C	0.984631	-0.360621	0.000069
C56	C	1.484631	0.139379	0.500069
N57	N	0.989049	-0.114599	0.229971
N58	N	1.489049	0.385401	0.729971
C59	C	0.987621	0.469192	0.000068
C60	C	1.487621	0.969192	0.500068
C61	C	0.896069	0.421758	-0.000270
C62	C	1.396069	0.921758	0.499730
C63	C	0.897721	0.325068	0.000063
C64	C	1.397721	0.825068	0.500063
C65	C	0.990564	0.301631	0.000066
C66	C	1.490564	0.801631	0.500066
C67	C	1.035702	0.342705	0.084335
C68	C	1.535702	0.842705	0.584335
C69	C	1.033402	0.439341	0.084405
C70	C	1.533402	0.939341	0.584405
C71	C	1.035330	0.439707	-0.083404
C72	C	1.535330	0.939707	0.416596
C73	C	1.035308	0.342761	-0.084518
C74	C	1.535308	0.842761	0.415482
C75	C	0.992231	0.206934	0.000068
C76	C	1.492231	0.706934	0.500068
C77	C	0.985956	0.563890	0.000072
C78	C	1.485956	1.063890	0.500072
N79	N	0.989142	-0.114571	-0.229830
N80	N	1.489142	0.385429	0.270170
C81	C	0.989112	-0.114580	0.589173
C82	C	1.489112	0.385420	1.089173
C83	C	0.920095	-0.183135	0.551560
C84	C	1.420095	0.316865	1.051560
C85	C	0.920254	-0.183385	0.448735
C86	C	1.420254	0.316615	0.948735
C87	C	0.989080	-0.114590	0.410969
C88	C	1.489080	0.385410	0.910969
C89	C	1.076445	-0.133671	0.448266
C90	C	1.576445	0.366329	0.948266
C91	C	1.076058	-0.134159	0.551124
C92	C	1.576058	0.365841	1.051124
C93	C	0.971542	-0.026741	0.551272
C94	C	1.471542	0.473259	1.051272
C95	C	0.969537	-0.027327	0.448409
C96	C	1.469537	0.472673	0.948409
C97	C	0.989067	-0.114593	0.310255
C98	C	1.489067	0.385407	0.810255
C99	C	0.989130	-0.114579	0.689886
C100	C	1.489130	0.385421	1.189886
H101	H	0.434211	0.015027	0.060830
H102	H	0.934211	0.515027	0.560830
H103	H	0.414244	-0.130885	0.147414
H104	H	0.914244	0.369115	0.647414
H105	H	1.100617	0.471588	0.088231
H106	H	1.600617	0.971588	0.588231
H107	H	1.102831	0.471468	-0.083968
H108	H	1.602831	0.971468	0.416032
H109	H	1.002306	0.315516	-0.146857
H110	H	1.502306	0.815516	0.353143
O111	O	0.994144	0.305107	0.167400
O112	O	1.494144	0.805107	0.667400
H113	H	0.969691	0.355521	0.207058
H114	H	1.469691	0.855521	0.707058
O115	O	0.995700	0.466906	-0.168013
O116	O	1.495700	0.966906	0.331987
H117	H	0.941552	0.501748	-0.151511
H118	H	1.441552	1.001748	0.348489
O119	O	1.097440	-0.217565	0.414144
O120	O	1.597440	0.282435	0.914144
H121	H	1.156983	-0.208286	0.375739
H122	H	1.656983	0.291714	0.875739
O123	O	0.989765	0.463591	0.167836
O124	O	1.489765	0.963591	0.667836
H125	H	0.924677	0.431089	0.169305
H126	H	1.424677	0.931089	0.669305
O127	O	1.126050	0.323990	0.088507
O128	O	1.626050	0.823990	0.588507
H129	H	1.139770	0.285119	0.030426
H130	H	1.639770	0.785119	0.530426
O131	O	0.392711	-0.250219	0.084310
O132	O	0.892711	0.249781	0.584310
H133	H	0.410011	-0.282972	0.023207
H134	H	0.910011	0.217028	0.523207
H135	H	0.862238	0.296649	-0.060344
H136	H	1.362238	0.796649	0.439656
O137	O	0.587077	0.023788	0.080080
O138	O	1.087077	0.523788	0.580080
H139	H	0.572455	0.089944	0.077594
H140	H	1.072455	0.589944	0.577594
O141	O	1.096568	-0.219012	0.582897
O142	O	1.596568	0.280988	1.082897
H143	H	1.043519	-0.249259	0.623314
H144	H	1.543519	0.250741	1.123314
O145	O	0.586366	0.024113	-0.080090
O146	O	1.086366	0.524113	0.419910
H147	H	0.535152	0.048264	-0.118766
H148	H	1.035152	0.548264	0.381234
O149	O	1.124995	0.322421	-0.091262
O150	O	1.624995	0.822421	0.408738
H151	H	1.160610	0.346764	-0.031699
H152	H	1.660610	0.846764	0.468301
O153	O	0.935114	-0.269726	0.416117
O154	O	1.435114	0.230274	0.916117
H155	H	0.996746	-0.285414	0.441029
H156	H	1.496746	0.214586	0.941029
H157	H	0.433165	0.014865	-0.059694
H158	H	0.933165	0.514865	0.440306
O159	O	1.038158	0.040868	0.583528
O160	O	1.538158	0.540868	1.083528
H161	H	1.071765	0.071753	0.525715
H162	H	1.571765	0.571753	1.025715
O163	O	0.567885	-0.117129	0.167233
O164	O	1.067885	0.382871	0.667233
H165	H	0.598668	-0.162453	0.208290
H166	H	1.098668	0.337547	0.708290
H167	H	0.855314	-0.172016	0.423519
H168	H	1.355314	0.327984	0.923519
O169	O	0.552089	-0.250472	0.091407
O170	O	1.052089	0.249528	0.591407
H171	H	0.592011	-0.264629	0.034321
H172	H	1.092011	0.235371	0.534321
H173	H	0.416873	-0.125979	-0.147255
H174	H	0.916873	0.374021	0.352745
O175	O	0.934753	-0.268995	0.585779
O176	O	1.434753	0.231005	1.085779
H177	H	0.878879	-0.296180	0.624033
H178	H	1.378879	0.203820	1.124033
O179	O	0.833793	-0.168344	0.584363
O180	O	1.333793	0.331656	1.084363
H181	H	0.839163	-0.111976	0.627829
H182	H	1.339163	0.388024	1.127829
H183	H	0.560191	-0.129845	-0.146912
H184	H	1.060191	0.370155	0.353088
H185	H	1.129019	-0.086195	0.576003
H186	H	1.629019	0.413805	1.076003
O187	O	1.146107	-0.069297	0.415866
O188	O	1.646107	0.430703	0.915866
H189	H	1.119135	-0.022912	0.372728
H190	H	1.619135	0.477088	0.872728
O191	O	0.550503	-0.251566	-0.088361
O192	O	1.050503	0.248434	0.411639
H193	H	0.585317	-0.261752	-0.150420
H194	H	1.085317	0.238248	0.349580
O195	O	0.888974	-0.002439	0.585657
O196	O	1.388974	0.497561	1.085657
H197	H	0.837103	-0.050526	0.565046
H198	H	1.337103	0.449474	1.065046
O199	O	0.847607	0.446325	-0.080306
O200	O	1.347607	0.946325	0.419694
H201	H	0.880465	0.429810	-0.141642
H202	H	1.380465	0.929810	0.358358
O203	O	0.847791	0.447689	0.079330
O204	O	1.347791	0.947689	0.579330
H205	H	0.888719	0.494214	0.119133
H206	H	1.388719	0.994214	0.619133
O207	O	1.031796	0.043418	0.414361
O208	O	1.531796	0.543418	0.914361
H209	H	1.016188	0.104054	0.442043
H210	H	1.516188	0.604054	0.942043
H211	H	0.905271	-0.012846	0.424032
H212	H	1.405271	0.487154	0.924032
O213	O	0.392437	-0.247939	-0.089341
O214	O	0.892437	0.252061	0.410659
H215	H	0.411864	-0.278026	-0.151226
H216	H	0.911864	0.221974	0.348774
O217	O	0.850389	0.288144	0.080218
O218	O	1.350389	0.788144	0.580218
H219	H	0.826235	0.339360	0.118898
H220	H	1.326235	0.839360	0.618898
