data_functionalizedCrystal
_audit_creation_method	'MofGen! by Chris Wilmer'
_symmetry_space_group_name_H-M	'P1'
_symmetry_Int_Tables_number	1
_symmetry_cell_setting	triclinic
loop_
_symmetry_equiv_pos_as_xyz
  x,y,z
_cell_length_a	6.817900
_cell_length_b	12.908942
_cell_length_c	10.943624
_cell_angle_alpha	94.354559
_cell_angle_beta	108.838799
_cell_angle_gamma	100.860556
loop_
_atom_site_label
_atom_site_type_symbol
_atom_site_fract_x
_atom_site_fract_y
_atom_site_fract_z
V1	V	-4.074594	-0.145825	-0.401833
O2	O	-4.075178	0.007036	-0.394923
O3	O	-4.012338	-0.289174	-0.398374
O4	O	-4.053189	-0.143569	-0.577411
O5	O	-4.034043	-0.139576	-0.214647
V6	V	-4.556519	-0.127542	-0.379530
O7	O	-4.339357	-0.185929	-0.450756
O8	O	-4.741954	-0.087438	-0.330608
O9	O	-4.395569	0.015806	-0.382989
O10	O	-4.673333	-0.280403	-0.386441
O11	O	-4.714467	-0.133791	-0.566717
O12	O	-4.354718	-0.129798	-0.203953
C13	C	-3.853094	-0.324119	-0.391851
C14	C	-3.883659	-0.441309	-0.390194
C15	C	-3.905203	-0.138385	-0.620229
C16	C	-3.968894	-0.137490	-0.763760
C17	C	-4.306336	-0.672261	-0.399937
C18	C	-4.335064	-0.782371	-0.398379
C19	C	-3.969850	-0.771642	-0.385531
C20	C	-3.941122	-0.661532	-0.387088
C21	C	-4.109372	-0.611845	-0.394289
C22	C	-4.080637	-0.501732	-0.395837
C23	C	-3.715430	-0.491006	-0.382998
C24	C	-3.744158	-0.601116	-0.381441
C25	C	-3.815416	-0.131458	-0.840937
C26	C	-3.979664	-0.220983	-0.946486
C27	C	-3.918156	-0.046379	-0.913959
C28	C	-4.132330	-0.227099	-0.867432
C29	C	-4.070763	-0.052415	-0.834882
C30	C	-4.235141	-0.141966	-0.940401
C31	C	-4.218154	0.050746	-0.389508
C32	C	-4.166828	0.167935	-0.391175
C33	C	-4.166044	-0.134985	-0.161128
C34	C	-4.081592	-0.135876	-0.017596
H35	H	-4.217633	-0.461278	-0.401692
H36	H	-4.413204	-0.146429	-0.983624
H37	H	-3.832884	-0.812118	-0.379680
H38	H	-3.941814	-0.292248	-0.995084
O39	O	-4.469575	-0.623906	-0.406690
C40	C	-4.409800	-0.546222	-0.295722
H41	H	-4.277065	-0.566375	-0.213147
H42	H	-4.552826	-0.544910	-0.263727
H43	H	-4.351178	-0.464564	-0.320560
H44	H	-4.108530	0.018853	-0.786249
O45	O	-4.239377	-0.318285	-0.842259
C46	C	-4.177520	-0.318059	-0.706211
H47	H	-4.013837	-0.262796	-0.656387
H48	H	-4.170727	-0.402382	-0.683765
H49	H	-4.297972	-0.288819	-0.668469
O50	O	-3.524093	-0.432185	-0.377338
C51	C	-3.442496	-0.353903	-0.265562
H52	H	-3.578728	-0.337298	-0.233953
H53	H	-3.357143	-0.277417	-0.289173
H54	H	-3.325637	-0.383692	-0.183179
O55	O	-3.810767	0.044824	-0.938888
C56	C	-3.673451	0.107436	-0.820152
H57	H	-3.734008	0.084809	-0.737941
H58	H	-3.668709	0.195357	-0.828072
H59	H	-3.506603	0.092775	-0.798431
O60	O	-4.526322	-0.840981	-0.403630
C61	C	-4.576372	-0.803021	-0.295669
H62	H	-4.423859	-0.759624	-0.213873
H63	H	-4.659960	-0.873066	-0.259873
H64	H	-4.685766	-0.745681	-0.325961
O65	O	-3.603011	-0.126153	-0.789236
C66	C	-3.489859	-0.031743	-0.814233
H67	H	-3.596960	-0.003275	-0.902424
H68	H	-3.344243	-0.048037	-0.835080
H69	H	-3.436875	0.032425	-0.725410
H70	H	-3.607183	-0.641587	-0.375583
