data_functionalizedCrystal
_audit_creation_method	'MofGen! by Chris Wilmer'
_symmetry_space_group_name_H-M	'P1'
_symmetry_Int_Tables_number	1
_symmetry_cell_setting	triclinic
loop_
_symmetry_equiv_pos_as_xyz
  x,y,z
_cell_length_a	10.686285
_cell_length_b	10.685972
_cell_length_c	10.685986
_cell_angle_alpha	89.694199
_cell_angle_beta	81.587410
_cell_angle_gamma	90.336301
loop_
_atom_site_label
_atom_site_type_symbol
_atom_site_fract_x
_atom_site_fract_y
_atom_site_fract_z
Zn1	Zn	-0.293512	-1.887760	-0.835976
Zn2	Zn	0.206488	-1.387760	-0.335976
Zn3	Zn	-0.519232	-1.922267	-0.610345
Zn4	Zn	-0.019232	-1.422267	-0.110345
Zn5	Zn	-0.325724	-1.696685	-0.607851
Zn6	Zn	0.174276	-1.196685	-0.107851
Zn7	Zn	-0.521563	-1.696709	-0.803791
Zn8	Zn	-0.021563	-1.196709	-0.303791
O9	O	-0.415008	-1.800855	-0.714491
O10	O	0.084992	-1.300855	-0.214491
O11	O	-0.308999	-2.066699	-0.820559
O12	O	0.191001	-1.566699	-0.320559
O13	O	-0.506068	-1.906774	-0.433585
O14	O	-0.006068	-1.406774	0.066415
O15	O	-0.145027	-1.707580	-0.650538
O16	O	0.354973	-1.207580	-0.150538
O17	O	-0.474834	-2.092052	-0.654789
O18	O	0.025166	-1.592052	-0.154789
O19	O	-0.121362	-1.847962	-0.818141
O20	O	0.378638	-1.347962	-0.318141
O21	O	-0.363899	-1.741040	-0.431753
O22	O	0.136101	-1.241040	0.068247
O23	O	-0.366159	-1.522326	-0.619330
O24	O	0.133841	-1.022326	-0.119330
O25	O	-0.478806	-1.707620	-0.984490
O26	O	0.021194	-1.207620	-0.484490
O27	O	-0.510040	-1.522343	-0.763286
O28	O	-0.010040	-1.022343	-0.263286
O29	O	-0.311258	-1.847985	-1.008136
O30	O	0.188742	-1.347985	-0.508136
O31	O	-0.695965	-1.906797	-0.623580
O32	O	-0.195965	-1.406797	-0.123580
O33	O	-0.697677	-1.741081	-0.765704
O34	O	-0.197677	-1.241081	-0.265704
C35	C	-0.441849	-1.477124	-0.687545
C36	C	0.058151	-0.977124	-0.187545
C37	C	-0.453359	-1.338631	-0.676046
C38	C	0.046641	-0.838631	-0.176046
C39	C	-0.742561	-1.827718	-0.691451
C40	C	-0.242561	-1.327718	-0.191451
C41	C	-0.882677	-1.839320	-0.681645
C42	C	-0.382677	-1.339320	-0.181645
C43	C	-0.086171	-1.773919	-0.737652
C44	C	0.413829	-1.273919	-0.237652
C45	C	0.053960	-1.762441	-0.747522
C46	C	0.553960	-1.262441	-0.247522
C47	C	-0.391699	-1.773956	-1.043338
C48	C	0.108301	-1.273956	-0.543338
C49	C	-0.381766	-1.762493	-1.183473
C50	C	0.118234	-1.262493	-0.683473
C51	C	-0.388055	-1.125850	-0.741537
C52	C	0.111945	-0.625850	-0.241537
C53	C	-0.376549	-1.264342	-0.753049
C54	C	0.123451	-0.764342	-0.253049
C55	C	-0.438129	-1.827714	-0.386936
C56	C	0.061871	-1.327714	0.113064
C57	C	-0.447687	-1.839388	-0.246846
C58	C	0.052313	-1.339388	0.253154
H59	H	-0.301975	-1.306692	-0.827771
H60	H	0.198025	-0.806692	-0.327771
H61	H	-0.511711	-1.913994	-1.193897
H62	H	-0.011711	-1.413994	-0.693897
Cl63	Cl	-0.568492	-1.273246	-0.560657
Cl64	Cl	-0.068492	-0.773246	-0.060657
H65	H	-0.893096	-1.687745	-0.811424
H66	H	-0.393096	-1.187745	-0.311424
H67	H	-0.935631	-1.914012	-0.617730
H68	H	-0.435631	-1.414012	-0.117730
Cl69	Cl	-0.282893	-1.647311	-1.265226
Cl70	Cl	0.217107	-1.147311	-0.765226
