data_functionalizedCrystal
_audit_creation_method	'MofGen! by Chris Wilmer'
_symmetry_space_group_name_H-M	'P1'
_symmetry_Int_Tables_number	1
_symmetry_cell_setting	triclinic
loop_
_symmetry_equiv_pos_as_xyz
  x,y,z
_cell_length_a	14.519709
_cell_length_b	12.996460
_cell_length_c	9.065218
_cell_angle_alpha	90.001592
_cell_angle_beta	95.651985
_cell_angle_gamma	90.000602
loop_
_atom_site_label
_atom_site_type_symbol
_atom_site_fract_x
_atom_site_fract_y
_atom_site_fract_z
O1	O	1.225286	0.085428	-0.193384
O2	O	1.475286	0.335428	0.056616
O3	O	1.725286	0.585428	0.306616
O4	O	1.975286	0.835428	0.556616
O5	O	0.956976	0.085459	-0.216159
O6	O	1.206976	0.335459	0.033841
O7	O	1.456976	0.585459	0.283841
O8	O	1.706976	0.835459	0.533841
O9	O	1.096677	0.085441	0.009975
O10	O	1.346677	0.335441	0.259975
O11	O	1.596677	0.585441	0.509975
O12	O	1.846677	0.835441	0.759975
O13	O	1.085585	0.085447	-0.419518
O14	O	1.335585	0.335447	-0.169518
O15	O	1.585585	0.585447	0.080482
O16	O	1.835585	0.835447	0.330482
O17	O	1.096659	-0.085693	0.009962
O18	O	1.346659	0.164307	0.259962
O19	O	1.596659	0.414307	0.509962
O20	O	1.846659	0.664307	0.759962
O21	O	0.956958	-0.085674	-0.216172
O22	O	1.206958	0.164326	0.033828
O23	O	1.456958	0.414326	0.283828
O24	O	1.706958	0.664326	0.533828
O25	O	1.225268	-0.085705	-0.193397
O26	O	1.475268	0.164295	0.056603
O27	O	1.725268	0.414295	0.306603
O28	O	1.975268	0.664295	0.556603
Cu29	Cu	1.091112	-0.101316	-0.204786
Cu30	Cu	1.341112	0.148684	0.045214
Cu31	Cu	1.591112	0.398684	0.295214
Cu32	Cu	1.841112	0.648684	0.545214
Cu33	Cu	1.091133	0.101070	-0.204770
Cu34	Cu	1.341133	0.351070	0.045230
Cu35	Cu	1.591133	0.601070	0.295230
Cu36	Cu	1.841133	0.851070	0.545230
O37	O	1.085567	-0.085687	-0.419531
O38	O	1.335567	0.164313	-0.169531
O39	O	1.585567	0.414313	0.080469
O40	O	1.835567	0.664313	0.330469
C41	C	0.922600	-0.000103	-0.215104
C42	C	1.172600	0.249897	0.034896
C43	C	1.422600	0.499897	0.284896
C44	C	1.672600	0.749897	0.534896
C45	C	0.820195	-0.000092	-0.211923
C46	C	1.070195	0.249908	0.038077
C47	C	1.320195	0.499908	0.288077
C48	C	1.570195	0.749908	0.538077
C49	C	0.445214	-0.000139	-0.200214
C50	C	0.695214	0.249861	0.049786
C51	C	0.945214	0.499861	0.299786
C52	C	1.195214	0.749861	0.549786
C53	C	0.549545	-0.000125	-0.203466
C54	C	0.799545	0.249875	0.046534
C55	C	1.049545	0.499875	0.296534
C56	C	1.299545	0.749875	0.546534
C57	C	0.632701	-0.000114	-0.206068
C58	C	0.882701	0.249886	0.043932
C59	C	1.132701	0.499886	0.293932
C60	C	1.382701	0.749886	0.543932
C61	C	0.737039	-0.000103	-0.209321
C62	C	0.987039	0.249897	0.040679
C63	C	1.237039	0.499897	0.290679
C64	C	1.487039	0.749897	0.540679
N65	N	1.091103	-0.243663	-0.204796
N66	N	1.341103	0.006337	0.045204
N67	N	1.591103	0.256337	0.295204
N68	N	1.841103	0.506337	0.545204
C69	C	1.091107	-0.336769	-0.204799
C70	C	1.341107	-0.086769	0.045201
C71	C	1.591107	0.163231	0.295201
C72	C	1.841107	0.413231	0.545201
C73	C	1.091116	-0.453574	-0.204790
C74	C	1.341116	-0.203574	0.045210
C75	C	1.591116	0.046426	0.295210
C76	C	1.841116	0.296426	0.545210
C77	C	1.091127	-0.546672	-0.204773
C78	C	1.341127	-0.296672	0.045227
C79	C	1.591127	-0.046672	0.295227
C80	C	1.841127	0.203328	0.545227
C81	C	1.091137	-0.663485	-0.204765
C82	C	1.341137	-0.413485	0.045235
C83	C	1.591137	-0.163485	0.295235
C84	C	1.841137	0.086515	0.545235
C85	C	1.259645	-0.000140	-0.194452
C86	C	1.509645	0.249860	0.055548
C87	C	1.759645	0.499860	0.305548
C88	C	2.009645	0.749860	0.555548
C89	C	1.362049	-0.000145	-0.197633
C90	C	1.612049	0.249855	0.052367
C91	C	1.862049	0.499855	0.302367
C92	C	2.112049	0.749855	0.552367
C93	C	1.095602	-0.000124	0.064935
C94	C	1.345602	0.249876	0.314935
C95	C	1.595602	0.499876	0.564935
C96	C	1.845602	0.749876	0.814935
C97	C	1.092415	-0.000119	0.228718
C98	C	1.342415	0.249881	0.478718
C99	C	1.592415	0.499881	0.728718
C100	C	1.842415	0.749881	0.978718
N101	N	1.091149	0.243417	-0.204749
N102	N	1.341149	0.493417	0.045251
N103	N	1.591149	0.743417	0.295251
N104	N	1.841149	0.993417	0.545251
C105	C	1.086642	-0.000120	-0.474491
C106	C	1.336642	0.249880	-0.224491
C107	C	1.586642	0.499880	0.025509
C108	C	1.836642	0.749880	0.275509
C109	C	1.089830	-0.000118	-0.638274
C110	C	1.339830	0.249882	-0.388274
C111	C	1.589830	0.499882	-0.138274
C112	C	1.839830	0.749882	0.111726
