data_functionalizedCrystal
_audit_creation_method	'MofGen! by Chris Wilmer'
_symmetry_space_group_name_H-M	'P1'
_symmetry_Int_Tables_number	1
_symmetry_cell_setting	triclinic
loop_
_symmetry_equiv_pos_as_xyz
  x,y,z
_cell_length_a	16.120530
_cell_length_b	17.640280
_cell_length_c	17.639306
_cell_angle_alpha	92.178650
_cell_angle_beta	76.531836
_cell_angle_gamma	104.611321
loop_
_atom_site_label
_atom_site_type_symbol
_atom_site_fract_x
_atom_site_fract_y
_atom_site_fract_z
Zn1	Zn	1.464957	0.470544	-0.422237
Zn2	Zn	1.964957	0.970544	0.077763
Zn3	Zn	1.453739	0.571245	-0.269195
Zn4	Zn	1.953739	1.071245	0.230805
Zn5	Zn	1.289552	0.435152	-0.288804
Zn6	Zn	1.789552	0.935152	0.211196
Zn7	Zn	1.344761	0.590807	-0.392141
Zn8	Zn	1.844761	1.090807	0.107859
O9	O	1.388252	0.516937	-0.343094
O10	O	1.888252	1.016937	0.156906
O11	O	1.582484	0.490527	-0.406325
O12	O	2.082484	0.990527	0.093675
O13	O	1.404159	0.530194	-0.164500
O14	O	1.904159	1.030194	0.335500
O15	O	1.294410	0.332562	-0.327306
O16	O	1.794410	0.832562	0.172694
O17	O	1.574242	0.564511	-0.293885
O18	O	2.074242	1.064511	0.206115
O19	O	1.423279	0.358564	-0.425339
O20	O	1.923279	0.858564	0.074661
O21	O	1.283532	0.430207	-0.178907
O22	O	1.783532	0.930207	0.321093
O23	O	1.177861	0.449175	-0.298123
O24	O	1.677861	0.949175	0.201877
O25	O	1.388506	0.597852	-0.503429
O26	O	1.888506	1.097852	-0.003429
O27	O	1.218423	0.563534	-0.374044
O28	O	1.718423	1.063534	0.125956
O29	O	1.476813	0.509495	-0.525540
O30	O	1.976813	1.009495	-0.025540
O31	O	1.457693	0.681125	-0.264702
O32	O	1.957693	1.181125	0.235298
O33	O	1.377627	0.695497	-0.355030
O34	O	1.877627	1.195497	0.144970
C35	C	1.422461	0.716134	-0.304490
C36	C	1.922461	1.216134	0.195510
C37	C	1.437180	0.801361	-0.288003
C38	C	1.937180	1.301361	0.211997
C39	C	1.167283	0.504637	-0.334946
C40	C	1.667283	1.004637	0.165054
C41	C	1.072759	0.499398	-0.331474
C42	C	1.572759	0.999398	0.168526
C43	C	1.440069	0.559803	-0.543083
C44	C	1.940069	1.059803	-0.043083
C45	C	1.462150	0.578070	-0.628306
C46	C	1.962150	1.078070	-0.128306
C47	C	0.899703	0.489816	-0.325146
C48	C	1.399703	0.989816	0.174854
C49	C	0.877666	0.544126	-0.361087
C50	C	1.377666	1.044126	0.138913
C51	C	0.781372	0.538795	-0.357566
C52	C	1.281372	1.038795	0.142434
C53	C	0.996005	0.495146	-0.328666
C54	C	1.496005	0.995146	0.171334
C55	C	1.610085	0.529285	-0.351275
C56	C	2.110085	1.029285	0.148725
C57	C	1.704617	0.534547	-0.354761
C58	C	2.204617	1.034547	0.145239
C59	C	1.353938	0.316967	-0.381867
C60	C	1.853938	0.816967	0.118133
C61	C	1.339315	0.231751	-0.398389
C62	C	1.839315	0.731751	0.101611
C63	C	1.276855	1.119140	-0.468632
C64	C	1.776855	1.619140	0.031368
C65	C	1.290681	1.199218	-0.453116
C66	C	1.790681	1.699218	0.046884
C67	C	1.374146	1.184213	-0.359159
C68	C	1.874146	1.684213	0.140841
C69	C	1.360331	1.104132	-0.374670
C70	C	1.860331	1.604132	0.125330
C71	C	1.311684	1.071602	-0.429407
C72	C	1.811684	1.571602	0.070593
C73	C	1.395159	1.056593	-0.335445
C74	C	1.895159	1.556593	0.164555
C75	C	1.381341	0.976519	-0.350952
C76	C	1.881341	1.476519	0.149048
C77	C	1.332694	0.943982	-0.405684
C78	C	1.832694	1.443982	0.094316
C79	C	1.297865	0.991527	-0.444913
C80	C	1.797865	1.491527	0.055087
C81	C	1.443801	1.089124	-0.280704
C82	C	1.943801	1.589124	0.219296
C83	C	1.478630	1.041586	-0.241479
C84	C	1.978630	1.541586	0.258521
C85	C	1.464817	0.961511	-0.256990
C86	C	1.964817	1.461511	0.243010
C87	C	1.416170	0.928974	-0.311722
C88	C	1.916170	1.428974	0.188278
C89	C	1.499646	0.913966	-0.217760
C90	C	1.999646	1.413966	0.282240
C91	C	1.485827	0.833891	-0.233267
C92	C	1.985827	1.333891	0.266733
C93	C	1.402351	0.848899	-0.327229
C94	C	1.902351	1.348899	0.172771
C95	C	1.220785	0.377896	-0.946117
C96	C	1.720785	0.877896	-0.446117
C97	C	1.241556	0.395078	-1.026195
C98	C	1.741556	0.895078	-0.526195
C99	C	1.367152	0.499183	-1.011175
C100	C	1.867152	0.999183	-0.511175
C101	C	1.346394	0.482007	-0.931095
C102	C	1.846394	0.982007	-0.431095
C103	C	1.273209	0.421363	-0.898572
C104	C	1.773209	0.921363	-0.398572
C105	C	1.398818	0.525475	-0.883550
C106	C	1.898818	1.025475	-0.383550
C107	C	1.378059	0.508303	-0.803476
C108	C	1.878059	1.008303	-0.303476
C109	C	1.304876	0.447663	-0.770947
C110	C	1.804876	0.947663	-0.270947
C111	C	1.252450	0.404192	-0.818499
C112	C	1.752450	0.904192	-0.318499
C113	C	1.471999	0.586122	-0.916073
C114	C	1.971999	1.086122	-0.416073
C115	C	1.524423	0.629590	-0.868528
C116	C	2.024423	1.129590	-0.368528
C117	C	1.503668	0.612414	-0.788454
C118	C	2.003668	1.112414	-0.288454
C119	C	1.430485	0.551775	-0.755925
C120	C	1.930485	1.051775	-0.255925
C121	C	1.556094	0.655886	-0.740903
C122	C	2.056094	1.155886	-0.240903
C123	C	1.535335	0.638714	-0.660829
C124	C	2.035335	1.138714	-0.160829
C125	C	1.409726	0.534603	-0.675851
C126	C	1.909726	1.034603	-0.175851
C127	C	1.336677	0.474185	-0.143896
C128	C	1.836677	0.974185	0.356104
C129	C	1.314723	0.455711	-0.058721
C130	C	1.814723	0.955711	0.441279
H131	H	0.931118	0.594626	-0.394502
H132	H	1.431118	1.094626	0.105498
Cl133	Cl	0.817181	0.411852	-0.273559
Cl134	Cl	1.317181	0.911852	0.226441
H135	H	1.362745	0.822414	-0.371807
H136	H	1.862745	1.322414	0.128193
Cl137	Cl	1.278772	0.426080	-0.670280
Cl138	Cl	1.778772	0.926080	-0.170280
H139	H	1.192863	0.354802	-0.792019
H140	H	1.692863	0.854802	-0.292019
H141	H	1.321436	0.878778	-0.418303
H142	H	1.821436	1.378778	0.081697
Cl143	Cl	1.236717	0.950628	-0.513734
Cl144	Cl	1.736717	1.450628	-0.013734
Cl145	Cl	1.128787	0.301649	-0.905227
Cl146	Cl	1.628787	0.801649	-0.405227
H147	H	1.237249	1.092655	-0.513210
H148	H	1.737249	1.592655	-0.013210
H149	H	1.413752	1.210709	-0.314591
H150	H	1.913752	1.710709	0.185409
Cl151	Cl	1.529602	0.774123	-0.183947
Cl152	Cl	2.029602	1.274123	0.316053
Cl153	Cl	1.246878	1.258977	-0.502425
Cl154	Cl	1.746878	1.758977	-0.002425
Cl155	Cl	1.461211	1.189798	-0.261239
Cl156	Cl	1.961211	1.689798	0.238761
Cl157	Cl	1.560792	0.954869	-0.148946
Cl158	Cl	2.060792	1.454869	0.351054
H159	H	1.518235	1.068082	-0.196910
H160	H	2.018235	1.568082	0.303090
Cl161	Cl	1.317728	0.458356	-0.634961
Cl162	Cl	1.817728	0.958356	-0.134961
H163	H	1.198863	0.359674	-1.064905
H164	H	1.698863	0.859674	-0.564905
Cl165	Cl	1.459149	0.575421	-1.052068
Cl166	Cl	1.959149	1.075421	-0.552068
Cl167	Cl	1.498098	0.607707	-1.016740
Cl168	Cl	1.998098	1.107707	-0.516740
Cl169	Cl	1.616421	0.705827	-0.909421
Cl170	Cl	2.116421	1.205827	-0.409421
Cl171	Cl	1.648085	0.732129	-0.781796
Cl172	Cl	2.148085	1.232129	-0.281796
H173	H	1.578034	0.674100	-0.622119
H174	H	2.078034	1.174100	-0.122119
