data_functionalizedCrystal
_audit_creation_method	'MofGen! by Chris Wilmer'
_symmetry_space_group_name_H-M	'P1'
_symmetry_Int_Tables_number	1
_symmetry_cell_setting	triclinic
loop_
_symmetry_equiv_pos_as_xyz
  x,y,z
_cell_length_a	14.853569
_cell_length_b	15.995362
_cell_length_c	14.472311
_cell_angle_alpha	90.005124
_cell_angle_beta	90.006783
_cell_angle_gamma	96.433528
loop_
_atom_site_label
_atom_site_type_symbol
_atom_site_fract_x
_atom_site_fract_y
_atom_site_fract_z
O1	O	1.196209	-0.109331	-0.076787
O2	O	0.933732	-0.122352	-0.076797
O3	O	1.072140	0.006037	-0.076798
O4	O	1.057801	-0.237720	-0.076786
O5	O	1.072154	0.006057	0.076884
O6	O	0.933747	-0.122332	0.076885
O7	O	1.196223	-0.109311	0.076895
Cu8	Cu	1.064986	-0.115819	0.090922
Cu9	Cu	1.064969	-0.115844	-0.090825
O10	O	1.057816	-0.237700	0.076896
C11	C	0.900152	-0.121752	0.000042
C12	C	0.800070	-0.119983	0.000038
C13	C	0.763794	-0.042887	0.000031
C14	C	0.742306	-0.195417	0.000049
C15	C	0.648274	-0.193758	0.000050
C16	C	0.611998	-0.116662	0.000043
C17	C	0.669754	-0.041226	0.000035
C18	C	0.590512	-0.269193	0.000068
C19	C	0.496473	-0.267537	0.000070
C20	C	0.460195	-0.190440	0.000056
C21	C	0.517957	-0.115001	0.000047
C22	C	0.481681	-0.037905	0.000039
C23	C	0.539441	0.037536	0.000024
C24	C	0.633476	0.035871	0.000021
C25	C	0.366161	-0.188776	0.000059
C26	C	0.387641	-0.036243	0.000043
C27	C	1.071552	0.037242	0.000039
C28	C	1.069769	0.130194	0.000028
C29	C	1.063366	0.467947	0.000010
C30	C	0.964793	0.420629	-0.000336
C31	C	0.966576	0.323937	0.000017
C32	C	1.066542	0.300384	0.000018
C33	C	1.115169	0.341416	0.087776
C34	C	1.112688	0.438054	0.087844
C35	C	1.114708	0.438387	-0.086921
C36	C	1.114689	0.341442	-0.088075
C37	C	1.068342	0.205685	0.000026
C38	C	1.061569	0.562647	0.000009
C39	C	1.229804	-0.109911	0.000053
C40	C	1.329885	-0.111680	0.000051
C41	C	1.058391	0.731093	0.000041
C42	C	1.060139	0.638137	0.000001
N43	N	1.064958	-0.115855	-0.218655
C44	C	1.064974	-0.115837	-0.407156
C45	C	0.990775	-0.184391	-0.446385
C46	C	0.990974	-0.184625	-0.553473
C47	C	1.064988	-0.115819	-0.592747
C48	C	1.159093	-0.134882	-0.553858
C49	C	1.158649	-0.135385	-0.446736
C50	C	1.045918	-0.028011	-0.446614
C51	C	1.043788	-0.028582	-0.553743
C52	C	1.065003	-0.115808	-0.697635
C53	C	1.064966	-0.115850	-0.302268
N54	N	1.065005	-0.115801	0.218753
H55	H	0.928352	0.295551	-0.062892
H56	H	0.810826	0.018534	0.000014
C57	C	0.911548	0.445723	-0.085353
N58	N	0.871443	0.464633	-0.149388
C59	C	0.782214	-0.280218	0.000063
N60	N	0.812276	-0.344093	0.000072
C61	C	0.630421	-0.353992	0.000084
N62	N	0.660486	-0.417866	0.000095
C63	C	1.119012	0.040910	-0.412330
N64	N	1.174067	0.092815	-0.386501
H65	H	0.449452	-0.328965	0.000081
C66	C	0.950263	-0.009039	-0.588079
N67	N	0.879819	0.005678	-0.613944
H68	H	0.680512	0.097290	0.000010
C69	C	0.302630	-0.271755	0.000075
N70	N	0.254779	-0.334259	0.000084
H71	H	0.925573	0.440277	0.062244
C72	C	0.914609	0.286362	0.085152
N73	N	0.875467	0.258061	0.149280
C74	C	1.066704	0.304627	-0.175784
N75	N	1.030553	0.276900	-0.241845
H76	H	1.077239	0.456406	0.153445
C77	C	1.069554	0.303147	0.176009
N78	N	1.035190	0.274324	0.242463
C79	C	1.210457	0.481508	0.093235
N80	N	1.284094	0.514234	0.097302
H81	H	1.188612	0.327205	0.091041
H82	H	1.082472	0.458955	-0.153440
H83	H	1.215598	-0.087423	-0.420783
C84	C	1.112074	0.043574	-0.589833
N85	N	1.163519	0.097920	-0.617007
H86	H	1.187588	0.325994	-0.093373
C87	C	0.499525	0.122338	0.000018
N88	N	0.469456	0.186210	0.000014
C89	C	1.212890	0.481184	-0.087725
N90	N	1.286837	0.513424	-0.088324
H91	H	1.175422	-0.199434	-0.421768
C92	C	0.896475	-0.169300	-0.589000
N93	N	0.825293	-0.157762	-0.615753
H94	H	0.920590	-0.173230	-0.420637
C95	C	1.235497	-0.069213	-0.588221
N96	N	1.293044	-0.019751	-0.614106
H97	H	1.002791	-0.249198	-0.419486
C98	C	1.182303	-0.220420	-0.590109
N99	N	1.199777	-0.284851	-0.617410
C100	C	0.347745	0.048570	0.000038
N101	N	0.317697	0.112451	0.000037
H102	H	1.003171	-0.249792	-0.579118
H103	H	0.978765	-0.009685	-0.419583
