data_functionalizedCrystal
_audit_creation_method	'MofGen! by Chris Wilmer'
_symmetry_space_group_name_H-M	'P1'
_symmetry_Int_Tables_number	1
_symmetry_cell_setting	triclinic
loop_
_symmetry_equiv_pos_as_xyz
  x,y,z
_cell_length_a	6.817900
_cell_length_b	15.300992
_cell_length_c	10.943624
_cell_angle_alpha	93.526390
_cell_angle_beta	108.838799
_cell_angle_gamma	104.175078
loop_
_atom_site_label
_atom_site_type_symbol
_atom_site_fract_x
_atom_site_fract_y
_atom_site_fract_z
V1	V	-4.091696	-0.124734	-0.402940
O2	O	-4.074352	0.006018	-0.394869
O3	O	-4.046252	-0.247351	-0.400569
O4	O	-4.070027	-0.122805	-0.578500
O5	O	-4.050413	-0.119390	-0.215706
V6	V	-4.571477	-0.109096	-0.380498
O7	O	-4.361162	-0.159038	-0.452167
O8	O	-4.752209	-0.074792	-0.331271
O9	O	-4.393715	0.013520	-0.382869
O10	O	-4.706218	-0.239849	-0.388569
O11	O	-4.730158	-0.114441	-0.567732
O12	O	-4.369940	-0.111026	-0.204938
C13	C	-3.891107	-0.277242	-0.394312
C14	C	-3.935415	-0.377483	-0.393543
C15	C	-3.897582	-0.411706	-0.274909
C16	C	-3.939236	-0.505893	-0.274191
C17	C	-4.018708	-0.565856	-0.392109
C18	C	-4.056548	-0.531628	-0.510753
C19	C	-4.014909	-0.437442	-0.511470
C20	C	-4.143328	-0.727939	-0.509251
C21	C	-4.184966	-0.822131	-0.508535
C22	C	-4.067654	-0.796390	-0.271972
C23	C	-4.026015	-0.702204	-0.272689
C24	C	-4.063855	-0.667983	-0.391333
C25	C	-3.921433	-0.118371	-0.621279
C26	C	-3.985019	-0.117605	-0.764803
C27	C	-3.830833	-0.112446	-0.841935
C28	C	-4.005581	-0.189023	-0.948163
C29	C	-3.923595	-0.039671	-0.914311
C30	C	-4.158964	-0.194254	-0.869156
C31	C	-4.076911	-0.044834	-0.835280
C32	C	-4.251791	-0.121433	-0.941479
C33	C	-4.212202	0.043407	-0.389123
C34	C	-4.147133	0.143647	-0.389900
C35	C	-4.181875	-0.115463	-0.162152
C36	C	-4.097528	-0.116224	-0.018627
H37	H	-4.121272	-0.580457	-0.606764
Cl38	Cl	-4.062486	-0.394420	-0.660617
H39	H	-4.174177	-0.700080	-0.605865
Cl40	Cl	-4.527510	-0.127324	-1.008268
Cl41	Cl	-3.926090	-0.626823	-0.124446
H42	H	-4.249673	-0.870951	-0.604554
Cl43	Cl	-3.555253	-0.106734	-0.774826
Cl44	Cl	-3.960054	-0.283136	-1.024035
H45	H	-4.257868	-0.259656	-0.848815
Cl46	Cl	-3.797660	-0.336332	-0.126659
Cl47	Cl	-4.122310	0.049285	-0.759350
H48	H	-3.824708	0.025644	-0.934870
Cl49	Cl	-4.020072	-0.839410	-0.122819
Cl50	Cl	-3.891691	-0.548912	-0.125044
