data_functionalizedCrystal
_audit_creation_method	'MofGen! by Chris Wilmer'
_symmetry_space_group_name_H-M	'P1'
_symmetry_Int_Tables_number	1
_symmetry_cell_setting	triclinic
loop_
_symmetry_equiv_pos_as_xyz
  x,y,z
_cell_length_a	17.640112
_cell_length_b	16.625546
_cell_length_c	16.625548
_cell_angle_alpha	90.011514
_cell_angle_beta	78.812981
_cell_angle_gamma	101.247770
loop_
_atom_site_label
_atom_site_type_symbol
_atom_site_fract_x
_atom_site_fract_y
_atom_site_fract_z
Zn1	Zn	1.208279	-0.071624	0.207119
Zn2	Zn	1.541613	0.261709	0.540452
Zn3	Zn	1.874946	0.595042	0.873786
Zn4	Zn	1.208221	-0.206435	0.072293
Zn5	Zn	1.541554	0.126898	0.405627
Zn6	Zn	1.874888	0.460232	0.738960
Zn7	Zn	1.076133	-0.098898	0.099508
Zn8	Zn	1.409467	0.234435	0.432841
Zn9	Zn	1.742800	0.567769	0.766175
Zn10	Zn	1.076068	-0.233722	0.234293
Zn11	Zn	1.409401	0.099611	0.567626
Zn12	Zn	1.742735	0.432945	0.900960
O13	O	1.142175	-0.152670	0.153303
O14	O	1.475509	0.180664	0.486637
O15	O	1.808842	0.513997	0.819970
O16	O	1.318882	-0.066673	0.166473
O17	O	1.652215	0.266660	0.499806
O18	O	1.985549	0.599993	0.833139
O19	O	1.190702	-0.192164	-0.036929
O20	O	1.524036	0.141169	0.296404
O21	O	1.857369	0.474502	0.629737
O22	O	1.093715	0.017563	0.113800
O23	O	1.427048	0.350896	0.447133
O24	O	1.760381	0.684230	0.780466
O25	O	1.318839	-0.165718	0.067417
O26	O	1.652172	0.167615	0.400750
O27	O	1.985506	0.500949	0.734083
O28	O	1.190802	0.037601	0.192861
O29	O	1.524135	0.370934	0.526195
O30	O	1.857468	0.704268	0.859528
O31	O	1.093658	-0.113157	-0.016935
O32	O	1.426991	0.220176	0.316398
O33	O	1.760325	0.553509	0.649731
O34	O	0.965515	-0.139616	0.140149
O35	O	1.298848	0.193717	0.473482
O36	O	1.632181	0.527050	0.806816
O37	O	1.093603	-0.212225	0.343521
O38	O	1.426936	0.121108	0.676855
O39	O	1.760270	0.454442	1.010188
O40	O	0.965466	-0.238671	0.239175
O41	O	1.298800	0.094662	0.572508
O42	O	1.632133	0.427995	0.905842
O43	O	1.190738	-0.093132	0.323557
O44	O	1.524072	0.240201	0.656890
O45	O	1.857405	0.573534	0.990223
O46	O	1.190639	-0.322898	0.093766
O47	O	1.523972	0.010436	0.427099
O48	O	1.857305	0.343769	0.760433
O49	O	1.093546	-0.342945	0.212786
O50	O	1.426880	-0.009612	0.546120
O51	O	1.760213	0.323721	0.879453
C52	C	0.936811	-0.195065	0.195564
C53	C	1.270144	0.138268	0.528898
C54	C	1.603477	0.471602	0.862231
C55	C	0.848954	-0.213221	0.213663
C56	C	1.182288	0.120112	0.546996
C57	C	1.515621	0.453445	0.880330
C58	C	0.560023	-0.014724	0.015817
C59	C	0.893356	0.318609	0.349150
C60	C	1.226689	0.651942	0.682484
C61	C	0.477468	-0.031801	0.032834
C62	C	0.810802	0.301532	0.366168
C63	C	1.144135	0.634865	0.699501
C64	C	0.477473	-0.135089	0.135772
C65	C	0.810806	0.198245	0.469106
C66	C	1.144139	0.531578	0.802439
C67	C	0.560029	-0.118018	0.118766
C68	C	0.893362	0.215316	0.452100
C69	C	1.226695	0.548649	0.785433
C70	C	0.601297	-0.057835	0.058787
C71	C	0.934630	0.275498	0.392121
C72	C	1.267964	0.608831	0.725454
C73	C	0.601303	-0.161129	0.161737
C74	C	0.934636	0.172205	0.495070
C75	C	1.267970	0.505538	0.828403
C76	C	0.683851	-0.144062	0.144729
C77	C	1.017185	0.189272	0.478062
C78	C	1.350518	0.522605	0.811396
C79	C	0.725126	-0.083884	0.084751
C80	C	1.058459	0.249449	0.418084
C81	C	1.391792	0.582783	0.751418
C82	C	0.683846	-0.040768	0.041780
C83	C	1.017179	0.292565	0.375113
C84	C	1.350512	0.625898	0.708446
C85	C	0.560033	-0.221315	0.221711
C86	C	0.893366	0.112018	0.555045
C87	C	1.226700	0.445352	0.888378
C88	C	0.601307	-0.264426	0.264682
C89	C	0.934641	0.068907	0.598015
C90	C	1.267974	0.402241	0.931348
C91	C	0.683857	-0.247355	0.247678
C92	C	1.017191	0.085978	0.581012
C93	C	1.350524	0.419312	0.914345
C94	C	0.725132	-0.187177	0.187700
C95	C	1.058465	0.146156	0.521034
C96	C	1.391798	0.479489	0.854367
C97	C	0.725137	-0.290471	0.290650
C98	C	1.058471	0.042863	0.623983
C99	C	1.391804	0.376196	0.957316
C100	C	0.807686	-0.273404	0.273642
C101	C	1.141019	0.059930	0.606975
C102	C	1.474353	0.393263	0.940309
C103	C	0.807680	-0.170110	0.170693
C104	C	1.141013	0.163223	0.504026
C105	C	1.474347	0.496556	0.837359
C106	C	1.142101	-0.362176	0.153285
C107	C	1.475434	-0.028843	0.486618
C108	C	1.808767	0.304491	0.819952
C109	C	1.142141	-0.451789	0.153289
C110	C	1.475474	-0.118456	0.486623
C111	C	1.808808	0.214878	0.819956
C112	C	1.142279	-0.779936	0.153345
C113	C	1.475612	-0.446603	0.486678
C114	C	1.808945	-0.113269	0.820011
C115	C	1.142238	-0.688636	0.153332
C116	C	1.475571	-0.355303	0.486665
C117	C	1.808905	-0.021969	0.819999
C118	C	1.142209	-0.615865	0.153317
C119	C	1.475543	-0.282532	0.486650
C120	C	1.808876	0.050801	0.819983
C121	C	1.142170	-0.524559	0.153305
C122	C	1.475503	-0.191226	0.486638
C123	C	1.808836	0.142107	0.819971
C124	C	1.348342	-0.110110	0.110878
C125	C	1.681676	0.223224	0.444211
C126	C	2.015009	0.556557	0.777544
C127	C	1.436198	-0.091973	0.092799
C128	C	1.769532	0.241360	0.426132
C129	C	2.102865	0.574694	0.759465
C130	C	1.142170	-0.152680	0.363613
C131	C	1.475503	0.180653	0.696947
C132	C	1.808837	0.513987	1.030280
C133	C	1.142168	-0.152685	0.453235
C134	C	1.475501	0.180649	0.786568
C135	C	1.808834	0.513982	1.119902
C136	C	1.142272	0.057659	0.153335
C137	C	1.475605	0.390992	0.486668
C138	C	1.808939	0.724326	0.820002
C139	C	1.142313	0.147289	0.153348
C140	C	1.475647	0.480622	0.486682
C141	C	1.808980	0.813955	0.820015
C142	C	1.142165	-0.152689	0.526018
C143	C	1.475498	0.180644	0.859351
C144	C	1.808832	0.513978	1.192685
C145	C	1.142164	-0.152686	0.617326
C146	C	1.475498	0.180647	0.950660
C147	C	1.808831	0.513980	1.283993
C148	C	1.142168	-0.152679	0.690102
C149	C	1.475501	0.180655	1.023436
C150	C	1.808834	0.513988	1.356769
C151	C	1.142168	-0.152677	0.781416
C152	C	1.475501	0.180657	1.114750
C153	C	1.808835	0.513990	1.448083
C154	C	1.142174	-0.152677	0.943813
C155	C	1.475507	0.180656	1.277146
C156	C	1.808840	0.513989	1.610480
C157	C	1.142171	-0.152669	0.854192
C158	C	1.475505	0.180664	1.187526
C159	C	1.808838	0.513997	1.520859
H160	H	0.691524	-0.339477	0.339479
H161	H	1.024858	-0.006143	0.672812
H162	H	1.358191	0.327190	1.006145
H163	H	0.492817	-0.235209	0.235557
H164	H	0.826150	0.098125	0.568890
H165	H	1.159483	0.431458	0.902224
H166	H	0.841292	-0.308508	0.308634
H167	H	1.174626	0.024825	0.641967
H168	H	1.507959	0.358158	0.975300
H169	H	0.841283	-0.121092	0.121864
H170	H	1.174617	0.212242	0.455197
H171	H	1.507950	0.545575	0.788530
H172	H	0.593626	0.034294	-0.033012
H173	H	0.926959	0.367628	0.300322
H174	H	1.260292	0.700961	0.633655
F175	F	0.433544	0.014084	-0.012910
F176	F	0.766877	0.347417	0.320423
F177	F	1.100211	0.680750	0.653757
F178	F	0.433543	-0.199145	0.199596
F179	F	0.766877	0.134188	0.532929
F180	F	1.100210	0.467521	0.866263
F181	F	0.557378	-0.328482	0.328505
F182	F	0.890711	0.004851	0.661839
F183	F	1.224045	0.338184	0.995172
H184	H	0.717449	0.008250	-0.007049
H185	H	1.050782	0.341583	0.326284
H186	H	1.384115	0.674917	0.659617
F187	F	0.812982	-0.065723	0.066646
F188	F	1.146316	0.267610	0.399979
F189	F	1.479649	0.600943	0.733312
