data_functionalizedCrystal
_audit_creation_method	'MofGen! by Chris Wilmer'
_symmetry_space_group_name_H-M	'P1'
_symmetry_Int_Tables_number	1
_symmetry_cell_setting	triclinic
loop_
_symmetry_equiv_pos_as_xyz
  x,y,z
_cell_length_a	16.120490
_cell_length_b	18.050589
_cell_length_c	16.120297
_cell_angle_alpha	92.875657
_cell_angle_beta	90.129683
_cell_angle_gamma	87.120764
loop_
_atom_site_label
_atom_site_type_symbol
_atom_site_fract_x
_atom_site_fract_y
_atom_site_fract_z
Zn1	Zn	1.247411	-0.376308	-0.534557
Zn2	Zn	1.254350	-0.494533	-0.395506
Zn3	Zn	1.115402	-0.363752	-0.388477
Zn4	Zn	1.108306	-0.493842	-0.527479
O5	O	1.181367	-0.432109	-0.461505
O6	O	1.364698	-0.397535	-0.522015
O7	O	1.241792	-0.472219	-0.278208
O8	O	1.132978	-0.261497	-0.407876
O9	O	1.369796	-0.484394	-0.419855
O10	O	1.229965	-0.270722	-0.515200
O11	O	1.139707	-0.376135	-0.273044
O12	O	0.998094	-0.375465	-0.401013
O13	O	1.120885	-0.483217	-0.644784
O14	O	0.992881	-0.471042	-0.503136
O15	O	1.223085	-0.396865	-0.649984
O16	O	1.234912	-0.598362	-0.412992
O17	O	1.127614	-0.597855	-0.509952
C18	C	0.965315	-0.421817	-0.450544
C19	C	0.872886	-0.417432	-0.445875
C20	C	1.181268	-0.625056	-0.461486
C21	C	1.181300	-0.707604	-0.461510
C22	C	0.659921	-0.454846	-0.485727
C23	C	0.703662	-0.409434	-0.437349
C24	C	0.797827	-0.413886	-0.442094
C25	C	0.565747	-0.450396	-0.480982
C26	C	1.123007	-0.906807	-0.514220
C27	C	1.106583	-0.952029	-0.437314
C28	C	1.181381	-0.858739	-0.461525
C29	C	1.197844	-0.960602	-0.538441
C30	C	1.181457	-1.004728	-0.461546
C31	C	1.164920	-0.902869	-0.384577
C32	C	1.256213	-0.911442	-0.485756
C33	C	1.239822	-0.956640	-0.408800
C34	C	1.181335	-0.774638	-0.461513
C35	C	1.181504	-1.088827	-0.461548
C36	C	1.398263	-0.442442	-0.472509
C37	C	1.490691	-0.446846	-0.477198
C38	C	1.170419	-0.441364	-0.678400
C39	C	1.165754	-0.445308	-0.770828
C40	C	1.181489	-0.238411	-0.461543
C41	C	1.181541	-0.155868	-0.461560
C42	C	1.157205	-0.452491	-0.940053
C43	C	1.205693	-0.411512	-0.983817
C44	C	1.200937	-0.415509	-1.077980
C45	C	1.161961	-0.448495	-0.845882
C46	C	1.192321	-0.422839	-0.245456
C47	C	1.197147	-0.418693	-0.153037
H48	H	0.670390	-0.367213	-0.392367
N49	N	0.703984	-0.510781	-0.545297
H50	H	0.685946	-0.501178	-0.603995
H51	H	0.765969	-0.506045	-0.540206
H52	H	1.250776	-0.373427	-0.950566
N53	N	1.097486	-0.502926	-0.984101
H54	H	1.129475	-0.540445	-1.021861
H55	H	1.065793	-0.529672	-0.941733
H56	H	1.319445	-0.893452	-0.506269
N57	N	1.057543	-0.877816	-0.573160
H58	H	1.027510	-0.920781	-0.599516
H59	H	1.016528	-0.843001	-0.541509
N60	N	1.022799	-0.975831	-0.410170
H61	H	0.998235	-1.008356	-0.455749
H62	H	1.029524	-1.004559	-0.358201
N63	N	1.146421	-0.869586	-0.298394
H64	H	1.146482	-0.813661	-0.298923
H65	H	1.090128	-0.884724	-0.280034
H66	H	1.289223	-0.978374	-0.364192
H67	H	1.211739	-0.985821	-0.603479
