data_functionalizedCrystal
_audit_creation_method	'MofGen! by Chris Wilmer'
_symmetry_space_group_name_H-M	'P1'
_symmetry_Int_Tables_number	1
_symmetry_cell_setting	triclinic
loop_
_symmetry_equiv_pos_as_xyz
  x,y,z
_cell_length_a	16.956995
_cell_length_b	16.053802
_cell_length_c	16.109298
_cell_angle_alpha	87.429843
_cell_angle_beta	79.757330
_cell_angle_gamma	92.392061
loop_
_atom_site_label
_atom_site_type_symbol
_atom_site_fract_x
_atom_site_fract_y
_atom_site_fract_z
O1	O	1.061395	0.069484	0.030724
O2	O	1.394729	0.402817	0.364057
O3	O	1.728062	0.736151	0.697390
O4	O	0.829230	0.069470	0.059913
O5	O	1.162563	0.402804	0.393246
O6	O	1.495896	0.736137	0.726579
O7	O	0.951692	0.069483	-0.076150
O8	O	1.285025	0.402817	0.257183
O9	O	1.618358	0.736150	0.590517
O10	O	0.938933	0.069471	0.166786
O11	O	1.272266	0.402804	0.500120
O12	O	1.605600	0.736137	0.833453
O13	O	0.944951	-0.069376	-0.068690
O14	O	1.278285	0.263957	0.264644
O15	O	1.611618	0.597290	0.597977
O16	O	0.822489	-0.069389	0.067373
O17	O	1.155822	0.263944	0.400706
O18	O	1.489156	0.597277	0.734040
O19	O	1.054655	-0.069376	0.038184
O20	O	1.387988	0.263958	0.371517
O21	O	1.721321	0.597291	0.704851
Zn22	Zn	0.937502	-0.091430	0.053963
Zn23	Zn	1.270835	0.241904	0.387296
Zn24	Zn	1.604168	0.575237	0.720630
Zn25	Zn	0.946383	0.091524	0.044134
Zn26	Zn	1.279716	0.424857	0.377467
Zn27	Zn	1.613049	0.758191	0.710800
O28	O	0.932192	-0.069389	0.174247
O29	O	1.265526	0.263944	0.507580
O30	O	1.598859	0.597278	0.840913
C31	C	0.796151	0.000039	0.065137
C32	C	1.129484	0.333372	0.398471
C33	C	1.462817	0.666705	0.731804
C34	C	0.707629	0.000034	0.069581
C35	C	1.040962	0.333367	0.402914
C36	C	1.374295	0.666701	0.736247
N37	N	0.931446	-0.216291	0.060670
N38	N	1.264780	0.117043	0.394004
N39	N	1.598113	0.450376	0.727337
C40	C	0.208321	0.000063	0.102818
C41	C	0.541654	0.333397	0.436152
C42	C	0.874988	0.666730	0.769485
C43	C	0.291497	0.000063	0.098637
C44	C	0.624831	0.333396	0.431970
C45	C	0.958164	0.666730	0.765304
C46	C	0.342607	0.000061	0.020153
C47	C	0.675940	0.333394	0.353486
C48	C	1.009273	0.666727	0.686819
C49	C	0.310536	0.000067	-0.054156
C50	C	0.643870	0.333401	0.279178
C51	C	0.977203	0.666734	0.612511
C52	C	0.227362	0.000074	-0.049974
C53	C	0.560695	0.333407	0.283359
C54	C	0.894029	0.666741	0.616693
C55	C	0.592384	0.000047	-0.000546
C56	C	0.925717	0.333381	0.332787
C57	C	1.259051	0.666714	0.666121
C58	C	0.675564	0.000038	-0.004722
C59	C	1.008897	0.333372	0.328611
C60	C	1.342230	0.666705	0.661945
C61	C	0.656519	0.000035	0.148071
C62	C	0.989852	0.333369	0.481405
C63	C	1.323185	0.666702	0.814738
C64	C	0.573343	0.000037	0.152246
C65	C	0.906676	0.333370	0.485580
C66	C	1.240010	0.666703	0.818913
C67	C	0.541280	0.000048	0.077938
C68	C	0.874614	0.333381	0.411271
C69	C	1.207947	0.666715	0.744605
N70	N	0.427626	0.000058	0.015877
N71	N	0.760960	0.333391	0.349210
N72	N	1.094293	0.666724	0.682544
N73	N	0.456262	0.000057	0.082214
N74	N	0.789596	0.333390	0.415547
N75	N	1.122929	0.666724	0.748881
C76	C	0.983573	-0.259979	0.002793
C77	C	1.316906	0.073354	0.336127
C78	C	1.650240	0.406688	0.669460
C79	C	0.979345	-0.347386	0.007493
C80	C	1.312678	-0.014053	0.340826
C81	C	1.646011	0.319281	0.674159
C82	C	0.922993	-0.391103	0.070073
C83	C	1.256326	-0.057770	0.403406
C84	C	1.589660	0.275563	0.736740
C85	C	0.870860	-0.347409	0.127953
C86	C	1.204194	-0.014076	0.461286
C87	C	1.537527	0.319258	0.794619
C88	C	0.875086	-0.260003	0.123249
C89	C	1.208419	0.073330	0.456582
C90	C	1.541752	0.406663	0.789916
C91	C	0.904537	-0.652515	0.090595
C92	C	1.237870	-0.319182	0.423929
C93	C	1.571204	0.014152	0.757262
C94	C	0.900317	-0.739927	0.095296
C95	C	1.233651	-0.406593	0.428630
C96	C	1.566984	-0.073260	0.761963
C97	C	1.008801	-0.739898	-0.025165
C98	C	1.342135	-0.406565	0.308168
C99	C	1.675468	-0.073231	0.641501
C100	C	1.013025	-0.652491	-0.029860
C101	C	1.346358	-0.319157	0.303473
C102	C	1.679691	0.014176	0.636806
C103	C	0.960889	-0.608804	0.028017
C104	C	1.294223	-0.275470	0.361350
C105	C	1.627556	0.057863	0.694683
N106	N	0.918671	-0.480448	0.074880
N107	N	1.252004	-0.147114	0.408213
N108	N	1.585338	0.186219	0.741546
N109	N	0.965208	-0.519461	0.023206
N110	N	1.298541	-0.186128	0.356539
N111	N	1.631875	0.147206	0.689872
C112	C	1.087734	0.000057	0.032959
C113	C	1.421067	0.333391	0.366293
C114	C	1.754400	0.666724	0.699626
C115	C	1.176256	0.000068	0.028516
C116	C	1.509589	0.333401	0.361849
C117	C	1.842922	0.666734	0.695182
C118	C	0.947805	0.000057	-0.103359
C119	C	1.281139	0.333390	0.229974
C120	C	1.614472	0.666723	0.563307
C121	C	0.946258	0.000067	-0.195550
C122	C	1.279591	0.333400	0.137784
C123	C	1.612924	0.666733	0.471117
N124	N	0.952444	0.216385	0.037419
N125	N	1.285778	0.549718	0.370753
N126	N	1.619111	0.883052	0.704086
C127	C	0.944879	0.075741	-0.498338
C128	C	1.278213	0.409074	-0.165005
C129	C	1.611546	0.742408	0.168328
C130	C	0.946345	0.075747	-0.411719
C131	C	1.279678	0.409080	-0.078386
C132	C	1.613012	0.742414	0.254948
C133	C	0.939007	-0.075645	-0.403572
C134	C	1.272341	0.257688	-0.070238
C135	C	1.605674	0.591021	0.263095
C136	C	0.937547	-0.075650	-0.490191
C137	C	1.270881	0.257683	-0.156857
C138	C	1.604214	0.591016	0.176476
C139	C	0.940479	0.000045	-0.537571
C140	C	1.273813	0.333379	-0.204238
C141	C	1.607146	0.666712	0.129096
C142	C	0.943405	0.000056	-0.364333
C143	C	1.276738	0.333390	-0.030999
C144	C	1.610072	0.666723	0.302334
C145	C	0.944994	0.000062	-0.270416
C146	C	1.278328	0.333396	0.062917
C147	C	1.611661	0.666729	0.396250
C148	C	0.938892	0.000040	-0.631494
C149	C	1.272225	0.333373	-0.298160
C150	C	1.605558	0.666706	0.035173
C151	C	0.936079	0.000039	0.201456
C152	C	1.269412	0.333373	0.534789
C153	C	1.602746	0.666706	0.868123
C154	C	0.937627	0.000035	0.293646
C155	C	1.270960	0.333369	0.626979
C156	C	1.604294	0.666702	0.960312
H157	H	0.166712	0.000059	0.166729
H158	H	0.500045	0.333392	0.500063
H159	H	0.833379	0.666726	0.833396
Br160	Br	0.335011	0.000065	0.199481
Br161	Br	0.668345	0.333399	0.532814
Br162	Br	1.001678	0.666732	0.866147
H163	H	0.947266	0.137377	-0.536913
H164	H	1.280599	0.470711	-0.203579
H165	H	1.613932	0.804044	0.129754
H166	H	0.824973	-0.383009	0.178905
H167	H	1.158307	-0.049675	0.512238
H168	H	1.491640	0.283658	0.845571
H169	H	0.531734	0.000041	0.216157
H170	H	0.865068	0.333374	0.549490
H171	H	1.198401	0.666708	0.882823
Br172	Br	0.804333	-0.200712	0.201795
Br173	Br	1.137667	0.132622	0.535128
Br174	Br	1.471000	0.465955	0.868462
H175	H	0.936619	-0.137274	-0.364984
H176	H	1.269952	0.196059	-0.031651
H177	H	1.603285	0.529393	0.301683
Br178	Br	0.952322	0.178482	-0.358479
Br179	Br	1.285655	0.511815	-0.025145
Br180	Br	1.618989	0.845149	0.308188
Br181	Br	0.823836	-0.799252	0.180238
Br182	Br	1.157169	-0.465919	0.513571
Br183	Br	1.490503	-0.132585	0.846904
H184	H	0.933967	-0.137295	-0.522135
H185	H	1.267300	0.196039	-0.188801
H186	H	1.600633	0.529372	0.144532
H187	H	0.717176	0.000041	-0.068637
H188	H	1.050510	0.333374	0.264696
H189	H	1.383843	0.666707	0.598030
Br190	Br	0.700037	0.000025	0.248912
Br191	Br	1.033370	0.333359	0.582246
Br192	Br	1.366704	0.666692	0.915579
Br193	Br	1.050086	-0.406680	-0.071058
Br194	Br	1.383420	-0.073347	0.262275
Br195	Br	1.716753	0.259986	0.595609
Br196	Br	0.379899	0.000069	-0.160672
Br197	Br	0.713232	0.333402	0.172661
Br198	Br	1.046565	0.666736	0.505995
Br199	Br	0.548882	0.000087	-0.101395
Br200	Br	0.882215	0.333420	0.231938
Br201	Br	1.215549	0.666754	0.565272
H202	H	0.201257	0.000079	-0.110479
H203	H	0.534590	0.333412	0.222854
H204	H	0.867923	0.666746	0.556188
Br205	Br	1.089506	-0.593158	-0.114788
Br206	Br	1.422839	-0.259825	0.218545
Br207	Br	1.756172	0.073508	0.551879
Br208	Br	1.060061	-0.200657	-0.082136
Br209	Br	1.393394	0.132676	0.251197
Br210	Br	1.726727	0.466009	0.584531
H211	H	1.051246	-0.775476	-0.072287
H212	H	1.384580	-0.442142	0.261047
H213	H	1.717913	-0.108809	0.594380
Br214	Br	0.833786	-0.593230	0.169141
Br215	Br	1.167119	-0.259897	0.502475
Br216	Br	1.500453	0.073436	0.835808
