data_functionalizedCrystal
_audit_creation_method	'MofGen! by Chris Wilmer'
_symmetry_space_group_name_H-M	'P1'
_symmetry_Int_Tables_number	1
_symmetry_cell_setting	triclinic
loop_
_symmetry_equiv_pos_as_xyz
  x,y,z
_cell_length_a	23.532407
_cell_length_b	12.837943
_cell_length_c	11.295483
_cell_angle_alpha	94.538773
_cell_angle_beta	94.064566
_cell_angle_gamma	91.161191
loop_
_atom_site_label
_atom_site_type_symbol
_atom_site_fract_x
_atom_site_fract_y
_atom_site_fract_z
O1	O	0.144513	-1.380948	-0.099028
O2	O	0.137204	-1.079219	-0.099034
O3	O	0.058450	-1.239181	-0.099009
O4	O	0.223267	-1.220986	-0.099053
O5	O	0.065355	-1.225131	0.099039
O6	O	0.144109	-1.065169	0.099014
O7	O	0.151419	-1.366899	0.099020
Cu8	Cu	0.148394	-1.214751	0.117101
Cu9	Cu	0.140228	-1.231366	-0.117115
O10	O	0.230173	-1.206937	0.098995
C11	C	0.040660	-1.231692	0.000018
C12	C	-0.022637	-1.230298	0.000027
C13	C	0.138187	-1.033599	-0.000010
C14	C	0.130823	-0.918597	-0.000012
C15	C	0.150435	-1.412519	-0.000006
C16	C	0.157799	-1.527521	-0.000013
C17	C	-0.416812	-1.316228	-0.000037
C18	C	-0.476287	-1.314934	-0.000046
O19	O	-0.508463	-1.394590	-0.000088
N20	N	-0.504370	-1.219836	-0.000047
C21	C	-0.472975	-1.126025	-0.000051
O22	O	-0.502323	-1.045018	-0.000053
C23	C	-0.413501	-1.127321	-0.000050
C24	C	-0.385421	-1.222424	-0.000037
C25	C	-0.388732	-1.411324	-0.000025
C26	C	-0.329261	-1.412617	-0.000014
C27	C	-0.297871	-1.318814	-0.000014
C28	C	-0.325951	-1.223717	-0.000026
C29	C	-0.382108	-1.033512	-0.000063
C30	C	-0.322631	-1.034816	-0.000063
C31	C	-0.294551	-1.129920	-0.000050
C32	C	-0.235089	-1.131207	-0.000015
N33	N	-0.207006	-1.226306	-0.000014
C34	C	-0.238397	-1.320109	-0.000013
C35	C	-0.597873	-1.123313	-0.000054
C36	C	-0.657345	-1.122016	-0.000046
C37	C	-0.660653	-1.310925	-0.000043
C38	C	-0.601180	-1.312220	-0.000043
C39	C	-0.569790	-1.218411	-0.000053
C40	C	-0.113504	-1.322817	0.000011
C41	C	-0.054028	-1.324101	0.000027
C42	C	-0.050725	-1.135193	0.000019
C43	C	-0.110196	-1.133908	0.000009
C44	C	-0.141584	-1.227729	0.000001
O45	O	-0.202877	-1.051593	0.000023
O46	O	-0.209042	-1.401104	-0.000026
C47	C	0.247962	-1.214425	-0.000035
C48	C	0.311259	-1.215820	-0.000052
N49	N	0.154138	-1.203072	0.281835
C50	C	0.219356	-0.676728	-0.000018
C51	C	0.212439	-0.568673	-0.000018
C52	C	0.110073	-0.594431	-0.000004
C53	C	0.116990	-0.702485	-0.000004
C54	C	0.171633	-0.743630	-0.000013
C55	C	0.178549	-0.851687	-0.000021
C56	C	0.076184	-0.877442	0.000002
C57	C	0.069267	-0.769387	0.000002
N58	N	0.134480	-1.243053	-0.281849
C59	C	0.093101	-1.327124	0.531144
C60	C	0.097446	-1.318306	0.655806
C61	C	0.167170	-1.176612	0.655824
C62	C	0.162825	-1.185431	0.531162
C63	C	0.125790	-1.260690	0.468826
C64	C	0.121448	-1.269513	0.344162
C65	C	0.191169	-1.127815	0.344182
C66	C	0.195514	-1.118997	0.468844
H67	H	-0.031168	-1.401549	0.000041
H68	H	0.024778	-0.735871	0.000023
F69	F	0.277509	-0.720520	-0.000042
F70	F	-0.422132	-1.511171	-0.000025
F71	F	0.234926	-1.038901	0.535197
F72	F	0.025390	-0.948654	-0.000006
H73	H	0.217788	-1.073723	0.293429
F74	F	-0.146902	-1.422672	0.000003
H75	H	-0.306404	-1.490060	-0.000008
F76	F	0.062653	-1.389012	0.722125
F77	F	-0.571300	-1.413441	-0.000029
F78	F	-0.694072	-1.410759	-0.000049
F79	F	0.236704	-0.895475	-0.000035
F80	F	-0.564471	-1.023460	-0.000054
F81	F	-0.687223	-1.020792	-0.000038
H82	H	0.091294	-1.330795	0.293409
H83	H	-0.025156	-1.058821	0.000022
H84	H	0.251300	-0.514204	-0.000020
H85	H	-0.404961	-0.956070	-0.000080
F86	F	-0.289227	-0.934969	-0.000076
F87	F	-0.140081	-1.032687	0.000016
F88	F	0.051923	-0.550623	0.000020
F89	F	0.053691	-1.407229	0.464801
F90	F	0.206578	-1.096511	0.722180
