data_functionalizedCrystal
_audit_creation_method	'MofGen! by Chris Wilmer'
_symmetry_space_group_name_H-M	'P1'
_symmetry_Int_Tables_number	1
_symmetry_cell_setting	triclinic
loop_
_symmetry_equiv_pos_as_xyz
  x,y,z
_cell_length_a	12.594516
_cell_length_b	17.077404
_cell_length_c	17.077396
_cell_angle_alpha	89.982940
_cell_angle_beta	89.975251
_cell_angle_gamma	90.016278
loop_
_atom_site_label
_atom_site_type_symbol
_atom_site_fract_x
_atom_site_fract_y
_atom_site_fract_z
Zn1	Zn	-0.423719	1.200073	-0.443872
Zn2	Zn	0.076281	1.700073	0.056128
Zn3	Zn	-0.601725	1.200001	-0.312618
Zn4	Zn	-0.101725	1.700001	0.187382
Zn5	Zn	-0.423761	1.068810	-0.312620
Zn6	Zn	0.076239	1.568810	0.187380
Zn7	Zn	-0.601656	1.068788	-0.443842
Zn8	Zn	-0.101656	1.568788	0.056158
O9	O	-0.512715	1.134418	-0.378238
O10	O	-0.012715	1.634418	0.121762
O11	O	-0.447343	1.309910	-0.426473
O12	O	0.052657	1.809910	0.073527
O13	O	-0.578164	1.182578	-0.202771
O14	O	-0.078164	1.682578	0.297229
O15	O	-0.274810	1.086262	-0.330044
O16	O	0.225190	1.586262	0.169956
O17	O	-0.578123	1.309858	-0.330041
O18	O	-0.078123	1.809858	0.169959
O19	O	-0.274779	1.182700	-0.426474
O20	O	0.225221	1.682700	0.073526
O21	O	-0.447415	1.086192	-0.202773
O22	O	0.052585	1.586192	0.297227
O23	O	-0.447349	0.958961	-0.330015
O24	O	0.052651	1.458961	0.169985
O25	O	-0.578006	1.086224	-0.553693
O26	O	-0.078006	1.586224	-0.053693
O27	O	-0.578047	0.958944	-0.426423
O28	O	-0.078047	1.458944	0.073577
O29	O	-0.447276	1.182679	-0.553715
O30	O	0.052724	1.682679	-0.053715
O31	O	-0.750661	1.182556	-0.330012
O32	O	-0.250661	1.682556	0.169988
O33	O	-0.750611	1.086155	-0.426421
O34	O	-0.250611	1.586155	0.073579
C35	C	-0.512696	0.930470	-0.378216
C36	C	-0.012696	1.430470	0.121784
C37	C	-0.512713	0.843221	-0.378226
C38	C	-0.012713	1.343221	0.121774
C39	C	-0.580871	0.802243	-0.428345
C40	C	-0.080871	1.302243	0.071655
C41	C	-0.580873	0.720262	-0.428357
C42	C	-0.080873	1.220262	0.071643
C43	C	-0.512723	0.679261	-0.378246
C44	C	-0.012723	1.179261	0.121754
C45	C	-0.444557	0.720245	-0.328125
C46	C	0.055443	1.220245	0.171875
C47	C	-0.444551	0.802224	-0.328117
C48	C	0.055449	1.302224	0.171883
C49	C	-0.444578	0.549375	-0.328144
C50	C	0.055422	1.049375	0.171856
C51	C	-0.444586	0.467390	-0.328150
C52	C	0.055414	0.967390	0.171850
C53	C	-0.580901	0.467413	-0.428384
C54	C	-0.080901	0.967413	0.071616
C55	C	-0.580894	0.549392	-0.428376
C56	C	-0.080894	1.049392	0.071624
C57	C	-0.512730	0.590370	-0.378253
C58	C	-0.012730	1.090370	0.121747
C59	C	-0.789256	1.134367	-0.378230
C60	C	-0.289256	1.634367	0.121770
C61	C	-0.907562	1.134417	-0.378253
C62	C	-0.407562	1.634417	0.121747
C63	C	-0.976826	1.081979	-0.430653
C64	C	-0.476826	1.581979	0.069347
C65	C	-1.047689	1.062858	-0.359026
C66	C	-0.547689	1.562858	0.140974
C67	C	-1.047498	1.153609	-0.449893
C68	C	-0.547498	1.653609	0.050107
C69	C	-0.976866	1.115258	-0.306587
C70	C	-0.476866	1.615258	0.193413
C71	C	-0.976669	1.206042	-0.397503
C72	C	-0.476669	1.706042	0.102497
C73	C	-1.047500	1.186949	-0.325826
C74	C	-0.547500	1.686949	0.174174
C75	C	-0.235094	1.134491	-0.378263
C76	C	0.264906	1.634491	0.121737
C77	C	-0.116789	1.134522	-0.378273
C78	C	0.383211	1.634522	0.121727
C79	C	-0.512735	1.339163	-0.378260
C80	C	-0.012735	1.839163	0.121740
C81	C	-0.512744	1.426412	-0.378269
C82	C	-0.012744	1.926412	0.121731
C83	C	-0.512629	1.134457	-0.582982
C84	C	-0.012629	1.634457	-0.082982
C85	C	-0.512592	1.134474	-0.670232
C86	C	-0.012592	1.634474	-0.170232
C87	C	-0.580549	1.184733	-1.046048
C88	C	-0.080549	1.684733	-0.546048
C89	C	-0.580580	1.184713	-0.964068
C90	C	-0.080580	1.684713	-0.464068
C91	C	-0.512517	1.134524	-0.923081
C92	C	-0.012517	1.634524	-0.423081
C93	C	-0.444426	1.084346	-0.964079
C94	C	0.055574	1.584346	-0.464079
C95	C	-0.444401	1.084363	-1.046058
C96	C	0.055599	1.584363	-0.546058
C97	C	-0.444481	1.084317	-0.793209
C98	C	0.055519	1.584317	-0.293209
C99	C	-0.444504	1.084301	-0.711224
C100	C	0.055496	1.584301	-0.211224
C101	C	-0.580660	1.184667	-0.711219
C102	C	-0.080660	1.684667	-0.211219
C103	C	-0.580635	1.184684	-0.793198
C104	C	-0.080635	1.684684	-0.293198
C105	C	-0.512543	1.134506	-0.834190
C106	C	-0.012543	1.634506	-0.334190
C107	C	-0.512724	1.134425	-0.174290
C108	C	-0.012724	1.634425	0.325710
C109	C	-0.512461	1.134560	-0.087041
C110	C	-0.012461	1.634560	0.412959
H111	H	-0.389079	0.434010	-0.287355
H112	H	0.110921	0.934010	0.212645
Cl113	Cl	-0.358941	1.021203	-0.659699
Cl114	Cl	0.141059	1.521203	-0.159699
Cl115	Cl	-0.358795	1.021290	-1.097591
Cl116	Cl	0.141205	1.521290	-0.597591
H117	H	-0.389033	1.043457	-0.826582
H118	H	0.110967	1.543457	-0.326582
H119	H	-0.945793	1.037554	-0.474902
H120	H	-0.445793	1.537554	0.025098
Cl121	Cl	-0.929170	1.090154	-0.213034
Cl122	Cl	-0.429170	1.590154	0.286966
Cl123	Cl	-0.358885	0.600889	-0.265131
Cl124	Cl	0.141115	1.100889	0.234869
Cl125	Cl	-0.666578	0.415899	-0.491407
Cl126	Cl	-0.166578	0.915899	0.008593
H127	H	-0.389013	1.043478	-0.930701
H128	H	0.110987	1.543478	-0.430701
Cl129	Cl	-1.095111	1.255486	-0.257348
Cl130	Cl	-0.595111	1.755486	0.242652
Cl131	Cl	-0.358875	0.668701	-0.265132
Cl132	Cl	0.141125	1.168701	0.234868
H133	H	-0.636038	1.225559	-0.930696
H134	H	-0.136038	1.725559	-0.430696
H135	H	-0.636371	0.835620	-0.469149
H136	H	-0.136371	1.335620	0.030851
Cl137	Cl	-0.666199	1.247781	-0.844723
Cl138	Cl	-0.166199	1.747781	-0.344723
Cl139	Cl	-0.928468	1.299465	-0.422669
Cl140	Cl	-0.428468	1.799465	0.077331
H141	H	-0.636375	0.686902	-0.469169
H142	H	-0.136375	1.186902	0.030831
Cl143	Cl	-1.095404	1.178605	-0.543417
Cl144	Cl	-0.595404	1.678605	-0.043417
Cl145	Cl	-0.666267	1.247744	-0.659686
Cl146	Cl	-0.166267	1.747744	-0.159686
H147	H	-0.635969	1.225606	-1.079414
H148	H	-0.135969	1.725606	-0.579414
Cl149	Cl	-0.358860	0.853739	-0.265109
Cl150	Cl	0.141140	1.353739	0.234891
H151	H	-0.636394	0.582773	-0.469177
H152	H	-0.136394	1.082773	0.030823
Cl153	Cl	-1.095851	0.969410	-0.333891
Cl154	Cl	-0.595851	1.469410	0.166109
