data_functionalizedCrystal
_audit_creation_method	'MofGen! by Chris Wilmer'
_symmetry_space_group_name_H-M	'P1'
_symmetry_Int_Tables_number	1
_symmetry_cell_setting	triclinic
loop_
_symmetry_equiv_pos_as_xyz
  x,y,z
_cell_length_a	8.597366
_cell_length_b	17.038272
_cell_length_c	7.681481
_cell_angle_alpha	83.842174
_cell_angle_beta	103.474720
_cell_angle_gamma	88.193425
loop_
_atom_site_label
_atom_site_type_symbol
_atom_site_fract_x
_atom_site_fract_y
_atom_site_fract_z
O1	O	2.114501	0.108117	0.174372
O2	O	1.652131	0.120576	0.104219
O3	O	1.880569	0.000530	0.138893
O4	O	1.886062	0.228163	0.139698
O5	O	1.908681	-0.014279	0.436017
O6	O	1.680243	0.105767	0.401344
O7	O	2.142613	0.093308	0.471496
Zn8	Zn	1.915892	0.097186	0.483595
Zn9	Zn	1.878852	0.116698	0.092120
O10	O	1.914175	0.213354	0.436823
C11	C	1.606734	0.112659	0.243761
C12	C	1.429582	0.111122	0.216883
C13	C	1.889626	-0.036003	0.286696
C14	C	1.874713	-0.122797	0.284433
C15	C	2.011638	-0.172898	0.305210
C16	C	1.997614	-0.254449	0.303065
C17	C	1.846664	-0.285898	0.280157
C18	C	1.709728	-0.235791	0.259373
C19	C	1.723752	-0.154241	0.261505
C20	C	1.797118	-0.531660	0.272615
C21	C	1.783104	-0.613217	0.270490
C22	C	2.070991	-0.631869	0.314179
C23	C	2.085004	-0.550317	0.316320
C24	C	1.948066	-0.500216	0.295527
C25	C	1.832326	-0.369257	0.277970
C26	C	1.962404	-0.416859	0.297701
C27	C	2.188009	0.101226	0.331950
C28	C	2.365161	0.102763	0.358817
C29	C	1.905117	0.249888	0.289015
C30	C	1.920030	0.336682	0.291267
N31	N	1.941181	0.083870	0.750768
N32	N	1.853574	0.130009	-0.175051
H33	H	2.109114	-0.295239	0.319988
O34	O	1.663949	-0.483116	0.252496
C35	C	1.527713	-0.528363	0.231789
H36	H	1.565249	-0.592035	0.292921
H37	H	1.439259	-0.502584	0.303404
H38	H	1.468468	-0.527059	0.082304
O39	O	2.204171	-0.680429	0.334459
C40	C	2.340403	-0.635180	0.355082
H41	H	2.313524	-0.577121	0.406458
H42	H	2.445190	-0.669568	0.455996
H43	H	2.372657	-0.622262	0.219474
H44	H	2.030630	0.036779	0.839551
H45	H	1.612253	-0.113449	0.244586
H46	H	1.586820	-0.261403	0.240709
O47	O	1.685764	-0.399892	0.255508
C48	C	1.654467	-0.438813	0.099059
H49	H	1.772488	-0.456559	0.066388
H50	H	1.586981	-0.493944	0.122932
H51	H	1.578627	-0.397410	-0.018647
O52	O	1.461220	0.095533	0.528258
C53	C	1.567270	0.028210	0.553805
H54	H	1.581712	0.012875	0.417360
H55	H	1.688863	0.041039	0.639667
H56	H	1.516992	-0.023721	0.625047
O57	O	2.158386	-0.142478	0.327398
C58	C	2.276234	-0.204191	0.345315
H59	H	2.218712	-0.256783	0.281145
H60	H	2.372791	-0.182853	0.274934
H61	H	2.332494	-0.222842	0.494348
O62	O	2.231531	-0.519669	0.338311
C63	C	2.233715	-0.465396	0.186948
H64	H	2.105990	-0.442518	0.117003
H65	H	2.307778	-0.413726	0.232300
H66	H	2.289143	-0.496056	0.089148
O67	O	1.636528	-0.643850	0.248003
C68	C	1.605249	-0.682779	0.091564
H69	H	1.723277	-0.700530	0.058916
H70	H	1.537757	-0.737908	0.115437
H71	H	1.529422	-0.641380	-0.026157
H72	H	1.764144	0.177102	0.736178
O73	O	1.333622	0.118390	0.047399
C74	C	1.227514	0.185688	0.021890
H75	H	1.280253	0.228846	0.120413
H76	H	1.208935	0.215526	-0.122124
H77	H	1.107554	0.167112	0.046749
O78	O	2.109142	-0.386418	0.320202
C79	C	2.207827	-0.419674	0.486877
H80	H	2.161580	-0.478793	0.530427
H81	H	2.335756	-0.429267	0.472183
H82	H	2.205946	-0.377856	0.592798
