data_functionalizedCrystal
_audit_creation_method	'MofGen! by Chris Wilmer'
_symmetry_space_group_name_H-M	'P1'
_symmetry_Int_Tables_number	1
_symmetry_cell_setting	triclinic
loop_
_symmetry_equiv_pos_as_xyz
  x,y,z
_cell_length_a	12.594517
_cell_length_b	19.805406
_cell_length_c	19.805384
_cell_angle_alpha	89.914565
_cell_angle_beta	89.945894
_cell_angle_gamma	89.993606
loop_
_atom_site_label
_atom_site_type_symbol
_atom_site_fract_x
_atom_site_fract_y
_atom_site_fract_z
Zn1	Zn	-1.627872	0.269119	0.382526
Zn2	Zn	-1.627669	0.382448	0.269364
Zn3	Zn	-1.449732	0.269266	0.269379
Zn4	Zn	-1.449909	0.382259	0.382539
O5	O	-1.538796	0.325773	0.325952
O6	O	-1.776791	0.284170	0.367503
O7	O	-1.603907	0.367574	0.174649
O8	O	-1.473374	0.174530	0.284389
O9	O	-1.776642	0.367432	0.284363
O10	O	-1.604253	0.174422	0.367518
O11	O	-1.473177	0.284420	0.174660
O12	O	-1.300810	0.284237	0.284401
O13	O	-1.473675	0.367110	0.477254
O14	O	-1.300939	0.367252	0.367539
O15	O	-1.604424	0.283987	0.477245
O16	O	-1.604078	0.477139	0.284376
O17	O	-1.473478	0.477001	0.367525
C18	C	-1.262255	0.325740	0.325974
C19	C	-1.143949	0.325743	0.325999
C20	C	-1.538817	0.149230	0.325953
C21	C	-1.538826	0.073998	0.325954
C22	C	-1.074797	0.370982	0.371133
C23	C	-1.003983	0.309248	0.387774
C24	C	-1.003965	0.387522	0.309352
C25	C	-1.074693	0.263976	0.342672
C26	C	-1.074681	0.342292	0.264221
C27	C	-1.003899	0.280516	0.280838
C28	C	-0.816417	0.325800	0.325941
C29	C	-0.934722	0.325795	0.325963
C30	C	-1.470693	0.038709	0.282675
C31	C	-1.470699	-0.031979	0.282682
C32	C	-1.538845	-0.067377	0.325966
C33	C	-1.606982	-0.032083	0.369250
C34	C	-1.606969	0.038604	0.369245
C35	C	-1.607034	-0.317157	0.369270
C36	C	-1.607044	-0.387849	0.369269
C37	C	-1.470765	-0.387740	0.282707
C38	C	-1.470752	-0.317053	0.282702
C39	C	-1.538883	-0.281765	0.325988
C40	C	-1.538874	-0.205116	0.325981
C41	C	-1.538861	-0.144024	0.325971
C42	C	-1.538804	0.501629	0.325965
C43	C	-1.538904	0.576861	0.325993
C44	C	-1.538562	0.325985	0.150095
C45	C	-1.538642	0.325906	0.074864
C46	C	-1.470125	0.282893	0.039557
C47	C	-1.470210	0.282818	-0.031131
C48	C	-1.538807	0.325760	-0.066512
C49	C	-1.607332	0.368775	-0.031200
C50	C	-1.607252	0.368846	0.039487
C51	C	-1.607657	0.368489	-0.316273
C52	C	-1.607730	0.368417	-0.386965
C53	C	-1.470616	0.282462	-0.386891
C54	C	-1.470536	0.282533	-0.316204
C55	C	-1.539064	0.325544	-0.280899
C56	C	-1.538972	0.325624	-0.204250
C57	C	-1.538894	0.325684	-0.143159
C58	C	-1.539092	0.325511	0.502495
C59	C	-1.539218	0.325400	0.577727
H60	H	-1.105928	0.409167	0.409347
H61	H	-0.972891	0.439746	0.295289
O62	O	-0.962841	0.290730	0.456956
H63	H	-0.914337	0.244075	0.453390
O64	O	-0.962922	0.229816	0.230255
H65	H	-0.874800	0.230504	0.230284
O66	O	-1.115881	0.360833	0.195064
H67	H	-1.087614	0.412142	0.181375
H68	H	-1.414673	0.247567	-0.287401
H69	H	-1.105632	0.211737	0.356796
H70	H	-1.415204	0.067525	0.247426
H71	H	-1.414263	0.247926	0.068359
O72	O	-1.397230	-0.070044	0.235993
H73	H	-1.349858	-0.033554	0.205885
O74	O	-1.680452	0.076666	0.415931
H75	H	-1.668984	0.131765	0.408663
O76	O	-1.396712	0.236062	-0.424973
H77	H	-1.414347	0.182875	-0.411246
O78	O	-1.680548	-0.426027	0.415959
H79	H	-1.669118	-0.481108	0.408682
O80	O	-1.397249	-0.278871	0.236021
H81	H	-1.349864	-0.315287	0.205931
O82	O	-1.681321	0.415094	-0.069356
H83	H	-1.669859	0.407825	-0.124441
H84	H	-1.663599	0.403384	-0.415770
H85	H	-1.663454	0.403514	-0.287536
H86	H	-1.415284	-0.416479	0.247463
H87	H	-1.414415	0.247793	-0.059875
H88	H	-1.663047	0.403870	0.068232
O89	O	-1.680489	-0.070262	0.415930
H90	H	-1.662319	-0.056781	0.469054
O91	O	-1.680520	-0.279099	0.415951
H92	H	-1.727914	-0.315591	0.446042
