data_functionalizedCrystal
_audit_creation_method	'MofGen! by Chris Wilmer'
_symmetry_space_group_name_H-M	'P1'
_symmetry_Int_Tables_number	1
_symmetry_cell_setting	triclinic
loop_
_symmetry_equiv_pos_as_xyz
  x,y,z
_cell_length_a	17.699083
_cell_length_b	19.288864
_cell_length_c	17.766277
_cell_angle_alpha	90.023209
_cell_angle_beta	89.992740
_cell_angle_gamma	96.790370
loop_
_atom_site_label
_atom_site_type_symbol
_atom_site_fract_x
_atom_site_fract_y
_atom_site_fract_z
O1	O	0.094417	-0.921465	-0.062837
O2	O	0.594417	-0.421465	0.437163
O3	O	0.107154	-0.719219	-0.062786
O4	O	0.607154	-0.219219	0.437214
O5	O	-0.009412	-0.826056	-0.062806
O6	O	0.490588	-0.326056	0.437194
O7	O	0.210983	-0.814628	-0.062817
O8	O	0.710983	-0.314628	0.437183
O9	O	-0.009417	-0.826037	0.062382
O10	O	0.490583	-0.326037	0.562382
O11	O	0.107148	-0.719201	0.062403
O12	O	0.607148	-0.219201	0.562403
O13	O	0.094411	-0.921446	0.062351
O14	O	0.594411	-0.421446	0.562351
Cu15	Cu	0.100779	-0.820322	0.073808
Cu16	Cu	0.600779	-0.320322	0.573808
Cu17	Cu	0.100786	-0.820344	-0.074242
Cu18	Cu	0.600786	-0.320344	0.425758
O19	O	0.210977	-0.814609	0.062372
O20	O	0.710977	-0.314609	0.562372
C21	C	0.106741	-0.693333	-0.000185
C22	C	0.606741	-0.193333	0.499815
C23	C	0.105511	-0.616228	-0.000165
C24	C	0.605511	-0.116228	0.499835
C25	C	-0.037611	-0.825637	-0.000212
C26	C	0.462389	-0.325637	0.499788
C27	C	-0.121627	-0.824409	-0.000211
C28	C	0.378373	-0.324409	0.499789
C29	C	0.094824	-0.947332	-0.000251
C30	C	0.594824	-0.447332	0.499749
C31	C	0.096054	-1.024437	-0.000276
C32	C	0.596054	-0.524437	0.499724
C33	C	-0.170336	-0.887120	-0.000226
C34	C	0.329664	-0.387120	0.499774
C35	C	-0.249278	-0.885961	-0.000232
C36	C	0.250722	-0.385961	0.499768
C37	C	-0.279509	-0.822091	-0.000219
C38	C	0.220491	-0.322091	0.499781
C39	C	-0.230794	-0.759375	-0.000206
C40	C	0.269206	-0.259375	0.499794
C41	C	-0.151854	-0.760535	-0.000205
C42	C	0.348146	-0.260535	0.499795
C43	C	-0.549150	-0.754699	-0.000211
C44	C	-0.049150	-0.254699	0.499789
C45	C	-0.628097	-0.753545	-0.000210
C46	C	-0.128097	-0.253545	0.499790
C47	C	-0.646575	-0.880126	-0.000238
C48	C	-0.146575	-0.380126	0.499762
C49	C	-0.567635	-0.881285	-0.000237
C50	C	-0.067635	-0.381285	0.499763
C51	C	-0.518926	-0.818570	-0.000229
C52	C	-0.018926	-0.318570	0.499771
C53	C	-0.433329	-0.819827	-0.000223
C54	C	0.066671	-0.319827	0.499777
C55	C	-0.365105	-0.820834	-0.000219
C56	C	0.134895	-0.320834	0.499781
C57	C	0.239176	-0.815028	-0.000224
C58	C	0.739176	-0.315028	0.499776
C59	C	0.323193	-0.816257	-0.000230
C60	C	0.823193	-0.316257	0.499770
N61	N	0.100774	-0.820311	0.177938
N62	N	0.600774	-0.320311	0.677938
C63	C	0.173906	-0.571613	-0.000180
C64	C	0.673906	-0.071613	0.499820
C65	C	0.172751	-0.499164	-0.000188
C66	C	0.672751	0.000836	0.499812
C67	C	0.103196	-0.471334	-0.000197
C68	C	0.603196	0.028666	0.499803
C69	C	0.034791	-0.515959	-0.000177
C70	C	0.534791	-0.015959	0.499823
C71	C	0.035949	-0.588406	-0.000162
C72	C	0.535949	-0.088406	0.499838
C73	C	0.048520	-0.363014	-0.044079
C74	C	0.548520	0.136986	0.455921
C75	C	0.047365	-0.290568	-0.044099
C76	C	0.547365	0.209432	0.455901
C77	C	0.099622	-0.247884	-0.000242
C78	C	0.599622	0.252116	0.499758
C79	C	0.153047	-0.277654	0.043625
C80	C	0.653047	0.222346	0.543625
C81	C	0.154204	-0.350101	0.043641
C82	C	0.654204	0.149899	0.543641
C83	C	0.101932	-0.392779	-0.000213
C84	C	0.601932	0.107221	0.499787
C85	C	0.166769	-0.124712	-0.000265
C86	C	0.666769	0.375288	0.499735
C87	C	0.165610	-0.052262	-0.000269
C88	C	0.665610	0.447738	0.499731
C89	C	0.027649	-0.069059	-0.000265
C90	C	0.527649	0.430941	0.499735
C91	C	0.028809	-0.141507	-0.000254
C92	C	0.528809	0.358493	0.499746
C93	C	0.098371	-0.169329	-0.000258
C94	C	0.598371	0.330671	0.499742
N95	N	0.100786	-0.820360	-0.178372
N96	N	0.600786	-0.320360	0.321628
C97	C	0.049184	-0.867634	0.217316
C98	C	0.549184	-0.367634	0.717316
C99	C	0.049180	-0.867638	0.296118
C100	C	0.549180	-0.367638	0.796118
C101	C	0.100780	-0.820326	0.335539
C102	C	0.600780	-0.320326	0.835539
C103	C	0.152374	-0.772994	0.296151
C104	C	0.652374	-0.272994	0.796151
C105	C	0.152371	-0.772987	0.217351
C106	C	0.652371	-0.272987	0.717351
C107	C	0.169742	-0.811109	0.460375
C108	C	0.669742	-0.311109	0.960375
C109	C	0.169746	-0.811121	0.539174
C110	C	0.669746	-0.311121	1.039174
C111	C	0.100789	-0.820344	0.578585
C112	C	0.600789	-0.320344	1.078585
C113	C	0.031825	-0.829570	0.539188
C114	C	0.531825	-0.329570	1.039188
C115	C	0.031822	-0.829563	0.460388
C116	C	0.531822	-0.329563	0.960388
C117	C	0.100789	-0.820328	0.420984
C118	C	0.600789	-0.320328	0.920984
C119	C	0.049191	-0.867674	0.703409
C120	C	0.549191	-0.367674	1.203409
C121	C	0.049186	-0.867673	0.782212
C122	C	0.549186	-0.367673	1.282212
C123	C	0.152386	-0.773033	0.782244
C124	C	0.652386	-0.273033	1.282244
C125	C	0.152384	-0.773030	0.703442
C126	C	0.652384	-0.273030	1.203442
C127	C	0.100787	-0.820355	0.664029
C128	C	0.600787	-0.320355	1.164029
H129	H	-0.145729	-0.939130	-0.000233
H130	H	0.354271	-0.439130	0.499767
Br131	Br	0.261172	-0.162474	-0.000264
Br132	Br	0.761172	0.337526	0.499736
H133	H	-0.288934	-0.937027	-0.000243
H134	H	0.211066	-0.437027	0.499757
H135	H	0.007171	-0.906207	0.814274
H136	H	0.507171	-0.406207	1.314274
Br137	Br	-0.020835	-0.931896	0.649918
Br138	Br	0.479165	-0.431896	1.149918
Br139	Br	-0.526611	-0.967969	-0.000257
Br140	Br	-0.026611	-0.467969	0.499743
Br141	Br	-0.022409	-0.420936	-0.103602
Br142	Br	0.477591	0.079064	0.396398
Br143	Br	0.268311	-0.609368	-0.000184
Br144	Br	0.768311	-0.109368	0.499816
H145	H	0.228448	-0.462831	-0.000199
H146	H	0.728448	0.037169	0.499801
Br147	Br	0.226703	-0.390501	0.103175
Br148	Br	0.726703	0.109499	0.603175
H149	H	-0.019749	-0.624733	-0.000150
H150	H	0.480251	-0.124733	0.499850
Br151	Br	0.222407	-0.708816	0.835737
Br152	Br	0.722407	-0.208816	1.335737
Br153	Br	-0.061766	-0.842077	0.406922
Br154	Br	0.438234	-0.342077	0.906922
H155	H	-0.024326	-0.837081	0.571275
H156	H	0.475674	-0.337081	1.071275
Br157	Br	-0.059606	-0.478193	-0.000181
Br158	Br	0.440394	0.021807	0.499819
H159	H	-0.652707	-0.701531	-0.000197
H160	H	-0.152707	-0.201531	0.499803
Br161	Br	-0.025130	-0.250173	-0.103643
Br162	Br	0.474870	0.249827	0.396357
H163	H	0.007169	-0.906166	0.185228
H164	H	0.507169	-0.406166	0.685228
Br165	Br	0.222405	-0.708806	0.649995
Br166	Br	0.722405	-0.208806	1.149995
H167	H	-0.112195	-0.709469	-0.000193
H168	H	0.387805	-0.209469	0.499807
Br169	Br	0.223975	-0.219735	0.103148
Br170	Br	0.723975	0.280265	0.603148
Br171	Br	0.258441	0.008290	-0.000282
Br172	Br	0.758441	0.508290	0.499718
Br173	Br	0.263337	-0.798608	0.592633
Br174	Br	0.763337	-0.298608	1.092633
Br175	Br	-0.271821	-0.672693	-0.000200
Br176	Br	0.228179	-0.172693	0.499800
H177	H	-0.686243	-0.931192	-0.000249
H178	H	-0.186243	-0.431192	0.499751
H179	H	0.194382	-0.734450	0.185289
H180	H	0.694382	-0.234450	0.685289
Br181	Br	-0.020842	-0.931866	0.349569
Br182	Br	0.479158	-0.431866	0.849569
H183	H	-0.509501	-0.703632	-0.000204
H184	H	-0.009501	-0.203632	0.499796
Br185	Br	0.263336	-0.798660	0.406896
Br186	Br	0.763336	-0.298660	0.906896
H187	H	0.194386	-0.734471	0.328252
H188	H	0.694386	-0.234471	0.828252
H189	H	-0.026886	-0.177834	-0.000246
H190	H	0.473114	0.322166	0.499754
Br191	Br	-0.066749	-0.031298	-0.000264
Br192	Br	0.433251	0.468702	0.499736
