data_functionalizedCrystal
_audit_creation_method	'MofGen! by Chris Wilmer'
_symmetry_space_group_name_H-M	'P1'
_symmetry_Int_Tables_number	1
_symmetry_cell_setting	triclinic
loop_
_symmetry_equiv_pos_as_xyz
  x,y,z
_cell_length_a	12.759401
_cell_length_b	21.295417
_cell_length_c	12.759393
_cell_angle_alpha	90.038095
_cell_angle_beta	90.020938
_cell_angle_gamma	90.032032
loop_
_atom_site_label
_atom_site_type_symbol
_atom_site_fract_x
_atom_site_fract_y
_atom_site_fract_z
Zn1	Zn	1.606151	-0.250553	0.593965
Zn2	Zn	1.605994	-0.355835	0.418261
Zn3	Zn	1.430450	-0.250587	0.418300
Zn4	Zn	1.430393	-0.355791	0.593899
O5	O	1.518247	-0.303192	0.506106
O6	O	1.753151	-0.264523	0.570669
O7	O	1.582665	-0.341906	0.271245
O8	O	1.453846	-0.162493	0.441646
O9	O	1.753035	-0.341874	0.441580
O10	O	1.582933	-0.162468	0.570706
O11	O	1.453694	-0.264581	0.271274
O12	O	1.283421	-0.264538	0.441582
O13	O	1.453750	-0.341799	0.740929
O14	O	1.283380	-0.341831	0.570594
O15	O	1.582879	-0.264481	0.740977
O16	O	1.582610	-0.443919	0.441516
O17	O	1.453597	-0.443886	0.570556
C18	C	1.245279	-0.303184	0.506085
C19	C	1.128503	-0.303196	0.506101
C20	C	1.518109	-0.466743	0.506048
C21	C	1.518146	-0.536711	0.506058
C22	C	1.073647	-0.343504	0.573172
C23	C	0.963923	-0.343506	0.573193
C24	C	0.963921	-0.262891	0.439063
C25	C	1.073643	-0.262886	0.439048
C26	C	1.585383	-0.569574	0.438936
C27	C	1.585432	-0.635316	0.438960
C28	C	1.518226	-0.668194	0.506094
C29	C	1.450985	-0.635323	0.573230
C30	C	1.450945	-0.569582	0.573212
N31	N	1.426319	-0.771460	0.514097
N32	N	1.426360	-0.833912	0.514108
C33	C	1.518344	-0.866268	0.506155
N34	N	1.610287	-0.833814	0.498169
N35	N	1.610245	-0.771357	0.498153
C36	C	1.518262	-0.739479	0.506122
C37	C	1.585640	-0.970417	0.439054
C38	C	1.585691	-1.036160	0.439085
C39	C	1.451233	-1.036166	0.573350
C40	C	1.451192	-0.970423	0.573325
C41	C	1.518393	-0.937553	0.506171
C42	C	1.792280	-0.303200	0.506128
C43	C	1.909057	-0.303203	0.506137
C44	C	1.518325	-0.303131	0.780140
C45	C	1.518359	-0.303105	0.896916
C46	C	1.518414	-0.139001	0.506188
C47	C	1.518485	-0.069033	0.506222
C48	C	1.518229	-0.303206	0.233139
C49	C	1.518399	-0.303055	0.116363
C50	C	1.585601	-0.262839	0.951805
C51	C	1.585619	-0.262812	1.061529
C52	C	1.451149	-0.343322	1.061466
C53	C	1.451127	-0.343346	0.951744
H54	H	1.118311	-0.376325	0.627773
H55	H	1.640188	-0.662078	0.384301
C56	C	1.377307	-1.072327	0.647202
N57	N	1.321626	-1.099567	0.702830
C58	C	1.377246	-0.934273	0.647187
N59	N	1.321559	-0.907045	0.702835
C60	C	0.903586	-0.387854	0.646966
N61	N	0.858141	-0.421260	0.702533
C62	C	1.377196	-0.387583	1.121787
N63	N	1.321493	-0.420922	1.167219
C64	C	1.377148	-0.387642	0.891363
N65	N	1.321427	-0.421003	0.845883
C66	C	1.377054	-0.671490	0.647074
N67	N	1.321368	-0.698730	0.702698
C68	C	1.659577	-0.934256	0.365201
N69	N	1.715272	-0.907022	0.309577
C70	C	1.659549	-0.218568	0.891499
N71	N	1.715245	-0.185219	0.846079
C72	C	1.659659	-1.072309	0.365241
N73	N	1.715372	-1.099537	0.309617
C74	C	0.903564	-0.218556	0.365303
N75	N	0.858104	-0.185163	0.309744
H76	H	1.396192	-0.542825	0.627872
C77	C	1.659593	-0.218518	1.121902
N78	N	1.715314	-0.185154	1.167374
H79	H	1.118308	-0.230058	0.384431
H80	H	1.640105	-0.542812	0.384258
