data_functionalizedCrystal
_audit_creation_method	'MofGen! by Chris Wilmer'
_symmetry_space_group_name_H-M	'P1'
_symmetry_Int_Tables_number	1
_symmetry_cell_setting	triclinic
loop_
_symmetry_equiv_pos_as_xyz
  x,y,z
_cell_length_a	6.817900
_cell_length_b	14.858565
_cell_length_c	17.329469
_cell_angle_alpha	91.528402
_cell_angle_beta	103.027942
_cell_angle_gamma	104.523916
loop_
_atom_site_label
_atom_site_type_symbol
_atom_site_fract_x
_atom_site_fract_y
_atom_site_fract_z
V1	V	-4.014722	-0.109636	-0.245216
O2	O	-3.997121	0.024838	-0.240323
O3	O	-3.971461	-0.236210	-0.243756
O4	O	-3.958726	-0.099363	-0.352064
O5	O	-4.009944	-0.112957	-0.131264
V6	V	-4.498669	-0.094566	-0.231560
O7	O	-4.275052	-0.142693	-0.275171
O8	O	-4.688536	-0.061508	-0.201605
O9	O	-4.318723	0.032009	-0.233020
O10	O	-4.633667	-0.229039	-0.236454
O11	O	-4.620844	-0.091244	-0.345512
O12	O	-4.331458	-0.104839	-0.124712
C13	C	-3.817958	-0.267334	-0.239943
C14	C	-3.863822	-0.370755	-0.239462
C15	C	-3.801712	-0.092771	-0.378101
C16	C	-3.837247	-0.085209	-0.465451
C17	C	-4.031693	-0.749462	-0.237709
C18	C	-3.984977	-0.644094	-0.238196
C19	C	-3.947758	-0.560112	-0.238584
C20	C	-3.901042	-0.454737	-0.239073
C21	C	-4.035991	-0.038257	-0.958922
C22	C	-4.002628	-0.045357	-0.876847
C23	C	-4.028780	-0.133192	-0.847171
C24	C	-4.088319	-0.213932	-0.899577
C25	C	-4.121695	-0.206831	-0.981651
C26	C	-3.930162	-0.158848	-0.599930
C27	C	-3.896774	-0.165943	-0.517850
C28	C	-3.811089	0.002632	-0.495125
C29	C	-3.844458	0.009726	-0.577201
C30	C	-3.904004	-0.071015	-0.629600
C31	C	-3.994672	-0.140451	-0.763278
C32	C	-3.938125	-0.063755	-0.713492
C33	C	-4.135569	0.063128	-0.236831
C34	C	-4.068942	0.166548	-0.237318
C35	C	-4.151815	-0.111434	-0.098671
C36	C	-4.095519	-0.118991	-0.011320
H37	H	-4.014694	0.033267	-0.983076
C38	C	-3.937121	0.043457	-0.819210
N39	N	-3.887773	0.110357	-0.775799
H40	H	-3.918065	-0.237471	-0.493692
H41	H	-3.916845	0.007759	-0.737658
C42	C	-3.815682	0.106350	-0.609837
N43	N	-3.793999	0.179130	-0.634418
C44	C	-4.187170	-0.295645	-1.039289
N45	N	-4.236490	-0.362542	-1.082702
C46	C	-3.745604	0.091440	-0.437481
N47	N	-3.696286	0.158333	-0.394064
H48	H	-3.978647	-0.224593	-0.642584
C49	C	-4.023442	-0.237068	-0.730626
N50	N	-4.045119	-0.309839	-0.706031
H51	H	-4.109623	-0.285449	-0.875409
