data_functionalizedCrystal
_audit_creation_method	'MofGen! by Chris Wilmer'
_symmetry_space_group_name_H-M	'P1'
_symmetry_Int_Tables_number	1
_symmetry_cell_setting	triclinic
loop_
_symmetry_equiv_pos_as_xyz
  x,y,z
_cell_length_a	19.121112
_cell_length_b	18.215405
_cell_length_c	19.121242
_cell_angle_alpha	87.589832
_cell_angle_beta	85.216444
_cell_angle_gamma	92.420935
loop_
_atom_site_label
_atom_site_type_symbol
_atom_site_fract_x
_atom_site_fract_y
_atom_site_fract_z
Zn1	Zn	1.092599	0.361733	-0.443640
Zn2	Zn	1.592599	0.861733	0.056360
Zn3	Zn	1.087506	0.479319	-0.325970
Zn4	Zn	1.587506	0.979319	0.174030
Zn5	Zn	0.969930	0.350784	-0.320981
Zn6	Zn	1.469930	0.850784	0.179019
Zn7	Zn	0.974900	0.479267	-0.438582
Zn8	Zn	1.474900	0.979267	0.061418
O9	O	1.031234	0.417776	-0.382293
O10	O	1.531234	0.917776	0.117707
O11	O	1.190386	0.381936	-0.432236
O12	O	1.690386	0.881936	0.067764
O13	O	1.067698	0.457707	-0.226846
O14	O	1.567698	0.957707	0.273154
O15	O	0.986254	0.249255	-0.337280
O16	O	1.486254	0.749255	0.162720
O17	O	1.186645	0.468325	-0.345784
O18	O	1.686645	0.968325	0.154216
O19	O	1.076378	0.257300	-0.427398
O20	O	1.576378	0.757300	0.072602
O21	O	0.981315	0.363273	-0.223181
O22	O	1.481315	0.863273	0.276819
O23	O	0.872126	0.363223	-0.332376
O24	O	1.372126	0.863223	0.167624
O25	O	0.994725	0.468237	-0.537715
O26	O	1.494725	0.968237	-0.037715
O27	O	0.875778	0.457619	-0.418778
O28	O	1.375778	0.957619	0.081222
O29	O	1.081197	0.381886	-0.541431
O30	O	1.581197	0.881886	-0.041431
O31	O	1.072517	0.582293	-0.340880
O32	O	1.572517	1.082293	0.159120
O33	O	0.989786	0.582255	-0.423615
O34	O	1.489786	1.082255	0.076385
C35	C	0.848422	0.409228	-0.374487
C36	C	1.348422	0.909228	0.125513
C37	C	0.770214	0.405590	-0.371164
C38	C	1.270214	0.905590	0.128836
C39	C	1.031158	0.608977	-0.382256
C40	C	1.531158	1.108977	0.117744
C41	C	1.031191	0.690778	-0.382267
C42	C	1.531191	1.190778	0.117733
C43	C	0.327794	0.382509	-0.350118
C44	C	0.827794	0.882509	0.149882
C45	C	0.401278	0.385932	-0.353244
C46	C	0.901278	0.885932	0.146756
C47	C	0.439934	0.436864	-0.399719
C48	C	0.939934	0.936864	0.100281
C49	C	0.405103	0.484372	-0.443075
C50	C	0.905103	0.984372	0.056925
C51	C	0.331620	0.480945	-0.439952
C52	C	0.831620	0.980945	0.060048
C53	C	0.661900	0.449670	-0.411398
C54	C	1.161900	0.949670	0.088602
C55	C	0.735388	0.453095	-0.414516
C56	C	1.235388	0.953095	0.085484
C57	C	0.731558	0.354654	-0.324686
C58	C	1.231558	0.854654	0.175314
C59	C	0.658074	0.351234	-0.321564
C60	C	1.158074	0.851234	0.178436
C61	C	0.623249	0.398739	-0.364923
C62	C	1.123249	0.898739	0.135077
C63	C	0.515047	0.440366	-0.402914
C64	C	1.015047	0.940366	0.097086
C65	C	0.548138	0.395234	-0.361731
C66	C	1.048138	0.895234	0.138269
C67	C	1.039083	0.426277	-0.565817
C68	C	1.539083	0.926277	-0.065817
C69	C	1.042429	0.429900	-0.644024
C70	C	1.542429	0.929900	-0.144024
C71	C	1.214760	0.426357	-0.390130
C72	C	1.714760	0.926357	0.109870
C73	C	1.292968	0.430014	-0.393470
C74	C	1.792968	0.930014	0.106530
C75	C	1.031330	0.225829	-0.382347
C76	C	1.531330	0.725829	0.117653
C77	C	1.031370	0.144033	-0.382369
C78	C	1.531370	0.644033	0.117631
C79	C	1.074378	0.878976	-0.339273
C80	C	1.574378	1.378976	0.160727
C81	C	1.074410	0.955837	-0.339292
C82	C	1.574410	1.455837	0.160708
C83	C	0.988181	0.955830	-0.425368
C84	C	1.488181	1.455830	0.074632
C85	C	0.988154	0.878971	-0.425352
C86	C	1.488154	1.378971	0.074648
C87	C	1.031251	0.840545	-0.382301
C88	C	1.531251	1.340545	0.117699
C89	C	1.031311	0.994266	-0.382335
C90	C	1.531311	1.494266	0.117665
C91	C	1.031345	1.077602	-0.382355
C92	C	1.531345	1.577602	0.117645
C93	C	1.031217	0.757204	-0.382282
C94	C	1.531217	1.257204	0.117718
C95	C	1.063643	0.452894	-1.086444
C96	C	1.563643	0.952894	-0.586444
C97	C	1.060490	0.449485	-1.012960
C98	C	1.560490	0.949485	-0.512960
C99	C	1.013942	0.398611	-0.974317
C100	C	1.513942	0.898611	-0.474317
C101	C	0.970541	0.351147	-1.009163
C102	C	1.470541	0.851147	-0.509163
C103	C	0.973691	0.354560	-1.082645
C104	C	1.473691	0.854560	-0.582645
C105	C	1.002177	0.385849	-0.752352
C106	C	1.502177	0.885849	-0.252352
C107	C	0.999032	0.382438	-0.678864
C108	C	1.499032	0.882438	-0.178864
C109	C	1.088980	0.480778	-0.682667
C110	C	1.588980	0.980778	-0.182667
C111	C	1.092129	0.484183	-0.756151
C112	C	1.592129	0.984183	-0.256151
C113	C	1.048725	0.436722	-0.790989
C114	C	1.548725	0.936722	-0.290989
C115	C	1.010720	0.395123	-0.899205
C116	C	1.510720	0.895123	-0.399205
C117	C	1.051945	0.440214	-0.866101
C118	C	1.551945	0.940214	-0.366101
C119	C	1.023455	0.409256	-0.199485
C120	C	1.523455	0.909256	0.300515
C121	C	1.020246	0.405433	-0.121284
C122	C	1.520246	0.905433	0.378716
H123	H	0.296325	0.341035	-0.312273
H124	H	0.796325	0.841035	0.187727
H125	H	1.109471	0.847692	-0.304220
H126	H	1.609471	1.347692	0.195780
H127	H	0.966833	0.347204	-0.780708
H128	H	1.466833	0.847204	-0.280708
N129	N	0.436841	0.337401	-0.308955
N130	N	0.936841	0.837401	0.191045
N131	N	0.402319	0.291934	-0.267459
N132	N	0.902319	0.791934	0.232541
H133	H	0.427434	0.257657	-0.236176
H134	H	0.927434	0.757657	0.263824
N135	N	1.099504	0.492163	-0.905573
N136	N	1.599504	0.992163	-0.405573
N137	N	1.164081	0.489926	-0.900141
N138	N	1.664081	0.989926	-0.400141
H139	H	1.197674	0.526611	-0.928025
H140	H	1.697674	1.026611	-0.428025
N141	N	1.133310	0.529248	-0.647069
N142	N	1.633310	1.029248	-0.147069
N143	N	1.130495	0.526196	-0.581460
N144	N	1.630495	1.026196	-0.081460
H145	H	1.161803	0.560431	-0.556317
H146	H	1.661803	1.060431	-0.056317
N147	N	0.618605	0.299195	-0.274092
N148	N	1.118605	0.799195	0.225908
N149	N	0.627048	0.231902	-0.279230
N150	N	1.127048	0.731902	0.220770
H151	H	0.599174	0.195148	-0.245699
H152	H	1.099174	0.695148	0.254301
N153	N	0.296032	0.529473	-0.484223
N154	N	0.796032	1.029473	0.015777
N155	N	0.230423	0.526408	-0.481428
N156	N	0.730423	1.026408	0.018572
H157	H	0.205288	0.560680	-0.512697
H158	H	0.705288	1.060680	-0.012697
H159	H	0.953092	0.987125	-0.460417
H160	H	1.453092	1.487125	0.039583
N161	N	0.508656	0.343198	-0.314270
N162	N	1.008656	0.843198	0.185730
N163	N	0.468739	0.295584	-0.337372
N164	N	0.968739	0.795584	0.162628
H165	H	0.440849	0.258835	-0.303851
H166	H	0.940849	0.758835	0.196149
N167	N	1.118472	0.995081	-0.295339
N168	N	1.618472	1.495081	0.204661
N169	N	1.156949	0.960761	-0.256910
N170	N	1.656949	1.460761	0.243090
H171	H	1.188071	0.988476	-0.225867
H172	H	1.688071	1.488476	0.274133
N173	N	0.944099	0.839699	-0.469300
N174	N	1.444099	1.339699	0.030700
N175	N	0.944084	0.771075	-0.469281
N176	N	1.444084	1.271075	0.030719
H177	H	0.912975	0.743338	-0.500320
H178	H	1.412975	1.243338	-0.000320
H179	H	0.932638	0.309727	-0.977694
H180	H	1.432638	0.809727	-0.477694
N181	N	0.774873	0.505110	-0.462009
N182	N	1.274873	1.005110	0.037991
N183	N	0.817814	0.483276	-0.508631
N184	N	1.317814	0.983276	-0.008631
H185	H	0.845700	0.520008	-0.542173
H186	H	1.345700	1.020008	-0.042173
H187	H	1.101550	0.494319	-1.117902
H188	H	1.601550	0.994319	-0.617902
H189	H	0.972821	0.353700	-0.867734
H190	H	1.472821	0.853700	-0.367734
H191	H	1.095819	0.488142	-0.984596
H192	H	1.595819	0.988142	-0.484596
N193	N	0.554536	0.492405	-0.450369
N194	N	1.054536	0.992405	0.049631
N195	N	0.546106	0.559700	-0.445223
N196	N	1.046106	1.059700	0.054777
H197	H	0.573999	0.596453	-0.478738
H198	H	1.073999	1.096453	0.021262
H199	H	1.130032	0.525611	-0.787609
H200	H	1.630032	1.025611	-0.287609
N201	N	0.767142	0.306138	-0.280402
N202	N	1.267142	0.806138	0.219598
N203	N	0.832751	0.309202	-0.283193
N204	N	1.332751	0.809202	0.216807
H205	H	0.857884	0.274935	-0.251917
H206	H	1.357884	0.774935	0.248083
H207	H	0.633555	0.488355	-0.446701
H208	H	1.133555	0.988355	0.053299
H209	H	0.961128	0.341005	-0.647403
H210	H	1.461128	0.841005	-0.147403
N211	N	0.929354	0.306077	-1.118225
N212	N	1.429354	0.806077	-0.618225
N213	N	0.887795	0.260657	-1.083716
N214	N	1.387795	0.760657	-0.583716
H215	H	0.856478	0.226417	-1.108843
H216	H	1.356478	0.726417	-0.608843
H217	H	0.436583	0.525839	-0.480919
H218	H	0.936583	1.025839	0.019081
