data_functionalizedCrystal
_audit_creation_method	'MofGen! by Chris Wilmer'
_symmetry_space_group_name_H-M	'P1'
_symmetry_Int_Tables_number	1
_symmetry_cell_setting	triclinic
loop_
_symmetry_equiv_pos_as_xyz
  x,y,z
_cell_length_a	15.297327
_cell_length_b	19.077105
_cell_length_c	19.076919
_cell_angle_alpha	89.923776
_cell_angle_beta	101.510342
_cell_angle_gamma	82.181934
loop_
_atom_site_label
_atom_site_type_symbol
_atom_site_fract_x
_atom_site_fract_y
_atom_site_fract_z
Zn1	Zn	-0.436205	-0.997096	-0.496821
Zn2	Zn	0.063795	-0.497096	0.003179
Zn3	Zn	-0.581179	-0.981405	-0.398060
Zn4	Zn	-0.081179	-0.481405	0.101940
Zn5	Zn	-0.424127	-0.886008	-0.373052
Zn6	Zn	0.075873	-0.386008	0.126948
Zn7	Zn	-0.580636	-0.859303	-0.510742
Zn8	Zn	-0.080636	-0.359303	-0.010742
O9	O	-0.505537	-0.930953	-0.444669
O10	O	-0.005537	-0.430953	0.055331
O11	O	-0.460719	-1.092606	-0.488360
O12	O	0.039281	-0.592606	0.011640
O13	O	-0.555519	-0.973359	-0.295787
O14	O	-0.055519	-0.473359	0.204213
O15	O	-0.299557	-0.918487	-0.373179
O16	O	0.200443	-0.418487	0.126821
O17	O	-0.567231	-1.081077	-0.415800
O18	O	-0.067231	-0.581077	0.084200
O19	O	-0.308431	-1.000103	-0.464111
O20	O	0.191569	-0.500103	0.035889
O21	O	-0.440133	-0.903272	-0.277414
O22	O	0.059867	-0.403272	0.222586
O23	O	-0.439605	-0.784875	-0.386678
O24	O	0.060395	-0.284875	0.113322
O25	O	-0.566304	-0.872972	-0.607851
O26	O	-0.066304	-0.372972	-0.107851
O27	O	-0.554592	-0.765254	-0.487838
O28	O	-0.054592	-0.265254	0.012162
O29	O	-0.460192	-0.974208	-0.597623
O30	O	0.039808	-0.474208	-0.097623
O31	O	-0.707279	-0.947464	-0.429299
O32	O	-0.207279	-0.447464	0.070701
O33	O	-0.706880	-0.857757	-0.512086
O34	O	-0.206880	-0.357757	-0.012086
C35	C	-0.495730	-0.749760	-0.436055
C36	C	0.004270	-0.249760	0.063945
C37	C	-0.491557	-0.672241	-0.432390
C38	C	0.008443	-0.172241	0.067610
C39	C	-0.739796	-0.898028	-0.474933
C40	C	-0.239796	-0.398028	0.025067
C41	C	-0.840018	-0.884005	-0.487907
C42	C	-0.340018	-0.384005	0.012093
C43	C	-0.514535	-0.922362	-0.629112
C44	C	-0.014535	-0.422362	-0.129112
C45	C	-0.518369	-0.918700	-0.707711
C46	C	-0.018369	-0.418700	-0.207711
C47	C	-1.123247	-1.031451	-0.352197
C48	C	-0.623247	-0.531451	0.147803
C49	C	-1.029084	-1.044626	-0.340004
C50	C	-0.529084	-0.544626	0.159996
C51	C	-0.981812	-1.004472	-0.376979
C52	C	-0.481812	-0.504472	0.123021
C53	C	-1.028714	-0.951141	-0.426149
C54	C	-0.528714	-0.451141	0.073851
C55	C	-1.122886	-0.937961	-0.438339
C56	C	-0.622886	-0.437961	0.061661
C57	C	-0.981452	-0.910982	-0.463121
C58	C	-0.481452	-0.410982	0.036879
C59	C	-1.028353	-0.857651	-0.512291
C60	C	-0.528353	-0.357651	-0.012291
C61	C	-1.122517	-0.844474	-0.524480
C62	C	-0.622517	-0.344474	-0.024480
C63	C	-1.169788	-0.884628	-0.487505
C64	C	-0.669788	-0.384628	0.012495
C65	C	-0.887280	-0.924162	-0.450930
C66	C	-0.387280	-0.424162	0.049070
C67	C	-0.886919	-0.830672	-0.537073
C68	C	-0.386919	-0.330672	-0.037073
C69	C	-0.981082	-0.817497	-0.549266
C70	C	-0.481082	-0.317497	-0.049266
C71	C	-0.270365	-0.964025	-0.414303
C72	C	0.229635	-0.464025	0.085697
C73	C	-0.170148	-0.978118	-0.401362
C74	C	0.329852	-0.478118	0.098638
C75	C	-0.515383	-1.112853	-0.453317
C76	C	-0.015383	-0.612853	0.046683
C77	C	-0.519579	-1.190368	-0.457002
C78	C	-0.019579	-0.690368	0.042998
C79	C	-0.549547	-0.625617	-0.483277
C80	C	-0.049547	-0.125617	0.016723
C81	C	-0.545614	-0.552781	-0.479834
C82	C	-0.045614	-0.052781	0.020166
C83	C	-0.483695	-0.526571	-0.425502
C84	C	0.016305	-0.026571	0.074498
C85	C	-0.425698	-0.573201	-0.374613
C86	C	0.074302	-0.073201	0.125387
C87	C	-0.429627	-0.646036	-0.378058
C88	C	0.070373	-0.146036	0.121942
C89	C	-0.465511	-0.309833	-0.409558
C90	C	0.034489	0.190167	0.090442
C91	C	-0.461589	-0.236992	-0.406115
C92	C	0.038411	0.263008	0.093885
C93	C	-0.581504	-0.216578	-0.511338
C94	C	-0.081504	0.283422	-0.011338
C95	C	-0.585431	-0.289415	-0.514776
C96	C	-0.085431	0.210585	-0.014776
C97	C	-0.527431	-0.336039	-0.463889
C98	C	-0.027431	0.163961	0.036111
N99	N	-0.479676	-0.452121	-0.421981
N100	N	0.020324	0.047879	0.078019
N101	N	-0.531447	-0.410488	-0.467414
N102	N	-0.031447	0.089512	0.032586
C103	C	-0.464926	-0.969686	-0.739314
C104	C	0.035074	-0.469686	-0.239314
C105	C	-0.468525	-0.966238	-0.813165
C106	C	0.031475	-0.466238	-0.313165
C107	C	-0.525572	-0.911807	-0.855413
C108	C	-0.025572	-0.411807	-0.355413
C109	C	-0.579017	-0.860816	-0.823806
C110	C	-0.079017	-0.360816	-0.323806
C111	C	-0.575413	-0.864262	-0.749955
C112	C	-0.075413	-0.364262	-0.249955
C113	C	-0.542271	-0.895847	-1.076853
C114	C	-0.042271	-0.395847	-0.576853
C115	C	-0.545873	-0.892406	-1.150709
C116	C	-0.045873	-0.392406	-0.650709
C117	C	-0.435379	-0.997828	-1.140063
C118	C	0.064621	-0.497828	-0.640063
C119	C	-0.431784	-1.001271	-1.066212
C120	C	0.068216	-0.501271	-0.566212
C121	C	-0.485225	-0.950279	-1.034610
C122	C	0.014775	-0.450279	-0.534610
N123	N	-0.529254	-0.908282	-0.930901
N124	N	-0.029254	-0.408282	-0.430901
N125	N	-0.481538	-0.953801	-0.959123
N126	N	0.018462	-0.453801	-0.459123
C127	C	-0.496511	-0.939560	-0.260936
C128	C	0.003489	-0.439560	0.239064
C129	C	-0.492430	-0.943392	-0.182311
C130	C	0.007570	-0.443392	0.317689
H131	H	-0.849101	-0.967585	-0.410896
H132	H	-0.349101	-0.467585	0.089104
F133	F	-0.639728	-0.802884	-0.868771
F134	F	-0.139728	-0.302884	-0.368771
H135	H	-0.592330	-0.848079	-1.185107
H136	H	-0.092330	-0.348079	-0.685107
H137	H	-0.635854	-0.310749	-0.559018
H138	H	-0.135854	0.189251	-0.059018
F139	F	-0.359793	-0.545304	-0.316791
F140	F	0.140207	-0.045304	0.183209
F141	F	-0.599149	-0.841575	-1.043230
F142	F	-0.099149	-0.341575	-0.543230
F143	F	-1.173561	-1.074177	-0.312850
F144	F	-0.673561	-0.574177	0.187150
H145	H	-0.418475	-1.014012	-0.704920
H146	H	0.081525	-0.514012	-0.204920
H147	H	-0.391869	-1.039343	-1.165801
H148	H	0.108131	-0.539343	-0.665801
F149	F	-0.615455	-0.653504	-0.541102
F150	F	-0.115455	-0.153504	-0.041102
F151	F	-1.031009	-0.760740	-0.601595
F152	F	-0.531009	-0.260740	-0.101595
F153	F	-0.643228	-0.166952	-0.565491
F154	F	-0.143228	0.333048	-0.065491
H155	H	-0.425008	-1.007757	-0.838892
H156	H	0.074992	-0.507757	-0.338892
F157	F	-0.367904	-0.695657	-0.323899
F158	F	0.132096	-0.195657	0.176101
H159	H	-0.385332	-1.045597	-1.031818
H160	H	0.114668	-0.545597	-0.531818
F161	F	-0.881611	-1.018638	-0.364159
F162	F	-0.381611	-0.518638	0.135841
H163	H	-0.592837	-0.514822	-0.521271
H164	H	-0.092837	-0.014822	-0.021271
H165	H	-0.990900	-1.088047	-0.299969
H166	H	-0.490900	-0.588047	0.200031
F167	F	-1.269985	-0.870397	-0.500244
F168	F	-0.769985	-0.370397	-0.000244
H169	H	-0.411156	-0.215656	-0.361874
H170	H	0.088844	0.284344	0.138126
H171	H	-0.618923	-0.822738	-0.724225
H172	H	-0.118923	-0.322738	-0.224225
H173	H	-1.160700	-0.801040	-0.564509
H174	H	-0.660700	-0.301040	-0.064509
F175	F	-0.403780	-0.359446	-0.355401
F176	F	0.096220	0.140554	0.144599
F177	F	-0.836614	-0.787931	-0.576423
F178	F	-0.336614	-0.287931	-0.076423
