data_functionalizedCrystal
_audit_creation_method	'MofGen! by Chris Wilmer'
_symmetry_space_group_name_H-M	'P1'
_symmetry_Int_Tables_number	1
_symmetry_cell_setting	triclinic
loop_
_symmetry_equiv_pos_as_xyz
  x,y,z
_cell_length_a	12.837943
_cell_length_b	12.837942
_cell_length_c	7.681481
_cell_angle_alpha	83.650030
_cell_angle_beta	96.334007
_cell_angle_gamma	94.828940
loop_
_atom_site_label
_atom_site_type_symbol
_atom_site_fract_x
_atom_site_fract_y
_atom_site_fract_z
O1	O	1.393419	0.281072	-0.146397
O2	O	1.090285	0.267629	-0.146407
O3	O	1.235131	0.122783	-0.146391
O4	O	1.248573	0.425918	-0.146413
O5	O	1.252954	0.104910	0.146468
O6	O	1.108108	0.249756	0.146453
O7	O	1.411242	0.263199	0.146463
Zn8	Zn	1.262505	0.253640	0.192956
Zn9	Zn	1.239022	0.277188	-0.192900
O10	O	1.266396	0.408045	0.146447
C11	C	1.060127	0.254151	0.000021
C12	C	0.943712	0.240607	0.000018
C13	C	0.718839	0.403435	0.000031
C14	C	0.609456	0.390714	0.000029
C15	C	0.615563	0.202444	0.000024
C16	C	0.724946	0.215165	0.000026
C17	C	0.776579	0.315664	0.000027
C18	C	0.885963	0.328385	0.000017
C19	C	0.892069	0.140114	0.000024
C20	C	0.782686	0.127393	0.000022
C21	C	1.239501	0.074777	0.000037
C22	C	1.225956	-0.041637	0.000034
C23	C	1.388784	-0.266510	0.000003
C24	C	1.376062	-0.375892	-0.000001
C25	C	1.187792	-0.369785	0.000011
C26	C	1.200513	-0.260403	0.000015
C27	C	1.301013	-0.208769	0.000013
C28	C	1.313734	-0.099386	0.000029
C29	C	1.125464	-0.093281	0.000028
C30	C	1.112742	-0.202663	0.000025
C31	C	1.441400	0.276677	0.000030
C32	C	1.557814	0.290222	0.000023
C33	C	1.262026	0.456051	0.000015
C34	C	1.275570	0.572466	0.000006
N35	N	1.278540	0.237569	0.456292
N36	N	1.222995	0.293252	-0.456236
H37	H	0.573513	0.120612	0.000168
H38	H	1.166294	0.350086	0.468561
H39	H	0.562448	0.462187	0.000038
O40	O	0.941652	0.436778	0.000034
H41	H	0.984068	0.454381	-0.119335
H42	H	1.105969	-0.411844	-0.000006
H43	H	1.030918	-0.244718	0.000019
H44	H	1.335253	0.180738	0.531504
H45	H	0.760879	0.485266	0.000030
O46	O	1.030783	-0.031011	0.000047
H47	H	1.024794	0.026257	-0.119317
O48	O	0.726995	0.019001	0.000021
H49	H	0.641233	0.024899	0.000012
H50	H	1.470615	-0.224470	0.000019
O51	O	0.954344	0.045435	0.000029
H52	H	1.039081	0.071160	0.000041
H53	H	1.447535	-0.422900	-0.000014
O54	O	1.422122	-0.043686	0.000005
H55	H	1.481015	-0.102216	-0.000028
