data_functionalizedCrystal
_audit_creation_method	'MofGen! by Chris Wilmer'
_symmetry_space_group_name_H-M	'P1'
_symmetry_Int_Tables_number	1
_symmetry_cell_setting	triclinic
loop_
_symmetry_equiv_pos_as_xyz
  x,y,z
_cell_length_a	12.594517
_cell_length_b	12.594516
_cell_length_c	12.759387
_cell_angle_alpha	89.971162
_cell_angle_beta	90.016188
_cell_angle_gamma	89.973312
loop_
_atom_site_label
_atom_site_type_symbol
_atom_site_fract_x
_atom_site_fract_y
_atom_site_fract_z
Zn1	Zn	1.627208	0.423687	0.593898
Zn2	Zn	1.627060	0.601705	0.418225
Zn3	Zn	1.449206	0.423740	0.418248
Zn4	Zn	1.449161	0.601624	0.593877
O5	O	1.538158	0.512689	0.506062
O6	O	1.776134	0.447313	0.570594
O7	O	1.603424	0.578153	0.271207
O8	O	1.472899	0.274788	0.441567
O9	O	1.776025	0.578102	0.441527
O10	O	1.603676	0.274749	0.570617
O11	O	1.472755	0.447404	0.271224
O12	O	1.300254	0.447326	0.441547
O13	O	1.472822	0.577964	0.740901
O14	O	1.300221	0.578016	0.570581
O15	O	1.603633	0.447235	0.740917
O16	O	1.603380	0.750640	0.441507
O17	O	1.472678	0.750581	0.570558
C18	C	1.261617	0.512669	0.506065
C19	C	1.143312	0.512685	0.506091
C20	C	1.003308	0.583897	0.576142
C21	C	1.074071	0.609808	0.480256
C22	C	1.074121	0.486821	0.601965
C23	C	1.003289	0.538682	0.410123
C24	C	1.003333	0.415650	0.531897
C25	C	1.074064	0.441524	0.435945
C26	C	1.538037	0.789230	0.506050
C27	C	1.538083	0.907536	0.506080
C28	C	1.466974	0.976795	0.576221
C29	C	1.441024	1.047664	0.480356
C30	C	1.564090	1.047465	0.601961
C31	C	1.512082	0.976847	0.410164
C32	C	1.635193	0.976641	0.531833
C33	C	1.609280	1.047479	0.435902
C34	C	1.815779	0.512711	0.506060
C35	C	1.934085	0.512720	0.506059
C36	C	1.538239	0.512585	0.780096
C37	C	1.538273	0.512540	0.896872
C38	C	1.538262	1.235068	0.506096
C39	C	1.538187	1.116763	0.506106
C40	C	1.538140	0.512716	0.233095
C41	C	1.538312	0.512461	0.116318
C42	C	1.674495	0.376421	0.896908
C43	C	1.742621	0.308345	0.951787
C44	C	1.742647	0.308306	1.061509
C45	C	1.674537	0.376348	1.116354
C46	C	1.606411	0.444424	1.061475
C47	C	1.606395	0.444458	0.951751
C48	C	1.470186	0.580537	1.061440
C49	C	1.470163	0.580582	0.951718
C50	C	1.402076	0.648579	1.116285
C51	C	1.333954	0.716661	1.061406
C52	C	1.333932	0.716698	0.951678
C53	C	1.402038	0.648658	0.896839
H54	H	0.972237	0.333598	0.553772
Cl55	Cl	0.955337	0.676917	0.667510
H56	H	1.402098	0.648538	1.205626
Cl57	Cl	1.402020	0.648703	0.758902
H58	H	1.105142	0.691884	0.458408
H59	H	1.278499	0.772050	1.106070
Cl60	Cl	1.122160	0.453022	0.727165
H61	H	1.278443	0.772122	0.907002
Cl62	Cl	1.121720	0.348560	0.344364
Cl63	Cl	0.955461	0.572629	0.284884
Cl64	Cl	1.674563	0.376288	1.254291
H65	H	1.406749	0.945758	0.635451
H66	H	1.358950	1.078884	0.458595
H67	H	1.586046	1.078486	0.683035
H68	H	1.798114	0.252867	1.106191
Cl69	Cl	1.674483	0.376479	0.758972
H70	H	1.798073	0.252945	0.907120
H71	H	1.669458	1.078319	0.376529
Cl72	Cl	1.478039	0.929158	0.284954
Cl73	Cl	1.761881	0.928439	0.565502
