data_functionalizedCrystal
_audit_creation_method	'MofGen! by Chris Wilmer'
_symmetry_space_group_name_H-M	'P1'
_symmetry_Int_Tables_number	1
_symmetry_cell_setting	triclinic
loop_
_symmetry_equiv_pos_as_xyz
  x,y,z
_cell_length_a	16.959455
_cell_length_b	25.639240
_cell_length_c	25.639234
_cell_angle_alpha	89.967912
_cell_angle_beta	89.980540
_cell_angle_gamma	90.029705
loop_
_atom_site_label
_atom_site_type_symbol
_atom_site_fract_x
_atom_site_fract_y
_atom_site_fract_z
Zn1	Zn	1.208354	-0.208225	-0.295578
Zn2	Zn	1.208236	-0.295653	-0.208132
Zn3	Zn	1.076171	-0.208229	-0.208157
Zn4	Zn	1.076118	-0.295627	-0.295537
O5	O	1.142220	-0.251934	-0.251851
O6	O	1.318949	-0.219832	-0.283985
O7	O	1.190689	-0.284069	-0.134970
O8	O	1.093777	-0.135063	-0.219782
O9	O	1.318862	-0.284065	-0.219738
O10	O	1.190891	-0.135061	-0.284010
O11	O	1.093662	-0.219839	-0.134989
O12	O	0.965553	-0.219813	-0.219742
O13	O	1.093687	-0.284020	-0.368707
O14	O	0.965514	-0.284024	-0.283939
O15	O	1.190840	-0.219806	-0.368738
O16	O	1.190638	-0.368815	-0.219698
O17	O	1.093572	-0.368796	-0.283914
C18	C	0.936853	-0.251916	-0.251839
C19	C	0.848997	-0.251922	-0.251846
C20	C	0.477517	-0.218472	-0.218493
C21	C	0.477525	-0.285439	-0.285238
C22	C	0.560071	-0.285431	-0.285235
C23	C	0.601344	-0.251944	-0.251860
C24	C	0.560070	-0.218464	-0.218488
C25	C	0.601351	-0.318914	-0.318603
C26	C	0.683902	-0.318908	-0.318601
C27	C	0.725176	-0.285418	-0.285228
C28	C	0.683897	-0.251937	-0.251855
C29	C	0.725170	-0.218449	-0.218479
C30	C	0.683893	-0.184965	-0.185109
C31	C	0.601344	-0.184974	-0.185115
C32	C	0.807724	-0.285409	-0.285221
C33	C	0.807723	-0.218442	-0.218474
C34	C	1.142108	-0.387776	-0.251810
C35	C	1.142132	-0.445890	-0.251810
C36	C	1.192812	-0.806213	-0.285355
C37	C	1.192836	-0.860818	-0.285365
O38	O	1.235792	-0.889020	-0.313844
N39	N	1.142329	-0.888173	-0.251901
C40	C	1.091791	-0.860921	-0.218429
O41	O	1.048833	-0.889202	-0.189966
C42	C	1.091764	-0.806317	-0.218421
C43	C	1.142279	-0.778965	-0.251883
C44	C	1.243323	-0.778861	-0.318815
C45	C	1.243300	-0.724260	-0.318803
C46	C	1.192767	-0.697012	-0.285332
C47	C	1.142257	-0.724365	-0.251872
C48	C	1.041222	-0.779066	-0.184951
C49	C	1.041199	-0.724459	-0.184947
C50	C	1.091714	-0.697107	-0.218409
C51	C	1.091701	-0.642516	-0.218389
N52	N	1.142208	-0.615161	-0.251853
C53	C	1.192741	-0.642409	-0.285324
C54	C	1.091850	-0.975591	-0.218448
C55	C	1.091880	-1.030194	-0.218452
C56	C	1.192924	-1.030087	-0.285390
C57	C	1.192897	-0.975483	-0.285382
C58	C	1.142356	-0.948236	-0.251912
C59	C	1.192690	-0.527744	-0.285297
C60	C	1.192665	-0.473139	-0.285281
C61	C	1.091619	-0.473250	-0.218346
C62	C	1.091646	-0.527851	-0.218360
C63	C	1.142184	-0.555096	-0.251840
O64	O	1.048764	-0.614278	-0.189926
O65	O	1.235684	-0.614121	-0.313786
C66	C	1.348388	-0.251951	-0.251863
C67	C	1.436244	-0.251959	-0.251868
C68	C	1.142271	-0.251910	-0.388224
C69	C	1.142293	-0.251900	-0.446338
C70	C	1.142353	-0.115561	-0.251903
C71	C	1.142410	-0.057447	-0.251926
C72	C	1.091793	-0.218393	-0.806717
C73	C	1.091797	-0.218383	-0.861321
O74	O	1.048820	-0.189952	-0.889571
N75	N	1.142319	-0.251818	-0.888621
C76	C	1.192834	-0.285267	-0.861313
O77	O	1.235807	-0.313705	-0.889548
C78	C	1.192826	-0.285279	-0.806710
C79	C	1.142306	-0.251839	-0.779413
C80	C	1.041277	-0.184955	-0.779420
C81	C	1.041274	-0.184964	-0.724819
C82	C	1.091787	-0.218411	-0.697515
C83	C	1.142303	-0.251848	-0.724812
C84	C	1.243336	-0.318731	-0.779404
C85	C	1.243323	-0.318740	-0.724796
C86	C	1.192803	-0.285300	-0.697500
C87	C	1.192813	-0.285303	-0.642908
N88	N	1.142291	-0.251868	-0.615609
C89	C	1.091778	-0.218422	-0.642912
C90	C	1.192848	-0.285241	-0.975984
C91	C	1.192862	-0.285227	-1.030586
C92	C	1.091823	-0.218343	-1.030590
C93	C	1.091814	-0.218355	-0.975987
C94	C	1.142326	-0.251807	-0.948684
C95	C	1.091776	-0.218443	-0.528247
C96	C	1.091780	-0.218454	-0.473642
C97	C	1.192815	-0.285339	-0.473642
C98	C	1.192815	-0.285327	-0.528243
C99	C	1.142289	-0.251877	-0.555544
O100	O	1.235766	-0.313721	-0.614624
O101	O	1.048805	-0.189994	-0.614671
C102	C	1.142214	-0.251920	-0.116008
C103	C	1.142345	-0.251783	-0.057895
H104	H	0.443906	-0.191208	-0.191325
H105	H	1.050692	-0.191110	-1.052831
O106	O	0.847778	-0.185968	-0.185977
C107	C	0.872951	-0.160443	-0.097089
C108	C	0.827554	-0.197259	-0.133832
H109	H	0.856604	-0.169551	-0.054922
H110	H	0.939050	-0.166192	-0.102769
H111	H	0.856764	-0.118301	-0.106381
H112	H	0.843675	-0.239415	-0.124563
H113	H	0.761466	-0.191465	-0.128145
H114	H	1.234009	-0.312452	-1.052807
O115	O	1.042848	-0.185819	-0.949450
C116	C	1.032256	-0.115259	-0.887805
C117	C	1.087806	-0.152066	-0.917830
H118	H	1.068582	-0.087968	-0.862225
H119	H	0.996173	-0.091316	-0.916681
H120	H	0.990878	-0.139276	-0.862252
H121	H	1.129231	-0.128089	-0.943384
H122	H	1.123833	-0.176011	-0.888925
O123	O	0.437519	-0.317936	-0.317732
C124	C	0.412254	-0.343402	-0.406626
C125	C	0.457631	-0.306577	-0.369881
H126	H	0.428485	-0.334224	-0.448796
H127	H	0.428463	-0.385558	-0.397413
H128	H	0.346170	-0.337661	-0.400867
H129	H	0.523726	-0.312271	-0.375619
H130	H	0.441356	-0.264434	-0.379103
O131	O	0.992264	-0.152503	-0.698226
C132	C	0.947411	-0.122897	-0.614117
C133	C	1.002975	-0.159676	-0.644164
H134	H	0.956040	-0.128692	-0.570403
H135	H	0.961329	-0.080725	-0.624833
H136	H	0.883681	-0.132072	-0.624877
H137	H	1.066724	-0.150548	-0.633420
H138	H	0.988990	-0.201838	-0.633445
O139	O	0.723955	-0.152495	-0.152612
C140	C	0.749145	-0.126975	-0.063725
C141	C	0.703735	-0.163785	-0.100466
H142	H	0.732802	-0.136082	-0.021558
H143	H	0.815243	-0.132730	-0.069409
H144	H	0.732967	-0.084831	-0.073015
H145	H	0.719848	-0.205943	-0.091199
H146	H	0.637649	-0.157984	-0.094776
O147	O	0.724080	-0.351356	-0.351046
C148	C	0.817274	-0.358469	-0.421645
C149	C	0.771836	-0.321666	-0.384923
H150	H	0.855883	-0.334479	-0.449051
H151	H	0.855949	-0.385764	-0.397619
H152	H	0.773578	-0.382415	-0.445475
H153	H	0.815475	-0.297686	-0.361086
H154	H	0.733149	-0.294405	-0.408979
O155	O	0.561126	-0.152496	-0.152721
C156	C	0.433949	-0.122801	-0.123182
C157	C	0.479401	-0.159618	-0.159883
H158	H	0.367867	-0.128538	-0.128968
H159	H	0.450082	-0.131916	-0.080990
H160	H	0.450259	-0.080660	-0.132445
H161	H	0.463116	-0.201771	-0.150667
H162	H	0.463264	-0.150458	-0.202064
O163	O	0.561340	-0.351408	-0.351097
C164	C	0.536075	-0.376870	-0.439992
C165	C	0.581459	-0.340051	-0.403246
H166	H	0.552312	-0.367693	-0.482162
H167	H	0.552272	-0.419028	-0.430779
H168	H	0.469992	-0.371122	-0.434236
H169	H	0.647553	-0.345752	-0.408982
H170	H	0.565196	-0.297906	-0.412468
O171	O	1.241741	-0.554150	-0.317891
C172	C	1.280008	-0.570783	-0.406858
C173	C	1.224421	-0.540836	-0.370006
H174	H	1.266014	-0.560039	-0.449001
H175	H	1.343760	-0.560009	-0.397755
H176	H	1.271366	-0.614507	-0.401096
H177	H	1.232993	-0.497106	-0.375748
H178	H	1.160690	-0.551654	-0.379118
H179	H	1.050634	-0.191205	-0.550469
H180	H	0.841328	-0.312673	-0.312390
O181	O	0.992313	-0.152439	-0.805997
C182	C	0.981750	-0.081807	-0.867635
C183	C	1.037290	-0.118611	-0.837583
H184	H	1.018092	-0.054440	-0.893171
H185	H	0.940408	-0.105771	-0.893219
H186	H	0.945628	-0.057939	-0.838729
H187	H	1.073464	-0.142487	-0.866451
H188	H	1.078580	-0.094618	-0.811991
H189	H	1.233804	-0.450870	-0.312530
H190	H	1.050754	-1.052459	-0.191198
O191	O	1.292392	-0.697775	-0.351361
C192	C	1.392647	-0.703453	-0.417733
C193	C	1.337076	-0.733507	-0.380893
H194	H	1.428801	-0.732329	-0.441612
H195	H	1.356363	-0.677904	-0.445083
H196	H	1.433958	-0.677869	-0.393744
H197	H	1.295754	-0.759119	-0.404839
H198	H	1.373409	-0.759023	-0.353541
O199	O	1.292456	-0.805382	-0.351258
C200	C	1.399249	-0.866928	-0.358363
C201	C	1.343633	-0.836940	-0.321564
H202	H	1.440651	-0.892441	-0.334371
H203	H	1.363003	-0.892529	-0.385681
H204	H	1.435303	-0.837980	-0.382284
H205	H	1.307568	-0.865849	-0.297609
H206	H	1.379924	-0.811330	-0.294281
O207	O	1.241986	-0.948996	-0.317940
C208	C	1.342241	-0.954669	-0.384313
C209	C	1.286675	-0.984726	-0.347473
H210	H	1.378398	-0.983543	-0.408192
H211	H	1.305952	-0.929123	-0.411664
H212	H	1.383548	-0.929082	-0.360326
H213	H	1.245357	-1.010341	-0.371418
H214	H	1.323013	-1.010239	-0.320120
H215	H	1.050695	-0.953409	-0.191188
O216	O	1.242001	-0.317750	-0.949545
C217	C	1.342186	-0.384108	-0.955315
C218	C	1.286577	-0.347310	-0.985318
H219	H	1.378228	-0.408024	-0.984225
H220	H	1.383593	-0.360139	-0.929782
H221	H	1.305859	-0.411430	-0.929722
H222	H	1.322840	-0.319980	-1.010940
H223	H	1.245168	-0.371311	-1.010819
O224	O	0.992072	-0.805547	-0.152431
C225	C	0.891867	-0.799866	-0.086027
C226	C	0.947481	-0.769813	-0.122839
H227	H	0.855813	-0.770989	-0.062084
H228	H	0.850473	-0.825418	-0.109986
H229	H	0.928192	-0.825446	-0.058730
H230	H	0.911220	-0.744205	-0.150143
H231	H	0.988878	-0.744294	-0.098846
H232	H	1.234069	-1.052282	-0.312645
O233	O	0.992019	-0.697968	-0.152506
C234	C	0.885310	-0.636360	-0.145397
C235	C	0.940940	-0.666336	-0.182195
H236	H	0.844010	-0.610770	-0.169385
H237	H	0.849155	-0.665268	-0.121494
H238	H	0.921625	-0.610820	-0.118063
H239	H	0.904686	-0.691876	-0.209561
H240	H	0.977098	-0.637400	-0.206062
H241	H	1.050519	-0.550122	-0.191108
O242	O	1.042813	-0.185914	-0.447103
C243	C	1.032232	-0.115352	-0.385459
C244	C	1.087776	-0.152159	-0.415488
H245	H	1.068562	-0.088059	-0.359883
H246	H	0.996142	-0.091410	-0.414333
H247	H	0.990860	-0.139369	-0.359901
H248	H	1.129196	-0.128183	-0.441047
H249	H	1.123811	-0.176103	-0.386586
H250	H	1.050478	-0.451056	-0.191092
H251	H	1.284474	-0.345962	-0.801619
O252	O	1.292465	-0.351254	-0.698356
C253	C	1.392634	-0.417623	-0.704120
C254	C	1.337036	-0.380820	-0.734127
H255	H	1.428673	-0.441545	-0.733028
H256	H	1.434045	-0.393657	-0.678587
H257	H	1.356299	-0.444939	-0.678526
H258	H	1.373308	-0.353496	-0.759749
H259	H	1.295623	-0.404819	-0.759627
H260	H	1.233960	-0.312551	-0.550469
O261	O	1.241764	-0.317884	-0.447089
C262	C	1.252293	-0.388459	-0.385383
C263	C	1.196775	-0.351640	-0.415434
H264	H	1.215942	-0.415753	-0.359774
H265	H	1.288391	-0.412400	-0.414243
H266	H	1.293658	-0.364453	-0.359857
H267	H	1.155362	-0.375605	-0.440961
H268	H	1.160732	-0.327697	-0.386546
