data_functionalizedCrystal
_audit_creation_method	'MofGen! by Chris Wilmer'
_symmetry_space_group_name_H-M	'P1'
_symmetry_Int_Tables_number	1
_symmetry_cell_setting	triclinic
loop_
_symmetry_equiv_pos_as_xyz
  x,y,z
_cell_length_a	23.532407
_cell_length_b	23.532407
_cell_length_c	22.010155
_cell_angle_alpha	89.999577
_cell_angle_beta	89.994271
_cell_angle_gamma	82.848712
loop_
_atom_site_label
_atom_site_type_symbol
_atom_site_fract_x
_atom_site_fract_y
_atom_site_fract_z
O1	O	0.755264	0.069127	-0.050493
O2	O	1.088597	0.402461	0.282840
O3	O	1.421930	0.735794	0.616174
O4	O	0.589400	0.079130	-0.050503
O5	O	0.922734	0.412464	0.282830
O6	O	1.256067	0.745797	0.616163
O7	O	0.677334	-0.008803	-0.050487
O8	O	1.010667	0.324531	0.282847
O9	O	1.344000	0.657864	0.616180
O10	O	0.667330	0.157061	-0.050510
O11	O	1.000664	0.490394	0.282824
O12	O	1.333997	0.823727	0.616157
O13	O	0.677318	-0.008790	0.050564
O14	O	1.010651	0.324544	0.383897
O15	O	1.343984	0.657877	0.717230
O16	O	0.589384	0.079144	0.050547
O17	O	0.922718	0.412477	0.383880
O18	O	1.256051	0.745810	0.717214
O19	O	0.755248	0.069141	0.050557
O20	O	1.088581	0.402474	0.383891
O21	O	1.421914	0.735807	0.717224
Cu22	Cu	0.672315	0.074143	0.059779
Cu23	Cu	1.005648	0.407477	0.393112
Cu24	Cu	1.338981	0.740810	0.726446
Cu25	Cu	0.672333	0.074128	-0.059725
Cu26	Cu	1.005667	0.407461	0.273608
Cu27	Cu	1.339000	0.740794	0.606942
O28	O	0.667314	0.157074	0.050541
O29	O	1.000648	0.490407	0.383874
O30	O	1.333981	0.823740	0.717207
C31	C	0.568176	0.078882	0.000021
C32	C	0.901510	0.412216	0.333354
C33	C	1.234843	0.745549	0.666687
C34	C	0.504959	0.078116	0.000017
C35	C	0.838293	0.411450	0.333350
C36	C	1.171626	0.744783	0.666684
C37	C	0.238792	0.022921	0.000041
C38	C	0.572125	0.356254	0.333375
C39	C	0.905458	0.689588	0.666708
C40	C	0.298192	0.023632	0.000041
C41	C	0.631525	0.356966	0.333374
C42	C	0.964859	0.690299	0.666708
O43	O	0.334937	-0.020153	0.000068
O44	O	0.668270	0.313180	0.333401
O45	O	1.001603	0.646513	0.666735
N46	N	0.320818	0.075909	0.000030
N47	N	0.654152	0.409242	0.333363
N48	N	0.987485	0.742575	0.666696
C49	C	0.284041	0.127477	0.000025
C50	C	0.617374	0.460810	0.333358
C51	C	0.950707	0.794144	0.666691
O52	O	0.308740	0.172007	0.000016
O53	O	0.642074	0.505341	0.333349
O54	O	0.975407	0.838674	0.666682
C55	C	0.224642	0.126765	0.000029
C56	C	0.557975	0.460098	0.333363
C57	C	0.891308	0.793432	0.666696
C58	C	0.202019	0.074485	0.000035
C59	C	0.535352	0.407819	0.333368
C60	C	0.868686	0.741152	0.666701
C61	C	0.216168	-0.029354	0.000047
C62	C	0.549502	0.303979	0.333380
C63	C	0.882835	0.637312	0.666714
C64	C	0.156772	-0.030066	0.000046
C65	C	0.490106	0.303268	0.333380
C66	C	0.823439	0.636601	0.666713
C67	C	0.119999	0.021499	0.000039
C68	C	0.453333	0.354832	0.333373
C69	C	0.786666	0.688165	0.666706
C70	C	0.142623	0.073774	0.000034
C71	C	0.475956	0.407107	0.333367
C72	C	0.809289	0.740441	0.666700
C73	C	0.187865	0.178333	0.000029
C74	C	0.521199	0.511666	0.333362
C75	C	0.854532	0.844999	0.666695
C76	C	0.128463	0.177616	0.000034
C77	C	0.461796	0.510949	0.333367
C78	C	0.795129	0.844283	0.666701
C79	C	0.105840	0.125336	0.000039
C80	C	0.439173	0.458670	0.333372
C81	C	0.772507	0.792003	0.666706
C82	C	0.046454	0.124627	0.000026
C83	C	0.379787	0.457960	0.333359
C84	C	0.713120	0.791294	0.666693
N85	N	0.023828	0.072351	0.000037
N86	N	0.357161	0.405684	0.333371
N87	N	0.690494	0.739017	0.666704
C88	C	0.060600	0.020787	0.000044
C89	C	0.393934	0.354120	0.333377
C90	C	0.727267	0.687453	0.666711
C91	C	0.408783	0.128968	0.000016
C92	C	0.742117	0.462302	0.333349
C93	C	1.075450	0.795635	0.666683
C94	C	0.468181	0.129681	0.000007
C95	C	0.801514	0.463014	0.333340
C96	C	1.134848	0.796348	0.666674
C97	C	0.482328	0.025836	0.000025
C98	C	0.815662	0.359170	0.333358
C99	C	1.148995	0.692503	0.666691
C100	C	0.422929	0.025124	0.000029
C101	C	0.756263	0.358457	0.333362
C102	C	1.089596	0.691791	0.666696
C103	C	0.386157	0.076692	0.000027
C104	C	0.719490	0.410025	0.333361
C105	C	1.052824	0.743359	0.666694
C106	C	-0.064136	0.019297	0.000042
C107	C	0.269197	0.352630	0.333375
C108	C	0.602530	0.685964	0.666708
C109	C	-0.123538	0.018590	0.000038
C110	C	0.209795	0.351924	0.333372
C111	C	0.543128	0.685257	0.666705
C112	C	-0.137680	0.122435	0.000024
C113	C	0.195653	0.455768	0.333357
C114	C	0.528986	0.789101	0.666691
C115	C	-0.078284	0.123142	0.000024
C116	C	0.255050	0.456475	0.333358
C117	C	0.588383	0.789808	0.666691
C118	C	-0.041512	0.071568	0.000035
C119	C	0.291821	0.404901	0.333369
C120	C	0.625154	0.738235	0.666702
O121	O	0.009675	0.168390	0.000001
O122	O	0.343008	0.501723	0.333335
O123	O	0.676341	0.835057	0.666668
O124	O	0.035892	-0.023737	0.000061
O125	O	0.369226	0.309597	0.333395
O126	O	0.702559	0.642930	0.666728
C127	C	0.677071	-0.030012	0.000040
C128	C	1.010404	0.303321	0.333373
C129	C	1.343738	0.636654	0.666707
C130	C	0.676305	-0.093229	0.000045
C131	C	1.009638	0.240104	0.333378
C132	C	1.342972	0.573437	0.666711
C133	C	0.723538	-0.492332	0.000014
C134	C	1.056872	-0.158999	0.333348
C135	C	1.390205	0.174334	0.666681
C136	C	0.722827	-0.551733	0.000010
C137	C	1.056160	-0.218399	0.333343
C138	C	1.389494	0.114934	0.666676
O139	O	0.766613	-0.588477	-0.000010
O140	O	1.099946	-0.255144	0.333323
O141	O	1.433280	0.078190	0.666657
N142	N	0.670551	-0.574359	0.000007
N143	N	1.003884	-0.241025	0.333340
N144	N	1.337217	0.092308	0.666673
C145	C	0.618982	-0.537581	0.000002
C146	C	0.952316	-0.204248	0.333336
C147	C	1.285649	0.129085	0.666669
O148	O	0.574452	-0.562281	-0.000001
O149	O	0.907785	-0.228948	0.333332
O150	O	1.241119	0.104386	0.666666
C151	C	0.619695	-0.478182	0.000003
C152	C	0.953028	-0.144849	0.333336
C153	C	1.286361	0.188485	0.666669
C154	C	0.671974	-0.455559	0.000012
C155	C	1.005308	-0.122226	0.333345
C156	C	1.338641	0.211107	0.666678
C157	C	0.775814	-0.469709	0.000023
C158	C	1.109147	-0.136376	0.333356
C159	C	1.442481	0.196958	0.666689
C160	C	0.776525	-0.410313	0.000028
C161	C	1.109858	-0.076980	0.333362
C162	C	1.443192	0.256354	0.666695
C163	C	0.724961	-0.373540	0.000026
C164	C	1.058294	-0.040207	0.333359
C165	C	1.391628	0.293127	0.666693
C166	C	0.672685	-0.396163	0.000018
C167	C	1.006019	-0.062830	0.333351
C168	C	1.339352	0.270503	0.666684
C169	C	0.568127	-0.441406	-0.000006
C170	C	0.901460	-0.108072	0.333327
C171	C	1.234794	0.225261	0.666661
C172	C	0.568843	-0.382003	-0.000006
C173	C	0.902177	-0.048670	0.333327
C174	C	1.235510	0.284663	0.666661
C175	C	0.621123	-0.359381	0.000003
C176	C	0.954457	-0.026047	0.333336
C177	C	1.287790	0.307286	0.666670
C178	C	0.621832	-0.299994	0.000021
C179	C	0.955166	0.033339	0.333354
C180	C	1.288499	0.366672	0.666687
N181	N	0.674109	-0.277368	0.000024
N182	N	1.007442	0.055965	0.333357
N183	N	1.340775	0.389299	0.666690
C184	C	0.725673	-0.314141	0.000026
C185	C	1.059006	0.019192	0.333360
C186	C	1.392340	0.352526	0.666693
C187	C	0.617491	-0.662324	0.000001
C188	C	0.950824	-0.328990	0.333334
C189	C	1.284158	0.004343	0.666667
C190	C	0.616778	-0.721722	0.000005
C191	C	0.950112	-0.388388	0.333338
C192	C	1.283445	-0.055055	0.666671
C193	C	0.720623	-0.735869	0.000011
C194	C	1.053957	-0.402536	0.333344
C195	C	1.387290	-0.069202	0.666678
C196	C	0.721335	-0.676470	0.000011
C197	C	1.054669	-0.343137	0.333344
C198	C	1.388002	-0.009803	0.666678
C199	C	0.669767	-0.639698	0.000004
C200	C	1.003101	-0.306364	0.333337
C201	C	1.336434	0.026969	0.666670
C202	C	0.727163	-0.189404	0.000039
C203	C	1.060496	0.143929	0.333372
C204	C	1.393829	0.477262	0.666706
C205	C	0.727869	-0.130002	0.000047
C206	C	1.061203	0.203331	0.333381
C207	C	1.394536	0.536665	0.666714
C208	C	0.624025	-0.115860	0.000038
C209	C	0.957358	0.217473	0.333371
C210	C	1.290691	0.550807	0.666705
C211	C	0.623318	-0.175257	0.000033
C212	C	0.956651	0.158076	0.333366
C213	C	1.289984	0.491410	0.666699
C214	C	0.674891	-0.212028	0.000031
C215	C	1.008225	0.121305	0.333365
C216	C	1.341558	0.454639	0.666698
O217	O	0.578069	-0.263215	0.000038
O218	O	0.911403	0.070118	0.333371
O219	O	1.244736	0.403452	0.666705
O220	O	0.770196	-0.289433	0.000022
O221	O	1.103529	0.043900	0.333355
O222	O	1.436863	0.377234	0.666688
C223	C	0.776472	0.069389	0.000032
C224	C	1.109805	0.402722	0.333365
C225	C	1.443138	0.736055	0.666699
C226	C	0.839689	0.070155	0.000032
C227	C	1.173022	0.403488	0.333365
C228	C	1.506355	0.736821	0.666698
C229	C	0.667577	0.178283	0.000013
C230	C	1.000910	0.511617	0.333346
C231	C	1.334244	0.844950	0.666679
C232	C	0.668343	0.241500	0.000004
C233	C	1.001676	0.574834	0.333337
C234	C	1.335010	0.908167	0.666671
N235	N	0.672305	0.074154	0.143831
N236	N	1.005639	0.407487	0.477165
N237	N	1.338972	0.740821	0.810498
N238	N	0.672347	0.074113	-0.143777
N239	N	1.005680	0.407446	0.189556
N240	N	1.339014	0.740779	0.522889
C241	C	0.711273	0.035196	0.563618
C242	C	1.044606	0.368530	0.896951
C243	C	1.377939	0.701863	1.230285
C244	C	0.711275	0.035192	0.627226
C245	C	1.044609	0.368526	0.960559
C246	C	1.377942	0.701859	1.293892
O247	O	0.744383	0.002077	0.660123
O248	O	1.077717	0.335410	0.993457
O249	O	1.411050	0.668743	1.326790
N250	N	0.672333	0.074116	0.659038
N251	N	1.005666	0.407449	0.992372
N252	N	1.339000	0.740782	1.325705
C253	C	0.633382	0.113042	0.627240
C254	C	0.966715	0.446375	0.960574
C255	C	1.300049	0.779708	1.293907
O256	O	0.600259	0.146148	0.660140
O257	O	0.933592	0.479482	0.993474
O258	O	1.266925	0.812815	1.326807
C259	C	0.633377	0.113042	0.563634
C260	C	0.966710	0.446376	0.896967
C261	C	1.300044	0.779709	1.230301
C262	C	0.672326	0.074120	0.531824
C263	C	1.005659	0.407454	0.865158
C264	C	1.338992	0.740787	1.198491
C265	C	0.750217	-0.003723	0.531809
C266	C	1.083551	0.329610	0.865142
C267	C	1.416884	0.662944	1.198475
C268	C	0.750215	-0.003718	0.468205
C269	C	1.083549	0.329615	0.801539
C270	C	1.416882	0.662948	1.134872
C271	C	0.711268	0.035206	0.436412
C272	C	1.044602	0.368539	0.769745
C273	C	1.377935	0.701873	1.103078
C274	C	0.672323	0.074125	0.468221
C275	C	1.005657	0.407459	0.801555
C276	C	1.338990	0.740792	1.134888
C277	C	0.594424	0.151965	0.531837
C278	C	0.927757	0.485299	0.865170
C279	C	1.261090	0.818632	1.198504
C280	C	0.594422	0.151962	0.468226
C281	C	0.927755	0.485296	0.801559
C282	C	1.261089	0.818629	1.134893
C283	C	0.633370	0.113040	0.436417
C284	C	0.966704	0.446374	0.769750
C285	C	1.300037	0.779707	1.103083
C286	C	0.633374	0.113054	0.372824
C287	C	0.966708	0.446387	0.706158
C288	C	1.300041	0.779721	1.039491
N289	N	0.672316	0.074131	0.341012
N290	N	1.005650	0.407464	0.674345
N291	N	1.338983	0.740797	1.007678
C292	C	0.711263	0.035207	0.372805
C293	C	1.044597	0.368540	0.706139
C294	C	1.377930	0.701873	1.039472
C295	C	0.633395	0.113037	0.760818
C296	C	0.966728	0.446370	1.094151
C297	C	1.300061	0.779703	1.427485
C298	C	0.633402	0.113039	0.824423
C299	C	0.966735	0.446372	1.157757
C300	C	1.300069	0.779706	1.491090
C301	C	0.711294	0.035189	0.824404
C302	C	1.044628	0.368522	1.157738
C303	C	1.377961	0.701855	1.491071
C304	C	0.711290	0.035189	0.760798
C305	C	1.044623	0.368523	1.094131
C306	C	1.377956	0.701856	1.427465
C307	C	0.672337	0.074113	0.729005
C308	C	1.005670	0.407446	1.062339
C309	C	1.339003	0.740780	1.395672
C310	C	0.711256	0.035220	0.239234
C311	C	1.044590	0.368553	0.572567
C312	C	1.377923	0.701887	0.905901
C313	C	0.711252	0.035230	0.175625
C314	C	1.044586	0.368563	0.508958
C315	C	1.377919	0.701896	0.842292
C316	C	0.633358	0.113078	0.175650
C317	C	0.966691	0.446411	0.508983
C318	C	1.300025	0.779744	0.842316
C319	C	0.633364	0.113070	0.239253
C320	C	0.966697	0.446403	0.572586
C321	C	1.300030	0.779737	0.905920
C322	C	0.672315	0.074137	0.271043
C323	C	1.005648	0.407470	0.604377
C324	C	1.338982	0.740803	0.937710
O325	O	0.600282	0.146151	0.339886
O326	O	0.933615	0.479485	0.673220
O327	O	1.266948	0.812818	1.006553
O328	O	0.744376	0.002101	0.339898
O329	O	1.077710	0.335434	0.673231
O330	O	1.411043	0.668767	1.006564
H331	H	-0.059864	0.165712	0.000019
H332	H	0.273470	0.499045	0.333353
H333	H	0.606803	0.832379	0.666686
H334	H	0.763906	-0.658055	0.000018
H335	H	1.097239	-0.324722	0.333351
H336	H	1.430573	0.008612	0.666685
H337	H	-0.167631	0.164417	0.000016
H338	H	0.165702	0.497750	0.333349
H339	H	0.499035	0.831084	0.666682
H340	H	0.601654	0.144769	0.265153
H341	H	0.934987	0.478103	0.598486
H342	H	1.268321	0.811436	0.931819
C343	C	0.785379	-0.105121	0.000054
C344	C	1.118712	0.228213	0.333387
C345	C	1.452046	0.561546	0.666720
H346	H	0.815985	-0.135532	0.000048
H347	H	1.149319	0.197801	0.333381
H348	H	1.482652	0.531135	0.666714
H349	H	0.787813	-0.082245	0.035293
H350	H	1.121146	0.251088	0.368627
H351	H	1.454480	0.584422	0.701960
H352	H	0.787820	-0.082243	-0.035188
H353	H	1.121154	0.251091	0.298145
H354	H	1.454487	0.584424	0.631479
C355	C	0.754130	-0.007633	0.859386
C356	C	1.087464	0.325700	1.192719
C357	C	1.420797	0.659034	1.526052
H358	H	0.748547	-0.002061	0.901822
H359	H	1.081881	0.331273	1.235156
H360	H	1.415214	0.664606	1.568489
H361	H	0.792105	-0.001647	0.848961
H362	H	1.125438	0.331687	1.182294
H363	H	1.458771	0.665020	1.515628
H364	H	0.748155	-0.045613	0.848962
H365	H	1.081488	0.287721	1.182296
H366	H	1.414821	0.621054	1.515629
H367	H	0.562708	0.183659	0.557727
H368	H	0.896042	0.516992	0.891061
H369	H	1.229375	0.850325	1.224394
C370	C	0.567309	-0.075403	0.000032
C371	C	0.900642	0.257930	0.333365
C372	C	1.233975	0.591264	0.666698
H373	H	0.575224	-0.036788	0.000029
H374	H	0.908558	0.296545	0.333362
H375	H	1.241891	0.629878	0.666695
H376	H	0.545846	-0.082226	0.035265
H377	H	0.879179	0.251107	0.368598
H378	H	1.212513	0.584440	0.701931
H379	H	0.545869	-0.082228	-0.035217
H380	H	0.879202	0.251105	0.298117
H381	H	1.212535	0.584438	0.631450
C382	C	0.510618	-0.466278	-0.000021
C383	C	0.843952	-0.132944	0.333312
C384	C	1.177285	0.200389	0.666646
H385	H	0.480016	-0.435863	-0.000031
H386	H	0.813349	-0.102529	0.333303
H387	H	1.146683	0.230804	0.666636
H388	H	0.508166	-0.489157	0.035214
H389	H	0.841499	-0.155823	0.368547
H390	H	1.174833	0.177510	0.701881
H391	H	0.508189	-0.489151	-0.035268
H392	H	0.841522	-0.155818	0.298066
H393	H	1.174855	0.177516	0.631399
C394	C	0.754104	-0.007604	0.274195
C395	C	1.087437	0.325730	0.607528
C396	C	1.420771	0.659063	0.940861
H397	H	0.777298	-0.030776	0.246133
H398	H	1.110631	0.302558	0.579466
H399	H	1.443965	0.635891	0.912800
H400	H	0.733760	-0.031214	0.299010
H401	H	1.067094	0.302120	0.632343
H402	H	1.400427	0.635453	0.965677
H403	H	0.777698	0.012765	0.299003
H404	H	1.111031	0.346098	0.632336
H405	H	1.444365	0.679432	0.965670
C406	C	0.590518	0.155892	0.140671
C407	C	0.923852	0.489225	0.474005
C408	C	1.257185	0.822558	0.807338
H409	H	0.567324	0.179076	0.168722
H410	H	0.900657	0.512409	0.502056
H411	H	1.233991	0.845743	0.835389
H412	H	0.566932	0.135521	0.115861
H413	H	0.900266	0.468854	0.449194
H414	H	1.233599	0.802188	0.782527
H415	H	0.610871	0.179498	0.115857
H416	H	0.944205	0.512832	0.449190
H417	H	1.277538	0.846165	0.782523
C418	C	0.793066	-0.046540	0.566772
C419	C	1.126399	0.286793	0.900105
C420	C	1.459732	0.620126	1.233439
H421	H	0.816258	-0.069712	0.538709
H422	H	1.149591	0.263621	0.872042
H423	H	1.482925	0.596954	1.205376
H424	H	0.772726	-0.070151	0.591592
H425	H	1.106060	0.263183	0.924925
H426	H	1.439393	0.596516	1.258258
H427	H	0.816661	-0.026169	0.591576
H428	H	1.149994	0.307164	0.924909
H429	H	1.483328	0.640498	1.258243
C430	C	0.783892	-0.229844	0.000042
C431	C	1.117225	0.103489	0.333376
C432	C	1.450559	0.436823	0.666709
H433	H	0.815123	-0.207856	0.000054
H434	H	1.148457	0.125477	0.333387
H435	H	1.481790	0.458811	0.666720
H436	H	0.785787	-0.253310	-0.035196
H437	H	1.119120	0.080023	0.298137
H438	H	1.452453	0.413356	0.631470
H439	H	0.785768	-0.253309	0.035285
H440	H	1.119101	0.080024	0.368618
H441	H	1.452434	0.413358	0.701952
C442	C	0.559273	-0.746603	0.000002
C443	C	0.892606	-0.413270	0.333335
C444	C	1.225939	-0.079936	0.666668
H445	H	0.566228	-0.787246	0.000003
H446	H	0.899561	-0.453913	0.333337
H447	H	1.232895	-0.120579	0.666670
H448	H	0.538062	-0.733957	-0.035237
H449	H	0.871395	-0.400623	0.298097
H450	H	1.204728	-0.067290	0.631430
H451	H	0.538053	-0.733961	0.035245
H452	H	0.871386	-0.400628	0.368578
H453	H	1.204719	-0.067295	0.701911
C454	C	0.793070	-0.046519	0.433220
C455	C	1.126403	0.286814	0.766553
C456	C	1.459737	0.620147	1.099887
H457	H	0.787503	-0.040942	0.390783
H458	H	1.120837	0.292392	0.724117
H459	H	1.454170	0.625725	1.057450
H460	H	0.787118	-0.084504	0.443639
H461	H	1.120451	0.248830	0.776973
H462	H	1.453784	0.582163	1.110306
H463	H	0.831037	-0.040507	0.443651
H464	H	1.164370	0.292826	0.776984
H465	H	1.497704	0.626160	1.110318
C466	C	0.256610	-0.086080	0.000049
C467	C	0.589944	0.247253	0.333382
C468	C	0.923277	0.580586	0.666716
H469	H	0.234621	-0.117310	0.000049
H470	H	0.567954	0.216023	0.333382
H471	H	0.901287	0.549356	0.666715
H472	H	0.280079	-0.087967	0.035283
H473	H	0.613412	0.245367	0.368617
H474	H	0.946745	0.578700	0.701950
H475	H	0.280074	-0.087966	-0.035198
H476	H	0.613407	0.245367	0.298135
H477	H	0.946740	0.578700	0.631469
H478	H	0.601676	0.144737	0.734936
H479	H	0.935009	0.478071	1.068269
H480	H	1.268343	0.811404	1.401602
C481	C	0.512117	-0.341557	-0.000012
C482	C	0.845451	-0.008223	0.333321
C483	C	1.178784	0.325110	0.666655
H484	H	0.480883	-0.363541	-0.000013
H485	H	0.814217	-0.030208	0.333320
H486	H	1.147550	0.303125	0.666653
H487	H	0.510241	-0.318088	-0.035248
H488	H	0.843574	0.015245	0.298085
H489	H	1.176908	0.348578	0.631418
H490	H	0.510228	-0.318094	0.035233
H491	H	0.843561	0.015239	0.368566
H492	H	1.176895	0.348572	0.701900
H493	H	0.819097	-0.391900	0.000033
H494	H	1.152430	-0.058566	0.333367
H495	H	1.485763	0.274767	0.666700
H496	H	0.762610	-0.765821	0.000011
H497	H	1.095943	-0.432487	0.333344
H498	H	1.429276	-0.099154	0.666677
H499	H	0.580747	-0.193677	0.000042
H500	H	0.914081	0.139656	0.333376
H501	H	1.247414	0.472990	0.666709
H502	H	0.817806	-0.499644	0.000022
H503	H	1.151140	-0.166311	0.333356
H504	H	1.484473	0.167022	0.666689
H505	H	0.575496	-0.632386	-0.000000
H506	H	0.908829	-0.299053	0.333333
H507	H	1.242162	0.034281	0.666666
H508	H	0.562700	0.183658	0.442344
H509	H	0.896033	0.516992	0.775677
H510	H	1.229367	0.850325	1.109010
H511	H	0.486595	0.172252	-0.000006
H512	H	0.819928	0.505586	0.333328
H513	H	1.153261	0.838919	0.666661
C514	C	0.368338	0.185697	0.000001
C515	C	0.701671	0.519030	0.333335
C516	C	1.035005	0.852363	0.666668
H517	H	0.390325	0.216929	-0.000012
H518	H	0.723658	0.550262	0.333321
H519	H	1.056992	0.883595	0.666654
H520	H	0.344867	0.187590	0.035239
H521	H	0.678201	0.520924	0.368572
H522	H	1.011534	0.854257	0.701906
H523	H	0.344878	0.187572	-0.035243
H524	H	0.678211	0.520905	0.298091
H525	H	1.011544	0.854238	0.631424
H526	H	0.742971	0.003535	0.149728
H527	H	1.076304	0.336868	0.483061
H528	H	1.409638	0.670201	0.816394
C529	C	0.754128	-0.007628	0.725813
C530	C	1.087461	0.325705	1.059147
C531	C	1.420795	0.659038	1.392480
H532	H	0.777320	-0.030810	0.753864
H533	H	1.110653	0.302523	1.087197
H534	H	1.443986	0.635856	1.420530
H535	H	0.777717	0.012735	0.700993
H536	H	1.111050	0.346068	1.034326
H537	H	1.444383	0.679402	1.367660
H538	H	0.733772	-0.031237	0.701008
H539	H	1.067106	0.302096	1.034341
H540	H	1.400439	0.635430	1.367675
C541	C	0.522784	-0.030886	0.000037
C542	C	0.856117	0.302448	0.333370
C543	C	1.189450	0.635781	0.666703
H544	H	0.500807	-0.062125	0.000038
H545	H	0.834140	0.271208	0.333372
H546	H	1.167473	0.604541	0.666705
H547	H	0.546246	-0.032757	0.035274
H548	H	0.879580	0.300576	0.368608
H549	H	1.212913	0.633909	0.701941
H550	H	0.546252	-0.032769	-0.035207
H551	H	0.879585	0.300564	0.298126
H552	H	1.212918	0.633898	0.631460
H553	H	0.206274	0.220904	0.000022
H554	H	0.539607	0.554238	0.333355
H555	H	0.872940	0.887571	0.666688
H556	H	0.601692	0.144739	0.850318
H557	H	0.935026	0.478072	1.183652
H558	H	1.268359	0.811405	1.516985
H559	H	-0.141954	-0.023984	0.000041
H560	H	0.191379	0.309349	0.333374
H561	H	0.524713	0.642683	0.666708
H562	H	-0.034204	-0.022699	0.000050
H563	H	0.299130	0.310634	0.333384
H564	H	0.632463	0.643967	0.666717
H565	H	0.098525	0.219610	0.000035
H566	H	0.431858	0.552943	0.333369
H567	H	0.765191	0.886277	0.666702
H568	H	0.138359	-0.072637	0.000053
H569	H	0.471692	0.260696	0.333386
H570	H	0.805026	0.594030	0.666720
H571	H	0.404515	-0.017447	0.000034
H572	H	0.737848	0.315887	0.333367
H573	H	1.071181	0.649220	0.666700
